data_PCOD9546955
_publ_section_title
;
Structure prediction by ZEFSAII (Michael W. Deem and Ramdas Pophale) SiO2 
 PCOD9546955
Probable space group: P 4 2 2
;
_chemical_formula_sum "Si O2"
_cell_formula_units_Z 56
_cell_length_a 14.851961
_cell_length_b 14.851961
_cell_length_c 11.517533
_cell_angle_alpha 90.000000
_cell_angle_beta 90.000000
_cell_angle_gamma 90.000000
_cell_volume 2540.546016
_symmetry_space_group_name_H-M "P 4 2 2"
_symmetry_group_IT_number 89
_symmetry_cell_setting 'tetragonal'
loop_
_space_group_symop_operation_xyz
x,y,z
-y,x,z
-x,-y,z
y,-x,z
x,-y,-z
-x,y,-z
y,x,-z
-y,-x,-z
loop_
_atom_site_type_symbol
_atom_site_label
_atom_site_fract_x
_atom_site_fract_y
_atom_site_fract_z
Si Si1 0.095160 0.681872 0.546794
Si Si2 0.163667 0.384501 0.787463
Si Si3 0.261653 0.593217 0.976351
Si Si4 0.879259 0.421984 0.782328
Si Si5 0.400275 0.264900 0.437836
Si Si6 0.857694 0.049634 0.327565
Si Si7 0.996112 0.274549 0.134501
O O1 0.121634 0.631260 0.663450
O O2 0.175406 0.658105 0.462650
O O3 0.080909 0.785486 0.578216
O O4 0.000000 0.647292 0.500000
O O5 0.107603 0.473559 0.753356
O O6 0.252901 0.394331 0.703869
O O7 0.099054 0.296683 0.799035
O O8 0.188129 0.402621 0.921640
O O9 0.213789 0.591050 0.852390
O O10 0.312544 0.500000 0.000000
O O11 0.322655 0.677346 0.000000
O O12 0.952916 0.370311 0.858300
O O13 0.500000 0.259234 0.500000
O O14 0.347615 0.347615 0.500000
O O15 0.946762 0.108933 0.336353
O O16 0.800925 0.049523 0.207562
O O17 0.000000 0.247690 0.000000
#
# Coordination Sequence:
#
# PCOD9546955 Si02
#       7
#     8   8   8   8   8   8   8
#     4  11  25  44  72 101 139 181 243 299 358 423
#     4  11  23  42  69  97 140 182 226 289 364 424
#     4  10  23  39  65  95 131 178 226 290 357 429
#     4  10  21  42  64  99 139 170 227 290 355 426
#     4  12  28  47  74 108 147 195 245 304 368 443
#     4  10  25  46  65  92 139 187 233 287 350 426
#     4  11  22  38  66 105 133 180 230 287 353 431
#
# _framework density 22.042504000000001
#
# number of rings (size 3 to 8) (size 9 to 14) (size 15 to 20)
#    0.000    1.286    2.857    2.143    6.000    2.857 
#    0.000    1.429    0.000    1.714    0.000    0.000 
#    0.000    0.000    0.000    0.000    0.000    0.000 
#
# Total GULP energy -312284.904008 kJ/mol
# GULP energy per Si atom -5576.516143 kJ/mol
# Density = 2.199233 g / cm^3
# Si number density = 22.042504 Si / 1000 Ang^3
#
#
#
# Elastic Constant Matrix: (Units=GPa)
#
#
# Indices 1 2 3 4 5 6 
#
# 1 80.2580 30.1363 10.5719 0.0000 0.0000 0.0000
# 2 30.1363 80.2540 10.5708 0.0000 0.0000 0.0000
# 3 10.5719 10.5708 93.2037 0.0000 0.0000 0.0000
# 4 0.0000 0.0000 0.0000 23.0234 0.0000 0.0000
# 5 0.0000 0.0000 0.0000 0.0000 23.0254 0.0000
# 6 0.0000 0.0000 0.0000 0.0000 0.0000 43.5244
#
#
#
# Elastic Compliance Matrix: (Units=1/GPa)
#
#
# Indices 1 2 3 4 5 6 
#
# 1 0.014606 -0.005346 -0.001050 0.000000 0.000000 0.000000
# 2 -0.005346 0.014606 -0.001050 0.000000 0.000000 0.000000
# 3 -0.001050 -0.001050 0.010967 0.000000 0.000000 0.000000
# 4 0.000000 0.000000 0.000000 0.043434 0.000000 0.000000
# 5 0.000000 0.000000 0.000000 0.000000 0.043430 0.000000
# 6 0.000000 0.000000 0.000000 0.000000 0.000000 0.022976
#
#
# Mechanical properties :
#
#
# Convention : Reuss Voigt Hill
#
# Bulk Modulus (GPa) = 39.54775 39.58598 39.56687
# Shear Modulus (GPa) = 28.84477 31.41041 30.12759
#
# Velocity S-wave (km/s) = 3.62138 3.77900 3.70103
# Velocity P-wave (km/s) = 5.95537 6.08597 6.02102
#
# Compressibility (1/GPa) = 0.02528589
#
# Stress axis : x y z
#
# Youngs Moduli (GPa) = 68.46670 68.46339 91.17907
#
# Poissons Ratio (x) = 0.36602 0.09577
# Poissons Ratio (y) = 0.36604 0.09576
# Poissons Ratio (z) = 0.07191 0.07190
#
# Static dielectric constant tensor:
#      x y z
#    x 1.900490 0.000000 0.000000 
#    y 0.000000 1.900520 0.000000 
#    z 0.000000 0.000000 1.857320 
# 
# From -- ./inp_files/1849.got.cif
#   From: 2010.05.17/outbox.cif.g08.bks.cpg/sg89_1_cif.got.tgz:1849.got - 2010.06.03 19:15:31.
