data_PCOD9546040
_publ_section_title
;
Structure prediction by ZEFSAII (Michael W. Deem and Ramdas Pophale) SiO2 
 PCOD9546040
Probable space group: I 4/M
;
_chemical_formula_sum "Si O2"
_cell_formula_units_Z 112
_cell_length_a 14.238531
_cell_length_b 14.238531
_cell_length_c 33.289662
_cell_angle_alpha 90.000000
_cell_angle_beta 90.000000
_cell_angle_gamma 90.000000
_cell_volume 6749.005093
_symmetry_space_group_name_H-M "I 4/M"
_symmetry_group_IT_number 87
_symmetry_cell_setting 'tetragonal'
loop_
_space_group_symop_operation_xyz
x,y,z
-y,x,z
-x,-y,z
y,-x,z
-x,-y,-z
y,-x,-z
x,y,-z
-y,x,-z
1/2+x,1/2+y,1/2+z
1/2-y,1/2+x,1/2+z
1/2-x,1/2-y,1/2+z
1/2+y,1/2-x,1/2+z
1/2-x,1/2-y,1/2-z
1/2+y,1/2-x,1/2-z
1/2+x,1/2+y,1/2-z
1/2-y,1/2+x,1/2-z
loop_
_atom_site_type_symbol
_atom_site_label
_atom_site_fract_x
_atom_site_fract_y
_atom_site_fract_z
Si Si1 0.433476 0.145372 0.838147
Si Si2 0.144360 0.566572 0.250000
Si Si3 0.893346 0.241828 0.452732
Si Si4 0.393346 0.741828 0.547268
Si Si5 0.396800 0.242146 0.579219
Si Si6 0.757854 0.396800 0.079219
Si Si7 0.145372 0.566524 0.661853
O O1 0.413796 0.187242 0.793701
O O2 0.404225 0.211881 0.874421
O O3 0.544522 0.119516 0.841385
O O4 0.380484 0.044522 0.841385
O O5 0.118878 0.456141 0.250000
O O6 0.187242 0.586204 0.293701
O O7 0.886418 0.221300 0.500000
O O8 0.839986 0.339122 0.443295
O O9 0.835912 0.162944 0.428417
O O10 0.000084 0.247674 0.438889
O O11 0.386418 0.721300 0.500000
O O12 0.500084 0.747674 0.561111
O O13 0.335912 0.662944 0.571583
O O14 0.339986 0.839122 0.556705
O O15 0.404225 0.211881 0.625579
#
# Coordination Sequence:
#
# PCOD9546040 Si02
#       7
#    16  16  16  16  16  16  16
#     4   9  15  28  50  80 107 136 173 213 268 312
#     4   7  12  22  44  75 109 134 162 211 260 319
#     4  11  23  38  54  76 104 141 180 225 271 310
#     4  11  23  38  54  76 104 141 180 225 271 310
#     4  11  21  36  55  77 107 139 178 220 260 319
#     4  11  21  36  55  77 107 139 178 220 260 319
#     4   9  15  28  50  80 107 136 173 213 268 312
#
# _framework density 16.595037999999999
#
# number of rings (size 3 to 8) (size 9 to 14) (size 15 to 20)
#    0.000    2.143    2.857    5.143    0.000    1.143 
#    0.000    2.857    0.000    5.143    0.000    0.000 
#    0.000    2.286    0.000    0.000    0.000    0.000 
#
# Total GULP energy -312142.557083 kJ/mol
# GULP energy per Si atom -5573.974234 kJ/mol
# Density = 1.655727 g / cm^3
# Si number density = 16.595038 Si / 1000 Ang^3
#
#
#
# Elastic Constant Matrix: (Units=GPa)
#
#
# Indices 1 2 3 4 5 6 
#
# 1 92.4974 53.6403 44.4981 0.0000 0.0000 -8.0850
# 2 53.6403 92.4974 44.4981 0.0000 0.0000 8.0850
# 3 44.4981 44.4981 182.0624 0.0000 0.0000 0.0000
# 4 0.0000 0.0000 0.0000 -12.3403 0.0000 0.0000
# 5 0.0000 0.0000 0.0000 0.0000 -12.3403 0.0000
# 6 -8.0850 8.0850 0.0000 0.0000 0.0000 -15.3401
#
#
#
# Elastic Compliance Matrix: (Units=1/GPa)
#
#
# Indices 1 2 3 4 5 6 
#
# 1 0.014573 -0.006533 -0.001965 0.000000 0.000000 -0.011124
# 2 -0.006533 0.014573 -0.001965 0.000000 0.000000 0.011124
# 3 -0.001965 -0.001965 0.006453 0.000000 0.000000 0.000000
# 4 0.000000 0.000000 0.000000 -0.081035 0.000000 0.000000
# 5 0.000000 0.000000 0.000000 0.000000 -0.081035 0.000000
# 6 -0.011124 0.011124 0.000000 0.000000 0.000000 -0.053463
#
#
# Mechanical properties :
#
#
# Convention : Reuss Voigt Hill
#
# Bulk Modulus (GPa) = 68.15545 72.48113 70.31829
# Shear Modulus (GPa) = -32.44287 6.95724 -12.74281
#
# Velocity S-wave (km/s) = -4.42631 2.04975 -2.77405
# Velocity P-wave (km/s) = 3.87763 7.02660 5.67491
#
# Compressibility (1/GPa) = 0.01467234
#
# Stress axis : x y z
#
# Youngs Moduli (GPa) = 68.62088 68.62088 154.96365
#
# Poissons Ratio (x) = 0.44832 0.30449
# Poissons Ratio (y) = 0.44832 0.30449
# Poissons Ratio (z) = 0.13484 0.13484
#
# Static dielectric constant tensor:
#      x y z
#    x 1.541570 0.000000 0.000000 
#    y 0.000000 1.541570 0.000000 
#    z 0.000000 0.000000 1.590630 
# 
# From -- ./inp_files/6708.got.cif
#   From: 2010.05.17/outbox.cif.g08.bks.cpg/sg87_4_cif.got.tgz:6708.got - 2010.06.03 19:07:00.
