data_PCOD9546038
_publ_section_title
;
Structure prediction by ZEFSAII (Michael W. Deem and Ramdas Pophale) SiO2 
 PCOD9546038
Probable space group: I 4/M
;
_chemical_formula_sum "Si O2"
_cell_formula_units_Z 88
_cell_length_a 14.401854
_cell_length_b 14.401854
_cell_length_c 22.000696
_cell_angle_alpha 90.000000
_cell_angle_beta 90.000000
_cell_angle_gamma 90.000000
_cell_volume 4563.239130
_symmetry_space_group_name_H-M "I 4/M"
_symmetry_group_IT_number 87
_symmetry_cell_setting 'tetragonal'
loop_
_space_group_symop_operation_xyz
x,y,z
-y,x,z
-x,-y,z
y,-x,z
-x,-y,-z
y,-x,-z
x,y,-z
-y,x,-z
1/2+x,1/2+y,1/2+z
1/2-y,1/2+x,1/2+z
1/2-x,1/2-y,1/2+z
1/2+y,1/2-x,1/2+z
1/2-x,1/2-y,1/2-z
1/2+y,1/2-x,1/2-z
1/2+x,1/2+y,1/2-z
1/2-y,1/2+x,1/2-z
loop_
_atom_site_type_symbol
_atom_site_label
_atom_site_fract_x
_atom_site_fract_y
_atom_site_fract_z
Si Si1 0.559660 0.829046 0.000000
Si Si2 0.257123 0.320685 0.500000
Si Si3 0.875142 0.638904 0.000000
Si Si4 0.352141 0.038989 0.765650
Si Si5 0.637350 0.563669 0.594442
Si Si6 0.046713 0.855741 0.759001
Si Si7 0.600036 0.976849 0.896397
O O1 0.655224 0.773407 0.000000
O O2 0.575657 0.893068 0.940979
O O3 0.451022 0.806719 0.000000
O O4 0.325668 0.235513 0.500000
O O5 0.280068 0.387108 0.557629
O O6 0.940593 0.631030 0.059307
O O7 0.434925 0.111127 0.750120
O O8 0.250652 0.061734 0.737932
O O9 0.337859 0.040297 0.838414
O O10 0.543307 0.619423 0.576812
O O11 0.642412 0.560707 0.667555
O O12 0.941689 0.886545 0.740585
O O13 0.500000 0.000000 0.867276
#
# Coordination Sequence:
#
# PCOD9546038 Si02
#       7
#     8   8   8  16  16  16  16
#     4   9  20  34  53  74 110 151 177 218 278 328
#     4  12  20  27  52  83 106 146 188 216 256 334
#     4   9  22  32  53  78 110 151 173 224 274 326
#     4  11  21  34  57  84 109 142 191 244 273 321
#     4   9  19  31  46  76 116 146 165 206 259 334
#     4   9  20  37  54  73 109 150 180 222 286 334
#     4   9  17  36  52  75 113 143 173 221 282 323
#
# _framework density 19.284548000000001
#
# number of rings (size 3 to 8) (size 9 to 14) (size 15 to 20)
#    0.000    2.364    1.818    3.818   10.182    1.455 
#    0.000    0.000    0.000    0.273    0.000    0.000 
#    0.000    0.000    0.000    0.000    0.000    3.273 
#
# Total GULP energy -244946.303736 kJ/mol
# GULP energy per Si atom -5566.961449 kJ/mol
# Density = 1.924066 g / cm^3
# Si number density = 19.284548 Si / 1000 Ang^3
#
#
#
# Elastic Constant Matrix: (Units=GPa)
#
#
# Indices 1 2 3 4 5 6 
#
# 1 85.8620 11.9798 3.5931 0.0000 0.0000 0.1880
# 2 11.9798 85.8620 3.5931 0.0000 0.0000 -0.1880
# 3 3.5931 3.5931 46.1217 0.0000 0.0000 0.0000
# 4 0.0000 0.0000 0.0000 31.1104 0.0000 0.0000
# 5 0.0000 0.0000 0.0000 0.0000 31.1104 0.0000
# 6 0.1880 -0.1880 0.0000 0.0000 0.0000 17.6788
#
#
#
# Elastic Compliance Matrix: (Units=1/GPa)
#
#
# Indices 1 2 3 4 5 6 
#
# 1 0.011908 -0.001628 -0.000801 0.000000 0.000000 -0.000144
# 2 -0.001628 0.011908 -0.000801 0.000000 0.000000 0.000144
# 3 -0.000801 -0.000801 0.021807 0.000000 0.000000 0.000000
# 4 0.000000 0.000000 0.000000 0.032144 0.000000 0.000000
# 5 0.000000 0.000000 0.000000 0.000000 0.032144 0.000000
# 6 -0.000144 0.000144 0.000000 0.000000 0.000000 0.056568
#
#
# Mechanical properties :
#
#
# Convention : Reuss Voigt Hill
#
# Bulk Modulus (GPa) = 25.53494 28.46422 26.99958
# Shear Modulus (GPa) = 26.88310 29.22524 28.05417
#
# Velocity S-wave (km/s) = 3.73771 3.89713 3.81825
# Velocity P-wave (km/s) = 5.64776 5.91966 5.78531
#
# Compressibility (1/GPa) = 0.03916203
#
# Stress axis : x y z
#
# Youngs Moduli (GPa) = 83.98002 83.98002 45.85782
#
# Poissons Ratio (x) = 0.13674 0.03672
# Poissons Ratio (y) = 0.13674 0.03672
# Poissons Ratio (z) = 0.06725 0.06725
#
# Static dielectric constant tensor:
#      x y z
#    x 1.720650 0.000000 0.000000 
#    y 0.000000 1.720650 0.000000 
#    z 0.000000 0.000000 1.668690 
# 
# From -- ./inp_files/5807.got.cif
#   From: 2010.05.17/outbox.cif.g08.bks.cpg/sg87_3_cif.got.tgz:5807.got - 2010.06.03 19:07:00.
