data_PCOD9546849
_publ_section_title
;
Structure prediction by ZEFSAII (Michael W. Deem and Ramdas Pophale) SiO2 
 PCOD9546849
Probable space group: I 41/A
;
_chemical_formula_sum "Si O2"
_cell_formula_units_Z 52
_cell_length_a 18.675562
_cell_length_b 18.675562
_cell_length_c 6.588891
_cell_angle_alpha 90.000000
_cell_angle_beta 90.000000
_cell_angle_gamma 90.000000
_cell_volume 2298.051106
_symmetry_space_group_name_H-M "I 41/A"
_symmetry_group_IT_number 88
_space_group.IT_coordinate_system_code '2'
_symmetry_cell_setting 'tetragonal'
loop_
_space_group_symop_operation_xyz
x,y,z
3/4-y,1/4+x,1/4+z
-x,1/2-y,z
1/4+y,1/4-x,1/4+z
-x,-y,-z
1/4+y,3/4-x,3/4-z
x,1/2+y,-z
3/4-y,3/4+x,3/4-z
1/2+x,1/2+y,1/2+z
1/4-y,3/4+x,3/4+z
1/2-x,-y,1/2+z
3/4+y,3/4-x,3/4+z
1/2-x,1/2-y,1/2-z
3/4+y,1/4-x,1/4-z
1/2+x,y,1/2-z
1/4-y,1/4+x,1/4-z
loop_
_atom_site_type_symbol
_atom_site_label
_atom_site_fract_x
_atom_site_fract_y
_atom_site_fract_z
Si Si1 0.246098 0.168682 0.806738
Si Si2 0.715211 0.904328 0.599456
Si Si3 0.877678 0.661170 0.609819
Si Si4 0.000000 0.750000 0.375000
O O1 0.250000 0.250000 0.750000
O O2 0.247421 0.121404 0.604958
O O3 0.167581 0.159077 0.896710
O O4 0.316041 0.155678 0.940584
O O5 0.773145 0.925453 0.771943
O O6 0.667641 0.836380 0.679432
O O7 0.938004 0.715107 0.521314
#
# Coordination Sequence:
#
# PCOD9546849 Si02
#       4
#    16  16  16   4
#     4  12  25  46  74 106 147 196 245 307 368 444
#     4  12  24  43  79 114 142 188 252 314 367 431
#     4  12  25  48  75 107 147 197 253 306 376 443
#     4  12  28  52  70 100 160 202 236 316 390 464
#
# _framework density 22.627866999999998
#
# number of rings (size 3 to 8) (size 9 to 14) (size 15 to 20)
#    0.000    0.000    9.231    1.846    0.000    1.231 
#    5.538    1.538    0.000    0.000    0.000    0.000 
#    0.000    0.000    0.000    0.000    0.000    0.000 
#
# Total GULP energy -144885.379628 kJ/mol
# GULP energy per Si atom -5572.514601 kJ/mol
# Density = 2.257636 g / cm^3
# Si number density = 22.627867 Si / 1000 Ang^3
#
#
#
# Elastic Constant Matrix: (Units=GPa)
#
#
# Indices 1 2 3 4 5 6 
#
# 1 74.7710 23.4083 2.2550 0.0000 0.0000 12.8195
# 2 23.4083 74.7710 2.2550 0.0000 0.0000 -12.8195
# 3 2.2550 2.2550 38.1838 0.0000 0.0000 0.0000
# 4 0.0000 0.0000 0.0000 21.3830 0.0000 0.0000
# 5 0.0000 0.0000 0.0000 0.0000 21.3830 0.0000
# 6 12.8195 -12.8195 0.0000 0.0000 0.0000 47.4501
#
#
#
# Elastic Compliance Matrix: (Units=1/GPa)
#
#
# Indices 1 2 3 4 5 6 
#
# 1 0.016359 -0.006146 -0.000603 0.000000 0.000000 -0.006080
# 2 -0.006146 0.016359 -0.000603 0.000000 0.000000 0.006080
# 3 -0.000603 -0.000603 0.026260 0.000000 0.000000 0.000000
# 4 0.000000 0.000000 0.000000 0.046766 0.000000 0.000000
# 5 0.000000 0.000000 0.000000 0.000000 0.046766 0.000000
# 6 -0.006080 0.006080 0.000000 0.000000 0.000000 0.024360
#
#
# Mechanical properties :
#
#
# Convention : Reuss Voigt Hill
#
# Bulk Modulus (GPa) = 22.58658 27.06247 24.82453
# Shear Modulus (GPa) = 24.23279 28.69704 26.46491
#
# Velocity S-wave (km/s) = 3.27605 3.56507 3.42361
# Velocity P-wave (km/s) = 4.93087 5.37885 5.15972
#
# Compressibility (1/GPa) = 0.04427408
#
# Stress axis : x y z
#
# Youngs Moduli (GPa) = 61.12935 61.12935 38.08024
#
# Poissons Ratio (x) = 0.37568 0.02297
# Poissons Ratio (y) = 0.37568 0.02297
# Poissons Ratio (z) = 0.03687 0.03687
#
# Static dielectric constant tensor:
#      x y z
#    x 1.981600 0.000000 0.000000 
#    y 0.000000 1.981600 0.000000 
#    z 0.000000 0.000000 2.075610 
# 
# From -- ./inp_files/380.got.cif
#   From: 2010.05.17/outbox.cif.g08.bks.cpg/sg88_1_cif.got.tgz:380.got - 2010.06.03 19:11:41.
