data_PCOD9546501
_publ_section_title
;
Structure prediction by ZEFSAII (Michael W. Deem and Ramdas Pophale) SiO2 
 PCOD9546501
Probable space group: I 41/A
;
_chemical_formula_sum "Si O2"
_cell_formula_units_Z 56
_cell_length_a 12.746921
_cell_length_b 12.746921
_cell_length_c 16.769557
_cell_angle_alpha 90.000000
_cell_angle_beta 90.000000
_cell_angle_gamma 90.000000
_cell_volume 2724.784615
_symmetry_space_group_name_H-M "I 41/A"
_symmetry_group_IT_number 88
_space_group.IT_coordinate_system_code '2'
_symmetry_cell_setting 'tetragonal'
loop_
_space_group_symop_operation_xyz
x,y,z
3/4-y,1/4+x,1/4+z
-x,1/2-y,z
1/4+y,1/4-x,1/4+z
-x,-y,-z
1/4+y,3/4-x,3/4-z
x,1/2+y,-z
3/4-y,3/4+x,3/4-z
1/2+x,1/2+y,1/2+z
1/4-y,3/4+x,3/4+z
1/2-x,-y,1/2+z
3/4+y,3/4-x,3/4+z
1/2-x,1/2-y,1/2-z
3/4+y,1/4-x,1/4-z
1/2+x,y,1/2-z
1/4-y,1/4+x,1/4-z
loop_
_atom_site_type_symbol
_atom_site_label
_atom_site_fract_x
_atom_site_fract_y
_atom_site_fract_z
Si Si1 0.000000 0.250000 0.317718
Si Si2 0.857872 0.108503 0.423642
Si Si3 0.869010 0.800098 0.923009
Si Si4 0.867670 0.159718 0.600444
O O1 0.910618 0.204623 0.375288
O O2 0.007680 0.152961 0.254842
O O3 0.735874 0.136218 0.428335
O O4 0.894048 0.108750 0.515205
O O5 0.878554 0.996661 0.382411
O O6 0.871539 0.712107 0.854129
O O7 0.875021 0.286135 0.593006
#
# Coordination Sequence:
#
# PCOD9546501 Si02
#       4
#     8  16  16  16
#     4  10  21  42  65 100 140 176 238 288 339 416
#     4  12  23  45  73 100 138 192 229 289 358 412
#     4   9  22  41  64 102 141 179 236 292 346 420
#     4  11  26  46  68 104 139 180 238 289 348 425
#
# _framework density 20.552084000000001
#
# number of rings (size 3 to 8) (size 9 to 14) (size 15 to 20)
#    0.000    1.714    2.857    2.571    0.000    9.143 
#    0.000    0.000    0.000    0.000    0.000    0.000 
#    0.000    0.000    0.000    0.000    0.000    0.000 
#
# Total GULP energy -156016.910355 kJ/mol
# GULP energy per Si atom -5572.032513 kJ/mol
# Density = 2.050531 g / cm^3
# Si number density = 20.552084 Si / 1000 Ang^3
#
#
#
# Elastic Constant Matrix: (Units=GPa)
#
#
# Indices 1 2 3 4 5 6 
#
# 1 94.0296 50.0685 18.4730 0.0000 0.0000 -1.7962
# 2 50.0685 94.0296 18.4729 0.0000 0.0000 1.7962
# 3 18.4730 18.4729 106.9399 0.0000 0.0000 0.0000
# 4 0.0000 0.0000 0.0000 12.2802 0.0000 0.0000
# 5 0.0000 0.0000 0.0000 0.0000 12.2802 0.0000
# 6 -1.7962 1.7962 0.0000 0.0000 0.0000 30.7699
#
#
#
# Elastic Compliance Matrix: (Units=1/GPa)
#
#
# Indices 1 2 3 4 5 6 
#
# 1 0.015059 -0.007798 -0.001254 0.000000 0.000000 0.001334
# 2 -0.007798 0.015059 -0.001254 0.000000 0.000000 -0.001334
# 3 -0.001254 -0.001254 0.009784 0.000000 0.000000 0.000000
# 4 0.000000 0.000000 0.000000 0.081432 0.000000 0.000000
# 5 0.000000 0.000000 0.000000 0.000000 0.081432 0.000000
# 6 0.001334 -0.001334 0.000000 0.000000 0.000000 0.032655
#
#
# Mechanical properties :
#
#
# Convention : Reuss Voigt Hill
#
# Bulk Modulus (GPa) = 51.84111 52.11421 51.97766
# Shear Modulus (GPa) = 19.05030 24.93172 21.99101
#
# Velocity S-wave (km/s) = 3.04785 3.48674 3.27465
# Velocity P-wave (km/s) = 6.13717 6.45151 6.29630
#
# Compressibility (1/GPa) = 0.01928971
#
# Stress axis : x y z
#
# Youngs Moduli (GPa) = 66.40616 66.40616 102.20355
#
# Poissons Ratio (x) = 0.51780 0.12820
# Poissons Ratio (y) = 0.51780 0.12820
# Poissons Ratio (z) = 0.08330 0.08330
#
# Static dielectric constant tensor:
#      x y z
#    x 1.742910 0.000000 0.000000 
#    y 0.000000 1.742910 0.000000 
#    z 0.000000 0.000000 1.790250 
# 
# From -- ./inp_files/3009.got.cif
#   From: 2010.05.17/outbox.cif.g08.bks.cpg/sg88_2_cif.got.tgz:3009.got - 2010.06.03 19:11:41.
