data_PCOD9546460
_publ_section_title
;
Structure prediction by ZEFSAII (Michael W. Deem and Ramdas Pophale) SiO2 
 PCOD9546460
Probable space group: I 41/A
;
_chemical_formula_sum "Si O2"
_cell_formula_units_Z 96
_cell_length_a 13.427411
_cell_length_b 13.427411
_cell_length_c 20.746258
_cell_angle_alpha 90.000000
_cell_angle_beta 90.000000
_cell_angle_gamma 90.000000
_cell_volume 3740.454183
_symmetry_space_group_name_H-M "I 41/A"
_symmetry_group_IT_number 88
_space_group.IT_coordinate_system_code '2'
_symmetry_cell_setting 'tetragonal'
loop_
_space_group_symop_operation_xyz
x,y,z
3/4-y,1/4+x,1/4+z
-x,1/2-y,z
1/4+y,1/4-x,1/4+z
-x,-y,-z
1/4+y,3/4-x,3/4-z
x,1/2+y,-z
3/4-y,3/4+x,3/4-z
1/2+x,1/2+y,1/2+z
1/4-y,3/4+x,3/4+z
1/2-x,-y,1/2+z
3/4+y,3/4-x,3/4+z
1/2-x,1/2-y,1/2-z
3/4+y,1/4-x,1/4-z
1/2+x,y,1/2-z
1/4-y,1/4+x,1/4-z
loop_
_atom_site_type_symbol
_atom_site_label
_atom_site_fract_x
_atom_site_fract_y
_atom_site_fract_z
Si Si1 0.628830 0.714464 0.593895
Si Si2 0.639252 0.565954 0.996647
Si Si3 0.999657 0.613884 0.340531
Si Si4 0.469591 0.079460 0.096652
Si Si5 0.140777 0.506900 0.986529
Si Si6 0.993238 0.920851 0.103028
O O1 0.429177 0.678709 0.589150
O O2 0.632178 0.613246 0.551907
O O3 0.742539 0.749642 0.594484
O O4 0.581092 0.584004 0.930492
O O5 0.627796 0.670729 0.033996
O O6 0.589564 0.477920 0.039794
O O7 0.751294 0.529753 0.993475
O O8 0.935003 0.653982 0.403102
O O9 0.033157 0.500992 0.346359
O O10 0.420492 0.182066 0.117919
O O11 0.092716 0.422297 0.939929
O O12 0.081289 0.529512 0.050976
#
# Coordination Sequence:
#
# PCOD9546460 Si02
#       6
#    16  16  16  16  16  16
#     4   9  18  37  64  93 127 178 236 300 373 450
#     4  10  21  38  66  97 131 188 243 300 376 453
#     4   9  20  40  66  90 130 182 237 299 367 435
#     4  10  21  39  69  95 136 182 243 302 368 450
#     4  10  21  38  68  99 138 185 240 305 386 444
#     4  10  21  40  65  99 138 180 236 310 372 451
#
# _framework density 25.665334000000001
#
# number of rings (size 3 to 8) (size 9 to 14) (size 15 to 20)
#    0.000    2.333    1.667    0.000    4.667    0.000 
#    3.000    0.833   40.333    0.000    0.000    0.000 
#    0.000    0.000    0.000    0.000    0.000    0.000 
#
# Total GULP energy -267898.255475 kJ/mol
# GULP energy per Si atom -5581.213656 kJ/mol
# Density = 2.560692 g / cm^3
# Si number density = 25.665334 Si / 1000 Ang^3
#
#
#
# Elastic Constant Matrix: (Units=GPa)
#
#
# Indices 1 2 3 4 5 6 
#
# 1 114.5863 40.8149 17.1083 0.0000 0.0000 -14.7894
# 2 40.8149 114.5863 17.1083 0.0000 0.0000 14.7894
# 3 17.1083 17.1083 54.0292 0.0000 0.0000 0.0000
# 4 0.0000 0.0000 0.0000 28.7495 0.0000 0.0000
# 5 0.0000 0.0000 0.0000 0.0000 28.7495 0.0000
# 6 -14.7894 14.7894 0.0000 0.0000 0.0000 45.6984
#
#
#
# Elastic Compliance Matrix: (Units=1/GPa)
#
#
# Indices 1 2 3 4 5 6 
#
# 1 0.011247 -0.004330 -0.002190 0.000000 0.000000 0.005041
# 2 -0.004330 0.011247 -0.002190 0.000000 0.000000 -0.005041
# 3 -0.002190 -0.002190 0.019896 0.000000 0.000000 0.000000
# 4 0.000000 0.000000 0.000000 0.034783 0.000000 0.000000
# 5 0.000000 0.000000 0.000000 0.000000 0.034783 0.000000
# 6 0.005041 -0.005041 0.000000 0.000000 0.000000 0.025145
#
#
# Mechanical properties :
#
#
# Convention : Reuss Voigt Hill
#
# Bulk Modulus (GPa) = 40.05002 48.14051 44.09527
# Shear Modulus (GPa) = 30.70404 34.51751 32.61077
#
# Velocity S-wave (km/s) = 3.46254 3.67128 3.56844
# Velocity P-wave (km/s) = 5.62354 6.06373 5.84778
#
# Compressibility (1/GPa) = 0.02496877
#
# Stress axis : x y z
#
# Youngs Moduli (GPa) = 88.91319 88.91319 50.26230
#
# Poissons Ratio (x) = 0.38497 0.11009
# Poissons Ratio (y) = 0.38497 0.11009
# Poissons Ratio (z) = 0.19475 0.19475
#
# Static dielectric constant tensor:
#      x y z
#    x 2.108900 0.000000 0.000000 
#    y 0.000000 2.108900 0.000000 
#    z 0.000000 0.000000 2.045600 
# 
# From -- ./inp_files/4690.got.cif
#   From: 2010.05.17/outbox.cif.g08.bks.cpg/sg88_3_cif.got.tgz:4690.got - 2010.06.03 19:11:41.
