data_PCOD9546338
_publ_section_title
;
Structure prediction by ZEFSAII (Michael W. Deem and Ramdas Pophale) SiO2 
 PCOD9546338
Probable space group: I 41/A
;
_chemical_formula_sum "Si O2"
_cell_formula_units_Z 88
_cell_length_a 11.007431
_cell_length_b 11.007431
_cell_length_c 31.018704
_cell_angle_alpha 90.000000
_cell_angle_beta 90.000000
_cell_angle_gamma 90.000000
_cell_volume 3758.335897
_symmetry_space_group_name_H-M "I 41/A"
_symmetry_group_IT_number 88
_space_group.IT_coordinate_system_code '2'
_symmetry_cell_setting 'tetragonal'
loop_
_space_group_symop_operation_xyz
x,y,z
3/4-y,1/4+x,1/4+z
-x,1/2-y,z
1/4+y,1/4-x,1/4+z
-x,-y,-z
1/4+y,3/4-x,3/4-z
x,1/2+y,-z
3/4-y,3/4+x,3/4-z
1/2+x,1/2+y,1/2+z
1/4-y,3/4+x,3/4+z
1/2-x,-y,1/2+z
3/4+y,3/4-x,3/4+z
1/2-x,1/2-y,1/2-z
3/4+y,1/4-x,1/4-z
1/2+x,y,1/2-z
1/4-y,1/4+x,1/4-z
loop_
_atom_site_type_symbol
_atom_site_label
_atom_site_fract_x
_atom_site_fract_y
_atom_site_fract_z
Si Si1 0.550623 0.622054 0.947236
Si Si2 0.925720 0.496356 0.905493
Si Si3 0.000000 0.250000 0.053012
Si Si4 0.190031 0.049323 0.363932
Si Si5 0.177996 0.909320 0.284220
Si Si6 0.828909 0.626838 0.744004
O O1 0.500000 0.750000 0.930110
O O2 0.637101 0.558881 0.911957
O O3 0.446578 0.523024 0.955072
O O4 0.612952 0.650506 0.993652
O O5 0.947055 0.637307 0.920103
O O6 0.829894 0.502761 0.866919
O O7 0.865441 0.415295 0.942973
O O8 0.059810 0.445177 0.899359
O O9 0.103229 0.200348 0.020865
O O10 0.124237 0.964629 0.328615
O O11 0.254536 0.019415 0.264500
O O12 0.750000 0.750000 0.750000
#
# Coordination Sequence:
#
# PCOD9546338 Si02
#       6
#    16  16   8  16  16  16
#     4  11  27  48  71  99 137 196 240 293 359 427
#     4  11  22  38  65 104 137 174 216 293 357 428
#     4  10  20  35  64 104 138 176 210 270 366 413
#     4  12  23  44  71 106 141 175 243 293 366 434
#     4  11  24  49  69  97 141 188 238 293 355 429
#     4  10  20  39  63  99 136 176 220 273 346 419
#
# _framework density 23.414618999999998
#
# number of rings (size 3 to 8) (size 9 to 14) (size 15 to 20)
#    0.000    1.091    5.455    2.182    2.545    0.000 
#   11.455    0.000    0.000    0.000    0.000    0.000 
#    0.000    0.000    0.000    0.000    0.000    0.000 
#
# Total GULP energy -245955.445393 kJ/mol
# GULP energy per Si atom -5589.896486 kJ/mol
# Density = 2.336133 g / cm^3
# Si number density = 23.414619 Si / 1000 Ang^3
#
#
#
# Elastic Constant Matrix: (Units=GPa)
#
#
# Indices 1 2 3 4 5 6 
#
# 1 53.6174 15.9434 23.0639 0.0000 0.0000 -2.9181
# 2 15.9434 53.6174 23.0639 0.0000 0.0000 2.9181
# 3 23.0639 23.0639 123.7327 0.0000 0.0000 0.0000
# 4 0.0000 0.0000 0.0000 34.2228 0.0000 0.0000
# 5 0.0000 0.0000 0.0000 0.0000 34.2228 0.0000
# 6 -2.9181 2.9181 0.0000 0.0000 0.0000 24.6327
#
#
#
# Elastic Compliance Matrix: (Units=1/GPa)
#
#
# Indices 1 2 3 4 5 6 
#
# 1 0.021722 -0.005318 -0.003058 0.000000 0.000000 0.003203
# 2 -0.005318 0.021722 -0.003058 0.000000 0.000000 -0.003203
# 3 -0.003058 -0.003058 0.009222 0.000000 0.000000 0.000000
# 4 0.000000 0.000000 0.000000 0.029220 0.000000 0.000000
# 5 0.000000 0.000000 0.000000 0.000000 0.029220 0.000000
# 6 0.003203 -0.003203 0.000000 0.000000 0.000000 0.041355
#
#
# Mechanical properties :
#
#
# Convention : Reuss Voigt Hill
#
# Bulk Modulus (GPa) = 33.55892 39.45666 36.50779
# Shear Modulus (GPa) = 26.98901 29.87539 28.43220
#
# Velocity S-wave (km/s) = 3.39876 3.57589 3.48845
# Velocity P-wave (km/s) = 5.45579 5.82556 5.64371
#
# Compressibility (1/GPa) = 0.02979833
#
# Stress axis : x y z
#
# Youngs Moduli (GPa) = 46.03710 46.03710 108.43830
#
# Poissons Ratio (x) = 0.24483 0.33157
# Poissons Ratio (y) = 0.24483 0.33156
# Poissons Ratio (z) = 0.14076 0.14076
#
# Static dielectric constant tensor:
#      x y z
#    x 1.859510 0.000000 0.000000 
#    y 0.000000 1.859510 0.000000 
#    z 0.000000 0.000000 2.033530 
# 
# From -- ./inp_files/6443.got.cif
#   From: 2010.05.17/outbox.cif.g08.bks.cpg/sg88_4_cif.got.tgz:6443.got - 2010.06.03 19:11:41.
