data_PCOD9546153
_publ_section_title
;
Structure prediction by ZEFSAII (Michael W. Deem and Ramdas Pophale) SiO2 
 PCOD9546153
Probable space group: I 4/M
;
_chemical_formula_sum "Si O2"
_cell_formula_units_Z 64
_cell_length_a 10.264090
_cell_length_b 10.264090
_cell_length_c 28.162193
_cell_angle_alpha 90.000000
_cell_angle_beta 90.000000
_cell_angle_gamma 90.000000
_cell_volume 2966.930502
_symmetry_space_group_name_H-M "I 4/M"
_symmetry_group_IT_number 87
_symmetry_cell_setting 'tetragonal'
loop_
_space_group_symop_operation_xyz
x,y,z
-y,x,z
-x,-y,z
y,-x,z
-x,-y,-z
y,-x,-z
x,y,-z
-y,x,-z
1/2+x,1/2+y,1/2+z
1/2-y,1/2+x,1/2+z
1/2-x,1/2-y,1/2+z
1/2+y,1/2-x,1/2+z
1/2-x,1/2-y,1/2-z
1/2+y,1/2-x,1/2-z
1/2+x,1/2+y,1/2-z
1/2-y,1/2+x,1/2-z
loop_
_atom_site_type_symbol
_atom_site_label
_atom_site_fract_x
_atom_site_fract_y
_atom_site_fract_z
Si Si1 0.209874 0.064151 0.554542
Si Si2 0.285203 0.455697 0.449194
Si Si3 0.565508 0.868979 0.629456
Si Si4 0.866386 0.658764 0.767359
O O1 0.256930 0.079545 0.500000
O O2 0.318647 0.098290 0.592818
O O3 0.083307 0.156774 0.559854
O O4 0.402666 0.353920 0.448564
O O5 0.214929 0.439622 0.500000
O O6 0.202118 0.456049 0.402063
O O7 0.612881 0.803337 0.677379
O O8 0.500000 0.000000 0.647328
O O9 0.750000 0.750000 0.750000
O O10 0.826943 0.506333 0.759199
#
# Coordination Sequence:
#
# PCOD9546153 Si02
#       4
#    16  16  16  16
#     4   9  21  40  61  92 132 171 215 262 313 384
#     4   9  21  40  61  92 132 171 215 262 313 384
#     4  12  25  39  69  94 129 166 215 267 331 395
#     4  11  27  51  72 102 139 174 228 295 349 405
#
# _framework density 21.571114999999999
#
# number of rings (size 3 to 8) (size 9 to 14) (size 15 to 20)
#    0.000    1.750    2.500    2.250   10.500    2.500 
#    0.000    0.000    0.000    0.000    0.000    0.000 
#    0.000    0.000    0.000    0.000    0.000    0.000 
#
# Total GULP energy -178832.500399 kJ/mol
# GULP energy per Si atom -5588.515637 kJ/mol
# Density = 2.152202 g / cm^3
# Si number density = 21.571115 Si / 1000 Ang^3
#
#
#
# Elastic Constant Matrix: (Units=GPa)
#
#
# Indices 1 2 3 4 5 6 
#
# 1 77.4876 19.0938 16.5580 0.0000 0.0000 -5.5788
# 2 19.0938 77.4876 16.5580 0.0000 0.0000 5.5788
# 3 16.5580 16.5580 128.9145 0.0000 0.0000 0.0000
# 4 0.0000 0.0000 0.0000 23.3507 0.0000 0.0000
# 5 0.0000 0.0000 0.0000 0.0000 23.3507 0.0000
# 6 -5.5788 5.5788 0.0000 0.0000 0.0000 30.1996
#
#
#
# Elastic Compliance Matrix: (Units=1/GPa)
#
#
# Indices 1 2 3 4 5 6 
#
# 1 0.014291 -0.003460 -0.001391 0.000000 0.000000 0.003279
# 2 -0.003460 0.014291 -0.001391 0.000000 0.000000 -0.003279
# 3 -0.001391 -0.001391 0.008114 0.000000 0.000000 0.000000
# 4 0.000000 0.000000 0.000000 0.042825 0.000000 0.000000
# 5 0.000000 0.000000 0.000000 0.000000 0.042825 0.000000
# 6 0.003279 -0.003279 0.000000 0.000000 0.000000 0.034325
#
#
# Mechanical properties :
#
#
# Convention : Reuss Voigt Hill
#
# Bulk Modulus (GPa) = 41.30220 43.14546 42.22383
# Shear Modulus (GPa) = 28.21225 30.82554 29.51889
#
# Velocity S-wave (km/s) = 3.62037 3.78434 3.70326
# Velocity P-wave (km/s) = 6.05514 6.25619 6.15648
#
# Compressibility (1/GPa) = 0.02421179
#
# Stress axis : x y z
#
# Youngs Moduli (GPa) = 69.97255 69.97255 123.23712
#
# Poissons Ratio (x) = 0.24213 0.17144
# Poissons Ratio (y) = 0.24213 0.17144
# Poissons Ratio (z) = 0.09734 0.09734
#
# Static dielectric constant tensor:
#      x y z
#    x 1.804520 0.000000 0.000000 
#    y 0.000000 1.804520 0.000000 
#    z 0.000000 0.000000 1.786470 
# 
# From -- ./inp_files/5657.got.cif
#   From: 2010.05.17/outbox.cif.g08.bks.cpg/sg87_3_cif.got.tgz:5657.got - 2010.06.03 19:07:00.
