data_PCOD9546602
_publ_section_title
;
Structure prediction by ZEFSAII (Michael W. Deem and Ramdas Pophale) SiO2 
 PCOD9546602
Probable space group: I 41/A
;
_chemical_formula_sum "Si O2"
_cell_formula_units_Z 88
_cell_length_a 12.825883
_cell_length_b 12.825883
_cell_length_c 20.500832
_cell_angle_alpha 90.000000
_cell_angle_beta 90.000000
_cell_angle_gamma 90.000000
_cell_volume 3372.453999
_symmetry_space_group_name_H-M "I 41/A"
_symmetry_group_IT_number 88
_space_group.IT_coordinate_system_code '2'
_symmetry_cell_setting 'tetragonal'
loop_
_space_group_symop_operation_xyz
x,y,z
3/4-y,1/4+x,1/4+z
-x,1/2-y,z
1/4+y,1/4-x,1/4+z
-x,-y,-z
1/4+y,3/4-x,3/4-z
x,1/2+y,-z
3/4-y,3/4+x,3/4-z
1/2+x,1/2+y,1/2+z
1/4-y,3/4+x,3/4+z
1/2-x,-y,1/2+z
3/4+y,3/4-x,3/4+z
1/2-x,1/2-y,1/2-z
3/4+y,1/4-x,1/4-z
1/2+x,y,1/2-z
1/4-y,1/4+x,1/4-z
loop_
_atom_site_type_symbol
_atom_site_label
_atom_site_fract_x
_atom_site_fract_y
_atom_site_fract_z
Si Si1 0.729503 0.031154 0.147422
Si Si2 0.623528 0.666988 0.155963
Si Si3 0.682606 0.327430 0.044083
Si Si4 0.589361 0.840879 0.759477
Si Si5 0.000000 0.250000 0.376065
Si Si6 0.878215 0.076749 0.036132
O O1 0.635372 0.983063 0.107419
O O2 0.809115 0.940743 0.172204
O O3 0.800221 0.098215 0.096521
O O4 0.684154 0.079026 0.213817
O O5 0.540741 0.629449 0.101043
O O6 0.586203 0.622173 0.224309
O O7 0.606065 0.250466 0.083073
O O8 0.806347 0.309396 0.031043
O O9 0.515678 0.840159 0.822637
O O10 0.395172 0.766508 0.718020
O O11 0.703921 0.844831 0.792836
#
# Coordination Sequence:
#
# PCOD9546602 Si02
#       6
#    16  16  16  16   8  16
#     4  11  21  46  76 107 157 206 275 336 403 481
#     4  11  24  44  67 107 162 205 265 326 416 495
#     4  11  23  47  76 108 154 211 264 335 406 477
#     4  10  23  45  72 107 160 200 272 329 396 494
#     4  12  22  44  83 117 156 214 272 332 410 480
#     4  10  22  46  74 110 154 213 265 342 406 474
#
# _framework density 26.093758999999999
#
# number of rings (size 3 to 8) (size 9 to 14) (size 15 to 20)
#    0.000    1.273    5.455    1.091    0.000    3.636 
#    9.818    3.636    0.000    0.000    0.000    0.000 
#    0.000    0.000    0.000    0.000    0.000    0.000 
#
# Total GULP energy -245725.889746 kJ/mol
# GULP energy per Si atom -5584.679312 kJ/mol
# Density = 2.603437 g / cm^3
# Si number density = 26.093759 Si / 1000 Ang^3
#
#
#
# Elastic Constant Matrix: (Units=GPa)
#
#
# Indices 1 2 3 4 5 6 
#
# 1 140.0873 46.7976 58.0001 0.0000 0.0000 10.5156
# 2 46.7976 140.0873 58.0001 0.0000 0.0000 -10.5156
# 3 58.0001 58.0001 140.9454 0.0000 0.0000 0.0000
# 4 0.0000 0.0000 0.0000 37.3194 0.0000 0.0000
# 5 0.0000 0.0000 0.0000 0.0000 37.3194 0.0000
# 6 10.5156 -10.5156 0.0000 0.0000 0.0000 50.6409
#
#
#
# Elastic Compliance Matrix: (Units=1/GPa)
#
#
# Indices 1 2 3 4 5 6 
#
# 1 0.009216 -0.002030 -0.002957 0.000000 0.000000 -0.002335
# 2 -0.002030 0.009216 -0.002957 0.000000 0.000000 0.002335
# 3 -0.002957 -0.002957 0.009529 0.000000 0.000000 0.000000
# 4 0.000000 0.000000 0.000000 0.026796 0.000000 0.000000
# 5 0.000000 0.000000 0.000000 0.000000 0.026796 0.000000
# 6 -0.002335 0.002335 0.000000 0.000000 0.000000 0.020717
#
#
# Mechanical properties :
#
#
# Convention : Reuss Voigt Hill
#
# Bulk Modulus (GPa) = 82.83189 82.96841 82.90015
# Shear Modulus (GPa) = 40.92263 42.27744 41.60004
#
# Velocity S-wave (km/s) = 3.96446 4.02955 3.99714
# Velocity P-wave (km/s) = 7.26421 7.31540 7.28985
#
# Compressibility (1/GPa) = 0.01207264
#
# Stress axis : x y z
#
# Youngs Moduli (GPa) = 108.50557 108.50557 104.94449
#
# Poissons Ratio (x) = 0.22023 0.31035
# Poissons Ratio (y) = 0.22023 0.31035
# Poissons Ratio (z) = 0.32088 0.32088
#
# Static dielectric constant tensor:
#      x y z
#    x 2.127460 0.000000 0.000000 
#    y 0.000000 2.127460 0.000000 
#    z 0.000000 0.000000 2.054090 
# 
# From -- ./inp_files/4582.got.cif
#   From: 2010.05.17/outbox.cif.g08.bks.cpg/sg88_3_cif.got.tgz:4582.got - 2010.06.03 19:11:41.
