data_PCOD9546469
_publ_section_title
;
Structure prediction by ZEFSAII (Michael W. Deem and Ramdas Pophale) SiO2 
 PCOD9546469
Probable space group: I 41/A
;
_chemical_formula_sum "Si O2"
_cell_formula_units_Z 96
_cell_length_a 20.968426
_cell_length_b 20.968426
_cell_length_c 9.100683
_cell_angle_alpha 90.000000
_cell_angle_beta 90.000000
_cell_angle_gamma 90.000000
_cell_volume 4001.341787
_symmetry_space_group_name_H-M "I 41/A"
_symmetry_group_IT_number 88
_space_group.IT_coordinate_system_code '2'
_symmetry_cell_setting 'tetragonal'
loop_
_space_group_symop_operation_xyz
x,y,z
3/4-y,1/4+x,1/4+z
-x,1/2-y,z
1/4+y,1/4-x,1/4+z
-x,-y,-z
1/4+y,3/4-x,3/4-z
x,1/2+y,-z
3/4-y,3/4+x,3/4-z
1/2+x,1/2+y,1/2+z
1/4-y,3/4+x,3/4+z
1/2-x,-y,1/2+z
3/4+y,3/4-x,3/4+z
1/2-x,1/2-y,1/2-z
3/4+y,1/4-x,1/4-z
1/2+x,y,1/2-z
1/4-y,1/4+x,1/4-z
loop_
_atom_site_type_symbol
_atom_site_label
_atom_site_fract_x
_atom_site_fract_y
_atom_site_fract_z
Si Si1 0.086729 0.500333 0.383289
Si Si2 0.059226 0.371805 0.544039
Si Si3 0.526547 0.151394 0.365849
Si Si4 0.939213 0.927307 0.116351
Si Si5 0.077264 0.630158 0.552969
Si Si6 0.715916 0.945634 0.742754
O O1 0.058769 0.440428 0.467009
O O2 0.046031 0.519918 0.238953
O O3 0.090155 0.559836 0.492030
O O4 0.157161 0.482727 0.322992
O O5 0.117303 0.334821 0.465129
O O6 0.074725 0.376728 0.717158
O O7 0.990101 0.344013 0.512297
O O8 0.459687 0.182034 0.316846
O O9 0.514680 0.099437 0.491550
O O10 0.567070 0.129890 0.225864
O O11 0.878139 0.952108 0.023373
O O12 0.714731 0.969498 0.576554
#
# Coordination Sequence:
#
# PCOD9546469 Si02
#       6
#    16  16  16  16  16  16
#     4   9  20  39  61  86 126 165 210 262 320 391
#     4  10  21  39  62  92 123 163 215 258 326 384
#     4  11  24  40  60  90 132 169 211 268 324 392
#     4   9  19  40  60  85 129 169 207 257 329 384
#     4  11  23  37  64  92 123 166 210 273 316 386
#     4   9  18  34  60  86 116 161 204 261 309 374
#
# _framework density 23.991951
#
# number of rings (size 3 to 8) (size 9 to 14) (size 15 to 20)
#    0.000    2.167    1.667    1.500    4.667    1.667 
#    0.000    5.833    0.000    0.000    0.000    0.000 
#    0.000    0.000    0.000    0.000    0.000    0.000 
#
# Total GULP energy -268343.814364 kJ/mol
# GULP energy per Si atom -5590.496133 kJ/mol
# Density = 2.393734 g / cm^3
# Si number density = 23.991951 Si / 1000 Ang^3
#
#
#
# Elastic Constant Matrix: (Units=GPa)
#
#
# Indices 1 2 3 4 5 6 
#
# 1 36.2399 5.5486 18.7849 0.0000 0.0000 6.4880
# 2 5.5486 36.2399 18.7849 0.0000 0.0000 -6.4880
# 3 18.7849 18.7849 123.8607 0.0000 0.0000 0.0000
# 4 0.0000 0.0000 0.0000 32.0110 0.0000 0.0000
# 5 0.0000 0.0000 0.0000 0.0000 32.0110 0.0000
# 6 6.4880 -6.4880 0.0000 0.0000 0.0000 12.7444
#
#
#
# Elastic Compliance Matrix: (Units=1/GPa)
#
#
# Indices 1 2 3 4 5 6 
#
# 1 0.034614 -0.006906 -0.004202 0.000000 0.000000 -0.021137
# 2 -0.006906 0.034614 -0.004202 0.000000 0.000000 0.021137
# 3 -0.004202 -0.004202 0.009348 0.000000 0.000000 0.000000
# 4 0.000000 0.000000 0.000000 0.031239 0.000000 0.000000
# 5 0.000000 0.000000 0.000000 0.000000 0.031239 0.000000
# 6 -0.021137 0.021137 0.000000 0.000000 0.000000 0.099987
#
#
# Mechanical properties :
#
#
# Convention : Reuss Voigt Hill
#
# Bulk Modulus (GPa) = 20.85273 31.39746 26.12510
# Shear Modulus (GPa) = 17.38248 25.56809 21.47529
#
# Velocity S-wave (km/s) = 2.69460 3.26804 2.99507
# Velocity P-wave (km/s) = 4.28854 5.23022 4.78261
#
# Compressibility (1/GPa) = 0.04795534
#
# Stress axis : x y z
#
# Youngs Moduli (GPa) = 28.89039 28.89039 106.97230
#
# Poissons Ratio (x) = 0.19950 0.44952
# Poissons Ratio (y) = 0.19950 0.44952
# Poissons Ratio (z) = 0.12140 0.12140
#
# Static dielectric constant tensor:
#      x y z
#    x 1.935250 0.000000 0.000000 
#    y 0.000000 1.935250 0.000000 
#    z 0.000000 0.000000 1.940720 
# 
# From -- ./inp_files/1715.got.cif
#   From: 2010.05.17/outbox.cif.g08.bks.cpg/sg88_1_cif.got.tgz:1715.got - 2010.06.03 19:11:41.
