data_PCOD9546959
_publ_section_title
;
Structure prediction by ZEFSAII (Michael W. Deem and Ramdas Pophale) SiO2 
 PCOD9546959
Probable space group: P 4 2 2
;
_chemical_formula_sum "Si O2"
_cell_formula_units_Z 40
_cell_length_a 9.156510
_cell_length_b 9.156510
_cell_length_c 29.180032
_cell_angle_alpha 90.000000
_cell_angle_beta 90.000000
_cell_angle_gamma 90.000000
_cell_volume 2446.502771
_symmetry_space_group_name_H-M "P 4 2 2"
_symmetry_group_IT_number 89
_symmetry_cell_setting 'tetragonal'
loop_
_space_group_symop_operation_xyz
x,y,z
-y,x,z
-x,-y,z
y,-x,z
x,-y,-z
-x,y,-z
y,x,-z
-y,-x,-z
loop_
_atom_site_type_symbol
_atom_site_label
_atom_site_fract_x
_atom_site_fract_y
_atom_site_fract_z
Si Si1 1.000000 0.754539 0.448439
Si Si2 0.000000 0.500000 0.776014
Si Si3 0.747420 0.500000 0.700545
Si Si4 0.000000 0.500000 0.625065
Si Si5 1.000000 0.247779 0.950636
Si Si6 0.753334 0.000000 0.150068
O O1 1.000000 0.638662 0.408264
O O2 0.140200 0.859800 0.444886
O O3 0.000000 0.690323 0.500000
O O4 0.143657 0.500000 0.744006
O O5 0.000001 0.639622 0.809064
O O6 0.641233 0.641233 0.700539
O O7 0.856444 0.500000 0.657110
O O8 1.000000 0.319836 0.900663
O O9 0.139669 0.139669 0.950721
O O10 0.000000 0.326484 0.000000
O O11 0.859781 0.140219 0.152891
#
# Coordination Sequence:
#
# PCOD9546959 Si02
#       6
#     8   4   8   4   8   8
#     4   9  18  32  50  75 106 133 155 184 225 271
#     4  11  20  32  50  68  88 118 154 191 236 282
#     4  10  22  37  50  67  93 123 155 195 240 280
#     4  11  19  32  55  76  93 122 165 199 224 262
#     4   7  10  19  37  60  86 115 142 171 215 267
#     4   9  17  29  46  68  91 115 148 188 225 268
#
# _framework density 16.349868000000001
#
# number of rings (size 3 to 8) (size 9 to 14) (size 15 to 20)
#    0.000    2.800    0.000    5.100    0.000    0.000 
#    0.000    0.500    0.000    9.600    0.000    8.400 
#    0.000    0.000    0.000   24.400    0.000    1.600 
#
# Total GULP energy -222713.409781 kJ/mol
# GULP energy per Si atom -5567.835245 kJ/mol
# Density = 1.631266 g / cm^3
# Si number density = 16.349868 Si / 1000 Ang^3
#
#
#
# Elastic Constant Matrix: (Units=GPa)
#
#
# Indices 1 2 3 4 5 6 
#
# 1 104.4071 47.4633 80.6042 0.0000 0.0000 0.0000
# 2 47.4633 104.4071 80.6042 0.0000 0.0000 0.0000
# 3 80.6042 80.6042 194.9767 0.0000 0.0000 0.0000
# 4 0.0000 0.0000 0.0000 69.4326 0.0000 0.0000
# 5 0.0000 0.0000 0.0000 0.0000 69.4326 0.0000
# 6 0.0000 0.0000 0.0000 0.0000 0.0000 -19.7623
#
#
#
# Elastic Compliance Matrix: (Units=1/GPa)
#
#
# Indices 1 2 3 4 5 6 
#
# 1 0.014647 -0.002914 -0.004851 0.000000 0.000000 0.000000
# 2 -0.002914 0.014647 -0.004851 0.000000 0.000000 0.000000
# 3 -0.004851 -0.004851 0.009139 0.000000 0.000000 0.000000
# 4 0.000000 0.000000 0.000000 0.014402 0.000000 0.000000
# 5 0.000000 0.000000 0.000000 0.000000 0.014402 0.000000
# 6 0.000000 0.000000 0.000000 0.000000 0.000000 -0.050601
#
#
# Mechanical properties :
#
#
# Convention : Reuss Voigt Hill
#
# Bulk Modulus (GPa) = 75.73650 91.23714 83.48682
# Shear Modulus (GPa) = 108.06333 36.82854 72.44594
#
# Velocity S-wave (km/s) = 8.13866 4.75123 6.66378
# Velocity P-wave (km/s) = 11.60776 9.27486 10.50626
#
# Compressibility (1/GPa) = 0.01320367
#
# Stress axis : x y z
#
# Youngs Moduli (GPa) = 68.27180 68.27180 109.41654
#
# Poissons Ratio (x) = 0.19893 0.53074
# Poissons Ratio (y) = 0.19893 0.53074
# Poissons Ratio (z) = 0.33116 0.33116
#
# Static dielectric constant tensor:
#      x y z
#    x 1.527930 0.000000 0.000000 
#    y 0.000000 1.527930 0.000000 
#    z 0.000000 0.000000 1.570630 
# 
# From -- ./inp_files/2851.got.cif
#   From: 2010.05.17/outbox.cif.g08.bks.cpg/sg89_2_cif.got.tgz:2851.got - 2010.06.03 19:15:31.
