data_PCOD9546037
_publ_section_title
;
Structure prediction by ZEFSAII (Michael W. Deem and Ramdas Pophale) SiO2 
 PCOD9546037
Probable space group: I 4/M
;
_chemical_formula_sum "Si O2"
_cell_formula_units_Z 112
_cell_length_a 15.471963
_cell_length_b 15.471963
_cell_length_c 25.772312
_cell_angle_alpha 90.000000
_cell_angle_beta 90.000000
_cell_angle_gamma 90.000000
_cell_volume 6169.418289
_symmetry_space_group_name_H-M "I 4/M"
_symmetry_group_IT_number 87
_symmetry_cell_setting 'tetragonal'
loop_
_space_group_symop_operation_xyz
x,y,z
-y,x,z
-x,-y,z
y,-x,z
-x,-y,-z
y,-x,-z
x,y,-z
-y,x,-z
1/2+x,1/2+y,1/2+z
1/2-y,1/2+x,1/2+z
1/2-x,1/2-y,1/2+z
1/2+y,1/2-x,1/2+z
1/2-x,1/2-y,1/2-z
1/2+y,1/2-x,1/2-z
1/2+x,1/2+y,1/2-z
1/2-y,1/2+x,1/2-z
loop_
_atom_site_type_symbol
_atom_site_label
_atom_site_fract_x
_atom_site_fract_y
_atom_site_fract_z
Si Si1 0.194390 0.865920 0.818312
Si Si2 0.365320 0.057416 0.251157
Si Si3 0.863942 0.560973 0.939241
Si Si4 0.109260 0.902713 0.290359
Si Si5 0.360355 0.760933 0.154723
Si Si6 0.750111 0.944622 0.151847
Si Si7 0.375646 0.062481 0.060241
O O1 0.167216 0.871869 0.758161
O O2 0.265090 0.794006 0.831123
O O3 0.105992 0.839328 0.845691
O O4 0.232063 0.954849 0.839497
O O5 0.455997 0.109296 0.252032
O O6 0.308101 0.079934 0.301400
O O7 0.310278 0.081576 0.200540
O O8 0.798510 0.606734 0.899958
O O9 0.879060 0.459432 0.927507
O O10 0.961192 0.598884 0.933300
O O11 0.840152 0.569953 0.000000
O O12 0.137234 0.842432 0.338391
O O13 0.006266 0.883591 0.288150
O O14 0.700730 0.922046 0.099688
O O15 0.354100 0.075774 0.000000
#
# Coordination Sequence:
#
# PCOD9546037 Si02
#       7
#    16  16  16  16  16  16  16
#     4  12  23  38  58  82 116 155 198 248 300 354
#     4  11  21  33  54  83 119 146 176 242 316 368
#     4   9  18  35  63  92 122 155 191 249 318 374
#     4  11  24  41  58  80 119 166 201 235 290 365
#     4  12  22  36  60  91 116 150 205 251 299 359
#     4  12  23  37  56  85 117 158 206 244 296 363
#     4   9  18  37  61  87 121 159 196 243 313 376
#
# _framework density 18.154060000000001
#
# number of rings (size 3 to 8) (size 9 to 14) (size 15 to 20)
#    0.000    1.143    5.714    2.143    0.000    3.714 
#    0.000    1.429    0.000    0.857    0.000    2.000 
#    0.000    0.000    0.000    0.000    0.000    0.000 
#
# Total GULP energy -312533.741022 kJ/mol
# GULP energy per Si atom -5580.959661 kJ/mol
# Density = 1.811274 g / cm^3
# Si number density = 18.154060 Si / 1000 Ang^3
#
#
#
# Elastic Constant Matrix: (Units=GPa)
#
#
# Indices 1 2 3 4 5 6 
#
# 1 42.9170 3.7102 16.1064 0.0000 0.0000 7.5266
# 2 3.7102 42.9170 16.1064 0.0000 0.0000 -7.5266
# 3 16.1064 16.1064 62.2071 0.0000 0.0000 0.0000
# 4 0.0000 0.0000 0.0000 16.9619 0.0000 0.0000
# 5 0.0000 0.0000 0.0000 0.0000 16.9619 0.0000
# 6 7.5266 -7.5266 0.0000 0.0000 0.0000 18.8109
#
#
#
# Elastic Compliance Matrix: (Units=1/GPa)
#
#
# Indices 1 2 3 4 5 6 
#
# 1 0.028127 -0.002008 -0.006763 0.000000 0.000000 -0.012058
# 2 -0.002008 0.028127 -0.006763 0.000000 0.000000 0.012058
# 3 -0.006763 -0.006763 0.019577 0.000000 0.000000 0.000000
# 4 0.000000 0.000000 0.000000 0.058956 0.000000 0.000000
# 5 0.000000 0.000000 0.000000 0.000000 0.058956 0.000000
# 6 -0.012058 0.012058 0.000000 0.000000 0.000000 0.062810
#
#
# Mechanical properties :
#
#
# Convention : Reuss Voigt Hill
#
# Bulk Modulus (GPa) = 22.33920 24.43191 23.38556
# Shear Modulus (GPa) = 16.52671 18.02146 17.27409
#
# Velocity S-wave (km/s) = 3.02049 3.15413 3.08803
# Velocity P-wave (km/s) = 4.94940 5.17223 5.06204
#
# Compressibility (1/GPa) = 0.04476436
#
# Stress axis : x y z
#
# Youngs Moduli (GPa) = 35.55306 35.55306 51.07983
#
# Poissons Ratio (x) = 0.07140 0.34543
# Poissons Ratio (y) = 0.07140 0.34543
# Poissons Ratio (z) = 0.24043 0.24043
#
# Static dielectric constant tensor:
#      x y z
#    x 1.650800 0.000000 0.000000 
#    y 0.000000 1.650800 0.000000 
#    z 0.000000 0.000000 1.599790 
# 
# From -- ./inp_files/6278.got.cif
#   From: 2010.05.17/outbox.cif.g08.bks.cpg/sg87_4_cif.got.tgz:6278.got - 2010.06.03 19:07:00.
