data_PCOD9546533
_publ_section_title
;
Structure prediction by ZEFSAII (Michael W. Deem and Ramdas Pophale) SiO2 
 PCOD9546533
Probable space group: I 41/A
;
_chemical_formula_sum "Si O2"
_cell_formula_units_Z 112
_cell_length_a 13.241737
_cell_length_b 13.241737
_cell_length_c 25.664887
_cell_angle_alpha 90.000000
_cell_angle_beta 90.000000
_cell_angle_gamma 90.000000
_cell_volume 4500.173649
_symmetry_space_group_name_H-M "I 41/A"
_symmetry_group_IT_number 88
_space_group.IT_coordinate_system_code '2'
_symmetry_cell_setting 'tetragonal'
loop_
_space_group_symop_operation_xyz
x,y,z
3/4-y,1/4+x,1/4+z
-x,1/2-y,z
1/4+y,1/4-x,1/4+z
-x,-y,-z
1/4+y,3/4-x,3/4-z
x,1/2+y,-z
3/4-y,3/4+x,3/4-z
1/2+x,1/2+y,1/2+z
1/4-y,3/4+x,3/4+z
1/2-x,-y,1/2+z
3/4+y,3/4-x,3/4+z
1/2-x,1/2-y,1/2-z
3/4+y,1/4-x,1/4-z
1/2+x,y,1/2-z
1/4-y,1/4+x,1/4-z
loop_
_atom_site_type_symbol
_atom_site_label
_atom_site_fract_x
_atom_site_fract_y
_atom_site_fract_z
Si Si1 0.946342 0.893553 0.891517
Si Si2 0.205606 0.959471 0.434787
Si Si3 0.016994 0.580844 0.258802
Si Si4 0.897555 0.363174 0.600790
Si Si5 0.577919 0.884472 0.344677
Si Si6 0.111430 0.291895 0.952392
Si Si7 0.764905 0.632805 0.760562
O O1 0.895833 0.811358 0.853106
O O2 0.881329 0.900279 0.944384
O O3 0.947151 0.007317 0.871324
O O4 0.146450 0.877690 0.469334
O O5 0.202070 0.919421 0.375167
O O6 0.316152 0.968149 0.459837
O O7 0.153714 0.067017 0.434540
O O8 0.927180 0.629908 0.293215
O O9 0.004539 0.621607 0.200703
O O10 0.011200 0.460164 0.273221
O O11 0.866550 0.262387 0.633651
O O12 0.597867 0.801496 0.389496
O O13 0.142331 0.405797 0.966984
O O14 0.000000 0.250000 0.970455
O O15 0.750000 0.750000 0.750000
#
# Coordination Sequence:
#
# PCOD9546533 Si02
#       7
#    16  16  16  16  16  16  16
#     4  10  22  38  59  89 132 174 222 283 339 409
#     4  11  21  39  69  95 130 174 231 280 342 415
#     4  11  22  42  70  96 133 181 224 287 348 413
#     4   9  20  41  68  98 132 175 226 282 351 417
#     4  11  23  43  63  97 137 171 233 283 338 421
#     4  11  24  42  64  96 141 179 224 292 350 412
#     4  11  22  39  63  95 130 183 235 278 351 422
#
# _framework density 24.887927000000001
#
# number of rings (size 3 to 8) (size 9 to 14) (size 15 to 20)
#    0.000    1.429    2.857    2.571    0.000    1.143 
#    5.143    5.000    0.000    0.000    0.000    0.000 
#    0.000    0.000    0.000    0.000    0.000    0.000 
#
# Total GULP energy -312623.353838 kJ/mol
# GULP energy per Si atom -5582.559890 kJ/mol
# Density = 2.483128 g / cm^3
# Si number density = 24.887927 Si / 1000 Ang^3
#
#
#
# Elastic Constant Matrix: (Units=GPa)
#
#
# Indices 1 2 3 4 5 6 
#
# 1 44.3878 -7.9252 4.7715 0.0000 0.0000 6.2833
# 2 -7.9252 44.3878 4.7715 0.0000 0.0000 -6.2833
# 3 4.7715 4.7715 67.4869 0.0000 0.0000 0.0000
# 4 0.0000 0.0000 0.0000 34.6526 0.0000 0.0000
# 5 0.0000 0.0000 0.0000 0.0000 34.6526 0.0000
# 6 6.2833 -6.2833 0.0000 0.0000 0.0000 24.4294
#
#
#
# Elastic Compliance Matrix: (Units=1/GPa)
#
#
# Indices 1 2 3 4 5 6 
#
# 1 0.024158 0.003784 -0.001976 0.000000 0.000000 -0.005240
# 2 0.003784 0.024158 -0.001976 0.000000 0.000000 0.005240
# 3 -0.001976 -0.001976 0.015097 0.000000 0.000000 0.000000
# 4 0.000000 0.000000 0.000000 0.028858 0.000000 0.000000
# 5 0.000000 0.000000 0.000000 0.000000 0.028858 0.000000
# 6 -0.005240 0.005240 0.000000 0.000000 0.000000 0.043630
#
#
# Mechanical properties :
#
#
# Convention : Reuss Voigt Hill
#
# Bulk Modulus (GPa) = 15.85304 17.72203 16.78753
# Shear Modulus (GPa) = 26.86429 29.05657 27.96043
#
# Velocity S-wave (km/s) = 3.28900 3.42057 3.35543
# Velocity P-wave (km/s) = 4.56147 4.76829 4.66603
#
# Compressibility (1/GPa) = 0.06307940
#
# Stress axis : x y z
#
# Youngs Moduli (GPa) = 41.39335 41.39335 66.23804
#
# Poissons Ratio (x) = -0.15663 0.13086
# Poissons Ratio (y) = -0.15663 0.13086
# Poissons Ratio (z) = 0.08178 0.08178
#
# Static dielectric constant tensor:
#      x y z
#    x -6.106470 0.000000 0.000000 
#    y 0.000000 -6.106470 0.000000 
#    z 0.000000 0.000000 2.115420 
# 
# From -- ./inp_files/5855.got.cif
#   From: 2010.05.17/outbox.cif.g08.bks.cpg/sg88_3_cif.got.tgz:5855.got - 2010.06.03 19:11:41.
