data_PCOD9546771
_publ_section_title
;
Structure prediction by ZEFSAII (Michael W. Deem and Ramdas Pophale) SiO2 
 PCOD9546771
Probable space group: I 41/A
;
_chemical_formula_sum "Si O2"
_cell_formula_units_Z 112
_cell_length_a 14.458824
_cell_length_b 14.458824
_cell_length_c 25.464986
_cell_angle_alpha 90.000000
_cell_angle_beta 90.000000
_cell_angle_gamma 90.000000
_cell_volume 5323.648640
_symmetry_space_group_name_H-M "I 41/A"
_symmetry_group_IT_number 88
_space_group.IT_coordinate_system_code '2'
_symmetry_cell_setting 'tetragonal'
loop_
_space_group_symop_operation_xyz
x,y,z
3/4-y,1/4+x,1/4+z
-x,1/2-y,z
1/4+y,1/4-x,1/4+z
-x,-y,-z
1/4+y,3/4-x,3/4-z
x,1/2+y,-z
3/4-y,3/4+x,3/4-z
1/2+x,1/2+y,1/2+z
1/4-y,3/4+x,3/4+z
1/2-x,-y,1/2+z
3/4+y,3/4-x,3/4+z
1/2-x,1/2-y,1/2-z
3/4+y,1/4-x,1/4-z
1/2+x,y,1/2-z
1/4-y,1/4+x,1/4-z
loop_
_atom_site_type_symbol
_atom_site_label
_atom_site_fract_x
_atom_site_fract_y
_atom_site_fract_z
Si Si1 0.582001 0.316416 0.063228
Si Si2 0.749118 0.942731 0.935562
Si Si3 0.753480 0.407665 0.475873
Si Si4 0.845512 0.114557 0.623763
Si Si5 0.377417 0.654293 0.619715
Si Si6 0.983356 0.595902 0.292463
Si Si7 0.049057 0.028574 0.445912
O O1 0.500000 0.250000 0.085457
O O2 0.689310 0.348006 0.071830
O O3 0.532920 0.412340 0.077494
O O4 0.594577 0.281846 0.002977
O O5 0.852209 0.922741 0.917368
O O6 0.702133 0.017538 0.896908
O O7 0.750761 0.994468 0.992381
O O8 0.676881 0.383276 0.432360
O O9 0.761057 0.323774 0.517316
O O10 0.858781 0.409511 0.453542
O O11 0.811961 0.190120 0.582959
O O12 0.906501 0.150424 0.673038
O O13 0.915148 0.053469 0.589168
O O14 0.375516 0.764579 0.627729
O O15 0.000000 0.000000 0.500000
#
# Coordination Sequence:
#
# PCOD9546771 Si02
#       7
#    16  16  16  16  16  16  16
#     4  12  24  37  61  97 137 183 218 278 352 425
#     4  11  24  44  70 100 138 183 233 300 360 428
#     4  11  23  43  69 101 135 182 236 295 363 429
#     4  11  24  38  60  95 133 178 224 270 342 433
#     4  11  26  49  74  99 133 188 253 311 366 427
#     4  11  24  35  58  95 137 177 218 266 340 436
#     4  12  21  38  59  91 137 173 217 274 340 419
#
# _framework density 21.038201999999998
#
# number of rings (size 3 to 8) (size 9 to 14) (size 15 to 20)
#    0.000    0.714    5.714    1.714    4.000    0.571 
#    0.000    0.000    0.000    0.000    0.000    0.000 
#    0.000    0.000    0.000    0.000    0.000    0.000 
#
# Total GULP energy -311837.536976 kJ/mol
# GULP energy per Si atom -5568.527446 kJ/mol
# Density = 2.099032 g / cm^3
# Si number density = 21.038202 Si / 1000 Ang^3
#
#
#
# Elastic Constant Matrix: (Units=GPa)
#
#
# Indices 1 2 3 4 5 6 
#
# 1 83.1744 39.1366 36.0676 0.0000 0.0000 0.0022
# 2 39.1366 83.1744 36.0676 0.0000 0.0000 -0.0022
# 3 36.0676 36.0676 63.8552 0.0000 0.0000 0.0000
# 4 0.0000 0.0000 0.0000 28.2223 0.0000 0.0000
# 5 0.0000 0.0000 0.0000 0.0000 28.2223 0.0000
# 6 0.0022 -0.0022 0.0000 0.0000 0.0000 33.3227
#
#
#
# Elastic Compliance Matrix: (Units=1/GPa)
#
#
# Indices 1 2 3 4 5 6 
#
# 1 0.017484 -0.005224 -0.006925 0.000000 0.000000 -0.000001
# 2 -0.005224 0.017484 -0.006925 0.000000 0.000000 0.000001
# 3 -0.006925 -0.006925 0.023483 0.000000 0.000000 0.000000
# 4 0.000000 0.000000 0.000000 0.035433 0.000000 0.000000
# 5 0.000000 0.000000 0.000000 0.000000 0.035433 0.000000
# 6 -0.000001 0.000001 0.000000 0.000000 0.000000 0.030010
#
#
# Mechanical properties :
#
#
# Convention : Reuss Voigt Hill
#
# Bulk Modulus (GPa) = 49.25201 50.30529 49.77865
# Shear Modulus (GPa) = 24.48084 25.88228 25.18156
#
# Velocity S-wave (km/s) = 3.41491 3.51130 3.46344
# Velocity P-wave (km/s) = 6.24583 6.35628 6.30130
#
# Compressibility (1/GPa) = 0.02030374
#
# Stress axis : x y z
#
# Youngs Moduli (GPa) = 57.19571 57.19571 42.58369
#
# Poissons Ratio (x) = 0.29879 0.29488
# Poissons Ratio (y) = 0.29879 0.29488
# Poissons Ratio (z) = 0.39607 0.39607
#
# Static dielectric constant tensor:
#      x y z
#    x 1.767380 0.000000 0.000000 
#    y 0.000000 1.767380 0.000000 
#    z 0.000000 0.000000 1.801240 
# 
# From -- ./inp_files/5867.got.cif
#   From: 2010.05.17/outbox.cif.g08.bks.cpg/sg88_3_cif.got.tgz:5867.got - 2010.06.03 19:11:41.
