data_PCOD9546687
_publ_section_title
;
Structure prediction by ZEFSAII (Michael W. Deem and Ramdas Pophale) SiO2 
 PCOD9546687
Probable space group: I 41/A
;
_chemical_formula_sum "Si O2"
_cell_formula_units_Z 116
_cell_length_a 16.381395
_cell_length_b 16.381395
_cell_length_c 17.928840
_cell_angle_alpha 90.000000
_cell_angle_beta 90.000000
_cell_angle_gamma 90.000000
_cell_volume 4811.206045
_symmetry_space_group_name_H-M "I 41/A"
_symmetry_group_IT_number 88
_space_group.IT_coordinate_system_code '2'
_symmetry_cell_setting 'tetragonal'
loop_
_space_group_symop_operation_xyz
x,y,z
3/4-y,1/4+x,1/4+z
-x,1/2-y,z
1/4+y,1/4-x,1/4+z
-x,-y,-z
1/4+y,3/4-x,3/4-z
x,1/2+y,-z
3/4-y,3/4+x,3/4-z
1/2+x,1/2+y,1/2+z
1/4-y,3/4+x,3/4+z
1/2-x,-y,1/2+z
3/4+y,3/4-x,3/4+z
1/2-x,1/2-y,1/2-z
3/4+y,1/4-x,1/4-z
1/2+x,y,1/2-z
1/4-y,1/4+x,1/4-z
loop_
_atom_site_type_symbol
_atom_site_label
_atom_site_fract_x
_atom_site_fract_y
_atom_site_fract_z
Si Si1 0.403683 0.502926 0.409042
Si Si2 0.351512 0.858119 0.972548
Si Si3 0.946894 0.102038 0.036617
Si Si4 0.390696 0.172356 0.031987
Si Si5 0.000000 0.750000 0.875000
Si Si6 0.012837 0.542264 0.579948
Si Si7 0.744462 0.925258 0.882367
Si Si8 0.183311 0.869719 0.385627
O O1 0.406680 0.516538 0.319873
O O2 0.432492 0.586545 0.449378
O O3 0.466061 0.436256 0.440333
O O4 0.312993 0.474188 0.427997
O O5 0.394830 0.927405 0.920534
O O6 0.394338 0.769565 0.971605
O O7 0.357174 0.894510 0.055562
O O8 0.947665 0.191785 0.070743
O O9 0.879490 0.045126 0.075176
O O10 0.385493 0.136603 0.948107
O O11 0.460833 0.125850 0.076920
O O12 0.307991 0.138239 0.069335
O O13 0.968589 0.479513 0.634861
O O14 0.000000 0.500000 0.500000
O O15 0.683898 0.994020 0.850373
#
# Coordination Sequence:
#
# PCOD9546687 Si02
#       8
#    16  16  16  16   4  16  16  16
#     4  11  25  43  68  99 134 175 223 278 347 400
#     4  11  24  43  67  98 137 176 229 271 328 412
#     4  11  24  46  68  97 137 170 218 289 342 406
#     4  11  23  43  67 100 133 180 220 274 345 393
#     4  12  24  48  72 100 128 172 230 276 348 408
#     4   9  22  43  59  94 138 167 221 273 316 397
#     4  11  23  44  68  97 137 168 225 277 336 411
#     4  10  25  39  69  97 133 180 223 270 334 398
#
# _framework density 24.110378999999998
#
# number of rings (size 3 to 8) (size 9 to 14) (size 15 to 20)
#    0.000    1.379    2.759    1.241   11.586    0.000 
#    4.966    0.000    0.000    0.000    0.000    0.000 
#    0.000    0.000    0.000    0.000    0.000    0.000 
#
# Total GULP energy -324144.109422 kJ/mol
# GULP energy per Si atom -5588.691542 kJ/mol
# Density = 2.405550 g / cm^3
# Si number density = 24.110379 Si / 1000 Ang^3
#
#
#
# Elastic Constant Matrix: (Units=GPa)
#
#
# Indices 1 2 3 4 5 6 
#
# 1 74.3544 9.0103 5.1236 0.0000 0.0000 -0.2430
# 2 9.0103 74.3544 5.1236 0.0000 0.0000 0.2430
# 3 5.1236 5.1236 71.5211 0.0000 0.0000 0.0000
# 4 0.0000 0.0000 0.0000 30.2238 0.0000 0.0000
# 5 0.0000 0.0000 0.0000 0.0000 30.2238 0.0000
# 6 -0.2430 0.2430 0.0000 0.0000 0.0000 44.3844
#
#
#
# Elastic Compliance Matrix: (Units=1/GPa)
#
#
# Indices 1 2 3 4 5 6 
#
# 1 0.013703 -0.001601 -0.000867 0.000000 0.000000 0.000084
# 2 -0.001601 0.013703 -0.000867 0.000000 0.000000 -0.000084
# 3 -0.000867 -0.000867 0.014106 0.000000 0.000000 0.000000
# 4 0.000000 0.000000 0.000000 0.033087 0.000000 0.000000
# 5 0.000000 0.000000 0.000000 0.000000 0.033087 0.000000
# 6 0.000084 -0.000084 0.000000 0.000000 0.000000 0.022531
#
#
# Mechanical properties :
#
#
# Convention : Reuss Voigt Hill
#
# Bulk Modulus (GPa) = 28.70073 28.74946 28.72509
# Shear Modulus (GPa) = 33.66981 34.36454 34.01718
#
# Velocity S-wave (km/s) = 3.74101 3.77941 3.76026
# Velocity P-wave (km/s) = 5.53082 5.56734 5.54911
#
# Compressibility (1/GPa) = 0.03484232
#
# Stress axis : x y z
#
# Youngs Moduli (GPa) = 72.97598 72.97598 70.89126
#
# Poissons Ratio (x) = 0.11684 0.06146
# Poissons Ratio (y) = 0.11684 0.06146
# Poissons Ratio (z) = 0.06327 0.06327
#
# Static dielectric constant tensor:
#      x y z
#    x 1.959930 0.000000 0.000000 
#    y 0.000000 1.959930 0.000000 
#    z 0.000000 0.000000 1.986640 
# 
# From -- ./inp_files/4031.got.cif
#   From: 2010.05.17/outbox.cif.g08.bks.cpg/sg88_3_cif.got.tgz:4031.got - 2010.06.03 19:11:41.
