data_PCOD9546179
_publ_section_title
;
Structure prediction by ZEFSAII (Michael W. Deem and Ramdas Pophale) SiO2 
 PCOD9546179
Probable space group: I 4/M
;
_chemical_formula_sum "Si O2"
_cell_formula_units_Z 56
_cell_length_a 15.000000
_cell_length_b 15.000000
_cell_length_c 27.000000
_cell_angle_alpha 90.000000
_cell_angle_beta 90.000000
_cell_angle_gamma 90.000000
_cell_volume 6075.000000
_symmetry_space_group_name_H-M "I 4/M"
_symmetry_group_IT_number 87
_symmetry_cell_setting 'tetragonal'
loop_
_space_group_symop_operation_xyz
x,y,z
-y,x,z
-x,-y,z
y,-x,z
-x,-y,-z
y,-x,-z
x,y,-z
-y,x,-z
1/2+x,1/2+y,1/2+z
1/2-y,1/2+x,1/2+z
1/2-x,1/2-y,1/2+z
1/2+y,1/2-x,1/2+z
1/2-x,1/2-y,1/2-z
1/2+y,1/2-x,1/2-z
1/2+x,1/2+y,1/2-z
1/2-y,1/2+x,1/2-z
loop_
_atom_site_type_symbol
_atom_site_label
_atom_site_fract_x
_atom_site_fract_y
_atom_site_fract_z
Si Si1 0.516134 0.902616 0.625921
Si Si2 0.273492 0.970303 0.217824
Si Si3 0.131361 0.927314 0.143154
Si Si4 0.382032 0.148802 0.056223
Si Si5 0.184671 0.420390 0.941155
Si Si6 0.235274 0.244468 0.108689
Si Si7 0.817202 0.307070 0.216247
O O1 0.544950 0.838129 0.670161
O O2 0.426304 0.874858 0.598271
O O3 0.584965 0.913250 0.580788
O O4 0.500000 0.000000 0.648588
O O5 0.177604 0.933360 0.197880
O O6 0.305239 0.909354 0.264004
O O7 0.278519 0.078364 0.223874
O O8 0.198932 0.863372 0.112308
O O9 0.033705 0.883238 0.134507
O O10 0.473873 0.204409 0.064259
O O11 0.293281 0.204668 0.064168
O O12 0.388256 0.113124 0.000000
O O13 0.232316 0.349328 0.904949
O O14 0.190994 0.398459 0.000000
O O15 0.284148 0.215907 0.160262
O O16 0.750000 0.250000 0.250000
#
# Coordination Sequence:
#
# PCOD9546179 Si02
#       7
#    16  16  16  16  16  16  16
#     4  10  19  35  58  87 120 158 201 251 317 380
#     4  12  23  40  60  87 128 164 210 265 320 376
#     4  11  21  39  64  85 118 169 214 252 307 381
#     4  10  21  38  62  92 125 164 207 260 327 388
#     4  10  21  37  61  90 123 162 207 260 322 385
#     4  12  22  39  62  91 125 164 212 265 318 379
#     4  12  25  39  59  89 123 165 216 261 317 376
#
# _framework density 9.2181069999999998
#
# number of rings (size 3 to 8) (size 9 to 14) (size 15 to 20)
#    0.000    1.000    5.714    0.857    2.000    2.857 
#    0.000    0.000    0.000    0.429    0.000    9.000 
#    0.000    0.000    0.000    0.000    0.000    0.000 
#
# Total GULP energy -311790.182919 kJ/mol
# GULP energy per Si atom -5567.681838 kJ/mol
# Density = 0.919713 g / cm^3
# Si number density = 9.218107 Si / 1000 Ang^3
#
#
#
# Elastic Constant Matrix: (Units=GPa)
#
#
# Indices 1 2 3 4 5 6 
#
# 1 91.2858 18.4417 23.3540 0.0000 0.0000 7.3277
# 2 18.4417 91.2858 23.3540 0.0000 0.0000 -7.3277
# 3 23.3540 23.3540 80.3288 0.0000 0.0000 0.0000
# 4 0.0000 0.0000 0.0000 29.4920 0.0000 0.0000
# 5 0.0000 0.0000 0.0000 0.0000 29.4920 0.0000
# 6 7.3277 -7.3277 0.0000 0.0000 0.0000 25.7306
#
#
#
# Elastic Compliance Matrix: (Units=1/GPa)
#
#
# Indices 1 2 3 4 5 6 
#
# 1 0.012481 -0.002081 -0.003024 0.000000 0.000000 -0.004147
# 2 -0.002081 0.012481 -0.003024 0.000000 0.000000 0.004147
# 3 -0.003024 -0.003024 0.014207 0.000000 0.000000 0.000000
# 4 0.000000 0.000000 0.000000 0.033907 0.000000 0.000000
# 5 0.000000 0.000000 0.000000 0.000000 0.033907 0.000000
# 6 -0.004147 0.004147 0.000000 0.000000 0.000000 0.041226
#
#
# Mechanical properties :
#
#
# Convention : Reuss Voigt Hill
#
# Bulk Modulus (GPa) = 43.64298 43.68886 43.66592
# Shear Modulus (GPa) = 29.05189 30.12631 29.58910
#
# Velocity S-wave (km/s) = 3.97395 4.04677 4.01052
# Velocity P-wave (km/s) = 6.69180 6.75158 6.72176
#
# Compressibility (1/GPa) = 0.02291319
#
# Stress axis : x y z
#
# Youngs Moduli (GPa) = 80.11880 80.11880 70.38764
#
# Poissons Ratio (x) = 0.16671 0.21284
# Poissons Ratio (y) = 0.16671 0.21284
# Poissons Ratio (z) = 0.24226 0.24226
#
# Static dielectric constant tensor:
#      x y z
#    x 1.685620 0.000000 0.000000 
#    y 0.000000 1.685620 0.000000 
#    z 0.000000 0.000000 1.620650 
# 
# From -- ./inp_files/6270.got.cif
#   From: 2010.05.17/outbox.ucp.g08.bks.cvg/sg87_4_cif.got.tgz:6270.got - 2010.06.11 10:35:24.
