data_PCOD9546692
_publ_section_title
;
Structure prediction by ZEFSAII (Michael W. Deem and Ramdas Pophale) SiO2 
 PCOD9546692
Probable space group: I 41/A
;
_chemical_formula_sum "Si O2"
_cell_formula_units_Z 72
_cell_length_a 19.680905
_cell_length_b 19.680905
_cell_length_c 7.546639
_cell_angle_alpha 90.000000
_cell_angle_beta 90.000000
_cell_angle_gamma 90.000000
_cell_volume 2923.100220
_symmetry_space_group_name_H-M "I 41/A"
_symmetry_group_IT_number 88
_space_group.IT_coordinate_system_code '2'
_symmetry_cell_setting 'tetragonal'
loop_
_space_group_symop_operation_xyz
x,y,z
3/4-y,1/4+x,1/4+z
-x,1/2-y,z
1/4+y,1/4-x,1/4+z
-x,-y,-z
1/4+y,3/4-x,3/4-z
x,1/2+y,-z
3/4-y,3/4+x,3/4-z
1/2+x,1/2+y,1/2+z
1/4-y,3/4+x,3/4+z
1/2-x,-y,1/2+z
3/4+y,3/4-x,3/4+z
1/2-x,1/2-y,1/2-z
3/4+y,1/4-x,1/4-z
1/2+x,y,1/2-z
1/4-y,1/4+x,1/4-z
loop_
_atom_site_type_symbol
_atom_site_label
_atom_site_fract_x
_atom_site_fract_y
_atom_site_fract_z
Si Si1 0.000000 0.250000 0.125000
Si Si2 0.000000 0.750000 0.375000
Si Si3 0.849034 0.264076 0.089243
Si Si4 0.790672 0.308505 0.462328
Si Si5 0.089296 0.863288 0.521322
Si Si6 0.182740 0.056023 0.603159
O O1 0.077063 0.270535 0.062502
O O2 0.948641 0.707749 0.496501
O O3 0.828973 0.278578 0.291963
O O4 0.785501 0.219091 0.023207
O O5 0.856934 0.330704 0.966259
O O6 0.834190 0.300020 0.641364
O O7 0.792974 0.390649 0.452610
O O8 0.164472 0.863111 0.436810
O O9 0.233845 0.065532 0.765944
#
# Coordination Sequence:
#
# PCOD9546692 Si02
#       6
#     4   4  16  16  16  16
#     4  12  30  40  78 122 148 198 254 336 382 470
#     4  12  26  44  78 118 160 198 258 320 402 466
#     4  11  24  46  68 109 153 193 244 312 396 450
#     4   9  25  46  71 101 147 200 249 308 380 473
#     4  10  26  43  74 105 150 196 247 316 383 461
#     4  10  25  48  73 104 145 196 257 316 375 461
#
# _framework density 24.631381000000001
#
# number of rings (size 3 to 8) (size 9 to 14) (size 15 to 20)
#    1.333    0.444    0.000    1.333   12.444    1.778 
#    4.000    0.000    0.000    0.000    0.000    0.000 
#    0.000    0.000    0.000    0.000    0.000    0.000 
#
# Total GULP energy -200729.048202 kJ/mol
# GULP energy per Si atom -5575.806894 kJ/mol
# Density = 2.457532 g / cm^3
# Si number density = 24.631381 Si / 1000 Ang^3
#
#
#
# Elastic Constant Matrix: (Units=GPa)
#
#
# Indices 1 2 3 4 5 6 
#
# 1 104.0874 7.9448 5.1132 0.0000 0.0000 -3.1543
# 2 7.9448 104.0874 5.1132 0.0000 0.0000 3.1543
# 3 5.1132 5.1132 83.8373 0.0000 0.0000 0.0000
# 4 0.0000 0.0000 0.0000 32.3763 0.0000 0.0000
# 5 0.0000 0.0000 0.0000 0.0000 32.3763 0.0000
# 6 -3.1543 3.1543 0.0000 0.0000 0.0000 25.4145
#
#
#
# Elastic Compliance Matrix: (Units=1/GPa)
#
#
# Indices 1 2 3 4 5 6 
#
# 1 0.009731 -0.000755 -0.000547 0.000000 0.000000 0.001302
# 2 -0.000755 0.009731 -0.000547 0.000000 0.000000 -0.001302
# 3 -0.000547 -0.000547 0.011995 0.000000 0.000000 0.000000
# 4 0.000000 0.000000 0.000000 0.030887 0.000000 0.000000
# 5 0.000000 0.000000 0.000000 0.000000 0.030887 0.000000
# 6 0.001302 -0.001302 0.000000 0.000000 0.000000 0.039671
#
#
# Mechanical properties :
#
#
# Convention : Reuss Voigt Hill
#
# Bulk Modulus (GPa) = 36.02716 36.48383 36.25550
# Shear Modulus (GPa) = 34.28083 36.28950 35.28516
#
# Velocity S-wave (km/s) = 3.73467 3.84253 3.78898
# Velocity P-wave (km/s) = 5.76674 5.87629 5.82177
#
# Compressibility (1/GPa) = 0.02775683
#
# Stress axis : x y z
#
# Youngs Moduli (GPa) = 102.76127 102.76127 83.37054
#
# Poissons Ratio (x) = 0.07762 0.04564
# Poissons Ratio (y) = 0.07762 0.04564
# Poissons Ratio (z) = 0.05626 0.05626
#
# Static dielectric constant tensor:
#      x y z
#    x 2.005980 0.000000 0.000000 
#    y 0.000000 2.005980 0.000000 
#    z 0.000000 0.000000 1.978330 
# 
# From -- ./inp_files/1599.got.cif
#   From: 2010.05.17/outbox.cif.g08.bks.cpg/sg88_1_cif.got.tgz:1599.got - 2010.06.03 19:11:41.
