data_PCOD9546077
_publ_section_title
;
Structure prediction by ZEFSAII (Michael W. Deem and Ramdas Pophale) SiO2 
 PCOD9546077
Probable space group: I 4/M
;
_chemical_formula_sum "Si O2"
_cell_formula_units_Z 84
_cell_length_a 10.194012
_cell_length_b 10.194012
_cell_length_c 32.601125
_cell_angle_alpha 90.000000
_cell_angle_beta 90.000000
_cell_angle_gamma 90.000000
_cell_volume 3387.839817
_symmetry_space_group_name_H-M "I 4/M"
_symmetry_group_IT_number 87
_symmetry_cell_setting 'tetragonal'
loop_
_space_group_symop_operation_xyz
x,y,z
-y,x,z
-x,-y,z
y,-x,z
-x,-y,-z
y,-x,-z
x,y,-z
-y,x,-z
1/2+x,1/2+y,1/2+z
1/2-y,1/2+x,1/2+z
1/2-x,1/2-y,1/2+z
1/2+y,1/2-x,1/2+z
1/2-x,1/2-y,1/2-z
1/2+y,1/2-x,1/2-z
1/2+x,1/2+y,1/2-z
1/2-y,1/2+x,1/2-z
loop_
_atom_site_type_symbol
_atom_site_label
_atom_site_fract_x
_atom_site_fract_y
_atom_site_fract_z
Si Si1 0.000000 0.000000 0.250926
Si Si2 0.674775 0.127347 0.910915
Si Si3 0.000000 0.500000 0.311297
Si Si4 0.265536 0.628748 0.720709
Si Si5 0.704514 0.422342 0.500000
Si Si6 0.214249 0.365808 0.642417
Si Si7 0.777886 0.007831 0.545701
O O1 0.018493 0.157047 0.245618
O O2 0.725246 0.106041 0.957163
O O3 0.747794 0.245914 0.887423
O O4 0.523416 0.168653 0.920109
O O5 0.715958 0.999750 0.884558
O O6 0.926995 0.617395 0.336148
O O7 0.250000 0.750000 0.750000
O O8 0.123528 0.568935 0.709816
O O9 0.342987 0.678850 0.679393
O O10 0.663699 0.573425 0.500000
O O11 0.718524 0.017516 0.500000
O O12 0.879656 0.127361 0.548044
#
# Coordination Sequence:
#
# PCOD9546077 Si02
#       7
#     4  16   8  16   8  16  16
#     4  12  24  52  88 120 156 209 268 325 408 484
#     4  12  23  42  68 107 155 201 273 338 414 489
#     4  12  28  53  80 121 168 212 268 343 418 494
#     4  12  29  52  86 122 160 214 271 334 413 504
#     4  11  22  38  62 101 146 206 262 335 404 488
#     4  12  27  45  72 111 159 204 264 337 411 492
#     4   9  20  39  64  94 140 207 275 338 409 492
#
# _framework density 24.794559
#
# number of rings (size 3 to 8) (size 9 to 14) (size 15 to 20)
#    0.000    0.667    6.667    0.571    5.333    1.143 
#    0.000    0.000    0.000    4.571    0.000    0.000 
#    0.000    0.000    0.000    0.000    0.000    0.000 
#
# Total GULP energy -234133.018237 kJ/mol
# GULP energy per Si atom -5574.595672 kJ/mol
# Density = 2.473813 g / cm^3
# Si number density = 24.794559 Si / 1000 Ang^3
#
#
#
# Elastic Constant Matrix: (Units=GPa)
#
#
# Indices 1 2 3 4 5 6 
#
# 1 116.4502 19.7853 32.2999 0.0000 0.0000 9.0479
# 2 19.7853 116.4502 32.2999 0.0000 0.0000 -9.0479
# 3 32.2999 32.2999 88.8788 0.0000 0.0000 0.0000
# 4 0.0000 0.0000 0.0000 39.5256 0.0000 0.0000
# 5 0.0000 0.0000 0.0000 0.0000 39.5256 0.0000
# 6 9.0479 -9.0479 0.0000 0.0000 0.0000 84.4897
#
#
#
# Elastic Compliance Matrix: (Units=1/GPa)
#
#
# Indices 1 2 3 4 5 6 
#
# 1 0.009713 -0.000844 -0.003223 0.000000 0.000000 -0.001131
# 2 -0.000844 0.009713 -0.003223 0.000000 0.000000 0.001131
# 3 -0.003223 -0.003223 0.013594 0.000000 0.000000 0.000000
# 4 0.000000 0.000000 0.000000 0.025300 0.000000 0.000000
# 5 0.000000 0.000000 0.000000 0.000000 0.025300 0.000000
# 6 -0.001131 0.001131 0.000000 0.000000 0.000000 0.012078
#
#
# Mechanical properties :
#
#
# Convention : Reuss Voigt Hill
#
# Bulk Modulus (GPa) = 54.23287 54.50549 54.36918
# Shear Modulus (GPa) = 42.94677 48.53446 45.74062
#
# Velocity S-wave (km/s) = 4.16637 4.42912 4.29976
# Velocity P-wave (km/s) = 6.71306 6.94167 6.82832
#
# Compressibility (1/GPa) = 0.01843900
#
# Stress axis : x y z
#
# Youngs Moduli (GPa) = 102.95948 102.95948 73.56291
#
# Poissons Ratio (x) = 0.08691 0.23709
# Poissons Ratio (y) = 0.08691 0.23709
# Poissons Ratio (z) = 0.33183 0.33183
#
# Static dielectric constant tensor:
#      x y z
#    x 2.114150 0.000000 0.000000 
#    y 0.000000 2.114150 0.000000 
#    z 0.000000 0.000000 2.049800 
# 
# From -- ./inp_files/6644.got.cif
#   From: 2010.05.17/outbox.cif.g08.bks.cpg/sg87_4_cif.got.tgz:6644.got - 2010.06.03 19:07:00.
