data_PCOD9546465
_publ_section_title
;
Structure prediction by ZEFSAII (Michael W. Deem and Ramdas Pophale) SiO2 
 PCOD9546465
Probable space group: I 41/A
;
_chemical_formula_sum "Si O2"
_cell_formula_units_Z 64
_cell_length_a 23.604470
_cell_length_b 23.604470
_cell_length_c 5.022763
_cell_angle_alpha 90.000000
_cell_angle_beta 90.000000
_cell_angle_gamma 90.000000
_cell_volume 2798.537903
_symmetry_space_group_name_H-M "I 41/A"
_symmetry_group_IT_number 88
_space_group.IT_coordinate_system_code '2'
_symmetry_cell_setting 'tetragonal'
loop_
_space_group_symop_operation_xyz
x,y,z
3/4-y,1/4+x,1/4+z
-x,1/2-y,z
1/4+y,1/4-x,1/4+z
-x,-y,-z
1/4+y,3/4-x,3/4-z
x,1/2+y,-z
3/4-y,3/4+x,3/4-z
1/2+x,1/2+y,1/2+z
1/4-y,3/4+x,3/4+z
1/2-x,-y,1/2+z
3/4+y,3/4-x,3/4+z
1/2-x,1/2-y,1/2-z
3/4+y,1/4-x,1/4-z
1/2+x,y,1/2-z
1/4-y,1/4+x,1/4-z
loop_
_atom_site_type_symbol
_atom_site_label
_atom_site_fract_x
_atom_site_fract_y
_atom_site_fract_z
Si Si1 0.836251 0.999396 0.770019
Si Si2 0.802977 0.681053 0.607250
Si Si3 0.392666 0.602514 0.139354
Si Si4 0.538774 0.925513 0.667441
O O1 0.794471 0.952449 0.667779
O O2 0.865406 0.041211 0.556936
O O3 0.881717 0.968891 0.950654
O O4 0.845534 0.651152 0.399103
O O5 0.834598 0.728035 0.784064
O O6 0.743420 0.709506 0.516683
O O7 0.444089 0.608444 0.931155
O O8 0.416536 0.591936 0.435023
#
# Coordination Sequence:
#
# PCOD9546465 Si02
#       4
#    16  16  16  16
#     4  11  21  34  58  91 128 163 200 243 308 386
#     4  10  21  39  60  85 121 155 196 249 298 355
#     4  11  22  39  60  85 119 157 195 246 301 354
#     4  10  24  38  60  90 114 154 203 241 297 367
#
# _framework density 22.869085999999999
#
# number of rings (size 3 to 8) (size 9 to 14) (size 15 to 20)
#    0.000    1.500    0.000    6.000    0.000   15.000 
#    0.000    0.000    0.000    4.500    0.000    0.000 
#    0.000    0.000    0.000    0.000    0.000    0.000 
#
# Total GULP energy -178883.627777 kJ/mol
# GULP energy per Si atom -5590.113368 kJ/mol
# Density = 2.281703 g / cm^3
# Si number density = 22.869086 Si / 1000 Ang^3
#
#
#
# Elastic Constant Matrix: (Units=GPa)
#
#
# Indices 1 2 3 4 5 6 
#
# 1 54.9434 -8.5638 -2.0722 0.0000 0.0000 4.4188
# 2 -8.5638 54.9434 -2.0722 0.0000 0.0000 -4.4188
# 3 -2.0722 -2.0722 58.8380 0.0000 0.0000 0.0000
# 4 0.0000 0.0000 0.0000 33.0572 0.0000 0.0000
# 5 0.0000 0.0000 0.0000 0.0000 33.0572 0.0000
# 6 4.4188 -4.4188 0.0000 0.0000 0.0000 11.1723
#
#
#
# Elastic Compliance Matrix: (Units=1/GPa)
#
#
# Indices 1 2 3 4 5 6 
#
# 1 0.019146 0.002483 0.000762 0.000000 0.000000 -0.006591
# 2 0.002483 0.019146 0.000762 0.000000 0.000000 0.006591
# 3 0.000762 0.000762 0.017049 0.000000 0.000000 0.000000
# 4 0.000000 0.000000 0.000000 0.030251 0.000000 0.000000
# 5 0.000000 0.000000 0.000000 0.000000 0.030251 0.000000
# 6 -0.006591 0.006591 0.000000 0.000000 0.000000 0.094721
#
#
# Mechanical properties :
#
#
# Convention : Reuss Voigt Hill
#
# Bulk Modulus (GPa) = 15.78404 15.92313 15.85359
# Shear Modulus (GPa) = 22.35441 27.55286 24.95364
#
# Velocity S-wave (km/s) = 3.12988 3.47480 3.30684
# Velocity P-wave (km/s) = 4.46973 4.80384 4.63979
#
# Compressibility (1/GPa) = 0.06335514
#
# Stress axis : x y z
#
# Youngs Moduli (GPa) = 52.22932 52.22932 58.65281
#
# Poissons Ratio (x) = -0.12968 -0.04468
# Poissons Ratio (y) = -0.12968 -0.04468
# Poissons Ratio (z) = -0.03979 -0.03979
#
# Static dielectric constant tensor:
#      x y z
#    x 1.926960 0.000000 0.000000 
#    y 0.000000 1.926960 0.000000 
#    z 0.000000 0.000000 1.969000 
# 
# From -- ./inp_files/563.got.cif
#   From: 2010.05.17/outbox.cif.g08.bks.cpg/sg88_1_cif.got.tgz:563.got - 2010.06.03 19:11:41.
