data_PCOD9546901
_publ_section_title
;
Structure prediction by ZEFSAII (Michael W. Deem and Ramdas Pophale) SiO2 
 PCOD9546901
Probable space group: P 4 2 2
;
_chemical_formula_sum "Si O2"
_cell_formula_units_Z 52
_cell_length_a 17.556475
_cell_length_b 17.556475
_cell_length_c 10.361627
_cell_angle_alpha 90.000000
_cell_angle_beta 90.000000
_cell_angle_gamma 90.000000
_cell_volume 3193.762367
_symmetry_space_group_name_H-M "P 4 2 2"
_symmetry_group_IT_number 89
_symmetry_cell_setting 'tetragonal'
loop_
_space_group_symop_operation_xyz
x,y,z
-y,x,z
-x,-y,z
y,-x,z
x,-y,-z
-x,y,-z
y,x,-z
-y,-x,-z
loop_
_atom_site_type_symbol
_atom_site_label
_atom_site_fract_x
_atom_site_fract_y
_atom_site_fract_z
Si Si1 0.084296 0.328467 0.844387
Si Si2 0.589589 0.410412 0.000000
Si Si3 0.647210 0.352787 0.726250
Si Si4 0.328469 0.915701 0.155615
Si Si5 0.763693 0.236309 0.157578
Si Si6 0.500002 0.730453 0.639627
Si Si7 0.138585 0.499999 0.844973
O O1 0.151359 0.268315 0.811538
O O2 0.100198 0.418069 0.812247
O O3 0.999999 0.307597 0.795642
O O4 0.082179 0.327641 0.000001
O O5 0.603841 0.500000 0.000000
O O6 0.622682 0.377319 0.130341
O O7 0.710195 0.289796 0.756245
O O8 0.575127 0.319732 0.652880
O O9 0.680275 0.424866 0.652883
O O10 0.268319 0.848636 0.188464
O O11 0.418071 0.899801 0.187754
O O12 0.753546 0.246455 0.000000
O O13 0.500000 0.770403 0.500000
O O14 0.499998 0.785024 0.762724
O O15 0.150989 0.500000 0.000000
#
# Coordination Sequence:
#
# PCOD9546901 Si02
#       7
#     8   4   8   8   8   8   8
#     4   9  17  29  48  78 109 133 167 216 265 310
#     4  11  22  32  50  76  90 122 178 239 260 286
#     4  12  22  36  53  71 101 137 180 218 264 302
#     4   9  17  29  48  78 109 133 167 216 265 310
#     4  10  18  28  51  81 102 130 170 220 265 305
#     4  12  26  38  50  73 106 142 178 217 264 311
#     4  10  19  32  55  79 101 134 177 220 261 306
#
# _framework density 16.281737
#
# number of rings (size 3 to 8) (size 9 to 14) (size 15 to 20)
#    0.000    1.615    5.385    0.923    2.154    2.154 
#    0.000    0.769    0.000    2.308    0.000    3.231 
#    0.000    0.000    0.000    0.000    0.000    3.538 
#
# Total GULP energy -289482.290568 kJ/mol
# GULP energy per Si atom -5566.967126 kJ/mol
# Density = 1.624468 g / cm^3
# Si number density = 16.281737 Si / 1000 Ang^3
#
#
#
# Elastic Constant Matrix: (Units=GPa)
#
#
# Indices 1 2 3 4 5 6 
#
# 1 129.6200 72.0263 11.9687 0.0000 0.0000 0.0000
# 2 72.0263 129.6202 11.9688 0.0000 0.0000 0.0000
# 3 11.9687 11.9688 33.0684 0.0000 0.0000 0.0000
# 4 0.0000 0.0000 0.0000 -10.1034 0.0000 0.0000
# 5 0.0000 0.0000 0.0000 0.0000 -10.1040 0.0000
# 6 0.0000 0.0000 0.0000 0.0000 0.0000 10.9531
#
#
#
# Elastic Compliance Matrix: (Units=1/GPa)
#
#
# Indices 1 2 3 4 5 6 
#
# 1 0.011272 -0.006091 -0.001875 0.000000 0.000000 0.000000
# 2 -0.006091 0.011272 -0.001876 0.000000 0.000000 0.000000
# 3 -0.001875 -0.001876 0.031598 0.000000 0.000000 0.000000
# 4 0.000000 0.000000 0.000000 -0.098976 0.000000 0.000000
# 5 0.000000 0.000000 0.000000 0.000000 -0.098971 0.000000
# 6 0.000000 0.000000 0.000000 0.000000 0.000000 0.091298
#
#
# Mechanical properties :
#
#
# Convention : Reuss Voigt Hill
#
# Bulk Modulus (GPa) = 29.01945 53.80401 41.41173
# Shear Modulus (GPa) = -234.34726 11.23878 -111.55424
#
# Velocity S-wave (km/s) = -12.01021 2.63015 -8.28636
# Velocity P-wave (km/s) = 13.20851 6.50699 8.12785
#
# Compressibility (1/GPa) = 0.03445965
#
# Stress axis : x y z
#
# Youngs Moduli (GPa) = 88.71223 88.71226 31.64756
#
# Poissons Ratio (x) = 0.54031 0.05935
# Poissons Ratio (y) = 0.54031 0.05936
# Poissons Ratio (z) = 0.16638 0.16638
#
# Static dielectric constant tensor:
#      x y z
#    x 1.578620 0.000000 0.000000 
#    y 0.000000 1.578620 0.000000 
#    z 0.000000 0.000000 1.510070 
# 
# From -- ./inp_files/1218.got.cif
#   From: 2010.05.17/outbox.cif.g08.bks.cpg/sg89_1_cif.got.tgz:1218.got - 2010.06.03 19:15:31.
