data_PCOD9546962
_publ_section_title
;
Structure prediction by ZEFSAII (Michael W. Deem and Ramdas Pophale) SiO2 
 PCOD9546962
Probable space group: P 4 2 2
;
_chemical_formula_sum "Si O2"
_cell_formula_units_Z 40
_cell_length_a 8.878906
_cell_length_b 8.878906
_cell_length_c 26.592888
_cell_angle_alpha 90.000000
_cell_angle_beta 90.000000
_cell_angle_gamma 90.000000
_cell_volume 2096.449574
_symmetry_space_group_name_H-M "P 4 2 2"
_symmetry_group_IT_number 89
_symmetry_cell_setting 'tetragonal'
loop_
_space_group_symop_operation_xyz
x,y,z
-y,x,z
-x,-y,z
y,-x,z
x,-y,-z
-x,y,-z
y,x,-z
-y,-x,-z
loop_
_atom_site_type_symbol
_atom_site_label
_atom_site_fract_x
_atom_site_fract_y
_atom_site_fract_z
Si Si1 0.953150 0.248612 0.167447
Si Si2 0.752710 0.500000 0.000000
Si Si3 0.851666 0.197163 0.440545
Si Si4 0.000000 0.500000 0.914369
Si Si5 0.598297 0.731108 0.359169
Si Si6 0.929795 0.244696 0.280313
O O1 0.926672 0.310660 0.223763
O O2 0.115401 0.168324 0.163792
O O3 0.951398 0.366384 0.122838
O O4 0.644757 0.644757 0.000000
O O5 0.859511 0.521432 0.048307
O O6 0.814802 0.185199 0.500000
O O7 0.779735 0.341295 0.414102
O O8 0.028748 0.201478 0.425399
O O9 0.424695 0.689869 0.351470
O O10 0.643402 0.864030 0.321306
O O11 0.097575 0.178334 0.285603
#
# Coordination Sequence:
#
# PCOD9546962 Si02
#       6
#     8   4   8   4   8   8
#     4   9  19  35  55  82 111 138 179 233 280 326
#     4  10  22  38  54  80 118 154 190 230 278 342
#     4   9  19  37  60  83 105 134 179 231 279 333
#     4  11  20  34  60  84 108 150 192 231 282 336
#     4  11  24  37  50  76 113 147 180 222 273 332
#     4   9  19  36  57  79 104 137 178 225 275 329
#
# _framework density 19.079877
#
# number of rings (size 3 to 8) (size 9 to 14) (size 15 to 20)
#    0.000    2.300    0.000    4.200    0.000    8.800 
#    0.000    3.000    0.000    7.200    0.000    0.000 
#    0.000    0.000    0.000    0.000    0.000    0.000 
#
# Total GULP energy -222906.093859 kJ/mol
# GULP energy per Si atom -5572.652346 kJ/mol
# Density = 1.903645 g / cm^3
# Si number density = 19.079877 Si / 1000 Ang^3
#
#
#
# Elastic Constant Matrix: (Units=GPa)
#
#
# Indices 1 2 3 4 5 6 
#
# 1 67.4474 9.4018 31.8633 0.0000 0.0000 0.0000
# 2 9.4018 67.4474 31.8633 0.0000 0.0000 0.0000
# 3 31.8633 31.8633 86.3230 0.0000 0.0000 0.0000
# 4 0.0000 0.0000 0.0000 57.9197 0.0000 0.0000
# 5 0.0000 0.0000 0.0000 0.0000 57.9195 0.0000
# 6 0.0000 0.0000 0.0000 0.0000 0.0000 -32.1592
#
#
#
# Elastic Compliance Matrix: (Units=1/GPa)
#
#
# Indices 1 2 3 4 5 6 
#
# 1 0.017990 0.000762 -0.006922 0.000000 0.000000 0.000000
# 2 0.000762 0.017990 -0.006922 0.000000 0.000000 0.000000
# 3 -0.006922 -0.006922 0.016694 0.000000 0.000000 0.000000
# 4 0.000000 0.000000 0.000000 0.017265 0.000000 0.000000
# 5 0.000000 0.000000 0.000000 0.000000 0.017265 0.000000
# 6 0.000000 0.000000 0.000000 0.000000 0.000000 -0.031095
#
#
# Mechanical properties :
#
#
# Convention : Reuss Voigt Hill
#
# Bulk Modulus (GPa) = 37.71908 40.83049 39.27479
# Shear Modulus (GPa) = 54.87891 26.60865 40.74378
#
# Velocity S-wave (km/s) = 5.36891 3.73848 4.62609
# Velocity P-wave (km/s) = 7.63187 6.33097 7.01166
#
# Compressibility (1/GPa) = 0.02651178
#
# Stress axis : x y z
#
# Youngs Moduli (GPa) = 55.58620 55.58617 59.90068
#
# Poissons Ratio (x) = -0.04237 0.41462
# Poissons Ratio (y) = -0.04237 0.41462
# Poissons Ratio (z) = 0.38476 0.38476
#
# Static dielectric constant tensor:
#      x y z
#    x 1.649880 0.000000 0.000000 
#    y 0.000000 1.649880 0.000000 
#    z 0.000000 0.000000 1.691970 
# 
# From -- ./inp_files/2886.got.cif
#   From: 2010.05.17/outbox.cif.g08.bks.cpg/sg89_2_cif.got.tgz:2886.got - 2010.06.03 19:15:31.
