data_PCOD9546665
_publ_section_title
;
Structure prediction by ZEFSAII (Michael W. Deem and Ramdas Pophale) SiO2 
 PCOD9546665
Probable space group: I 41/A
;
_chemical_formula_sum "Si O2"
_cell_formula_units_Z 64
_cell_length_a 14.696868
_cell_length_b 14.696868
_cell_length_c 11.545066
_cell_angle_alpha 90.000000
_cell_angle_beta 90.000000
_cell_angle_gamma 90.000000
_cell_volume 2493.710346
_symmetry_space_group_name_H-M "I 41/A"
_symmetry_group_IT_number 88
_space_group.IT_coordinate_system_code '2'
_symmetry_cell_setting 'tetragonal'
loop_
_space_group_symop_operation_xyz
x,y,z
3/4-y,1/4+x,1/4+z
-x,1/2-y,z
1/4+y,1/4-x,1/4+z
-x,-y,-z
1/4+y,3/4-x,3/4-z
x,1/2+y,-z
3/4-y,3/4+x,3/4-z
1/2+x,1/2+y,1/2+z
1/4-y,3/4+x,3/4+z
1/2-x,-y,1/2+z
3/4+y,3/4-x,3/4+z
1/2-x,1/2-y,1/2-z
3/4+y,1/4-x,1/4-z
1/2+x,y,1/2-z
1/4-y,1/4+x,1/4-z
loop_
_atom_site_type_symbol
_atom_site_label
_atom_site_fract_x
_atom_site_fract_y
_atom_site_fract_z
Si Si1 0.533988 0.577320 0.340133
Si Si2 0.643594 0.283990 0.354805
Si Si3 0.426802 0.349802 0.946982
Si Si4 0.263853 0.454112 0.734476
O O1 0.561587 0.583122 0.474224
O O2 0.476494 0.484890 0.321928
O O3 0.465043 0.658054 0.307695
O O4 0.628619 0.567119 0.272812
O O5 0.599982 0.183279 0.347793
O O6 0.528194 0.364018 0.898898
O O7 0.380020 0.444775 0.973126
O O8 0.243909 0.495928 0.861813
#
# Coordination Sequence:
#
# PCOD9546665 Si02
#       4
#    16  16  16  16
#     4  11  25  49  77 117 168 209 286 342 426 506
#     4  10  24  44  75 114 155 213 272 347 419 492
#     4  11  27  52  75 118 162 220 272 345 415 506
#     4  12  28  52  85 123 164 220 279 344 424 503
#
# _framework density 25.664569
#
# number of rings (size 3 to 8) (size 9 to 14) (size 15 to 20)
#    0.000    1.000    2.500    1.500   10.500    5.000 
#    4.500    0.000    0.000    0.000    0.000    0.000 
#    0.000    0.000    0.000    0.000    0.000    0.000 
#
# Total GULP energy -178855.427316 kJ/mol
# GULP energy per Si atom -5589.232104 kJ/mol
# Density = 2.560616 g / cm^3
# Si number density = 25.664569 Si / 1000 Ang^3
#
#
#
# Elastic Constant Matrix: (Units=GPa)
#
#
# Indices 1 2 3 4 5 6 
#
# 1 94.0361 2.7188 6.5272 0.0000 0.0000 5.8126
# 2 2.7188 94.0361 6.5272 0.0000 0.0000 -5.8126
# 3 6.5272 6.5272 112.8043 0.0000 0.0000 0.0000
# 4 0.0000 0.0000 0.0000 42.7019 0.0000 0.0000
# 5 0.0000 0.0000 0.0000 0.0000 42.7019 0.0000
# 6 5.8126 -5.8126 0.0000 0.0000 0.0000 37.6655
#
#
#
# Elastic Compliance Matrix: (Units=1/GPa)
#
#
# Indices 1 2 3 4 5 6 
#
# 1 0.010794 -0.000377 -0.000603 0.000000 0.000000 -0.001724
# 2 -0.000377 0.010794 -0.000603 0.000000 0.000000 0.001724
# 3 -0.000603 -0.000603 0.008935 0.000000 0.000000 0.000000
# 4 0.000000 0.000000 0.000000 0.023418 0.000000 0.000000
# 5 0.000000 0.000000 0.000000 0.000000 0.023418 0.000000
# 6 -0.001724 0.001724 0.000000 0.000000 0.000000 0.027082
#
#
# Mechanical properties :
#
#
# Convention : Reuss Voigt Hill
#
# Bulk Modulus (GPa) = 36.55351 36.93584 36.74468
# Shear Modulus (GPa) = 42.83642 43.62074 43.22858
#
# Velocity S-wave (km/s) = 4.08988 4.12715 4.10856
# Velocity P-wave (km/s) = 6.04785 6.09378 6.07086
#
# Compressibility (1/GPa) = 0.02735715
#
# Stress axis : x y z
#
# Youngs Moduli (GPa) = 92.64833 92.64833 111.92361
#
# Poissons Ratio (x) = 0.03491 0.06746
# Poissons Ratio (y) = 0.03491 0.06746
# Poissons Ratio (z) = 0.05584 0.05584
#
# Static dielectric constant tensor:
#      x y z
#    x 2.009830 0.000000 0.000000 
#    y 0.000000 2.009830 0.000000 
#    z 0.000000 0.000000 2.111210 
# 
# From -- ./inp_files/2380.got.cif
#   From: 2010.05.17/outbox.cif.g08.bks.cpg/sg88_2_cif.got.tgz:2380.got - 2010.06.03 19:11:41.
