data_PCOD9546364
_publ_section_title
;
Structure prediction by ZEFSAII (Michael W. Deem and Ramdas Pophale) SiO2 
 PCOD9546364
Probable space group: I 41/A
;
_chemical_formula_sum "Si O2"
_cell_formula_units_Z 120
_cell_length_a 14.759818
_cell_length_b 14.759818
_cell_length_c 28.331518
_cell_angle_alpha 90.000000
_cell_angle_beta 90.000000
_cell_angle_gamma 90.000000
_cell_volume 6172.084302
_symmetry_space_group_name_H-M "I 41/A"
_symmetry_group_IT_number 88
_space_group.IT_coordinate_system_code '2'
_symmetry_cell_setting 'tetragonal'
loop_
_space_group_symop_operation_xyz
x,y,z
3/4-y,1/4+x,1/4+z
-x,1/2-y,z
1/4+y,1/4-x,1/4+z
-x,-y,-z
1/4+y,3/4-x,3/4-z
x,1/2+y,-z
3/4-y,3/4+x,3/4-z
1/2+x,1/2+y,1/2+z
1/4-y,3/4+x,3/4+z
1/2-x,-y,1/2+z
3/4+y,3/4-x,3/4+z
1/2-x,1/2-y,1/2-z
3/4+y,1/4-x,1/4-z
1/2+x,y,1/2-z
1/4-y,1/4+x,1/4-z
loop_
_atom_site_type_symbol
_atom_site_label
_atom_site_fract_x
_atom_site_fract_y
_atom_site_fract_z
Si Si1 0.192926 0.716891 0.578321
Si Si2 0.645352 0.587818 0.549352
Si Si3 0.500000 0.750000 0.894582
Si Si4 0.843983 0.705789 0.069270
Si Si5 0.792652 0.471757 0.373523
Si Si6 0.791212 0.904422 0.051443
Si Si7 0.042032 0.972439 0.923352
Si Si8 0.371354 0.705328 0.533845
O O1 0.093685 0.761126 0.576192
O O2 0.183158 0.614052 0.594484
O O3 0.252678 0.762761 0.620070
O O4 0.261525 0.709992 0.535079
O O5 0.698763 0.549218 0.594605
O O6 0.712146 0.577755 0.504712
O O7 0.553263 0.528969 0.548691
O O8 0.606649 0.691301 0.548861
O O9 0.520408 0.666409 0.859807
O O10 0.779699 0.623791 0.085659
O O11 0.791878 0.798366 0.059928
O O12 0.896211 0.685005 0.020246
O O13 0.775696 0.550864 0.410742
O O14 0.889440 0.948809 0.062220
O O15 0.091030 0.875507 0.933303
#
# Coordination Sequence:
#
# PCOD9546364 Si02
#       8
#    16  16   8  16  16  16  16  16
#     4  10  21  35  54  78 112 159 199 235 291 335
#     4  10  23  33  52  85 117 162 194 229 284 356
#     4  10  20  38  56  76 113 154 205 244 280 360
#     4  10  23  36  59  82 109 154 202 241 301 355
#     4  10  21  39  55  81 112 152 194 248 290 339
#     4  11  20  37  59  78 113 152 196 247 289 352
#     4  11  20  34  52  81 123 158 197 230 280 342
#     4  11  22  35  53  86 124 159 191 242 284 360
#
# _framework density 19.442378000000001
#
# number of rings (size 3 to 8) (size 9 to 14) (size 15 to 20)
#    0.000    1.600    2.667    2.400    5.600    0.000 
#    0.000    0.000    0.000    4.400    0.000    0.000 
#    0.000    0.000    0.000    0.000    0.000    0.000 
#
# Total GULP energy -334378.514681 kJ/mol
# GULP energy per Si atom -5572.975245 kJ/mol
# Density = 1.939813 g / cm^3
# Si number density = 19.442378 Si / 1000 Ang^3
#
#
#
# Elastic Constant Matrix: (Units=GPa)
#
#
# Indices 1 2 3 4 5 6 
#
# 1 97.1605 19.4914 23.7354 0.0000 0.0000 -3.3969
# 2 19.4914 97.1605 23.7354 0.0000 0.0000 3.3969
# 3 23.7354 23.7354 29.0500 0.0000 0.0000 0.0000
# 4 0.0000 0.0000 0.0000 15.5983 0.0000 0.0000
# 5 0.0000 0.0000 0.0000 0.0000 15.5983 0.0000
# 6 -3.3969 3.3969 0.0000 0.0000 0.0000 21.3395
#
#
#
# Elastic Compliance Matrix: (Units=1/GPa)
#
#
# Indices 1 2 3 4 5 6 
#
# 1 0.012950 -0.000107 -0.010493 0.000000 0.000000 0.002078
# 2 -0.000107 0.012950 -0.010493 0.000000 0.000000 -0.002078
# 3 -0.010493 -0.010493 0.051570 0.000000 0.000000 0.000000
# 4 0.000000 0.000000 0.000000 0.064109 0.000000 0.000000
# 5 0.000000 0.000000 0.000000 0.000000 0.064109 0.000000
# 6 0.002078 -0.002078 0.000000 0.000000 0.000000 0.047523
#
#
# Mechanical properties :
#
#
# Convention : Reuss Voigt Hill
#
# Bulk Modulus (GPa) = 28.34218 39.69948 34.02083
# Shear Modulus (GPa) = 16.27819 20.93449 18.60634
#
# Velocity S-wave (km/s) = 2.89667 3.28494 3.09690
# Velocity P-wave (km/s) = 5.07905 5.90349 5.50672
#
# Compressibility (1/GPa) = 0.03528310
#
# Stress axis : x y z
#
# Youngs Moduli (GPa) = 77.22143 77.22143 19.39103
#
# Poissons Ratio (x) = 0.00828 0.20347
# Poissons Ratio (y) = 0.00828 0.20347
# Poissons Ratio (z) = 0.81029 0.81029
#
# Static dielectric constant tensor:
#      x y z
#    x 1.731930 0.000000 0.000000 
#    y 0.000000 1.731930 0.000000 
#    z 0.000000 0.000000 1.770550 
# 
# From -- ./inp_files/6624.got.cif
#   From: 2010.05.17/outbox.cif.g08.bks.cpg/sg88_4_cif.got.tgz:6624.got - 2010.06.03 19:11:41.
