data_PCOD9546819
_publ_section_title
;
Structure prediction by ZEFSAII (Michael W. Deem and Ramdas Pophale) SiO2 
 PCOD9546819
Probable space group: I 41/A
;
_chemical_formula_sum "Si O2"
_cell_formula_units_Z 52
_cell_length_a 14.518367
_cell_length_b 14.518367
_cell_length_c 9.997363
_cell_angle_alpha 90.000000
_cell_angle_beta 90.000000
_cell_angle_gamma 90.000000
_cell_volume 2107.273969
_symmetry_space_group_name_H-M "I 41/A"
_symmetry_group_IT_number 88
_space_group.IT_coordinate_system_code '2'
_symmetry_cell_setting 'tetragonal'
loop_
_space_group_symop_operation_xyz
x,y,z
3/4-y,1/4+x,1/4+z
-x,1/2-y,z
1/4+y,1/4-x,1/4+z
-x,-y,-z
1/4+y,3/4-x,3/4-z
x,1/2+y,-z
3/4-y,3/4+x,3/4-z
1/2+x,1/2+y,1/2+z
1/4-y,3/4+x,3/4+z
1/2-x,-y,1/2+z
3/4+y,3/4-x,3/4+z
1/2-x,1/2-y,1/2-z
3/4+y,1/4-x,1/4-z
1/2+x,y,1/2-z
1/4-y,1/4+x,1/4-z
loop_
_atom_site_type_symbol
_atom_site_label
_atom_site_fract_x
_atom_site_fract_y
_atom_site_fract_z
Si Si1 0.805611 0.543086 0.028384
Si Si2 0.541410 0.897157 0.618746
Si Si3 0.000000 0.250000 0.625000
Si Si4 0.516335 0.465489 0.846513
O O1 0.775605 0.463904 0.124790
O O2 0.913467 0.566852 0.020084
O O3 0.740805 0.627355 0.069154
O O4 0.605163 0.809524 0.656517
O O5 0.534679 0.968009 0.741156
O O6 0.893007 0.246843 0.571202
O O7 0.500000 0.500000 0.000000
#
# Coordination Sequence:
#
# PCOD9546819 Si02
#       4
#    16  16   4  16
#     4  11  26  44  72 110 156 211 261 321 402 477
#     4   9  22  46  76 110 150 203 268 327 399 481
#     4  12  28  44  72 116 162 204 264 320 414 480
#     4  11  26  46  74 112 158 208 262 333 401 482
#
# _framework density 24.676431000000001
#
# number of rings (size 3 to 8) (size 9 to 14) (size 15 to 20)
#    0.000    1.538    0.000    1.846    8.615   12.308 
#    0.000    0.000    0.000    0.000    0.000    0.000 
#    0.000    0.000    0.000    0.000    0.000    0.000 
#
# Total GULP energy -145130.601035 kJ/mol
# GULP energy per Si atom -5581.946194 kJ/mol
# Density = 2.462027 g / cm^3
# Si number density = 24.676431 Si / 1000 Ang^3
#
#
#
# Elastic Constant Matrix: (Units=GPa)
#
#
# Indices 1 2 3 4 5 6 
#
# 1 155.5320 30.6720 60.1373 0.0000 0.0000 -9.6183
# 2 30.6720 155.5320 60.1373 0.0000 0.0000 9.6183
# 3 60.1373 60.1373 120.0699 0.0000 0.0000 0.0000
# 4 0.0000 0.0000 0.0000 29.4776 0.0000 0.0000
# 5 0.0000 0.0000 0.0000 0.0000 29.4776 0.0000
# 6 -9.6183 9.6183 0.0000 0.0000 0.0000 25.4375
#
#
#
# Elastic Compliance Matrix: (Units=1/GPa)
#
#
# Indices 1 2 3 4 5 6 
#
# 1 0.008222 -0.000283 -0.003976 0.000000 0.000000 0.003216
# 2 -0.000283 0.008222 -0.003976 0.000000 0.000000 -0.003216
# 3 -0.003976 -0.003976 0.012311 0.000000 0.000000 0.000000
# 4 0.000000 0.000000 0.000000 0.033924 0.000000 0.000000
# 5 0.000000 0.000000 0.000000 0.000000 0.033924 0.000000
# 6 0.003216 -0.003216 0.000000 0.000000 0.000000 0.041744
#
#
# Mechanical properties :
#
#
# Convention : Reuss Voigt Hill
#
# Bulk Modulus (GPa) = 81.40443 81.44744 81.42594
# Shear Modulus (GPa) = 31.46408 35.55772 33.51090
#
# Velocity S-wave (km/s) = 3.57468 3.80011 3.68912
# Velocity P-wave (km/s) = 7.07800 7.23411 7.15648
#
# Compressibility (1/GPa) = 0.01228434
#
# Stress axis : x y z
#
# Youngs Moduli (GPa) = 121.63114 121.63114 81.22548
#
# Poissons Ratio (x) = 0.03440 0.32296
# Poissons Ratio (y) = 0.03440 0.32296
# Poissons Ratio (z) = 0.48362 0.48362
#
# Static dielectric constant tensor:
#      x y z
#    x 2.077060 0.000000 0.000000 
#    y 0.000000 2.077060 0.000000 
#    z 0.000000 0.000000 2.011500 
# 
# From -- ./inp_files/2207.got.cif
#   From: 2010.05.17/outbox.cif.g08.bks.cpg/sg88_2_cif.got.tgz:2207.got - 2010.06.03 19:11:41.
