data_PCOD9546669
_publ_section_title
;
Structure prediction by ZEFSAII (Michael W. Deem and Ramdas Pophale) SiO2 
 PCOD9546669
Probable space group: I 41/A
;
_chemical_formula_sum "Si O2"
_cell_formula_units_Z 88
_cell_length_a 10.469211
_cell_length_b 10.469211
_cell_length_c 33.764387
_cell_angle_alpha 90.000000
_cell_angle_beta 90.000000
_cell_angle_gamma 90.000000
_cell_volume 3700.724668
_symmetry_space_group_name_H-M "I 41/A"
_symmetry_group_IT_number 88
_space_group.IT_coordinate_system_code '2'
_symmetry_cell_setting 'tetragonal'
loop_
_space_group_symop_operation_xyz
x,y,z
3/4-y,1/4+x,1/4+z
-x,1/2-y,z
1/4+y,1/4-x,1/4+z
-x,-y,-z
1/4+y,3/4-x,3/4-z
x,1/2+y,-z
3/4-y,3/4+x,3/4-z
1/2+x,1/2+y,1/2+z
1/4-y,3/4+x,3/4+z
1/2-x,-y,1/2+z
3/4+y,3/4-x,3/4+z
1/2-x,1/2-y,1/2-z
3/4+y,1/4-x,1/4-z
1/2+x,y,1/2-z
1/4-y,1/4+x,1/4-z
loop_
_atom_site_type_symbol
_atom_site_label
_atom_site_fract_x
_atom_site_fract_y
_atom_site_fract_z
Si Si1 0.831359 0.528202 0.953173
Si Si2 0.010978 0.579219 0.193220
Si Si3 0.112024 0.469587 0.680859
Si Si4 0.116179 0.422291 0.372354
Si Si5 0.674015 0.866684 0.720187
Si Si6 0.500000 0.250000 0.988364
O O1 0.704238 0.614670 0.953433
O O2 0.846746 0.478034 0.909236
O O3 0.965861 0.590160 0.966645
O O4 0.831180 0.413138 0.984945
O O5 0.050191 0.634256 0.151082
O O6 0.072706 0.439653 0.193945
O O7 0.073746 0.665028 0.228050
O O8 0.211029 0.400862 0.651316
O O9 0.189456 0.578285 0.705057
O O10 0.061517 0.357514 0.710050
O O11 0.005477 0.537251 0.653725
#
# Coordination Sequence:
#
# PCOD9546669 Si02
#       6
#    16  16  16  16  16   8
#     4  11  24  46  70 101 140 190 246 300 368 439
#     4  11  26  44  70 108 136 193 237 309 363 443
#     4  11  24  46  67 110 141 197 236 307 368 439
#     4  11  27  42  74 100 154 182 244 301 379 431
#     4  10  24  45  71  97 141 189 246 299 364 441
#     4  12  24  45  78 104 150 188 250 294 370 451
#
# _framework density 23.779126999999999
#
# number of rings (size 3 to 8) (size 9 to 14) (size 15 to 20)
#    0.000    1.091    1.818    2.727    7.636    3.636 
#    0.000    0.000    0.000    0.000    0.000    0.000 
#    0.000    0.000    0.000    0.000    0.000    0.000 
#
# Total GULP energy -245596.177632 kJ/mol
# GULP energy per Si atom -5581.731310 kJ/mol
# Density = 2.372500 g / cm^3
# Si number density = 23.779127 Si / 1000 Ang^3
#
#
#
# Elastic Constant Matrix: (Units=GPa)
#
#
# Indices 1 2 3 4 5 6 
#
# 1 -69.6678 173.8330 38.5272 0.0000 0.0000 192.3775
# 2 173.8330 -69.6678 38.5272 0.0000 0.0000 -192.3775
# 3 38.5272 38.5272 175.6128 0.0000 0.0000 0.0000
# 4 0.0000 0.0000 0.0000 34.8653 0.0000 0.0000
# 5 0.0000 0.0000 0.0000 0.0000 34.8653 0.0000
# 6 192.3775 -192.3775 0.0000 0.0000 0.0000 -200.3606
#
#
#
# Elastic Compliance Matrix: (Units=1/GPa)
#
#
# Indices 1 2 3 4 5 6 
#
# 1 0.009701 0.001759 -0.002514 0.000000 0.000000 0.007625
# 2 0.001759 0.009701 -0.002514 0.000000 0.000000 -0.007625
# 3 -0.002514 -0.002514 0.006797 0.000000 0.000000 0.000000
# 4 0.000000 0.000000 0.000000 0.028682 0.000000 0.000000
# 5 0.000000 0.000000 0.000000 0.000000 0.028682 0.000000
# 6 0.007625 -0.007625 0.000000 0.000000 0.000000 0.009651
#
#
# Mechanical properties :
#
#
# Convention : Reuss Voigt Hill
#
# Bulk Modulus (GPa) = 50.86283 59.78355 55.32319
# Shear Modulus (GPa) = 47.03448 -40.43333 3.30058
#
# Velocity S-wave (km/s) = 4.45227 -4.12803 1.17942
# Velocity P-wave (km/s) = 6.91855 1.57320 5.01704
#
# Compressibility (1/GPa) = 0.01966072
#
# Stress axis : x y z
#
# Youngs Moduli (GPa) = 103.08630 103.08630 147.11302
#
# Poissons Ratio (x) = -0.18136 0.36987
# Poissons Ratio (y) = -0.18136 0.36987
# Poissons Ratio (z) = 0.25918 0.25918
#
# Static dielectric constant tensor:
#      x y z
#    x 1.949960 0.000000 0.000000 
#    y 0.000000 1.949960 0.000000 
#    z 0.000000 0.000000 1.923480 
# 
# From -- ./inp_files/6440.got.cif
#   From: 2010.05.17/outbox.cif.g08.bks.cpg/sg88_4_cif.got.tgz:6440.got - 2010.06.03 19:11:41.
