data_PCOD9546187
_publ_section_title
;
Structure prediction by ZEFSAII (Michael W. Deem and Ramdas Pophale) SiO2 
 PCOD9546187
Probable space group: I 4/M
;
_chemical_formula_sum "Si O2"
_cell_formula_units_Z 56
_cell_length_a 15.000000
_cell_length_b 15.000000
_cell_length_c 24.000000
_cell_angle_alpha 90.000000
_cell_angle_beta 90.000000
_cell_angle_gamma 90.000000
_cell_volume 5400.000000
_symmetry_space_group_name_H-M "I 4/M"
_symmetry_group_IT_number 87
_symmetry_cell_setting 'tetragonal'
loop_
_space_group_symop_operation_xyz
x,y,z
-y,x,z
-x,-y,z
y,-x,z
-x,-y,-z
y,-x,-z
x,y,-z
-y,x,-z
1/2+x,1/2+y,1/2+z
1/2-y,1/2+x,1/2+z
1/2-x,1/2-y,1/2+z
1/2+y,1/2-x,1/2+z
1/2-x,1/2-y,1/2-z
1/2+y,1/2-x,1/2-z
1/2+x,1/2+y,1/2-z
1/2-y,1/2+x,1/2-z
loop_
_atom_site_type_symbol
_atom_site_label
_atom_site_fract_x
_atom_site_fract_y
_atom_site_fract_z
Si Si1 0.003820 0.604641 0.567440
Si Si2 0.605014 0.392528 0.160503
Si Si3 0.356136 0.800505 0.435645
Si Si4 0.153005 0.752813 0.433890
Si Si5 0.596992 0.096743 0.741210
Si Si6 0.237114 0.066505 0.832958
Si Si7 0.117184 0.204727 0.223649
O O1 0.010364 0.600526 0.500000
O O2 0.906631 0.649063 0.580308
O O3 0.000000 0.500000 0.586725
O O4 0.088763 0.668620 0.583651
O O5 0.621062 0.498605 0.161185
O O6 0.633449 0.336281 0.106679
O O7 0.657776 0.365081 0.216611
O O8 0.381524 0.799535 0.500000
O O9 0.261094 0.749492 0.429930
O O10 0.430936 0.752155 0.398598
O O11 0.133659 0.770005 0.500000
O O12 0.506423 0.104159 0.777524
O O13 0.576187 0.164295 0.692211
O O14 0.688917 0.125875 0.769544
O O15 0.184819 0.155675 0.816722
O O16 0.192437 0.981925 0.802612
#
# Coordination Sequence:
#
# PCOD9546187 Si02
#       7
#    16  16  16  16  16  16  16
#     4   9  19  39  65  95 135 181 229 281 342 419
#     4  11  22  37  61  91 127 175 228 279 327 399
#     4  10  22  42  63  92 133 172 222 286 344 415
#     4  10  21  38  64  98 139 183 227 276 340 413
#     4   9  20  39  60  90 127 161 204 262 327 395
#     4  11  23  41  63  92 124 167 219 276 338 402
#     4  11  22  41  65  89 125 169 223 277 335 397
#
# _framework density 10.370369999999999
#
# number of rings (size 3 to 8) (size 9 to 14) (size 15 to 20)
#    0.000    1.857    1.429    2.143    0.000    3.143 
#    7.714    2.857    0.000    0.000    0.000    1.000 
#    0.000    0.000    0.000    0.000    0.000    0.000 
#
# Total GULP energy -312373.600964 kJ/mol
# GULP energy per Si atom -5578.100017 kJ/mol
# Density = 1.034677 g / cm^3
# Si number density = 10.370370 Si / 1000 Ang^3
#
#
#
# Elastic Constant Matrix: (Units=GPa)
#
#
# Indices 1 2 3 4 5 6 
#
# 1 77.5479 55.5080 43.5545 0.0000 0.0000 -1.6914
# 2 55.5080 77.5479 43.5545 0.0000 0.0000 1.6914
# 3 43.5545 43.5545 94.2082 0.0000 0.0000 0.0000
# 4 0.0000 0.0000 0.0000 23.0147 0.0000 0.0000
# 5 0.0000 0.0000 0.0000 0.0000 23.0147 0.0000
# 6 -1.6914 1.6914 0.0000 0.0000 0.0000 27.1804
#
#
#
# Elastic Compliance Matrix: (Units=1/GPa)
#
#
# Indices 1 2 3 4 5 6 
#
# 1 0.028294 -0.017516 -0.004983 0.000000 0.000000 0.002851
# 2 -0.017516 0.028294 -0.004983 0.000000 0.000000 -0.002851
# 3 -0.004983 -0.004983 0.015222 0.000000 0.000000 0.000000
# 4 0.000000 0.000000 0.000000 0.043451 0.000000 0.000000
# 5 0.000000 0.000000 0.000000 0.000000 0.043451 0.000000
# 6 0.002851 -0.002851 0.000000 0.000000 0.000000 0.037146
#
#
# Mechanical properties :
#
#
# Convention : Reuss Voigt Hill
#
# Bulk Modulus (GPa) = 59.35967 59.39311 59.37639
# Shear Modulus (GPa) = 19.49806 21.75441 20.62623
#
# Velocity S-wave (km/s) = 3.06941 3.24214 3.15696
# Velocity P-wave (km/s) = 6.42212 6.53555 6.47909
#
# Compressibility (1/GPa) = 0.01684645
#
# Stress axis : x y z
#
# Youngs Moduli (GPa) = 35.34336 35.34336 65.69400
#
# Poissons Ratio (x) = 0.61908 0.32734
# Poissons Ratio (y) = 0.61908 0.32734
# Poissons Ratio (z) = 0.17611 0.17611
#
# Static dielectric constant tensor:
#      x y z
#    x 1.763360 0.000000 0.000000 
#    y 0.000000 1.763360 0.000000 
#    z 0.000000 0.000000 1.776140 
# 
# From -- ./inp_files/5930.got.cif
#   From: 2010.05.17/outbox.ucp.g08.bks.cvg/sg87_3_cif.got.tgz:5930.got - 2010.06.11 10:35:24.
