data_PCOD9546227
_publ_section_title
;
Structure prediction by ZEFSAII (Michael W. Deem and Ramdas Pophale) SiO2 
 PCOD9546227
Probable space group: I 41/A
;
_chemical_formula_sum "Si O2"
_cell_formula_units_Z 96
_cell_length_a 13.568823
_cell_length_b 13.568823
_cell_length_c 18.093858
_cell_angle_alpha 90.000000
_cell_angle_beta 90.000000
_cell_angle_gamma 90.000000
_cell_volume 3331.313711
_symmetry_space_group_name_H-M "I 41/A"
_symmetry_group_IT_number 88
_space_group.IT_coordinate_system_code '2'
_symmetry_cell_setting 'tetragonal'
loop_
_space_group_symop_operation_xyz
x,y,z
3/4-y,1/4+x,1/4+z
-x,1/2-y,z
1/4+y,1/4-x,1/4+z
-x,-y,-z
1/4+y,3/4-x,3/4-z
x,1/2+y,-z
3/4-y,3/4+x,3/4-z
1/2+x,1/2+y,1/2+z
1/4-y,3/4+x,3/4+z
1/2-x,-y,1/2+z
3/4+y,3/4-x,3/4+z
1/2-x,1/2-y,1/2-z
3/4+y,1/4-x,1/4-z
1/2+x,y,1/2-z
1/4-y,1/4+x,1/4-z
loop_
_atom_site_type_symbol
_atom_site_label
_atom_site_fract_x
_atom_site_fract_y
_atom_site_fract_z
Si Si1 0.488885 0.393088 0.098828
Si Si2 0.743320 0.997846 0.707711
Si Si3 0.552328 0.465311 0.381320
Si Si4 0.376468 0.807569 0.772129
Si Si5 0.516081 0.108331 0.728745
Si Si6 0.660043 0.120883 0.842429
O O1 0.469628 0.346520 0.180199
O O2 0.416003 0.328965 0.047760
O O3 0.593254 0.359355 0.066926
O O4 0.454823 0.505393 0.090931
O O5 0.664011 0.959820 0.647590
O O6 0.808777 0.904512 0.726880
O O7 0.694615 0.039525 0.781414
O O8 0.816515 0.076003 0.669649
O O9 0.526983 0.374935 0.436103
O O10 0.520903 0.560517 0.431736
O O11 0.247946 0.747632 0.947163
O O12 0.549467 0.134754 0.811641
#
# Coordination Sequence:
#
# PCOD9546227 Si02
#       6
#    16  16  16  16  16  16
#     4   9  18  33  52  75 105 139 174 215 264 316
#     4  10  18  32  52  76 100 136 172 214 256 308
#     4   9  17  31  51  73  99 132 168 208 256 308
#     4   9  17  31  51  73  99 132 168 208 256 308
#     4   9  18  33  52  75 105 139 174 215 264 316
#     4  10  19  32  53  76 104 138 176 220 259 316
#
# _framework density 28.817461000000002
#
# number of rings (size 3 to 8) (size 9 to 14) (size 15 to 20)
#    0.000    2.667    1.667    0.500    0.000    0.000 
#    0.000   10.000    0.000    4.500    0.000    0.000 
#    0.000    0.000    0.000    0.000    0.000    0.000 
#
# Total GULP energy -268300.714361 kJ/mol
# GULP energy per Si atom -5589.598216 kJ/mol
# Density = 2.875187 g / cm^3
# Si number density = 28.817461 Si / 1000 Ang^3
#
#
#
# Elastic Constant Matrix: (Units=GPa)
#
#
# Indices 1 2 3 4 5 6 
#
# 1 86.7691 11.2439 35.5449 0.0000 0.0000 -6.9131
# 2 11.2439 86.7691 35.5449 0.0000 0.0000 6.9131
# 3 35.5449 35.5449 135.3952 0.0000 0.0000 0.0000
# 4 0.0000 0.0000 0.0000 32.2361 0.0000 0.0000
# 5 0.0000 0.0000 0.0000 0.0000 32.2361 0.0000
# 6 -6.9131 6.9131 0.0000 0.0000 0.0000 38.8147
#
#
#
# Elastic Compliance Matrix: (Units=1/GPa)
#
#
# Indices 1 2 3 4 5 6 
#
# 1 0.013145 -0.000542 -0.003308 0.000000 0.000000 0.002438
# 2 -0.000542 0.013145 -0.003308 0.000000 0.000000 -0.002438
# 3 -0.003308 -0.003308 0.009123 0.000000 0.000000 0.000000
# 4 0.000000 0.000000 0.000000 0.031021 0.000000 0.000000
# 5 0.000000 0.000000 0.000000 0.000000 0.031021 0.000000
# 6 0.002438 -0.002438 0.000000 0.000000 0.000000 0.026632
#
#
# Mechanical properties :
#
#
# Convention : Reuss Voigt Hill
#
# Bulk Modulus (GPa) = 47.40724 52.62229 50.01477
# Shear Modulus (GPa) = 34.37945 35.76405 35.07175
#
# Velocity S-wave (km/s) = 3.45774 3.52668 3.49238
# Velocity P-wave (km/s) = 5.69455 5.90623 5.80135
#
# Compressibility (1/GPa) = 0.02109382
#
# Stress axis : x y z
#
# Youngs Moduli (GPa) = 76.07669 76.07668 109.61414
#
# Poissons Ratio (x) = 0.04125 0.36265
# Poissons Ratio (y) = 0.04125 0.36265
# Poissons Ratio (z) = 0.25170 0.25170
#
# Static dielectric constant tensor:
#      x y z
#    x 2.278850 0.000000 0.000000 
#    y 0.000000 2.278850 0.000000 
#    z 0.000000 0.000000 2.378790 
# 
# From -- ./inp_files/3921.got.cif
#   From: 2010.05.17/outbox.cif.g08.bks.cpg/sg88_2_cif.got.tgz:3921.got - 2010.06.03 19:11:41.
