data_PCOD9546110
_publ_section_title
;
Structure prediction by ZEFSAII (Michael W. Deem and Ramdas Pophale) SiO2 
 PCOD9546110
Probable space group: I 4/M
;
_chemical_formula_sum "Si O2"
_cell_formula_units_Z 96
_cell_length_a 24.364439
_cell_length_b 24.364439
_cell_length_c 8.588198
_cell_angle_alpha 90.000000
_cell_angle_beta 90.000000
_cell_angle_gamma 90.000000
_cell_volume 5098.176662
_symmetry_space_group_name_H-M "I 4/M"
_symmetry_group_IT_number 87
_symmetry_cell_setting 'tetragonal'
loop_
_space_group_symop_operation_xyz
x,y,z
-y,x,z
-x,-y,z
y,-x,z
-x,-y,-z
y,-x,-z
x,y,-z
-y,x,-z
1/2+x,1/2+y,1/2+z
1/2-y,1/2+x,1/2+z
1/2-x,1/2-y,1/2+z
1/2+y,1/2-x,1/2+z
1/2-x,1/2-y,1/2-z
1/2+y,1/2-x,1/2-z
1/2+x,1/2+y,1/2-z
1/2-y,1/2+x,1/2-z
loop_
_atom_site_type_symbol
_atom_site_label
_atom_site_fract_x
_atom_site_fract_y
_atom_site_fract_z
Si Si1 0.791877 0.959416 0.313992
Si Si2 0.729556 0.665489 0.812265
Si Si3 0.508928 0.915736 0.815862
Si Si4 0.457979 0.201743 0.313609
Si Si5 0.234030 0.664453 0.312230
Si Si6 0.588799 0.515556 0.687266
O O1 0.784239 0.962442 0.500000
O O2 0.779066 0.897009 0.262419
O O3 0.854104 0.973968 0.270427
O O4 0.750670 0.001591 0.233259
O O5 0.683365 0.706819 0.749540
O O6 0.788236 0.690969 0.762701
O O7 0.727827 0.666739 0.000000
O O8 0.455726 0.941018 0.731285
O O9 0.521768 0.854446 0.763175
O O10 0.499920 0.918524 0.000000
O O11 0.457489 0.194948 0.500000
O O12 0.396029 0.216312 0.261658
O O13 0.235947 0.664683 0.500000
O O14 0.543115 0.561459 0.726152
O O15 0.596610 0.516821 0.500000
#
# Coordination Sequence:
#
# PCOD9546110 Si02
#       6
#    16  16  16  16  16  16
#     4  11  24  38  58  89 123 158 195 247 305 361
#     4   9  20  39  60  85 116 153 194 241 299 356
#     4  11  23  42  66  93 124 162 204 251 304 362
#     4  11  24  40  61  91 122 159 205 251 300 358
#     4   9  20  39  62  85 114 155 197 243 296 349
#     4   9  20  40  63  85 114 155 200 248 302 362
#
# _framework density 18.830262000000001
#
# number of rings (size 3 to 8) (size 9 to 14) (size 15 to 20)
#    0.000    2.000    0.000    3.500    4.667    3.333 
#    0.000    0.833    0.000    0.000    0.000    0.000 
#    0.000    0.000    0.000    0.000    0.000    0.000 
#
# Total GULP energy -268187.435511 kJ/mol
# GULP energy per Si atom -5587.238240 kJ/mol
# Density = 1.878740 g / cm^3
# Si number density = 18.830262 Si / 1000 Ang^3
#
#
#
# Elastic Constant Matrix: (Units=GPa)
#
#
# Indices 1 2 3 4 5 6 
#
# 1 92.7312 32.9477 0.7714 0.0000 0.0000 3.1928
# 2 32.9477 92.7312 0.7714 0.0000 0.0000 -3.1928
# 3 0.7714 0.7714 17.0595 0.0000 0.0000 0.0000
# 4 0.0000 0.0000 0.0000 32.2481 0.0000 0.0000
# 5 0.0000 0.0000 0.0000 0.0000 32.2481 0.0000
# 6 3.1928 -3.1928 0.0000 0.0000 0.0000 10.9275
#
#
#
# Elastic Compliance Matrix: (Units=1/GPa)
#
#
# Indices 1 2 3 4 5 6 
#
# 1 0.012614 -0.004652 -0.000360 0.000000 0.000000 -0.005045
# 2 -0.004652 0.012614 -0.000360 0.000000 0.000000 0.005045
# 3 -0.000360 -0.000360 0.058651 0.000000 0.000000 0.000000
# 4 0.000000 0.000000 0.000000 0.031010 0.000000 0.000000
# 5 0.000000 0.000000 0.000000 0.000000 0.031010 0.000000
# 6 -0.005045 0.005045 0.000000 0.000000 0.000000 0.094460
#
#
# Mechanical properties :
#
#
# Convention : Reuss Voigt Hill
#
# Bulk Modulus (GPa) = 13.67367 30.16699 21.92033
# Shear Modulus (GPa) = 18.15019 26.28685 22.21852
#
# Velocity S-wave (km/s) = 3.10802 3.74035 3.43875
# Velocity P-wave (km/s) = 4.48965 5.89142 5.23765
#
# Compressibility (1/GPa) = 0.07313328
#
# Stress axis : x y z
#
# Youngs Moduli (GPa) = 79.27991 79.27991 17.05006
#
# Poissons Ratio (x) = 0.36884 0.00614
# Poissons Ratio (y) = 0.36884 0.00614
# Poissons Ratio (z) = 0.02854 0.02854
#
# Static dielectric constant tensor:
#      x y z
#    x 1.627540 0.000000 0.000000 
#    y 0.000000 1.627540 0.000000 
#    z 0.000000 0.000000 1.642840 
# 
# From -- ./inp_files/1430.got.cif
#   From: 2010.05.17/outbox.cif.g08.bks.cpg/sg87_1_cif.got.tgz:1430.got - 2010.06.03 19:07:00.
