data_PCOD9546906
_publ_section_title
;
Structure prediction by ZEFSAII (Michael W. Deem and Ramdas Pophale) SiO2 
 PCOD9546906
Probable space group: P 4 2 2
;
_chemical_formula_sum "Si O2"
_cell_formula_units_Z 48
_cell_length_a 17.848141
_cell_length_b 17.848141
_cell_length_c 9.223954
_cell_angle_alpha 90.000000
_cell_angle_beta 90.000000
_cell_angle_gamma 90.000000
_cell_volume 2938.347156
_symmetry_space_group_name_H-M "P 4 2 2"
_symmetry_group_IT_number 89
_symmetry_cell_setting 'tetragonal'
loop_
_space_group_symop_operation_xyz
x,y,z
-y,x,z
-x,-y,z
y,-x,z
x,-y,-z
-x,y,-z
y,x,-z
-y,-x,-z
loop_
_atom_site_type_symbol
_atom_site_label
_atom_site_fract_x
_atom_site_fract_y
_atom_site_fract_z
Si Si1 0.705490 0.583499 0.207224
Si Si2 0.665794 0.222912 0.952396
Si Si3 0.305222 0.587190 0.286585
Si Si4 0.919864 0.577344 0.925145
Si Si5 0.655673 0.774384 0.530751
Si Si6 0.080293 0.579264 0.426307
O O1 0.727275 0.607586 0.046268
O O2 0.708593 0.495992 0.234409
O O3 0.623473 0.615151 0.248899
O O4 0.765243 0.630482 0.303380
O O5 0.746808 0.253193 0.000000
O O6 0.645027 0.247803 0.790657
O O7 0.643619 0.137108 0.964653
O O8 0.282485 0.596989 0.452474
O O9 0.925170 0.570593 0.749202
O O10 0.891009 0.500000 0.000000
O O11 0.000000 0.589591 0.000000
O O12 0.736394 0.736394 0.500000
O O13 0.639378 0.856892 0.471716
O O14 0.103813 0.500000 0.500000
O O15 0.000000 0.596603 0.500000
#
# Coordination Sequence:
#
# PCOD9546906 Si02
#       6
#     8   8   8   8   8   8
#     4  10  20  29  49  63  93 123 170 206 258 288
#     4  10  21  34  50  69  95 130 168 207 250 301
#     4  10  18  33  43  69  87 127 164 214 250 296
#     4  11  22  35  52  77 104 132 167 209 258 308
#     4  10  21  34  50  69  95 130 168 207 250 301
#     4  11  22  35  52  77 104 132 167 209 258 308
#
# _framework density 16.335713999999999
#
# number of rings (size 3 to 8) (size 9 to 14) (size 15 to 20)
#    0.000    1.667    1.667    5.000    4.667    0.333 
#    0.000    0.000    0.000    6.000    0.000    0.000 
#    0.000    0.667    0.000    3.000    0.000    0.333 
#
# Total GULP energy -267522.847927 kJ/mol
# GULP energy per Si atom -5573.392665 kJ/mol
# Density = 1.629853 g / cm^3
# Si number density = 16.335714 Si / 1000 Ang^3
#
#
#
# Elastic Constant Matrix: (Units=GPa)
#
#
# Indices 1 2 3 4 5 6 
#
# 1 81.0363 38.3172 24.8968 0.0000 0.0000 0.0000
# 2 38.3172 81.0370 24.8963 0.0000 0.0000 0.0000
# 3 24.8968 24.8963 77.1298 0.0000 0.0000 0.0000
# 4 0.0000 0.0000 0.0000 19.7934 0.0000 0.0000
# 5 0.0000 0.0000 0.0000 0.0000 19.7930 0.0000
# 6 0.0000 0.0000 0.0000 0.0000 0.0000 25.0979
#
#
#
# Elastic Compliance Matrix: (Units=1/GPa)
#
#
# Indices 1 2 3 4 5 6 
#
# 1 0.016546 -0.006863 -0.003125 0.000000 0.000000 0.000000
# 2 -0.006863 0.016545 -0.003125 0.000000 0.000000 0.000000
# 3 -0.003125 -0.003125 0.014983 0.000000 0.000000 0.000000
# 4 0.000000 0.000000 0.000000 0.050522 0.000000 0.000000
# 5 0.000000 0.000000 0.000000 0.000000 0.050523 0.000000
# 6 0.000000 0.000000 0.000000 0.000000 0.000000 0.039844
#
#
# Mechanical properties :
#
#
# Convention : Reuss Voigt Hill
#
# Bulk Modulus (GPa) = 45.77480 46.15819 45.96650
# Shear Modulus (GPa) = 22.47472 23.00970 22.74221
#
# Velocity S-wave (km/s) = 3.71321 3.75714 3.73524
# Velocity P-wave (km/s) = 6.81660 6.86577 6.84123
#
# Compressibility (1/GPa) = 0.02184608
#
# Stress axis : x y z
#
# Youngs Moduli (GPa) = 60.43928 60.44014 66.74326
#
# Poissons Ratio (x) = 0.41481 0.20860
# Poissons Ratio (y) = 0.41480 0.20859
# Poissons Ratio (z) = 0.18890 0.18889
#
# Static dielectric constant tensor:
#      x y z
#    x 1.559490 0.000000 0.000000 
#    y 0.000000 1.559490 0.000000 
#    z 0.000000 0.000000 1.578040 
# 
# From -- ./inp_files/1180.got.cif
#   From: 2010.05.17/outbox.cif.g08.bks.cpg/sg89_1_cif.got.tgz:1180.got - 2010.06.03 19:15:31.
