data_PCOD9546774
_publ_section_title
;
Structure prediction by ZEFSAII (Michael W. Deem and Ramdas Pophale) SiO2 
 PCOD9546774
Probable space group: I 41/A
;
_chemical_formula_sum "Si O2"
_cell_formula_units_Z 60
_cell_length_a 10.848261
_cell_length_b 10.848261
_cell_length_c 19.653459
_cell_angle_alpha 90.000000
_cell_angle_beta 90.000000
_cell_angle_gamma 90.000000
_cell_volume 2312.912738
_symmetry_space_group_name_H-M "I 41/A"
_symmetry_group_IT_number 88
_space_group.IT_coordinate_system_code '2'
_symmetry_cell_setting 'tetragonal'
loop_
_space_group_symop_operation_xyz
x,y,z
3/4-y,1/4+x,1/4+z
-x,1/2-y,z
1/4+y,1/4-x,1/4+z
-x,-y,-z
1/4+y,3/4-x,3/4-z
x,1/2+y,-z
3/4-y,3/4+x,3/4-z
1/2+x,1/2+y,1/2+z
1/4-y,3/4+x,3/4+z
1/2-x,-y,1/2+z
3/4+y,3/4-x,3/4+z
1/2-x,1/2-y,1/2-z
3/4+y,1/4-x,1/4-z
1/2+x,y,1/2-z
1/4-y,1/4+x,1/4-z
loop_
_atom_site_type_symbol
_atom_site_label
_atom_site_fract_x
_atom_site_fract_y
_atom_site_fract_z
Si Si1 0.500000 0.750000 0.789013
Si Si2 0.688283 0.087247 0.800785
Si Si3 0.500000 0.750000 0.125000
Si Si4 0.881702 0.618226 0.914343
Si Si5 0.125835 0.691306 0.171350
O O1 0.592716 0.678839 0.739399
O O2 0.564594 0.844269 0.841300
O O3 0.769732 0.975786 0.828959
O O4 0.954146 0.974942 0.565047
O O5 0.663889 0.078163 0.719601
O O6 0.438695 0.865094 0.165519
O O7 0.994001 0.915760 0.872547
O O8 0.000000 0.750000 0.200211
#
# Coordination Sequence:
#
# PCOD9546774 Si02
#       5
#     8  16   4  16  16
#     4   8  18  46  78 110 164 198 272 340 408 500
#     4  11  23  44  76 113 165 211 275 347 406 503
#     4  12  26  44  72 114 156 216 266 336 416 502
#     4   9  21  46  83 122 159 216 280 347 422 498
#     4   9  21  43  73 110 156 211 268 330 418 485
#
# _framework density 25.941316
#
# number of rings (size 3 to 8) (size 9 to 14) (size 15 to 20)
#    0.800    1.867    1.333    0.000    0.000    6.400 
#    0.000    5.333   29.333    0.000    0.000    0.000 
#    0.000    0.000    0.000    0.000    0.000    0.000 
#
# Total GULP energy -167645.132337 kJ/mol
# GULP energy per Si atom -5588.171078 kJ/mol
# Density = 2.588227 g / cm^3
# Si number density = 25.941316 Si / 1000 Ang^3
#
#
#
# Elastic Constant Matrix: (Units=GPa)
#
#
# Indices 1 2 3 4 5 6 
#
# 1 124.2910 63.7652 90.5099 0.0000 0.0000 6.9860
# 2 63.7652 124.2910 90.5099 0.0000 0.0000 -6.9860
# 3 90.5099 90.5099 239.0350 0.0000 0.0000 0.0000
# 4 0.0000 0.0000 0.0000 327.5665 0.0000 0.0000
# 5 0.0000 0.0000 0.0000 0.0000 327.5665 0.0000
# 6 6.9860 -6.9860 0.0000 0.0000 0.0000 59.0373
#
#
#
# Elastic Compliance Matrix: (Units=1/GPa)
#
#
# Indices 1 2 3 4 5 6 
#
# 1 0.012677 -0.004309 -0.003168 0.000000 0.000000 -0.002010
# 2 -0.004309 0.012677 -0.003168 0.000000 0.000000 0.002010
# 3 -0.003168 -0.003168 0.006583 0.000000 0.000000 0.000000
# 4 0.000000 0.000000 0.000000 0.003053 0.000000 0.000000
# 5 0.000000 0.000000 0.000000 0.000000 0.003053 0.000000
# 6 -0.002010 0.002010 0.000000 0.000000 0.000000 0.017414
#
#
# Mechanical properties :
#
#
# Convention : Reuss Voigt Hill
#
# Bulk Modulus (GPa) = 93.94668 108.57631 101.26150
# Shear Modulus (GPa) = 62.27014 159.02286 110.64650
#
# Velocity S-wave (km/s) = 4.90473 7.83799 6.53798
# Velocity P-wave (km/s) = 8.26854 11.12913 9.80373
#
# Compressibility (1/GPa) = 0.01064434
#
# Stress axis : x y z
#
# Youngs Moduli (GPa) = 78.88579 78.88579 151.91166
#
# Poissons Ratio (x) = 0.33994 0.48129
# Poissons Ratio (y) = 0.33994 0.48129
# Poissons Ratio (z) = 0.24993 0.24993
#
# Static dielectric constant tensor:
#      x y z
#    x 2.079300 0.000000 0.000000 
#    y 0.000000 2.079300 0.000000 
#    z 0.000000 0.000000 2.106910 
# 
# From -- ./inp_files/3091.got.cif
#   From: 2010.05.17/outbox.cif.g08.bks.cpg/sg88_2_cif.got.tgz:3091.got - 2010.06.03 19:11:41.
