data_PCOD9546376
_publ_section_title
;
Structure prediction by ZEFSAII (Michael W. Deem and Ramdas Pophale) SiO2 
 PCOD9546376
Probable space group: I 41/A
;
_chemical_formula_sum "Si O2"
_cell_formula_units_Z 96
_cell_length_a 21.604036
_cell_length_b 21.604036
_cell_length_c 9.213880
_cell_angle_alpha 90.000000
_cell_angle_beta 90.000000
_cell_angle_gamma 90.000000
_cell_volume 4300.434491
_symmetry_space_group_name_H-M "I 41/A"
_symmetry_group_IT_number 88
_space_group.IT_coordinate_system_code '2'
_symmetry_cell_setting 'tetragonal'
loop_
_space_group_symop_operation_xyz
x,y,z
3/4-y,1/4+x,1/4+z
-x,1/2-y,z
1/4+y,1/4-x,1/4+z
-x,-y,-z
1/4+y,3/4-x,3/4-z
x,1/2+y,-z
3/4-y,3/4+x,3/4-z
1/2+x,1/2+y,1/2+z
1/4-y,3/4+x,3/4+z
1/2-x,-y,1/2+z
3/4+y,3/4-x,3/4+z
1/2-x,1/2-y,1/2-z
3/4+y,1/4-x,1/4-z
1/2+x,y,1/2-z
1/4-y,1/4+x,1/4-z
loop_
_atom_site_type_symbol
_atom_site_label
_atom_site_fract_x
_atom_site_fract_y
_atom_site_fract_z
Si Si1 0.858739 0.069384 0.449144
Si Si2 0.289516 0.819697 0.040707
Si Si3 0.054653 0.599120 0.800037
Si Si4 0.444151 0.449061 0.627389
Si Si5 0.077752 0.910852 0.847991
Si Si6 0.203599 0.967048 0.169428
O O1 0.919935 0.065690 0.548485
O O2 0.822133 0.133838 0.467962
O O3 0.875621 0.070608 0.280787
O O4 0.821606 0.008609 0.502384
O O5 0.303678 0.884969 0.960748
O O6 0.214449 0.816303 0.035971
O O7 0.311894 0.756968 0.966229
O O8 0.110941 0.646552 0.789235
O O9 0.983984 0.618131 0.774534
O O10 0.055899 0.584827 0.973306
O O11 0.440068 0.522004 0.590582
O O12 0.216537 0.963464 0.998411
#
# Coordination Sequence:
#
# PCOD9546376 Si02
#       6
#    16  16  16  16  16  16
#     4  10  22  38  60  88 119 157 196 255 317 350
#     4  10  21  37  57  90 117 156 205 237 302 381
#     4  10  23  36  60  85 114 159 199 241 305 360
#     4  10  22  40  58  85 125 157 192 253 312 366
#     4  10  20  39  57  82 118 156 194 250 299 359
#     4  10  22  35  58  93 123 158 201 260 310 369
#
# _framework density 22.323326999999999
#
# number of rings (size 3 to 8) (size 9 to 14) (size 15 to 20)
#    0.000    2.000    0.000    4.000    7.000    7.000 
#    0.000    3.333    0.000    2.500    0.000    0.000 
#    0.000    0.000    0.000    0.000    0.000    0.000 
#
# Total GULP energy -268098.648825 kJ/mol
# GULP energy per Si atom -5585.388517 kJ/mol
# Density = 2.227252 g / cm^3
# Si number density = 22.323327 Si / 1000 Ang^3
#
#
#
# Elastic Constant Matrix: (Units=GPa)
#
#
# Indices 1 2 3 4 5 6 
#
# 1 96.5116 36.0251 9.0975 0.0000 0.0000 -1.9224
# 2 36.0251 96.5116 9.0975 0.0000 0.0000 1.9224
# 3 9.0975 9.0975 44.3545 0.0000 0.0000 0.0000
# 4 0.0000 0.0000 0.0000 35.2282 0.0000 0.0000
# 5 0.0000 0.0000 0.0000 0.0000 35.2282 0.0000
# 6 -1.9224 1.9224 0.0000 0.0000 0.0000 20.1033
#
#
#
# Elastic Compliance Matrix: (Units=1/GPa)
#
#
# Indices 1 2 3 4 5 6 
#
# 1 0.012199 -0.004435 -0.001592 0.000000 0.000000 0.001591
# 2 -0.004435 0.012199 -0.001592 0.000000 0.000000 -0.001591
# 3 -0.001592 -0.001592 0.023199 0.000000 0.000000 0.000000
# 4 0.000000 0.000000 0.000000 0.028386 0.000000 0.000000
# 5 0.000000 0.000000 0.000000 0.000000 0.028386 0.000000
# 6 0.001591 -0.001591 0.000000 0.000000 0.000000 0.050047
#
#
# Mechanical properties :
#
#
# Convention : Reuss Voigt Hill
#
# Bulk Modulus (GPa) = 30.90555 38.42420 34.66488
# Shear Modulus (GPa) = 27.70984 30.32246 29.01615
#
# Velocity S-wave (km/s) = 3.52702 3.68955 3.60920
# Velocity P-wave (km/s) = 5.51916 5.94982 5.73853
#
# Compressibility (1/GPa) = 0.03235664
#
# Stress axis : x y z
#
# Youngs Moduli (GPa) = 81.97590 81.97590 43.10561
#
# Poissons Ratio (x) = 0.36356 0.06864
# Poissons Ratio (y) = 0.36356 0.06864
# Poissons Ratio (z) = 0.13054 0.13054
#
# Static dielectric constant tensor:
#      x y z
#    x 1.902470 0.000000 0.000000 
#    y 0.000000 1.902470 0.000000 
#    z 0.000000 0.000000 1.893120 
# 
# From -- ./inp_files/2624.got.cif
#   From: 2010.05.17/outbox.cif.g08.bks.cpg/sg88_2_cif.got.tgz:2624.got - 2010.06.03 19:11:41.
