data_PCOD9546304
_publ_section_title
;
Structure prediction by ZEFSAII (Michael W. Deem and Ramdas Pophale) SiO2 
 PCOD9546304
Probable space group: I 41/A
;
_chemical_formula_sum "Si O2"
_cell_formula_units_Z 92
_cell_length_a 14.256225
_cell_length_b 14.256225
_cell_length_c 19.550720
_cell_angle_alpha 90.000000
_cell_angle_beta 90.000000
_cell_angle_gamma 90.000000
_cell_volume 3973.487380
_symmetry_space_group_name_H-M "I 41/A"
_symmetry_group_IT_number 88
_space_group.IT_coordinate_system_code '2'
_symmetry_cell_setting 'tetragonal'
loop_
_space_group_symop_operation_xyz
x,y,z
3/4-y,1/4+x,1/4+z
-x,1/2-y,z
1/4+y,1/4-x,1/4+z
-x,-y,-z
1/4+y,3/4-x,3/4-z
x,1/2+y,-z
3/4-y,3/4+x,3/4-z
1/2+x,1/2+y,1/2+z
1/4-y,3/4+x,3/4+z
1/2-x,-y,1/2+z
3/4+y,3/4-x,3/4+z
1/2-x,1/2-y,1/2-z
3/4+y,1/4-x,1/4-z
1/2+x,y,1/2-z
1/4-y,1/4+x,1/4-z
loop_
_atom_site_type_symbol
_atom_site_label
_atom_site_fract_x
_atom_site_fract_y
_atom_site_fract_z
Si Si1 0.930176 0.898906 0.709105
Si Si2 0.610879 0.920708 0.960448
Si Si3 0.806296 0.843386 0.947946
Si Si4 0.172919 0.235514 0.193546
Si Si5 0.702706 0.209414 0.863961
Si Si6 0.000000 0.250000 0.396381
Si Si7 0.500000 0.750000 0.125000
O O1 0.884985 0.852734 0.776227
O O2 0.941267 0.814833 0.655347
O O3 0.028299 0.941489 0.735648
O O4 0.894145 0.983692 0.662569
O O5 0.723199 0.918303 0.953123
O O6 0.565075 0.819692 0.940048
O O7 0.554919 0.993215 0.911027
O O8 0.587705 0.937294 0.039948
O O9 0.783873 0.787204 0.879169
O O10 0.915321 0.870710 0.939190
O O11 0.250000 0.250000 0.250000
O O12 0.604916 0.229283 0.902688
#
# Coordination Sequence:
#
# PCOD9546304 Si02
#       7
#    16  16  16  16  16   8   4
#     4  11  22  42  71 105 145 203 249 305 384 452
#     4  10  23  44  70 108 146 198 259 316 379 462
#     4  12  24  45  74 106 154 198 257 312 383 463
#     4  12  26  45  70 110 151 201 249 319 385 456
#     4  10  24  43  72 103 146 197 252 317 384 453
#     4  10  19  40  73  99 152 197 248 312 382 445
#     4  12  22  44  72 100 144 190 248 308 390 438
#
# _framework density 23.153464
#
# number of rings (size 3 to 8) (size 9 to 14) (size 15 to 20)
#    0.000    1.043    3.478    2.609    2.435    1.391 
#    3.130    3.478    0.000    0.000    0.000    0.000 
#    0.000    0.000    0.000    0.000    0.000    0.000 
#
# Total GULP energy -256606.556480 kJ/mol
# GULP energy per Si atom -5578.403402 kJ/mol
# Density = 2.310077 g / cm^3
# Si number density = 23.153464 Si / 1000 Ang^3
#
#
#
# Elastic Constant Matrix: (Units=GPa)
#
#
# Indices 1 2 3 4 5 6 
#
# 1 102.5148 13.2351 29.4152 0.0000 0.0000 -12.1007
# 2 13.2351 102.5148 29.4152 0.0000 0.0000 12.1007
# 3 29.4152 29.4152 128.5008 0.0000 0.0000 0.0000
# 4 0.0000 0.0000 0.0000 26.2299 0.0000 0.0000
# 5 0.0000 0.0000 0.0000 0.0000 26.2299 0.0000
# 6 -12.1007 12.1007 0.0000 0.0000 0.0000 22.6943
#
#
#
# Elastic Compliance Matrix: (Units=1/GPa)
#
#
# Indices 1 2 3 4 5 6 
#
# 1 0.011435 -0.001658 -0.002238 0.000000 0.000000 0.006981
# 2 -0.001658 0.011435 -0.002238 0.000000 0.000000 -0.006981
# 3 -0.002238 -0.002238 0.008807 0.000000 0.000000 0.000000
# 4 0.000000 0.000000 0.000000 0.038124 0.000000 0.000000
# 5 0.000000 0.000000 0.000000 0.000000 0.038124 0.000000
# 6 0.006981 -0.006981 0.000000 0.000000 0.000000 0.051509
#
#
# Mechanical properties :
#
#
# Convention : Reuss Voigt Hill
#
# Bulk Modulus (GPa) = 51.52459 53.07347 52.29903
# Shear Modulus (GPa) = 28.06271 32.46181 30.26226
#
# Velocity S-wave (km/s) = 3.48520 3.74843 3.61921
# Velocity P-wave (km/s) = 6.20462 6.45806 6.33261
#
# Compressibility (1/GPa) = 0.01940821
#
# Stress axis : x y z
#
# Youngs Moduli (GPa) = 87.45078 87.45078 113.55047
#
# Poissons Ratio (x) = 0.14501 0.25413
# Poissons Ratio (y) = 0.14501 0.25413
# Poissons Ratio (z) = 0.19572 0.19572
#
# Static dielectric constant tensor:
#      x y z
#    x 1.967470 0.000000 0.000000 
#    y 0.000000 1.967470 0.000000 
#    z 0.000000 0.000000 1.787620 
# 
# From -- ./inp_files/4742.got.cif
#   From: 2010.05.17/outbox.cif.g08.bks.cpg/sg88_3_cif.got.tgz:4742.got - 2010.06.03 19:11:41.
