data_PCOD9546801
_publ_section_title
;
Structure prediction by ZEFSAII (Michael W. Deem and Ramdas Pophale) SiO2 
 PCOD9546801
Probable space group: I 41/A
;
_chemical_formula_sum "Si O2"
_cell_formula_units_Z 112
_cell_length_a 13.551398
_cell_length_b 13.551398
_cell_length_c 24.997262
_cell_angle_alpha 90.000000
_cell_angle_beta 90.000000
_cell_angle_gamma 90.000000
_cell_volume 4590.506886
_symmetry_space_group_name_H-M "I 41/A"
_symmetry_group_IT_number 88
_space_group.IT_coordinate_system_code '2'
_symmetry_cell_setting 'tetragonal'
loop_
_space_group_symop_operation_xyz
x,y,z
3/4-y,1/4+x,1/4+z
-x,1/2-y,z
1/4+y,1/4-x,1/4+z
-x,-y,-z
1/4+y,3/4-x,3/4-z
x,1/2+y,-z
3/4-y,3/4+x,3/4-z
1/2+x,1/2+y,1/2+z
1/4-y,3/4+x,3/4+z
1/2-x,-y,1/2+z
3/4+y,3/4-x,3/4+z
1/2-x,1/2-y,1/2-z
3/4+y,1/4-x,1/4-z
1/2+x,y,1/2-z
1/4-y,1/4+x,1/4-z
loop_
_atom_site_type_symbol
_atom_site_label
_atom_site_fract_x
_atom_site_fract_y
_atom_site_fract_z
Si Si1 0.031534 0.856968 0.555981
Si Si2 0.299830 0.394940 0.595571
Si Si3 0.897658 0.626678 0.360867
Si Si4 0.467893 0.045266 0.442074
Si Si5 0.111635 0.517672 0.239484
Si Si6 0.167690 0.583055 0.506209
Si Si7 0.452942 0.934310 0.670203
O O1 0.086337 0.914529 0.602865
O O2 0.117262 0.832605 0.513226
O O3 0.000000 0.750000 0.576981
O O4 0.941982 0.918001 0.531276
O O5 0.188584 0.431601 0.607814
O O6 0.380464 0.474916 0.579807
O O7 0.286466 0.328481 0.543169
O O8 0.869025 0.742473 0.366707
O O9 0.888971 0.594853 0.299843
O O10 0.547025 0.048860 0.393611
O O11 0.417926 0.154191 0.439995
O O12 0.500000 0.000000 0.500000
O O13 0.230086 0.528343 0.242083
O O14 0.063523 0.456595 0.191538
O O15 0.233205 0.641603 0.548321
#
# Coordination Sequence:
#
# PCOD9546801 Si02
#       7
#    16  16  16  16  16  16  16
#     4  12  25  45  76 114 162 205 266 326 406 483
#     4  12  26  47  75 108 152 205 267 321 392 494
#     4  11  25  42  70 119 166 203 256 310 395 496
#     4  12  30  55  85 117 154 209 281 353 418 484
#     4  12  25  48  77 112 157 212 267 322 414 478
#     4  12  24  47  80 111 169 213 250 331 401 494
#     4  12  28  54  82 115 160 213 268 348 412 491
#
# _framework density 24.398178000000001
#
# number of rings (size 3 to 8) (size 9 to 14) (size 15 to 20)
#    0.000    0.143    5.714    2.143    6.000    3.714 
#    0.000    0.000    0.000    0.000    0.000    0.000 
#    0.000    0.000    0.000    0.000    0.000    0.000 
#
# Total GULP energy -313353.400868 kJ/mol
# GULP energy per Si atom -5595.596444 kJ/mol
# Density = 2.434265 g / cm^3
# Si number density = 24.398178 Si / 1000 Ang^3
#
#
#
# Elastic Constant Matrix: (Units=GPa)
#
#
# Indices 1 2 3 4 5 6 
#
# 1 122.6584 56.5358 57.3866 0.0000 0.0000 6.7213
# 2 56.5358 122.6584 57.3866 0.0000 0.0000 -6.7213
# 3 57.3866 57.3866 170.1509 0.0000 0.0000 0.0000
# 4 0.0000 0.0000 0.0000 39.7809 0.0000 0.0000
# 5 0.0000 0.0000 0.0000 0.0000 39.7809 0.0000
# 6 6.7213 -6.7213 0.0000 0.0000 0.0000 49.8760
#
#
#
# Elastic Compliance Matrix: (Units=1/GPa)
#
#
# Indices 1 2 3 4 5 6 
#
# 1 0.011334 -0.004216 -0.002401 0.000000 0.000000 -0.002095
# 2 -0.004216 0.011334 -0.002401 0.000000 0.000000 0.002095
# 3 -0.002401 -0.002401 0.007497 0.000000 0.000000 0.000000
# 4 0.000000 0.000000 0.000000 0.025138 0.000000 0.000000
# 5 0.000000 0.000000 0.000000 0.000000 0.025138 0.000000
# 6 -0.002095 0.002095 0.000000 0.000000 0.000000 0.020614
#
#
# Mechanical properties :
#
#
# Convention : Reuss Voigt Hill
#
# Bulk Modulus (GPa) = 82.44060 84.23177 83.33619
# Shear Modulus (GPa) = 40.60698 42.16481 41.38589
#
# Velocity S-wave (km/s) = 4.08406 4.16167 4.12305
# Velocity P-wave (km/s) = 7.49016 7.59548 7.54300
#
# Compressibility (1/GPa) = 0.01212995
#
# Stress axis : x y z
#
# Youngs Moduli (GPa) = 88.23158 88.23158 133.39500
#
# Poissons Ratio (x) = 0.37195 0.32025
# Poissons Ratio (y) = 0.37195 0.32025
# Poissons Ratio (z) = 0.21182 0.21182
#
# Static dielectric constant tensor:
#      x y z
#    x 2.000830 0.000000 0.000000 
#    y 0.000000 2.000830 0.000000 
#    z 0.000000 0.000000 1.947060 
# 
# From -- ./inp_files/5857.got.cif
#   From: 2010.05.17/outbox.cif.g08.bks.cpg/sg88_3_cif.got.tgz:5857.got - 2010.06.03 19:11:41.
