data_PCOD9546667
_publ_section_title
;
Structure prediction by ZEFSAII (Michael W. Deem and Ramdas Pophale) SiO2 
 PCOD9546667
Probable space group: I 41/A
;
_chemical_formula_sum "Si O2"
_cell_formula_units_Z 112
_cell_length_a 14.493528
_cell_length_b 14.493528
_cell_length_c 24.469009
_cell_angle_alpha 90.000000
_cell_angle_beta 90.000000
_cell_angle_gamma 90.000000
_cell_volume 5140.017628
_symmetry_space_group_name_H-M "I 41/A"
_symmetry_group_IT_number 88
_space_group.IT_coordinate_system_code '2'
_symmetry_cell_setting 'tetragonal'
loop_
_space_group_symop_operation_xyz
x,y,z
3/4-y,1/4+x,1/4+z
-x,1/2-y,z
1/4+y,1/4-x,1/4+z
-x,-y,-z
1/4+y,3/4-x,3/4-z
x,1/2+y,-z
3/4-y,3/4+x,3/4-z
1/2+x,1/2+y,1/2+z
1/4-y,3/4+x,3/4+z
1/2-x,-y,1/2+z
3/4+y,3/4-x,3/4+z
1/2-x,1/2-y,1/2-z
3/4+y,1/4-x,1/4-z
1/2+x,y,1/2-z
1/4-y,1/4+x,1/4-z
loop_
_atom_site_type_symbol
_atom_site_label
_atom_site_fract_x
_atom_site_fract_y
_atom_site_fract_z
Si Si1 0.626703 0.995879 0.967899
Si Si2 0.534756 0.142784 0.187390
Si Si3 0.217421 0.640859 0.992419
Si Si4 0.139118 0.190120 0.120648
Si Si5 0.098195 0.862008 0.372765
Si Si6 0.802757 0.176866 0.822447
Si Si7 0.711477 0.650046 0.735269
O O1 0.637440 0.068247 0.917915
O O2 0.683417 0.903057 0.980648
O O3 0.527812 0.951835 0.953489
O O4 0.636825 0.066375 0.019671
O O5 0.500000 0.250000 0.187830
O O6 0.455181 0.071249 0.208318
O O7 0.570506 0.113500 0.127040
O O8 0.618496 0.135113 0.230319
O O9 0.190238 0.692184 0.936588
O O10 0.164642 0.544039 0.997548
O O11 0.112964 0.293152 0.138666
O O12 0.192371 0.143783 0.170647
O O13 0.111707 0.759232 0.397769
O O14 0.096953 0.947428 0.413026
O O15 0.750000 0.750000 0.750000
#
# Coordination Sequence:
#
# PCOD9546667 Si02
#       7
#    16  16  16  16  16  16  16
#     4  10  24  45  68 105 134 182 235 294 359 428
#     4  12  25  46  68 104 146 190 233 301 365 421
#     4  12  26  42  72 103 142 184 237 296 359 426
#     4  11  22  43  69  98 136 182 230 282 355 434
#     4   9  19  41  74  99 130 183 228 292 364 418
#     4  10  24  46  67  97 146 178 237 297 350 430
#     4  12  24  42  67 101 141 183 236 289 351 427
#
# _framework density 21.789808000000001
#
# number of rings (size 3 to 8) (size 9 to 14) (size 15 to 20)
#    0.000    1.143    4.286    0.857    6.000    1.143 
#    7.714    0.000    0.000    0.000    0.000    0.000 
#    0.000    0.000    0.000    0.000    0.000    0.000 
#
# Total GULP energy -312037.632172 kJ/mol
# GULP energy per Si atom -5572.100575 kJ/mol
# Density = 2.174021 g / cm^3
# Si number density = 21.789808 Si / 1000 Ang^3
#
#
#
# Elastic Constant Matrix: (Units=GPa)
#
#
# Indices 1 2 3 4 5 6 
#
# 1 -38.5406 108.2486 1.6631 0.0000 0.0000 11.1767
# 2 108.2486 -38.5406 1.6631 0.0000 0.0000 -11.1767
# 3 1.6631 1.6631 61.9482 0.0000 0.0000 0.0000
# 4 0.0000 0.0000 0.0000 18.7605 0.0000 0.0000
# 5 0.0000 0.0000 0.0000 0.0000 18.7605 0.0000
# 6 11.1767 -11.1767 0.0000 0.0000 0.0000 24.1788
#
#
#
# Elastic Compliance Matrix: (Units=1/GPa)
#
#
# Indices 1 2 3 4 5 6 
#
# 1 0.004000 0.010364 -0.000386 0.000000 0.000000 0.002942
# 2 0.010364 0.004000 -0.000386 0.000000 0.000000 -0.002942
# 3 -0.000386 -0.000386 0.016163 0.000000 0.000000 0.000000
# 4 0.000000 0.000000 0.000000 0.053303 0.000000 0.000000
# 5 0.000000 0.000000 0.000000 0.000000 0.053303 0.000000
# 6 0.002942 -0.002942 0.000000 0.000000 0.000000 0.038639
#
#
# Mechanical properties :
#
#
# Convention : Reuss Voigt Hill
#
# Bulk Modulus (GPa) = 23.06875 23.11293 23.09084
# Shear Modulus (GPa) = 30.36341 3.89277 17.12809
#
# Velocity S-wave (km/s) = 3.73697 1.33805 2.80672
# Velocity P-wave (km/s) = 5.40646 3.60797 4.59605
#
# Compressibility (1/GPa) = 0.04334868
#
# Stress axis : x y z
#
# Youngs Moduli (GPa) = 250.01597 250.01597 61.86884
#
# Poissons Ratio (x) = -2.59122 0.02386
# Poissons Ratio (y) = -2.59122 0.02386
# Poissons Ratio (z) = 0.09641 0.09641
#
# Static dielectric constant tensor:
#      x y z
#    x 1.603150 0.000000 0.000000 
#    y 0.000000 1.603150 0.000000 
#    z 0.000000 0.000000 1.823200 
# 
# From -- ./inp_files/5358.got.cif
#   From: 2010.05.17/outbox.cif.g08.bks.cpg/sg88_3_cif.got.tgz:5358.got - 2010.06.03 19:11:41.
