data_PCOD9546060
_publ_section_title
;
Structure prediction by ZEFSAII (Michael W. Deem and Ramdas Pophale) SiO2 
 PCOD9546060
Probable space group: I 4/M
;
_chemical_formula_sum "Si O2"
_cell_formula_units_Z 112
_cell_length_a 14.845859
_cell_length_b 14.845859
_cell_length_c 28.509870
_cell_angle_alpha 90.000000
_cell_angle_beta 90.000000
_cell_angle_gamma 90.000000
_cell_volume 6283.561933
_symmetry_space_group_name_H-M "I 4/M"
_symmetry_group_IT_number 87
_symmetry_cell_setting 'tetragonal'
loop_
_space_group_symop_operation_xyz
x,y,z
-y,x,z
-x,-y,z
y,-x,z
-x,-y,-z
y,-x,-z
x,y,-z
-y,x,-z
1/2+x,1/2+y,1/2+z
1/2-y,1/2+x,1/2+z
1/2-x,1/2-y,1/2+z
1/2+y,1/2-x,1/2+z
1/2-x,1/2-y,1/2-z
1/2+y,1/2-x,1/2-z
1/2+x,1/2+y,1/2-z
1/2-y,1/2+x,1/2-z
loop_
_atom_site_type_symbol
_atom_site_label
_atom_site_fract_x
_atom_site_fract_y
_atom_site_fract_z
Si Si1 0.382206 0.209333 0.554936
Si Si2 0.407361 0.048318 0.056611
Si Si3 0.213479 0.121737 0.402556
Si Si4 0.252547 0.568608 0.944833
Si Si5 0.599436 0.383273 0.807379
Si Si6 0.614576 0.399866 0.397622
Si Si7 0.608904 0.606988 0.294945
O O1 0.367738 0.187856 0.500000
O O2 0.482979 0.176062 0.567962
O O3 0.314113 0.154218 0.587253
O O4 0.365762 0.314680 0.564398
O O5 0.405552 0.151821 0.072165
O O6 0.500000 0.000000 0.072197
O O7 0.410309 0.051623 0.000000
O O8 0.150595 0.180391 0.436508
O O9 0.175035 0.135349 0.350414
O O10 0.210902 0.017369 0.416892
O O11 0.247635 0.545678 0.000000
O O12 0.621551 0.490036 0.810401
O O13 0.634624 0.353878 0.755787
O O14 0.620592 0.508875 0.401518
O O15 0.643076 0.363622 0.345921
O O16 0.501062 0.621487 0.295104
#
# Coordination Sequence:
#
# PCOD9546060 Si02
#       7
#    16  16  16  16  16  16  16
#     4  11  23  36  52  76 107 144 189 232 265 319
#     4   9  18  36  55  67  92 143 195 224 255 313
#     4  12  22  34  50  79 112 143 188 228 272 320
#     4  11  22  35  51  73 108 150 188 229 273 319
#     4   9  16  30  51  78 107 139 173 213 267 324
#     4   9  19  36  56  80 105 131 168 223 293 342
#     4   7  12  27  53  76 100 133 167 208 268 334
#
# _framework density 17.824286000000001
#
# number of rings (size 3 to 8) (size 9 to 14) (size 15 to 20)
#    0.000    2.286    2.857    3.000    2.000    0.857 
#    0.000    2.143    0.000    0.000    0.000    0.000 
#    0.000    0.000    0.000    0.000    0.000    0.000 
#
# Total GULP energy -311801.514128 kJ/mol
# GULP energy per Si atom -5567.884181 kJ/mol
# Density = 1.778372 g / cm^3
# Si number density = 17.824286 Si / 1000 Ang^3
#
#
#
# Elastic Constant Matrix: (Units=GPa)
#
#
# Indices 1 2 3 4 5 6 
#
# 1 55.6869 13.4416 10.0108 0.0000 0.0000 -3.1219
# 2 13.4416 55.6869 10.0108 0.0000 0.0000 3.1219
# 3 10.0108 10.0108 34.3087 0.0000 0.0000 0.0000
# 4 0.0000 0.0000 0.0000 12.3424 0.0000 0.0000
# 5 0.0000 0.0000 0.0000 0.0000 12.3424 0.0000
# 6 -3.1219 3.1219 0.0000 0.0000 0.0000 14.9954
#
#
#
# Elastic Compliance Matrix: (Units=1/GPa)
#
#
# Indices 1 2 3 4 5 6 
#
# 1 0.020112 -0.004311 -0.004611 0.000000 0.000000 0.005084
# 2 -0.004311 0.020112 -0.004611 0.000000 0.000000 -0.005084
# 3 -0.004611 -0.004611 0.031838 0.000000 0.000000 0.000000
# 4 0.000000 0.000000 0.000000 0.081022 0.000000 0.000000
# 5 0.000000 0.000000 0.000000 0.000000 0.081022 0.000000
# 6 0.005084 -0.005084 0.000000 0.000000 0.000000 0.068804
#
#
# Mechanical properties :
#
#
# Convention : Reuss Voigt Hill
#
# Bulk Modulus (GPa) = 22.22333 23.62323 22.92328
# Shear Modulus (GPa) = 14.49392 15.41732 14.95562
#
# Velocity S-wave (km/s) = 2.85468 2.94421 2.89979
# Velocity P-wave (km/s) = 4.83329 4.98398 4.90921
#
# Compressibility (1/GPa) = 0.04499777
#
# Stress axis : x y z
#
# Youngs Moduli (GPa) = 49.72173 49.72173 31.40928
#
# Poissons Ratio (x) = 0.21434 0.14481
# Poissons Ratio (y) = 0.21434 0.14481
# Poissons Ratio (z) = 0.22925 0.22925
#
# Static dielectric constant tensor:
#      x y z
#    x 1.621090 0.000000 0.000000 
#    y 0.000000 1.621090 0.000000 
#    z 0.000000 0.000000 1.635310 
# 
# From -- ./inp_files/6702.got.cif
#   From: 2010.05.17/outbox.cif.g08.bks.cpg/sg87_4_cif.got.tgz:6702.got - 2010.06.03 19:07:00.
