data_PCOD9546055
_publ_section_title
;
Structure prediction by ZEFSAII (Michael W. Deem and Ramdas Pophale) SiO2 
 PCOD9546055
Probable space group: I 4/M
;
_chemical_formula_sum "Si O2"
_cell_formula_units_Z 72
_cell_length_a 15.151577
_cell_length_b 15.151577
_cell_length_c 15.979209
_cell_angle_alpha 90.000000
_cell_angle_beta 90.000000
_cell_angle_gamma 90.000000
_cell_volume 3668.351574
_symmetry_space_group_name_H-M "I 4/M"
_symmetry_group_IT_number 87
_symmetry_cell_setting 'tetragonal'
loop_
_space_group_symop_operation_xyz
x,y,z
-y,x,z
-x,-y,z
y,-x,z
-x,-y,-z
y,-x,-z
x,y,-z
-y,x,-z
1/2+x,1/2+y,1/2+z
1/2-y,1/2+x,1/2+z
1/2-x,1/2-y,1/2+z
1/2+y,1/2-x,1/2+z
1/2-x,1/2-y,1/2-z
1/2+y,1/2-x,1/2-z
1/2+x,1/2+y,1/2-z
1/2-y,1/2+x,1/2-z
loop_
_atom_site_type_symbol
_atom_site_label
_atom_site_fract_x
_atom_site_fract_y
_atom_site_fract_z
Si Si1 0.135577 0.517729 0.770720
Si Si2 0.857603 0.040969 0.000000
Si Si3 0.738235 0.896070 0.401939
Si Si4 0.873485 0.766880 0.154727
Si Si5 0.881871 0.911885 0.727813
O O1 0.057275 0.588254 0.786657
O O2 0.179426 0.466724 0.848871
O O3 0.209002 0.571243 0.720594
O O4 0.802324 0.063491 0.082002
O O5 0.942585 0.105134 0.000000
O O6 0.738689 0.915897 0.500000
O O7 0.696807 0.799756 0.385105
O O8 0.835082 0.895504 0.360457
O O9 0.833013 0.851349 0.203466
O O10 0.983298 0.883321 0.738191
#
# Coordination Sequence:
#
# PCOD9546055 Si02
#       5
#    16   8  16  16  16
#     4   9  20  41  67  93 125 168 211 259 324 385
#     4  11  24  40  62  95 132 163 210 261 308 383
#     4  11  23  42  66  97 130 161 215 274 317 373
#     4  11  21  43  66  95 124 169 211 262 323 377
#     4  11  23  41  66  90 124 175 215 253 316 383
#
# _framework density 19.627344000000001
#
# number of rings (size 3 to 8) (size 9 to 14) (size 15 to 20)
#    0.000    1.444    3.333    2.000    0.000    2.667 
#    2.000    3.333    0.000    0.000    0.000    0.000 
#    0.000    0.000    0.000    0.000    0.000    0.000 
#
# Total GULP energy -200897.177837 kJ/mol
# GULP energy per Si atom -5580.477162 kJ/mol
# Density = 1.958267 g / cm^3
# Si number density = 19.627344 Si / 1000 Ang^3
#
#
#
# Elastic Constant Matrix: (Units=GPa)
#
#
# Indices 1 2 3 4 5 6 
#
# 1 55.0579 -17.4022 -1.6489 0.0000 0.0000 -0.5317
# 2 -17.4022 55.0579 -1.6489 0.0000 0.0000 0.5317
# 3 -1.6489 -1.6489 96.8693 0.0000 0.0000 0.0000
# 4 0.0000 0.0000 0.0000 -13.0015 0.0000 0.0000
# 5 0.0000 0.0000 0.0000 0.0000 -13.0014 0.0000
# 6 -0.5317 0.5317 0.0000 0.0000 0.0000 5.4370
#
#
#
# Elastic Compliance Matrix: (Units=1/GPa)
#
#
# Indices 1 2 3 4 5 6 
#
# 1 0.020208 0.006388 0.000453 0.000000 0.000000 0.001352
# 2 0.006388 0.020208 0.000453 0.000000 0.000000 -0.001352
# 3 0.000453 0.000453 0.010339 0.000000 0.000000 0.000000
# 4 0.000000 0.000000 0.000000 -0.076914 0.000000 0.000000
# 5 0.000000 0.000000 0.000000 0.000000 -0.076915 0.000000
# 6 0.001352 -0.001352 0.000000 0.000000 0.000000 0.184190
#
#
# Mechanical properties :
#
#
# Convention : Reuss Voigt Hill
#
# Bulk Modulus (GPa) = 15.30420 18.39835 16.85127
# Shear Modulus (GPa) = 56.61863 11.06582 33.84222
#
# Velocity S-wave (km/s) = 5.37675 2.37701 4.15690
# Velocity P-wave (km/s) = 6.80883 4.11434 5.62530
#
# Compressibility (1/GPa) = 0.06534156
#
# Stress axis : x y z
#
# Youngs Moduli (GPa) = 49.48462 49.48462 96.72489
#
# Poissons Ratio (x) = -0.31610 -0.04379
# Poissons Ratio (y) = -0.31610 -0.04379
# Poissons Ratio (z) = -0.02240 -0.02240
#
# Static dielectric constant tensor:
#      x y z
#    x 1.719960 0.000000 0.000000 
#    y 0.000000 1.719960 0.000000 
#    z 0.000000 0.000000 1.660880 
# 
# From -- ./inp_files/4285.got.cif
#   From: 2010.05.17/outbox.cif.g08.bks.cpg/sg87_3_cif.got.tgz:4285.got - 2010.06.03 19:07:00.
