data_PCOD9546699
_publ_section_title
;
Structure prediction by ZEFSAII (Michael W. Deem and Ramdas Pophale) SiO2 
 PCOD9546699
Probable space group: I 41/A
;
_chemical_formula_sum "Si O2"
_cell_formula_units_Z 48
_cell_length_a 10.075621
_cell_length_b 10.075621
_cell_length_c 19.330955
_cell_angle_alpha 90.000000
_cell_angle_beta 90.000000
_cell_angle_gamma 90.000000
_cell_volume 1962.442568
_symmetry_space_group_name_H-M "I 41/A"
_symmetry_group_IT_number 88
_space_group.IT_coordinate_system_code '2'
_symmetry_cell_setting 'tetragonal'
loop_
_space_group_symop_operation_xyz
x,y,z
3/4-y,1/4+x,1/4+z
-x,1/2-y,z
1/4+y,1/4-x,1/4+z
-x,-y,-z
1/4+y,3/4-x,3/4-z
x,1/2+y,-z
3/4-y,3/4+x,3/4-z
1/2+x,1/2+y,1/2+z
1/4-y,3/4+x,3/4+z
1/2-x,-y,1/2+z
3/4+y,3/4-x,3/4+z
1/2-x,1/2-y,1/2-z
3/4+y,1/4-x,1/4-z
1/2+x,y,1/2-z
1/4-y,1/4+x,1/4-z
loop_
_atom_site_type_symbol
_atom_site_label
_atom_site_fract_x
_atom_site_fract_y
_atom_site_fract_z
Si Si1 0.500000 0.750000 0.625000
Si Si2 0.000000 0.250000 0.625000
Si Si3 0.000000 0.250000 0.382938
Si Si4 0.846021 0.625877 0.253234
Si Si5 0.383850 0.990716 0.446053
O O1 0.622688 0.658974 0.654123
O O2 0.893701 0.319565 0.573541
O O3 0.105062 0.184287 0.435039
O O4 0.095630 0.349114 0.339662
O O5 0.750000 0.750000 0.250000
O O6 0.757425 0.498204 0.241140
O O7 0.500000 0.000000 0.500000
#
# Coordination Sequence:
#
# PCOD9546699 Si02
#       5
#     4   4   8  16  16
#     4  12  26  52  78 116 166 212 284 330 412 504
#     4  10  28  48  78 128 168 218 280 342 444 486
#     4  11  27  49  78 121 163 215 278 340 420 487
#     4  11  28  48  82 117 169 217 273 352 412 514
#     4  12  28  49  82 118 164 216 277 338 414 497
#
# _framework density 24.459313000000002
#
# number of rings (size 3 to 8) (size 9 to 14) (size 15 to 20)
#    0.000    0.667    3.333    1.000   14.000    2.667 
#    0.000    0.000    0.000    0.000    0.000    0.000 
#    0.000    0.000    0.000    0.000    0.000    0.000 
#
# Total GULP energy -133994.062098 kJ/mol
# GULP energy per Si atom -5583.085921 kJ/mol
# Density = 2.440364 g / cm^3
# Si number density = 24.459313 Si / 1000 Ang^3
#
#
#
# Elastic Constant Matrix: (Units=GPa)
#
#
# Indices 1 2 3 4 5 6 
#
# 1 177.2861 43.6280 65.0968 0.0000 0.0000 -8.5001
# 2 43.6280 177.2861 65.0968 0.0000 0.0000 8.5001
# 3 65.0968 65.0968 121.5352 0.0000 0.0000 0.0000
# 4 0.0000 0.0000 0.0000 21.1118 0.0000 0.0000
# 5 0.0000 0.0000 0.0000 0.0000 21.1118 0.0000
# 6 -8.5001 8.5001 0.0000 0.0000 0.0000 52.6344
#
#
#
# Elastic Compliance Matrix: (Units=1/GPa)
#
#
# Indices 1 2 3 4 5 6 
#
# 1 0.007127 -0.000512 -0.003543 0.000000 0.000000 0.001234
# 2 -0.000512 0.007127 -0.003543 0.000000 0.000000 -0.001234
# 3 -0.003543 -0.003543 0.012023 0.000000 0.000000 0.000000
# 4 0.000000 0.000000 0.000000 0.047367 0.000000 0.000000
# 5 0.000000 0.000000 0.000000 0.000000 0.047367 0.000000
# 6 0.001234 -0.001234 0.000000 0.000000 0.000000 0.019397
#
#
# Mechanical properties :
#
#
# Convention : Reuss Voigt Hill
#
# Bulk Modulus (GPa) = 90.24507 91.52785 90.88646
# Shear Modulus (GPa) = 31.38786 39.12399 35.25593
#
# Velocity S-wave (km/s) = 3.58616 4.00378 3.80071
# Velocity P-wave (km/s) = 7.35687 7.67303 7.51661
#
# Compressibility (1/GPa) = 0.01108094
#
# Stress axis : x y z
#
# Youngs Moduli (GPa) = 140.31811 140.31811 83.17100
#
# Poissons Ratio (x) = 0.07185 0.29467
# Poissons Ratio (y) = 0.07185 0.29467
# Poissons Ratio (z) = 0.49714 0.49714
#
# Static dielectric constant tensor:
#      x y z
#    x 1.861230 0.000000 0.000000 
#    y 0.000000 1.861230 0.000000 
#    z 0.000000 0.000000 2.244170 
# 
# From -- ./inp_files/3661.got.cif
#   From: 2010.05.17/outbox.cif.g08.bks.cpg/sg88_2_cif.got.tgz:3661.got - 2010.06.03 19:11:41.
