data_PCOD9546516
_publ_section_title
;
Structure prediction by ZEFSAII (Michael W. Deem and Ramdas Pophale) SiO2 
 PCOD9546516
Probable space group: I 41/A
;
_chemical_formula_sum "Si O2"
_cell_formula_units_Z 116
_cell_length_a 16.763929
_cell_length_b 16.763929
_cell_length_c 17.838400
_cell_angle_alpha 90.000000
_cell_angle_beta 90.000000
_cell_angle_gamma 90.000000
_cell_volume 5013.113342
_symmetry_space_group_name_H-M "I 41/A"
_symmetry_group_IT_number 88
_space_group.IT_coordinate_system_code '2'
_symmetry_cell_setting 'tetragonal'
loop_
_space_group_symop_operation_xyz
x,y,z
3/4-y,1/4+x,1/4+z
-x,1/2-y,z
1/4+y,1/4-x,1/4+z
-x,-y,-z
1/4+y,3/4-x,3/4-z
x,1/2+y,-z
3/4-y,3/4+x,3/4-z
1/2+x,1/2+y,1/2+z
1/4-y,3/4+x,3/4+z
1/2-x,-y,1/2+z
3/4+y,3/4-x,3/4+z
1/2-x,1/2-y,1/2-z
3/4+y,1/4-x,1/4-z
1/2+x,y,1/2-z
1/4-y,1/4+x,1/4-z
loop_
_atom_site_type_symbol
_atom_site_label
_atom_site_fract_x
_atom_site_fract_y
_atom_site_fract_z
Si Si1 0.567647 0.585216 0.188562
Si Si2 0.199168 0.712905 0.316413
Si Si3 0.045767 0.414544 0.138585
Si Si4 0.199402 0.459047 0.052553
Si Si5 0.110094 0.404061 0.298661
Si Si6 0.825037 0.110728 0.892320
Si Si7 0.500000 0.750000 0.625000
Si Si8 0.003192 0.094475 0.853533
O O1 0.523492 0.607494 0.111668
O O2 0.645192 0.637750 0.205114
O O3 0.589897 0.492993 0.172842
O O4 0.515777 0.594854 0.263882
O O5 0.250000 0.750000 0.250000
O O6 0.266445 0.681312 0.372215
O O7 0.135588 0.428019 0.112126
O O8 0.052253 0.393421 0.226879
O O9 0.003518 0.499497 0.126111
O O10 0.009209 0.340246 0.093410
O O11 0.169577 0.546949 0.029135
O O12 0.285766 0.450847 0.089973
O O13 0.191512 0.408630 0.977976
O O14 0.113345 0.328507 0.354918
O O15 0.917806 0.128282 0.877181
#
# Coordination Sequence:
#
# PCOD9546516 Si02
#       8
#    16  16  16  16  16  16   4  16
#     4  11  25  50  72 109 144 189 249 305 380 458
#     4  12  29  47  80 106 144 196 251 313 386 449
#     4  10  23  39  63 101 140 189 232 283 364 431
#     4  11  22  40  74 103 131 193 239 298 345 446
#     4  10  21  44  72 100 143 190 237 297 360 440
#     4  12  25  43  75 106 143 185 254 301 372 445
#     4  12  24  36  56  88 160 184 220 282 376 428
#     4  10  24  44  72 105 143 182 247 306 363 447
#
# _framework density 23.139313000000001
#
# number of rings (size 3 to 8) (size 9 to 14) (size 15 to 20)
#    0.000    1.103    2.759    2.483    5.793    2.483 
#    0.000    1.379    0.000    0.000    0.000    0.000 
#    0.000    0.000    0.000    0.000    0.000    0.000 
#
# Total GULP energy -324027.001059 kJ/mol
# GULP energy per Si atom -5586.672432 kJ/mol
# Density = 2.308665 g / cm^3
# Si number density = 23.139313 Si / 1000 Ang^3
#
#
#
# Elastic Constant Matrix: (Units=GPa)
#
#
# Indices 1 2 3 4 5 6 
#
# 1 26.9717 44.3755 -3.5738 0.0000 0.0000 34.8174
# 2 44.3755 26.9717 -3.5738 0.0000 0.0000 -34.8174
# 3 -3.5738 -3.5738 67.9588 0.0000 0.0000 0.0000
# 4 0.0000 0.0000 0.0000 115.8834 0.0000 0.0000
# 5 0.0000 0.0000 0.0000 0.0000 115.8835 0.0000
# 6 34.8174 -34.8174 0.0000 0.0000 0.0000 -20.4211
#
#
#
# Elastic Compliance Matrix: (Units=1/GPa)
#
#
# Indices 1 2 3 4 5 6 
#
# 1 0.011980 0.002110 0.000741 0.000000 0.000000 0.016827
# 2 0.002110 0.011980 0.000741 0.000000 0.000000 -0.016827
# 3 0.000741 0.000741 0.014793 0.000000 0.000000 0.000000
# 4 0.000000 0.000000 0.000000 0.008629 0.000000 0.000000
# 5 0.000000 0.000000 0.000000 0.000000 0.008629 0.000000
# 6 0.016827 -0.016827 0.000000 0.000000 0.000000 0.008411
#
#
# Mechanical properties :
#
#
# Convention : Reuss Voigt Hill
#
# Bulk Modulus (GPa) = 21.76897 21.81758 21.79327
# Shear Modulus (GPa) = 68.91766 47.91411 58.41589
#
# Velocity S-wave (km/s) = 5.46337 4.55541 5.02992
# Velocity P-wave (km/s) = 7.01613 6.09248 6.57056
#
# Compressibility (1/GPa) = 0.04593695
#
# Stress axis : x y z
#
# Youngs Moduli (GPa) = 83.47328 83.47327 67.60080
#
# Poissons Ratio (x) = -0.17615 -0.05009
# Poissons Ratio (y) = -0.17615 -0.05009
# Poissons Ratio (z) = -0.06185 -0.06185
#
# Static dielectric constant tensor:
#      x y z
#    x 1.826690 0.000000 0.000000 
#    y 0.000000 1.826690 0.000000 
#    z 0.000000 0.000000 1.951760 
# 
# From -- ./inp_files/4023.got.cif
#   From: 2010.05.17/outbox.cif.g08.bks.cpg/sg88_3_cif.got.tgz:4023.got - 2010.06.03 19:11:41.
