data_PCOD9546987
_publ_section_title
;
Structure prediction by ZEFSAII (Michael W. Deem and Ramdas Pophale) SiO2 
 PCOD9546987
Probable space group: P 4 2 2
;
_chemical_formula_sum "Si O2"
_cell_formula_units_Z 60
_cell_length_a 12.131503
_cell_length_b 12.131503
_cell_length_c 22.230403
_cell_angle_alpha 90.000000
_cell_angle_beta 90.000000
_cell_angle_gamma 90.000000
_cell_volume 3271.723216
_symmetry_space_group_name_H-M "P 4 2 2"
_symmetry_group_IT_number 89
_symmetry_cell_setting 'tetragonal'
loop_
_space_group_symop_operation_xyz
x,y,z
-y,x,z
-x,-y,z
y,-x,z
x,-y,-z
-x,y,-z
y,x,-z
-y,-x,-z
loop_
_atom_site_type_symbol
_atom_site_label
_atom_site_fract_x
_atom_site_fract_y
_atom_site_fract_z
Si Si1 0.940845 0.176512 0.660748
Si Si2 0.486658 0.313907 0.933964
Si Si3 0.578805 0.664768 0.377822
Si Si4 0.781328 0.420066 0.809652
Si Si5 0.987384 0.621527 0.259090
Si Si6 0.237512 0.640878 0.256549
Si Si7 0.500000 0.764464 0.500000
Si Si8 0.116405 0.716982 0.533382
O O1 0.928356 0.280739 0.704709
O O2 0.910885 0.227940 0.596716
O O3 0.067134 0.133731 0.667409
O O4 0.597048 0.387498 0.930171
O O5 0.461772 0.239059 0.876909
O O6 0.500000 0.260563 0.000000
O O7 0.450066 0.640918 0.366609
O O8 0.635163 0.744499 0.328960
O O9 0.570215 0.700393 0.448069
O O10 0.909905 0.403186 0.797168
O O11 0.738681 0.517495 0.766369
O O12 0.717966 0.313400 0.784474
O O13 0.000000 0.500000 0.290696
O O14 0.109439 0.661205 0.244508
O O15 0.593243 0.834862 0.534594
O O16 0.202448 0.797553 0.500000
O O17 0.000000 0.711823 0.500000
#
# Coordination Sequence:
#
# PCOD9546987 Si02
#       8
#     8   8   8   8   8   8   4   8
#     4  11  24  44  69  86 106 146 202 257 304 358
#     4   9  17  30  55  94 126 156 199 248 287 328
#     4  11  23  40  60  84 114 152 201 239 296 363
#     4  11  20  36  59  88 124 161 197 240 293 349
#     4  10  25  38  56  86 123 159 190 238 299 359
#     4  11  22  36  59  88 117 156 201 243 295 362
#     4  12  29  41  60  86 118 153 180 247 312 380
#     4  12  26  44  64  86 110 143 191 244 307 373
#
# _framework density 18.338958999999999
#
# number of rings (size 3 to 8) (size 9 to 14) (size 15 to 20)
#    0.000    1.200    4.000    2.600    5.600    3.067 
#    0.000    0.000    0.000    3.600    0.000    0.000 
#    0.000    0.000    0.000    0.000   11.200    0.000 
#
# Total GULP energy -334520.683939 kJ/mol
# GULP energy per Si atom -5575.344732 kJ/mol
# Density = 1.829722 g / cm^3
# Si number density = 18.338959 Si / 1000 Ang^3
#
#
#
# Elastic Constant Matrix: (Units=GPa)
#
#
# Indices 1 2 3 4 5 6 
#
# 1 81.0587 32.4834 38.6985 0.0000 0.0000 0.0000
# 2 32.4834 81.0585 38.6987 0.0000 0.0000 0.0000
# 3 38.6985 38.6987 129.7612 0.0000 0.0000 0.0000
# 4 0.0000 0.0000 0.0000 27.7587 0.0000 0.0000
# 5 0.0000 0.0000 0.0000 0.0000 27.7467 0.0000
# 6 0.0000 0.0000 0.0000 0.0000 0.0000 19.5968
#
#
#
# Elastic Compliance Matrix: (Units=1/GPa)
#
#
# Indices 1 2 3 4 5 6 
#
# 1 0.015821 -0.004766 -0.003297 0.000000 0.000000 0.000000
# 2 -0.004766 0.015821 -0.003297 0.000000 0.000000 0.000000
# 3 -0.003297 -0.003297 0.009673 0.000000 0.000000 0.000000
# 4 0.000000 0.000000 0.000000 0.036025 0.000000 0.000000
# 5 0.000000 0.000000 0.000000 0.000000 0.036040 0.000000
# 6 0.000000 0.000000 0.000000 0.000000 0.000000 0.051029
#
#
# Mechanical properties :
#
#
# Convention : Reuss Voigt Hill
#
# Bulk Modulus (GPa) = 53.77828 56.84885 55.31357
# Shear Modulus (GPa) = 25.86310 27.15361 26.50835
#
# Velocity S-wave (km/s) = 3.75945 3.85210 3.80605
# Velocity P-wave (km/s) = 6.94499 7.13100 7.03861
#
# Compressibility (1/GPa) = 0.01859487
#
# Stress axis : x y z
#
# Youngs Moduli (GPa) = 63.20867 63.20850 103.38190
#
# Poissons Ratio (x) = 0.30125 0.34083
# Poissons Ratio (y) = 0.30125 0.34083
# Poissons Ratio (z) = 0.20839 0.20839
#
# Static dielectric constant tensor:
#      x y z
#    x 1.652440 0.000000 0.000000 
#    y 0.000000 1.652450 0.000000 
#    z 0.000000 0.000000 1.663970 
# 
# From -- ./inp_files/2658.got.cif
#   From: 2010.05.17/outbox.cif.g08.bks.cpg/sg89_2_cif.got.tgz:2658.got - 2010.06.03 19:15:31.
