data_PCOD9546695
_publ_section_title
;
Structure prediction by ZEFSAII (Michael W. Deem and Ramdas Pophale) SiO2 
 PCOD9546695
Probable space group: I 41/A
;
_chemical_formula_sum "Si O2"
_cell_formula_units_Z 96
_cell_length_a 14.666085
_cell_length_b 14.666085
_cell_length_c 18.706315
_cell_angle_alpha 90.000000
_cell_angle_beta 90.000000
_cell_angle_gamma 90.000000
_cell_volume 4023.617039
_symmetry_space_group_name_H-M "I 41/A"
_symmetry_group_IT_number 88
_space_group.IT_coordinate_system_code '2'
_symmetry_cell_setting 'tetragonal'
loop_
_space_group_symop_operation_xyz
x,y,z
3/4-y,1/4+x,1/4+z
-x,1/2-y,z
1/4+y,1/4-x,1/4+z
-x,-y,-z
1/4+y,3/4-x,3/4-z
x,1/2+y,-z
3/4-y,3/4+x,3/4-z
1/2+x,1/2+y,1/2+z
1/4-y,3/4+x,3/4+z
1/2-x,-y,1/2+z
3/4+y,3/4-x,3/4+z
1/2-x,1/2-y,1/2-z
3/4+y,1/4-x,1/4-z
1/2+x,y,1/2-z
1/4-y,1/4+x,1/4-z
loop_
_atom_site_type_symbol
_atom_site_label
_atom_site_fract_x
_atom_site_fract_y
_atom_site_fract_z
Si Si1 0.070232 0.334563 0.038782
Si Si2 0.240671 0.119327 0.111638
Si Si3 0.946930 0.116340 0.617538
Si Si4 0.714179 0.034691 0.778310
Si Si5 0.413743 0.528266 0.254342
Si Si6 0.608019 0.741139 0.868011
O O1 0.071292 0.410848 0.101076
O O2 0.000000 0.250000 0.047921
O O3 0.177058 0.312136 0.030348
O O4 0.045396 0.377778 0.961595
O O5 0.338522 0.165103 0.123134
O O6 0.250201 0.026498 0.156271
O O7 0.231588 0.100722 0.027380
O O8 0.901147 0.204327 0.656361
O O9 0.878456 0.078431 0.557748
O O10 0.965528 0.045172 0.680517
O O11 0.808276 0.044774 0.735315
O O12 0.433243 0.598077 0.318340
O O13 0.500000 0.750000 0.875488
#
# Coordination Sequence:
#
# PCOD9546695 Si02
#       6
#    16  16  16  16  16  16
#     4  10  25  50  75 113 151 200 263 322 396 463
#     4  11  25  46  79 106 155 196 267 313 400 467
#     4  11  25  42  70 110 154 197 261 316 388 462
#     4  11  24  47  72 110 146 204 251 327 384 473
#     4  11  24  46  75 110 151 205 254 318 391 467
#     4  11  26  46  74 108 153 198 255 322 386 467
#
# _framework density 23.859128999999999
#
# number of rings (size 3 to 8) (size 9 to 14) (size 15 to 20)
#    0.000    1.167    1.667    2.500   11.667    7.333 
#    6.000    0.833    0.000    0.000    0.000    0.000 
#    0.000    0.000    0.000    0.000    0.000    0.000 
#
# Total GULP energy -268350.751992 kJ/mol
# GULP energy per Si atom -5590.640667 kJ/mol
# Density = 2.380482 g / cm^3
# Si number density = 23.859129 Si / 1000 Ang^3
#
#
#
# Elastic Constant Matrix: (Units=GPa)
#
#
# Indices 1 2 3 4 5 6 
#
# 1 82.6360 27.3373 15.3929 0.0000 0.0000 -1.0782
# 2 27.3373 82.6360 15.3929 0.0000 0.0000 1.0782
# 3 15.3929 15.3929 126.0178 0.0000 0.0000 0.0000
# 4 0.0000 0.0000 0.0000 18.5905 0.0000 0.0000
# 5 0.0000 0.0000 0.0000 0.0000 18.5906 0.0000
# 6 -1.0782 1.0782 0.0000 0.0000 0.0000 37.7332
#
#
#
# Elastic Compliance Matrix: (Units=1/GPa)
#
#
# Indices 1 2 3 4 5 6 
#
# 1 0.013759 -0.004344 -0.001150 0.000000 0.000000 0.000517
# 2 -0.004344 0.013759 -0.001150 0.000000 0.000000 -0.000517
# 3 -0.001150 -0.001150 0.008216 0.000000 0.000000 0.000000
# 4 0.000000 0.000000 0.000000 0.053791 0.000000 0.000000
# 5 0.000000 0.000000 0.000000 0.000000 0.053791 0.000000
# 6 0.000517 -0.000517 0.000000 0.000000 0.000000 0.026531
#
#
# Mechanical properties :
#
#
# Convention : Reuss Voigt Hill
#
# Bulk Modulus (GPa) = 44.55075 45.28177 44.91626
# Shear Modulus (GPa) = 26.23031 30.52730 28.37881
#
# Velocity S-wave (km/s) = 3.31929 3.58086 3.45256
# Velocity P-wave (km/s) = 5.77955 6.00972 5.89576
#
# Compressibility (1/GPa) = 0.02244631
#
# Stress axis : x y z
#
# Youngs Moduli (GPa) = 72.67743 72.67743 121.70877
#
# Poissons Ratio (x) = 0.31574 0.13997
# Poissons Ratio (y) = 0.31574 0.13997
# Poissons Ratio (z) = 0.08358 0.08358
#
# Static dielectric constant tensor:
#      x y z
#    x 1.931360 0.000000 0.000000 
#    y 0.000000 1.931360 0.000000 
#    z 0.000000 0.000000 1.976360 
# 
# From -- ./inp_files/4714.got.cif
#   From: 2010.05.17/outbox.cif.g08.bks.cpg/sg88_3_cif.got.tgz:4714.got - 2010.06.03 19:11:41.
