data_PCOD9546022
_publ_section_title
;
Structure prediction by ZEFSAII (Michael W. Deem and Ramdas Pophale) SiO2 
 PCOD9546022
Probable space group: I 4/M
;
_chemical_formula_sum "Si O2"
_cell_formula_units_Z 80
_cell_length_a 15.238491
_cell_length_b 15.238491
_cell_length_c 18.623217
_cell_angle_alpha 90.000000
_cell_angle_beta 90.000000
_cell_angle_gamma 90.000000
_cell_volume 4324.527165
_symmetry_space_group_name_H-M "I 4/M"
_symmetry_group_IT_number 87
_symmetry_cell_setting 'tetragonal'
loop_
_space_group_symop_operation_xyz
x,y,z
-y,x,z
-x,-y,z
y,-x,z
-x,-y,-z
y,-x,-z
x,y,-z
-y,x,-z
1/2+x,1/2+y,1/2+z
1/2-y,1/2+x,1/2+z
1/2-x,1/2-y,1/2+z
1/2+y,1/2-x,1/2+z
1/2-x,1/2-y,1/2-z
1/2+y,1/2-x,1/2-z
1/2+x,1/2+y,1/2-z
1/2-y,1/2+x,1/2-z
loop_
_atom_site_type_symbol
_atom_site_label
_atom_site_fract_x
_atom_site_fract_y
_atom_site_fract_z
Si Si1 0.825539 0.549673 0.673795
Si Si2 0.128463 0.344528 0.915280
Si Si3 0.305571 0.297999 0.313797
Si Si4 0.517477 0.816108 0.838421
Si Si5 0.055116 0.137302 0.709798
O O1 0.833420 0.465414 0.623646
O O2 0.742020 0.612630 0.664033
O O3 0.824259 0.523023 0.757918
O O4 0.909284 0.610034 0.657719
O O5 0.187226 0.269542 0.878561
O O6 0.167276 0.438828 0.893019
O O7 0.121705 0.335433 0.000000
O O8 0.250000 0.250000 0.250000
O O9 0.401778 0.321671 0.281998
O O10 0.561021 0.719616 0.844215
O O11 0.953219 0.109200 0.703838
#
# Coordination Sequence:
#
# PCOD9546022 Si02
#       5
#    16  16  16  16  16
#     4  12  22  37  68  95 124 169 220 266 317 404
#     4  12  27  42  61  97 138 168 211 281 343 384
#     4  12  19  40  67  97 125 168 223 265 319 397
#     4  12  21  37  65  93 123 168 220 268 313 391
#     4  11  20  33  61 100 128 160 216 272 310 375
#
# _framework density 18.499133
#
# number of rings (size 3 to 8) (size 9 to 14) (size 15 to 20)
#    0.000    0.200   10.000    0.600    0.000    2.400 
#    0.000    0.000    0.000    0.000    0.000    9.800 
#    0.000    0.000    0.000    0.000    0.000    0.000 
#
# Total GULP energy -223243.435109 kJ/mol
# GULP energy per Si atom -5581.085878 kJ/mol
# Density = 1.845703 g / cm^3
# Si number density = 18.499133 Si / 1000 Ang^3
#
#
#
# Elastic Constant Matrix: (Units=GPa)
#
#
# Indices 1 2 3 4 5 6 
#
# 1 99.1494 21.6174 31.4443 0.0000 0.0000 9.6382
# 2 21.6174 99.1494 31.4443 0.0000 0.0000 -9.6382
# 3 31.4443 31.4443 85.9818 0.0000 0.0000 0.0000
# 4 0.0000 0.0000 0.0000 19.7336 0.0000 0.0000
# 5 0.0000 0.0000 0.0000 0.0000 19.7336 0.0000
# 6 9.6382 -9.6382 0.0000 0.0000 0.0000 47.0111
#
#
#
# Elastic Compliance Matrix: (Units=1/GPa)
#
#
# Indices 1 2 3 4 5 6 
#
# 1 0.011909 -0.001681 -0.003741 0.000000 0.000000 -0.002786
# 2 -0.001681 0.011909 -0.003741 0.000000 0.000000 0.002786
# 3 -0.003741 -0.003741 0.014366 0.000000 0.000000 0.000000
# 4 0.000000 0.000000 0.000000 0.050675 0.000000 0.000000
# 5 0.000000 0.000000 0.000000 0.000000 0.050675 0.000000
# 6 -0.002786 0.002786 0.000000 0.000000 0.000000 0.022414
#
#
# Mechanical properties :
#
#
# Convention : Reuss Voigt Hill
#
# Bulk Modulus (GPa) = 50.35099 50.36585 50.35842
# Shear Modulus (GPa) = 26.75313 30.61398 28.68355
#
# Velocity S-wave (km/s) = 3.80700 4.07244 3.94196
# Velocity P-wave (km/s) = 6.82652 7.02839 6.92819
#
# Compressibility (1/GPa) = 0.01986058
#
# Stress axis : x y z
#
# Youngs Moduli (GPa) = 83.96677 83.96677 69.60743
#
# Poissons Ratio (x) = 0.14116 0.26037
# Poissons Ratio (y) = 0.14116 0.26037
# Poissons Ratio (z) = 0.31408 0.31408
#
# Static dielectric constant tensor:
#      x y z
#    x 1.675480 0.000000 0.000000 
#    y 0.000000 1.675480 0.000000 
#    z 0.000000 0.000000 1.587780 
# 
# From -- ./inp_files/5079.got.cif
#   From: 2010.05.17/outbox.cif.g08.bks.cpg/sg87_3_cif.got.tgz:5079.got - 2010.06.03 19:07:00.
