data_PCOD9546216
_publ_section_title
;
Structure prediction by ZEFSAII (Michael W. Deem and Ramdas Pophale) SiO2 
 PCOD9546216
Probable space group: I 41/A
;
_chemical_formula_sum "Si O2"
_cell_formula_units_Z 112
_cell_length_a 22.506683
_cell_length_b 22.506683
_cell_length_c 7.877283
_cell_angle_alpha 90.000000
_cell_angle_beta 90.000000
_cell_angle_gamma 90.000000
_cell_volume 3990.243845
_symmetry_space_group_name_H-M "I 41/A"
_symmetry_group_IT_number 88
_space_group.IT_coordinate_system_code '2'
_symmetry_cell_setting 'tetragonal'
loop_
_space_group_symop_operation_xyz
x,y,z
3/4-y,1/4+x,1/4+z
-x,1/2-y,z
1/4+y,1/4-x,1/4+z
-x,-y,-z
1/4+y,3/4-x,3/4-z
x,1/2+y,-z
3/4-y,3/4+x,3/4-z
1/2+x,1/2+y,1/2+z
1/4-y,3/4+x,3/4+z
1/2-x,-y,1/2+z
3/4+y,3/4-x,3/4+z
1/2-x,1/2-y,1/2-z
3/4+y,1/4-x,1/4-z
1/2+x,y,1/2-z
1/4-y,1/4+x,1/4-z
loop_
_atom_site_type_symbol
_atom_site_label
_atom_site_fract_x
_atom_site_fract_y
_atom_site_fract_z
Si Si1 0.817692 0.086618 0.207054
Si Si2 0.599551 0.165496 0.241012
Si Si3 0.281587 0.330556 0.151886
Si Si4 0.214543 0.939390 0.335915
Si Si5 0.091359 0.607365 0.292552
Si Si6 0.759646 0.274040 0.975631
Si Si7 0.391903 0.281020 0.610533
O O1 0.859761 0.110796 0.057586
O O2 0.750588 0.105611 0.164628
O O3 0.825564 0.019201 0.277003
O O4 0.838610 0.128569 0.362359
O O5 0.651025 0.194079 0.127543
O O6 0.588610 0.200361 0.417847
O O7 0.539473 0.153809 0.139757
O O8 0.243875 0.295824 0.009212
O O9 0.268217 0.302359 0.337900
O O10 0.191963 0.999996 0.414470
O O11 0.158979 0.895449 0.332515
O O12 0.046383 0.554144 0.338136
O O13 0.077544 0.675832 0.249086
O O14 0.820245 0.290646 0.879640
#
# Coordination Sequence:
#
# PCOD9546216 Si02
#       7
#    16  16  16  16  16  16  16
#     4   9  15  28  43  65  87 118 159 206 246 292
#     4  10  18  26  37  59  85 124 163 201 245 293
#     4   9  16  24  41  56  82 118 157 200 239 295
#     4  10  18  30  49  76 101 126 164 217 259 306
#     4   9  17  27  43  62  88 124 162 199 246 301
#     4   9  15  27  39  54  81 122 161 196 242 298
#     4  10  19  28  39  57  89 124 166 205 245 304
#
# _framework density 28.068460999999999
#
# number of rings (size 3 to 8) (size 9 to 14) (size 15 to 20)
#    0.000    2.571    1.429    5.143    6.000    0.286 
#    0.000    0.000    0.000    0.000    0.000    4.000 
#    0.000    0.000    0.000    0.000    0.000    1.286 
#
# Total GULP energy -312905.512503 kJ/mol
# GULP energy per Si atom -5587.598438 kJ/mol
# Density = 2.800458 g / cm^3
# Si number density = 28.068461 Si / 1000 Ang^3
#
#
#
# Elastic Constant Matrix: (Units=GPa)
#
#
# Indices 1 2 3 4 5 6 
#
# 1 134.3168 1.0292 18.8349 0.0000 0.0000 13.3293
# 2 1.0292 134.3168 18.8349 0.0000 0.0000 -13.3293
# 3 18.8349 18.8349 94.7147 0.0000 0.0000 0.0000
# 4 0.0000 0.0000 0.0000 21.5873 0.0000 0.0000
# 5 0.0000 0.0000 0.0000 0.0000 21.5873 0.0000
# 6 13.3293 -13.3293 0.0000 0.0000 0.0000 21.8284
#
#
#
# Elastic Compliance Matrix: (Units=1/GPa)
#
#
# Indices 1 2 3 4 5 6 
#
# 1 0.008184 -0.000363 -0.001555 0.000000 0.000000 -0.005219
# 2 -0.000363 0.008184 -0.001555 0.000000 0.000000 0.005219
# 3 -0.001555 -0.001555 0.011177 0.000000 0.000000 0.000000
# 4 0.000000 0.000000 0.000000 0.046324 0.000000 0.000000
# 5 0.000000 0.000000 0.000000 0.000000 0.046324 0.000000
# 6 -0.005219 0.005219 0.000000 0.000000 0.000000 0.052186
#
#
# Mechanical properties :
#
#
# Convention : Reuss Voigt Hill
#
# Bulk Modulus (GPa) = 48.54857 48.97183 48.76020
# Shear Modulus (GPa) = 26.85438 34.64387 30.74912
#
# Velocity S-wave (km/s) = 3.09649 3.51702 3.31343
# Velocity P-wave (km/s) = 5.48802 5.82904 5.66110
#
# Compressibility (1/GPa) = 0.02059793
#
# Stress axis : x y z
#
# Youngs Moduli (GPa) = 122.19164 122.19164 89.47252
#
# Poissons Ratio (x) = 0.04430 0.13916
# Poissons Ratio (y) = 0.04430 0.13916
# Poissons Ratio (z) = 0.19005 0.19005
#
# Static dielectric constant tensor:
#      x y z
#    x 2.275630 0.000000 0.000000 
#    y 0.000000 2.275630 0.000000 
#    z 0.000000 0.000000 2.258640 
# 
# From -- ./inp_files/2719.got.cif
#   From: 2010.05.17/outbox.cif.g08.bks.cpg/sg88_2_cif.got.tgz:2719.got - 2010.06.03 19:11:41.
