data_PCOD9546029
_publ_section_title
;
Structure prediction by ZEFSAII (Michael W. Deem and Ramdas Pophale) SiO2 
 PCOD9546029
Probable space group: I 4/M
;
_chemical_formula_sum "Si O2"
_cell_formula_units_Z 64
_cell_length_a 15.141804
_cell_length_b 15.141804
_cell_length_c 14.383916
_cell_angle_alpha 90.000000
_cell_angle_beta 90.000000
_cell_angle_gamma 90.000000
_cell_volume 3297.861242
_symmetry_space_group_name_H-M "I 4/M"
_symmetry_group_IT_number 87
_symmetry_cell_setting 'tetragonal'
loop_
_space_group_symop_operation_xyz
x,y,z
-y,x,z
-x,-y,z
y,-x,z
-x,-y,-z
y,-x,-z
x,y,-z
-y,x,-z
1/2+x,1/2+y,1/2+z
1/2-y,1/2+x,1/2+z
1/2-x,1/2-y,1/2+z
1/2+y,1/2-x,1/2+z
1/2-x,1/2-y,1/2-z
1/2+y,1/2-x,1/2-z
1/2+x,1/2+y,1/2-z
1/2-y,1/2+x,1/2-z
loop_
_atom_site_type_symbol
_atom_site_label
_atom_site_fract_x
_atom_site_fract_y
_atom_site_fract_z
Si Si1 0.628399 0.423287 0.604301
Si Si2 0.262595 0.424331 0.109768
Si Si3 0.596535 0.102200 0.765050
Si Si4 0.387986 0.283101 0.797193
O O1 0.616342 0.529419 0.611968
O O2 0.661803 0.403291 0.500000
O O3 0.686479 0.390473 0.689745
O O4 0.162703 0.409707 0.144552
O O5 0.294712 0.514696 0.158922
O O6 0.320290 0.343327 0.147326
O O7 0.269040 0.432707 0.000000
O O8 0.501513 0.110775 0.715587
O O9 0.679037 0.133309 0.703444
#
# Coordination Sequence:
#
# PCOD9546029 Si02
#       4
#    16  16  16  16
#     4   9  17  31  53  85 122 160 197 235 286 354
#     4  11  23  38  59  90 125 159 200 240 299 374
#     4   9  21  42  63  80 107 155 212 260 301 336
#     4  11  20  37  61  89 126 162 189 244 304 366
#
# _framework density 19.406517999999998
#
# number of rings (size 3 to 8) (size 9 to 14) (size 15 to 20)
#    0.000    2.000    2.500    2.250    0.000    1.500 
#    0.000   12.500    0.000    7.500    0.000    0.000 
#    0.000    0.000    0.000    0.000    0.000    0.000 
#
# Total GULP energy -178658.079563 kJ/mol
# GULP energy per Si atom -5583.064986 kJ/mol
# Density = 1.936235 g / cm^3
# Si number density = 19.406518 Si / 1000 Ang^3
#
#
#
# Elastic Constant Matrix: (Units=GPa)
#
#
# Indices 1 2 3 4 5 6 
#
# 1 62.9396 26.6790 38.7763 0.0000 0.0000 5.0703
# 2 26.6790 62.9396 38.7763 0.0000 0.0000 -5.0703
# 3 38.7763 38.7763 128.0610 0.0000 0.0000 0.0000
# 4 0.0000 0.0000 0.0000 14.0542 0.0000 0.0000
# 5 0.0000 0.0000 0.0000 0.0000 14.0542 0.0000
# 6 5.0703 -5.0703 0.0000 0.0000 0.0000 20.7499
#
#
#
# Elastic Compliance Matrix: (Units=1/GPa)
#
#
# Indices 1 2 3 4 5 6 
#
# 1 0.022361 -0.007240 -0.004578 0.000000 0.000000 -0.007233
# 2 -0.007240 0.022361 -0.004578 0.000000 0.000000 0.007233
# 3 -0.004578 -0.004578 0.010581 0.000000 0.000000 0.000000
# 4 0.000000 0.000000 0.000000 0.071153 0.000000 0.000000
# 5 0.000000 0.000000 0.000000 0.000000 0.071153 0.000000
# 6 -0.007233 0.007233 0.000000 0.000000 0.000000 0.051728
#
#
# Mechanical properties :
#
#
# Convention : Reuss Voigt Hill
#
# Bulk Modulus (GPa) = 44.42746 51.37815 47.90281
# Shear Modulus (GPa) = 17.26321 19.75226 18.50774
#
# Velocity S-wave (km/s) = 2.98578 3.19378 3.09153
# Velocity P-wave (km/s) = 5.90163 6.33502 6.12216
#
# Compressibility (1/GPa) = 0.02250860
#
# Stress axis : x y z
#
# Youngs Moduli (GPa) = 44.72146 44.72146 94.50553
#
# Poissons Ratio (x) = 0.32380 0.43268
# Poissons Ratio (y) = 0.32380 0.43268
# Poissons Ratio (z) = 0.20475 0.20475
#
# Static dielectric constant tensor:
#      x y z
#    x 1.697690 0.000000 0.000000 
#    y 0.000000 1.697690 0.000000 
#    z 0.000000 0.000000 1.628860 
# 
# From -- ./inp_files/3331.got.cif
#   From: 2010.05.17/outbox.cif.g08.bks.cpg/sg87_2_cif.got.tgz:3331.got - 2010.06.03 19:07:00.
