data_PCOD9546609
_publ_section_title
;
Structure prediction by ZEFSAII (Michael W. Deem and Ramdas Pophale) SiO2 
 PCOD9546609
Probable space group: I 41/A
;
_chemical_formula_sum "Si O2"
_cell_formula_units_Z 96
_cell_length_a 19.748495
_cell_length_b 19.748495
_cell_length_c 11.754342
_cell_angle_alpha 90.000000
_cell_angle_beta 90.000000
_cell_angle_gamma 90.000000
_cell_volume 4584.229287
_symmetry_space_group_name_H-M "I 41/A"
_symmetry_group_IT_number 88
_space_group.IT_coordinate_system_code '2'
_symmetry_cell_setting 'tetragonal'
loop_
_space_group_symop_operation_xyz
x,y,z
3/4-y,1/4+x,1/4+z
-x,1/2-y,z
1/4+y,1/4-x,1/4+z
-x,-y,-z
1/4+y,3/4-x,3/4-z
x,1/2+y,-z
3/4-y,3/4+x,3/4-z
1/2+x,1/2+y,1/2+z
1/4-y,3/4+x,3/4+z
1/2-x,-y,1/2+z
3/4+y,3/4-x,3/4+z
1/2-x,1/2-y,1/2-z
3/4+y,1/4-x,1/4-z
1/2+x,y,1/2-z
1/4-y,1/4+x,1/4-z
loop_
_atom_site_type_symbol
_atom_site_label
_atom_site_fract_x
_atom_site_fract_y
_atom_site_fract_z
Si Si1 0.539192 0.870306 0.493487
Si Si2 0.925900 0.551848 0.206995
Si Si3 0.923546 0.723773 0.532747
Si Si4 0.844920 0.239600 0.006963
Si Si5 0.145083 0.392726 0.596199
Si Si6 0.067448 0.477651 0.427890
O O1 0.570515 0.934908 0.427479
O O2 0.474857 0.843660 0.419423
O O3 0.522511 0.887317 0.622068
O O4 0.595043 0.812056 0.480372
O O5 0.861282 0.574616 0.278396
O O6 0.975968 0.611756 0.250488
O O7 0.950011 0.476726 0.233090
O O8 0.910609 0.660261 0.452609
O O9 0.000000 0.750000 0.518754
O O10 0.831344 0.291681 0.905496
O O11 0.127597 0.453511 0.510516
O O12 0.213471 0.349335 0.599879
O O13 0.000000 0.500000 0.500000
#
# Coordination Sequence:
#
# PCOD9546609 Si02
#       6
#    16  16  16  16  16  16
#     4  10  26  40  69  96 141 183 233 284 363 419
#     4  10  24  41  67 100 137 176 231 289 354 415
#     4  10  23  38  65 109 132 172 235 292 357 411
#     4  12  23  46  69 102 141 190 229 295 355 432
#     4  12  24  43  73  99 143 187 235 298 361 418
#     4  12  25  47  72 103 144 185 242 300 360 424
#
# _framework density 20.941362000000002
#
# number of rings (size 3 to 8) (size 9 to 14) (size 15 to 20)
#    1.000    0.000    3.333    2.500    9.333    0.000 
#    0.000    1.667    0.000    0.000    0.000    0.000 
#    0.000    0.000    0.000    0.000    0.000    0.000 
#
# Total GULP energy -267282.079067 kJ/mol
# GULP energy per Si atom -5568.376647 kJ/mol
# Density = 2.089370 g / cm^3
# Si number density = 20.941362 Si / 1000 Ang^3
#
#
#
# Elastic Constant Matrix: (Units=GPa)
#
#
# Indices 1 2 3 4 5 6 
#
# 1 70.2549 37.4639 28.7190 0.0000 0.0000 6.2290
# 2 37.4639 70.2549 28.7190 0.0000 0.0000 -6.2290
# 3 28.7190 28.7190 87.5273 0.0000 0.0000 0.0000
# 4 0.0000 0.0000 0.0000 25.8182 0.0000 0.0000
# 5 0.0000 0.0000 0.0000 0.0000 25.8182 0.0000
# 6 6.2290 -6.2290 0.0000 0.0000 0.0000 25.0628
#
#
#
# Elastic Compliance Matrix: (Units=1/GPa)
#
#
# Indices 1 2 3 4 5 6 
#
# 1 0.022464 -0.011212 -0.003692 0.000000 0.000000 -0.008370
# 2 -0.011212 0.022464 -0.003692 0.000000 0.000000 0.008370
# 3 -0.003692 -0.003692 0.013848 0.000000 0.000000 0.000000
# 4 0.000000 0.000000 0.000000 0.038732 0.000000 0.000000
# 5 0.000000 0.000000 0.000000 0.000000 0.038732 0.000000
# 6 -0.008370 0.008370 0.000000 0.000000 0.000000 0.044060
#
#
# Mechanical properties :
#
#
# Convention : Reuss Voigt Hill
#
# Bulk Modulus (GPa) = 46.33051 46.42676 46.37863
# Shear Modulus (GPa) = 22.25317 24.21552 23.23435
#
# Velocity S-wave (km/s) = 3.26336 3.40420 3.33452
# Velocity P-wave (km/s) = 6.03086 6.13755 6.08444
#
# Compressibility (1/GPa) = 0.02158405
#
# Stress axis : x y z
#
# Youngs Moduli (GPa) = 44.51565 44.51565 72.21371
#
# Poissons Ratio (x) = 0.49911 0.26661
# Poissons Ratio (y) = 0.49911 0.26661
# Poissons Ratio (z) = 0.16435 0.16435
#
# Static dielectric constant tensor:
#      x y z
#    x 1.786220 0.000000 0.000000 
#    y 0.000000 1.786220 0.000000 
#    z 0.000000 0.000000 1.811710 
# 
# From -- ./inp_files/2598.got.cif
#   From: 2010.05.17/outbox.cif.g08.bks.cpg/sg88_2_cif.got.tgz:2598.got - 2010.06.03 19:11:41.
