data_PCOD9546449
_publ_section_title
;
Structure prediction by ZEFSAII (Michael W. Deem and Ramdas Pophale) SiO2 
 PCOD9546449
Probable space group: I 41/A
;
_chemical_formula_sum "Si O2"
_cell_formula_units_Z 96
_cell_length_a 21.885971
_cell_length_b 21.885971
_cell_length_c 9.819459
_cell_angle_alpha 90.000000
_cell_angle_beta 90.000000
_cell_angle_gamma 90.000000
_cell_volume 4703.478899
_symmetry_space_group_name_H-M "I 41/A"
_symmetry_group_IT_number 88
_space_group.IT_coordinate_system_code '2'
_symmetry_cell_setting 'tetragonal'
loop_
_space_group_symop_operation_xyz
x,y,z
3/4-y,1/4+x,1/4+z
-x,1/2-y,z
1/4+y,1/4-x,1/4+z
-x,-y,-z
1/4+y,3/4-x,3/4-z
x,1/2+y,-z
3/4-y,3/4+x,3/4-z
1/2+x,1/2+y,1/2+z
1/4-y,3/4+x,3/4+z
1/2-x,-y,1/2+z
3/4+y,3/4-x,3/4+z
1/2-x,1/2-y,1/2-z
3/4+y,1/4-x,1/4-z
1/2+x,y,1/2-z
1/4-y,1/4+x,1/4-z
loop_
_atom_site_type_symbol
_atom_site_label
_atom_site_fract_x
_atom_site_fract_y
_atom_site_fract_z
Si Si1 0.325407 0.874340 0.424743
Si Si2 0.283035 0.169211 0.725439
Si Si3 0.416427 0.646013 0.246164
Si Si4 0.730266 0.708095 0.937563
Si Si5 0.243002 0.845939 0.647448
Si Si6 0.979132 0.629019 0.535062
O O1 0.315777 0.735222 0.240929
O O2 0.297978 0.882160 0.575008
O O3 0.364994 0.931776 0.377340
O O4 0.366840 0.813848 0.411822
O O5 0.344859 0.128956 0.737431
O O6 0.257893 0.177504 0.572972
O O7 0.231215 0.141360 0.822569
O O8 0.455090 0.592976 0.311618
O O9 0.422670 0.713421 0.307916
O O10 0.436761 0.649545 0.089200
O O11 0.751766 0.671298 0.805212
O O12 0.745260 0.779699 0.926142
#
# Coordination Sequence:
#
# PCOD9546449 Si02
#       6
#    16  16  16  16  16  16
#     4  12  22  43  62  97 124 168 213 269 318 375
#     4  10  22  39  67  89 132 166 207 257 323 383
#     4  10  22  36  66  96 126 167 206 266 324 381
#     4  11  23  47  64  89 129 178 213 257 329 393
#     4  11  27  42  66  90 131 170 219 261 319 390
#     4  10  21  37  65  98 132 156 213 262 327 383
#
# _framework density 20.410423000000002
#
# number of rings (size 3 to 8) (size 9 to 14) (size 15 to 20)
#    1.000    0.333    3.333    2.500    4.667    0.333 
#    3.000    0.000    0.000    0.000    0.000    0.000 
#    0.000    0.000    0.000    0.000    0.000    0.000 
#
# Total GULP energy -267563.320718 kJ/mol
# GULP energy per Si atom -5574.235848 kJ/mol
# Density = 2.036397 g / cm^3
# Si number density = 20.410423 Si / 1000 Ang^3
#
#
#
# Elastic Constant Matrix: (Units=GPa)
#
#
# Indices 1 2 3 4 5 6 
#
# 1 35.4381 24.4698 19.7851 0.0000 0.0000 0.8262
# 2 24.4698 35.4381 19.7851 0.0000 0.0000 -0.8262
# 3 19.7851 19.7851 81.3951 0.0000 0.0000 0.0000
# 4 0.0000 0.0000 0.0000 14.8165 0.0000 0.0000
# 5 0.0000 0.0000 0.0000 0.0000 14.8165 0.0000
# 6 0.8262 -0.8262 0.0000 0.0000 0.0000 39.3516
#
#
#
# Elastic Compliance Matrix: (Units=1/GPa)
#
#
# Indices 1 2 3 4 5 6 
#
# 1 0.055673 -0.035788 -0.004834 0.000000 0.000000 -0.001920
# 2 -0.035788 0.055673 -0.004834 0.000000 0.000000 0.001920
# 3 -0.004834 -0.004834 0.014636 0.000000 0.000000 0.000000
# 4 0.000000 0.000000 0.000000 0.067492 0.000000 0.000000
# 5 0.000000 0.000000 0.000000 0.000000 0.067492 0.000000
# 6 -0.001920 0.001920 0.000000 0.000000 0.000000 0.025493
#
#
# Mechanical properties :
#
#
# Convention : Reuss Voigt Hill
#
# Bulk Modulus (GPa) = 28.51332 31.15012 29.83172
# Shear Modulus (GPa) = 12.85151 19.67901 16.26526
#
# Velocity S-wave (km/s) = 2.51201 3.10847 2.82602
# Velocity P-wave (km/s) = 4.73433 5.30834 5.02953
#
# Compressibility (1/GPa) = 0.03507133
#
# Stress axis : x y z
#
# Youngs Moduli (GPa) = 17.96203 17.96203 68.32672
#
# Poissons Ratio (x) = 0.64283 0.33026
# Poissons Ratio (y) = 0.64283 0.33026
# Poissons Ratio (z) = 0.08682 0.08682
#
# Static dielectric constant tensor:
#      x y z
#    x 1.779960 0.000000 0.000000 
#    y 0.000000 1.779960 0.000000 
#    z 0.000000 0.000000 1.735220 
# 
# From -- ./inp_files/2627.got.cif
#   From: 2010.05.17/outbox.cif.g08.bks.cpg/sg88_2_cif.got.tgz:2627.got - 2010.06.03 19:11:41.
