data_PCOD9546968
_publ_section_title
;
Structure prediction by ZEFSAII (Michael W. Deem and Ramdas Pophale) SiO2 
 PCOD9546968
Probable space group: P 4 2 2
;
_chemical_formula_sum "Si O2"
_cell_formula_units_Z 40
_cell_length_a 8.636735
_cell_length_b 8.636735
_cell_length_c 26.687360
_cell_angle_alpha 90.000000
_cell_angle_beta 90.000000
_cell_angle_gamma 90.000000
_cell_volume 1990.695354
_symmetry_space_group_name_H-M "P 4 2 2"
_symmetry_group_IT_number 89
_symmetry_cell_setting 'tetragonal'
loop_
_space_group_symop_operation_xyz
x,y,z
-y,x,z
-x,-y,z
y,-x,z
x,-y,-z
-x,y,-z
y,x,-z
-y,-x,-z
loop_
_atom_site_type_symbol
_atom_site_label
_atom_site_fract_x
_atom_site_fract_y
_atom_site_fract_z
Si Si1 0.920332 0.250211 0.160357
Si Si2 0.000000 0.740945 0.000000
Si Si3 0.794422 0.851766 0.441142
Si Si4 0.000000 0.500000 0.912086
Si Si5 0.589677 0.739789 0.358114
Si Si6 0.922368 0.246599 0.276356
O O1 0.891763 0.399744 0.125675
O O2 0.905547 0.296681 0.218571
O O3 0.097986 0.187478 0.151984
O O4 0.853117 0.853117 0.000000
O O5 0.036205 0.635009 0.951907
O O6 0.807550 0.807550 0.500000
O O7 0.643869 0.787725 0.413716
O O8 0.966262 0.794641 0.426141
O O9 0.414380 0.691422 0.350560
O O10 0.634862 0.868270 0.317925
O O11 0.095832 0.186065 0.282839
#
# Coordination Sequence:
#
# PCOD9546968 Si02
#       6
#     8   4   8   4   8   8
#     4   9  19  36  58  85 114 145 187 236 283 337
#     4  10  22  40  60  84 118 158 200 242 282 338
#     4   9  19  37  60  83 105 134 181 238 288 340
#     4  11  20  32  62  92 112 146 194 241 290 338
#     4  11  24  37  50  76 115 152 184 225 283 348
#     4   9  19  36  58  82 107 140 186 235 279 332
#
# _framework density 20.093478999999999
#
# number of rings (size 3 to 8) (size 9 to 14) (size 15 to 20)
#    0.000    2.300    0.000    4.200    0.000   10.400 
#    0.000    3.000    0.000   24.600    0.000    0.000 
#    0.000    0.000    0.000    0.000    0.000    0.000 
#
# Total GULP energy -222691.136357 kJ/mol
# GULP energy per Si atom -5567.278409 kJ/mol
# Density = 2.004775 g / cm^3
# Si number density = 20.093479 Si / 1000 Ang^3
#
#
#
# Elastic Constant Matrix: (Units=GPa)
#
#
# Indices 1 2 3 4 5 6 
#
# 1 42.4468 38.0314 26.7411 0.0000 0.0000 0.0000
# 2 38.0314 42.4468 26.7411 0.0000 0.0000 0.0000
# 3 26.7411 26.7411 61.1973 0.0000 0.0000 0.0000
# 4 0.0000 0.0000 0.0000 -249.6296 0.0000 0.0000
# 5 0.0000 0.0000 0.0000 0.0000 -249.6296 0.0000
# 6 0.0000 0.0000 0.0000 0.0000 0.0000 20.4077
#
#
#
# Elastic Compliance Matrix: (Units=1/GPa)
#
#
# Indices 1 2 3 4 5 6 
#
# 1 0.121994 -0.104484 -0.007652 0.000000 0.000000 0.000000
# 2 -0.104484 0.121994 -0.007652 0.000000 0.000000 0.000000
# 3 -0.007652 -0.007652 0.023028 0.000000 0.000000 0.000000
# 4 0.000000 0.000000 0.000000 -0.004006 0.000000 0.000000
# 5 0.000000 0.000000 0.000000 0.000000 -0.004006 0.000000
# 6 0.000000 0.000000 0.000000 0.000000 0.000000 0.049001
#
#
# Mechanical properties :
#
#
# Convention : Reuss Voigt Hill
#
# Bulk Modulus (GPa) = 36.43972 36.56868 36.50420
# Shear Modulus (GPa) = 8.98107 -92.13182 -41.57538
#
# Velocity S-wave (km/s) = 2.11645 -6.77873 -4.55367
# Velocity P-wave (km/s) = 4.91395 6.55968 3.07266
#
# Compressibility (1/GPa) = 0.02744258
#
# Stress axis : x y z
#
# Youngs Moduli (GPa) = 8.19710 8.19710 43.42629
#
# Poissons Ratio (x) = 0.85646 0.33228
# Poissons Ratio (y) = 0.85646 0.33228
# Poissons Ratio (z) = 0.06272 0.06272
#
# Static dielectric constant tensor:
#      x y z
#    x 1.713310 0.000000 0.000000 
#    y 0.000000 1.713310 0.000000 
#    z 0.000000 0.000000 1.510390 
# 
# From -- ./inp_files/2885.got.cif
#   From: 2010.05.17/outbox.cif.g08.bks.cpg/sg89_2_cif.got.tgz:2885.got - 2010.06.03 19:15:31.
