data_PCOD9546047
_publ_section_title
;
Structure prediction by ZEFSAII (Michael W. Deem and Ramdas Pophale) SiO2 
 PCOD9546047
Probable space group: I 4/M
;
_chemical_formula_sum "Si O2"
_cell_formula_units_Z 96
_cell_length_a 15.389759
_cell_length_b 15.389759
_cell_length_c 20.600774
_cell_angle_alpha 90.000000
_cell_angle_beta 90.000000
_cell_angle_gamma 90.000000
_cell_volume 4879.183769
_symmetry_space_group_name_H-M "I 4/M"
_symmetry_group_IT_number 87
_symmetry_cell_setting 'tetragonal'
loop_
_space_group_symop_operation_xyz
x,y,z
-y,x,z
-x,-y,z
y,-x,z
-x,-y,-z
y,-x,-z
x,y,-z
-y,x,-z
1/2+x,1/2+y,1/2+z
1/2-y,1/2+x,1/2+z
1/2-x,1/2-y,1/2+z
1/2+y,1/2-x,1/2+z
1/2-x,1/2-y,1/2-z
1/2+y,1/2-x,1/2-z
1/2+x,1/2+y,1/2-z
1/2-y,1/2+x,1/2-z
loop_
_atom_site_type_symbol
_atom_site_label
_atom_site_fract_x
_atom_site_fract_y
_atom_site_fract_z
Si Si1 0.743502 0.940801 0.374858
Si Si2 0.398089 0.394130 0.702963
Si Si3 0.125564 0.734551 0.868661
Si Si4 0.364375 0.052142 0.249032
Si Si5 0.633791 0.698157 0.161082
Si Si6 0.554431 0.124546 0.000000
Si Si7 0.058166 0.645487 0.000000
O O1 0.687417 0.915023 0.311488
O O2 0.825166 0.878140 0.381503
O O3 0.681701 0.934358 0.436159
O O4 0.776716 0.037547 0.360709
O O5 0.501788 0.383146 0.704650
O O6 0.338158 0.366575 0.642080
O O7 0.366406 0.340121 0.765800
O O8 0.061190 0.695519 0.813783
O O9 0.217650 0.692652 0.849730
O O10 0.091266 0.698378 0.937081
O O11 0.452743 0.106592 0.239533
O O12 0.452966 0.095794 0.000000
O O13 0.622333 0.044466 0.000000
#
# Coordination Sequence:
#
# PCOD9546047 Si02
#       7
#    16  16  16  16  16   8   8
#     4  12  25  40  68  96 140 182 238 283 354 430
#     4  11  24  43  68  99 138 181 226 284 355 418
#     4  12  24  41  70 101 135 179 239 294 347 431
#     4  11  21  37  62  96 130 166 219 295 362 421
#     4  12  23  42  67  98 131 182 226 295 342 423
#     4  11  24  47  67  99 142 192 226 289 368 429
#     4  11  24  45  73  99 143 185 231 295 369 424
#
# _framework density 19.675422000000001
#
# number of rings (size 3 to 8) (size 9 to 14) (size 15 to 20)
#    0.000    0.500    6.667    1.500    0.000    5.667 
#    0.000    0.833    0.000    2.000    0.000    0.000 
#    0.000    0.000    0.000    0.000    0.000    0.000 
#
# Total GULP energy -268173.451877 kJ/mol
# GULP energy per Si atom -5586.946914 kJ/mol
# Density = 1.963064 g / cm^3
# Si number density = 19.675422 Si / 1000 Ang^3
#
#
#
# Elastic Constant Matrix: (Units=GPa)
#
#
# Indices 1 2 3 4 5 6 
#
# 1 101.7847 40.0342 43.4425 0.0000 0.0000 9.0756
# 2 40.0342 101.7847 43.4426 0.0000 0.0000 -9.0756
# 3 43.4425 43.4426 138.6360 0.0000 0.0000 0.0000
# 4 0.0000 0.0000 0.0000 35.3399 0.0000 0.0000
# 5 0.0000 0.0000 0.0000 0.0000 35.3399 0.0000
# 6 9.0756 -9.0756 0.0000 0.0000 0.0000 20.3048
#
#
#
# Elastic Compliance Matrix: (Units=1/GPa)
#
#
# Indices 1 2 3 4 5 6 
#
# 1 0.013685 -0.004959 -0.002735 0.000000 0.000000 -0.008333
# 2 -0.004959 0.013685 -0.002735 0.000000 0.000000 0.008333
# 3 -0.002735 -0.002735 0.008927 0.000000 0.000000 0.000000
# 4 0.000000 0.000000 0.000000 0.028297 0.000000 0.000000
# 5 0.000000 0.000000 0.000000 0.000000 0.028297 0.000000
# 6 -0.008333 0.008333 0.000000 0.000000 0.000000 0.056699
#
#
# Mechanical properties :
#
#
# Convention : Reuss Voigt Hill
#
# Bulk Modulus (GPa) = 64.75888 66.22711 65.49300
# Shear Modulus (GPa) = 28.47518 32.54932 30.51225
#
# Velocity S-wave (km/s) = 3.80840 4.07174 3.94227
# Velocity P-wave (km/s) = 7.23350 7.47250 7.35397
#
# Compressibility (1/GPa) = 0.01544190
#
# Stress axis : x y z
#
# Youngs Moduli (GPa) = 73.07215 73.07215 112.02096
#
# Poissons Ratio (x) = 0.36233 0.30632
# Poissons Ratio (y) = 0.36233 0.30632
# Poissons Ratio (z) = 0.19982 0.19982
#
# Static dielectric constant tensor:
#      x y z
#    x 1.725240 0.000000 0.000000 
#    y 0.000000 1.725240 0.000000 
#    z 0.000000 0.000000 1.660400 
# 
# From -- ./inp_files/5359.got.cif
#   From: 2010.05.17/outbox.cif.g08.bks.cpg/sg87_3_cif.got.tgz:5359.got - 2010.06.03 19:07:00.
