data_PCOD9546308
_publ_section_title
;
Structure prediction by ZEFSAII (Michael W. Deem and Ramdas Pophale) SiO2 
 PCOD9546308
Probable space group: I 41/A
;
_chemical_formula_sum "Si O2"
_cell_formula_units_Z 108
_cell_length_a 13.733079
_cell_length_b 13.733079
_cell_length_c 25.817482
_cell_angle_alpha 90.000000
_cell_angle_beta 90.000000
_cell_angle_gamma 90.000000
_cell_volume 4869.111498
_symmetry_space_group_name_H-M "I 41/A"
_symmetry_group_IT_number 88
_space_group.IT_coordinate_system_code '2'
_symmetry_cell_setting 'tetragonal'
loop_
_space_group_symop_operation_xyz
x,y,z
3/4-y,1/4+x,1/4+z
-x,1/2-y,z
1/4+y,1/4-x,1/4+z
-x,-y,-z
1/4+y,3/4-x,3/4-z
x,1/2+y,-z
3/4-y,3/4+x,3/4-z
1/2+x,1/2+y,1/2+z
1/4-y,3/4+x,3/4+z
1/2-x,-y,1/2+z
3/4+y,3/4-x,3/4+z
1/2-x,1/2-y,1/2-z
3/4+y,1/4-x,1/4-z
1/2+x,y,1/2-z
1/4-y,1/4+x,1/4-z
loop_
_atom_site_type_symbol
_atom_site_label
_atom_site_fract_x
_atom_site_fract_y
_atom_site_fract_z
Si Si1 0.930877 0.569973 0.742876
Si Si2 0.924314 0.422893 0.343958
Si Si3 0.188260 0.751059 0.697848
Si Si4 0.480672 0.593540 0.639635
Si Si5 0.500000 0.250000 0.082485
Si Si6 0.997601 0.054337 0.574704
Si Si7 0.500000 0.750000 0.125000
Si Si8 0.150607 0.125134 0.776739
O O1 0.892255 0.668847 0.715147
O O2 0.982201 0.586048 0.798263
O O3 0.853598 0.486353 0.758503
O O4 0.005166 0.532664 0.699626
O O5 0.844128 0.360188 0.313354
O O6 0.918218 0.507088 0.386417
O O7 0.964779 0.335312 0.380147
O O8 0.250000 0.750000 0.750000
O O9 0.248228 0.783016 0.646359
O O10 0.393988 0.669015 0.627687
O O11 0.586685 0.296442 0.048347
O O12 0.940663 0.073345 0.522130
O O13 0.033550 0.158383 0.592472
O O14 0.089717 0.981857 0.567879
#
# Coordination Sequence:
#
# PCOD9546308 Si02
#       8
#    16  16  16  16   8  16   4  16
#     4  12  24  42  71 101 139 188 239 299 365 447
#     4  11  23  41  69 101 138 187 242 293 376 439
#     4  12  24  43  66 102 142 186 239 305 368 449
#     4  11  25  44  69  98 140 187 236 295 368 432
#     4  10  19  42  72  93 141 190 234 297 372 444
#     4  10  24  43  69  99 140 186 239 309 368 457
#     4  12  22  44  68  96 140 188 236 302 380 436
#     4  10  23  43  68 104 138 187 248 300 375 449
#
# _framework density 22.180637999999998
#
# number of rings (size 3 to 8) (size 9 to 14) (size 15 to 20)
#    0.000    1.037    2.963    3.111    4.148    2.370 
#    0.000    7.407    0.000    0.000    0.000    0.000 
#    0.000    0.000    0.000    0.000    0.000    0.000 
#
# Total GULP energy -301092.414303 kJ/mol
# GULP energy per Si atom -5575.785450 kJ/mol
# Density = 2.213015 g / cm^3
# Si number density = 22.180638 Si / 1000 Ang^3
#
#
#
# Elastic Constant Matrix: (Units=GPa)
#
#
# Indices 1 2 3 4 5 6 
#
# 1 67.9790 12.1709 23.8723 0.0000 0.0000 -4.2612
# 2 12.1709 67.9790 23.8723 0.0000 0.0000 4.2612
# 3 23.8723 23.8723 131.2414 0.0000 0.0000 0.0000
# 4 0.0000 0.0000 0.0000 47.1082 0.0000 0.0000
# 5 0.0000 0.0000 0.0000 0.0000 47.1082 0.0000
# 6 -4.2612 4.2612 0.0000 0.0000 0.0000 23.2632
#
#
#
# Elastic Compliance Matrix: (Units=1/GPa)
#
#
# Indices 1 2 3 4 5 6 
#
# 1 0.016213 -0.002221 -0.002545 0.000000 0.000000 0.003377
# 2 -0.002221 0.016213 -0.002545 0.000000 0.000000 -0.003377
# 3 -0.002545 -0.002545 0.008545 0.000000 0.000000 0.000000
# 4 0.000000 0.000000 0.000000 0.021228 0.000000 0.000000
# 5 0.000000 0.000000 0.000000 0.000000 0.021228 0.000000
# 6 0.003377 -0.003377 0.000000 0.000000 0.000000 0.044223
#
#
# Mechanical properties :
#
#
# Convention : Reuss Voigt Hill
#
# Bulk Modulus (GPa) = 37.95049 43.00338 40.47694
# Shear Modulus (GPa) = 33.10010 37.31486 35.20748
#
# Velocity S-wave (km/s) = 3.86722 4.10605 3.98842
# Velocity P-wave (km/s) = 6.08994 6.47375 6.28478
#
# Compressibility (1/GPa) = 0.02635012
#
# Stress axis : x y z
#
# Youngs Moduli (GPa) = 61.67706 61.67706 117.02095
#
# Poissons Ratio (x) = 0.13697 0.29785
# Poissons Ratio (y) = 0.13697 0.29785
# Poissons Ratio (z) = 0.15698 0.15698
#
# Static dielectric constant tensor:
#      x y z
#    x 1.881670 0.000000 0.000000 
#    y 0.000000 1.881670 0.000000 
#    z 0.000000 0.000000 1.833390 
# 
# From -- ./inp_files/5376.got.cif
#   From: 2010.05.17/outbox.cif.g08.bks.cpg/sg88_3_cif.got.tgz:5376.got - 2010.06.03 19:11:41.
