data_PCOD9546919
_publ_section_title
;
Structure prediction by ZEFSAII (Michael W. Deem and Ramdas Pophale) SiO2 
 PCOD9546919
Probable space group: P 4 2 2
;
_chemical_formula_sum "Si O2"
_cell_formula_units_Z 40
_cell_length_a 15.364717
_cell_length_b 15.364717
_cell_length_c 8.496089
_cell_angle_alpha 90.000000
_cell_angle_beta 90.000000
_cell_angle_gamma 90.000000
_cell_volume 2005.710205
_symmetry_space_group_name_H-M "P 4 2 2"
_symmetry_group_IT_number 89
_symmetry_cell_setting 'tetragonal'
loop_
_space_group_symop_operation_xyz
x,y,z
-y,x,z
-x,-y,z
y,-x,z
x,-y,-z
-x,y,-z
y,x,-z
-y,-x,-z
loop_
_atom_site_type_symbol
_atom_site_label
_atom_site_fract_x
_atom_site_fract_y
_atom_site_fract_z
Si Si1 0.336266 0.301967 0.316344
Si Si2 0.764615 0.027211 0.183104
Si Si3 0.259803 0.478334 0.173898
Si Si4 0.571207 0.943168 0.835577
Si Si5 0.156454 0.804654 0.317834
O O1 0.319972 0.319972 0.500000
O O2 0.305261 0.390244 0.231765
O O3 0.436459 0.278640 0.279253
O O4 0.273840 0.221181 0.267600
O O5 0.667927 0.058949 0.227099
O O6 0.825166 0.108559 0.218978
O O7 0.781269 0.942849 0.287424
O O8 0.770370 0.000000 0.000000
O O9 0.155791 0.461211 0.158185
O O10 0.292798 0.500000 0.000000
O O11 0.500000 0.000000 0.743587
O O12 0.580914 0.000000 0.000000
O O13 0.175337 0.824664 0.500000
#
# Coordination Sequence:
#
# PCOD9546919 Si02
#       5
#     8   8   8   8   8
#     4  11  26  45  67  97 144 186 225 276 346 417
#     4  11  23  39  67  97 132 175 230 282 342 400
#     4  12  23  42  72 102 134 175 234 283 339 397
#     4  10  19  36  63 100 134 165 214 287 344 387
#     4  11  24  43  65  95 140 184 226 274 340 419
#
# _framework density 19.943062000000001
#
# number of rings (size 3 to 8) (size 9 to 14) (size 15 to 20)
#    0.000    1.000    4.000    3.600    2.800    2.400 
#    0.000    4.000    0.000    0.000    0.000    0.000 
#    0.000    0.000    0.000    0.000    0.000    0.000 
#
# Total GULP energy -223309.216506 kJ/mol
# GULP energy per Si atom -5582.730413 kJ/mol
# Density = 1.989767 g / cm^3
# Si number density = 19.943062 Si / 1000 Ang^3
#
#
#
# Elastic Constant Matrix: (Units=GPa)
#
#
# Indices 1 2 3 4 5 6 
#
# 1 121.3993 57.5734 14.9398 0.0000 0.0000 0.0000
# 2 57.5734 121.3994 14.9391 0.0000 0.0000 0.0000
# 3 14.9398 14.9391 41.4665 0.0000 0.0000 0.0000
# 4 0.0000 0.0000 0.0000 -32.1619 0.0000 0.0000
# 5 0.0000 0.0000 0.0000 0.0000 -32.1594 0.0000
# 6 0.0000 0.0000 0.0000 0.0000 0.0000 30.7950
#
#
#
# Elastic Compliance Matrix: (Units=1/GPa)
#
#
# Indices 1 2 3 4 5 6 
#
# 1 0.010806 -0.004861 -0.002142 0.000000 0.000000 0.000000
# 2 -0.004861 0.010806 -0.002142 0.000000 0.000000 0.000000
# 3 -0.002142 -0.002142 0.025659 0.000000 0.000000 0.000000
# 4 0.000000 0.000000 0.000000 -0.031093 0.000000 0.000000
# 5 0.000000 0.000000 0.000000 0.000000 -0.031095 0.000000
# 6 0.000000 0.000000 0.000000 0.000000 0.000000 0.032473
#
#
# Mechanical properties :
#
#
# Convention : Reuss Voigt Hill
#
# Bulk Modulus (GPa) = 34.50442 51.01888 42.76165
# Shear Modulus (GPa) = 109.87208 6.41560 58.14384
#
# Velocity S-wave (km/s) = 7.43051 1.79553 5.40539
# Velocity P-wave (km/s) = 9.53707 5.47142 7.77470
#
# Compressibility (1/GPa) = 0.02898179
#
# Stress axis : x y z
#
# Youngs Moduli (GPa) = 92.53822 92.53871 38.97238
#
# Poissons Ratio (x) = 0.44986 0.08348
# Poissons Ratio (y) = 0.44986 0.08347
# Poissons Ratio (z) = 0.19822 0.19819
#
# Static dielectric constant tensor:
#      x y z
#    x 1.815330 0.000000 0.000000 
#    y 0.000000 1.815330 0.000000 
#    z 0.000000 0.000000 1.722570 
# 
# From -- ./inp_files/1008.got.cif
#   From: 2010.05.17/outbox.cif.g08.bks.cpg/sg89_1_cif.got.tgz:1008.got - 2010.06.03 19:15:31.
