data_PCOD9546255
_publ_section_title
;
Structure prediction by ZEFSAII (Michael W. Deem and Ramdas Pophale) SiO2 
 PCOD9546255
Probable space group: I 41/A
;
_chemical_formula_sum "Si O2"
_cell_formula_units_Z 64
_cell_length_a 22.845212
_cell_length_b 22.845212
_cell_length_c 5.461862
_cell_angle_alpha 90.000000
_cell_angle_beta 90.000000
_cell_angle_gamma 90.000000
_cell_volume 2850.566049
_symmetry_space_group_name_H-M "I 41/A"
_symmetry_group_IT_number 88
_space_group.IT_coordinate_system_code '2'
_symmetry_cell_setting 'tetragonal'
loop_
_space_group_symop_operation_xyz
x,y,z
3/4-y,1/4+x,1/4+z
-x,1/2-y,z
1/4+y,1/4-x,1/4+z
-x,-y,-z
1/4+y,3/4-x,3/4-z
x,1/2+y,-z
3/4-y,3/4+x,3/4-z
1/2+x,1/2+y,1/2+z
1/4-y,3/4+x,3/4+z
1/2-x,-y,1/2+z
3/4+y,3/4-x,3/4+z
1/2-x,1/2-y,1/2-z
3/4+y,1/4-x,1/4-z
1/2+x,y,1/2-z
1/4-y,1/4+x,1/4-z
loop_
_atom_site_type_symbol
_atom_site_label
_atom_site_fract_x
_atom_site_fract_y
_atom_site_fract_z
Si Si1 0.920548 0.979175 0.238759
Si Si2 0.402770 0.671068 0.956408
Si Si3 0.058052 0.495760 0.738303
Si Si4 0.021656 0.130921 0.289875
O O1 0.896389 0.913506 0.214698
O O2 0.906498 0.011979 0.489721
O O3 0.910874 0.016489 0.994235
O O4 0.992301 0.969718 0.254563
O O5 0.406079 0.718059 0.731859
O O6 0.454844 0.628917 0.876158
O O7 0.411994 0.695908 0.230864
O O8 0.046705 0.565654 0.734208
#
# Coordination Sequence:
#
# PCOD9546255 Si02
#       4
#    16  16  16  16
#     4   8  14  25  39  52  66  88 119 153 185 210
#     4  10  19  28  38  53  74 101 128 152 179 215
#     4   8  14  25  39  52  66  88 119 153 185 210
#     4  10  19  28  38  53  74 101 128 152 179 215
#
# _framework density 22.451681000000001
#
# number of rings (size 3 to 8) (size 9 to 14) (size 15 to 20)
#    0.000    3.000    0.000    1.500    0.000    3.000 
#    0.000    0.000    0.000    0.000    0.000    0.000 
#    0.000    0.000    0.000   45.000    0.000    0.000 
#
# Total GULP energy -178242.865123 kJ/mol
# GULP energy per Si atom -5570.089535 kJ/mol
# Density = 2.240058 g / cm^3
# Si number density = 22.451681 Si / 1000 Ang^3
#
#
#
# Elastic Constant Matrix: (Units=GPa)
#
#
# Indices 1 2 3 4 5 6 
#
# 1 29.7351 7.1293 15.4647 0.0000 0.0000 -8.6095
# 2 7.1293 29.7351 15.4647 0.0000 0.0000 8.6095
# 3 15.4647 15.4647 217.4871 0.0000 0.0000 0.0000
# 4 0.0000 0.0000 0.0000 18.2901 0.0000 0.0000
# 5 0.0000 0.0000 0.0000 0.0000 18.2901 0.0000
# 6 -8.6095 8.6095 0.0000 0.0000 0.0000 6.0675
#
#
#
# Elastic Compliance Matrix: (Units=1/GPa)
#
#
# Indices 1 2 3 4 5 6 
#
# 1 -0.259239 0.288087 -0.002051 0.000000 0.000000 -0.776628
# 2 0.288087 -0.259239 -0.002051 0.000000 0.000000 0.776628
# 3 -0.002051 -0.002051 0.004890 0.000000 0.000000 0.000000
# 4 0.000000 0.000000 0.000000 0.054674 0.000000 0.000000
# 5 0.000000 0.000000 0.000000 0.000000 0.054674 0.000000
# 6 -0.776628 0.776628 0.000000 0.000000 0.000000 -2.039181
#
#
# Mechanical properties :
#
#
# Convention : Reuss Voigt Hill
#
# Bulk Modulus (GPa) = 18.38923 39.23053 28.80988
# Shear Modulus (GPa) = -1.67042 24.45612 11.39285
#
# Velocity S-wave (km/s) = -0.86349 3.30400 2.25508
# Velocity P-wave (km/s) = 2.68593 5.66273 4.43174
#
# Compressibility (1/GPa) = 0.05437964
#
# Stress axis : x y z
#
# Youngs Moduli (GPa) = -3.85744 -3.85744 204.51202
#
# Poissons Ratio (x) = 1.11128 0.41950
# Poissons Ratio (y) = 1.11128 0.41950
# Poissons Ratio (z) = -0.00791 -0.00791
#
# Static dielectric constant tensor:
#      x y z
#    x 1.828400 0.000000 0.000000 
#    y 0.000000 1.828400 0.000000 
#    z 0.000000 0.000000 2.057290 
# 
# From -- ./inp_files/605.got.cif
#   From: 2010.05.17/outbox.cif.g08.bks.cpg/sg88_1_cif.got.tgz:605.got - 2010.06.03 19:11:41.
