data_PCOD9546883
_publ_section_title
;
Structure prediction by ZEFSAII (Michael W. Deem and Ramdas Pophale) SiO2 
 PCOD9546883
Probable space group: I 41/A
;
_chemical_formula_sum "Si O2"
_cell_formula_units_Z 56
_cell_length_a 24.000000
_cell_length_b 24.000000
_cell_length_c 12.000000
_cell_angle_alpha 90.000000
_cell_angle_beta 90.000000
_cell_angle_gamma 90.000000
_cell_volume 6912.000000
_symmetry_space_group_name_H-M "I 41/A"
_symmetry_group_IT_number 88
_space_group.IT_coordinate_system_code '2'
_symmetry_cell_setting 'tetragonal'
loop_
_space_group_symop_operation_xyz
x,y,z
3/4-y,1/4+x,1/4+z
-x,1/2-y,z
1/4+y,1/4-x,1/4+z
-x,-y,-z
1/4+y,3/4-x,3/4-z
x,1/2+y,-z
3/4-y,3/4+x,3/4-z
1/2+x,1/2+y,1/2+z
1/4-y,3/4+x,3/4+z
1/2-x,-y,1/2+z
3/4+y,3/4-x,3/4+z
1/2-x,1/2-y,1/2-z
3/4+y,1/4-x,1/4-z
1/2+x,y,1/2-z
1/4-y,1/4+x,1/4-z
loop_
_atom_site_type_symbol
_atom_site_label
_atom_site_fract_x
_atom_site_fract_y
_atom_site_fract_z
Si Si1 0.052747 0.524314 0.136290
Si Si2 0.264245 0.901322 0.927762
Si Si3 0.253621 0.120752 0.920198
Si Si4 0.167735 0.485500 0.571661
Si Si5 0.341142 0.115439 0.275884
Si Si6 0.823595 0.307323 0.288396
Si Si7 0.556392 0.822418 0.608477
O O1 0.073701 0.520557 0.262893
O O2 0.994053 0.554186 0.115252
O O3 0.097971 0.558987 0.065578
O O4 0.051283 0.463956 0.074538
O O5 0.286744 0.964591 0.920275
O O6 0.202459 0.893814 0.877438
O O7 0.304605 0.862798 0.852949
O O8 0.265885 0.887236 0.059003
O O9 0.247020 0.120302 0.786377
O O10 0.298323 0.071838 0.944536
O O11 0.194485 0.104407 0.974334
O O12 0.396090 0.148602 0.315476
O O13 0.887798 0.305608 0.250774
O O14 0.572206 0.757089 0.593764
#
# Coordination Sequence:
#
# PCOD9546883 Si02
#       7
#    16  16  16  16  16  16  16
#     4  10  20  32  52  81 103 144 177 220 269 328
#     4  10  21  33  52  78 114 147 178 216 271 328
#     4  11  19  31  53  78 114 143 180 219 269 324
#     4  10  21  33  49  85 115 148 181 217 263 329
#     4  11  19  32  54  78 108 142 176 218 276 326
#     4  10  20  36  53  76 109 138 178 225 276 327
#     4  11  22  35  53  80 110 138 179 234 286 325
#
# _framework density 8.1018519999999992
#
# number of rings (size 3 to 8) (size 9 to 14) (size 15 to 20)
#    0.000    1.571    4.286    2.571    2.000    0.000 
#    0.000    0.714    0.000    1.714    0.000    0.000 
#    0.000    0.000    0.000    0.000    0.000    0.000 
#
# Total GULP energy -312375.578124 kJ/mol
# GULP energy per Si atom -5578.135324 kJ/mol
# Density = 0.808341 g / cm^3
# Si number density = 8.101852 Si / 1000 Ang^3
#
#
#
# Elastic Constant Matrix: (Units=GPa)
#
#
# Indices 1 2 3 4 5 6 
#
# 1 72.0327 16.6805 28.0445 0.0000 0.0000 0.2565
# 2 16.6805 72.0327 28.0445 0.0000 0.0000 -0.2565
# 3 28.0445 28.0445 85.8896 0.0000 0.0000 0.0000
# 4 0.0000 0.0000 0.0000 25.6154 0.0000 0.0000
# 5 0.0000 0.0000 0.0000 0.0000 25.6154 0.0000
# 6 0.2565 -0.2565 0.0000 0.0000 0.0000 23.7607
#
#
#
# Elastic Compliance Matrix: (Units=1/GPa)
#
#
# Indices 1 2 3 4 5 6 
#
# 1 0.016136 -0.001932 -0.004638 0.000000 0.000000 -0.000195
# 2 -0.001932 0.016136 -0.004638 0.000000 0.000000 0.000195
# 3 -0.004638 -0.004638 0.014672 0.000000 0.000000 0.000000
# 4 0.000000 0.000000 0.000000 0.039039 0.000000 0.000000
# 5 0.000000 0.000000 0.000000 0.000000 0.039039 0.000000
# 6 -0.000195 0.000195 0.000000 0.000000 0.000000 0.042091
#
#
# Mechanical properties :
#
#
# Convention : Reuss Voigt Hill
#
# Bulk Modulus (GPa) = 40.76850 41.72157 41.24504
# Shear Modulus (GPa) = 25.29020 25.47730 25.38375
#
# Velocity S-wave (km/s) = 3.95494 3.96954 3.96225
# Velocity P-wave (km/s) = 6.78749 6.84206 6.81483
#
# Compressibility (1/GPa) = 0.02452874
#
# Stress axis : x y z
#
# Youngs Moduli (GPa) = 61.97191 61.97191 68.15841
#
# Poissons Ratio (x) = 0.11971 0.31613
# Poissons Ratio (y) = 0.11971 0.31613
# Poissons Ratio (z) = 0.28743 0.28743
#
# Static dielectric constant tensor:
#      x y z
#    x 1.544480 0.000000 0.000000 
#    y 0.000000 1.544480 0.000000 
#    z 0.000000 0.000000 1.550310 
# 
# From -- ./inp_files/2725.got.cif
#   From: 2010.05.17/outbox.ucp.g08.bks.cvg/sg88_2_cif.got.tgz:2725.got - 2010.06.11 10:35:41.
