data_PCOD9546136
_publ_section_title
;
Structure prediction by ZEFSAII (Michael W. Deem and Ramdas Pophale) SiO2 
 PCOD9546136
Probable space group: I 4/M
;
_chemical_formula_sum "Si O2"
_cell_formula_units_Z 72
_cell_length_a 10.487963
_cell_length_b 10.487963
_cell_length_c 29.421053
_cell_angle_alpha 90.000000
_cell_angle_beta 90.000000
_cell_angle_gamma 90.000000
_cell_volume 3236.238391
_symmetry_space_group_name_H-M "I 4/M"
_symmetry_group_IT_number 87
_symmetry_cell_setting 'tetragonal'
loop_
_space_group_symop_operation_xyz
x,y,z
-y,x,z
-x,-y,z
y,-x,z
-x,-y,-z
y,-x,-z
x,y,-z
-y,x,-z
1/2+x,1/2+y,1/2+z
1/2-y,1/2+x,1/2+z
1/2-x,1/2-y,1/2+z
1/2+y,1/2-x,1/2+z
1/2-x,1/2-y,1/2-z
1/2+y,1/2-x,1/2-z
1/2+x,1/2+y,1/2-z
1/2-y,1/2+x,1/2-z
loop_
_atom_site_type_symbol
_atom_site_label
_atom_site_fract_x
_atom_site_fract_y
_atom_site_fract_z
Si Si1 0.210024 0.943275 0.736720
Si Si2 0.679769 0.619780 0.000000
Si Si3 0.200890 0.936029 0.165686
Si Si4 0.203122 0.737494 0.597701
Si Si5 0.039796 0.349260 0.644729
O O1 0.272887 0.917139 0.786432
O O2 0.306973 0.924889 0.695606
O O3 0.086012 0.850568 0.733700
O O4 0.533853 0.670132 0.000000
O O5 0.748269 0.667854 0.954512
O O6 0.252197 0.899355 0.116435
O O7 0.077725 0.847804 0.168750
O O8 0.304747 0.844132 0.612447
O O9 0.074150 0.744149 0.627755
O O10 0.000000 0.500000 0.642395
#
# Coordination Sequence:
#
# PCOD9546136 Si02
#       5
#    16   8  16  16  16
#     4   9  18  39  69  98 135 194 246 290 343 404
#     4  11  24  46  78 105 124 174 236 293 374 434
#     4   9  20  42  68  94 140 197 238 278 342 420
#     4  12  24  45  68 103 145 175 233 306 363 422
#     4  12  25  41  67 108 145 190 235 292 359 434
#
# _framework density 22.248054
#
# number of rings (size 3 to 8) (size 9 to 14) (size 15 to 20)
#    0.000    1.444    4.444    2.667    0.000    1.333 
#    4.000    5.556    0.000    1.333    0.000    0.000 
#    0.000    0.000    0.000    0.000    0.000    0.000 
#
# Total GULP energy -200862.722953 kJ/mol
# GULP energy per Si atom -5579.520082 kJ/mol
# Density = 2.219742 g / cm^3
# Si number density = 22.248054 Si / 1000 Ang^3
#
#
#
# Elastic Constant Matrix: (Units=GPa)
#
#
# Indices 1 2 3 4 5 6 
#
# 1 80.0635 43.3154 54.1980 0.0000 0.0000 -3.3505
# 2 43.3154 80.0635 54.1980 0.0000 0.0000 3.3505
# 3 54.1980 54.1980 228.0198 0.0000 0.0000 0.0000
# 4 0.0000 0.0000 0.0000 33.1962 0.0000 0.0000
# 5 0.0000 0.0000 0.0000 0.0000 33.1962 0.0000
# 6 -3.3505 3.3505 0.0000 0.0000 0.0000 4.2854
#
#
#
# Elastic Compliance Matrix: (Units=1/GPa)
#
#
# Indices 1 2 3 4 5 6 
#
# 1 0.020991 -0.010746 -0.002435 0.000000 0.000000 0.024813
# 2 -0.010746 0.020991 -0.002435 0.000000 0.000000 -0.024813
# 3 -0.002435 -0.002435 0.005543 0.000000 0.000000 0.000000
# 4 0.000000 0.000000 0.000000 0.030124 0.000000 0.000000
# 5 0.000000 0.000000 0.000000 0.000000 0.030124 0.000000
# 6 0.024813 -0.024813 0.000000 0.000000 0.000000 0.272153
#
#
# Mechanical properties :
#
#
# Convention : Reuss Voigt Hill
#
# Bulk Modulus (GPa) = 61.37991 76.84108 69.11049
# Shear Modulus (GPa) = 12.00226 29.89790 20.95008
#
# Velocity S-wave (km/s) = 2.32518 3.66982 3.07198
# Velocity P-wave (km/s) = 5.90401 7.25053 6.61164
#
# Compressibility (1/GPa) = 0.01629198
#
# Stress axis : x y z
#
# Youngs Moduli (GPa) = 47.64024 47.64024 180.40342
#
# Poissons Ratio (x) = 0.51195 0.43928
# Poissons Ratio (y) = 0.51195 0.43928
# Poissons Ratio (z) = 0.11600 0.11600
#
# Static dielectric constant tensor:
#      x y z
#    x 1.919980 0.000000 0.000000 
#    y 0.000000 1.919980 0.000000 
#    z 0.000000 0.000000 1.763060 
# 
# From -- ./inp_files/6159.got.cif
#   From: 2010.05.17/outbox.cif.g08.bks.cpg/sg87_4_cif.got.tgz:6159.got - 2010.06.03 19:07:00.
