data_PCOD9546240
_publ_section_title
;
Structure prediction by ZEFSAII (Michael W. Deem and Ramdas Pophale) SiO2 
 PCOD9546240
Probable space group: I 41/A
;
_chemical_formula_sum "Si O2"
_cell_formula_units_Z 96
_cell_length_a 24.720318
_cell_length_b 24.720318
_cell_length_c 8.994590
_cell_angle_alpha 90.000000
_cell_angle_beta 90.000000
_cell_angle_gamma 90.000000
_cell_volume 5496.541079
_symmetry_space_group_name_H-M "I 41/A"
_symmetry_group_IT_number 88
_space_group.IT_coordinate_system_code '2'
_symmetry_cell_setting 'tetragonal'
loop_
_space_group_symop_operation_xyz
x,y,z
3/4-y,1/4+x,1/4+z
-x,1/2-y,z
1/4+y,1/4-x,1/4+z
-x,-y,-z
1/4+y,3/4-x,3/4-z
x,1/2+y,-z
3/4-y,3/4+x,3/4-z
1/2+x,1/2+y,1/2+z
1/4-y,3/4+x,3/4+z
1/2-x,-y,1/2+z
3/4+y,3/4-x,3/4+z
1/2-x,1/2-y,1/2-z
3/4+y,1/4-x,1/4-z
1/2+x,y,1/2-z
1/4-y,1/4+x,1/4-z
loop_
_atom_site_type_symbol
_atom_site_label
_atom_site_fract_x
_atom_site_fract_y
_atom_site_fract_z
Si Si1 0.240948 0.707696 0.552224
Si Si2 0.321658 0.703163 0.819905
Si Si3 0.668814 0.254604 0.658676
Si Si4 0.195533 0.355872 0.623196
Si Si5 0.802860 0.358880 0.697045
Si Si6 0.475064 0.834739 0.642047
O O1 0.277648 0.695279 0.692080
O O2 0.187830 0.737091 0.612703
O O3 0.276583 0.745720 0.442445
O O4 0.228079 0.657148 0.452810
O O5 0.378415 0.699100 0.737172
O O6 0.306788 0.665440 0.955327
O O7 0.674680 0.305967 0.770676
O O8 0.668061 0.196765 0.743057
O O9 0.620391 0.265000 0.540880
O O10 0.154462 0.405826 0.606376
O O11 0.255164 0.371761 0.684122
O O12 0.532757 0.812548 0.585021
#
# Coordination Sequence:
#
# PCOD9546240 Si02
#       6
#    16  16  16  16  16  16
#     4   9  18  34  58  80 108 137 193 242 267 330
#     4  10  18  35  58  82 105 151 189 230 284 332
#     4  10  19  37  58  80 110 150 197 237 277 341
#     4  11  22  37  61  86 114 153 193 246 292 338
#     4  11  21  39  57  86 116 150 196 242 289 349
#     4  10  22  35  50  83 125 151 179 232 297 352
#
# _framework density 17.465530000000001
#
# number of rings (size 3 to 8) (size 9 to 14) (size 15 to 20)
#    0.000    1.833    3.333    2.000    2.333    0.000 
#    0.000    1.667    0.000    2.000    0.000    0.000 
#    0.000    0.000    0.000    0.000    0.000    0.000 
#
# Total GULP energy -267224.470440 kJ/mol
# GULP energy per Si atom -5567.176468 kJ/mol
# Density = 1.742578 g / cm^3
# Si number density = 17.465530 Si / 1000 Ang^3
#
#
#
# Elastic Constant Matrix: (Units=GPa)
#
#
# Indices 1 2 3 4 5 6 
#
# 1 54.9108 36.1858 24.4581 0.0000 0.0000 1.9178
# 2 36.1858 54.9108 24.4581 0.0000 0.0000 -1.9178
# 3 24.4581 24.4581 94.9263 0.0000 0.0000 0.0000
# 4 0.0000 0.0000 0.0000 9.1874 0.0000 0.0000
# 5 0.0000 0.0000 0.0000 0.0000 9.1874 0.0000
# 6 1.9178 -1.9178 0.0000 0.0000 0.0000 26.0902
#
#
#
# Elastic Compliance Matrix: (Units=1/GPa)
#
#
# Indices 1 2 3 4 5 6 
#
# 1 0.033480 -0.020741 -0.003282 0.000000 0.000000 -0.003986
# 2 -0.020741 0.033480 -0.003282 0.000000 0.000000 0.003986
# 3 -0.003282 -0.003282 0.012226 0.000000 0.000000 0.000000
# 4 0.000000 0.000000 0.000000 0.108845 0.000000 0.000000
# 5 0.000000 0.000000 0.000000 0.000000 0.108845 0.000000
# 6 -0.003986 0.003986 0.000000 0.000000 0.000000 0.038914
#
#
# Mechanical properties :
#
#
# Convention : Reuss Voigt Hill
#
# Bulk Modulus (GPa) = 40.69022 41.66131 41.17577
# Shear Modulus (GPa) = 12.54411 16.86940 14.70676
#
# Velocity S-wave (km/s) = 2.68287 3.11121 2.90495
# Velocity P-wave (km/s) = 5.73978 6.06724 5.90578
#
# Compressibility (1/GPa) = 0.02457593
#
# Stress axis : x y z
#
# Youngs Moduli (GPa) = 29.86814 29.86814 81.79304
#
# Poissons Ratio (x) = 0.61948 0.26849
# Poissons Ratio (y) = 0.61948 0.26849
# Poissons Ratio (z) = 0.09804 0.09804
#
# Static dielectric constant tensor:
#      x y z
#    x 1.625490 0.000000 0.000000 
#    y 0.000000 1.625490 0.000000 
#    z 0.000000 0.000000 1.594870 
# 
# From -- ./inp_files/1719.got.cif
#   From: 2010.05.17/outbox.cif.g08.bks.cpg/sg88_1_cif.got.tgz:1719.got - 2010.06.03 19:11:41.
