data_PCOD9546320
_publ_section_title
;
Structure prediction by ZEFSAII (Michael W. Deem and Ramdas Pophale) SiO2 
 PCOD9546320
Probable space group: I 41/A
;
_chemical_formula_sum "Si O2"
_cell_formula_units_Z 48
_cell_length_a 8.461769
_cell_length_b 8.461769
_cell_length_c 30.510568
_cell_angle_alpha 90.000000
_cell_angle_beta 90.000000
_cell_angle_gamma 90.000000
_cell_volume 2184.603491
_symmetry_space_group_name_H-M "I 41/A"
_symmetry_group_IT_number 88
_space_group.IT_coordinate_system_code '2'
_symmetry_cell_setting 'tetragonal'
loop_
_space_group_symop_operation_xyz
x,y,z
3/4-y,1/4+x,1/4+z
-x,1/2-y,z
1/4+y,1/4-x,1/4+z
-x,-y,-z
1/4+y,3/4-x,3/4-z
x,1/2+y,-z
3/4-y,3/4+x,3/4-z
1/2+x,1/2+y,1/2+z
1/4-y,3/4+x,3/4+z
1/2-x,-y,1/2+z
3/4+y,3/4-x,3/4+z
1/2-x,1/2-y,1/2-z
3/4+y,1/4-x,1/4-z
1/2+x,y,1/2-z
1/4-y,1/4+x,1/4-z
loop_
_atom_site_type_symbol
_atom_site_label
_atom_site_fract_x
_atom_site_fract_y
_atom_site_fract_z
Si Si1 0.501227 0.941823 0.262512
Si Si2 0.286804 0.061717 0.933538
Si Si3 0.338376 0.851874 0.342083
O O1 0.500000 0.750000 0.257443
O O2 0.458546 0.003522 0.214752
O O3 0.661948 0.995055 0.285155
O O4 0.369621 0.964487 0.300598
O O5 0.472614 0.043397 0.921074
O O6 0.200552 0.064637 0.887314
O O7 0.500000 0.750000 0.348305
#
# Coordination Sequence:
#
# PCOD9546320 Si02
#       3
#    16  16  16
#     4   9  19  35  51  86 116 139 190 238 275 336
#     4  10  20  33  59  81 112 151 184 236 287 328
#     4   9  20  35  54  82 116 145 191 232 278 341
#
# _framework density 21.971948000000001
#
# number of rings (size 3 to 8) (size 9 to 14) (size 15 to 20)
#    0.000    3.333    0.000    4.000    9.333    0.000 
#    0.000    1.667    0.000    9.000    0.000    0.000 
#    0.000    0.000    0.000    0.000    0.000    0.000 
#
# Total GULP energy -133794.591078 kJ/mol
# GULP energy per Si atom -5574.774628 kJ/mol
# Density = 2.192194 g / cm^3
# Si number density = 21.971948 Si / 1000 Ang^3
#
#
#
# Elastic Constant Matrix: (Units=GPa)
#
#
# Indices 1 2 3 4 5 6 
#
# 1 26.4442 8.2528 22.8100 0.0000 0.0000 2.7187
# 2 8.2528 26.4442 22.8100 0.0000 0.0000 -2.7187
# 3 22.8100 22.8100 164.0998 0.0000 0.0000 0.0000
# 4 0.0000 0.0000 0.0000 19.6685 0.0000 0.0000
# 5 0.0000 0.0000 0.0000 0.0000 19.6685 0.0000
# 6 2.7187 -2.7187 0.0000 0.0000 0.0000 5.5946
#
#
#
# Elastic Compliance Matrix: (Units=1/GPa)
#
#
# Indices 1 2 3 4 5 6 
#
# 1 0.049789 -0.014523 -0.004902 0.000000 0.000000 -0.031253
# 2 -0.014523 0.049789 -0.004902 0.000000 0.000000 0.031253
# 3 -0.004902 -0.004902 0.007457 0.000000 0.000000 0.000000
# 4 0.000000 0.000000 0.000000 0.050843 0.000000 0.000000
# 5 0.000000 0.000000 0.000000 0.000000 0.050843 0.000000
# 6 -0.031253 0.031253 0.000000 0.000000 0.000000 0.209119
#
#
# Mechanical properties :
#
#
# Convention : Reuss Voigt Hill
#
# Bulk Modulus (GPa) = 17.12889 36.08154 26.60521
# Shear Modulus (GPa) = 10.28903 19.86070 15.07486
#
# Velocity S-wave (km/s) = 2.16633 3.00977 2.62218
# Velocity P-wave (km/s) = 3.75100 5.34187 4.61550
#
# Compressibility (1/GPa) = 0.05838089
#
# Stress axis : x y z
#
# Youngs Moduli (GPa) = 20.08459 20.08459 134.10885
#
# Poissons Ratio (x) = 0.29169 0.65741
# Poissons Ratio (y) = 0.29169 0.65741
# Poissons Ratio (z) = 0.09846 0.09846
#
# Static dielectric constant tensor:
#      x y z
#    x 1.903420 0.000000 0.000000 
#    y 0.000000 1.903420 0.000000 
#    z 0.000000 0.000000 1.818640 
# 
# From -- ./inp_files/6034.got.cif
#   From: 2010.05.17/outbox.cif.g08.bks.cpg/sg88_4_cif.got.tgz:6034.got - 2010.06.03 19:11:41.
