data_PCOD9546610
_publ_section_title
;
Structure prediction by ZEFSAII (Michael W. Deem and Ramdas Pophale) SiO2 
 PCOD9546610
Probable space group: I 41/A
;
_chemical_formula_sum "Si O2"
_cell_formula_units_Z 88
_cell_length_a 12.032124
_cell_length_b 12.032124
_cell_length_c 30.184576
_cell_angle_alpha 90.000000
_cell_angle_beta 90.000000
_cell_angle_gamma 90.000000
_cell_volume 4369.881677
_symmetry_space_group_name_H-M "I 41/A"
_symmetry_group_IT_number 88
_space_group.IT_coordinate_system_code '2'
_symmetry_cell_setting 'tetragonal'
loop_
_space_group_symop_operation_xyz
x,y,z
3/4-y,1/4+x,1/4+z
-x,1/2-y,z
1/4+y,1/4-x,1/4+z
-x,-y,-z
1/4+y,3/4-x,3/4-z
x,1/2+y,-z
3/4-y,3/4+x,3/4-z
1/2+x,1/2+y,1/2+z
1/4-y,3/4+x,3/4+z
1/2-x,-y,1/2+z
3/4+y,3/4-x,3/4+z
1/2-x,1/2-y,1/2-z
3/4+y,1/4-x,1/4-z
1/2+x,y,1/2-z
1/4-y,1/4+x,1/4-z
loop_
_atom_site_type_symbol
_atom_site_label
_atom_site_fract_x
_atom_site_fract_y
_atom_site_fract_z
Si Si1 0.878635 0.943876 0.994279
Si Si2 0.314053 0.391568 0.963116
Si Si3 0.140249 0.175090 0.100249
Si Si4 0.385908 0.595738 0.912562
Si Si5 0.500000 0.250000 0.734414
Si Si6 0.872393 0.775532 0.069315
O O1 0.888082 0.862399 0.950586
O O2 0.772045 0.023705 0.987337
O O3 0.851037 0.882918 0.039800
O O4 0.000000 0.000000 0.000000
O O5 0.374542 0.468630 0.927100
O O6 0.223759 0.308292 0.943709
O O7 0.409588 0.324358 0.989107
O O8 0.130538 0.304388 0.114633
O O9 0.265975 0.136459 0.104372
O O10 0.427970 0.667424 0.953830
O O11 0.465427 0.615248 0.871671
O O12 0.000000 0.750000 0.057273
#
# Coordination Sequence:
#
# PCOD9546610 Si02
#       6
#    16  16  16  16   8  16
#     4  11  23  42  68 102 146 186 230 298 372 445
#     4  11  26  45  71 102 137 189 247 286 365 430
#     4  10  23  39  66 105 138 181 232 293 369 439
#     4  11  26  44  70  99 140 184 235 301 356 432
#     4  12  26  50  71  98 142 198 247 294 356 444
#     4  12  25  43  70 104 141 183 229 301 369 437
#
# _framework density 20.137846
#
# number of rings (size 3 to 8) (size 9 to 14) (size 15 to 20)
#    0.000    0.909    2.727    3.818    5.091    8.727 
#    0.000    0.000    0.000    0.000    0.000    0.000 
#    0.000    0.000    0.000    0.000    0.000    0.000 
#
# Total GULP energy -245412.573675 kJ/mol
# GULP energy per Si atom -5577.558493 kJ/mol
# Density = 2.009201 g / cm^3
# Si number density = 20.137846 Si / 1000 Ang^3
#
#
#
# Elastic Constant Matrix: (Units=GPa)
#
#
# Indices 1 2 3 4 5 6 
#
# 1 83.7958 71.2812 44.9874 0.0000 0.0000 2.9426
# 2 71.2812 83.7958 44.9874 0.0000 0.0000 -2.9426
# 3 44.9874 44.9874 51.7418 0.0000 0.0000 0.0000
# 4 0.0000 0.0000 0.0000 2.5236 0.0000 0.0000
# 5 0.0000 0.0000 0.0000 0.0000 2.5236 0.0000
# 6 2.9426 -2.9426 0.0000 0.0000 0.0000 33.6077
#
#
#
# Elastic Compliance Matrix: (Units=1/GPa)
#
#
# Indices 1 2 3 4 5 6 
#
# 1 0.048176 -0.035163 -0.011314 0.000000 0.000000 -0.007297
# 2 -0.035163 0.048176 -0.011314 0.000000 0.000000 0.007297
# 3 -0.011314 -0.011314 0.039001 0.000000 0.000000 0.000000
# 4 0.000000 0.000000 0.000000 0.396262 0.000000 0.000000
# 5 0.000000 0.000000 0.000000 0.000000 0.396263 0.000000
# 6 -0.007297 0.007297 0.000000 0.000000 0.000000 0.031033
#
#
# Mechanical properties :
#
#
# Convention : Reuss Voigt Hill
#
# Bulk Modulus (GPa) = 50.58110 60.20502 55.39306
# Shear Modulus (GPa) = 4.62500 11.60280 8.11390
#
# Velocity S-wave (km/s) = 1.51712 2.40296 2.00946
# Velocity P-wave (km/s) = 5.31421 6.13680 5.74026
#
# Compressibility (1/GPa) = 0.01977023
#
# Stress axis : x y z
#
# Youngs Moduli (GPa) = 20.75737 20.75737 25.64042
#
# Poissons Ratio (x) = 0.72989 0.29010
# Poissons Ratio (y) = 0.72989 0.29010
# Poissons Ratio (z) = 0.23485 0.23485
#
# Static dielectric constant tensor:
#      x y z
#    x 1.678210 0.000000 0.000000 
#    y 0.000000 1.678210 0.000000 
#    z 0.000000 0.000000 1.715550 
# 
# From -- ./inp_files/6449.got.cif
#   From: 2010.05.17/outbox.cif.g08.bks.cpg/sg88_4_cif.got.tgz:6449.got - 2010.06.03 19:11:41.
