data_PCOD9546907
_publ_section_title
;
Structure prediction by ZEFSAII (Michael W. Deem and Ramdas Pophale) SiO2 
 PCOD9546907
Probable space group: P 4 2 2
;
_chemical_formula_sum "Si O2"
_cell_formula_units_Z 60
_cell_length_a 16.152092
_cell_length_b 16.152092
_cell_length_c 14.318105
_cell_angle_alpha 90.000000
_cell_angle_beta 90.000000
_cell_angle_gamma 90.000000
_cell_volume 3735.451501
_symmetry_space_group_name_H-M "P 4 2 2"
_symmetry_group_IT_number 89
_symmetry_cell_setting 'tetragonal'
loop_
_space_group_symop_operation_xyz
x,y,z
-y,x,z
-x,-y,z
y,-x,z
x,-y,-z
-x,y,-z
y,x,-z
-y,-x,-z
loop_
_atom_site_type_symbol
_atom_site_label
_atom_site_fract_x
_atom_site_fract_y
_atom_site_fract_z
Si Si1 0.511294 0.736521 0.612513
Si Si2 0.776915 0.182013 0.648786
Si Si3 0.342787 0.328435 0.296185
Si Si4 0.888318 0.913853 0.205475
Si Si5 0.087849 0.273999 0.475819
Si Si6 0.079256 0.456851 0.398865
Si Si7 0.098841 0.098841 0.000000
Si Si8 0.400788 0.598627 0.894391
O O1 0.500000 0.733404 0.500000
O O2 0.429862 0.701360 0.661377
O O3 0.592420 0.686839 0.644044
O O4 0.526180 0.831449 0.644424
O O5 0.723852 0.255461 0.693411
O O6 0.823379 0.123505 0.721993
O O7 0.717462 0.134211 0.575271
O O8 0.851225 0.221532 0.588193
O O9 0.355337 0.355489 0.189294
O O10 0.985723 0.888619 0.215499
O O11 0.866096 0.879302 0.101481
O O12 0.069916 0.359976 0.422532
O O13 0.000000 0.233068 0.500000
O O14 0.084052 0.500000 0.500000
O O15 0.000000 0.500000 0.351240
O O16 0.000000 0.111477 0.000000
O O17 0.387676 0.499726 0.885312
O O18 0.376834 0.623167 0.000000
#
# Coordination Sequence:
#
# PCOD9546907 Si02
#       8
#     8   8   8   8   8   8   4   8
#     4  11  23  35  52  77 110 145 173 216 260 311
#     4  11  23  33  49  77 112 135 167 222 259 301
#     4  12  22  36  53  78 111 137 177 215 270 312
#     4   9  17  34  55  76  99 129 167 210 265 321
#     4  11  21  35  51  71 104 143 178 209 249 294
#     4  10  18  33  52  69  91 137 188 213 233 286
#     4   7  12  26  54  78  94 120 160 207 256 316
#     4   9  18  36  58  76  96 132 181 225 263 316
#
# _framework density 16.062314000000001
#
# number of rings (size 3 to 8) (size 9 to 14) (size 15 to 20)
#    0.000    1.800    4.000    4.000    1.867    0.267 
#    1.200    0.667    0.000    3.200    0.000    0.000 
#    0.000    1.067    0.000    1.200    0.000    0.000 
#
# Total GULP energy -334203.293812 kJ/mol
# GULP energy per Si atom -5570.054897 kJ/mol
# Density = 1.602576 g / cm^3
# Si number density = 16.062314 Si / 1000 Ang^3
#
#
#
# Elastic Constant Matrix: (Units=GPa)
#
#
# Indices 1 2 3 4 5 6 
#
# 1 86.9498 39.2880 37.7762 0.0000 0.0000 0.0000
# 2 39.2880 86.9497 37.7762 0.0000 0.0000 0.0000
# 3 37.7762 37.7762 106.2526 0.0000 0.0000 0.0000
# 4 0.0000 0.0000 0.0000 12.6433 0.0000 0.0000
# 5 0.0000 0.0000 0.0000 0.0000 12.6434 0.0000
# 6 0.0000 0.0000 0.0000 0.0000 0.0000 22.6471
#
#
#
# Elastic Compliance Matrix: (Units=1/GPa)
#
#
# Indices 1 2 3 4 5 6 
#
# 1 0.015522 -0.005459 -0.003578 0.000000 0.000000 0.000000
# 2 -0.005459 0.015522 -0.003578 0.000000 0.000000 0.000000
# 3 -0.003578 -0.003578 0.011955 0.000000 0.000000 0.000000
# 4 0.000000 0.000000 0.000000 0.079094 0.000000 0.000000
# 5 0.000000 0.000000 0.000000 0.000000 0.079093 0.000000
# 6 0.000000 0.000000 0.000000 0.000000 0.000000 0.044156
#
#
# Mechanical properties :
#
#
# Convention : Reuss Voigt Hill
#
# Bulk Modulus (GPa) = 56.27325 56.64811 56.46068
# Shear Modulus (GPa) = 18.08358 20.60753 19.34555
#
# Velocity S-wave (km/s) = 3.35899 3.58575 3.47422
# Velocity P-wave (km/s) = 7.08196 7.24484 7.16386
#
# Compressibility (1/GPa) = 0.01777043
#
# Stress axis : x y z
#
# Youngs Moduli (GPa) = 64.42491 64.42484 83.64382
#
# Poissons Ratio (x) = 0.35171 0.29925
# Poissons Ratio (y) = 0.35171 0.29925
# Poissons Ratio (z) = 0.23049 0.23049
#
# Static dielectric constant tensor:
#      x y z
#    x 1.559260 0.000000 0.000000 
#    y 0.000000 1.559260 0.000000 
#    z 0.000000 0.000000 1.546490 
# 
# From -- ./inp_files/2272.got.cif
#   From: 2010.05.17/outbox.cif.g08.bks.cpg/sg89_2_cif.got.tgz:2272.got - 2010.06.03 19:15:31.
