data_PCOD9546348
_publ_section_title
;
Structure prediction by ZEFSAII (Michael W. Deem and Ramdas Pophale) SiO2 
 PCOD9546348
Probable space group: I 41/A
;
_chemical_formula_sum "Si O2"
_cell_formula_units_Z 108
_cell_length_a 15.687855
_cell_length_b 15.687855
_cell_length_c 24.534639
_cell_angle_alpha 90.000000
_cell_angle_beta 90.000000
_cell_angle_gamma 90.000000
_cell_volume 6038.190428
_symmetry_space_group_name_H-M "I 41/A"
_symmetry_group_IT_number 88
_space_group.IT_coordinate_system_code '2'
_symmetry_cell_setting 'tetragonal'
loop_
_space_group_symop_operation_xyz
x,y,z
3/4-y,1/4+x,1/4+z
-x,1/2-y,z
1/4+y,1/4-x,1/4+z
-x,-y,-z
1/4+y,3/4-x,3/4-z
x,1/2+y,-z
3/4-y,3/4+x,3/4-z
1/2+x,1/2+y,1/2+z
1/4-y,3/4+x,3/4+z
1/2-x,-y,1/2+z
3/4+y,3/4-x,3/4+z
1/2-x,1/2-y,1/2-z
3/4+y,1/4-x,1/4-z
1/2+x,y,1/2-z
1/4-y,1/4+x,1/4-z
loop_
_atom_site_type_symbol
_atom_site_label
_atom_site_fract_x
_atom_site_fract_y
_atom_site_fract_z
Si Si1 0.864565 0.720910 0.286079
Si Si2 0.757696 0.882620 0.280833
Si Si3 0.000000 0.750000 0.375000
Si Si4 0.915570 0.474109 0.965146
Si Si5 0.000000 0.750000 0.553659
Si Si6 0.998335 0.061886 0.851797
Si Si7 0.224593 0.932340 0.898526
Si Si8 0.769934 0.391302 0.034868
O O1 0.794844 0.792463 0.300001
O O2 0.818266 0.638675 0.261497
O O3 0.919341 0.758998 0.236234
O O4 0.928395 0.708878 0.336177
O O5 0.728795 0.941065 0.330176
O O6 0.824782 0.940046 0.248979
O O7 0.950057 0.436689 0.908403
O O8 0.850212 0.549047 0.943621
O O9 0.854942 0.409410 0.999219
O O10 0.000000 0.500000 0.000000
O O11 0.910804 0.763314 0.584968
O O12 0.049020 0.008939 0.805540
O O13 0.913556 0.006407 0.859387
O O14 0.193451 0.967152 0.840769
#
# Coordination Sequence:
#
# PCOD9546348 Si02
#       8
#    16  16   4  16   8  16  16  16
#     4  10  21  37  56  83 119 151 192 236 285 348
#     4  10  20  36  58  85 113 154 196 233 288 355
#     4  10  24  36  52  84 116 152 180 238 292 334
#     4  10  21  41  62  87 119 150 205 259 296 364
#     4  11  20  39  60  84 122 161 182 249 288 360
#     4  11  21  40  61  89 122 155 200 241 312 360
#     4  10  21  36  64  84 112 161 194 242 305 359
#     4  10  21  38  61  86 116 155 195 248 300 356
#
# _framework density 17.886154000000001
#
# number of rings (size 3 to 8) (size 9 to 14) (size 15 to 20)
#    0.000    1.778    4.444    0.000    2.074    0.000 
#    2.667    0.000    0.000    0.000    0.000    0.000 
#    0.000    0.000    0.000    0.000    0.000    0.000 
#
# Total GULP energy -300696.089420 kJ/mol
# GULP energy per Si atom -5568.446100 kJ/mol
# Density = 1.784544 g / cm^3
# Si number density = 17.886154 Si / 1000 Ang^3
#
#
#
# Elastic Constant Matrix: (Units=GPa)
#
#
# Indices 1 2 3 4 5 6 
#
# 1 60.9570 3.3202 13.3521 0.0000 0.0000 2.8395
# 2 3.3202 60.9570 13.3521 0.0000 0.0000 -2.8395
# 3 13.3521 13.3521 63.7658 0.0000 0.0000 0.0000
# 4 0.0000 0.0000 0.0000 15.4341 0.0000 0.0000
# 5 0.0000 0.0000 0.0000 0.0000 15.4341 0.0000
# 6 2.8395 -2.8395 0.0000 0.0000 0.0000 19.7650
#
#
#
# Elastic Compliance Matrix: (Units=1/GPa)
#
#
# Indices 1 2 3 4 5 6 
#
# 1 0.017320 -0.000280 -0.003568 0.000000 0.000000 -0.002528
# 2 -0.000280 0.017320 -0.003568 0.000000 0.000000 0.002528
# 3 -0.003568 -0.003568 0.017177 0.000000 0.000000 0.000000
# 4 0.000000 0.000000 0.000000 0.064791 0.000000 0.000000
# 5 0.000000 0.000000 0.000000 0.000000 0.064791 0.000000
# 6 -0.002528 0.002528 0.000000 0.000000 0.000000 0.051321
#
#
# Mechanical properties :
#
#
# Convention : Reuss Voigt Hill
#
# Bulk Modulus (GPa) = 27.03845 27.30319 27.17082
# Shear Modulus (GPa) = 19.23971 20.50367 19.87169
#
# Velocity S-wave (km/s) = 3.28331 3.38944 3.33680
# Velocity P-wave (km/s) = 5.43353 5.53316 5.48357
#
# Compressibility (1/GPa) = 0.03698437
#
# Stress axis : x y z
#
# Youngs Moduli (GPa) = 57.73820 57.73820 58.21864
#
# Poissons Ratio (x) = 0.01614 0.20773
# Poissons Ratio (y) = 0.01614 0.20773
# Poissons Ratio (z) = 0.20601 0.20601
#
# Static dielectric constant tensor:
#      x y z
#    x 1.629890 0.000000 0.000000 
#    y 0.000000 1.629890 0.000000 
#    z 0.000000 0.000000 1.608420 
# 
# From -- ./inp_files/5384.got.cif
#   From: 2010.05.17/outbox.cif.g08.bks.cpg/sg88_3_cif.got.tgz:5384.got - 2010.06.03 19:11:41.
