data_PCOD9546477
_publ_section_title
;
Structure prediction by ZEFSAII (Michael W. Deem and Ramdas Pophale) SiO2 
 PCOD9546477
Probable space group: I 41/A
;
_chemical_formula_sum "Si O2"
_cell_formula_units_Z 64
_cell_length_a 10.925109
_cell_length_b 10.925109
_cell_length_c 22.326471
_cell_angle_alpha 90.000000
_cell_angle_beta 90.000000
_cell_angle_gamma 90.000000
_cell_volume 2664.843074
_symmetry_space_group_name_H-M "I 41/A"
_symmetry_group_IT_number 88
_space_group.IT_coordinate_system_code '2'
_symmetry_cell_setting 'tetragonal'
loop_
_space_group_symop_operation_xyz
x,y,z
3/4-y,1/4+x,1/4+z
-x,1/2-y,z
1/4+y,1/4-x,1/4+z
-x,-y,-z
1/4+y,3/4-x,3/4-z
x,1/2+y,-z
3/4-y,3/4+x,3/4-z
1/2+x,1/2+y,1/2+z
1/4-y,3/4+x,3/4+z
1/2-x,-y,1/2+z
3/4+y,3/4-x,3/4+z
1/2-x,1/2-y,1/2-z
3/4+y,1/4-x,1/4-z
1/2+x,y,1/2-z
1/4-y,1/4+x,1/4-z
loop_
_atom_site_type_symbol
_atom_site_label
_atom_site_fract_x
_atom_site_fract_y
_atom_site_fract_z
Si Si1 0.272608 0.895883 0.748768
Si Si2 0.869365 0.091205 0.131255
Si Si3 0.285556 0.278792 0.935161
Si Si4 0.684137 0.717221 0.189837
O O1 0.250000 0.750000 0.750000
O O2 0.188823 0.943434 0.804474
O O3 0.266725 0.923471 0.677527
O O4 0.407218 0.943845 0.769098
O O5 0.835514 0.233312 0.118532
O O6 0.229668 0.288949 0.868475
O O7 0.410756 0.355887 0.927178
O O8 0.348725 0.150407 0.950945
O O9 0.750000 0.750000 0.250000
#
# Coordination Sequence:
#
# PCOD9546477 Si02
#       4
#    16  16  16  16
#     4  10  21  39  67  96 134 181 231 292 357 409
#     4   9  20  40  64  90 132 180 232 290 349 421
#     4   9  20  37  62  95 131 168 233 282 341 428
#     4   9  19  38  64  90 131 181 214 288 357 411
#
# _framework density 24.016423
#
# number of rings (size 3 to 8) (size 9 to 14) (size 15 to 20)
#    0.000    2.750    0.000    1.500    3.500    2.000 
#    4.500    0.000   16.500    0.000    0.000    0.000 
#    0.000    0.000    0.000    0.000    0.000    0.000 
#
# Total GULP energy -178392.894425 kJ/mol
# GULP energy per Si atom -5574.777951 kJ/mol
# Density = 2.396176 g / cm^3
# Si number density = 24.016423 Si / 1000 Ang^3
#
#
#
# Elastic Constant Matrix: (Units=GPa)
#
#
# Indices 1 2 3 4 5 6 
#
# 1 75.4620 45.6053 44.4505 0.0000 0.0000 -3.6421
# 2 45.6053 75.4620 44.4505 0.0000 0.0000 3.6421
# 3 44.4505 44.4505 212.9673 0.0000 0.0000 0.0000
# 4 0.0000 0.0000 0.0000 34.8653 0.0000 0.0000
# 5 0.0000 0.0000 0.0000 0.0000 34.8653 0.0000
# 6 -3.6421 3.6421 0.0000 0.0000 0.0000 38.0527
#
#
#
# Elastic Compliance Matrix: (Units=1/GPa)
#
#
# Indices 1 2 3 4 5 6 
#
# 1 0.022025 -0.012270 -0.002036 0.000000 0.000000 0.003282
# 2 -0.012270 0.022025 -0.002036 0.000000 0.000000 -0.003282
# 3 -0.002036 -0.002036 0.005545 0.000000 0.000000 0.000000
# 4 0.000000 0.000000 0.000000 0.028682 0.000000 0.000000
# 5 0.000000 0.000000 0.000000 0.000000 0.028682 0.000000
# 6 0.003282 -0.003282 0.000000 0.000000 0.000000 0.026908
#
#
# Mechanical properties :
#
#
# Convention : Reuss Voigt Hill
#
# Bulk Modulus (GPa) = 59.13243 70.32267 64.72755
# Shear Modulus (GPa) = 29.03832 36.84899 32.94366
#
# Velocity S-wave (km/s) = 3.48099 3.92130 3.70768
# Velocity P-wave (km/s) = 6.38995 7.06022 6.73343
#
# Compressibility (1/GPa) = 0.01691119
#
# Stress axis : x y z
#
# Youngs Moduli (GPa) = 45.40393 45.40393 180.32682
#
# Poissons Ratio (x) = 0.55709 0.36716
# Poissons Ratio (y) = 0.55709 0.36716
# Poissons Ratio (z) = 0.09244 0.09244
#
# Static dielectric constant tensor:
#      x y z
#    x 1.642400 0.000000 0.000000 
#    y 0.000000 1.642400 0.000000 
#    z 0.000000 0.000000 2.257950 
# 
# From -- ./inp_files/4393.got.cif
#   From: 2010.05.17/outbox.cif.g08.bks.cpg/sg88_3_cif.got.tgz:4393.got - 2010.06.03 19:11:41.
