data_PCOD9546317
_publ_section_title
;
Structure prediction by ZEFSAII (Michael W. Deem and Ramdas Pophale) SiO2 
 PCOD9546317
Probable space group: I 41/A
;
_chemical_formula_sum "Si O2"
_cell_formula_units_Z 64
_cell_length_a 13.534658
_cell_length_b 13.534658
_cell_length_c 14.439250
_cell_angle_alpha 90.000000
_cell_angle_beta 90.000000
_cell_angle_gamma 90.000000
_cell_volume 2645.082416
_symmetry_space_group_name_H-M "I 41/A"
_symmetry_group_IT_number 88
_space_group.IT_coordinate_system_code '2'
_symmetry_cell_setting 'tetragonal'
loop_
_space_group_symop_operation_xyz
x,y,z
3/4-y,1/4+x,1/4+z
-x,1/2-y,z
1/4+y,1/4-x,1/4+z
-x,-y,-z
1/4+y,3/4-x,3/4-z
x,1/2+y,-z
3/4-y,3/4+x,3/4-z
1/2+x,1/2+y,1/2+z
1/4-y,3/4+x,3/4+z
1/2-x,-y,1/2+z
3/4+y,3/4-x,3/4+z
1/2-x,1/2-y,1/2-z
3/4+y,1/4-x,1/4-z
1/2+x,y,1/2-z
1/4-y,1/4+x,1/4-z
loop_
_atom_site_type_symbol
_atom_site_label
_atom_site_fract_x
_atom_site_fract_y
_atom_site_fract_z
Si Si1 0.361697 0.303965 0.172120
Si Si2 0.858995 0.797776 0.153763
Si Si3 0.158822 0.572984 0.852960
Si Si4 0.646252 0.031387 0.779894
O O1 0.434741 0.361600 0.101790
O O2 0.396883 0.191602 0.161124
O O3 0.249658 0.325565 0.143068
O O4 0.376028 0.352845 0.273053
O O5 0.862892 0.855615 0.250017
O O6 0.754100 0.821630 0.108259
O O7 0.243952 0.501484 0.809937
O O8 0.215337 0.623054 0.938398
#
# Coordination Sequence:
#
# PCOD9546317 Si02
#       4
#    16  16  16  16
#     4  10  20  33  52  77 103 134 169 205 249 299
#     4  10  20  33  52  77 103 134 169 205 249 299
#     4   9  19  34  51  73 102 134 167 207 252 296
#     4   9  19  34  51  73 102 134 167 207 252 296
#
# _framework density 24.195843
#
# number of rings (size 3 to 8) (size 9 to 14) (size 15 to 20)
#    0.000    2.500    0.000    1.500    0.000   12.000 
#    0.000    2.500    0.000    0.000    0.000   24.500 
#    0.000    0.000    0.000    0.000    0.000    0.000 
#
# Total GULP energy -178956.969829 kJ/mol
# GULP energy per Si atom -5592.405307 kJ/mol
# Density = 2.414077 g / cm^3
# Si number density = 24.195843 Si / 1000 Ang^3
#
#
#
# Elastic Constant Matrix: (Units=GPa)
#
#
# Indices 1 2 3 4 5 6 
#
# 1 64.9797 -0.8300 9.8199 0.0000 0.0000 8.1637
# 2 -0.8300 64.9797 9.8199 0.0000 0.0000 -8.1637
# 3 9.8199 9.8199 30.8259 0.0000 0.0000 0.0000
# 4 0.0000 0.0000 0.0000 19.7427 0.0000 0.0000
# 5 0.0000 0.0000 0.0000 0.0000 19.7427 0.0000
# 6 8.1637 -8.1637 0.0000 0.0000 0.0000 34.3821
#
#
#
# Elastic Compliance Matrix: (Units=1/GPa)
#
#
# Indices 1 2 3 4 5 6 
#
# 1 0.016710 0.000563 -0.005503 0.000000 0.000000 -0.003834
# 2 0.000563 0.016710 -0.005503 0.000000 0.000000 0.003834
# 3 -0.005503 -0.005503 0.035946 0.000000 0.000000 0.000000
# 4 0.000000 0.000000 0.000000 0.050652 0.000000 0.000000
# 5 0.000000 0.000000 0.000000 0.000000 0.050652 0.000000
# 6 -0.003834 0.003834 0.000000 0.000000 0.000000 0.030905
#
#
# Mechanical properties :
#
#
# Convention : Reuss Voigt Hill
#
# Bulk Modulus (GPa) = 20.62612 22.04498 21.33555
# Shear Modulus (GPa) = 20.95392 24.23853 22.59623
#
# Velocity S-wave (km/s) = 2.94600 3.16850 3.05927
# Velocity P-wave (km/s) = 4.48498 4.74518 4.61691
#
# Compressibility (1/GPa) = 0.04848222
#
# Stress axis : x y z
#
# Youngs Moduli (GPa) = 59.84494 59.84494 27.81948
#
# Poissons Ratio (x) = -0.03371 0.15308
# Poissons Ratio (y) = -0.03371 0.15308
# Poissons Ratio (z) = 0.32930 0.32930
#
# Static dielectric constant tensor:
#      x y z
#    x 1.944860 0.000000 0.000000 
#    y 0.000000 1.944860 0.000000 
#    z 0.000000 0.000000 1.933300 
# 
# From -- ./inp_files/3052.got.cif
#   From: 2010.05.17/outbox.cif.g08.bks.cpg/sg88_2_cif.got.tgz:3052.got - 2010.06.03 19:11:41.
