data_PCOD9546484
_publ_section_title
;
Structure prediction by ZEFSAII (Michael W. Deem and Ramdas Pophale) SiO2 
 PCOD9546484
Probable space group: I 41/A
;
_chemical_formula_sum "Si O2"
_cell_formula_units_Z 80
_cell_length_a 22.716014
_cell_length_b 22.716014
_cell_length_c 6.666518
_cell_angle_alpha 90.000000
_cell_angle_beta 90.000000
_cell_angle_gamma 90.000000
_cell_volume 3440.038566
_symmetry_space_group_name_H-M "I 41/A"
_symmetry_group_IT_number 88
_space_group.IT_coordinate_system_code '2'
_symmetry_cell_setting 'tetragonal'
loop_
_space_group_symop_operation_xyz
x,y,z
3/4-y,1/4+x,1/4+z
-x,1/2-y,z
1/4+y,1/4-x,1/4+z
-x,-y,-z
1/4+y,3/4-x,3/4-z
x,1/2+y,-z
3/4-y,3/4+x,3/4-z
1/2+x,1/2+y,1/2+z
1/4-y,3/4+x,3/4+z
1/2-x,-y,1/2+z
3/4+y,3/4-x,3/4+z
1/2-x,1/2-y,1/2-z
3/4+y,1/4-x,1/4-z
1/2+x,y,1/2-z
1/4-y,1/4+x,1/4-z
loop_
_atom_site_type_symbol
_atom_site_label
_atom_site_fract_x
_atom_site_fract_y
_atom_site_fract_z
Si Si1 0.084374 0.036479 0.171550
Si Si2 0.046033 0.571856 0.384772
Si Si3 0.800273 0.794994 0.869873
Si Si4 0.306250 0.438981 0.603644
Si Si5 0.861421 0.833471 0.235691
O O1 0.134143 0.937928 0.497548
O O2 0.075998 0.053816 0.402395
O O3 0.078089 0.969762 0.080973
O O4 0.142546 0.059098 0.063616
O O5 0.046683 0.509065 0.263737
O O6 0.081895 0.628301 0.298935
O O7 0.979016 0.594795 0.417362
O O8 0.813217 0.726710 0.832077
O O9 0.854351 0.819225 0.997514
O O10 0.312247 0.496025 0.737411
#
# Coordination Sequence:
#
# PCOD9546484 Si02
#       5
#    16  16  16  16  16
#     4  10  21  40  66 100 124 187 236 283 351 435
#     4  11  24  41  72 100 135 191 233 295 360 423
#     4  10  21  42  70  94 134 179 243 289 347 428
#     4  12  26  42  65 103 147 176 225 302 377 439
#     4  11  22  45  66  99 141 182 240 290 349 438
#
# _framework density 23.255552000000002
#
# number of rings (size 3 to 8) (size 9 to 14) (size 15 to 20)
#    0.000    1.200    4.000    2.400    0.000    8.400 
#    0.000    0.000    0.000    0.000    0.000    0.000 
#    0.000    0.000    0.000    0.000    0.000    0.000 
#
# Total GULP energy -223005.151102 kJ/mol
# GULP energy per Si atom -5575.128778 kJ/mol
# Density = 2.320262 g / cm^3
# Si number density = 23.255552 Si / 1000 Ang^3
#
#
#
# Elastic Constant Matrix: (Units=GPa)
#
#
# Indices 1 2 3 4 5 6 
#
# 1 176.9408 59.5727 61.2287 0.0000 0.0000 7.3527
# 2 59.5727 176.9408 61.2287 0.0000 0.0000 -7.3527
# 3 61.2287 61.2287 126.2781 0.0000 0.0000 0.0000
# 4 0.0000 0.0000 0.0000 45.6006 0.0000 0.0000
# 5 0.0000 0.0000 0.0000 0.0000 45.6006 0.0000
# 6 7.3527 -7.3527 0.0000 0.0000 0.0000 39.0944
#
#
#
# Elastic Compliance Matrix: (Units=1/GPa)
#
#
# Indices 1 2 3 4 5 6 
#
# 1 0.007186 -0.001540 -0.002737 0.000000 0.000000 -0.001641
# 2 -0.001540 0.007186 -0.002737 0.000000 0.000000 0.001641
# 3 -0.002737 -0.002737 0.010573 0.000000 0.000000 0.000000
# 4 0.000000 0.000000 0.000000 0.021930 0.000000 0.000000
# 5 0.000000 0.000000 0.000000 0.000000 0.021930 0.000000
# 6 -0.001641 0.001641 0.000000 0.000000 0.000000 0.026196
#
#
# Mechanical properties :
#
#
# Convention : Reuss Voigt Hill
#
# Bulk Modulus (GPa) = 91.61630 93.80221 92.70925
# Shear Modulus (GPa) = 44.37816 45.93443 45.15629
#
# Velocity S-wave (km/s) = 4.37313 4.44915 4.41130
# Velocity P-wave (km/s) = 8.06102 8.17412 8.11776
#
# Compressibility (1/GPa) = 0.01091509
#
# Stress axis : x y z
#
# Youngs Moduli (GPa) = 139.16764 139.16764 94.57624
#
# Poissons Ratio (x) = 0.21435 0.25888
# Poissons Ratio (y) = 0.21435 0.25888
# Poissons Ratio (z) = 0.38094 0.38094
#
# Static dielectric constant tensor:
#      x y z
#    x 1.924210 0.000000 0.000000 
#    y 0.000000 1.924210 0.000000 
#    z 0.000000 0.000000 1.992160 
# 
# From -- ./inp_files/668.got.cif
#   From: 2010.05.17/outbox.cif.g08.bks.cpg/sg88_1_cif.got.tgz:668.got - 2010.06.03 19:11:41.
