data_PCOD9546974
_publ_section_title
;
Structure prediction by ZEFSAII (Michael W. Deem and Ramdas Pophale) SiO2 
 PCOD9546974
Probable space group: P 4 2 2
;
_chemical_formula_sum "Si O2"
_cell_formula_units_Z 40
_cell_length_a 8.544956
_cell_length_b 8.544956
_cell_length_c 26.826161
_cell_angle_alpha 90.000000
_cell_angle_beta 90.000000
_cell_angle_gamma 90.000000
_cell_volume 1958.746296
_symmetry_space_group_name_H-M "P 4 2 2"
_symmetry_group_IT_number 89
_symmetry_cell_setting 'tetragonal'
loop_
_space_group_symop_operation_xyz
x,y,z
-y,x,z
-x,-y,z
y,-x,z
x,-y,-z
-x,y,-z
y,x,-z
-y,-x,-z
loop_
_atom_site_type_symbol
_atom_site_label
_atom_site_fract_x
_atom_site_fract_y
_atom_site_fract_z
Si Si1 0.557612 0.243139 0.325309
Si Si2 0.798876 0.170244 0.057291
Si Si3 0.753202 0.911322 0.758507
Si Si4 0.372322 0.274823 0.847451
Si Si5 0.000000 0.500000 0.411581
Si Si6 0.000000 0.741132 0.500000
O O1 0.678811 0.387292 0.322850
O O2 0.618645 0.136011 0.280227
O O3 0.550785 0.141254 0.375442
O O4 0.676794 0.243144 0.095661
O O5 0.982326 0.211494 0.065227
O O6 0.777446 0.222555 0.000000
O O7 0.694421 0.863810 0.813341
O O8 0.910567 0.807293 0.751529
O O9 0.556049 0.294913 0.836321
O O10 0.021559 0.640919 0.450113
O O11 0.849628 0.849628 0.500000
#
# Coordination Sequence:
#
# PCOD9546974 Si02
#       6
#     8   8   8   8   4   4
#     4  11  23  39  61  90 124 162 205 254 310 372
#     4   9  19  37  60  85 113 148 195 251 311 379
#     4  11  24  41  62  88 118 156 205 259 316 381
#     4  11  24  39  56  83 119 157 199 251 312 378
#     4  11  22  40  64  92 128 168 210 259 316 374
#     4  10  22  40  64  94 128 168 214 262 312 372
#
# _framework density 20.421225
#
# number of rings (size 3 to 8) (size 9 to 14) (size 15 to 20)
#    0.000    1.500    0.000    5.400    0.000    8.800 
#    0.000    5.000    0.000    4.800    0.000    0.000 
#    0.000    0.000    0.000    0.000    0.000    0.000 
#
# Total GULP energy -223352.529160 kJ/mol
# GULP energy per Si atom -5583.813229 kJ/mol
# Density = 2.037475 g / cm^3
# Si number density = 20.421225 Si / 1000 Ang^3
#
#
#
# Elastic Constant Matrix: (Units=GPa)
#
#
# Indices 1 2 3 4 5 6 
#
# 1 72.8423 46.9743 41.7383 0.0000 0.0000 0.0000
# 2 46.9743 72.8422 41.7382 0.0000 0.0000 0.0000
# 3 41.7383 41.7382 113.6842 0.0000 0.0000 0.0000
# 4 0.0000 0.0000 0.0000 67.3264 0.0000 0.0000
# 5 0.0000 0.0000 0.0000 0.0000 67.3266 0.0000
# 6 0.0000 0.0000 0.0000 0.0000 0.0000 28.7986
#
#
#
# Elastic Compliance Matrix: (Units=1/GPa)
#
#
# Indices 1 2 3 4 5 6 
#
# 1 0.024936 -0.013722 -0.004117 0.000000 0.000000 0.000000
# 2 -0.013722 0.024936 -0.004117 0.000000 0.000000 0.000000
# 3 -0.004117 -0.004117 0.011820 0.000000 0.000000 0.000000
# 4 0.000000 0.000000 0.000000 0.014853 0.000000 0.000000
# 5 0.000000 0.000000 0.000000 0.000000 0.014853 0.000000
# 6 0.000000 0.000000 0.000000 0.000000 0.000000 0.034724
#
#
# Mechanical properties :
#
#
# Convention : Reuss Voigt Hill
#
# Bulk Modulus (GPa) = 56.24467 57.80782 57.02624
# Shear Modulus (GPa) = 28.41535 41.28485 34.85010
#
# Velocity S-wave (km/s) = 3.73428 4.50117 4.13554
# Velocity P-wave (km/s) = 6.79670 7.44199 7.12665
#
# Compressibility (1/GPa) = 0.01777946
#
# Stress axis : x y z
#
# Youngs Moduli (GPa) = 40.10225 40.10223 84.60506
#
# Poissons Ratio (x) = 0.55027 0.34835
# Poissons Ratio (y) = 0.55027 0.34835
# Poissons Ratio (z) = 0.16512 0.16512
#
# Static dielectric constant tensor:
#      x y z
#    x 1.727280 0.000000 0.000000 
#    y 0.000000 1.727280 0.000000 
#    z 0.000000 0.000000 1.693840 
# 
# From -- ./inp_files/2843.got.cif
#   From: 2010.05.17/outbox.cif.g08.bks.cpg/sg89_2_cif.got.tgz:2843.got - 2010.06.03 19:15:31.
