data_PCOD9546729
_publ_section_title
;
Structure prediction by ZEFSAII (Michael W. Deem and Ramdas Pophale) SiO2 
 PCOD9546729
Probable space group: I 41/A
;
_chemical_formula_sum "Si O2"
_cell_formula_units_Z 48
_cell_length_a 8.774152
_cell_length_b 8.774152
_cell_length_c 23.859090
_cell_angle_alpha 90.000000
_cell_angle_beta 90.000000
_cell_angle_gamma 90.000000
_cell_volume 1836.809779
_symmetry_space_group_name_H-M "I 41/A"
_symmetry_group_IT_number 88
_space_group.IT_coordinate_system_code '2'
_symmetry_cell_setting 'tetragonal'
loop_
_space_group_symop_operation_xyz
x,y,z
3/4-y,1/4+x,1/4+z
-x,1/2-y,z
1/4+y,1/4-x,1/4+z
-x,-y,-z
1/4+y,3/4-x,3/4-z
x,1/2+y,-z
3/4-y,3/4+x,3/4-z
1/2+x,1/2+y,1/2+z
1/4-y,3/4+x,3/4+z
1/2-x,-y,1/2+z
3/4+y,3/4-x,3/4+z
1/2-x,1/2-y,1/2-z
3/4+y,1/4-x,1/4-z
1/2+x,y,1/2-z
1/4-y,1/4+x,1/4-z
loop_
_atom_site_type_symbol
_atom_site_label
_atom_site_fract_x
_atom_site_fract_y
_atom_site_fract_z
Si Si1 0.053750 0.581835 0.744979
Si Si2 0.215586 0.120553 0.797196
Si Si3 0.720473 0.144787 0.356564
O O1 0.129006 0.473830 0.699839
O O2 0.185979 0.606724 0.792181
O O3 0.000000 0.750000 0.728421
O O4 0.923058 0.481144 0.773356
O O5 0.250000 0.250000 0.750000
O O6 0.160027 0.124349 0.862447
O O7 0.573707 0.062678 0.385671
#
# Coordination Sequence:
#
# PCOD9546729 Si02
#       3
#    16  16  16
#     4  11  21  41  69  97 134 190 249 284 352 451
#     4  11  23  40  64 102 145 178 231 313 370 415
#     4   9  17  37  65  91 128 181 240 285 339 435
#
# _framework density 26.132263999999999
#
# number of rings (size 3 to 8) (size 9 to 14) (size 15 to 20)
#    0.000    1.667    6.667    2.000    0.000    0.000 
#    6.000    0.000    0.000    0.000    0.000    0.000 
#    0.000    0.000    0.000    0.000    0.000    0.000 
#
# Total GULP energy -133861.503744 kJ/mol
# GULP energy per Si atom -5577.562656 kJ/mol
# Density = 2.607279 g / cm^3
# Si number density = 26.132264 Si / 1000 Ang^3
#
#
#
# Elastic Constant Matrix: (Units=GPa)
#
#
# Indices 1 2 3 4 5 6 
#
# 1 108.2220 41.6366 51.8373 0.0000 0.0000 -12.8764
# 2 41.6366 108.2220 51.8373 0.0000 0.0000 12.8764
# 3 51.8373 51.8373 64.1834 0.0000 0.0000 0.0000
# 4 0.0000 0.0000 0.0000 49.9678 0.0000 0.0000
# 5 0.0000 0.0000 0.0000 0.0000 49.9678 0.0000
# 6 -12.8764 12.8764 0.0000 0.0000 0.0000 45.0515
#
#
#
# Elastic Compliance Matrix: (Units=1/GPa)
#
#
# Indices 1 2 3 4 5 6 
#
# 1 0.016004 -0.000881 -0.012214 0.000000 0.000000 0.004826
# 2 -0.000881 0.016004 -0.012214 0.000000 0.000000 -0.004826
# 3 -0.012214 -0.012214 0.035309 0.000000 0.000000 0.000000
# 4 0.000000 0.000000 0.000000 0.020013 0.000000 0.000000
# 5 0.000000 0.000000 0.000000 0.000000 0.020013 0.000000
# 6 0.004826 -0.004826 0.000000 0.000000 0.000000 0.024955
#
#
# Mechanical properties :
#
#
# Convention : Reuss Voigt Hill
#
# Bulk Modulus (GPa) = 59.88222 63.47221 61.67721
# Shear Modulus (GPa) = 26.52792 38.01848 32.27320
#
# Velocity S-wave (km/s) = 3.18958 3.81839 3.51806
# Velocity P-wave (km/s) = 6.04395 6.61677 6.33684
#
# Compressibility (1/GPa) = 0.01669945
#
# Stress axis : x y z
#
# Youngs Moduli (GPa) = 62.48566 62.48565 28.32153
#
# Poissons Ratio (x) = 0.05506 0.34591
# Poissons Ratio (y) = 0.05506 0.34591
# Poissons Ratio (z) = 0.76318 0.76318
#
# Static dielectric constant tensor:
#      x y z
#    x 2.064140 0.000000 0.000000 
#    y 0.000000 2.064140 0.000000 
#    z 0.000000 0.000000 2.335930 
# 
# From -- ./inp_files/6008.got.cif
#   From: 2010.05.17/outbox.cif.g08.bks.cpg/sg88_4_cif.got.tgz:6008.got - 2010.06.03 19:11:41.
