data_PCOD9546924
_publ_section_title
;
Structure prediction by ZEFSAII (Michael W. Deem and Ramdas Pophale) SiO2 
 PCOD9546924
Probable space group: P 4 2 2
;
_chemical_formula_sum "Si O2"
_cell_formula_units_Z 64
_cell_length_a 18.530930
_cell_length_b 18.530930
_cell_length_c 13.332747
_cell_angle_alpha 90.000000
_cell_angle_beta 90.000000
_cell_angle_gamma 90.000000
_cell_volume 4578.403545
_symmetry_space_group_name_H-M "P 4 2 2"
_symmetry_group_IT_number 89
_symmetry_cell_setting 'tetragonal'
loop_
_space_group_symop_operation_xyz
x,y,z
-y,x,z
-x,-y,z
y,-x,z
x,-y,-z
-x,y,-z
y,x,-z
-y,-x,-z
loop_
_atom_site_type_symbol
_atom_site_label
_atom_site_fract_x
_atom_site_fract_y
_atom_site_fract_z
Si Si1 0.639740 0.912431 0.494762
Si Si2 0.910902 0.421878 0.279208
Si Si3 0.952578 0.107647 0.284014
Si Si4 0.305651 0.907099 0.889612
Si Si5 0.920324 0.706042 0.124780
Si Si6 0.195519 0.918731 0.540273
Si Si7 0.414325 0.086284 0.713424
Si Si8 0.140503 0.850946 0.116941
O O1 0.602501 0.887586 0.391305
O O2 0.724335 0.894744 0.486349
O O3 0.606563 0.888818 0.601004
O O4 0.635040 0.000000 0.500000
O O5 0.888700 0.369917 0.187378
O O6 0.889404 0.504700 0.261165
O O7 0.998520 0.417474 0.284524
O O8 0.925626 0.177807 0.342305
O O9 0.930967 0.118957 0.169852
O O10 0.034838 0.091080 0.310507
O O11 0.234800 0.860459 0.866652
O O12 0.289061 0.992428 0.872542
O O13 0.317075 0.900461 0.010276
O O14 0.895056 0.646649 0.205194
O O15 0.887740 0.784678 0.150515
O O16 0.135987 0.864014 0.500000
O O17 0.185691 0.000000 0.500000
O O18 0.135177 0.864824 0.000000
#
# Coordination Sequence:
#
# PCOD9546924 Si02
#       8
#     8   8   8   8   8   8   8   8
#     4   9  18  28  42  61  78 102 130 163 209 257
#     4   9  16  29  45  61  83 100 128 166 211 259
#     4  11  22  31  42  56  73 104 146 189 228 258
#     4   9  17  30  44  61  79 108 138 174 214 252
#     4   9  18  29  44  61  81 104 141 175 213 254
#     4  11  21  32  44  57  80 109 142 184 219 254
#     4   9  17  28  44  63  81 102 125 169 212 253
#     4  10  20  32  45  58  80 109 139 179 219 259
#
# _framework density 13.978672
#
# number of rings (size 3 to 8) (size 9 to 14) (size 15 to 20)
#    0.000    2.375    1.250    1.875    1.750    5.625 
#    0.000    3.125    0.000    0.000    0.000    0.000 
#    0.000    0.000    0.000    0.000    0.000    0.625 
#
# Total GULP energy -356321.999325 kJ/mol
# GULP energy per Si atom -5567.531239 kJ/mol
# Density = 1.394686 g / cm^3
# Si number density = 13.978672 Si / 1000 Ang^3
#
#
#
# Elastic Constant Matrix: (Units=GPa)
#
#
# Indices 1 2 3 4 5 6 
#
# 1 33.4793 22.0948 27.0130 0.0000 0.0000 0.0000
# 2 22.0948 33.4789 27.0133 0.0000 0.0000 0.0000
# 3 27.0130 27.0133 74.0657 0.0000 0.0000 0.0000
# 4 0.0000 0.0000 0.0000 16.6112 0.0000 0.0000
# 5 0.0000 0.0000 0.0000 0.0000 16.6116 0.0000
# 6 0.0000 0.0000 0.0000 0.0000 0.0000 4.1519
#
#
#
# Elastic Compliance Matrix: (Units=1/GPa)
#
#
# Indices 1 2 3 4 5 6 
#
# 1 0.057859 -0.029981 -0.010167 0.000000 0.000000 0.000000
# 2 -0.029981 0.057860 -0.010168 0.000000 0.000000 0.000000
# 3 -0.010167 -0.010168 0.020918 0.000000 0.000000 0.000000
# 4 0.000000 0.000000 0.000000 0.060200 0.000000 0.000000
# 5 0.000000 0.000000 0.000000 0.000000 0.060199 0.000000
# 6 0.000000 0.000000 0.000000 0.000000 0.000000 0.240856
#
#
# Mechanical properties :
#
#
# Convention : Reuss Voigt Hill
#
# Bulk Modulus (GPa) = 27.77441 32.58510 30.17976
# Shear Modulus (GPa) = 8.18964 11.80178 9.99571
#
# Velocity S-wave (km/s) = 2.42309 2.90879 2.67698
# Velocity P-wave (km/s) = 5.26695 5.88579 5.58495
#
# Compressibility (1/GPa) = 0.03600436
#
# Stress axis : x y z
#
# Youngs Moduli (GPa) = 17.28347 17.28301 47.80480
#
# Poissons Ratio (x) = 0.51816 0.48605
# Poissons Ratio (y) = 0.51817 0.48610
# Poissons Ratio (z) = 0.17573 0.17574
#
# Static dielectric constant tensor:
#      x y z
#    x 1.450220 0.000000 0.000000 
#    y 0.000000 1.450220 0.000000 
#    z 0.000000 0.000000 1.514140 
# 
# From -- ./inp_files/1941.got.cif
#   From: 2010.05.17/outbox.cif.g08.bks.cpg/sg89_1_cif.got.tgz:1941.got - 2010.06.03 19:15:31.
