data_PCOD9546882
_publ_section_title
;
Structure prediction by ZEFSAII (Michael W. Deem and Ramdas Pophale) SiO2 
 PCOD9546882
Probable space group: I 41/A
;
_chemical_formula_sum "Si O2"
_cell_formula_units_Z 60
_cell_length_a 21.000000
_cell_length_b 21.000000
_cell_length_c 15.000000
_cell_angle_alpha 90.000000
_cell_angle_beta 90.000000
_cell_angle_gamma 90.000000
_cell_volume 6615.000000
_symmetry_space_group_name_H-M "I 41/A"
_symmetry_group_IT_number 88
_space_group.IT_coordinate_system_code '2'
_symmetry_cell_setting 'tetragonal'
loop_
_space_group_symop_operation_xyz
x,y,z
3/4-y,1/4+x,1/4+z
-x,1/2-y,z
1/4+y,1/4-x,1/4+z
-x,-y,-z
1/4+y,3/4-x,3/4-z
x,1/2+y,-z
3/4-y,3/4+x,3/4-z
1/2+x,1/2+y,1/2+z
1/4-y,3/4+x,3/4+z
1/2-x,-y,1/2+z
3/4+y,3/4-x,3/4+z
1/2-x,1/2-y,1/2-z
3/4+y,1/4-x,1/4-z
1/2+x,y,1/2-z
1/4-y,1/4+x,1/4-z
loop_
_atom_site_type_symbol
_atom_site_label
_atom_site_fract_x
_atom_site_fract_y
_atom_site_fract_z
Si Si1 0.000000 0.250000 0.439918
Si Si2 0.396344 0.163141 0.961237
Si Si3 0.065918 0.617861 0.604324
Si Si4 0.771768 0.735483 0.014270
Si Si5 0.197543 0.506148 0.019617
Si Si6 0.119539 0.511891 0.201613
Si Si7 0.005787 0.574946 0.425676
Si Si8 0.860170 0.531704 0.167304
O O1 0.945692 0.210957 0.492198
O O2 0.960690 0.309560 0.397117
O O3 0.334521 0.146561 0.019908
O O4 0.434272 0.099623 0.937383
O O5 0.376555 0.198966 0.871735
O O6 0.042686 0.586728 0.696409
O O7 0.034735 0.574959 0.524588
O O8 0.141645 0.612070 0.589461
O O9 0.729894 0.753869 0.101780
O O10 0.774895 0.802232 0.961275
O O11 0.739882 0.677898 0.958576
O O12 0.233197 0.574368 0.013928
O O13 0.155406 0.494514 0.931558
O O14 0.151141 0.506877 0.104546
O O15 0.249916 0.448842 0.027141
#
# Coordination Sequence:
#
# PCOD9546882 Si02
#       8
#     8  16  16  16  16  16  16  16
#     4  10  22  37  58  90 127 174 204 264 323 402
#     4  10  19  35  55  86 127 162 203 245 317 387
#     4  11  22  37  62  88 132 162 212 260 322 394
#     4  11  23  39  60  93 125 164 214 263 320 392
#     4  10  24  43  66  92 123 171 221 278 336 378
#     4  10  24  39  63  92 128 162 216 275 326 391
#     4  10  20  31  54  89 122 163 197 244 309 380
#     4  11  22  44  67  94 126 170 223 270 326 393
#
# _framework density 9.0702949999999998
#
# number of rings (size 3 to 8) (size 9 to 14) (size 15 to 20)
#    0.000    1.600    1.333    4.400    5.600    5.333 
#    0.000    0.000    0.000    0.000    0.000    0.933 
#    0.000    0.000    0.000    0.000    0.000    0.000 
#
# Total GULP energy -334388.074326 kJ/mol
# GULP energy per Si atom -5573.134572 kJ/mol
# Density = 0.904965 g / cm^3
# Si number density = 9.070295 Si / 1000 Ang^3
#
#
#
# Elastic Constant Matrix: (Units=GPa)
#
#
# Indices 1 2 3 4 5 6 
#
# 1 97.7191 49.2409 44.3972 0.0000 0.0000 -3.4031
# 2 49.2409 97.7191 44.3972 0.0000 0.0000 3.4031
# 3 44.3972 44.3972 66.0388 0.0000 0.0000 0.0000
# 4 0.0000 0.0000 0.0000 16.7244 0.0000 0.0000
# 5 0.0000 0.0000 0.0000 0.0000 16.7244 0.0000
# 6 -3.4031 3.4031 0.0000 0.0000 0.0000 35.1307
#
#
#
# Elastic Compliance Matrix: (Units=1/GPa)
#
#
# Indices 1 2 3 4 5 6 
#
# 1 0.016186 -0.004726 -0.007704 0.000000 0.000000 0.002026
# 2 -0.004726 0.016186 -0.007704 0.000000 0.000000 -0.002026
# 3 -0.007704 -0.007704 0.025501 0.000000 0.000000 0.000000
# 4 0.000000 0.000000 0.000000 0.059793 0.000000 0.000000
# 5 0.000000 0.000000 0.000000 0.000000 0.059793 0.000000
# 6 0.002026 -0.002026 0.000000 0.000000 0.000000 0.028858
#
#
# Mechanical properties :
#
#
# Convention : Reuss Voigt Hill
#
# Bulk Modulus (GPa) = 56.80542 59.72752 58.26647
# Shear Modulus (GPa) = 19.80563 21.94534 20.87549
#
# Velocity S-wave (km/s) = 3.30780 3.48190 3.39597
# Velocity P-wave (km/s) = 6.78017 7.01150 6.89680
#
# Compressibility (1/GPa) = 0.01760395
#
# Stress axis : x y z
#
# Youngs Moduli (GPa) = 61.78241 61.78241 39.21364
#
# Poissons Ratio (x) = 0.29201 0.30210
# Poissons Ratio (y) = 0.29201 0.30210
# Poissons Ratio (z) = 0.47598 0.47598
#
# Static dielectric constant tensor:
#      x y z
#    x 1.635450 0.000000 0.000000 
#    y 0.000000 1.635450 0.000000 
#    z 0.000000 0.000000 1.570640 
# 
# From -- ./inp_files/3388.got.cif
#   From: 2010.05.17/outbox.ucp.g08.bks.cvg/sg88_2_cif.got.tgz:3388.got - 2010.06.11 10:35:41.
