data_PCOD9546599
_publ_section_title
;
Structure prediction by ZEFSAII (Michael W. Deem and Ramdas Pophale) SiO2 
 PCOD9546599
Probable space group: I 41/A
;
_chemical_formula_sum "Si O2"
_cell_formula_units_Z 88
_cell_length_a 11.586078
_cell_length_b 11.586078
_cell_length_c 29.391019
_cell_angle_alpha 90.000000
_cell_angle_beta 90.000000
_cell_angle_gamma 90.000000
_cell_volume 3945.368196
_symmetry_space_group_name_H-M "I 41/A"
_symmetry_group_IT_number 88
_space_group.IT_coordinate_system_code '2'
_symmetry_cell_setting 'tetragonal'
loop_
_space_group_symop_operation_xyz
x,y,z
3/4-y,1/4+x,1/4+z
-x,1/2-y,z
1/4+y,1/4-x,1/4+z
-x,-y,-z
1/4+y,3/4-x,3/4-z
x,1/2+y,-z
3/4-y,3/4+x,3/4-z
1/2+x,1/2+y,1/2+z
1/4-y,3/4+x,3/4+z
1/2-x,-y,1/2+z
3/4+y,3/4-x,3/4+z
1/2-x,1/2-y,1/2-z
3/4+y,1/4-x,1/4-z
1/2+x,y,1/2-z
1/4-y,1/4+x,1/4-z
loop_
_atom_site_type_symbol
_atom_site_label
_atom_site_fract_x
_atom_site_fract_y
_atom_site_fract_z
Si Si1 0.939795 0.635274 0.305484
Si Si2 0.780040 0.384071 0.244188
Si Si3 0.000000 0.250000 0.386106
Si Si4 0.464966 0.552704 0.296279
Si Si5 0.773137 0.523052 0.577597
Si Si6 0.881223 0.547263 0.666814
O O1 0.963474 0.614776 0.252397
O O2 0.802479 0.634454 0.313041
O O3 0.000000 0.750000 0.320577
O O4 0.010134 0.536677 0.331705
O O5 0.750000 0.250000 0.250000
O O6 0.888341 0.437228 0.215245
O O7 0.787939 0.428533 0.296024
O O8 0.672694 0.438865 0.216584
O O9 0.094912 0.184064 0.417727
O O10 0.071578 0.334803 0.354082
O O11 0.594030 0.521253 0.312815
O O12 0.778892 0.512375 0.631775
#
# Coordination Sequence:
#
# PCOD9546599 Si02
#       6
#    16  16   8  16  16  16
#     4  11  24  41  69 101 143 185 240 301 373 451
#     4  11  26  45  74 102 143 192 248 310 371 455
#     4  10  24  44  74 100 143 191 242 312 374 460
#     4  10  22  46  67  99 140 189 240 300 379 451
#     4  10  25  43  65 103 140 186 240 298 374 441
#     4  11  26  42  71 102 142 184 245 299 378 442
#
# _framework density 22.304635999999999
#
# number of rings (size 3 to 8) (size 9 to 14) (size 15 to 20)
#    0.000    1.455    2.727    0.000   10.182    4.364 
#    0.000    0.000    0.000    2.182    0.000    0.000 
#    0.000    0.000    0.000    0.000    0.000    0.000 
#
# Total GULP energy -245196.194580 kJ/mol
# GULP energy per Si atom -5572.640786 kJ/mol
# Density = 2.225387 g / cm^3
# Si number density = 22.304636 Si / 1000 Ang^3
#
#
#
# Elastic Constant Matrix: (Units=GPa)
#
#
# Indices 1 2 3 4 5 6 
#
# 1 99.6303 44.5768 11.0763 0.0000 0.0000 -0.0778
# 2 44.5768 99.6303 11.0763 0.0000 0.0000 0.0778
# 3 11.0763 11.0763 91.6122 0.0000 0.0000 0.0000
# 4 0.0000 0.0000 0.0000 16.6401 0.0000 0.0000
# 5 0.0000 0.0000 0.0000 0.0000 16.6401 0.0000
# 6 -0.0778 0.0778 0.0000 0.0000 0.0000 33.8458
#
#
#
# Elastic Compliance Matrix: (Units=1/GPa)
#
#
# Indices 1 2 3 4 5 6 
#
# 1 0.012615 -0.005549 -0.000854 0.000000 0.000000 0.000042
# 2 -0.005549 0.012615 -0.000854 0.000000 0.000000 -0.000042
# 3 -0.000854 -0.000854 0.011122 0.000000 0.000000 0.000000
# 4 0.000000 0.000000 0.000000 0.060096 0.000000 0.000000
# 5 0.000000 0.000000 0.000000 0.000000 0.060096 0.000000
# 6 0.000042 -0.000042 0.000000 0.000000 0.000000 0.029546
#
#
# Mechanical properties :
#
#
# Convention : Reuss Voigt Hill
#
# Bulk Modulus (GPa) = 45.79496 47.14794 46.47145
# Shear Modulus (GPa) = 24.05189 28.36810 26.21000
#
# Velocity S-wave (km/s) = 3.28737 3.57017 3.43168
# Velocity P-wave (km/s) = 5.91483 6.17890 6.04831
#
# Compressibility (1/GPa) = 0.02183646
#
# Stress axis : x y z
#
# Youngs Moduli (GPa) = 79.27081 79.27080 89.91073
#
# Poissons Ratio (x) = 0.43990 0.07681
# Poissons Ratio (y) = 0.43990 0.07681
# Poissons Ratio (z) = 0.06772 0.06772
#
# Static dielectric constant tensor:
#      x y z
#    x 1.866460 0.000000 0.000000 
#    y 0.000000 1.866460 0.000000 
#    z 0.000000 0.000000 1.810750 
# 
# From -- ./inp_files/6415.got.cif
#   From: 2010.05.17/outbox.cif.g08.bks.cpg/sg88_4_cif.got.tgz:6415.got - 2010.06.03 19:11:41.
