data_PCOD9546556
_publ_section_title
;
Structure prediction by ZEFSAII (Michael W. Deem and Ramdas Pophale) SiO2 
 PCOD9546556
Probable space group: I 41/A
;
_chemical_formula_sum "Si O2"
_cell_formula_units_Z 96
_cell_length_a 13.370509
_cell_length_b 13.370509
_cell_length_c 24.517232
_cell_angle_alpha 90.000000
_cell_angle_beta 90.000000
_cell_angle_gamma 90.000000
_cell_volume 4382.958091
_symmetry_space_group_name_H-M "I 41/A"
_symmetry_group_IT_number 88
_space_group.IT_coordinate_system_code '2'
_symmetry_cell_setting 'tetragonal'
loop_
_space_group_symop_operation_xyz
x,y,z
3/4-y,1/4+x,1/4+z
-x,1/2-y,z
1/4+y,1/4-x,1/4+z
-x,-y,-z
1/4+y,3/4-x,3/4-z
x,1/2+y,-z
3/4-y,3/4+x,3/4-z
1/2+x,1/2+y,1/2+z
1/4-y,3/4+x,3/4+z
1/2-x,-y,1/2+z
3/4+y,3/4-x,3/4+z
1/2-x,1/2-y,1/2-z
3/4+y,1/4-x,1/4-z
1/2+x,y,1/2-z
1/4-y,1/4+x,1/4-z
loop_
_atom_site_type_symbol
_atom_site_label
_atom_site_fract_x
_atom_site_fract_y
_atom_site_fract_z
Si Si1 0.974790 0.547735 0.170673
Si Si2 0.363313 0.272798 0.841139
Si Si3 0.000000 0.250000 0.303673
Si Si4 0.658199 0.394506 0.500890
Si Si5 0.667879 0.519771 0.866959
Si Si6 0.312937 0.118465 0.164010
Si Si7 0.000000 0.750000 0.510844
O O1 0.930466 0.466785 0.211299
O O2 0.885930 0.563715 0.127997
O O3 0.068623 0.514272 0.135336
O O4 0.995350 0.650316 0.203235
O O5 0.427901 0.357396 0.873025
O O6 0.254369 0.314674 0.851145
O O7 0.405420 0.258399 0.780798
O O8 0.081664 0.186493 0.270920
O O9 0.074810 0.334081 0.331350
O O10 0.734009 0.413706 0.551622
O O11 0.627547 0.496167 0.469241
O O12 0.755241 0.454768 0.894441
#
# Coordination Sequence:
#
# PCOD9546556 Si02
#       7
#    16  16   8  16  16  16   8
#     4  11  25  42  65 100 138 179 232 286 351 418
#     4   9  20  38  63  92 131 174 223 274 341 431
#     4  12  25  44  79  95 135 184 235 285 350 416
#     4  11  26  46  73 101 139 185 235 292 360 409
#     4  11  25  42  68  98 135 176 232 288 354 418
#     4  11  27  45  67 104 138 179 237 296 344 424
#     4  10  22  40  62  99 143 178 229 279 348 432
#
# _framework density 21.903016000000001
#
# number of rings (size 3 to 8) (size 9 to 14) (size 15 to 20)
#    0.000    1.500    1.667    3.000    7.000    3.333 
#    0.000    0.000    0.000    0.000    0.000    0.000 
#    0.000    0.000    0.000    0.000    0.000    0.000 
#
# Total GULP energy -267692.710284 kJ/mol
# GULP energy per Si atom -5576.931464 kJ/mol
# Density = 2.185316 g / cm^3
# Si number density = 21.903016 Si / 1000 Ang^3
#
#
#
# Elastic Constant Matrix: (Units=GPa)
#
#
# Indices 1 2 3 4 5 6 
#
# 1 45.7119 40.5543 21.9907 0.0000 0.0000 23.9939
# 2 40.5543 45.7119 21.9907 0.0000 0.0000 -23.9939
# 3 21.9907 21.9907 105.2568 0.0000 0.0000 0.0000
# 4 0.0000 0.0000 0.0000 9.4118 0.0000 0.0000
# 5 0.0000 0.0000 0.0000 0.0000 9.4118 0.0000
# 6 23.9939 -23.9939 0.0000 0.0000 0.0000 20.8585
#
#
#
# Elastic Compliance Matrix: (Units=1/GPa)
#
#
# Indices 1 2 3 4 5 6 
#
# 1 -0.003504 0.016478 -0.002711 0.000000 0.000000 0.022986
# 2 0.016478 -0.003504 -0.002711 0.000000 0.000000 -0.022986
# 3 -0.002711 -0.002711 0.010633 0.000000 0.000000 0.000000
# 4 0.000000 0.000000 0.000000 0.106250 0.000000 0.000000
# 5 0.000000 0.000000 0.000000 0.000000 0.106250 0.000000
# 6 0.022986 -0.022986 0.000000 0.000000 0.000000 -0.004941
#
#
# Mechanical properties :
#
#
# Convention : Reuss Voigt Hill
#
# Bulk Modulus (GPa) = 38.85181 40.63909 39.74545
# Shear Modulus (GPa) = 25.29732 15.41273 20.35503
#
# Velocity S-wave (km/s) = 3.40217 2.65558 3.05179
# Velocity P-wave (km/s) = 5.76278 5.29123 5.53203
#
# Compressibility (1/GPa) = 0.02573882
#
# Stress axis : x y z
#
# Youngs Moduli (GPa) = -285.36687 -285.36687 94.04522
#
# Poissons Ratio (x) = 4.70234 0.25492
# Poissons Ratio (y) = 4.70234 0.25492
# Poissons Ratio (z) = -0.77351 -0.77351
#
# Static dielectric constant tensor:
#      x y z
#    x 1.977480 0.000000 0.000000 
#    y 0.000000 1.977480 0.000000 
#    z 0.000000 0.000000 1.851880 
# 
# From -- ./inp_files/4778.got.cif
#   From: 2010.05.17/outbox.cif.g08.bks.cpg/sg88_3_cif.got.tgz:4778.got - 2010.06.03 19:11:41.
