data_PCOD9546389
_publ_section_title
;
Structure prediction by ZEFSAII (Michael W. Deem and Ramdas Pophale) SiO2 
 PCOD9546389
Probable space group: I 41/A
;
_chemical_formula_sum "Si O2"
_cell_formula_units_Z 96
_cell_length_a 13.922567
_cell_length_b 13.922567
_cell_length_c 23.444897
_cell_angle_alpha 90.000000
_cell_angle_beta 90.000000
_cell_angle_gamma 90.000000
_cell_volume 4544.508941
_symmetry_space_group_name_H-M "I 41/A"
_symmetry_group_IT_number 88
_space_group.IT_coordinate_system_code '2'
_symmetry_cell_setting 'tetragonal'
loop_
_space_group_symop_operation_xyz
x,y,z
3/4-y,1/4+x,1/4+z
-x,1/2-y,z
1/4+y,1/4-x,1/4+z
-x,-y,-z
1/4+y,3/4-x,3/4-z
x,1/2+y,-z
3/4-y,3/4+x,3/4-z
1/2+x,1/2+y,1/2+z
1/4-y,3/4+x,3/4+z
1/2-x,-y,1/2+z
3/4+y,3/4-x,3/4+z
1/2-x,1/2-y,1/2-z
3/4+y,1/4-x,1/4-z
1/2+x,y,1/2-z
1/4-y,1/4+x,1/4-z
loop_
_atom_site_type_symbol
_atom_site_label
_atom_site_fract_x
_atom_site_fract_y
_atom_site_fract_z
Si Si1 0.546391 0.462299 0.695199
Si Si2 0.710292 0.635609 0.298680
Si Si3 0.058332 0.148934 0.900685
Si Si4 0.088531 0.115686 0.123885
Si Si5 0.353760 0.561069 0.740931
Si Si6 0.100901 0.289529 0.721635
O O1 0.514550 0.421088 0.633121
O O2 0.616323 0.548764 0.677125
O O3 0.459065 0.512716 0.729399
O O4 0.578822 0.371684 0.731572
O O5 0.643219 0.648642 0.353558
O O6 0.712357 0.533361 0.266069
O O7 0.817442 0.664711 0.317595
O O8 0.657728 0.704793 0.253412
O O9 0.114098 0.112546 0.957063
O O10 0.000000 0.250000 0.909222
O O11 0.125971 0.223759 0.130087
O O12 0.129120 0.078196 0.065072
O O13 0.000000 0.250000 0.698932
#
# Coordination Sequence:
#
# PCOD9546389 Si02
#       6
#    16  16  16  16  16  16
#     4  10  20  40  63  88 129 165 217 262 331 396
#     4  10  22  40  66  90 127 169 218 269 329 391
#     4  11  21  40  65  94 129 174 224 269 329 403
#     4   9  20  37  59  93 133 168 204 268 333 380
#     4  10  22  38  62  94 130 170 216 270 324 405
#     4  11  19  41  70  89 120 174 213 272 338 384
#
# _framework density 21.124393999999999
#
# number of rings (size 3 to 8) (size 9 to 14) (size 15 to 20)
#    0.000    1.833    5.000    0.000    4.667    4.667 
#    3.000    3.333    3.667    0.000    0.000    0.000 
#    0.000    0.000    0.000    0.000    0.000    0.000 
#
# Total GULP energy -267214.730121 kJ/mol
# GULP energy per Si atom -5566.973544 kJ/mol
# Density = 2.107631 g / cm^3
# Si number density = 21.124394 Si / 1000 Ang^3
#
#
#
# Elastic Constant Matrix: (Units=GPa)
#
#
# Indices 1 2 3 4 5 6 
#
# 1 77.0415 34.1140 10.2171 0.0000 0.0000 4.3016
# 2 34.1140 77.0415 10.2171 0.0000 0.0000 -4.3016
# 3 10.2171 10.2171 24.8755 0.0000 0.0000 0.0000
# 4 0.0000 0.0000 0.0000 14.0483 0.0000 0.0000
# 5 0.0000 0.0000 0.0000 0.0000 14.0483 0.0000
# 6 4.3016 -4.3016 0.0000 0.0000 0.0000 6.9838
#
#
#
# Elastic Compliance Matrix: (Units=1/GPa)
#
#
# Indices 1 2 3 4 5 6 
#
# 1 0.018153 -0.008422 -0.003997 0.000000 0.000000 -0.016369
# 2 -0.008422 0.018153 -0.003997 0.000000 0.000000 0.016369
# 3 -0.003997 -0.003997 0.043483 0.000000 0.000000 0.000000
# 4 0.000000 0.000000 0.000000 0.071183 0.000000 0.000000
# 5 0.000000 0.000000 0.000000 0.000000 0.071183 0.000000
# 6 -0.016369 0.016369 0.000000 0.000000 0.000000 0.163353
#
#
# Mechanical properties :
#
#
# Convention : Reuss Voigt Hill
#
# Bulk Modulus (GPa) = 21.29551 32.00613 26.65082
# Shear Modulus (GPa) = 11.52088 15.31010 13.41549
#
# Velocity S-wave (km/s) = 2.33788 2.69506 2.52280
# Velocity P-wave (km/s) = 4.17019 4.98684 4.59669
#
# Compressibility (1/GPa) = 0.04695826
#
# Stress axis : x y z
#
# Youngs Moduli (GPa) = 55.08604 55.08604 22.99725
#
# Poissons Ratio (x) = 0.46395 0.09192
# Poissons Ratio (y) = 0.46395 0.09192
# Poissons Ratio (z) = 0.22017 0.22017
#
# Static dielectric constant tensor:
#      x y z
#    x 1.814420 0.000000 0.000000 
#    y 0.000000 1.814420 0.000000 
#    z 0.000000 0.000000 1.747590 
# 
# From -- ./inp_files/4719.got.cif
#   From: 2010.05.17/outbox.cif.g08.bks.cpg/sg88_3_cif.got.tgz:4719.got - 2010.06.03 19:11:41.
