data_PCOD9546028
_publ_section_title
;
Structure prediction by ZEFSAII (Michael W. Deem and Ramdas Pophale) SiO2 
 PCOD9546028
Probable space group: I 4/M
;
_chemical_formula_sum "Si O2"
_cell_formula_units_Z 56
_cell_length_a 9.684032
_cell_length_b 9.684032
_cell_length_c 24.365230
_cell_angle_alpha 90.000000
_cell_angle_beta 90.000000
_cell_angle_gamma 90.000000
_cell_volume 2284.982862
_symmetry_space_group_name_H-M "I 4/M"
_symmetry_group_IT_number 87
_symmetry_cell_setting 'tetragonal'
loop_
_space_group_symop_operation_xyz
x,y,z
-y,x,z
-x,-y,z
y,-x,z
-x,-y,-z
y,-x,-z
x,y,-z
-y,x,-z
1/2+x,1/2+y,1/2+z
1/2-y,1/2+x,1/2+z
1/2-x,1/2-y,1/2+z
1/2+y,1/2-x,1/2+z
1/2-x,1/2-y,1/2-z
1/2+y,1/2-x,1/2-z
1/2+x,1/2+y,1/2-z
1/2-y,1/2+x,1/2-z
loop_
_atom_site_type_symbol
_atom_site_label
_atom_site_fract_x
_atom_site_fract_y
_atom_site_fract_z
Si Si1 0.198405 0.878144 0.500000
Si Si2 0.095204 0.203929 0.711499
Si Si3 0.167858 0.491792 0.323299
Si Si4 0.536137 0.163141 0.441592
O O1 0.182326 0.045059 0.500000
O O2 0.297031 0.834894 0.449137
O O3 0.175292 0.327699 0.684086
O O4 0.936213 0.174072 0.696660
O O5 0.068909 0.252288 0.774808
O O6 0.218197 0.521695 0.384708
O O7 0.000000 0.500000 0.317412
O O8 0.482054 0.221034 0.500000
O O9 0.500000 0.000000 0.440932
#
# Coordination Sequence:
#
# PCOD9546028 Si02
#       4
#     8  16  16  16
#     4   9  17  32  52  82 115 137 176 232 284 337
#     4  11  23  38  57  85 117 150 191 237 290 346
#     4  11  20  37  60  82 113 151 191 239 287 342
#     4   8  18  36  52  75 109 146 188 220 271 342
#
# _framework density 24.507842
#
# number of rings (size 3 to 8) (size 9 to 14) (size 15 to 20)
#    0.857    1.286    2.857    0.857    0.000    2.286 
#    5.143    2.857    0.000    0.000    0.000    2.000 
#    0.000    0.000    0.000    0.000    0.000    0.000 
#
# Total GULP energy -156082.851708 kJ/mol
# GULP energy per Si atom -5574.387561 kJ/mol
# Density = 2.445206 g / cm^3
# Si number density = 24.507842 Si / 1000 Ang^3
#
#
#
# Elastic Constant Matrix: (Units=GPa)
#
#
# Indices 1 2 3 4 5 6 
#
# 1 45.0262 29.0790 -19.8023 0.0000 0.0000 17.8757
# 2 29.0790 45.0262 -19.8023 0.0000 0.0000 -17.8758
# 3 -19.8023 -19.8023 121.6145 0.0000 0.0000 0.0000
# 4 0.0000 0.0000 0.0000 0.4323 0.0000 0.0000
# 5 0.0000 0.0000 0.0000 0.0000 0.4323 0.0000
# 6 17.8757 -17.8758 0.0000 0.0000 0.0000 19.4874
#
#
#
# Elastic Compliance Matrix: (Units=1/GPa)
#
#
# Indices 1 2 3 4 5 6 
#
# 1 -0.022288 0.037068 0.002407 0.000000 0.000000 0.054447
# 2 0.037068 -0.022288 0.002407 0.000000 0.000000 -0.054447
# 3 0.002407 0.002407 0.009006 0.000000 0.000000 0.000000
# 4 0.000000 0.000000 0.000000 2.313292 0.000002 0.000000
# 5 0.000000 0.000000 0.000000 0.000002 2.313295 0.000000
# 6 0.054447 -0.054447 0.000000 0.000000 0.000000 -0.048573
#
#
# Mechanical properties :
#
#
# Convention : Reuss Voigt Hill
#
# Bulk Modulus (GPa) = 20.74933 21.17954 20.96444
# Shear Modulus (GPa) = 1.11738 18.88323 10.00031
#
# Velocity S-wave (km/s) = 0.67596 2.77880 2.02220
# Velocity P-wave (km/s) = 3.01563 4.35388 3.74502
#
# Compressibility (1/GPa) = 0.04819432
#
# Stress axis : x y z
#
# Youngs Moduli (GPa) = -44.86784 -44.86783 111.03143
#
# Poissons Ratio (x) = 1.66317 -0.26722
# Poissons Ratio (y) = 1.66317 -0.26722
# Poissons Ratio (z) = 0.10798 0.10798
#
# Static dielectric constant tensor:
#      x y z
#    x 1.992930 0.000000 0.000000 
#    y 0.000000 1.992930 0.000000 
#    z 0.000000 0.000000 2.014580 
# 
# From -- ./inp_files/6107.got.cif
#   From: 2010.05.17/outbox.cif.g08.bks.cpg/sg87_4_cif.got.tgz:6107.got - 2010.06.03 19:07:00.
