data_PCOD9546767
_publ_section_title
;
Structure prediction by ZEFSAII (Michael W. Deem and Ramdas Pophale) SiO2 
 PCOD9546767
Probable space group: I 41/A
;
_chemical_formula_sum "Si O2"
_cell_formula_units_Z 72
_cell_length_a 13.217359
_cell_length_b 13.217359
_cell_length_c 17.136220
_cell_angle_alpha 90.000000
_cell_angle_beta 90.000000
_cell_angle_gamma 90.000000
_cell_volume 2993.673282
_symmetry_space_group_name_H-M "I 41/A"
_symmetry_group_IT_number 88
_space_group.IT_coordinate_system_code '2'
_symmetry_cell_setting 'tetragonal'
loop_
_space_group_symop_operation_xyz
x,y,z
3/4-y,1/4+x,1/4+z
-x,1/2-y,z
1/4+y,1/4-x,1/4+z
-x,-y,-z
1/4+y,3/4-x,3/4-z
x,1/2+y,-z
3/4-y,3/4+x,3/4-z
1/2+x,1/2+y,1/2+z
1/4-y,3/4+x,3/4+z
1/2-x,-y,1/2+z
3/4+y,3/4-x,3/4+z
1/2-x,1/2-y,1/2-z
3/4+y,1/4-x,1/4-z
1/2+x,y,1/2-z
1/4-y,1/4+x,1/4-z
loop_
_atom_site_type_symbol
_atom_site_label
_atom_site_fract_x
_atom_site_fract_y
_atom_site_fract_z
Si Si1 0.291319 0.995923 0.527316
Si Si2 0.038064 0.097867 0.133279
Si Si3 0.000000 0.250000 0.811292
Si Si4 0.884327 0.564618 0.626603
Si Si5 0.970285 0.541089 0.271872
O O1 0.384243 0.969073 0.584195
O O2 0.180962 0.951001 0.549454
O O3 0.322067 0.950143 0.444146
O O4 0.263330 0.113209 0.534326
O O5 0.102279 0.194828 0.163348
O O6 0.989715 0.030802 0.201202
O O7 0.088640 0.204643 0.864766
O O8 0.036853 0.344702 0.758701
O O9 0.957434 0.473909 0.654093
#
# Coordination Sequence:
#
# PCOD9546767 Si02
#       5
#    16  16   8  16  16
#     4  12  26  47  75 110 155 203 259 330 397 469
#     4  11  23  42  69 113 150 194 250 313 393 464
#     4  12  28  50  77 117 154 210 268 318 402 472
#     4  12  26  49  74 113 157 205 260 330 389 470
#     4  12  27  47  77 109 150 209 255 320 391 464
#
# _framework density 24.050722
#
# number of rings (size 3 to 8) (size 9 to 14) (size 15 to 20)
#    0.000    0.222    6.667    1.333    3.111    3.556 
#    0.000    0.000    0.000    0.000    0.000    0.000 
#    0.000    0.000    0.000    0.000    0.000    0.000 
#
# Total GULP energy -201367.603338 kJ/mol
# GULP energy per Si atom -5593.544537 kJ/mol
# Density = 2.399598 g / cm^3
# Si number density = 24.050722 Si / 1000 Ang^3
#
#
#
# Elastic Constant Matrix: (Units=GPa)
#
#
# Indices 1 2 3 4 5 6 
#
# 1 147.5490 39.5192 30.7837 0.0000 0.0000 -5.0583
# 2 39.5192 147.5490 30.7837 0.0000 0.0000 5.0583
# 3 30.7837 30.7837 31.5252 0.0000 0.0000 0.0000
# 4 0.0000 0.0000 0.0000 30.4769 0.0000 0.0000
# 5 0.0000 0.0000 0.0000 0.0000 30.4769 0.0000
# 6 -5.0583 5.0583 0.0000 0.0000 0.0000 40.9097
#
#
#
# Elastic Compliance Matrix: (Units=1/GPa)
#
#
# Indices 1 2 3 4 5 6 
#
# 1 0.008621 -0.000744 -0.007692 0.000000 0.000000 0.001158
# 2 -0.000744 0.008621 -0.007692 0.000000 0.000000 -0.001158
# 3 -0.007692 -0.007692 0.046743 0.000000 0.000000 0.000000
# 4 0.000000 0.000000 0.000000 0.032812 0.000000 0.000000
# 5 0.000000 0.000000 0.000000 0.000000 0.032812 0.000000
# 6 0.001158 -0.001158 0.000000 0.000000 0.000000 0.024730
#
#
# Mechanical properties :
#
#
# Convention : Reuss Voigt Hill
#
# Bulk Modulus (GPa) = 31.51651 58.75517 45.13584
# Shear Modulus (GPa) = 25.35867 35.40847 30.38357
#
# Velocity S-wave (km/s) = 3.25065 3.84114 3.55817
# Velocity P-wave (km/s) = 5.21743 6.64494 5.97398
#
# Compressibility (1/GPa) = 0.03172941
#
# Stress axis : x y z
#
# Youngs Moduli (GPa) = 115.99353 115.99353 21.39368
#
# Poissons Ratio (x) = 0.08630 0.16456
# Poissons Ratio (y) = 0.08630 0.16456
# Poissons Ratio (z) = 0.89222 0.89222
#
# Static dielectric constant tensor:
#      x y z
#    x 1.978370 0.000000 0.000000 
#    y 0.000000 1.978370 0.000000 
#    z 0.000000 0.000000 1.943780 
# 
# From -- ./inp_files/3809.got.cif
#   From: 2010.05.17/outbox.cif.g08.bks.cpg/sg88_2_cif.got.tgz:3809.got - 2010.06.03 19:11:41.
