data_PCOD9546306
_publ_section_title
;
Structure prediction by ZEFSAII (Michael W. Deem and Ramdas Pophale) SiO2 
 PCOD9546306
Probable space group: I 41/A
;
_chemical_formula_sum "Si O2"
_cell_formula_units_Z 76
_cell_length_a 11.750187
_cell_length_b 11.750187
_cell_length_c 29.073559
_cell_angle_alpha 90.000000
_cell_angle_beta 90.000000
_cell_angle_gamma 90.000000
_cell_volume 4014.096004
_symmetry_space_group_name_H-M "I 41/A"
_symmetry_group_IT_number 88
_space_group.IT_coordinate_system_code '2'
_symmetry_cell_setting 'tetragonal'
loop_
_space_group_symop_operation_xyz
x,y,z
3/4-y,1/4+x,1/4+z
-x,1/2-y,z
1/4+y,1/4-x,1/4+z
-x,-y,-z
1/4+y,3/4-x,3/4-z
x,1/2+y,-z
3/4-y,3/4+x,3/4-z
1/2+x,1/2+y,1/2+z
1/4-y,3/4+x,3/4+z
1/2-x,-y,1/2+z
3/4+y,3/4-x,3/4+z
1/2-x,1/2-y,1/2-z
3/4+y,1/4-x,1/4-z
1/2+x,y,1/2-z
1/4-y,1/4+x,1/4-z
loop_
_atom_site_type_symbol
_atom_site_label
_atom_site_fract_x
_atom_site_fract_y
_atom_site_fract_z
Si Si1 0.393976 0.473961 0.277065
Si Si2 0.126446 0.695260 0.612098
Si Si3 0.500000 0.250000 0.494300
Si Si4 0.000000 0.250000 0.625000
Si Si5 0.613502 0.082883 0.563470
Si Si6 0.946388 0.013554 0.671729
O O1 0.429806 0.572503 0.311825
O O2 0.476102 0.364629 0.282779
O O3 0.271108 0.427661 0.290950
O O4 0.399591 0.508825 0.223698
O O5 0.196933 0.785439 0.642810
O O6 0.120982 0.573386 0.638180
O O7 0.000000 0.750000 0.610951
O O8 0.527164 0.143970 0.527794
O O9 0.044964 0.358072 0.653961
O O10 0.706463 0.178336 0.576155
#
# Coordination Sequence:
#
# PCOD9546306 Si02
#       6
#    16  16   8   4  16  16
#     4  11  22  37  67  94 119 163 214 250 312 382
#     4  10  21  41  63  90 131 164 204 261 317 368
#     4  10  20  38  60  88 124 162 195 255 326 366
#     4  12  24  44  62  88 132 164 222 252 304 372
#     4  10  19  42  63  83 129 164 197 256 321 368
#     4  10  23  43  61  90 123 169 202 259 314 364
#
# _framework density 18.933278000000001
#
# number of rings (size 3 to 8) (size 9 to 14) (size 15 to 20)
#    0.000    1.684    5.263    1.895    1.474    1.684 
#   18.947    2.105    0.000    0.000    0.000    0.000 
#    0.000    0.000    0.000    0.000    0.000    0.000 
#
# Total GULP energy -212078.259730 kJ/mol
# GULP energy per Si atom -5581.006835 kJ/mol
# Density = 1.889018 g / cm^3
# Si number density = 18.933278 Si / 1000 Ang^3
#
#
#
# Elastic Constant Matrix: (Units=GPa)
#
#
# Indices 1 2 3 4 5 6 
#
# 1 67.2522 12.0907 45.7465 0.0000 0.0000 3.4072
# 2 12.0907 67.2522 45.7465 0.0000 0.0000 -3.4072
# 3 45.7465 45.7465 118.0253 0.0000 0.0000 0.0000
# 4 0.0000 0.0000 0.0000 -133.8099 0.0000 0.0000
# 5 0.0000 0.0000 0.0000 0.0000 -133.8099 0.0000
# 6 3.4072 -3.4072 0.0000 0.0000 0.0000 19.4266
#
#
#
# Elastic Compliance Matrix: (Units=1/GPa)
#
#
# Indices 1 2 3 4 5 6 
#
# 1 0.020660 0.002130 -0.008833 0.000000 0.000000 -0.003250
# 2 0.002130 0.020660 -0.008833 0.000000 0.000000 0.003250
# 3 -0.008833 -0.008833 0.015320 0.000000 0.000000 0.000000
# 4 0.000000 0.000000 0.000000 -0.007473 0.000000 0.000000
# 5 0.000000 0.000000 0.000000 0.000000 -0.007473 0.000000
# 6 -0.003250 0.003250 0.000000 0.000000 0.000000 0.052616
#
#
# Mechanical properties :
#
#
# Convention : Reuss Voigt Hill
#
# Bulk Modulus (GPa) = 39.11396 51.07746 45.09571
# Shear Modulus (GPa) = 37.34017 -39.70891 -1.18437
#
# Velocity S-wave (km/s) = 4.44576 -4.58461 -0.79177
# Velocity P-wave (km/s) = 6.85979 0.99430 4.79938
#
# Compressibility (1/GPa) = 0.02556632
#
# Stress axis : x y z
#
# Youngs Moduli (GPa) = 48.40344 48.40344 65.27344
#
# Poissons Ratio (x) = -0.10308 0.57657
# Poissons Ratio (y) = -0.10308 0.57657
# Poissons Ratio (z) = 0.42755 0.42755
#
# Static dielectric constant tensor:
#      x y z
#    x 1.660550 0.000000 0.000000 
#    y 0.000000 1.660550 0.000000 
#    z 0.000000 0.000000 1.661300 
# 
# From -- ./inp_files/6364.got.cif
#   From: 2010.05.17/outbox.cif.g08.bks.cpg/sg88_4_cif.got.tgz:6364.got - 2010.06.03 19:11:41.
