data_PCOD9546535
_publ_section_title
;
Structure prediction by ZEFSAII (Michael W. Deem and Ramdas Pophale) SiO2 
 PCOD9546535
Probable space group: I 41/A
;
_chemical_formula_sum "Si O2"
_cell_formula_units_Z 88
_cell_length_a 11.867502
_cell_length_b 11.867502
_cell_length_c 29.544536
_cell_angle_alpha 90.000000
_cell_angle_beta 90.000000
_cell_angle_gamma 90.000000
_cell_volume 4160.981653
_symmetry_space_group_name_H-M "I 41/A"
_symmetry_group_IT_number 88
_space_group.IT_coordinate_system_code '2'
_symmetry_cell_setting 'tetragonal'
loop_
_space_group_symop_operation_xyz
x,y,z
3/4-y,1/4+x,1/4+z
-x,1/2-y,z
1/4+y,1/4-x,1/4+z
-x,-y,-z
1/4+y,3/4-x,3/4-z
x,1/2+y,-z
3/4-y,3/4+x,3/4-z
1/2+x,1/2+y,1/2+z
1/4-y,3/4+x,3/4+z
1/2-x,-y,1/2+z
3/4+y,3/4-x,3/4+z
1/2-x,1/2-y,1/2-z
3/4+y,1/4-x,1/4-z
1/2+x,y,1/2-z
1/4-y,1/4+x,1/4-z
loop_
_atom_site_type_symbol
_atom_site_label
_atom_site_fract_x
_atom_site_fract_y
_atom_site_fract_z
Si Si1 0.671635 0.359406 0.252516
Si Si2 0.700651 0.424362 0.773229
Si Si3 0.368873 0.739980 0.304686
Si Si4 0.130464 0.365286 0.142999
Si Si5 0.500000 0.250000 0.561851
Si Si6 0.369563 0.946460 0.858597
O O1 0.750000 0.250000 0.250000
O O2 0.752170 0.466637 0.246994
O O3 0.622043 0.370283 0.302955
O O4 0.571016 0.338233 0.218000
O O5 0.637464 0.343555 0.738283
O O6 0.810278 0.356341 0.790655
O O7 0.628747 0.465964 0.816751
O O8 0.500000 0.750000 0.317648
O O9 0.293259 0.691405 0.345927
O O10 0.151276 0.235949 0.129204
O O11 0.238136 0.437089 0.128772
O O12 0.423856 0.161166 0.588851
#
# Coordination Sequence:
#
# PCOD9546535 Si02
#       6
#    16  16  16  16   8  16
#     4  11  23  40  65  99 134 171 220 284 353 409
#     4  10  26  48  66 102 136 186 235 286 353 413
#     4  11  26  47  72  99 138 191 238 290 347 421
#     4  10  22  38  61  97 131 172 214 269 351 419
#     4  12  22  38  63 104 134 174 221 280 352 418
#     4  11  25  40  70  99 136 177 231 288 351 413
#
# _framework density 21.148855999999999
#
# number of rings (size 3 to 8) (size 9 to 14) (size 15 to 20)
#    0.000    1.273    4.545    1.091   10.182    1.455 
#    3.273    0.000    0.000    0.000    0.000    0.000 
#    0.000    0.000    0.000    0.000    0.000    0.000 
#
# Total GULP energy -245820.358614 kJ/mol
# GULP energy per Si atom -5586.826332 kJ/mol
# Density = 2.110072 g / cm^3
# Si number density = 21.148856 Si / 1000 Ang^3
#
#
#
# Elastic Constant Matrix: (Units=GPa)
#
#
# Indices 1 2 3 4 5 6 
#
# 1 75.9266 9.9357 23.1515 0.0000 0.0000 2.0312
# 2 9.9357 75.9266 23.1515 0.0000 0.0000 -2.0312
# 3 23.1515 23.1515 64.0661 0.0000 0.0000 0.0000
# 4 0.0000 0.0000 0.0000 22.3248 0.0000 0.0000
# 5 0.0000 0.0000 0.0000 0.0000 22.3248 0.0000
# 6 2.0312 -2.0312 0.0000 0.0000 0.0000 17.8185
#
#
#
# Elastic Compliance Matrix: (Units=1/GPa)
#
#
# Indices 1 2 3 4 5 6 
#
# 1 0.014863 -0.000398 -0.005227 0.000000 0.000000 -0.001740
# 2 -0.000398 0.014863 -0.005227 0.000000 0.000000 0.001740
# 3 -0.005227 -0.005227 0.019387 0.000000 0.000000 0.000000
# 4 0.000000 0.000000 0.000000 0.044793 0.000000 0.000000
# 5 0.000000 0.000000 0.000000 0.000000 0.044793 0.000000
# 6 -0.001740 0.001740 0.000000 0.000000 0.000000 0.056518
#
#
# Mechanical properties :
#
#
# Convention : Reuss Voigt Hill
#
# Bulk Modulus (GPa) = 36.48514 36.48851 36.48683
# Shear Modulus (GPa) = 22.11814 23.13897 22.62856
#
# Velocity S-wave (km/s) = 3.23744 3.31131 3.27458
# Velocity P-wave (km/s) = 5.59140 5.64892 5.62023
#
# Compressibility (1/GPa) = 0.02740842
#
# Stress axis : x y z
#
# Youngs Moduli (GPa) = 67.28066 67.28066 51.58124
#
# Poissons Ratio (x) = 0.02675 0.26963
# Poissons Ratio (y) = 0.02675 0.26963
# Poissons Ratio (z) = 0.35170 0.35170
#
# Static dielectric constant tensor:
#      x y z
#    x 1.755920 0.000000 0.000000 
#    y 0.000000 1.755920 0.000000 
#    z 0.000000 0.000000 1.785150 
# 
# From -- ./inp_files/6466.got.cif
#   From: 2010.05.17/outbox.cif.g08.bks.cpg/sg88_4_cif.got.tgz:6466.got - 2010.06.03 19:11:41.
