data_PCOD9546200
_publ_section_title
;
Structure prediction by ZEFSAII (Michael W. Deem and Ramdas Pophale) SiO2 
 PCOD9546200
Probable space group: I 41/A
;
_chemical_formula_sum "Si O2"
_cell_formula_units_Z 112
_cell_length_a 22.600208
_cell_length_b 22.600208
_cell_length_c 11.365332
_cell_angle_alpha 90.000000
_cell_angle_beta 90.000000
_cell_angle_gamma 90.000000
_cell_volume 5805.063825
_symmetry_space_group_name_H-M "I 41/A"
_symmetry_group_IT_number 88
_space_group.IT_coordinate_system_code '2'
_symmetry_cell_setting 'tetragonal'
loop_
_space_group_symop_operation_xyz
x,y,z
3/4-y,1/4+x,1/4+z
-x,1/2-y,z
1/4+y,1/4-x,1/4+z
-x,-y,-z
1/4+y,3/4-x,3/4-z
x,1/2+y,-z
3/4-y,3/4+x,3/4-z
1/2+x,1/2+y,1/2+z
1/4-y,3/4+x,3/4+z
1/2-x,-y,1/2+z
3/4+y,3/4-x,3/4+z
1/2-x,1/2-y,1/2-z
3/4+y,1/4-x,1/4-z
1/2+x,y,1/2-z
1/4-y,1/4+x,1/4-z
loop_
_atom_site_type_symbol
_atom_site_label
_atom_site_fract_x
_atom_site_fract_y
_atom_site_fract_z
Si Si1 0.831959 0.109464 0.686401
Si Si2 0.695213 0.580324 0.307434
Si Si3 0.064497 0.429218 0.002476
Si Si4 0.166711 0.445853 0.181264
Si Si5 0.569760 0.610055 0.855850
Si Si6 0.095237 0.249224 0.092127
Si Si7 0.899489 0.998191 0.801191
O O1 0.843315 0.100397 0.547772
O O2 0.761564 0.104499 0.710795
O O3 0.854925 0.167407 0.755594
O O4 0.863606 0.052369 0.743876
O O5 0.676379 0.600369 0.437358
O O6 0.699395 0.508779 0.309521
O O7 0.110142 0.454858 0.098404
O O8 0.100287 0.374032 0.944259
O O9 0.055029 0.474222 0.895692
O O10 0.010763 0.401893 0.075472
O O11 0.209100 0.397789 0.123090
O O12 0.513041 0.638532 0.792748
O O13 0.574787 0.545126 0.797340
O O14 0.053818 0.192214 0.106132
#
# Coordination Sequence:
#
# PCOD9546200 Si02
#       7
#    16  16  16  16  16  16  16
#     4  10  17  26  40  68  99 141 163 188 214 267
#     4  10  18  24  42  64 102 147 173 174 198 274
#     4   9  18  28  46  68  96 126 156 197 246 282
#     4  10  17  26  40  68  99 141 163 188 214 267
#     4   9  18  28  46  68  96 126 156 197 246 282
#     4   9  18  35  52  69  86 113 157 206 262 304
#     4  10  16  27  40  68 104 122 156 193 230 284
#
# _framework density 19.293500000000002
#
# number of rings (size 3 to 8) (size 9 to 14) (size 15 to 20)
#    0.000    2.429    2.857    1.714    2.000    0.571 
#    0.000    0.000    0.000    3.429    0.000    0.000 
#    0.000    9.143    0.000    0.000    0.000    0.000 
#
# Total GULP energy -312051.891762 kJ/mol
# GULP energy per Si atom -5572.355210 kJ/mol
# Density = 1.924959 g / cm^3
# Si number density = 19.293500 Si / 1000 Ang^3
#
#
#
# Elastic Constant Matrix: (Units=GPa)
#
#
# Indices 1 2 3 4 5 6 
#
# 1 6.6360 8.8134 -9.7232 0.0000 0.0000 -5.4166
# 2 8.8134 6.6360 -9.7232 0.0000 0.0000 5.4166
# 3 -9.7232 -9.7232 77.4408 0.0000 0.0000 0.0000
# 4 0.0000 0.0000 0.0000 2.3447 0.0000 0.0000
# 5 0.0000 0.0000 0.0000 0.0000 2.3447 0.0000
# 6 -5.4166 5.4166 0.0000 0.0000 0.0000 0.8540
#
#
#
# Elastic Compliance Matrix: (Units=1/GPa)
#
#
# Indices 1 2 3 4 5 6 
#
# 1 0.031385 0.045492 0.009652 0.000000 0.000000 -0.089473
# 2 0.045492 0.031385 0.009652 0.000000 0.000000 0.089473
# 3 0.009652 0.009652 0.015337 0.000000 0.000000 0.000000
# 4 0.000000 0.000000 0.000000 0.426486 0.000000 0.000000
# 5 0.000000 0.000000 0.000000 0.000000 0.426486 0.000000
# 6 -0.089473 0.089473 0.000000 0.000000 0.000000 0.035967
#
#
# Mechanical properties :
#
#
# Convention : Reuss Voigt Hill
#
# Bulk Modulus (GPa) = 4.81459 7.71629 6.26544
# Shear Modulus (GPa) = 5.51459 7.86509 6.68984
#
# Velocity S-wave (km/s) = 1.69247 2.02124 1.86412
# Velocity P-wave (km/s) = 2.51399 3.07495 2.80851
#
# Compressibility (1/GPa) = 0.20770204
#
# Stress axis : x y z
#
# Youngs Moduli (GPa) = 31.86218 31.86218 65.20200
#
# Poissons Ratio (x) = -1.44949 -0.62936
# Poissons Ratio (y) = -1.44949 -0.62936
# Poissons Ratio (z) = -0.30755 -0.30755
#
# Static dielectric constant tensor:
#      x y z
#    x 1.687840 0.000000 0.000000 
#    y 0.000000 1.687840 0.000000 
#    z 0.000000 0.000000 1.715940 
# 
# From -- ./inp_files/2706.got.cif
#   From: 2010.05.17/outbox.cif.g08.bks.cpg/sg88_2_cif.got.tgz:2706.got - 2010.06.03 19:11:41.
