data_PCOD9546779
_publ_section_title
;
Structure prediction by ZEFSAII (Michael W. Deem and Ramdas Pophale) SiO2 
 PCOD9546779
Probable space group: I 41/A
;
_chemical_formula_sum "Si O2"
_cell_formula_units_Z 64
_cell_length_a 13.398602
_cell_length_b 13.398602
_cell_length_c 17.896758
_cell_angle_alpha 90.000000
_cell_angle_beta 90.000000
_cell_angle_gamma 90.000000
_cell_volume 3212.871374
_symmetry_space_group_name_H-M "I 41/A"
_symmetry_group_IT_number 88
_space_group.IT_coordinate_system_code '2'
_symmetry_cell_setting 'tetragonal'
loop_
_space_group_symop_operation_xyz
x,y,z
3/4-y,1/4+x,1/4+z
-x,1/2-y,z
1/4+y,1/4-x,1/4+z
-x,-y,-z
1/4+y,3/4-x,3/4-z
x,1/2+y,-z
3/4-y,3/4+x,3/4-z
1/2+x,1/2+y,1/2+z
1/4-y,3/4+x,3/4+z
1/2-x,-y,1/2+z
3/4+y,3/4-x,3/4+z
1/2-x,1/2-y,1/2-z
3/4+y,1/4-x,1/4-z
1/2+x,y,1/2-z
1/4-y,1/4+x,1/4-z
loop_
_atom_site_type_symbol
_atom_site_label
_atom_site_fract_x
_atom_site_fract_y
_atom_site_fract_z
Si Si1 0.246304 0.637963 0.935140
Si Si2 0.075516 0.512039 0.432551
Si Si3 0.114718 0.976267 0.985843
Si Si4 0.238019 0.683308 0.460434
O O1 0.351996 0.582710 0.931718
O O2 0.202201 0.627623 0.852095
O O3 0.178216 0.574353 0.992075
O O4 0.261696 0.749615 0.964872
O O5 0.145882 0.607790 0.447999
O O6 0.000000 0.500000 0.500000
O O7 0.011562 0.516393 0.357178
O O8 0.163939 0.886909 0.033805
O O9 0.000000 0.000000 0.000000
#
# Coordination Sequence:
#
# PCOD9546779 Si02
#       4
#    16  16  16  16
#     4  11  23  46  66 104 137 178 228 282 351 404
#     4  11  25  42  71 100 136 179 224 290 345 411
#     4  11  25  43  71  97 141 182 227 282 338 419
#     4  11  25  45  70 100 140 178 231 286 348 413
#
# _framework density 19.919875000000001
#
# number of rings (size 3 to 8) (size 9 to 14) (size 15 to 20)
#    0.000    1.000    2.500    3.000   14.000    4.500 
#    0.000    2.500    0.000    0.000    0.000    0.000 
#    0.000    0.000    0.000    0.000    0.000    0.000 
#
# Total GULP energy -178806.827168 kJ/mol
# GULP energy per Si atom -5587.713349 kJ/mol
# Density = 1.987454 g / cm^3
# Si number density = 19.919875 Si / 1000 Ang^3
#
#
#
# Elastic Constant Matrix: (Units=GPa)
#
#
# Indices 1 2 3 4 5 6 
#
# 1 135.7865 64.3692 31.1662 0.0000 0.0000 -1.7052
# 2 64.3692 135.7865 31.1662 0.0000 0.0000 1.7052
# 3 31.1662 31.1662 102.8732 0.0000 0.0000 0.0000
# 4 0.0000 0.0000 0.0000 35.3212 0.0000 0.0000
# 5 0.0000 0.0000 0.0000 0.0000 35.3212 0.0000
# 6 -1.7052 1.7052 0.0000 0.0000 0.0000 8.4070
#
#
#
# Elastic Compliance Matrix: (Units=1/GPa)
#
#
# Indices 1 2 3 4 5 6 
#
# 1 0.009828 -0.004311 -0.001671 0.000000 0.000000 0.002868
# 2 -0.004311 0.009828 -0.001671 0.000000 0.000000 -0.002868
# 3 -0.001671 -0.001671 0.010733 0.000000 0.000000 0.000000
# 4 0.000000 0.000000 0.000000 0.028312 0.000000 0.000000
# 5 0.000000 0.000000 0.000000 0.000000 0.028312 0.000000
# 6 0.002868 -0.002868 0.000000 0.000000 0.000000 0.120111
#
#
# Mechanical properties :
#
#
# Convention : Reuss Voigt Hill
#
# Bulk Modulus (GPa) = 66.30693 69.76101 68.03397
# Shear Modulus (GPa) = 21.98202 32.32618 27.15410
#
# Velocity S-wave (km/s) = 3.32553 4.03278 3.69611
# Velocity P-wave (km/s) = 6.93575 7.53534 7.24175
#
# Compressibility (1/GPa) = 0.01508138
#
# Stress axis : x y z
#
# Youngs Moduli (GPa) = 101.75148 101.75148 93.16741
#
# Poissons Ratio (x) = 0.43868 0.15571
# Poissons Ratio (y) = 0.43868 0.15571
# Poissons Ratio (z) = 0.17006 0.17006
#
# Static dielectric constant tensor:
#      x y z
#    x 1.664530 0.000000 0.000000 
#    y 0.000000 1.664530 0.000000 
#    z 0.000000 0.000000 1.764610 
# 
# From -- ./inp_files/3700.got.cif
#   From: 2010.05.17/outbox.cif.g08.bks.cpg/sg88_2_cif.got.tgz:3700.got - 2010.06.03 19:11:41.
