data_PCOD9546183
_publ_section_title
;
Structure prediction by ZEFSAII (Michael W. Deem and Ramdas Pophale) SiO2 
 PCOD9546183
Probable space group: I 4/M
;
_chemical_formula_sum "Si O2"
_cell_formula_units_Z 42
_cell_length_a 21.000000
_cell_length_b 21.000000
_cell_length_c 12.000000
_cell_angle_alpha 90.000000
_cell_angle_beta 90.000000
_cell_angle_gamma 90.000000
_cell_volume 5292.000000
_symmetry_space_group_name_H-M "I 4/M"
_symmetry_group_IT_number 87
_symmetry_cell_setting 'tetragonal'
loop_
_space_group_symop_operation_xyz
x,y,z
-y,x,z
-x,-y,z
y,-x,z
-x,-y,-z
y,-x,-z
x,y,-z
-y,x,-z
1/2+x,1/2+y,1/2+z
1/2-y,1/2+x,1/2+z
1/2-x,1/2-y,1/2+z
1/2+y,1/2-x,1/2+z
1/2-x,1/2-y,1/2-z
1/2+y,1/2-x,1/2-z
1/2+x,1/2+y,1/2-z
1/2-y,1/2+x,1/2-z
loop_
_atom_site_type_symbol
_atom_site_label
_atom_site_fract_x
_atom_site_fract_y
_atom_site_fract_z
Si Si1 0.157211 0.870695 0.500000
Si Si2 0.310495 0.478419 0.000000
Si Si3 0.239506 0.573220 0.633239
Si Si4 0.558318 0.242489 0.769591
Si Si5 0.104607 0.410826 0.866753
Si Si6 0.500000 0.000000 0.250000
Si Si7 0.692846 0.696511 0.236041
O O1 0.080126 0.861418 0.500000
O O2 0.186730 0.835242 0.609677
O O3 0.170007 0.946920 0.500000
O O4 0.271154 0.464758 0.887703
O O5 0.252140 0.572224 0.500000
O O6 0.250677 0.502583 0.686839
O O7 0.164044 0.588363 0.649027
O O8 0.279579 0.631390 0.691070
O O9 0.573204 0.168284 0.796217
O O10 0.625710 0.277326 0.736123
O O11 0.047204 0.455699 0.823601
O O12 0.115240 0.420766 0.000000
O O13 0.750000 0.750000 0.250000
#
# Coordination Sequence:
#
# PCOD9546183 Si02
#       7
#     8   8  16  16  16   4  16
#     4  10  22  37  62  92 116 158 200 246 313 362
#     4  10  20  37  62  87 116 148 196 251 308 357
#     4  11  24  40  59  85 121 160 198 247 300 356
#     4  11  21  39  60  87 119 156 196 248 303 353
#     4  11  22  36  56  83 117 156 199 244 289 346
#     4  12  22  36  56  82 120 168 198 224 292 374
#     4  11  23  38  63  91 119 155 206 254 301 354
#
# _framework density 7.9365079999999999
#
# number of rings (size 3 to 8) (size 9 to 14) (size 15 to 20)
#    0.000    1.143    6.667    0.286    1.333    0.952 
#    0.000    0.000    2.095    0.571    0.000    1.333 
#    0.000    0.000    0.000    0.000    0.000    0.000 
#
# Total GULP energy -234137.847517 kJ/mol
# GULP energy per Si atom -5574.710655 kJ/mol
# Density = 0.791844 g / cm^3
# Si number density = 7.936508 Si / 1000 Ang^3
#
#
#
# Elastic Constant Matrix: (Units=GPa)
#
#
# Indices 1 2 3 4 5 6 
#
# 1 147.2373 71.2124 60.3226 0.0000 0.0000 -1.1298
# 2 71.2124 147.2373 60.3226 0.0000 0.0000 1.1298
# 3 60.3226 60.3226 113.9373 0.0000 0.0000 0.0000
# 4 0.0000 0.0000 0.0000 33.8813 0.0000 0.0000
# 5 0.0000 0.0000 0.0000 0.0000 33.8813 0.0000
# 6 -1.1298 1.1298 0.0000 0.0000 0.0000 41.2588
#
#
#
# Elastic Compliance Matrix: (Units=1/GPa)
#
#
# Indices 1 2 3 4 5 6 
#
# 1 0.009817 -0.003347 -0.003425 0.000000 0.000000 0.000360
# 2 -0.003347 0.009817 -0.003425 0.000000 0.000000 -0.000360
# 3 -0.003425 -0.003425 0.012404 0.000000 0.000000 0.000000
# 4 0.000000 0.000000 0.000000 0.029515 0.000000 0.000000
# 5 0.000000 0.000000 0.000000 0.000000 0.029515 0.000000
# 6 0.000360 -0.000360 0.000000 0.000000 0.000000 0.024257
#
#
# Mechanical properties :
#
#
# Convention : Reuss Voigt Hill
#
# Bulk Modulus (GPa) = 85.89770 88.01414 86.95592
# Shear Modulus (GPa) = 35.81670 36.24123 36.02897
#
# Velocity S-wave (km/s) = 4.75537 4.78347 4.76944
# Velocity P-wave (km/s) = 9.18610 9.27782 9.23207
#
# Compressibility (1/GPa) = 0.01164175
#
# Stress axis : x y z
#
# Youngs Moduli (GPa) = 101.86605 101.86605 80.62233
#
# Poissons Ratio (x) = 0.34100 0.27614
# Poissons Ratio (y) = 0.34100 0.27614
# Poissons Ratio (z) = 0.34890 0.34890
#
# Static dielectric constant tensor:
#      x y z
#    x 1.528420 0.000000 0.000000 
#    y 0.000000 1.528420 0.000000 
#    z 0.000000 0.000000 1.526340 
# 
# From -- ./inp_files/2703.got.cif
#   From: 2010.05.17/outbox.ucp.g08.bks.cvg/sg87_2_cif.got.tgz:2703.got - 2010.06.11 10:35:24.
