data_PCOD9546617
_publ_section_title
;
Structure prediction by ZEFSAII (Michael W. Deem and Ramdas Pophale) SiO2 
 PCOD9546617
Probable space group: I 41/A
;
_chemical_formula_sum "Si O2"
_cell_formula_units_Z 96
_cell_length_a 14.357936
_cell_length_b 14.357936
_cell_length_c 20.940695
_cell_angle_alpha 90.000000
_cell_angle_beta 90.000000
_cell_angle_gamma 90.000000
_cell_volume 4316.931105
_symmetry_space_group_name_H-M "I 41/A"
_symmetry_group_IT_number 88
_space_group.IT_coordinate_system_code '2'
_symmetry_cell_setting 'tetragonal'
loop_
_space_group_symop_operation_xyz
x,y,z
3/4-y,1/4+x,1/4+z
-x,1/2-y,z
1/4+y,1/4-x,1/4+z
-x,-y,-z
1/4+y,3/4-x,3/4-z
x,1/2+y,-z
3/4-y,3/4+x,3/4-z
1/2+x,1/2+y,1/2+z
1/4-y,3/4+x,3/4+z
1/2-x,-y,1/2+z
3/4+y,3/4-x,3/4+z
1/2-x,1/2-y,1/2-z
3/4+y,1/4-x,1/4-z
1/2+x,y,1/2-z
1/4-y,1/4+x,1/4-z
loop_
_atom_site_type_symbol
_atom_site_label
_atom_site_fract_x
_atom_site_fract_y
_atom_site_fract_z
Si Si1 0.395769 0.532319 0.480277
Si Si2 0.477471 0.357560 0.791385
Si Si3 0.179702 0.615559 0.389604
Si Si4 0.819360 0.032911 0.120859
Si Si5 0.366846 0.187998 0.090003
Si Si6 0.127068 0.809109 0.118059
O O1 0.500000 0.500000 0.500000
O O2 0.361337 0.463110 0.422174
O O3 0.329388 0.540160 0.543619
O O4 0.391119 0.635026 0.447822
O O5 0.500000 0.250000 0.785536
O O6 0.417429 0.373938 0.854285
O O7 0.572230 0.416463 0.797164
O O8 0.409919 0.381962 0.733415
O O9 0.205449 0.507951 0.389644
O O10 0.270855 0.663320 0.358088
O O11 0.918091 0.986099 0.136953
O O12 0.448601 0.139851 0.131308
O O13 0.396753 0.295774 0.088914
#
# Coordination Sequence:
#
# PCOD9546617 Si02
#       6
#    16  16  16  16  16  16
#     4  11  24  50  72 108 148 195 260 315 379 458
#     4  12  22  38  63  99 148 183 232 288 359 451
#     4  11  23  40  64 102 137 192 231 291 362 450
#     4  11  25  46  75 104 143 193 248 312 379 445
#     4  11  23  43  64 104 134 191 239 307 369 438
#     4  10  23  41  67  93 145 181 245 303 367 437
#
# _framework density 22.238019999999999
#
# number of rings (size 3 to 8) (size 9 to 14) (size 15 to 20)
#    0.000    1.000    5.000    2.000    0.000    7.333 
#    3.000    0.000    0.000    0.000    0.000    0.000 
#    0.000    0.000    0.000    0.000    0.000    0.000 
#
# Total GULP energy -267255.751299 kJ/mol
# GULP energy per Si atom -5567.828152 kJ/mol
# Density = 2.218741 g / cm^3
# Si number density = 22.238020 Si / 1000 Ang^3
#
#
#
# Elastic Constant Matrix: (Units=GPa)
#
#
# Indices 1 2 3 4 5 6 
#
# 1 73.4997 29.2215 43.2801 0.0000 0.0000 7.3475
# 2 29.2215 73.4996 43.2801 0.0000 0.0000 -7.3475
# 3 43.2801 43.2801 108.9402 0.0000 0.0000 0.0000
# 4 0.0000 0.0000 0.0000 28.9918 0.0000 0.0000
# 5 0.0000 0.0000 0.0000 0.0000 28.9918 0.0000
# 6 7.3475 -7.3475 0.0000 0.0000 0.0000 36.1830
#
#
#
# Elastic Compliance Matrix: (Units=1/GPa)
#
#
# Indices 1 2 3 4 5 6 
#
# 1 0.019425 -0.004791 -0.005814 0.000000 0.000000 -0.004918
# 2 -0.004791 0.019425 -0.005814 0.000000 0.000000 0.004918
# 3 -0.005814 -0.005814 0.013799 0.000000 0.000000 0.000000
# 4 0.000000 0.000000 0.000000 0.034492 0.000000 0.000000
# 5 0.000000 0.000000 0.000000 0.000000 0.034492 0.000000
# 6 -0.004918 0.004918 0.000000 0.000000 0.000000 0.029635
#
#
# Mechanical properties :
#
#
# Convention : Reuss Voigt Hill
#
# Bulk Modulus (GPa) = 50.47511 54.16697 52.32104
# Shear Modulus (GPa) = 26.21764 28.17719 27.19741
#
# Velocity S-wave (km/s) = 3.43732 3.56346 3.50096
# Velocity P-wave (km/s) = 6.20487 6.42975 6.31831
#
# Compressibility (1/GPa) = 0.01981174
#
# Stress axis : x y z
#
# Youngs Moduli (GPa) = 51.47883 51.47883 72.46934
#
# Poissons Ratio (x) = 0.24664 0.42134
# Poissons Ratio (y) = 0.24664 0.42134
# Poissons Ratio (z) = 0.29930 0.29930
#
# Static dielectric constant tensor:
#      x y z
#    x 1.853450 0.000000 0.000000 
#    y 0.000000 1.853450 0.000000 
#    z 0.000000 0.000000 1.905660 
# 
# From -- ./inp_files/4727.got.cif
#   From: 2010.05.17/outbox.cif.g08.bks.cpg/sg88_3_cif.got.tgz:4727.got - 2010.06.03 19:11:41.
