data_PCOD9546024
_publ_section_title
;
Structure prediction by ZEFSAII (Michael W. Deem and Ramdas Pophale) SiO2 
 PCOD9546024
Probable space group: I 4/M
;
_chemical_formula_sum "Si O2"
_cell_formula_units_Z 96
_cell_length_a 14.925605
_cell_length_b 14.925605
_cell_length_c 19.227082
_cell_angle_alpha 90.000000
_cell_angle_beta 90.000000
_cell_angle_gamma 90.000000
_cell_volume 4283.287902
_symmetry_space_group_name_H-M "I 4/M"
_symmetry_group_IT_number 87
_symmetry_cell_setting 'tetragonal'
loop_
_space_group_symop_operation_xyz
x,y,z
-y,x,z
-x,-y,z
y,-x,z
-x,-y,-z
y,-x,-z
x,y,-z
-y,x,-z
1/2+x,1/2+y,1/2+z
1/2-y,1/2+x,1/2+z
1/2-x,1/2-y,1/2+z
1/2+y,1/2-x,1/2+z
1/2-x,1/2-y,1/2-z
1/2+y,1/2-x,1/2-z
1/2+x,1/2+y,1/2-z
1/2-y,1/2+x,1/2-z
loop_
_atom_site_type_symbol
_atom_site_label
_atom_site_fract_x
_atom_site_fract_y
_atom_site_fract_z
Si Si1 0.040966 0.145818 0.000000
Si Si2 0.868088 0.578327 0.080069
Si Si3 0.154611 0.812254 0.371743
Si Si4 0.000142 0.278418 0.882476
Si Si5 0.354066 0.458446 0.739618
Si Si6 0.323104 0.871715 0.581006
Si Si7 0.423124 0.374638 0.000000
O O1 0.051188 0.207659 0.067757
O O2 0.105895 0.060266 0.000000
O O3 0.775050 0.631993 0.083965
O O4 0.847729 0.474876 0.098141
O O5 0.935799 0.635322 0.127724
O O6 0.901739 0.579031 0.000000
O O7 0.082399 0.814989 0.310952
O O8 0.261512 0.820915 0.361217
O O9 0.151520 0.898831 0.421148
O O10 0.962814 0.224505 0.816676
O O11 0.914387 0.316832 0.921596
O O12 0.441411 0.394683 0.733553
O O13 0.286667 0.870878 0.500000
O O14 0.528289 0.377700 0.000000
#
# Coordination Sequence:
#
# PCOD9546024 Si02
#       7
#     8  16  16  16  16  16   8
#     4  11  24  40  67 102 136 182 245 312 366 417
#     4  11  23  43  70 106 146 184 237 300 365 432
#     4  12  24  42  73 101 142 185 237 299 362 445
#     4  12  25  43  71  98 145 192 245 299 363 433
#     4  11  26  48  70  99 142 191 240 300 368 436
#     4  11  23  42  71 108 144 185 238 300 367 438
#     4  11  20  34  64 104 136 170 219 286 360 430
#
# _framework density 22.412686999999998
#
# number of rings (size 3 to 8) (size 9 to 14) (size 15 to 20)
#    0.000    0.667    3.333    4.500    4.667    4.667 
#    3.000    0.000    0.000    0.000    0.000    0.000 
#    0.000    0.000    0.000    0.000    0.000    0.000 
#
# Total GULP energy -267549.491664 kJ/mol
# GULP energy per Si atom -5573.947743 kJ/mol
# Density = 2.236168 g / cm^3
# Si number density = 22.412687 Si / 1000 Ang^3
#
#
#
# Elastic Constant Matrix: (Units=GPa)
#
#
# Indices 1 2 3 4 5 6 
#
# 1 58.6777 20.9537 36.9497 0.0000 0.0000 -3.3768
# 2 20.9537 58.6777 36.9497 0.0000 0.0000 3.3768
# 3 36.9497 36.9497 96.9668 0.0000 0.0000 0.0000
# 4 0.0000 0.0000 0.0000 14.6342 0.0000 0.0000
# 5 0.0000 0.0000 0.0000 0.0000 14.6342 0.0000
# 6 -3.3768 3.3768 0.0000 0.0000 0.0000 33.1549
#
#
#
# Elastic Compliance Matrix: (Units=1/GPa)
#
#
# Indices 1 2 3 4 5 6 
#
# 1 0.023214 -0.003786 -0.007403 0.000000 0.000000 0.002750
# 2 -0.003786 0.023214 -0.007403 0.000000 0.000000 -0.002750
# 3 -0.007403 -0.007403 0.015955 0.000000 0.000000 0.000000
# 4 0.000000 0.000000 0.000000 0.068333 0.000000 0.000000
# 5 0.000000 0.000000 0.000000 0.000000 0.068333 0.000000
# 6 0.002750 -0.002750 0.000000 0.000000 0.000000 0.030722
#
#
# Mechanical properties :
#
#
# Convention : Reuss Voigt Hill
#
# Bulk Modulus (GPa) = 39.68507 44.89206 42.28856
# Shear Modulus (GPa) = 18.15830 20.44926 19.30378
#
# Velocity S-wave (km/s) = 2.84945 3.02387 2.93795
# Velocity P-wave (km/s) = 5.34517 5.68022 5.51524
#
# Compressibility (1/GPa) = 0.02519840
#
# Stress axis : x y z
#
# Youngs Moduli (GPa) = 43.07662 43.07662 62.67676
#
# Poissons Ratio (x) = 0.16310 0.46401
# Poissons Ratio (y) = 0.16310 0.46401
# Poissons Ratio (z) = 0.31891 0.31891
#
# Static dielectric constant tensor:
#      x y z
#    x 1.887610 0.000000 0.000000 
#    y 0.000000 1.887610 0.000000 
#    z 0.000000 0.000000 1.828690 
# 
# From -- ./inp_files/5369.got.cif
#   From: 2010.05.17/outbox.cif.g08.bks.cpg/sg87_3_cif.got.tgz:5369.got - 2010.06.03 19:07:00.
