data_PCOD9546146
_publ_section_title
;
Structure prediction by ZEFSAII (Michael W. Deem and Ramdas Pophale) SiO2 
 PCOD9546146
Probable space group: I 4/M
;
_chemical_formula_sum "Si O2"
_cell_formula_units_Z 72
_cell_length_a 13.043975
_cell_length_b 13.043975
_cell_length_c 23.902392
_cell_angle_alpha 90.000000
_cell_angle_beta 90.000000
_cell_angle_gamma 90.000000
_cell_volume 4066.879270
_symmetry_space_group_name_H-M "I 4/M"
_symmetry_group_IT_number 87
_symmetry_cell_setting 'tetragonal'
loop_
_space_group_symop_operation_xyz
x,y,z
-y,x,z
-x,-y,z
y,-x,z
-x,-y,-z
y,-x,-z
x,y,-z
-y,x,-z
1/2+x,1/2+y,1/2+z
1/2-y,1/2+x,1/2+z
1/2-x,1/2-y,1/2+z
1/2+y,1/2-x,1/2+z
1/2-x,1/2-y,1/2-z
1/2+y,1/2-x,1/2-z
1/2+x,1/2+y,1/2-z
1/2-y,1/2+x,1/2-z
loop_
_atom_site_type_symbol
_atom_site_label
_atom_site_fract_x
_atom_site_fract_y
_atom_site_fract_z
Si Si1 0.606963 0.136285 0.188350
Si Si2 0.864287 0.598295 0.317216
Si Si3 0.114024 0.131243 0.500000
Si Si4 0.364222 0.588502 0.433067
Si Si5 0.727893 0.267241 0.894748
O O1 0.625435 0.164535 0.253205
O O2 0.486525 0.115606 0.180936
O O3 0.643712 0.228510 0.149386
O O4 0.656546 0.023833 0.175564
O O5 0.816684 0.676516 0.361544
O O6 0.162541 0.183924 0.444555
O O7 0.990348 0.140211 0.500000
O O8 0.362772 0.471619 0.412513
O O9 0.369654 0.583236 0.500000
O O10 0.271221 0.661092 0.419185
#
# Coordination Sequence:
#
# PCOD9546146 Si02
#       5
#    16  16   8  16  16
#     4   9  19  35  54  79 109 136 168 217 268 307
#     4   9  19  35  54  79 109 136 168 217 268 307
#     4  11  26  42  52  71 106 140 174 219 264 304
#     4   9  18  32  49  74 108 138 166 209 260 299
#     4  12  19  34  57  80  98 141 185 210 247 311
#
# _framework density 17.703990999999998
#
# number of rings (size 3 to 8) (size 9 to 14) (size 15 to 20)
#    0.000    2.111    1.111    5.333    0.000    0.000 
#    0.000    0.000    0.000    5.333    0.000   18.667 
#    0.000    0.000    0.000    0.000    0.000    0.000 
#
# Total GULP energy -200548.950221 kJ/mol
# GULP energy per Si atom -5570.804173 kJ/mol
# Density = 1.766370 g / cm^3
# Si number density = 17.703991 Si / 1000 Ang^3
#
#
#
# Elastic Constant Matrix: (Units=GPa)
#
#
# Indices 1 2 3 4 5 6 
#
# 1 45.5856 16.0118 39.8185 0.0000 0.0000 0.0380
# 2 16.0118 45.5856 39.8185 0.0000 0.0000 -0.0380
# 3 39.8185 39.8185 105.6486 0.0000 0.0000 0.0000
# 4 0.0000 0.0000 0.0000 21.2765 0.0000 0.0000
# 5 0.0000 0.0000 0.0000 0.0000 21.2765 0.0000
# 6 0.0380 -0.0380 0.0000 0.0000 0.0000 34.6299
#
#
#
# Elastic Compliance Matrix: (Units=1/GPa)
#
#
# Indices 1 2 3 4 5 6 
#
# 1 0.032738 -0.001075 -0.011934 0.000000 0.000000 -0.000037
# 2 -0.001075 0.032738 -0.011934 0.000000 0.000000 0.000037
# 3 -0.011934 -0.011934 0.018461 0.000000 0.000000 0.000000
# 4 0.000000 0.000000 0.000000 0.047000 0.000000 0.000000
# 5 0.000000 0.000000 0.000000 0.000000 0.047000 0.000000
# 6 -0.000037 0.000037 0.000000 0.000000 0.000000 0.028877
#
#
# Mechanical properties :
#
#
# Convention : Reuss Voigt Hill
#
# Bulk Modulus (GPa) = 29.36661 43.12414 36.24538
# Shear Modulus (GPa) = 18.65316 22.18132 20.41724
#
# Velocity S-wave (km/s) = 3.24946 3.54347 3.39965
# Velocity P-wave (km/s) = 5.54096 6.41505 5.99396
#
# Compressibility (1/GPa) = 0.03405228
#
# Stress axis : x y z
#
# Youngs Moduli (GPa) = 30.54512 30.54512 54.16878
#
# Poissons Ratio (x) = 0.03285 0.64643
# Poissons Ratio (y) = 0.03285 0.64643
# Poissons Ratio (z) = 0.36451 0.36451
#
# Static dielectric constant tensor:
#      x y z
#    x 1.605210 0.000000 0.000000 
#    y 0.000000 1.605210 0.000000 
#    z 0.000000 0.000000 1.613710 
# 
# From -- ./inp_files/6182.got.cif
#   From: 2010.05.17/outbox.cif.g08.bks.cpg/sg87_4_cif.got.tgz:6182.got - 2010.06.03 19:07:00.
