data_PCOD9546190
_publ_section_title
;
Structure prediction by ZEFSAII (Michael W. Deem and Ramdas Pophale) SiO2 
 PCOD9546190
Probable space group: I 4/M
;
_chemical_formula_sum "Si O2"
_cell_formula_units_Z 42
_cell_length_a 12.000000
_cell_length_b 12.000000
_cell_length_c 30.000000
_cell_angle_alpha 90.000000
_cell_angle_beta 90.000000
_cell_angle_gamma 90.000000
_cell_volume 4320.000000
_symmetry_space_group_name_H-M "I 4/M"
_symmetry_group_IT_number 87
_symmetry_cell_setting 'tetragonal'
loop_
_space_group_symop_operation_xyz
x,y,z
-y,x,z
-x,-y,z
y,-x,z
-x,-y,-z
y,-x,-z
x,y,-z
-y,x,-z
1/2+x,1/2+y,1/2+z
1/2-y,1/2+x,1/2+z
1/2-x,1/2-y,1/2+z
1/2+y,1/2-x,1/2+z
1/2-x,1/2-y,1/2-z
1/2+y,1/2-x,1/2-z
1/2+x,1/2+y,1/2-z
1/2-y,1/2+x,1/2-z
loop_
_atom_site_type_symbol
_atom_site_label
_atom_site_fract_x
_atom_site_fract_y
_atom_site_fract_z
Si Si1 0.190627 0.186214 0.947368
Si Si2 0.148553 0.598280 0.370174
Si Si3 0.500000 0.500000 0.442890
Si Si4 0.665000 0.407841 0.809655
Si Si5 0.392787 0.156982 0.113440
Si Si6 0.657327 0.089825 0.235473
O O1 0.140991 0.265082 0.907729
O O2 0.320395 0.174946 0.931496
O O3 0.183842 0.222152 0.000000
O O4 0.119010 0.071522 0.944700
O O5 0.149017 0.463572 0.369943
O O6 0.165285 0.623218 0.316940
O O7 0.026998 0.641390 0.386639
O O8 0.645236 0.542053 0.811115
O O9 0.742695 0.373201 0.851442
O O10 0.734371 0.380388 0.764820
O O11 0.544291 0.140449 0.257350
#
# Coordination Sequence:
#
# PCOD9546190 Si02
#       6
#    16  16   4  16  16  16
#     4  12  26  45  71  99 138 181 226 301 369 421
#     4  11  23  41  69 102 134 178 240 287 339 426
#     4  12  25  48  68 100 140 172 220 292 384 436
#     4  11  24  41  62  96 141 187 237 288 343 414
#     4  11  22  42  67  95 131 183 231 279 353 418
#     4  11  20  40  66  97 137 179 224 282 343 408
#
# _framework density 9.7222220000000004
#
# number of rings (size 3 to 8) (size 9 to 14) (size 15 to 20)
#    0.000    0.762    5.714    3.143    0.000    3.048 
#    0.000    1.905    0.000    0.000    0.000    4.000 
#    0.000    0.000    0.000    0.000    0.000    0.000 
#
# Total GULP energy -233991.676013 kJ/mol
# GULP energy per Si atom -5571.230381 kJ/mol
# Density = 0.970009 g / cm^3
# Si number density = 9.722222 Si / 1000 Ang^3
#
#
#
# Elastic Constant Matrix: (Units=GPa)
#
#
# Indices 1 2 3 4 5 6 
#
# 1 100.0949 17.3255 51.7428 0.0000 0.0000 3.5034
# 2 17.3255 100.0949 51.7428 0.0000 0.0000 -3.5034
# 3 51.7428 51.7428 162.2539 0.0000 0.0000 0.0000
# 4 0.0000 0.0000 0.0000 26.9476 0.0000 0.0000
# 5 0.0000 0.0000 0.0000 0.0000 26.9476 0.0000
# 6 3.5034 -3.5034 0.0000 0.0000 0.0000 30.9554
#
#
#
# Elastic Compliance Matrix: (Units=1/GPa)
#
#
# Indices 1 2 3 4 5 6 
#
# 1 0.012022 -0.000176 -0.003778 0.000000 0.000000 -0.001381
# 2 -0.000176 0.012022 -0.003778 0.000000 0.000000 0.001381
# 3 -0.003778 -0.003778 0.008573 0.000000 0.000000 0.000000
# 4 0.000000 0.000000 0.000000 0.037109 0.000000 0.000000
# 5 0.000000 0.000000 0.000000 0.000000 0.037109 0.000000
# 6 -0.001381 0.001381 0.000000 0.000000 0.000000 0.032617
#
#
# Mechanical properties :
#
#
# Convention : Reuss Voigt Hill
#
# Bulk Modulus (GPa) = 58.29698 67.11844 62.70771
# Shear Modulus (GPa) = 31.12683 33.07897 32.10290
#
# Velocity S-wave (km/s) = 4.00535 4.12904 4.06767
# Velocity P-wave (km/s) = 7.17195 7.57132 7.37434
#
# Compressibility (1/GPa) = 0.01715355
#
# Stress axis : x y z
#
# Youngs Moduli (GPa) = 83.17969 83.17970 116.65160
#
# Poissons Ratio (x) = 0.01468 0.44066
# Poissons Ratio (y) = 0.01468 0.44066
# Poissons Ratio (z) = 0.31422 0.31422
#
# Static dielectric constant tensor:
#      x y z
#    x 1.719360 0.000000 0.000000 
#    y 0.000000 1.719360 0.000000 
#    z 0.000000 0.000000 1.663640 
# 
# From -- ./inp_files/6594.got.cif
#   From: 2010.05.17/outbox.ucp.g08.bks.cvg/sg87_4_cif.got.tgz:6594.got - 2010.06.11 10:35:24.
