data_PCOD9546064
_publ_section_title
;
Structure prediction by ZEFSAII (Michael W. Deem and Ramdas Pophale) SiO2 
 PCOD9546064
Probable space group: I 4/M
;
_chemical_formula_sum "Si O2"
_cell_formula_units_Z 56
_cell_length_a 11.373373
_cell_length_b 11.373373
_cell_length_c 21.338949
_cell_angle_alpha 90.000000
_cell_angle_beta 90.000000
_cell_angle_gamma 90.000000
_cell_volume 2760.270159
_symmetry_space_group_name_H-M "I 4/M"
_symmetry_group_IT_number 87
_symmetry_cell_setting 'tetragonal'
loop_
_space_group_symop_operation_xyz
x,y,z
-y,x,z
-x,-y,z
y,-x,z
-x,-y,-z
y,-x,-z
x,y,-z
-y,x,-z
1/2+x,1/2+y,1/2+z
1/2-y,1/2+x,1/2+z
1/2-x,1/2-y,1/2+z
1/2+y,1/2-x,1/2+z
1/2-x,1/2-y,1/2-z
1/2+y,1/2-x,1/2-z
1/2+x,1/2+y,1/2-z
1/2-y,1/2+x,1/2-z
loop_
_atom_site_type_symbol
_atom_site_label
_atom_site_fract_x
_atom_site_fract_y
_atom_site_fract_z
Si Si1 0.358956 0.092401 0.714450
Si Si2 0.387751 0.663511 0.873053
Si Si3 0.500000 0.000000 0.603775
Si Si4 0.286531 0.206761 0.500000
Si Si5 0.658969 0.935871 0.000000
O O1 0.457594 0.151506 0.759262
O O2 0.236050 0.145287 0.690637
O O3 0.427030 0.083056 0.648638
O O4 0.342659 0.529878 0.872684
O O5 0.344558 0.725449 0.937302
O O6 0.583378 0.077060 0.560128
O O7 0.264423 0.346522 0.500000
O O8 0.425617 0.184932 0.500000
#
# Coordination Sequence:
#
# PCOD9546064 Si02
#       5
#    16  16   8   8   8
#     4   9  19  36  62  86 114 157 211 244 283 353
#     4  11  23  39  60  94 130 154 191 252 315 360
#     4   9  17  36  58  88 117 155 206 242 280 365
#     4  12  24  38  62  94 122 165 194 249 300 371
#     4  11  22  35  62  88 124 159 204 240 305 358
#
# _framework density 20.287869000000001
#
# number of rings (size 3 to 8) (size 9 to 14) (size 15 to 20)
#    0.000    2.000    2.857    2.571    4.000    2.571 
#    0.000    0.000    0.000    0.000    0.000    0.000 
#    0.000    0.000    0.000    0.000    0.000    0.000 
#
# Total GULP energy -156057.844498 kJ/mol
# GULP energy per Si atom -5573.494446 kJ/mol
# Density = 2.024169 g / cm^3
# Si number density = 20.287869 Si / 1000 Ang^3
#
#
#
# Elastic Constant Matrix: (Units=GPa)
#
#
# Indices 1 2 3 4 5 6 
#
# 1 79.0110 1.8658 24.4881 0.0000 0.0000 -7.3100
# 2 1.8658 79.0110 24.4881 0.0000 0.0000 7.3100
# 3 24.4881 24.4881 111.3619 0.0000 0.0000 0.0000
# 4 0.0000 0.0000 0.0000 9.2874 0.0000 0.0000
# 5 0.0000 0.0000 0.0000 0.0000 9.2874 0.0000
# 6 -7.3100 7.3100 0.0000 0.0000 0.0000 26.9421
#
#
#
# Elastic Compliance Matrix: (Units=1/GPa)
#
#
# Indices 1 2 3 4 5 6 
#
# 1 0.013965 0.000299 -0.003137 0.000000 0.000000 0.003708
# 2 0.000299 0.013965 -0.003137 0.000000 0.000000 -0.003708
# 3 -0.003137 -0.003137 0.010359 0.000000 0.000000 0.000000
# 4 0.000000 0.000000 0.000000 0.107673 0.000000 0.000000
# 5 0.000000 0.000000 0.000000 0.000000 0.107673 0.000000
# 6 0.003708 -0.003708 0.000000 0.000000 0.000000 0.039129
#
#
# Mechanical properties :
#
#
# Convention : Reuss Voigt Hill
#
# Bulk Modulus (GPa) = 37.96417 41.22979 39.59698
# Shear Modulus (GPa) = 15.94942 23.67282 19.81112
#
# Velocity S-wave (km/s) = 2.80689 3.41962 3.12829
# Velocity P-wave (km/s) = 5.40908 5.99652 5.71036
#
# Compressibility (1/GPa) = 0.02634062
#
# Stress axis : x y z
#
# Youngs Moduli (GPa) = 71.60990 71.60990 96.53276
#
# Poissons Ratio (x) = -0.02144 0.30278
# Poissons Ratio (y) = -0.02144 0.30278
# Poissons Ratio (z) = 0.22461 0.22461
#
# Static dielectric constant tensor:
#      x y z
#    x 1.780570 0.000000 0.000000 
#    y 0.000000 1.780570 0.000000 
#    z 0.000000 0.000000 1.738230 
# 
# From -- ./inp_files/4938.got.cif
#   From: 2010.05.17/outbox.cif.g08.bks.cpg/sg87_3_cif.got.tgz:4938.got - 2010.06.03 19:07:00.
