data_PCOD9546256
_publ_section_title
;
Structure prediction by ZEFSAII (Michael W. Deem and Ramdas Pophale) SiO2 
 PCOD9546256
Probable space group: I 41/A
;
_chemical_formula_sum "Si O2"
_cell_formula_units_Z 64
_cell_length_a 18.687022
_cell_length_b 18.687022
_cell_length_c 10.220879
_cell_angle_alpha 90.000000
_cell_angle_beta 90.000000
_cell_angle_gamma 90.000000
_cell_volume 3569.179917
_symmetry_space_group_name_H-M "I 41/A"
_symmetry_group_IT_number 88
_space_group.IT_coordinate_system_code '2'
_symmetry_cell_setting 'tetragonal'
loop_
_space_group_symop_operation_xyz
x,y,z
3/4-y,1/4+x,1/4+z
-x,1/2-y,z
1/4+y,1/4-x,1/4+z
-x,-y,-z
1/4+y,3/4-x,3/4-z
x,1/2+y,-z
3/4-y,3/4+x,3/4-z
1/2+x,1/2+y,1/2+z
1/4-y,3/4+x,3/4+z
1/2-x,-y,1/2+z
3/4+y,3/4-x,3/4+z
1/2-x,1/2-y,1/2-z
3/4+y,1/4-x,1/4-z
1/2+x,y,1/2-z
1/4-y,1/4+x,1/4-z
loop_
_atom_site_type_symbol
_atom_site_label
_atom_site_fract_x
_atom_site_fract_y
_atom_site_fract_z
Si Si1 0.975160 0.518326 0.150708
Si Si2 0.648274 0.674387 0.579344
Si Si3 0.583394 0.258991 0.173932
Si Si4 0.770419 0.559771 0.924077
O O1 0.891860 0.505044 0.171392
O O2 0.020547 0.457506 0.223364
O O3 0.991917 0.601609 0.174289
O O4 0.000000 0.500000 0.000000
O O5 0.590033 0.655991 0.471216
O O6 0.602501 0.708821 0.699850
O O7 0.686972 0.603392 0.630255
O O8 0.500000 0.250000 0.137327
O O9 0.725491 0.517412 0.815879
#
# Coordination Sequence:
#
# PCOD9546256 Si02
#       4
#    16  16  16  16
#     4  10  19  30  49  82 107 143 181 241 279 338
#     4  11  16  30  49  80 110 133 180 239 289 316
#     4  11  16  25  47  77 109 136 174 237 288 322
#     4  12  22  35  54  82 118 152 185 235 290 342
#
# _framework density 17.931290000000001
#
# number of rings (size 3 to 8) (size 9 to 14) (size 15 to 20)
#    0.000    1.000   12.500    0.000    0.000    0.000 
#    0.000    0.000    0.000    1.500    0.000    0.000 
#    0.000    0.000    0.000    0.000    0.000    0.000 
#
# Total GULP energy -178328.856935 kJ/mol
# GULP energy per Si atom -5572.776779 kJ/mol
# Density = 1.789048 g / cm^3
# Si number density = 17.931290 Si / 1000 Ang^3
#
#
#
# Elastic Constant Matrix: (Units=GPa)
#
#
# Indices 1 2 3 4 5 6 
#
# 1 123.8910 25.7347 24.3284 0.0000 0.0000 8.9238
# 2 25.7347 123.8910 24.3284 0.0000 0.0000 -8.9238
# 3 24.3284 24.3284 14.8184 0.0000 0.0000 0.0000
# 4 0.0000 0.0000 0.0000 10.0828 0.0000 0.0000
# 5 0.0000 0.0000 0.0000 0.0000 10.0828 0.0000
# 6 8.9238 -8.9238 0.0000 0.0000 0.0000 36.2071
#
#
#
# Elastic Compliance Matrix: (Units=1/GPa)
#
#
# Indices 1 2 3 4 5 6 
#
# 1 0.012502 0.001836 -0.023541 0.000000 0.000000 -0.002629
# 2 0.001836 0.012502 -0.023541 0.000000 0.000000 0.002629
# 3 -0.023541 -0.023541 0.144780 0.000000 0.000000 0.000000
# 4 0.000000 0.000000 0.000000 0.099179 0.000000 0.000000
# 5 0.000000 0.000000 0.000000 0.000000 0.099179 0.000000
# 6 -0.002629 0.002629 0.000000 0.000000 0.000000 0.028915
#
#
# Mechanical properties :
#
#
# Convention : Reuss Voigt Hill
#
# Bulk Modulus (GPa) = 12.61116 45.70928 29.16022
# Shear Modulus (GPa) = 9.72804 23.82179 16.77492
#
# Velocity S-wave (km/s) = 2.33173 3.64882 3.06193
# Velocity P-wave (km/s) = 3.78122 6.58016 5.36638
#
# Compressibility (1/GPa) = 0.07929484
#
# Stress axis : x y z
#
# Youngs Moduli (GPa) = 79.98617 79.98617 6.90703
#
# Poissons Ratio (x) = -0.14688 0.16260
# Poissons Ratio (y) = -0.14688 0.16260
# Poissons Ratio (z) = 1.88292 1.88292
#
# Static dielectric constant tensor:
#      x y z
#    x 1.666380 0.000000 0.000000 
#    y 0.000000 1.666380 0.000000 
#    z 0.000000 0.000000 1.616020 
# 
# From -- ./inp_files/2337.got.cif
#   From: 2010.05.17/outbox.cif.g08.bks.cpg/sg88_2_cif.got.tgz:2337.got - 2010.06.03 19:11:41.
