data_PCOD9546552
_publ_section_title
;
Structure prediction by ZEFSAII (Michael W. Deem and Ramdas Pophale) SiO2 
 PCOD9546552
Probable space group: I 41/A
;
_chemical_formula_sum "Si O2"
_cell_formula_units_Z 72
_cell_length_a 16.881543
_cell_length_b 16.881543
_cell_length_c 11.540414
_cell_angle_alpha 90.000000
_cell_angle_beta 90.000000
_cell_angle_gamma 90.000000
_cell_volume 3288.862126
_symmetry_space_group_name_H-M "I 41/A"
_symmetry_group_IT_number 88
_space_group.IT_coordinate_system_code '2'
_symmetry_cell_setting 'tetragonal'
loop_
_space_group_symop_operation_xyz
x,y,z
3/4-y,1/4+x,1/4+z
-x,1/2-y,z
1/4+y,1/4-x,1/4+z
-x,-y,-z
1/4+y,3/4-x,3/4-z
x,1/2+y,-z
3/4-y,3/4+x,3/4-z
1/2+x,1/2+y,1/2+z
1/4-y,3/4+x,3/4+z
1/2-x,-y,1/2+z
3/4+y,3/4-x,3/4+z
1/2-x,1/2-y,1/2-z
3/4+y,1/4-x,1/4-z
1/2+x,y,1/2-z
1/4-y,1/4+x,1/4-z
loop_
_atom_site_type_symbol
_atom_site_label
_atom_site_fract_x
_atom_site_fract_y
_atom_site_fract_z
Si Si1 0.745059 0.843818 0.741255
Si Si2 0.100682 0.611176 0.192929
Si Si3 0.249913 0.212439 0.876381
Si Si4 0.412402 0.401135 0.266941
Si Si5 0.500000 0.250000 0.176284
O O1 0.750000 0.750000 0.750000
O O2 0.720294 0.859398 0.872197
O O3 0.676510 0.857375 0.647551
O O4 0.827227 0.885260 0.707803
O O5 0.182374 0.648930 0.149842
O O6 0.076022 0.579966 0.320600
O O7 0.036434 0.676925 0.149356
O O8 0.250000 0.250000 0.750000
O O9 0.219261 0.282541 0.961476
O O10 0.462492 0.320849 0.251343
#
# Coordination Sequence:
#
# PCOD9546552 Si02
#       5
#    16  16  16  16   8
#     4  12  23  41  70 100 142 171 237 289 353 408
#     4  11  24  46  69 107 135 188 231 298 354 421
#     4  11  26  48  72 100 141 182 236 284 356 430
#     4  11  24  42  67 102 135 185 227 293 352 415
#     4  10  22  39  75 100 142 184 247 289 350 430
#
# _framework density 21.89207
#
# number of rings (size 3 to 8) (size 9 to 14) (size 15 to 20)
#    0.000    0.889    4.444    1.333    3.111    6.222 
#   12.000    1.111    0.000    0.000    0.000    0.000 
#    0.000    0.000    0.000    0.000    0.000    0.000 
#
# Total GULP energy -200542.783529 kJ/mol
# GULP energy per Si atom -5570.632876 kJ/mol
# Density = 2.184224 g / cm^3
# Si number density = 21.892070 Si / 1000 Ang^3
#
#
#
# Elastic Constant Matrix: (Units=GPa)
#
#
# Indices 1 2 3 4 5 6 
#
# 1 88.8015 38.3943 22.5673 0.0000 0.0000 3.0171
# 2 38.3943 88.8015 22.5673 0.0000 0.0000 -3.0171
# 3 22.5673 22.5673 94.8026 0.0000 0.0000 0.0000
# 4 0.0000 0.0000 0.0000 27.9647 0.0000 0.0000
# 5 0.0000 0.0000 0.0000 0.0000 27.9647 0.0000
# 6 3.0171 -3.0171 0.0000 0.0000 0.0000 14.5191
#
#
#
# Elastic Compliance Matrix: (Units=1/GPa)
#
#
# Indices 1 2 3 4 5 6 
#
# 1 0.014466 -0.005879 -0.002044 0.000000 0.000000 -0.004228
# 2 -0.005879 0.014466 -0.002044 0.000000 0.000000 0.004228
# 3 -0.002044 -0.002044 0.011521 0.000000 0.000000 0.000000
# 4 0.000000 0.000000 0.000000 0.035759 0.000000 0.000000
# 5 0.000000 0.000000 0.000000 0.000000 0.035759 0.000000
# 6 -0.004228 0.004228 0.000000 0.000000 0.000000 0.070632
#
#
# Mechanical properties :
#
#
# Convention : Reuss Voigt Hill
#
# Bulk Modulus (GPa) = 48.73454 48.82925 48.78189
# Shear Modulus (GPa) = 23.88032 26.68146 25.28089
#
# Velocity S-wave (km/s) = 3.30634 3.49488 3.40192
# Velocity P-wave (km/s) = 6.07334 6.21599 6.14508
#
# Compressibility (1/GPa) = 0.02051933
#
# Stress axis : x y z
#
# Youngs Moduli (GPa) = 69.12815 69.12815 86.79475
#
# Poissons Ratio (x) = 0.40638 0.17742
# Poissons Ratio (y) = 0.40638 0.17742
# Poissons Ratio (z) = 0.14131 0.14131
#
# Static dielectric constant tensor:
#      x y z
#    x 1.748800 0.000000 0.000000 
#    y 0.000000 1.748800 0.000000 
#    z 0.000000 0.000000 1.903370 
# 
# From -- ./inp_files/2433.got.cif
#   From: 2010.05.17/outbox.cif.g08.bks.cpg/sg88_2_cif.got.tgz:2433.got - 2010.06.03 19:11:41.
