data_PCOD9546043
_publ_section_title
;
Structure prediction by ZEFSAII (Michael W. Deem and Ramdas Pophale) SiO2 
 PCOD9546043
Probable space group: I 4/M
;
_chemical_formula_sum "Si O2"
_cell_formula_units_Z 72
_cell_length_a 13.497050
_cell_length_b 13.497050
_cell_length_c 17.043307
_cell_angle_alpha 90.000000
_cell_angle_beta 90.000000
_cell_angle_gamma 90.000000
_cell_volume 3104.785350
_symmetry_space_group_name_H-M "I 4/M"
_symmetry_group_IT_number 87
_symmetry_cell_setting 'tetragonal'
loop_
_space_group_symop_operation_xyz
x,y,z
-y,x,z
-x,-y,z
y,-x,z
-x,-y,-z
y,-x,-z
x,y,-z
-y,x,-z
1/2+x,1/2+y,1/2+z
1/2-y,1/2+x,1/2+z
1/2-x,1/2-y,1/2+z
1/2+y,1/2-x,1/2+z
1/2-x,1/2-y,1/2-z
1/2+y,1/2-x,1/2-z
1/2+x,1/2+y,1/2-z
1/2-y,1/2+x,1/2-z
loop_
_atom_site_type_symbol
_atom_site_label
_atom_site_fract_x
_atom_site_fract_y
_atom_site_fract_z
Si Si1 0.877845 0.887408 0.088495
Si Si2 0.604475 0.055600 0.086738
Si Si3 0.339412 0.543591 0.000000
Si Si4 0.897736 0.284412 0.193643
Si Si5 0.224829 0.519751 0.162053
O O1 0.802314 0.839185 0.149004
O O2 0.993640 0.868323 0.097597
O O3 0.847205 0.863157 0.000000
O O4 0.566641 0.152101 0.130116
O O5 0.500000 0.000000 0.077690
O O6 0.671920 0.984123 0.137518
O O7 0.645968 0.074152 0.000000
O O8 0.382373 0.432041 0.000000
O O9 0.281190 0.554410 0.082929
O O10 0.829570 0.383506 0.199890
O O11 0.956136 0.232059 0.265578
#
# Coordination Sequence:
#
# PCOD9546043 Si02
#       5
#    16  16   8  16  16
#     4   9  20  40  61  86 125 172 213 256 330 411
#     4   9  17  31  56  90 130 166 198 251 338 406
#     4  11  28  54  71  86 132 197 242 271 319 403
#     4  11  21  36  64 102 135 162 206 280 341 396
#     4  11  22  40  65  98 131 168 222 276 337 398
#
# _framework density 23.190007999999999
#
# number of rings (size 3 to 8) (size 9 to 14) (size 15 to 20)
#    0.000    1.889    3.333    1.333    3.111    1.778 
#    4.000    4.444    0.000    0.000    0.000    0.000 
#    0.000    0.000    0.000    0.000    0.000    0.000 
#
# Total GULP energy -200657.619865 kJ/mol
# GULP energy per Si atom -5573.822774 kJ/mol
# Density = 2.313723 g / cm^3
# Si number density = 23.190008 Si / 1000 Ang^3
#
#
#
# Elastic Constant Matrix: (Units=GPa)
#
#
# Indices 1 2 3 4 5 6 
#
# 1 59.9251 0.6511 17.6060 0.0000 0.0000 -1.9119
# 2 0.6511 59.9251 17.6061 0.0000 0.0000 1.9119
# 3 17.6060 17.6061 104.5211 0.0000 0.0000 0.0000
# 4 0.0000 0.0000 0.0000 17.5977 0.0000 0.0000
# 5 0.0000 0.0000 0.0000 0.0000 17.5977 0.0000
# 6 -1.9119 1.9119 0.0000 0.0000 0.0000 1.4711
#
#
#
# Elastic Compliance Matrix: (Units=1/GPa)
#
#
# Indices 1 2 3 4 5 6 
#
# 1 0.018357 -0.000057 -0.003083 0.000000 0.000000 0.023932
# 2 -0.000057 0.018357 -0.003083 0.000000 0.000000 -0.023932
# 3 -0.003083 -0.003083 0.010606 0.000000 0.000000 0.000000
# 4 0.000000 0.000000 0.000000 0.056826 0.000000 0.000000
# 5 0.000000 0.000000 0.000000 0.000000 0.056826 0.000000
# 6 0.023932 -0.023932 0.000000 0.000000 0.000000 0.741958
#
#
# Mechanical properties :
#
#
# Convention : Reuss Voigt Hill
#
# Bulk Modulus (GPa) = 28.67327 32.89976 30.78651
# Shear Modulus (GPa) = 5.39375 19.90050 12.64713
#
# Velocity S-wave (km/s) = 1.52674 2.93260 2.33785
# Velocity P-wave (km/s) = 3.93691 5.06801 4.53784
#
# Compressibility (1/GPa) = 0.03487569
#
# Stress axis : x y z
#
# Youngs Moduli (GPa) = 54.47422 54.47422 94.28700
#
# Poissons Ratio (x) = 0.00312 0.29064
# Poissons Ratio (y) = 0.00312 0.29064
# Poissons Ratio (z) = 0.16792 0.16792
#
# Static dielectric constant tensor:
#      x y z
#    x 1.921220 0.000000 0.000000 
#    y 0.000000 1.921220 0.000000 
#    z 0.000000 0.000000 1.980270 
# 
# From -- ./inp_files/4287.got.cif
#   From: 2010.05.17/outbox.cif.g08.bks.cpg/sg87_3_cif.got.tgz:4287.got - 2010.06.03 19:07:00.
