data_PCOD9546775
_publ_section_title
;
Structure prediction by ZEFSAII (Michael W. Deem and Ramdas Pophale) SiO2 
 PCOD9546775
Probable space group: I 41/A
;
_chemical_formula_sum "Si O2"
_cell_formula_units_Z 64
_cell_length_a 19.414531
_cell_length_b 19.414531
_cell_length_c 5.733342
_cell_angle_alpha 90.000000
_cell_angle_beta 90.000000
_cell_angle_gamma 90.000000
_cell_volume 2161.034280
_symmetry_space_group_name_H-M "I 41/A"
_symmetry_group_IT_number 88
_space_group.IT_coordinate_system_code '2'
_symmetry_cell_setting 'tetragonal'
loop_
_space_group_symop_operation_xyz
x,y,z
3/4-y,1/4+x,1/4+z
-x,1/2-y,z
1/4+y,1/4-x,1/4+z
-x,-y,-z
1/4+y,3/4-x,3/4-z
x,1/2+y,-z
3/4-y,3/4+x,3/4-z
1/2+x,1/2+y,1/2+z
1/4-y,3/4+x,3/4+z
1/2-x,-y,1/2+z
3/4+y,3/4-x,3/4+z
1/2-x,1/2-y,1/2-z
3/4+y,1/4-x,1/4-z
1/2+x,y,1/2-z
1/4-y,1/4+x,1/4-z
loop_
_atom_site_type_symbol
_atom_site_label
_atom_site_fract_x
_atom_site_fract_y
_atom_site_fract_z
Si Si1 0.665583 0.529889 0.644500
Si Si2 0.971109 0.392929 0.116982
Si Si3 0.908083 0.539859 0.623863
Si Si4 0.579352 0.625817 0.112267
O O1 0.702505 0.561174 0.867906
O O2 0.586524 0.546502 0.618060
O O3 0.701208 0.579786 0.455970
O O4 0.950180 0.352544 0.357865
O O5 0.043776 0.426454 0.178108
O O6 0.959358 0.359723 0.861728
O O7 0.910435 0.595503 0.413424
O O8 0.925155 0.459283 0.597499
#
# Coordination Sequence:
#
# PCOD9546775 Si02
#       4
#    16  16  16  16
#     4  11  25  40  70 108 147 186 246 314 374 433
#     4  11  26  43  69 103 144 187 232 295 367 441
#     4  11  23  45  69 106 140 186 239 295 367 431
#     4  11  26  42  70 101 138 184 234 293 352 433
#
# _framework density 29.615449000000002
#
# number of rings (size 3 to 8) (size 9 to 14) (size 15 to 20)
#    0.000    1.000    5.000    1.500    7.000    4.000 
#    0.000    0.000    0.000   24.750    0.000    0.000 
#    0.000    0.000    0.000    0.000    0.000    0.000 
#
# Total GULP energy -178861.315358 kJ/mol
# GULP energy per Si atom -5589.416105 kJ/mol
# Density = 2.954804 g / cm^3
# Si number density = 29.615449 Si / 1000 Ang^3
#
#
#
# Elastic Constant Matrix: (Units=GPa)
#
#
# Indices 1 2 3 4 5 6 
#
# 1 103.8978 32.7473 29.4791 0.0000 0.0000 -11.0730
# 2 32.7473 103.8978 29.4791 0.0000 0.0000 11.0730
# 3 29.4791 29.4791 223.2726 0.0000 0.0000 0.0000
# 4 0.0000 0.0000 0.0000 45.9228 0.0000 0.0000
# 5 0.0000 0.0000 0.0000 0.0000 45.9228 0.0000
# 6 -11.0730 11.0730 0.0000 0.0000 0.0000 33.4830
#
#
#
# Elastic Compliance Matrix: (Units=1/GPa)
#
#
# Indices 1 2 3 4 5 6 
#
# 1 0.011714 -0.003954 -0.001025 0.000000 0.000000 0.005181
# 2 -0.003954 0.011714 -0.001025 0.000000 0.000000 -0.005181
# 3 -0.001025 -0.001025 0.004749 0.000000 0.000000 0.000000
# 4 0.000000 0.000000 0.000000 0.021776 0.000000 0.000000
# 5 0.000000 0.000000 0.000000 0.000000 0.021776 0.000000
# 6 0.005181 -0.005181 0.000000 0.000000 0.000000 0.033293
#
#
# Mechanical properties :
#
#
# Convention : Reuss Voigt Hill
#
# Bulk Modulus (GPa) = 61.83685 68.27548 65.05616
# Shear Modulus (GPa) = 40.84384 47.68988 44.26686
#
# Velocity S-wave (km/s) = 3.71771 4.01721 3.87036
# Velocity P-wave (km/s) = 6.27325 6.67992 6.47978
#
# Compressibility (1/GPa) = 0.01617159
#
# Stress axis : x y z
#
# Youngs Moduli (GPa) = 85.36884 85.36884 210.55325
#
# Poissons Ratio (x) = 0.33751 0.21574
# Poissons Ratio (y) = 0.33751 0.21574
# Poissons Ratio (z) = 0.08747 0.08747
#
# Static dielectric constant tensor:
#      x y z
#    x 2.238160 0.000000 0.000000 
#    y 0.000000 2.238160 0.000000 
#    z 0.000000 0.000000 2.514920 
# 
# From -- ./inp_files/586.got.cif
#   From: 2010.05.17/outbox.cif.g08.bks.cpg/sg88_1_cif.got.tgz:586.got - 2010.06.03 19:11:41.
