data_PCOD9546281
_publ_section_title
;
Structure prediction by ZEFSAII (Michael W. Deem and Ramdas Pophale) SiO2 
 PCOD9546281
Probable space group: I 41/A
;
_chemical_formula_sum "Si O2"
_cell_formula_units_Z 112
_cell_length_a 15.233329
_cell_length_b 15.233329
_cell_length_c 24.194295
_cell_angle_alpha 90.000000
_cell_angle_beta 90.000000
_cell_angle_gamma 90.000000
_cell_volume 5614.390491
_symmetry_space_group_name_H-M "I 41/A"
_symmetry_group_IT_number 88
_space_group.IT_coordinate_system_code '2'
_symmetry_cell_setting 'tetragonal'
loop_
_space_group_symop_operation_xyz
x,y,z
3/4-y,1/4+x,1/4+z
-x,1/2-y,z
1/4+y,1/4-x,1/4+z
-x,-y,-z
1/4+y,3/4-x,3/4-z
x,1/2+y,-z
3/4-y,3/4+x,3/4-z
1/2+x,1/2+y,1/2+z
1/4-y,3/4+x,3/4+z
1/2-x,-y,1/2+z
3/4+y,3/4-x,3/4+z
1/2-x,1/2-y,1/2-z
3/4+y,1/4-x,1/4-z
1/2+x,y,1/2-z
1/4-y,1/4+x,1/4-z
loop_
_atom_site_type_symbol
_atom_site_label
_atom_site_fract_x
_atom_site_fract_y
_atom_site_fract_z
Si Si1 0.098519 0.226161 0.329841
Si Si2 0.520483 0.092096 0.970502
Si Si3 0.725505 0.428762 0.831969
Si Si4 0.321937 0.582683 0.807664
Si Si5 0.881910 0.915825 0.253723
Si Si6 0.355359 0.433494 0.239496
Si Si7 0.656488 0.688788 0.947591
O O1 0.142930 0.319468 0.316045
O O2 0.100427 0.156860 0.279552
O O3 0.142940 0.179767 0.382587
O O4 0.000000 0.250000 0.346198
O O5 0.584718 0.073728 0.918740
O O6 0.423376 0.131007 0.959822
O O7 0.579558 0.145437 0.015024
O O8 0.500000 0.000000 0.000000
O O9 0.784091 0.450196 0.884712
O O10 0.791233 0.421297 0.779783
O O11 0.660225 0.506165 0.814888
O O12 0.389710 0.510496 0.782644
O O13 0.237450 0.588365 0.768229
O O14 0.958533 0.902868 0.210294
O O15 0.403948 0.499740 0.281221
#
# Coordination Sequence:
#
# PCOD9546281 Si02
#       7
#    16  16  16  16  16  16  16
#     4  12  24  39  65  96 122 165 222 266 320 389
#     4   9  19  34  57  86 120 154 199 253 314 382
#     4   9  19  38  58  87 117 161 209 246 324 381
#     4  11  22  40  61  88 126 167 212 260 318 382
#     4  10  19  36  58  87 123 158 201 261 311 379
#     4  10  23  40  62  90 124 167 210 273 321 380
#     4  11  21  39  63  90 124 163 210 261 329 389
#
# _framework density 19.948736
#
# number of rings (size 3 to 8) (size 9 to 14) (size 15 to 20)
#    0.000    1.714    1.429    4.286    2.000    0.000 
#    5.143    0.000    0.000    0.000    0.000    0.000 
#    0.000    0.000    0.000    0.000    0.000    0.000 
#
# Total GULP energy -312177.220202 kJ/mol
# GULP energy per Si atom -5574.593218 kJ/mol
# Density = 1.990333 g / cm^3
# Si number density = 19.948736 Si / 1000 Ang^3
#
#
#
# Elastic Constant Matrix: (Units=GPa)
#
#
# Indices 1 2 3 4 5 6 
#
# 1 73.0863 16.7911 18.6552 0.0000 0.0000 -5.3870
# 2 16.7911 73.0863 18.6552 0.0000 0.0000 5.3870
# 3 18.6552 18.6552 56.3949 0.0000 0.0000 0.0000
# 4 0.0000 0.0000 0.0000 21.1022 0.0000 0.0000
# 5 0.0000 0.0000 0.0000 0.0000 21.1022 0.0000
# 6 -5.3870 5.3870 0.0000 0.0000 0.0000 29.9307
#
#
#
# Elastic Compliance Matrix: (Units=1/GPa)
#
#
# Indices 1 2 3 4 5 6 
#
# 1 0.015647 -0.002750 -0.004266 0.000000 0.000000 0.003311
# 2 -0.002750 0.015647 -0.004266 0.000000 0.000000 -0.003311
# 3 -0.004266 -0.004266 0.020555 0.000000 0.000000 0.000000
# 4 0.000000 0.000000 0.000000 0.047388 0.000000 0.000000
# 5 0.000000 0.000000 0.000000 0.000000 0.047388 0.000000
# 6 0.003311 -0.003311 0.000000 0.000000 0.000000 0.034602
#
#
# Mechanical properties :
#
#
# Convention : Reuss Voigt Hill
#
# Bulk Modulus (GPa) = 34.14853 34.53006 34.33930
# Shear Modulus (GPa) = 23.41314 24.32475 23.86895
#
# Velocity S-wave (km/s) = 3.42960 3.49573 3.46282
# Velocity P-wave (km/s) = 5.73046 5.80004 5.76535
#
# Compressibility (1/GPa) = 0.02928384
#
# Stress axis : x y z
#
# Youngs Moduli (GPa) = 63.90883 63.90883 48.65066
#
# Poissons Ratio (x) = 0.17574 0.20756
# Poissons Ratio (y) = 0.17574 0.20756
# Poissons Ratio (z) = 0.27266 0.27266
#
# Static dielectric constant tensor:
#      x y z
#    x 1.727880 0.000000 0.000000 
#    y 0.000000 1.727880 0.000000 
#    z 0.000000 0.000000 2.270740 
# 
# From -- ./inp_files/5337.got.cif
#   From: 2010.05.17/outbox.cif.g08.bks.cpg/sg88_3_cif.got.tgz:5337.got - 2010.06.03 19:11:41.
