data_PCOD9546522
_publ_section_title
;
Structure prediction by ZEFSAII (Michael W. Deem and Ramdas Pophale) SiO2 
 PCOD9546522
Probable space group: I 41/A
;
_chemical_formula_sum "Si O2"
_cell_formula_units_Z 96
_cell_length_a 17.823099
_cell_length_b 17.823099
_cell_length_c 17.268828
_cell_angle_alpha 90.000000
_cell_angle_beta 90.000000
_cell_angle_gamma 90.000000
_cell_volume 5485.665256
_symmetry_space_group_name_H-M "I 41/A"
_symmetry_group_IT_number 88
_space_group.IT_coordinate_system_code '2'
_symmetry_cell_setting 'tetragonal'
loop_
_space_group_symop_operation_xyz
x,y,z
3/4-y,1/4+x,1/4+z
-x,1/2-y,z
1/4+y,1/4-x,1/4+z
-x,-y,-z
1/4+y,3/4-x,3/4-z
x,1/2+y,-z
3/4-y,3/4+x,3/4-z
1/2+x,1/2+y,1/2+z
1/4-y,3/4+x,3/4+z
1/2-x,-y,1/2+z
3/4+y,3/4-x,3/4+z
1/2-x,1/2-y,1/2-z
3/4+y,1/4-x,1/4-z
1/2+x,y,1/2-z
1/4-y,1/4+x,1/4-z
loop_
_atom_site_type_symbol
_atom_site_label
_atom_site_fract_x
_atom_site_fract_y
_atom_site_fract_z
Si Si1 0.888450 0.307219 0.281669
Si Si2 0.947507 0.137901 0.270181
Si Si3 0.831613 0.075299 0.374159
Si Si4 0.235771 0.503200 0.738327
Si Si5 0.272391 0.863776 0.888637
Si Si6 0.049523 0.457361 0.121081
O O1 0.912394 0.220696 0.274828
O O2 0.852486 0.329259 0.363579
O O3 0.828799 0.318713 0.212112
O O4 0.963389 0.354376 0.270201
O O5 0.913858 0.093872 0.343232
O O6 0.926499 0.098507 0.189522
O O7 0.782953 0.152064 0.382195
O O8 0.791276 0.031431 0.304548
O O9 0.819338 0.023156 0.448426
O O10 0.155351 0.488571 0.779187
O O11 0.236741 0.568991 0.673856
O O12 0.220863 0.790075 0.876938
#
# Coordination Sequence:
#
# PCOD9546522 Si02
#       6
#    16  16  16  16  16  16
#     4  11  22  35  53  83 120 150 186 223 274 348
#     4  11  23  35  52  84 117 152 186 224 277 342
#     4  11  20  36  52  80 110 148 189 237 275 331
#     4  10  22  34  55  77 110 147 197 235 274 323
#     4  11  21  37  56  83 112 149 190 234 278 336
#     4  12  21  33  57  81 120 154 178 220 288 341
#
# _framework density 17.500157000000002
#
# number of rings (size 3 to 8) (size 9 to 14) (size 15 to 20)
#    0.000    1.000    5.000    3.500    4.667    1.333 
#    0.000    0.833    0.000    0.000    0.000    0.000 
#    0.000    0.000    0.000    0.000    0.000    0.000 
#
# Total GULP energy -267740.348826 kJ/mol
# GULP energy per Si atom -5577.923934 kJ/mol
# Density = 1.746033 g / cm^3
# Si number density = 17.500157 Si / 1000 Ang^3
#
#
#
# Elastic Constant Matrix: (Units=GPa)
#
#
# Indices 1 2 3 4 5 6 
#
# 1 47.2147 44.1048 36.6955 0.0000 0.0000 5.4260
# 2 44.1048 47.2147 36.6955 0.0000 0.0000 -5.4260
# 3 36.6955 36.6955 72.5566 0.0000 0.0000 0.0000
# 4 0.0000 0.0000 0.0000 29.7130 0.0000 0.0000
# 5 0.0000 0.0000 0.0000 0.0000 29.7130 0.0000
# 6 5.4260 -5.4260 0.0000 0.0000 0.0000 29.8878
#
#
#
# Elastic Compliance Matrix: (Units=1/GPa)
#
#
# Indices 1 2 3 4 5 6 
#
# 1 0.447907 -0.429457 -0.009331 0.000000 0.000000 -0.159282
# 2 -0.429457 0.447907 -0.009331 0.000000 0.000000 0.159282
# 3 -0.009331 -0.009331 0.023221 0.000000 0.000000 0.000000
# 4 0.000000 0.000000 0.000000 0.033655 0.000000 0.000000
# 5 0.000000 0.000000 0.000000 0.000000 0.033655 0.000000
# 6 -0.159282 0.159282 0.000000 0.000000 0.000000 0.091292
#
#
# Mechanical properties :
#
#
# Convention : Reuss Voigt Hill
#
# Bulk Modulus (GPa) = 43.86709 44.66420 44.26565
# Shear Modulus (GPa) = 2.52337 21.16208 11.84273
#
# Velocity S-wave (km/s) = 1.20210 3.48120 2.60421
# Velocity P-wave (km/s) = 5.20075 6.46033 5.86446
#
# Compressibility (1/GPa) = 0.02279613
#
# Stress axis : x y z
#
# Youngs Moduli (GPa) = 2.23261 2.23261 43.06537
#
# Poissons Ratio (x) = 0.95881 0.40184
# Poissons Ratio (y) = 0.95881 0.40184
# Poissons Ratio (z) = 0.02083 0.02083
#
# Static dielectric constant tensor:
#      x y z
#    x 1.643480 0.000000 0.000000 
#    y 0.000000 1.643480 0.000000 
#    z 0.000000 0.000000 1.599530 
# 
# From -- ./inp_files/3913.got.cif
#   From: 2010.05.17/outbox.cif.g08.bks.cpg/sg88_2_cif.got.tgz:3913.got - 2010.06.03 19:11:41.
