data_PCOD9546990
_publ_section_title
;
Structure prediction by ZEFSAII (Michael W. Deem and Ramdas Pophale) SiO2 
 PCOD9546990
Probable space group: P 4 2 2
;
_chemical_formula_sum "Si O2"
_cell_formula_units_Z 36
_cell_length_a 14.617748
_cell_length_b 14.617748
_cell_length_c 8.067285
_cell_angle_alpha 90.000000
_cell_angle_beta 90.000000
_cell_angle_gamma 90.000000
_cell_volume 1723.805814
_symmetry_space_group_name_H-M "P 4 2 2"
_symmetry_group_IT_number 89
_symmetry_cell_setting 'tetragonal'
loop_
_space_group_symop_operation_xyz
x,y,z
-y,x,z
-x,-y,z
y,-x,z
x,-y,-z
-x,y,-z
y,x,-z
-y,-x,-z
loop_
_atom_site_type_symbol
_atom_site_label
_atom_site_fract_x
_atom_site_fract_y
_atom_site_fract_z
Si Si1 0.109936 0.109936 0.500000
Si Si2 0.634733 0.701516 0.319488
Si Si3 0.453853 0.745318 0.177353
Si Si4 0.596029 0.058039 0.315629
Si Si5 0.701744 0.106448 0.662710
O O1 0.127458 0.191248 0.633098
O O2 0.000000 0.121309 0.500000
O O3 0.677029 0.677029 0.500000
O O4 0.525970 0.704336 0.310070
O O5 0.680859 0.632651 0.193699
O O6 0.660531 0.803263 0.262490
O O7 0.427217 0.849603 0.220130
O O8 0.500000 0.741219 0.000000
O O9 0.646427 0.092787 0.486272
O O10 0.500000 0.000000 0.328503
O O11 0.671609 0.986567 0.245756
#
# Coordination Sequence:
#
# PCOD9546990 Si02
#       5
#     4   8   8   8   8
#     4  11  20  30  50  90 142 177 198 264 351 390
#     4  12  24  42  71  96 125 178 234 285 341 409
#     4  12  27  45  65  97 140 180 223 288 357 428
#     4  11  21  37  66  94 131 172 225 285 339 387
#     4  11  20  36  63  99 133 170 230 291 328 388
#
# _framework density 20.884024
#
# number of rings (size 3 to 8) (size 9 to 14) (size 15 to 20)
#    0.000    0.556    7.778    2.667    0.000    0.889 
#    0.000    2.222    0.000    0.000    0.000    0.000 
#    0.000    0.000    9.333    0.000    0.000    0.000 
#
# Total GULP energy -200442.536665 kJ/mol
# GULP energy per Si atom -5567.848241 kJ/mol
# Density = 2.083649 g / cm^3
# Si number density = 20.884024 Si / 1000 Ang^3
#
#
#
# Elastic Constant Matrix: (Units=GPa)
#
#
# Indices 1 2 3 4 5 6 
#
# 1 127.6013 50.5016 20.1781 0.0000 0.0000 0.0000
# 2 50.5016 127.6013 20.1781 0.0000 0.0000 0.0000
# 3 20.1781 20.1781 55.7656 0.0000 0.0000 0.0000
# 4 0.0000 0.0000 0.0000 18.8116 0.0000 0.0000
# 5 0.0000 0.0000 0.0000 0.0000 18.8116 0.0000
# 6 0.0000 0.0000 0.0000 0.0000 0.0000 35.3912
#
#
#
# Elastic Compliance Matrix: (Units=1/GPa)
#
#
# Indices 1 2 3 4 5 6 
#
# 1 0.009543 -0.003427 -0.002213 0.000000 0.000000 0.000000
# 2 -0.003427 0.009543 -0.002213 0.000000 0.000000 0.000000
# 3 -0.002213 -0.002213 0.019534 0.000000 0.000000 0.000000
# 4 0.000000 0.000000 0.000000 0.053159 0.000000 0.000000
# 5 0.000000 0.000000 0.000000 0.000000 0.053159 0.000000
# 6 0.000000 0.000000 0.000000 0.000000 0.000000 0.028256
#
#
# Mechanical properties :
#
#
# Convention : Reuss Voigt Hill
#
# Bulk Modulus (GPa) = 43.64174 54.74266 49.19220
# Shear Modulus (GPa) = 25.44042 29.27688 27.35865
#
# Velocity S-wave (km/s) = 3.49402 3.74823 3.62336
# Velocity P-wave (km/s) = 6.10083 6.70835 6.41179
#
# Compressibility (1/GPa) = 0.02291384
#
# Stress axis : x y z
#
# Youngs Moduli (GPa) = 104.78660 104.78660 51.19346
#
# Poissons Ratio (x) = 0.35911 0.11329
# Poissons Ratio (y) = 0.35911 0.11329
# Poissons Ratio (z) = 0.23190 0.23190
#
# Static dielectric constant tensor:
#      x y z
#    x 1.784920 0.000000 0.000000 
#    y 0.000000 1.784920 0.000000 
#    z 0.000000 0.000000 1.789230 
# 
# From -- ./inp_files/950.got.cif
#   From: 2010.05.17/outbox.cif.g08.bks.cpg/sg89_1_cif.got.tgz:950.got - 2010.06.03 19:15:31.
