data_PCOD9546333
_publ_section_title
;
Structure prediction by ZEFSAII (Michael W. Deem and Ramdas Pophale) SiO2 
 PCOD9546333
Probable space group: I 41/A
;
_chemical_formula_sum "Si O2"
_cell_formula_units_Z 128
_cell_length_a 18.962470
_cell_length_b 18.962470
_cell_length_c 17.184339
_cell_angle_alpha 90.000000
_cell_angle_beta 90.000000
_cell_angle_gamma 90.000000
_cell_volume 6179.063310
_symmetry_space_group_name_H-M "I 41/A"
_symmetry_group_IT_number 88
_space_group.IT_coordinate_system_code '2'
_symmetry_cell_setting 'tetragonal'
loop_
_space_group_symop_operation_xyz
x,y,z
3/4-y,1/4+x,1/4+z
-x,1/2-y,z
1/4+y,1/4-x,1/4+z
-x,-y,-z
1/4+y,3/4-x,3/4-z
x,1/2+y,-z
3/4-y,3/4+x,3/4-z
1/2+x,1/2+y,1/2+z
1/4-y,3/4+x,3/4+z
1/2-x,-y,1/2+z
3/4+y,3/4-x,3/4+z
1/2-x,1/2-y,1/2-z
3/4+y,1/4-x,1/4-z
1/2+x,y,1/2-z
1/4-y,1/4+x,1/4-z
loop_
_atom_site_type_symbol
_atom_site_label
_atom_site_fract_x
_atom_site_fract_y
_atom_site_fract_z
Si Si1 0.931146 0.638075 0.950159
Si Si2 0.516485 0.926355 0.286728
Si Si3 0.045268 0.148068 0.654416
Si Si4 0.326620 0.737413 0.457486
Si Si5 0.586830 0.982016 0.435307
Si Si6 0.642731 0.039975 0.111883
Si Si7 0.162365 0.897084 0.294521
Si Si8 0.087816 0.148293 0.026108
O O1 0.931825 0.637398 0.857822
O O2 0.005451 0.665390 0.982389
O O3 0.869189 0.687026 0.982391
O O4 0.920210 0.561054 0.985315
O O5 0.463306 0.871128 0.245493
O O6 0.526009 0.952109 0.375955
O O7 0.591990 0.894524 0.259750
O O8 0.503074 0.998481 0.240211
O O9 0.088529 0.219191 0.635624
O O10 0.084319 0.087570 0.605786
O O11 0.320153 0.685297 0.383443
O O12 0.367281 0.812192 0.459567
O O13 0.657197 0.953770 0.392525
O O14 0.590650 0.064272 0.456512
O O15 0.654704 0.968953 0.158995
O O16 0.647711 0.027524 0.020017
#
# Coordination Sequence:
#
# PCOD9546333 Si02
#       8
#    16  16  16  16  16  16  16  16
#     4  11  21  34  58  80 111 161 198 238 308 367
#     4   9  17  37  58  81 121 155 191 251 308 361
#     4   9  18  35  63  91 118 163 207 255 320 371
#     4  10  20  35  56  86 112 156 196 246 295 367
#     4  10  21  36  57  85 117 159 199 246 310 376
#     4   9  20  38  63  86 122 161 206 245 315 378
#     4   9  18  37  63  89 117 163 201 252 310 376
#     4  12  21  36  58  84 118 153 202 250 298 368
#
# _framework density 20.715115000000001
#
# number of rings (size 3 to 8) (size 9 to 14) (size 15 to 20)
#    0.000    2.125    2.500    0.750    1.750    0.000 
#    4.500    5.625    0.000    0.000    0.000    0.000 
#    0.000    0.000    0.000    0.000    0.000    0.000 
#
# Total GULP energy -356537.379674 kJ/mol
# GULP energy per Si atom -5570.896557 kJ/mol
# Density = 2.066797 g / cm^3
# Si number density = 20.715115 Si / 1000 Ang^3
#
#
#
# Elastic Constant Matrix: (Units=GPa)
#
#
# Indices 1 2 3 4 5 6 
#
# 1 59.4452 31.0101 24.5653 0.0000 0.0000 -8.9787
# 2 31.0101 59.4452 24.5653 0.0000 0.0000 8.9787
# 3 24.5653 24.5653 65.5958 0.0000 0.0000 0.0000
# 4 0.0000 0.0000 0.0000 23.5141 0.0000 0.0000
# 5 0.0000 0.0000 0.0000 0.0000 23.5141 0.0000
# 6 -8.9787 8.9787 0.0000 0.0000 0.0000 12.0820
#
#
#
# Elastic Compliance Matrix: (Units=1/GPa)
#
#
# Indices 1 2 3 4 5 6 
#
# 1 0.040073 -0.026195 -0.005197 0.000000 0.000000 0.049247
# 2 -0.026195 0.040073 -0.005197 0.000000 0.000000 -0.049247
# 3 -0.005197 -0.005197 0.019138 0.000000 0.000000 0.000000
# 4 0.000000 0.000000 0.000000 0.042528 0.000000 0.000000
# 5 0.000000 0.000000 0.000000 0.000000 0.042528 0.000000
# 6 0.049247 -0.049247 0.000000 0.000000 0.000000 0.155963
#
#
# Mechanical properties :
#
#
# Convention : Reuss Voigt Hill
#
# Bulk Modulus (GPa) = 38.30733 38.30749 38.30741
# Shear Modulus (GPa) = 11.84322 18.77840 15.31081
#
# Velocity S-wave (km/s) = 2.39366 3.01409 2.72161
# Velocity P-wave (km/s) = 5.11586 5.53585 5.33000
#
# Compressibility (1/GPa) = 0.02610466
#
# Stress axis : x y z
#
# Youngs Moduli (GPa) = 24.95439 24.95439 52.25321
#
# Poissons Ratio (x) = 0.65368 0.27157
# Poissons Ratio (y) = 0.65368 0.27157
# Poissons Ratio (z) = 0.12969 0.12969
#
# Static dielectric constant tensor:
#      x y z
#    x 1.779820 0.000000 0.000000 
#    y 0.000000 1.779820 0.000000 
#    z 0.000000 0.000000 1.770790 
# 
# From -- ./inp_files/4101.got.cif
#   From: 2010.05.17/outbox.cif.g08.bks.cpg/sg88_3_cif.got.tgz:4101.got - 2010.06.03 19:11:41.
