data_PCOD9546366
_publ_section_title
;
Structure prediction by ZEFSAII (Michael W. Deem and Ramdas Pophale) SiO2 
 PCOD9546366
Probable space group: I 41/A
;
_chemical_formula_sum "Si O2"
_cell_formula_units_Z 112
_cell_length_a 14.079930
_cell_length_b 14.079930
_cell_length_c 27.484073
_cell_angle_alpha 90.000000
_cell_angle_beta 90.000000
_cell_angle_gamma 90.000000
_cell_volume 5448.564353
_symmetry_space_group_name_H-M "I 41/A"
_symmetry_group_IT_number 88
_space_group.IT_coordinate_system_code '2'
_symmetry_cell_setting 'tetragonal'
loop_
_space_group_symop_operation_xyz
x,y,z
3/4-y,1/4+x,1/4+z
-x,1/2-y,z
1/4+y,1/4-x,1/4+z
-x,-y,-z
1/4+y,3/4-x,3/4-z
x,1/2+y,-z
3/4-y,3/4+x,3/4-z
1/2+x,1/2+y,1/2+z
1/4-y,3/4+x,3/4+z
1/2-x,-y,1/2+z
3/4+y,3/4-x,3/4+z
1/2-x,1/2-y,1/2-z
3/4+y,1/4-x,1/4-z
1/2+x,y,1/2-z
1/4-y,1/4+x,1/4-z
loop_
_atom_site_type_symbol
_atom_site_label
_atom_site_fract_x
_atom_site_fract_y
_atom_site_fract_z
Si Si1 0.615050 0.313949 0.051036
Si Si2 0.774551 0.959112 0.938537
Si Si3 0.732379 0.384694 0.487937
Si Si4 0.855043 0.081805 0.625147
Si Si5 0.367690 0.666906 0.613544
Si Si6 0.005885 0.587395 0.301211
Si Si7 0.084545 0.108403 0.427022
O O1 0.717927 0.362620 0.050695
O O2 0.526901 0.382090 0.062208
O O3 0.611880 0.219254 0.084825
O O4 0.601013 0.279157 0.995848
O O5 0.861644 0.945905 0.902392
O O6 0.696199 0.018079 0.908869
O O7 0.803746 0.021373 0.984978
O O8 0.672503 0.353480 0.440656
O O9 0.747143 0.300224 0.527363
O O10 0.839658 0.410173 0.470183
O O11 0.822788 0.147294 0.580770
O O12 0.932357 0.130465 0.660054
O O13 0.899002 0.980862 0.607881
O O14 0.374926 0.776821 0.628126
#
# Coordination Sequence:
#
# PCOD9546366 Si02
#       7
#    16  16  16  16  16  16  16
#     4  10  22  38  62  88 126 174 209 264 327 384
#     4  11  23  39  67  93 128 172 214 272 332 391
#     4  10  22  42  64  96 131 165 218 273 329 398
#     4  11  22  37  59  91 128 167 210 265 316 389
#     4  11  24  44  70  94 128 171 224 278 336 395
#     4  10  23  37  59  91 133 165 216 258 316 394
#     4  10  20  38  59  87 128 163 215 260 315 388
#
# _framework density 20.555872000000001
#
# number of rings (size 3 to 8) (size 9 to 14) (size 15 to 20)
#    0.000    1.571    1.429    3.429    0.000    8.857 
#    0.000    0.000    0.000    5.143    0.000    0.000 
#    0.000    0.000    0.000    0.000    0.000    0.000 
#
# Total GULP energy -312169.704510 kJ/mol
# GULP energy per Si atom -5574.459009 kJ/mol
# Density = 2.050909 g / cm^3
# Si number density = 20.555872 Si / 1000 Ang^3
#
#
#
# Elastic Constant Matrix: (Units=GPa)
#
#
# Indices 1 2 3 4 5 6 
#
# 1 70.5497 28.1909 41.2669 0.0000 0.0000 2.3984
# 2 28.1909 70.5497 41.2669 0.0000 0.0000 -2.3984
# 3 41.2669 41.2669 104.0128 0.0000 0.0000 0.0000
# 4 0.0000 0.0000 0.0000 21.4688 0.0000 0.0000
# 5 0.0000 0.0000 0.0000 0.0000 21.4688 0.0000
# 6 2.3984 -2.3984 0.0000 0.0000 0.0000 32.0363
#
#
#
# Elastic Compliance Matrix: (Units=1/GPa)
#
#
# Indices 1 2 3 4 5 6 
#
# 1 0.019481 -0.004329 -0.006012 0.000000 0.000000 -0.001782
# 2 -0.004329 0.019481 -0.006012 0.000000 0.000000 0.001782
# 3 -0.006012 -0.006012 0.014385 0.000000 0.000000 0.000000
# 4 0.000000 0.000000 0.000000 0.046579 0.000000 0.000000
# 5 0.000000 0.000000 0.000000 0.000000 0.046579 0.000000
# 6 -0.001782 0.001782 0.000000 0.000000 0.000000 0.031481
#
#
# Mechanical properties :
#
#
# Convention : Reuss Voigt Hill
#
# Bulk Modulus (GPa) = 48.44346 51.84018 50.14182
# Shear Modulus (GPa) = 22.98093 23.95394 23.46743
#
# Velocity S-wave (km/s) = 3.34724 3.41737 3.38248
# Velocity P-wave (km/s) = 6.20939 6.39102 6.30086
#
# Compressibility (1/GPa) = 0.02064262
#
# Stress axis : x y z
#
# Youngs Moduli (GPa) = 51.33170 51.33170 69.51924
#
# Poissons Ratio (x) = 0.22219 0.41793
# Poissons Ratio (y) = 0.22219 0.41793
# Poissons Ratio (z) = 0.30859 0.30859
#
# Static dielectric constant tensor:
#      x y z
#    x 1.784850 0.000000 0.000000 
#    y 0.000000 1.784850 0.000000 
#    z 0.000000 0.000000 1.731930 
# 
# From -- ./inp_files/5868.got.cif
#   From: 2010.05.17/outbox.cif.g08.bks.cpg/sg88_3_cif.got.tgz:5868.got - 2010.06.03 19:11:41.
