data_PCOD9546698
_publ_section_title
;
Structure prediction by ZEFSAII (Michael W. Deem and Ramdas Pophale) SiO2 
 PCOD9546698
Probable space group: I 41/A
;
_chemical_formula_sum "Si O2"
_cell_formula_units_Z 60
_cell_length_a 11.683036
_cell_length_b 11.683036
_cell_length_c 20.610090
_cell_angle_alpha 90.000000
_cell_angle_beta 90.000000
_cell_angle_gamma 90.000000
_cell_volume 2813.139819
_symmetry_space_group_name_H-M "I 41/A"
_symmetry_group_IT_number 88
_space_group.IT_coordinate_system_code '2'
_symmetry_cell_setting 'tetragonal'
loop_
_space_group_symop_operation_xyz
x,y,z
3/4-y,1/4+x,1/4+z
-x,1/2-y,z
1/4+y,1/4-x,1/4+z
-x,-y,-z
1/4+y,3/4-x,3/4-z
x,1/2+y,-z
3/4-y,3/4+x,3/4-z
1/2+x,1/2+y,1/2+z
1/4-y,3/4+x,3/4+z
1/2-x,-y,1/2+z
3/4+y,3/4-x,3/4+z
1/2-x,1/2-y,1/2-z
3/4+y,1/4-x,1/4-z
1/2+x,y,1/2-z
1/4-y,1/4+x,1/4-z
loop_
_atom_site_type_symbol
_atom_site_label
_atom_site_fract_x
_atom_site_fract_y
_atom_site_fract_z
Si Si1 0.830916 0.032560 0.555822
Si Si2 0.581542 0.437705 0.086866
Si Si3 0.902063 0.590497 0.980730
Si Si4 0.500000 0.250000 0.168584
Si Si5 0.000000 0.250000 0.125000
O O1 0.783014 0.109241 0.616105
O O2 0.867081 0.082460 0.484985
O O3 0.722492 0.956649 0.534375
O O4 0.947251 0.969601 0.578278
O O5 0.588801 0.318680 0.125106
O O6 0.946601 0.651318 0.917231
O O7 0.000000 0.500000 0.000000
O O8 0.907714 0.686816 0.036416
#
# Coordination Sequence:
#
# PCOD9546698 Si02
#       5
#    16  16  16   8   4
#     4  11  26  46  72 104 148 194 244 300 365 442
#     4  11  26  45  72 104 146 194 242 304 361 441
#     4  11  24  44  69 102 138 185 238 303 363 432
#     4  11  24  41  70 103 134 185 244 302 368 423
#     4  10  28  40  72 104 136 186 236 310 364 434
#
# _framework density 21.328479999999999
#
# number of rings (size 3 to 8) (size 9 to 14) (size 15 to 20)
#    0.000    1.067    2.667    1.600    7.467    6.933 
#    0.000    0.000    0.000    0.000    0.000    0.000 
#    0.000    0.000    0.000    0.000    0.000    0.000 
#
# Total GULP energy -167445.340909 kJ/mol
# GULP energy per Si atom -5581.511364 kJ/mol
# Density = 2.127994 g / cm^3
# Si number density = 21.328480 Si / 1000 Ang^3
#
#
#
# Elastic Constant Matrix: (Units=GPa)
#
#
# Indices 1 2 3 4 5 6 
#
# 1 75.4775 13.5331 26.8991 0.0000 0.0000 0.4695
# 2 13.5331 75.4775 26.8991 0.0000 0.0000 -0.4695
# 3 26.8991 26.8991 136.2249 0.0000 0.0000 0.0000
# 4 0.0000 0.0000 0.0000 99.8977 0.0000 0.0000
# 5 0.0000 0.0000 0.0000 0.0000 99.8977 0.0000
# 6 0.4695 -0.4695 0.0000 0.0000 0.0000 24.1549
#
#
#
# Elastic Compliance Matrix: (Units=1/GPa)
#
#
# Indices 1 2 3 4 5 6 
#
# 1 0.014453 -0.001696 -0.002519 0.000000 0.000000 -0.000314
# 2 -0.001696 0.014453 -0.002519 0.000000 0.000000 0.000314
# 3 -0.002519 -0.002519 0.008336 0.000000 0.000000 0.000000
# 4 0.000000 0.000000 0.000000 0.010010 0.000000 0.000000
# 5 0.000000 0.000000 0.000000 0.000000 0.010010 0.000000
# 6 -0.000314 0.000314 0.000000 0.000000 0.000000 0.041412
#
#
# Mechanical properties :
#
#
# Convention : Reuss Voigt Hill
#
# Bulk Modulus (GPa) = 42.06321 46.87139 44.46730
# Shear Modulus (GPa) = 41.64409 59.44664 50.54537
#
# Velocity S-wave (km/s) = 4.42352 5.28512 4.87340
# Velocity P-wave (km/s) = 6.77159 7.69850 7.24988
#
# Compressibility (1/GPa) = 0.02377375
#
# Stress axis : x y z
#
# Youngs Moduli (GPa) = 69.19121 69.19121 119.96703
#
# Poissons Ratio (x) = 0.11732 0.30220
# Poissons Ratio (y) = 0.11732 0.30220
# Poissons Ratio (z) = 0.17430 0.17430
#
# Static dielectric constant tensor:
#      x y z
#    x 1.687650 0.000000 0.000000 
#    y 0.000000 1.687650 0.000000 
#    z 0.000000 0.000000 1.798590 
# 
# From -- ./inp_files/4434.got.cif
#   From: 2010.05.17/outbox.cif.g08.bks.cpg/sg88_3_cif.got.tgz:4434.got - 2010.06.03 19:11:41.
