data_PCOD9546114
_publ_section_title
;
Structure prediction by ZEFSAII (Michael W. Deem and Ramdas Pophale) SiO2 
 PCOD9546114
Probable space group: I 4/M
;
_chemical_formula_sum "Si O2"
_cell_formula_units_Z 32
_cell_length_a 10.863351
_cell_length_b 10.863351
_cell_length_c 10.151357
_cell_angle_alpha 90.000000
_cell_angle_beta 90.000000
_cell_angle_gamma 90.000000
_cell_volume 1197.985952
_symmetry_space_group_name_H-M "I 4/M"
_symmetry_group_IT_number 87
_symmetry_cell_setting 'tetragonal'
loop_
_space_group_symop_operation_xyz
x,y,z
-y,x,z
-x,-y,z
y,-x,z
-x,-y,-z
y,-x,-z
x,y,-z
-y,x,-z
1/2+x,1/2+y,1/2+z
1/2-y,1/2+x,1/2+z
1/2-x,1/2-y,1/2+z
1/2+y,1/2-x,1/2+z
1/2-x,1/2-y,1/2-z
1/2+y,1/2-x,1/2-z
1/2+x,1/2+y,1/2-z
1/2-y,1/2+x,1/2-z
loop_
_atom_site_type_symbol
_atom_site_label
_atom_site_fract_x
_atom_site_fract_y
_atom_site_fract_z
Si Si1 0.379579 0.122512 0.500000
Si Si2 0.399451 0.735838 0.500000
Si Si3 0.038850 0.806953 0.298729
O O1 0.312115 0.259474 0.500000
O O2 0.527316 0.133126 0.500000
O O3 0.321101 0.064692 0.368477
O O4 0.450737 0.692250 0.641342
O O5 0.907091 0.859234 0.341064
#
# Coordination Sequence:
#
# PCOD9546114 Si02
#       3
#     8   8  16
#     4  12  26  44  72 106 142 180 234 288 348 410
#     4  12  24  43  73 104 138 184 231 289 344 414
#     4  11  23  46  76 102 135 186 240 285 335 414
#
# _framework density 26.711499
#
# number of rings (size 3 to 8) (size 9 to 14) (size 15 to 20)
#    0.000    0.500    5.000    3.000    0.000    4.500 
#    0.000    5.000    0.000    0.000    0.000    0.000 
#    0.000    0.000    0.000    0.000    0.000    0.000 
#
# Total GULP energy -89400.360955 kJ/mol
# GULP energy per Si atom -5587.522560 kJ/mol
# Density = 2.665070 g / cm^3
# Si number density = 26.711499 Si / 1000 Ang^3
#
#
#
# Elastic Constant Matrix: (Units=GPa)
#
#
# Indices 1 2 3 4 5 6 
#
# 1 45.0074 67.8392 32.8214 0.0000 0.0000 30.1467
# 2 67.8392 45.0074 32.8214 0.0000 0.0000 -30.1467
# 3 32.8214 32.8214 172.9524 0.0000 0.0000 0.0000
# 4 0.0000 0.0000 0.0000 -7.3542 0.0000 0.0000
# 5 0.0000 0.0000 0.0000 0.0000 -7.3542 0.0000
# 6 30.1467 -30.1467 0.0000 0.0000 0.0000 47.8857
#
#
#
# Elastic Compliance Matrix: (Units=1/GPa)
#
#
# Indices 1 2 3 4 5 6 
#
# 1 -0.003244 0.013206 -0.001890 0.000000 0.000000 0.010356
# 2 0.013206 -0.003244 -0.001890 0.000000 0.000000 -0.010356
# 3 -0.001890 -0.001890 0.006499 0.000000 0.000000 0.000000
# 4 0.000000 0.000000 0.000000 -0.135976 0.000000 0.000000
# 5 0.000000 0.000000 0.000000 0.000000 -0.135976 0.000000
# 6 0.010356 -0.010356 0.000000 0.000000 0.000000 0.007843
#
#
# Mechanical properties :
#
#
# Convention : Reuss Voigt Hill
#
# Bulk Modulus (GPa) = 53.02107 58.88120 55.95114
# Shear Modulus (GPa) = -18.07264 15.26779 -1.40243
#
# Velocity S-wave (km/s) = -2.60395 2.39337 -0.72537
# Velocity P-wave (km/s) = 3.29422 5.45242 4.50448
#
# Compressibility (1/GPa) = 0.01886043
#
# Stress axis : x y z
#
# Youngs Moduli (GPa) = -308.21766 -308.21766 153.86022
#
# Poissons Ratio (x) = 4.07022 0.29085
# Poissons Ratio (y) = 4.07022 0.29085
# Poissons Ratio (z) = -0.58264 -0.58264
#
# Static dielectric constant tensor:
#      x y z
#    x 2.139470 0.000000 0.000000 
#    y 0.000000 2.139470 0.000000 
#    z 0.000000 0.000000 1.996750 
# 
# From -- ./inp_files/1846.got.cif
#   From: 2010.05.17/outbox.cif.g08.bks.cpg/sg87_1_cif.got.tgz:1846.got - 2010.06.03 19:07:00.
