data_PCOD9546105
_publ_section_title
;
Structure prediction by ZEFSAII (Michael W. Deem and Ramdas Pophale) SiO2 
 PCOD9546105
Probable space group: I 4/M
;
_chemical_formula_sum "Si O2"
_cell_formula_units_Z 40
_cell_length_a 9.999100
_cell_length_b 9.999100
_cell_length_c 18.268939
_cell_angle_alpha 90.000000
_cell_angle_beta 90.000000
_cell_angle_gamma 90.000000
_cell_volume 1826.565074
_symmetry_space_group_name_H-M "I 4/M"
_symmetry_group_IT_number 87
_symmetry_cell_setting 'tetragonal'
loop_
_space_group_symop_operation_xyz
x,y,z
-y,x,z
-x,-y,z
y,-x,z
-x,-y,-z
y,-x,-z
x,y,-z
-y,x,-z
1/2+x,1/2+y,1/2+z
1/2-y,1/2+x,1/2+z
1/2-x,1/2-y,1/2+z
1/2+y,1/2-x,1/2+z
1/2-x,1/2-y,1/2-z
1/2+y,1/2-x,1/2-z
1/2+x,1/2+y,1/2-z
1/2-y,1/2+x,1/2-z
loop_
_atom_site_type_symbol
_atom_site_label
_atom_site_fract_x
_atom_site_fract_y
_atom_site_fract_z
Si Si1 0.776482 0.972043 0.000000
Si Si2 0.202687 0.087720 0.701839
Si Si3 0.484847 0.156743 0.654901
O O1 0.691806 0.968211 0.926022
O O2 0.857292 0.111859 0.000000
O O3 0.324267 0.163868 0.663288
O O4 0.067109 0.167780 0.684200
O O5 0.252048 0.062481 0.785989
O O6 0.500000 0.000000 0.670827
#
# Coordination Sequence:
#
# PCOD9546105 Si02
#       3
#     8  16  16
#     4  11  27  46  68  95 130 178 222 269 329 391
#     4  11  23  40  67  99 133 173 217 271 328 387
#     4  12  23  42  67  98 132 171 220 272 329 386
#
# _framework density 21.899028000000001
#
# number of rings (size 3 to 8) (size 9 to 14) (size 15 to 20)
#    0.000    0.600    4.000    4.200    5.600    3.200 
#    0.000    0.000    0.000    2.400    0.000    0.000 
#    0.000    0.000    0.000    0.000    0.000    0.000 
#
# Total GULP energy -111699.460506 kJ/mol
# GULP energy per Si atom -5584.973025 kJ/mol
# Density = 2.184918 g / cm^3
# Si number density = 21.899028 Si / 1000 Ang^3
#
#
#
# Elastic Constant Matrix: (Units=GPa)
#
#
# Indices 1 2 3 4 5 6 
#
# 1 41.7739 22.1079 -25.2511 0.0000 0.0000 -27.7250
# 2 22.1079 41.7739 -25.2511 0.0000 0.0000 27.7250
# 3 -25.2511 -25.2511 74.3573 0.0000 0.0000 0.0000
# 4 0.0000 0.0000 0.0000 18.4740 0.0000 0.0000
# 5 0.0000 0.0000 0.0000 0.0000 18.4740 0.0000
# 6 -27.7250 27.7250 0.0000 0.0000 0.0000 12.3879
#
#
#
# Elastic Compliance Matrix: (Units=1/GPa)
#
#
# Indices 1 2 3 4 5 6 
#
# 1 0.005912 0.015487 0.007267 0.000000 0.000000 -0.021430
# 2 0.015487 0.005912 0.007267 0.000000 0.000000 0.021430
# 3 0.007267 0.007267 0.018384 0.000000 0.000000 0.000000
# 4 0.000000 0.000000 0.000000 0.054130 0.000000 0.000000
# 5 0.000000 0.000000 0.000000 0.000000 0.054130 0.000000
# 6 -0.021430 0.021430 0.000000 0.000000 0.000000 -0.015201
#
#
# Mechanical properties :
#
#
# Convention : Reuss Voigt Hill
#
# Bulk Modulus (GPa) = 11.08044 11.23514 11.15779
# Shear Modulus (GPa) = 53.58581 22.28715 37.93648
#
# Velocity S-wave (km/s) = 4.95203 3.19364 4.16665
# Velocity P-wave (km/s) = 6.14553 4.32905 5.31546
#
# Compressibility (1/GPa) = 0.09024913
#
# Stress axis : x y z
#
# Youngs Moduli (GPa) = 169.15432 169.15434 54.39478
#
# Poissons Ratio (x) = -2.61970 -0.39528
# Poissons Ratio (y) = -2.61970 -0.39528
# Poissons Ratio (z) = -1.22922 -1.22922
#
# Static dielectric constant tensor:
#      x y z
#    x 1.896910 0.000000 0.000000 
#    y 0.000000 1.896910 0.000000 
#    z 0.000000 0.000000 1.783960 
# 
# From -- ./inp_files/3147.got.cif
#   From: 2010.05.17/outbox.cif.g08.bks.cpg/sg87_2_cif.got.tgz:3147.got - 2010.06.03 19:07:00.
