data_PCOD9546059
_publ_section_title
;
Structure prediction by ZEFSAII (Michael W. Deem and Ramdas Pophale) SiO2 
 PCOD9546059
Probable space group: I 4/M
;
_chemical_formula_sum "Si O2"
_cell_formula_units_Z 96
_cell_length_a 17.394875
_cell_length_b 17.394875
_cell_length_c 17.177573
_cell_angle_alpha 90.000000
_cell_angle_beta 90.000000
_cell_angle_gamma 90.000000
_cell_volume 5197.618833
_symmetry_space_group_name_H-M "I 4/M"
_symmetry_group_IT_number 87
_symmetry_cell_setting 'tetragonal'
loop_
_space_group_symop_operation_xyz
x,y,z
-y,x,z
-x,-y,z
y,-x,z
-x,-y,-z
y,-x,-z
x,y,-z
-y,x,-z
1/2+x,1/2+y,1/2+z
1/2-y,1/2+x,1/2+z
1/2-x,1/2-y,1/2+z
1/2+y,1/2-x,1/2+z
1/2-x,1/2-y,1/2-z
1/2+y,1/2-x,1/2-z
1/2+x,1/2+y,1/2-z
1/2-y,1/2+x,1/2-z
loop_
_atom_site_type_symbol
_atom_site_label
_atom_site_fract_x
_atom_site_fract_y
_atom_site_fract_z
Si Si1 0.505704 0.375622 0.405172
Si Si2 0.713670 0.587657 0.907380
Si Si3 0.505030 0.799532 0.589703
Si Si4 0.085693 0.622144 0.669247
Si Si5 0.616266 0.090963 0.348234
Si Si6 0.912148 0.785910 0.592718
O O1 0.578193 0.428567 0.381380
O O2 0.507194 0.374907 0.500000
O O3 0.507032 0.287143 0.379229
O O4 0.791288 0.599097 0.859155
O O5 0.648798 0.648944 0.886882
O O6 0.687586 0.499824 0.894652
O O7 0.730867 0.595437 0.000000
O O8 0.528970 0.793000 0.500000
O O9 0.568458 0.848198 0.635063
O O10 0.428719 0.851201 0.595941
O O11 0.089063 0.613431 0.761890
O O12 0.999871 0.599149 0.640464
O O13 0.707158 0.099913 0.360711
O O14 0.904654 0.769036 0.500000
#
# Coordination Sequence:
#
# PCOD9546059 Si02
#       6
#    16  16  16  16  16  16
#     4   8  16  34  58  84 115 145 178 230 287 333
#     4   9  19  36  58  84 113 146 188 237 284 334
#     4  11  22  34  58  89 111 147 195 235 280 339
#     4  11  22  37  56  79 114 154 189 234 288 342
#     4  11  22  37  56  79 114 154 189 234 288 342
#     4   9  19  36  58  84 113 146 188 237 284 334
#
# _framework density 18.469995999999998
#
# number of rings (size 3 to 8) (size 9 to 14) (size 15 to 20)
#    0.000    2.167    1.667    2.000    0.000    5.000 
#    0.000    5.000    0.000    0.000    0.000    0.000 
#    0.000    0.000    0.000    0.000    0.000    0.000 
#
# Total GULP energy -267786.653419 kJ/mol
# GULP energy per Si atom -5578.888613 kJ/mol
# Density = 1.842796 g / cm^3
# Si number density = 18.469996 Si / 1000 Ang^3
#
#
#
# Elastic Constant Matrix: (Units=GPa)
#
#
# Indices 1 2 3 4 5 6 
#
# 1 129.7448 76.2271 15.6102 0.0000 0.0000 7.2529
# 2 76.2271 129.7448 15.6102 0.0000 0.0000 -7.2529
# 3 15.6102 15.6102 17.3411 0.0000 0.0000 0.0000
# 4 0.0000 0.0000 0.0000 -1.3835 0.0000 0.0000
# 5 0.0000 0.0000 0.0000 0.0000 -1.3835 0.0000
# 6 7.2529 -7.2529 0.0000 0.0000 0.0000 83.2282
#
#
#
# Elastic Compliance Matrix: (Units=1/GPa)
#
#
# Indices 1 2 3 4 5 6 
#
# 1 0.012380 -0.006758 -0.005061 0.000000 0.000000 -0.001668
# 2 -0.006758 0.012380 -0.005061 0.000000 0.000000 0.001668
# 3 -0.005061 -0.005061 0.066778 0.000000 0.000000 0.000000
# 4 0.000000 0.000000 0.000000 -0.722825 0.000000 0.000000
# 5 0.000000 0.000000 0.000000 0.000000 -0.722825 0.000000
# 6 -0.001668 0.001668 0.000000 0.000000 0.000000 0.012306
#
#
# Mechanical properties :
#
#
# Convention : Reuss Voigt Hill
#
# Bulk Modulus (GPa) = 17.30744 54.63618 35.97181
# Shear Modulus (GPa) = -3.87961 27.38447 11.75243
#
# Velocity S-wave (km/s) = -1.45088 3.85469 2.52523
# Velocity P-wave (km/s) = 2.56596 7.03255 5.29344
#
# Compressibility (1/GPa) = 0.05777861
#
# Stress axis : x y z
#
# Youngs Moduli (GPa) = 80.77682 80.77682 14.97494
#
# Poissons Ratio (x) = 0.54586 0.07579
# Poissons Ratio (y) = 0.54586 0.07579
# Poissons Ratio (z) = 0.40881 0.40881
#
# Static dielectric constant tensor:
#      x y z
#    x 1.624350 0.000000 0.000000 
#    y 0.000000 1.624350 0.000000 
#    z 0.000000 0.000000 1.632770 
# 
# From -- ./inp_files/4410.got.cif
#   From: 2010.05.17/outbox.cif.g08.bks.cpg/sg87_3_cif.got.tgz:4410.got - 2010.06.03 19:07:00.
