data_PCOD9546603
_publ_section_title
;
Structure prediction by ZEFSAII (Michael W. Deem and Ramdas Pophale) SiO2 
 PCOD9546603
Probable space group: I 41/A
;
_chemical_formula_sum "Si O2"
_cell_formula_units_Z 108
_cell_length_a 13.666926
_cell_length_b 13.666926
_cell_length_c 24.159629
_cell_angle_alpha 90.000000
_cell_angle_beta 90.000000
_cell_angle_gamma 90.000000
_cell_volume 4512.653072
_symmetry_space_group_name_H-M "I 41/A"
_symmetry_group_IT_number 88
_space_group.IT_coordinate_system_code '2'
_symmetry_cell_setting 'tetragonal'
loop_
_space_group_symop_operation_xyz
x,y,z
3/4-y,1/4+x,1/4+z
-x,1/2-y,z
1/4+y,1/4-x,1/4+z
-x,-y,-z
1/4+y,3/4-x,3/4-z
x,1/2+y,-z
3/4-y,3/4+x,3/4-z
1/2+x,1/2+y,1/2+z
1/4-y,3/4+x,3/4+z
1/2-x,-y,1/2+z
3/4+y,3/4-x,3/4+z
1/2-x,1/2-y,1/2-z
3/4+y,1/4-x,1/4-z
1/2+x,y,1/2-z
1/4-y,1/4+x,1/4-z
loop_
_atom_site_type_symbol
_atom_site_label
_atom_site_fract_x
_atom_site_fract_y
_atom_site_fract_z
Si Si1 0.500000 0.250000 0.375000
Si Si2 0.350705 0.389984 0.312825
Si Si3 0.836222 0.884530 0.505124
Si Si4 0.500000 0.750000 0.245308
Si Si5 0.037566 0.853126 0.042358
Si Si6 0.845210 0.112715 0.376224
Si Si7 0.334507 0.617379 0.004159
Si Si8 0.510264 0.516708 0.826280
O O1 0.430985 0.327538 0.344123
O O2 0.393292 0.490440 0.289370
O O3 0.327820 0.325364 0.257467
O O4 0.259526 0.418944 0.351499
O O5 0.929941 0.826288 0.526532
O O6 0.814826 0.839345 0.443291
O O7 0.841667 0.001129 0.508870
O O8 0.423141 0.824175 0.216682
O O9 0.135666 0.824139 0.074860
O O10 0.000000 0.750000 0.016867
O O11 0.954984 0.882464 0.086106
O O12 0.835029 0.140810 0.439632
O O13 0.934363 0.032996 0.376384
O O14 0.241745 0.672816 0.030075
#
# Coordination Sequence:
#
# PCOD9546603 Si02
#       8
#     4  16  16   8  16  16  16  16
#     4  12  28  40  66 116 148 188 242 272 340 448
#     4  11  23  42  65  97 152 189 224 282 345 423
#     4  10  22  47  68  95 134 190 222 295 363 403
#     4  10  24  42  75  95 136 174 235 297 352 414
#     4   9  19  38  59  87 135 184 216 271 337 389
#     4  11  23  39  68  98 134 184 239 276 342 420
#     4  11  23  43  70 103 133 179 238 295 348 426
#     4   9  21  42  63  92 143 177 222 283 347 408
#
# _framework density 23.932708000000002
#
# number of rings (size 3 to 8) (size 9 to 14) (size 15 to 20)
#    0.000    1.778    2.222    0.889    9.333    0.000 
#    8.000    0.000    0.000    0.889    0.000    0.000 
#    0.000    0.000    0.000    0.000    0.000    0.000 
#
# Total GULP energy -300692.783275 kJ/mol
# GULP energy per Si atom -5568.384875 kJ/mol
# Density = 2.387824 g / cm^3
# Si number density = 23.932708 Si / 1000 Ang^3
#
#
#
# Elastic Constant Matrix: (Units=GPa)
#
#
# Indices 1 2 3 4 5 6 
#
# 1 128.3642 32.1722 5.8504 0.0000 0.0000 -8.7941
# 2 32.1722 128.3642 5.8504 0.0000 0.0000 8.7941
# 3 5.8504 5.8504 30.8270 0.0000 0.0000 0.0000
# 4 0.0000 0.0000 0.0000 8.3407 0.0000 0.0000
# 5 0.0000 0.0000 0.0000 0.0000 8.3407 0.0000
# 6 -8.7941 8.7941 0.0000 0.0000 0.0000 48.2807
#
#
#
# Elastic Compliance Matrix: (Units=1/GPa)
#
#
# Indices 1 2 3 4 5 6 
#
# 1 0.008535 -0.002219 -0.001199 0.000000 0.000000 0.001959
# 2 -0.002219 0.008535 -0.001199 0.000000 0.000000 -0.001959
# 3 -0.001199 -0.001199 0.032894 0.000000 0.000000 0.000000
# 4 0.000000 0.000000 0.000000 0.119894 0.000000 0.000000
# 5 0.000000 0.000000 0.000000 0.000000 0.119894 0.000000
# 6 0.001959 -0.001959 0.000000 0.000000 0.000000 0.021426
#
#
# Mechanical properties :
#
#
# Convention : Reuss Voigt Hill
#
# Bulk Modulus (GPa) = 24.55066 41.70013 33.12539
# Shear Modulus (GPa) = 14.97054 29.23790 22.10422
#
# Velocity S-wave (km/s) = 2.50377 3.49903 3.04237
# Velocity P-wave (km/s) = 4.31728 5.81258 5.11981
#
# Compressibility (1/GPa) = 0.04073211
#
# Stress axis : x y z
#
# Youngs Moduli (GPa) = 117.16111 117.16111 30.40057
#
# Poissons Ratio (x) = 0.25995 0.03644
# Poissons Ratio (y) = 0.25995 0.03644
# Poissons Ratio (z) = 0.14045 0.14045
#
# Static dielectric constant tensor:
#      x y z
#    x 1.969930 0.000000 0.000000 
#    y 0.000000 1.969930 0.000000 
#    z 0.000000 0.000000 1.931710 
# 
# From -- ./inp_files/5380.got.cif
#   From: 2010.05.17/outbox.cif.g08.bks.cpg/sg88_3_cif.got.tgz:5380.got - 2010.06.03 19:11:41.
