data_PCOD9546276
_publ_section_title
;
Structure prediction by ZEFSAII (Michael W. Deem and Ramdas Pophale) SiO2 
 PCOD9546276
Probable space group: I 41/A
;
_chemical_formula_sum "Si O2"
_cell_formula_units_Z 104
_cell_length_a 17.073211
_cell_length_b 17.073211
_cell_length_c 19.389378
_cell_angle_alpha 90.000000
_cell_angle_beta 90.000000
_cell_angle_gamma 90.000000
_cell_volume 5651.897702
_symmetry_space_group_name_H-M "I 41/A"
_symmetry_group_IT_number 88
_space_group.IT_coordinate_system_code '2'
_symmetry_cell_setting 'tetragonal'
loop_
_space_group_symop_operation_xyz
x,y,z
3/4-y,1/4+x,1/4+z
-x,1/2-y,z
1/4+y,1/4-x,1/4+z
-x,-y,-z
1/4+y,3/4-x,3/4-z
x,1/2+y,-z
3/4-y,3/4+x,3/4-z
1/2+x,1/2+y,1/2+z
1/4-y,3/4+x,3/4+z
1/2-x,-y,1/2+z
3/4+y,3/4-x,3/4+z
1/2-x,1/2-y,1/2-z
3/4+y,1/4-x,1/4-z
1/2+x,y,1/2-z
1/4-y,1/4+x,1/4-z
loop_
_atom_site_type_symbol
_atom_site_label
_atom_site_fract_x
_atom_site_fract_y
_atom_site_fract_z
Si Si1 0.149679 0.822096 0.523986
Si Si2 0.772468 0.070047 0.799233
Si Si3 0.347993 0.031112 0.106975
Si Si4 0.027478 0.075544 0.371482
Si Si5 0.500000 0.750000 0.330450
Si Si6 0.768312 0.325207 0.509173
Si Si7 0.574494 0.853690 0.118713
O O1 0.164031 0.877196 0.589303
O O2 0.076444 0.764859 0.535649
O O3 0.220290 0.763122 0.515931
O O4 0.121714 0.865207 0.453087
O O5 0.752117 0.078447 0.718696
O O6 0.788615 0.159113 0.825596
O O7 0.858433 0.029670 0.797067
O O8 0.711539 0.012993 0.840742
O O9 0.442366 0.031067 0.123388
O O10 0.012684 0.167183 0.382423
O O11 0.072238 0.062647 0.299637
O O12 0.833124 0.336030 0.571071
O O13 0.599508 0.768100 0.145870
#
# Coordination Sequence:
#
# PCOD9546276 Si02
#       7
#    16  16  16  16   8  16  16
#     4  10  19  35  57  85 123 160 205 241 296 355
#     4  12  23  40  57  91 128 166 203 249 302 368
#     4  11  25  38  61  87 128 166 206 245 308 366
#     4  11  23  39  61  86 121 164 205 248 299 366
#     4  10  20  36  57  86 114 163 200 254 284 360
#     4  11  21  34  60  85 125 162 198 249 301 361
#     4   9  18  28  51  88 124 159 194 230 283 357
#
# _framework density 18.4009
#
# number of rings (size 3 to 8) (size 9 to 14) (size 15 to 20)
#    0.000    1.385    3.077    4.154    6.462    0.000 
#    0.000    0.000    0.000   10.615    0.000    0.000 
#    0.000    0.000    0.000    0.000    0.000    0.000 
#
# Total GULP energy -289507.404355 kJ/mol
# GULP energy per Si atom -5567.450084 kJ/mol
# Density = 1.835902 g / cm^3
# Si number density = 18.400900 Si / 1000 Ang^3
#
#
#
# Elastic Constant Matrix: (Units=GPa)
#
#
# Indices 1 2 3 4 5 6 
#
# 1 86.8327 48.3798 42.5305 0.0000 0.0000 5.8435
# 2 48.3798 86.8327 42.5305 0.0000 0.0000 -5.8435
# 3 42.5305 42.5305 59.3999 0.0000 0.0000 0.0000
# 4 0.0000 0.0000 0.0000 18.8855 0.0000 0.0000
# 5 0.0000 0.0000 0.0000 0.0000 18.8854 0.0000
# 6 5.8435 -5.8435 0.0000 0.0000 0.0000 28.3411
#
#
#
# Elastic Compliance Matrix: (Units=1/GPa)
#
#
# Indices 1 2 3 4 5 6 
#
# 1 0.020601 -0.007144 -0.009636 0.000000 0.000000 -0.005720
# 2 -0.007144 0.020601 -0.009636 0.000000 0.000000 0.005720
# 3 -0.009636 -0.009636 0.030633 0.000000 0.000000 0.000000
# 4 0.000000 0.000000 0.000000 0.052951 0.000000 0.000000
# 5 0.000000 0.000000 0.000000 0.000000 0.052951 0.000000
# 6 -0.005720 0.005720 0.000000 0.000000 0.000000 0.037643
#
#
# Mechanical properties :
#
#
# Convention : Reuss Voigt Hill
#
# Bulk Modulus (GPa) = 52.61542 55.54968 54.08255
# Shear Modulus (GPa) = 18.21198 19.86403 19.03800
#
# Velocity S-wave (km/s) = 3.14942 3.28916 3.22005
# Velocity P-wave (km/s) = 6.47156 6.68423 6.57875
#
# Compressibility (1/GPa) = 0.01900583
#
# Stress axis : x y z
#
# Youngs Moduli (GPa) = 48.54153 48.54153 32.64435
#
# Poissons Ratio (x) = 0.34676 0.31455
# Poissons Ratio (y) = 0.34676 0.31455
# Poissons Ratio (z) = 0.46772 0.46772
#
# Static dielectric constant tensor:
#      x y z
#    x 1.733200 0.000000 0.000000 
#    y 0.000000 1.733200 0.000000 
#    z 0.000000 0.000000 1.653780 
# 
# From -- ./inp_files/3973.got.cif
#   From: 2010.05.17/outbox.cif.g08.bks.cpg/sg88_2_cif.got.tgz:3973.got - 2010.06.03 19:11:41.
