data_PCOD9546457
_publ_section_title
;
Structure prediction by ZEFSAII (Michael W. Deem and Ramdas Pophale) SiO2 
 PCOD9546457
Probable space group: I 41/A
;
_chemical_formula_sum "Si O2"
_cell_formula_units_Z 56
_cell_length_a 12.697357
_cell_length_b 12.697357
_cell_length_c 14.819854
_cell_angle_alpha 90.000000
_cell_angle_beta 90.000000
_cell_angle_gamma 90.000000
_cell_volume 2389.299466
_symmetry_space_group_name_H-M "I 41/A"
_symmetry_group_IT_number 88
_space_group.IT_coordinate_system_code '2'
_symmetry_cell_setting 'tetragonal'
loop_
_space_group_symop_operation_xyz
x,y,z
3/4-y,1/4+x,1/4+z
-x,1/2-y,z
1/4+y,1/4-x,1/4+z
-x,-y,-z
1/4+y,3/4-x,3/4-z
x,1/2+y,-z
3/4-y,3/4+x,3/4-z
1/2+x,1/2+y,1/2+z
1/4-y,3/4+x,3/4+z
1/2-x,-y,1/2+z
3/4+y,3/4-x,3/4+z
1/2-x,1/2-y,1/2-z
3/4+y,1/4-x,1/4-z
1/2+x,y,1/2-z
1/4-y,1/4+x,1/4-z
loop_
_atom_site_type_symbol
_atom_site_label
_atom_site_fract_x
_atom_site_fract_y
_atom_site_fract_z
Si Si1 0.000000 0.250000 0.337150
Si Si2 0.829606 0.104385 0.423489
Si Si3 0.921685 0.619082 0.924198
Si Si4 0.845345 0.668319 0.383888
O O1 0.933176 0.169195 0.395706
O O2 0.916952 0.312292 0.273306
O O3 0.741245 0.118496 0.346724
O O4 0.792791 0.153200 0.517903
O O5 0.861848 0.983290 0.434475
O O6 0.864172 0.709985 0.866553
O O7 0.864141 0.790628 0.364701
#
# Coordination Sequence:
#
# PCOD9546457 Si02
#       4
#     8  16  16  16
#     4  10  21  38  63 100 136 166 214 272 319 380
#     4  12  24  42  70  95 127 177 216 267 326 383
#     4   9  20  39  61  96 134 167 214 269 323 384
#     4  11  26  46  64  94 131 168 217 269 325 390
#
# _framework density 23.437832
#
# number of rings (size 3 to 8) (size 9 to 14) (size 15 to 20)
#    0.000    1.714    0.000    6.857    0.000    6.857 
#    0.000    0.000    0.000    0.000    0.000    0.000 
#    0.000    0.000    0.000    0.000    0.000    0.000 
#
# Total GULP energy -156735.959472 kJ/mol
# GULP energy per Si atom -5597.712838 kJ/mol
# Density = 2.338449 g / cm^3
# Si number density = 23.437832 Si / 1000 Ang^3
#
#
#
# Elastic Constant Matrix: (Units=GPa)
#
#
# Indices 1 2 3 4 5 6 
#
# 1 84.9830 62.0186 -6.5867 0.0000 0.0000 -2.3923
# 2 62.0186 84.9830 -6.5867 0.0000 0.0000 2.3923
# 3 -6.5867 -6.5867 56.8429 0.0000 0.0000 0.0000
# 4 0.0000 0.0000 0.0000 12.3335 0.0000 0.0000
# 5 0.0000 0.0000 0.0000 0.0000 12.3335 0.0000
# 6 -2.3923 2.3923 0.0000 0.0000 0.0000 25.5368
#
#
#
# Elastic Compliance Matrix: (Units=1/GPa)
#
#
# Indices 1 2 3 4 5 6 
#
# 1 0.025643 -0.018769 0.000797 0.000000 0.000000 0.004161
# 2 -0.018769 0.025643 0.000797 0.000000 0.000000 -0.004161
# 3 0.000797 0.000797 0.017777 0.000000 0.000000 0.000000
# 4 0.000000 0.000000 0.000000 0.081080 0.000000 0.000000
# 5 0.000000 0.000000 0.000000 0.000000 0.081080 0.000000
# 6 0.004161 -0.004161 0.000000 0.000000 0.000000 0.039939
#
#
# Mechanical properties :
#
#
# Convention : Reuss Voigt Hill
#
# Bulk Modulus (GPa) = 28.80920 36.05546 32.43233
# Shear Modulus (GPa) = 15.76868 21.90503 18.83685
#
# Velocity S-wave (km/s) = 2.59663 3.06044 2.83803
# Velocity P-wave (km/s) = 4.61610 5.28254 4.96053
#
# Compressibility (1/GPa) = 0.03471113
#
# Stress axis : x y z
#
# Youngs Moduli (GPa) = 38.99661 38.99662 56.25265
#
# Poissons Ratio (x) = 0.73194 -0.04481
# Poissons Ratio (y) = 0.73194 -0.04481
# Poissons Ratio (z) = -0.03106 -0.03106
#
# Static dielectric constant tensor:
#      x y z
#    x 1.859650 0.000000 0.000000 
#    y 0.000000 1.859650 0.000000 
#    z 0.000000 0.000000 1.870320 
# 
# From -- ./inp_files/3008.got.cif
#   From: 2010.05.17/outbox.cif.g08.bks.cpg/sg88_2_cif.got.tgz:3008.got - 2010.06.03 19:11:41.
