data_PCOD9546134
_publ_section_title
;
Structure prediction by ZEFSAII (Michael W. Deem and Ramdas Pophale) SiO2 
 PCOD9546134
Probable space group: I 4/M
;
_chemical_formula_sum "Si O2"
_cell_formula_units_Z 64
_cell_length_a 11.182973
_cell_length_b 11.182973
_cell_length_c 22.971305
_cell_angle_alpha 90.000000
_cell_angle_beta 90.000000
_cell_angle_gamma 90.000000
_cell_volume 2872.765793
_symmetry_space_group_name_H-M "I 4/M"
_symmetry_group_IT_number 87
_symmetry_cell_setting 'tetragonal'
loop_
_space_group_symop_operation_xyz
x,y,z
-y,x,z
-x,-y,z
y,-x,z
-x,-y,-z
y,-x,-z
x,y,-z
-y,x,-z
1/2+x,1/2+y,1/2+z
1/2-y,1/2+x,1/2+z
1/2-x,1/2-y,1/2+z
1/2+y,1/2-x,1/2+z
1/2-x,1/2-y,1/2-z
1/2+y,1/2-x,1/2-z
1/2+x,1/2+y,1/2-z
1/2-y,1/2+x,1/2-z
loop_
_atom_site_type_symbol
_atom_site_label
_atom_site_fract_x
_atom_site_fract_y
_atom_site_fract_z
Si Si1 0.312445 0.208155 0.500000
Si Si2 0.238685 0.725751 0.318079
Si Si3 0.637061 0.976909 0.864793
Si Si4 0.678885 0.577841 0.905281
Si Si5 0.444677 0.826018 0.500000
O O1 0.283768 0.125333 0.445441
O O2 0.221783 0.313946 0.500000
O O3 0.442862 0.263836 0.500000
O O4 0.250000 0.750000 0.250000
O O5 0.218704 0.588234 0.340411
O O6 0.353668 0.794689 0.346064
O O7 0.115591 0.787373 0.340526
O O8 0.500000 0.000000 0.842468
O O9 0.622014 0.962606 0.935047
O O10 0.557811 0.649811 0.917995
#
# Coordination Sequence:
#
# PCOD9546134 Si02
#       5
#     8  16  16  16   8
#     4  12  24  42  68 108 144 184 238 300 370 458
#     4  12  29  46  72 108 145 200 255 300 376 445
#     4  12  27  49  79 110 153 199 245 319 373 451
#     4  11  24  44  69  99 137 185 240 311 363 428
#     4  12  23  45  74 108 148 187 247 298 378 460
#
# _framework density 22.278182999999999
#
# number of rings (size 3 to 8) (size 9 to 14) (size 15 to 20)
#    0.000    0.250    5.000    2.625    7.000    3.750 
#    0.000    2.500    0.000    0.000    0.000    0.000 
#    0.000    0.000    0.000    0.000    0.000    0.000 
#
# Total GULP energy -178298.738528 kJ/mol
# GULP energy per Si atom -5571.835579 kJ/mol
# Density = 2.222748 g / cm^3
# Si number density = 22.278183 Si / 1000 Ang^3
#
#
#
# Elastic Constant Matrix: (Units=GPa)
#
#
# Indices 1 2 3 4 5 6 
#
# 1 110.1753 41.2315 26.0095 0.0000 0.0000 -1.1014
# 2 41.2315 110.1753 26.0095 0.0000 0.0000 1.1014
# 3 26.0095 26.0095 157.5023 0.0000 0.0000 0.0000
# 4 0.0000 0.0000 0.0000 14.8715 0.0000 0.0000
# 5 0.0000 0.0000 0.0000 0.0000 14.8715 0.0000
# 6 -1.1014 1.1014 0.0000 0.0000 0.0000 28.4735
#
#
#
# Elastic Compliance Matrix: (Units=1/GPa)
#
#
# Indices 1 2 3 4 5 6 
#
# 1 0.010762 -0.003760 -0.001156 0.000000 0.000000 0.000562
# 2 -0.003760 0.010762 -0.001156 0.000000 0.000000 -0.000562
# 3 -0.001156 -0.001156 0.006731 0.000000 0.000000 0.000000
# 4 0.000000 0.000000 0.000000 0.067243 0.000000 0.000000
# 5 0.000000 0.000000 0.000000 0.000000 0.067243 0.000000
# 6 0.000562 -0.000562 0.000000 0.000000 0.000000 0.035164
#
#
# Mechanical properties :
#
#
# Convention : Reuss Voigt Hill
#
# Bulk Modulus (GPa) = 62.07391 62.70599 62.38995
# Shear Modulus (GPa) = 23.21039 30.61676 26.91357
#
# Velocity S-wave (km/s) = 3.23126 3.71117 3.47950
# Velocity P-wave (km/s) = 6.46877 6.82434 6.64893
#
# Compressibility (1/GPa) = 0.01610983
#
# Stress axis : x y z
#
# Youngs Moduli (GPa) = 92.91725 92.91725 148.56613
#
# Poissons Ratio (x) = 0.34939 0.17179
# Poissons Ratio (y) = 0.34939 0.17179
# Poissons Ratio (z) = 0.10744 0.10744
#
# Static dielectric constant tensor:
#      x y z
#    x 1.818640 0.000000 0.000000 
#    y 0.000000 1.818640 0.000000 
#    z 0.000000 0.000000 1.962770 
# 
# From -- ./inp_files/5694.got.cif
#   From: 2010.05.17/outbox.cif.g08.bks.cpg/sg87_3_cif.got.tgz:5694.got - 2010.06.03 19:07:00.
