data_PCOD9546902
_publ_section_title
;
Structure prediction by ZEFSAII (Michael W. Deem and Ramdas Pophale) SiO2 
 PCOD9546902
Probable space group: P 4 2 2
;
_chemical_formula_sum "Si O2"
_cell_formula_units_Z 56
_cell_length_a 20.547085
_cell_length_b 20.547085
_cell_length_c 9.619467
_cell_angle_alpha 90.000000
_cell_angle_beta 90.000000
_cell_angle_gamma 90.000000
_cell_volume 4061.172570
_symmetry_space_group_name_H-M "P 4 2 2"
_symmetry_group_IT_number 89
_symmetry_cell_setting 'tetragonal'
loop_
_space_group_symop_operation_xyz
x,y,z
-y,x,z
-x,-y,z
y,-x,z
x,-y,-z
-x,y,-z
y,x,-z
-y,-x,-z
loop_
_atom_site_type_symbol
_atom_site_label
_atom_site_fract_x
_atom_site_fract_y
_atom_site_fract_z
Si Si1 0.372885 0.078979 0.335227
Si Si2 0.864130 0.238386 0.779072
Si Si3 0.821722 0.924526 0.033831
Si Si4 0.139159 0.762461 0.292264
Si Si5 0.501098 0.078661 0.159840
Si Si6 0.923595 0.370058 0.667086
Si Si7 0.169279 0.073318 0.539683
O O1 0.313336 0.123514 0.284171
O O2 0.437683 0.096194 0.249985
O O3 0.381070 0.085882 0.501973
O O4 0.357597 0.001614 0.311927
O O5 0.884449 0.229661 0.938506
O O6 0.792307 0.209490 0.747905
O O7 0.882515 0.308598 0.720782
O O8 0.911074 0.187656 0.696794
O O9 0.890489 0.890489 0.000000
O O10 0.800814 0.910158 0.190762
O O11 0.820321 0.000000 0.000000
O O12 0.119119 0.784033 0.446944
O O13 0.566504 0.095194 0.243982
O O14 0.500000 0.000000 0.153430
O O15 0.500000 0.102482 0.000000
O O16 0.097472 0.097472 0.500000
O O17 0.181670 0.000000 0.500000
#
# Coordination Sequence:
#
# PCOD9546902 Si02
#       7
#     8   8   8   8   8   8   8
#     4  10  18  29  46  63  84 111 137 169 212 256
#     4  10  20  31  44  62  82 106 139 177 214 258
#     4  10  20  31  42  57  77 103 139 181 224 266
#     4  10  20  31  44  62  82 106 139 177 214 258
#     4   9  19  31  43  65  87 105 133 168 207 256
#     4  10  18  29  46  63  84 111 137 169 212 256
#     4  10  18  29  42  57  77 101 135 175 216 258
#
# _framework density 13.789122000000001
#
# number of rings (size 3 to 8) (size 9 to 14) (size 15 to 20)
#    0.000    2.143    1.429    3.000    2.000    2.000 
#    0.000    0.000    0.000    5.143    0.000    0.000 
#    0.000    0.000    0.000    0.000    0.000    0.714 
#
# Total GULP energy -312046.551784 kJ/mol
# GULP energy per Si atom -5572.259853 kJ/mol
# Density = 1.375774 g / cm^3
# Si number density = 13.789122 Si / 1000 Ang^3
#
#
#
# Elastic Constant Matrix: (Units=GPa)
#
#
# Indices 1 2 3 4 5 6 
#
# 1 76.8412 43.9735 28.3508 0.0000 0.0000 0.0000
# 2 43.9735 76.8412 28.3508 0.0000 0.0000 0.0000
# 3 28.3508 28.3508 55.4689 0.0000 0.0000 0.0000
# 4 0.0000 0.0000 0.0000 15.8919 0.0000 0.0000
# 5 0.0000 0.0000 0.0000 0.0000 15.8919 0.0000
# 6 0.0000 0.0000 0.0000 0.0000 0.0000 12.4204
#
#
#
# Elastic Compliance Matrix: (Units=1/GPa)
#
#
# Indices 1 2 3 4 5 6 
#
# 1 0.020657 -0.009768 -0.005566 0.000000 0.000000 0.000000
# 2 -0.009768 0.020657 -0.005566 0.000000 0.000000 0.000000
# 3 -0.005566 -0.005566 0.023717 0.000000 0.000000 0.000000
# 4 0.000000 0.000000 0.000000 0.062925 0.000000 0.000000
# 5 0.000000 0.000000 0.000000 0.000000 0.062925 0.000000
# 6 0.000000 0.000000 0.000000 0.000000 0.000000 0.080513
#
#
# Mechanical properties :
#
#
# Convention : Reuss Voigt Hill
#
# Bulk Modulus (GPa) = 43.04142 45.61128 44.32635
# Shear Modulus (GPa) = 15.57937 16.07260 15.82599
#
# Velocity S-wave (km/s) = 3.36494 3.41779 3.39147
# Velocity P-wave (km/s) = 6.81021 6.98030 6.89578
#
# Compressibility (1/GPa) = 0.02323343
#
# Stress axis : x y z
#
# Youngs Moduli (GPa) = 48.40951 48.40951 42.16311
#
# Poissons Ratio (x) = 0.47286 0.23466
# Poissons Ratio (y) = 0.47286 0.23466
# Poissons Ratio (z) = 0.26943 0.26943
#
# Static dielectric constant tensor:
#      x y z
#    x 1.449470 0.000000 0.000000 
#    y 0.000000 1.449470 0.000000 
#    z 0.000000 0.000000 1.470710 
# 
# From -- ./inp_files/1324.got.cif
#   From: 2010.05.17/outbox.cif.g08.bks.cpg/sg89_1_cif.got.tgz:1324.got - 2010.06.03 19:15:31.
