data_PCOD9546066
_publ_section_title
;
Structure prediction by ZEFSAII (Michael W. Deem and Ramdas Pophale) SiO2 
 PCOD9546066
Probable space group: I 4/M
;
_chemical_formula_sum "Si O2"
_cell_formula_units_Z 80
_cell_length_a 11.709985
_cell_length_b 11.709985
_cell_length_c 28.910095
_cell_angle_alpha 90.000000
_cell_angle_beta 90.000000
_cell_angle_gamma 90.000000
_cell_volume 3964.260602
_symmetry_space_group_name_H-M "I 4/M"
_symmetry_group_IT_number 87
_symmetry_cell_setting 'tetragonal'
loop_
_space_group_symop_operation_xyz
x,y,z
-y,x,z
-x,-y,z
y,-x,z
-x,-y,-z
y,-x,-z
x,y,-z
-y,x,-z
1/2+x,1/2+y,1/2+z
1/2-y,1/2+x,1/2+z
1/2-x,1/2-y,1/2+z
1/2+y,1/2-x,1/2+z
1/2-x,1/2-y,1/2-z
1/2+y,1/2-x,1/2-z
1/2+x,1/2+y,1/2-z
1/2-y,1/2+x,1/2-z
loop_
_atom_site_type_symbol
_atom_site_label
_atom_site_fract_x
_atom_site_fract_y
_atom_site_fract_z
Si Si1 0.667552 0.592608 0.187541
Si Si2 0.997461 0.638016 0.449278
Si Si3 0.316426 0.107103 0.127555
Si Si4 0.088258 0.659712 0.235333
Si Si5 0.337053 0.197106 0.388699
O O1 0.543100 0.647869 0.182905
O O2 0.725283 0.616857 0.237199
O O3 0.757583 0.637942 0.150058
O O4 0.961977 0.680688 0.500000
O O5 0.913315 0.659080 0.406155
O O6 0.000000 0.500000 0.451961
O O7 0.122918 0.680856 0.434993
O O8 0.337663 0.123947 0.182022
O O9 0.202760 0.172383 0.111720
O O10 0.312648 0.971052 0.121573
O O11 0.141348 0.548577 0.260117
#
# Coordination Sequence:
#
# PCOD9546066 Si02
#       5
#    16  16  16  16  16
#     4  11  24  40  59  88 129 173 223 274 323 377
#     4   9  20  40  64  88 116 156 207 258 313 383
#     4  11  24  38  64  93 127 164 216 268 323 393
#     4  11  22  36  60  88 122 173 218 262 317 390
#     4  11  22  41  61  91 127 170 210 267 330 385
#
# _framework density 20.180309000000001
#
# number of rings (size 3 to 8) (size 9 to 14) (size 15 to 20)
#    0.000    1.400    2.000    3.600    8.400    2.800 
#    0.000    0.000    0.000    0.000    0.000    9.800 
#    0.000    0.000    0.000    0.000    0.000    0.000 
#
# Total GULP energy -223401.541325 kJ/mol
# GULP energy per Si atom -5585.038533 kJ/mol
# Density = 2.013438 g / cm^3
# Si number density = 20.180309 Si / 1000 Ang^3
#
#
#
# Elastic Constant Matrix: (Units=GPa)
#
#
# Indices 1 2 3 4 5 6 
#
# 1 102.9419 26.9361 32.2660 0.0000 0.0000 3.2087
# 2 26.9361 102.9419 32.2660 0.0000 0.0000 -3.2087
# 3 32.2660 32.2660 136.4198 0.0000 0.0000 0.0000
# 4 0.0000 0.0000 0.0000 7.3093 0.0000 0.0000
# 5 0.0000 0.0000 0.0000 0.0000 7.3093 0.0000
# 6 3.2087 -3.2087 0.0000 0.0000 0.0000 31.8750
#
#
#
# Elastic Compliance Matrix: (Units=1/GPa)
#
#
# Indices 1 2 3 4 5 6 
#
# 1 0.010997 -0.002272 -0.002064 0.000000 0.000000 -0.001336
# 2 -0.002272 0.010997 -0.002064 0.000000 0.000000 0.001336
# 3 -0.002064 -0.002064 0.008306 0.000000 0.000000 0.000000
# 4 0.000000 0.000000 0.000000 0.136813 0.000000 0.000000
# 5 0.000000 0.000000 0.000000 0.000000 0.136813 0.000000
# 6 -0.001336 0.001336 0.000000 0.000000 0.000000 0.031642
#
#
# Mechanical properties :
#
#
# Convention : Reuss Voigt Hill
#
# Bulk Modulus (GPa) = 57.13700 58.36000 57.74850
# Shear Modulus (GPa) = 14.11626 26.02107 20.06867
#
# Velocity S-wave (km/s) = 2.64769 3.59476 3.15694
# Velocity P-wave (km/s) = 6.14180 6.79792 6.47817
#
# Compressibility (1/GPa) = 0.01750179
#
# Stress axis : x y z
#
# Youngs Moduli (GPa) = 90.93168 90.93168 120.38788
#
# Poissons Ratio (x) = 0.20663 0.24843
# Poissons Ratio (y) = 0.20663 0.24843
# Poissons Ratio (z) = 0.18765 0.18765
#
# Static dielectric constant tensor:
#      x y z
#    x 1.738030 0.000000 0.000000 
#    y 0.000000 1.738030 0.000000 
#    z 0.000000 0.000000 1.718060 
# 
# From -- ./inp_files/6483.got.cif
#   From: 2010.05.17/outbox.cif.g08.bks.cpg/sg87_4_cif.got.tgz:6483.got - 2010.06.03 19:07:00.
