data_PCOD9546070
_publ_section_title
;
Structure prediction by ZEFSAII (Michael W. Deem and Ramdas Pophale) SiO2 
 PCOD9546070
Probable space group: I 4/M
;
_chemical_formula_sum "Si O2"
_cell_formula_units_Z 80
_cell_length_a 11.487091
_cell_length_b 11.487091
_cell_length_c 33.396765
_cell_angle_alpha 90.000000
_cell_angle_beta 90.000000
_cell_angle_gamma 90.000000
_cell_volume 4406.812003
_symmetry_space_group_name_H-M "I 4/M"
_symmetry_group_IT_number 87
_symmetry_cell_setting 'tetragonal'
loop_
_space_group_symop_operation_xyz
x,y,z
-y,x,z
-x,-y,z
y,-x,z
-x,-y,-z
y,-x,-z
x,y,-z
-y,x,-z
1/2+x,1/2+y,1/2+z
1/2-y,1/2+x,1/2+z
1/2-x,1/2-y,1/2+z
1/2+y,1/2-x,1/2+z
1/2-x,1/2-y,1/2-z
1/2+y,1/2-x,1/2-z
1/2+x,1/2+y,1/2-z
1/2-y,1/2+x,1/2-z
loop_
_atom_site_type_symbol
_atom_site_label
_atom_site_fract_x
_atom_site_fract_y
_atom_site_fract_z
Si Si1 0.537875 0.865845 0.384744
Si Si2 0.689759 0.874677 0.305527
Si Si3 0.051286 0.188298 0.952914
Si Si4 0.941671 0.188076 0.169298
Si Si5 0.863344 0.699562 0.280570
O O1 0.634057 0.861087 0.349246
O O2 0.575630 0.798062 0.424660
O O3 0.436457 0.781784 0.366678
O O4 0.500000 0.000000 0.390487
O O5 0.818295 0.820403 0.300113
O O6 0.632396 0.807934 0.267426
O O7 0.674501 0.009710 0.296413
O O8 0.921346 0.136735 0.945354
O O9 0.058877 0.216994 0.000000
O O10 0.895017 0.267363 0.205509
O O11 0.072279 0.136472 0.168160
#
# Coordination Sequence:
#
# PCOD9546070 Si02
#       5
#    16  16  16  16  16
#     4  12  22  36  58  88 125 161 196 246 305 370
#     4  11  25  39  58  82 119 160 215 259 307 352
#     4   9  20  40  66  94 122 151 190 249 314 372
#     4  11  22  37  60  89 115 155 214 261 306 358
#     4  11  24  43  57  83 116 165 213 266 306 350
#
# _framework density 18.153714000000001
#
# number of rings (size 3 to 8) (size 9 to 14) (size 15 to 20)
#    0.000    1.200    4.000    3.000    2.800    2.400 
#    0.000    0.000    0.000    0.000    0.000    0.000 
#    0.000    0.000    0.000   18.200    0.000    0.000 
#
# Total GULP energy -222822.223517 kJ/mol
# GULP energy per Si atom -5570.555588 kJ/mol
# Density = 1.811240 g / cm^3
# Si number density = 18.153714 Si / 1000 Ang^3
#
#
#
# Elastic Constant Matrix: (Units=GPa)
#
#
# Indices 1 2 3 4 5 6 
#
# 1 118.2273 35.4345 55.2467 0.0000 0.0000 3.9599
# 2 35.4345 118.2273 55.2467 0.0000 0.0000 -3.9599
# 3 55.2467 55.2467 131.7984 0.0000 0.0000 0.0000
# 4 0.0000 0.0000 0.0000 31.7475 0.0000 0.0000
# 5 0.0000 0.0000 0.0000 0.0000 31.7475 0.0000
# 6 3.9599 -3.9599 0.0000 0.0000 0.0000 12.4390
#
#
#
# Elastic Compliance Matrix: (Units=1/GPa)
#
#
# Indices 1 2 3 4 5 6 
#
# 1 0.010887 -0.001571 -0.003905 0.000000 0.000000 -0.003966
# 2 -0.001571 0.010887 -0.003905 0.000000 0.000000 0.003966
# 3 -0.003905 -0.003905 0.010861 0.000000 0.000000 0.000000
# 4 0.000000 0.000000 0.000000 0.031499 0.000000 0.000000
# 5 0.000000 0.000000 0.000000 0.000000 0.031499 0.000000
# 6 -0.003966 0.003966 0.000000 0.000000 0.000000 0.082917
#
#
# Mechanical properties :
#
#
# Convention : Reuss Voigt Hill
#
# Bulk Modulus (GPa) = 72.08361 73.34541 72.71451
# Shear Modulus (GPa) = 24.76047 30.00848 27.38447
#
# Velocity S-wave (km/s) = 3.69715 4.07015 3.88813
# Velocity P-wave (km/s) = 7.61701 7.91064 7.76521
#
# Compressibility (1/GPa) = 0.01387278
#
# Stress axis : x y z
#
# Youngs Moduli (GPa) = 91.85516 91.85516 92.07223
#
# Poissons Ratio (x) = 0.14430 0.35953
# Poissons Ratio (y) = 0.14430 0.35953
# Poissons Ratio (z) = 0.35869 0.35869
#
# Static dielectric constant tensor:
#      x y z
#    x 1.682070 0.000000 0.000000 
#    y 0.000000 1.682070 0.000000 
#    z 0.000000 0.000000 1.660540 
# 
# From -- ./inp_files/6498.got.cif
#   From: 2010.05.17/outbox.cif.g08.bks.cpg/sg87_4_cif.got.tgz:6498.got - 2010.06.03 19:07:00.
