data_PCOD9546660
_publ_section_title
;
Structure prediction by ZEFSAII (Michael W. Deem and Ramdas Pophale) SiO2 
 PCOD9546660
Probable space group: I 41/A
;
_chemical_formula_sum "Si O2"
_cell_formula_units_Z 88
_cell_length_a 17.285188
_cell_length_b 17.285188
_cell_length_c 13.484358
_cell_angle_alpha 90.000000
_cell_angle_beta 90.000000
_cell_angle_gamma 90.000000
_cell_volume 4028.825795
_symmetry_space_group_name_H-M "I 41/A"
_symmetry_group_IT_number 88
_space_group.IT_coordinate_system_code '2'
_symmetry_cell_setting 'tetragonal'
loop_
_space_group_symop_operation_xyz
x,y,z
3/4-y,1/4+x,1/4+z
-x,1/2-y,z
1/4+y,1/4-x,1/4+z
-x,-y,-z
1/4+y,3/4-x,3/4-z
x,1/2+y,-z
3/4-y,3/4+x,3/4-z
1/2+x,1/2+y,1/2+z
1/4-y,3/4+x,3/4+z
1/2-x,-y,1/2+z
3/4+y,3/4-x,3/4+z
1/2-x,1/2-y,1/2-z
3/4+y,1/4-x,1/4-z
1/2+x,y,1/2-z
1/4-y,1/4+x,1/4-z
loop_
_atom_site_type_symbol
_atom_site_label
_atom_site_fract_x
_atom_site_fract_y
_atom_site_fract_z
Si Si1 0.738758 0.628438 0.476710
Si Si2 0.500000 0.750000 0.125000
Si Si3 0.500000 0.250000 0.375000
Si Si4 0.284822 0.443013 0.323087
Si Si5 0.610670 0.425129 0.624022
Si Si6 0.499729 0.865616 0.810871
Si Si7 0.537538 0.130933 0.711254
O O1 0.696549 0.604429 0.578861
O O2 0.724200 0.552253 0.412149
O O3 0.696978 0.706094 0.443021
O O4 0.828227 0.644435 0.496168
O O5 0.500788 0.823638 0.197475
O O6 0.508103 0.177683 0.296727
O O7 0.338771 0.518024 0.307062
O O8 0.292720 0.383803 0.233337
O O9 0.625791 0.333230 0.613426
O O10 0.522247 0.426657 0.657482
O O11 0.557148 0.815129 0.879998
#
# Coordination Sequence:
#
# PCOD9546660 Si02
#       7
#    16   4   4  16  16  16  16
#     4  11  24  43  67 104 138 184 220 274 347 407
#     4  12  26  48  68  94 136 184 230 300 324 390
#     4  12  22  40  72 102 140 176 218 284 360 402
#     4  10  24  43  68  99 147 176 220 278 341 415
#     4  11  22  45  69 102 134 179 228 281 339 410
#     4  12  23  43  70 103 137 175 226 284 341 418
#     4  12  25  46  70  98 137 176 236 283 340 404
#
# _framework density 21.842590999999999
#
# number of rings (size 3 to 8) (size 9 to 14) (size 15 to 20)
#    0.000    0.727    5.455    2.182    0.000    6.545 
#    0.000    1.818    0.000    0.000    0.000    0.000 
#    0.000    0.000    0.000    0.000    0.000    0.000 
#
# Total GULP energy -245537.511298 kJ/mol
# GULP energy per Si atom -5580.397984 kJ/mol
# Density = 2.179288 g / cm^3
# Si number density = 21.842591 Si / 1000 Ang^3
#
#
#
# Elastic Constant Matrix: (Units=GPa)
#
#
# Indices 1 2 3 4 5 6 
#
# 1 42.7292 13.1478 -0.6169 0.0000 0.0000 -5.0627
# 2 13.1478 42.7292 -0.6169 0.0000 0.0000 5.0627
# 3 -0.6169 -0.6169 62.5791 0.0000 0.0000 0.0000
# 4 0.0000 0.0000 0.0000 1.8811 0.0000 0.0000
# 5 0.0000 0.0000 0.0000 0.0000 1.8811 0.0000
# 6 -5.0627 5.0627 0.0000 0.0000 0.0000 47.3255
#
#
#
# Elastic Compliance Matrix: (Units=1/GPa)
#
#
# Indices 1 2 3 4 5 6 
#
# 1 0.026495 -0.008595 0.000176 0.000000 0.000000 0.003754
# 2 -0.008595 0.026495 0.000176 0.000000 0.000000 -0.003754
# 3 0.000176 0.000176 0.015983 0.000000 0.000000 0.000000
# 4 0.000000 0.000000 0.000000 0.531601 0.000000 0.000000
# 5 0.000000 0.000000 0.000000 0.000000 0.531601 0.000000
# 6 0.003754 -0.003754 0.000000 0.000000 0.000000 0.021933
#
#
# Mechanical properties :
#
#
# Convention : Reuss Voigt Hill
#
# Bulk Modulus (GPa) = 19.05130 19.09615 19.07372
# Shear Modulus (GPa) = 4.20843 19.29245 11.75044
#
# Velocity S-wave (km/s) = 1.38957 2.97518 2.32191
# Velocity P-wave (km/s) = 3.36386 4.53474 3.99245
#
# Compressibility (1/GPa) = 0.05248985
#
# Stress axis : x y z
#
# Youngs Moduli (GPa) = 37.74278 37.74278 62.56546
#
# Poissons Ratio (x) = 0.32439 -0.01104
# Poissons Ratio (y) = 0.32439 -0.01104
# Poissons Ratio (z) = -0.00666 -0.00666
#
# Static dielectric constant tensor:
#      x y z
#    x 1.809440 0.000000 0.000000 
#    y 0.000000 1.809440 0.000000 
#    z 0.000000 0.000000 1.813090 
# 
# From -- ./inp_files/3261.got.cif
#   From: 2010.05.17/outbox.cif.g08.bks.cpg/sg88_2_cif.got.tgz:3261.got - 2010.06.03 19:11:41.
