data_PCOD9546677
_publ_section_title
;
Structure prediction by ZEFSAII (Michael W. Deem and Ramdas Pophale) SiO2 
 PCOD9546677
Probable space group: I 41/A
;
_chemical_formula_sum "Si O2"
_cell_formula_units_Z 64
_cell_length_a 9.446910
_cell_length_b 9.446910
_cell_length_c 27.800628
_cell_angle_alpha 90.000000
_cell_angle_beta 90.000000
_cell_angle_gamma 90.000000
_cell_volume 2481.042263
_symmetry_space_group_name_H-M "I 41/A"
_symmetry_group_IT_number 88
_space_group.IT_coordinate_system_code '2'
_symmetry_cell_setting 'tetragonal'
loop_
_space_group_symop_operation_xyz
x,y,z
3/4-y,1/4+x,1/4+z
-x,1/2-y,z
1/4+y,1/4-x,1/4+z
-x,-y,-z
1/4+y,3/4-x,3/4-z
x,1/2+y,-z
3/4-y,3/4+x,3/4-z
1/2+x,1/2+y,1/2+z
1/4-y,3/4+x,3/4+z
1/2-x,-y,1/2+z
3/4+y,3/4-x,3/4+z
1/2-x,1/2-y,1/2-z
3/4+y,1/4-x,1/4-z
1/2+x,y,1/2-z
1/4-y,1/4+x,1/4-z
loop_
_atom_site_type_symbol
_atom_site_label
_atom_site_fract_x
_atom_site_fract_y
_atom_site_fract_z
Si Si1 0.226476 0.194891 0.131919
Si Si2 0.814099 0.756574 0.159151
Si Si3 0.722673 0.659173 0.057995
Si Si4 0.277117 0.999803 0.220420
O O1 0.157177 0.348164 0.134711
O O2 0.361131 0.171934 0.096447
O O3 0.265687 0.129891 0.183611
O O4 0.811450 0.692807 0.105687
O O5 0.809927 0.634034 0.198792
O O6 0.704973 0.033012 0.229248
O O7 0.583465 0.586171 0.080010
O O8 0.707233 0.807834 0.030056
#
# Coordination Sequence:
#
# PCOD9546677 Si02
#       4
#    16  16  16  16
#     4  10  24  47  72  98 142 191 230 289 358 421
#     4  11  22  44  71 101 148 181 232 295 354 412
#     4  11  23  43  69 111 143 183 233 296 352 411
#     4  11  25  42  77 105 141 186 239 291 351 425
#
# _framework density 25.79561
#
# number of rings (size 3 to 8) (size 9 to 14) (size 15 to 20)
#    0.000    1.250    5.000    1.500    3.500    1.000 
#    0.000    1.250    5.500    0.000    0.000    0.000 
#    0.000    0.000    0.000    0.000    0.000    0.000 
#
# Total GULP energy -179129.857804 kJ/mol
# GULP energy per Si atom -5597.808056 kJ/mol
# Density = 2.573690 g / cm^3
# Si number density = 25.795610 Si / 1000 Ang^3
#
#
#
# Elastic Constant Matrix: (Units=GPa)
#
#
# Indices 1 2 3 4 5 6 
#
# 1 126.2229 -6.0750 34.0605 0.0000 0.0000 6.7877
# 2 -6.0750 126.2229 34.0605 0.0000 0.0000 -6.7877
# 3 34.0605 34.0605 116.0179 0.0000 0.0000 0.0000
# 4 0.0000 0.0000 0.0000 36.7658 0.0000 0.0000
# 5 0.0000 0.0000 0.0000 0.0000 36.7658 0.0000
# 6 6.7877 -6.7877 0.0000 0.0000 0.0000 33.9784
#
#
#
# Elastic Compliance Matrix: (Units=1/GPa)
#
#
# Indices 1 2 3 4 5 6 
#
# 1 0.008851 0.001134 -0.002931 0.000000 0.000000 -0.001542
# 2 0.001134 0.008851 -0.002931 0.000000 0.000000 0.001542
# 3 -0.002931 -0.002931 0.010341 0.000000 0.000000 0.000000
# 4 0.000000 0.000000 0.000000 0.027199 0.000000 0.000000
# 5 0.000000 0.000000 0.000000 0.000000 0.027199 0.000000
# 6 -0.001542 0.001542 0.000000 0.000000 0.000000 0.030046
#
#
# Mechanical properties :
#
#
# Convention : Reuss Voigt Hill
#
# Bulk Modulus (GPa) = 53.80653 54.72842 54.26747
# Shear Modulus (GPa) = 39.01984 41.92982 40.47483
#
# Velocity S-wave (km/s) = 3.89350 4.03608 3.96543
# Velocity P-wave (km/s) = 6.41222 6.55608 6.48455
#
# Compressibility (1/GPa) = 0.01858511
#
# Stress axis : x y z
#
# Youngs Moduli (GPa) = 112.98149 112.98149 96.70634
#
# Poissons Ratio (x) = -0.12814 0.28349
# Poissons Ratio (y) = -0.12814 0.28349
# Poissons Ratio (z) = 0.33120 0.33120
#
# Static dielectric constant tensor:
#      x y z
#    x 2.077310 0.000000 0.000000 
#    y 0.000000 2.077310 0.000000 
#    z 0.000000 0.000000 1.952870 
# 
# From -- ./inp_files/5114.got.cif
#   From: 2010.05.17/outbox.cif.g08.bks.cpg/sg88_3_cif.got.tgz:5114.got - 2010.06.03 19:11:41.
