data_PCOD9546595
_publ_section_title
;
Structure prediction by ZEFSAII (Michael W. Deem and Ramdas Pophale) SiO2 
 PCOD9546595
Probable space group: I 41/A
;
_chemical_formula_sum "Si O2"
_cell_formula_units_Z 68
_cell_length_a 11.959304
_cell_length_b 11.959304
_cell_length_c 22.177732
_cell_angle_alpha 90.000000
_cell_angle_beta 90.000000
_cell_angle_gamma 90.000000
_cell_volume 3171.969058
_symmetry_space_group_name_H-M "I 41/A"
_symmetry_group_IT_number 88
_space_group.IT_coordinate_system_code '2'
_symmetry_cell_setting 'tetragonal'
loop_
_space_group_symop_operation_xyz
x,y,z
3/4-y,1/4+x,1/4+z
-x,1/2-y,z
1/4+y,1/4-x,1/4+z
-x,-y,-z
1/4+y,3/4-x,3/4-z
x,1/2+y,-z
3/4-y,3/4+x,3/4-z
1/2+x,1/2+y,1/2+z
1/4-y,3/4+x,3/4+z
1/2-x,-y,1/2+z
3/4+y,3/4-x,3/4+z
1/2-x,1/2-y,1/2-z
3/4+y,1/4-x,1/4-z
1/2+x,y,1/2-z
1/4-y,1/4+x,1/4-z
loop_
_atom_site_type_symbol
_atom_site_label
_atom_site_fract_x
_atom_site_fract_y
_atom_site_fract_z
Si Si1 0.594502 0.336634 0.644137
Si Si2 0.741170 0.311707 0.905457
Si Si3 0.218585 0.264482 0.034874
Si Si4 0.810313 0.562833 0.874501
Si Si5 0.000000 0.750000 0.375000
O O1 0.500000 0.250000 0.624069
O O2 0.705596 0.262666 0.648078
O O3 0.552554 0.401873 0.703657
O O4 0.622500 0.446840 0.604175
O O5 0.772170 0.439790 0.894457
O O6 0.609766 0.291049 0.910068
O O7 0.797942 0.264213 0.965893
O O8 0.196471 0.154595 0.074689
O O9 0.151651 0.365316 0.067040
#
# Coordination Sequence:
#
# PCOD9546595 Si02
#       5
#    16  16  16  16   4
#     4  10  22  45  63  95 137 160 217 276 309 381
#     4  12  23  41  67  97 129 177 207 265 333 370
#     4  10  25  43  67  94 130 175 208 273 322 367
#     4  10  23  43  64  92 134 157 227 256 310 397
#     4  12  24  36  64 104 132 160 228 256 304 434
#
# _framework density 21.437788000000001
#
# number of rings (size 3 to 8) (size 9 to 14) (size 15 to 20)
#    1.412    0.000    4.706    0.000    4.941    0.471 
#    4.235    8.235    0.000    0.000    0.000    0.000 
#    0.000    0.000    0.000    0.000    0.000    0.000 
#
# Total GULP energy -189284.815912 kJ/mol
# GULP energy per Si atom -5567.200468 kJ/mol
# Density = 2.138899 g / cm^3
# Si number density = 21.437788 Si / 1000 Ang^3
#
#
#
# Elastic Constant Matrix: (Units=GPa)
#
#
# Indices 1 2 3 4 5 6 
#
# 1 43.3484 3.1366 -4.9640 0.0000 0.0000 15.2095
# 2 3.1366 43.3484 -4.9640 0.0000 0.0000 -15.2095
# 3 -4.9640 -4.9640 38.2589 0.0000 0.0000 0.0000
# 4 0.0000 0.0000 0.0000 11.4302 0.0000 0.0000
# 5 0.0000 0.0000 0.0000 0.0000 11.4302 0.0000
# 6 15.2095 -15.2095 0.0000 0.0000 0.0000 31.4017
#
#
#
# Elastic Compliance Matrix: (Units=1/GPa)
#
#
# Indices 1 2 3 4 5 6 
#
# 1 0.030687 -0.008562 0.002871 0.000000 0.000000 -0.019010
# 2 -0.008562 0.030687 0.002871 0.000000 0.000000 0.019010
# 3 0.002871 0.002871 0.026883 0.000000 0.000000 0.000000
# 4 0.000000 0.000000 0.000000 0.087487 0.000000 0.000000
# 5 0.000000 0.000000 0.000000 0.000000 0.087487 0.000000
# 6 -0.019010 0.019010 0.000000 0.000000 0.000000 0.050261
#
#
# Mechanical properties :
#
#
# Convention : Reuss Voigt Hill
#
# Bulk Modulus (GPa) = 12.10416 12.37479 12.23948
# Shear Modulus (GPa) = 14.42283 19.63556 17.02920
#
# Velocity S-wave (km/s) = 2.59661 3.02972 2.82149
# Velocity P-wave (km/s) = 3.82730 4.24546 4.04179
#
# Compressibility (1/GPa) = 0.08261620
#
# Stress axis : x y z
#
# Youngs Moduli (GPa) = 32.58683 32.58683 37.19876
#
# Poissons Ratio (x) = 0.27900 -0.10679
# Poissons Ratio (y) = 0.27900 -0.10679
# Poissons Ratio (z) = -0.09355 -0.09355
#
# Static dielectric constant tensor:
#      x y z
#    x 1.806120 0.000000 0.000000 
#    y 0.000000 1.806120 0.000000 
#    z 0.000000 0.000000 1.751470 
# 
# From -- ./inp_files/5730.got.cif
#   From: 2010.05.17/outbox.cif.g08.bks.cpg/sg88_3_cif.got.tgz:5730.got - 2010.06.03 19:11:41.
