data_PCOD9546122
_publ_section_title
;
Structure prediction by ZEFSAII (Michael W. Deem and Ramdas Pophale) SiO2 
 PCOD9546122
Probable space group: I 4/M
;
_chemical_formula_sum "Si O2"
_cell_formula_units_Z 44
_cell_length_a 8.038262
_cell_length_b 8.038262
_cell_length_c 30.307267
_cell_angle_alpha 90.000000
_cell_angle_beta 90.000000
_cell_angle_gamma 90.000000
_cell_volume 1958.263324
_symmetry_space_group_name_H-M "I 4/M"
_symmetry_group_IT_number 87
_symmetry_cell_setting 'tetragonal'
loop_
_space_group_symop_operation_xyz
x,y,z
-y,x,z
-x,-y,z
y,-x,z
-x,-y,-z
y,-x,-z
x,y,-z
-y,x,-z
1/2+x,1/2+y,1/2+z
1/2-y,1/2+x,1/2+z
1/2-x,1/2-y,1/2+z
1/2+y,1/2-x,1/2+z
1/2-x,1/2-y,1/2-z
1/2+y,1/2-x,1/2-z
1/2+x,1/2+y,1/2-z
1/2-y,1/2+x,1/2-z
loop_
_atom_site_type_symbol
_atom_site_label
_atom_site_fract_x
_atom_site_fract_y
_atom_site_fract_z
Si Si1 0.235432 0.592497 0.500000
Si Si2 0.590204 0.764763 0.323257
Si Si3 0.500000 0.000000 0.250000
Si Si4 0.592930 0.235544 0.911570
O O1 0.296011 0.402973 0.500000
O O2 0.135442 0.638568 0.456165
O O3 0.399553 0.703225 0.321480
O O4 0.630980 0.857132 0.368731
O O5 0.612489 0.888087 0.282214
O O6 0.704316 0.403180 0.910808
#
# Coordination Sequence:
#
# PCOD9546122 Si02
#       4
#     8  16   4  16
#     4  11  24  41  64  96 132 171 216 264 316 378
#     4  11  24  42  66  96 129 168 215 265 321 384
#     4  12  24  44  68  94 128 168 212 268 328 382
#     4  11  24  42  65  95 131 171 216 265 319 379
#
# _framework density 22.468889999999998
#
# number of rings (size 3 to 8) (size 9 to 14) (size 15 to 20)
#    0.000    0.909    0.000    6.545    0.000   10.182 
#    0.000    3.636    0.000    0.000    0.000    0.000 
#    0.000    0.000    0.000    0.000    0.000    0.000 
#
# Total GULP energy -123397.891181 kJ/mol
# GULP energy per Si atom -5608.995054 kJ/mol
# Density = 2.241775 g / cm^3
# Si number density = 22.468890 Si / 1000 Ang^3
#
#
#
# Elastic Constant Matrix: (Units=GPa)
#
#
# Indices 1 2 3 4 5 6 
#
# 1 103.7652 49.4204 67.6798 0.0000 0.0000 4.8175
# 2 49.4204 103.7652 67.6798 0.0000 0.0000 -4.8175
# 3 67.6798 67.6798 230.3097 0.0000 0.0000 0.0000
# 4 0.0000 0.0000 0.0000 9.3195 0.0000 0.0000
# 5 0.0000 0.0000 0.0000 0.0000 9.3195 0.0000
# 6 4.8175 -4.8175 0.0000 0.0000 0.0000 43.2876
#
#
#
# Elastic Compliance Matrix: (Units=1/GPa)
#
#
# Indices 1 2 3 4 5 6 
#
# 1 0.013795 -0.004977 -0.002591 0.000000 0.000000 -0.002089
# 2 -0.004977 0.013795 -0.002591 0.000000 0.000000 0.002089
# 3 -0.002591 -0.002591 0.005865 0.000000 0.000000 0.000000
# 4 0.000000 0.000000 0.000000 0.107302 0.000000 0.000000
# 5 0.000000 0.000000 0.000000 0.000000 0.107302 0.000000
# 6 -0.002089 0.002089 0.000000 0.000000 0.000000 0.023566
#
#
# Mechanical properties :
#
#
# Convention : Reuss Voigt Hill
#
# Bulk Modulus (GPa) = 76.12972 89.71114 82.92043
# Shear Modulus (GPa) = 16.87358 29.25599 23.06479
#
# Velocity S-wave (km/s) = 2.74337 3.61233 3.20741
# Velocity P-wave (km/s) = 6.63254 7.57708 7.12049
#
# Compressibility (1/GPa) = 0.01313547
#
# Stress axis : x y z
#
# Youngs Moduli (GPa) = 72.49242 72.49243 170.50567
#
# Poissons Ratio (x) = 0.36078 0.44182
# Poissons Ratio (y) = 0.36078 0.44182
# Poissons Ratio (z) = 0.18784 0.18784
#
# Static dielectric constant tensor:
#      x y z
#    x 1.827130 0.000000 0.000000 
#    y 0.000000 1.827130 0.000000 
#    z 0.000000 0.000000 1.755080 
# 
# From -- ./inp_files/6375.got.cif
#   From: 2010.05.17/outbox.cif.g08.bks.cpg/sg87_4_cif.got.tgz:6375.got - 2010.06.03 19:07:00.
