data_PCOD9546691
_publ_section_title
;
Structure prediction by ZEFSAII (Michael W. Deem and Ramdas Pophale) SiO2 
 PCOD9546691
Probable space group: I 41/A
;
_chemical_formula_sum "Si O2"
_cell_formula_units_Z 52
_cell_length_a 19.339348
_cell_length_b 19.339348
_cell_length_c 6.022288
_cell_angle_alpha 90.000000
_cell_angle_beta 90.000000
_cell_angle_gamma 90.000000
_cell_volume 2252.398230
_symmetry_space_group_name_H-M "I 41/A"
_symmetry_group_IT_number 88
_space_group.IT_coordinate_system_code '2'
_symmetry_cell_setting 'tetragonal'
loop_
_space_group_symop_operation_xyz
x,y,z
3/4-y,1/4+x,1/4+z
-x,1/2-y,z
1/4+y,1/4-x,1/4+z
-x,-y,-z
1/4+y,3/4-x,3/4-z
x,1/2+y,-z
3/4-y,3/4+x,3/4-z
1/2+x,1/2+y,1/2+z
1/4-y,3/4+x,3/4+z
1/2-x,-y,1/2+z
3/4+y,3/4-x,3/4+z
1/2-x,1/2-y,1/2-z
3/4+y,1/4-x,1/4-z
1/2+x,y,1/2-z
1/4-y,1/4+x,1/4-z
loop_
_atom_site_type_symbol
_atom_site_label
_atom_site_fract_x
_atom_site_fract_y
_atom_site_fract_z
Si Si1 0.440523 0.507160 0.316819
Si Si2 0.352158 0.713175 0.195073
Si Si3 0.500000 0.750000 0.125000
Si Si4 0.342366 0.466077 0.677417
O O1 0.500000 0.500000 0.500000
O O2 0.466721 0.569794 0.162300
O O3 0.370474 0.506599 0.458280
O O4 0.443761 0.440327 0.162222
O O5 0.431639 0.725694 0.251955
O O6 0.334369 0.652254 0.019327
O O7 0.324948 0.523852 0.859863
#
# Coordination Sequence:
#
# PCOD9546691 Si02
#       4
#    16  16   4  16
#     4   9  22  47  72  95 142 187 239 306 367 426
#     4  10  25  46  69 103 149 189 243 304 369 445
#     4  12  28  40  78 104 144 202 240 296 370 452
#     4  11  27  42  72 107 138 193 245 307 369 442
#
# _framework density 23.086503
#
# number of rings (size 3 to 8) (size 9 to 14) (size 15 to 20)
#    0.000    1.846    0.000    0.000   21.538    0.000 
#    0.000    6.154    0.000    0.000    0.000    0.000 
#    0.000    0.000    0.000    0.000    0.000    0.000 
#
# Total GULP energy -145349.635967 kJ/mol
# GULP energy per Si atom -5590.370614 kJ/mol
# Density = 2.303396 g / cm^3
# Si number density = 23.086503 Si / 1000 Ang^3
#
#
#
# Elastic Constant Matrix: (Units=GPa)
#
#
# Indices 1 2 3 4 5 6 
#
# 1 138.0163 45.5906 27.9135 0.0000 0.0000 13.6466
# 2 45.5906 138.0163 27.9135 0.0000 0.0000 -13.6466
# 3 27.9135 27.9135 85.6693 0.0000 0.0000 0.0000
# 4 0.0000 0.0000 0.0000 20.0962 0.0000 0.0000
# 5 0.0000 0.0000 0.0000 0.0000 20.0962 0.0000
# 6 13.6466 -13.6466 0.0000 0.0000 0.0000 25.6681
#
#
#
# Elastic Compliance Matrix: (Units=1/GPa)
#
#
# Indices 1 2 3 4 5 6 
#
# 1 0.009440 -0.003395 -0.001970 0.000000 0.000000 -0.006824
# 2 -0.003395 0.009440 -0.001970 0.000000 0.000000 0.006824
# 3 -0.001970 -0.001970 0.012956 0.000000 0.000000 0.000000
# 4 0.000000 0.000000 0.000000 0.049761 0.000000 0.000000
# 5 0.000000 0.000000 0.000000 0.000000 0.049761 0.000000
# 6 -0.006824 0.006824 0.000000 0.000000 0.000000 0.046214
#
#
# Mechanical properties :
#
#
# Convention : Reuss Voigt Hill
#
# Bulk Modulus (GPa) = 58.24758 62.72632 60.48695
# Shear Modulus (GPa) = 25.25726 30.52438 27.89082
#
# Velocity S-wave (km/s) = 3.31120 3.64012 3.47955
# Velocity P-wave (km/s) = 6.31693 6.70048 6.51153
#
# Compressibility (1/GPa) = 0.01716810
#
# Stress axis : x y z
#
# Youngs Moduli (GPa) = 105.93316 105.93316 77.18201
#
# Poissons Ratio (x) = 0.35960 0.15203
# Poissons Ratio (y) = 0.35960 0.15203
# Poissons Ratio (z) = 0.20866 0.20866
#
# Static dielectric constant tensor:
#      x y z
#    x 1.902120 0.000000 0.000000 
#    y 0.000000 1.902120 0.000000 
#    z 0.000000 0.000000 1.843080 
# 
# From -- ./inp_files/398.got.cif
#   From: 2010.05.17/outbox.cif.g08.bks.cpg/sg88_1_cif.got.tgz:398.got - 2010.06.03 19:11:41.
