data_PCOD9546330
_publ_section_title
;
Structure prediction by ZEFSAII (Michael W. Deem and Ramdas Pophale) SiO2 
 PCOD9546330
Probable space group: I 41/A
;
_chemical_formula_sum "Si O2"
_cell_formula_units_Z 64
_cell_length_a 13.640149
_cell_length_b 13.640149
_cell_length_c 13.967936
_cell_angle_alpha 90.000000
_cell_angle_beta 90.000000
_cell_angle_gamma 90.000000
_cell_volume 2598.785682
_symmetry_space_group_name_H-M "I 41/A"
_symmetry_group_IT_number 88
_space_group.IT_coordinate_system_code '2'
_symmetry_cell_setting 'tetragonal'
loop_
_space_group_symop_operation_xyz
x,y,z
3/4-y,1/4+x,1/4+z
-x,1/2-y,z
1/4+y,1/4-x,1/4+z
-x,-y,-z
1/4+y,3/4-x,3/4-z
x,1/2+y,-z
3/4-y,3/4+x,3/4-z
1/2+x,1/2+y,1/2+z
1/4-y,3/4+x,3/4+z
1/2-x,-y,1/2+z
3/4+y,3/4-x,3/4+z
1/2-x,1/2-y,1/2-z
3/4+y,1/4-x,1/4-z
1/2+x,y,1/2-z
1/4-y,1/4+x,1/4-z
loop_
_atom_site_type_symbol
_atom_site_label
_atom_site_fract_x
_atom_site_fract_y
_atom_site_fract_z
Si Si1 0.051275 0.385406 0.165597
Si Si2 0.324887 0.591107 0.352714
Si Si3 0.449007 0.109607 0.835788
Si Si4 0.355499 0.472540 0.539376
O O1 0.104148 0.309923 0.091020
O O2 0.110596 0.375055 0.262826
O O3 0.240806 0.172740 0.125003
O O4 0.400513 0.618119 0.269421
O O5 0.252246 0.678509 0.382737
O O6 0.373922 0.537725 0.443944
O O7 0.250930 0.505765 0.314538
O O8 0.391038 0.188307 0.902484
#
# Coordination Sequence:
#
# PCOD9546330 Si02
#       4
#    16  16  16  16
#     4  10  20  35  55  81 109 141 178 218 263 316
#     4   9  19  35  54  77 107 142 177 218 266 313
#     4  10  20  35  55  81 109 141 178 218 263 316
#     4   9  19  35  54  77 107 142 177 218 266 313
#
# _framework density 24.626885000000001
#
# number of rings (size 3 to 8) (size 9 to 14) (size 15 to 20)
#    0.000    2.500    0.000    1.500    0.000    6.000 
#    0.000   10.000    0.000    0.000    0.000    0.000 
#    0.000    0.000    0.000    0.000    0.000    0.000 
#
# Total GULP energy -178927.703947 kJ/mol
# GULP energy per Si atom -5591.490748 kJ/mol
# Density = 2.457083 g / cm^3
# Si number density = 24.626885 Si / 1000 Ang^3
#
#
#
# Elastic Constant Matrix: (Units=GPa)
#
#
# Indices 1 2 3 4 5 6 
#
# 1 67.0908 11.7259 0.5942 0.0000 0.0000 -0.4387
# 2 11.7259 67.0908 0.5942 0.0000 0.0000 0.4387
# 3 0.5942 0.5942 41.8877 0.0000 0.0000 0.0000
# 4 0.0000 0.0000 0.0000 17.5515 0.0000 0.0000
# 5 0.0000 0.0000 0.0000 0.0000 17.5515 0.0000
# 6 -0.4387 0.4387 0.0000 0.0000 0.0000 41.8614
#
#
#
# Elastic Compliance Matrix: (Units=1/GPa)
#
#
# Indices 1 2 3 4 5 6 
#
# 1 0.015378 -0.002687 -0.000180 0.000000 0.000000 0.000189
# 2 -0.002687 0.015378 -0.000180 0.000000 0.000000 -0.000189
# 3 -0.000180 -0.000180 0.023878 0.000000 0.000000 0.000000
# 4 0.000000 0.000000 0.000000 0.056975 0.000000 0.000000
# 5 0.000000 0.000000 0.000000 0.000000 0.056975 0.000000
# 6 0.000189 -0.000189 0.000000 0.000000 0.000000 0.023892
#
#
# Mechanical properties :
#
#
# Convention : Reuss Voigt Hill
#
# Bulk Modulus (GPa) = 20.60194 22.43311 21.51752
# Shear Modulus (GPa) = 23.28277 26.26987 24.77632
#
# Velocity S-wave (km/s) = 3.07811 3.26960 3.17530
# Velocity P-wave (km/s) = 4.58440 4.83557 4.71166
#
# Compressibility (1/GPa) = 0.04853913
#
# Stress axis : x y z
#
# Youngs Moduli (GPa) = 65.02932 65.02932 41.87875
#
# Poissons Ratio (x) = 0.17475 0.00754
# Poissons Ratio (y) = 0.17475 0.00754
# Poissons Ratio (z) = 0.01171 0.01171
#
# Static dielectric constant tensor:
#      x y z
#    x 1.961990 0.000000 0.000000 
#    y 0.000000 1.961990 0.000000 
#    z 0.000000 0.000000 1.958140 
# 
# From -- ./inp_files/3719.got.cif
#   From: 2010.05.17/outbox.cif.g08.bks.cpg/sg88_2_cif.got.tgz:3719.got - 2010.06.03 19:11:41.
