data_PCOD9546918
_publ_section_title
;
Structure prediction by ZEFSAII (Michael W. Deem and Ramdas Pophale) SiO2 
 PCOD9546918
Probable space group: P 4 2 2
;
_chemical_formula_sum "Si O2"
_cell_formula_units_Z 40
_cell_length_a 15.612376
_cell_length_b 15.612376
_cell_length_c 7.500432
_cell_angle_alpha 90.000000
_cell_angle_beta 90.000000
_cell_angle_gamma 90.000000
_cell_volume 1828.202431
_symmetry_space_group_name_H-M "P 4 2 2"
_symmetry_group_IT_number 89
_symmetry_cell_setting 'tetragonal'
loop_
_space_group_symop_operation_xyz
x,y,z
-y,x,z
-x,-y,z
y,-x,z
x,-y,-z
-x,y,-z
y,x,-z
-y,-x,-z
loop_
_atom_site_type_symbol
_atom_site_label
_atom_site_fract_x
_atom_site_fract_y
_atom_site_fract_z
Si Si1 0.337058 0.302455 0.202261
Si Si2 0.740787 0.011372 0.217175
Si Si3 0.258268 0.474401 0.294972
Si Si4 0.555501 0.069766 0.313361
Si Si5 0.174400 0.809719 0.216113
O O1 0.324664 0.397206 0.279264
O O2 0.435703 0.275861 0.201782
O O3 0.268515 0.235195 0.282660
O O4 0.310066 0.310066 0.000000
O O5 0.649742 0.029926 0.309858
O O6 0.796205 0.095026 0.267681
O O7 0.784978 0.922024 0.268238
O O8 0.728139 0.000000 0.000000
O O9 0.256410 0.500000 0.500000
O O10 0.165095 0.439728 0.237474
O O11 0.500000 0.079885 0.500000
O O12 0.500000 0.000000 0.208985
O O13 0.183571 0.816430 0.000000
#
# Coordination Sequence:
#
# PCOD9546918 Si02
#       5
#     8   8   8   8   8
#     4  11  22  40  60  90 128 166 210 268 322 381
#     4  10  19  36  59  94 126 172 209 260 320 383
#     4  11  23  40  63  89 121 167 216 262 322 389
#     4  10  21  38  59  86 123 156 213 266 317 373
#     4   9  19  34  58  89 131 163 211 256 312 379
#
# _framework density 21.879415999999999
#
# number of rings (size 3 to 8) (size 9 to 14) (size 15 to 20)
#    0.000    1.800    2.000    2.400    0.000    1.200 
#    3.600    4.000    0.000    0.000    0.000    0.000 
#    0.000    6.400    0.000    0.000    0.000    0.000 
#
# Total GULP energy -223081.811750 kJ/mol
# GULP energy per Si atom -5577.045294 kJ/mol
# Density = 2.182962 g / cm^3
# Si number density = 21.879416 Si / 1000 Ang^3
#
#
#
# Elastic Constant Matrix: (Units=GPa)
#
#
# Indices 1 2 3 4 5 6 
#
# 1 184.3415 98.2569 14.9970 0.0000 0.0000 0.0000
# 2 98.2569 184.3408 14.9966 0.0000 0.0000 0.0000
# 3 14.9970 14.9966 44.9412 0.0000 0.0000 0.0000
# 4 0.0000 0.0000 0.0000 -0.3958 0.0000 0.0000
# 5 0.0000 0.0000 0.0000 0.0000 -0.3956 0.0000
# 6 0.0000 0.0000 0.0000 0.0000 0.0000 40.2473
#
#
#
# Elastic Compliance Matrix: (Units=1/GPa)
#
#
# Indices 1 2 3 4 5 6 
#
# 1 0.007643 -0.003974 -0.001224 0.000000 0.000000 0.000000
# 2 -0.003974 0.007643 -0.001224 0.000000 0.000000 0.000000
# 3 -0.001224 -0.001224 0.023068 0.000000 0.000000 0.000000
# 4 0.000000 0.000000 0.000000 -2.526485 0.000000 0.000000
# 5 0.000000 0.000000 0.000000 0.000000 -2.527641 0.000000
# 6 0.000000 0.000000 0.000000 0.000000 0.000000 0.024846
#
#
# Mechanical properties :
#
#
# Convention : Reuss Voigt Hill
#
# Bulk Modulus (GPa) = 39.20241 74.45827 56.83034
# Shear Modulus (GPa) = -1.00612 26.91603 12.95496
#
# Velocity S-wave (km/s) = -0.67886 3.51122 2.43596
# Velocity P-wave (km/s) = 4.16436 7.10938 5.82603
#
# Compressibility (1/GPa) = 0.02550864
#
# Stress axis : x y z
#
# Youngs Moduli (GPa) = 130.84690 130.84657 43.34952
#
# Poissons Ratio (x) = 0.51999 0.05307
# Poissons Ratio (y) = 0.51999 0.05307
# Poissons Ratio (z) = 0.16019 0.16017
#
# Static dielectric constant tensor:
#      x y z
#    x 1.784220 0.000000 0.000000 
#    y 0.000000 1.784220 0.000000 
#    z 0.000000 0.000000 1.886980 
# 
# From -- ./inp_files/1039.got.cif
#   From: 2010.05.17/outbox.cif.g08.bks.cpg/sg89_1_cif.got.tgz:1039.got - 2010.06.03 19:15:31.
