data_PCOD9546036
_publ_section_title
;
Structure prediction by ZEFSAII (Michael W. Deem and Ramdas Pophale) SiO2 
 PCOD9546036
Probable space group: I 4/M
;
_chemical_formula_sum "Si O2"
_cell_formula_units_Z 52
_cell_length_a 14.822996
_cell_length_b 14.822996
_cell_length_c 10.039254
_cell_angle_alpha 90.000000
_cell_angle_beta 90.000000
_cell_angle_gamma 90.000000
_cell_volume 2205.837041
_symmetry_space_group_name_H-M "I 4/M"
_symmetry_group_IT_number 87
_symmetry_cell_setting 'tetragonal'
loop_
_space_group_symop_operation_xyz
x,y,z
-y,x,z
-x,-y,z
y,-x,z
-x,-y,-z
y,-x,-z
x,y,-z
-y,x,-z
1/2+x,1/2+y,1/2+z
1/2-y,1/2+x,1/2+z
1/2-x,1/2-y,1/2+z
1/2+y,1/2-x,1/2+z
1/2-x,1/2-y,1/2-z
1/2+y,1/2-x,1/2-z
1/2+x,1/2+y,1/2-z
1/2-y,1/2+x,1/2-z
loop_
_atom_site_type_symbol
_atom_site_label
_atom_site_fract_x
_atom_site_fract_y
_atom_site_fract_z
Si Si1 0.400587 0.615319 0.648080
Si Si2 0.835378 0.418111 0.856446
Si Si3 0.232717 0.379604 0.155233
Si Si4 0.500000 0.000000 0.500000
O O1 0.378712 0.509623 0.655782
O O2 0.373799 0.648132 0.500000
O O3 0.361585 0.675214 0.766227
O O4 0.784061 0.512238 0.836558
O O5 0.835220 0.349668 0.735098
O O6 0.803871 0.378234 0.000000
O O7 0.938120 0.448056 0.887952
O O8 0.231354 0.356569 0.000000
#
# Coordination Sequence:
#
# PCOD9546036 Si02
#       4
#    16  16  16   4
#     4   9  20  41  65  82 101 142 195 238 283 343
#     4   9  19  31  50  77 115 151 189 216 270 325
#     4  11  21  32  54  88 119 146 185 234 284 330
#     4   8  16  34  54  72 108 162 202 220 244 318
#
# _framework density 23.573816999999998
#
# number of rings (size 3 to 8) (size 9 to 14) (size 15 to 20)
#    0.923    1.538    0.000    3.692    0.000    2.462 
#    0.000    3.077    0.000    0.000    0.000    0.000 
#    0.000    0.000    0.000    0.000    0.000    0.000 
#
# Total GULP energy -144768.321574 kJ/mol
# GULP energy per Si atom -5568.012368 kJ/mol
# Density = 2.352016 g / cm^3
# Si number density = 23.573817 Si / 1000 Ang^3
#
#
#
# Elastic Constant Matrix: (Units=GPa)
#
#
# Indices 1 2 3 4 5 6 
#
# 1 92.7078 11.5944 64.4633 0.0000 0.0000 20.8258
# 2 11.5944 92.7078 64.4633 0.0000 0.0000 -20.8258
# 3 64.4633 64.4633 233.7743 0.0000 0.0000 0.0000
# 4 0.0000 0.0000 0.0000 15.6608 0.0000 0.0000
# 5 0.0000 0.0000 0.0000 0.0000 15.6608 0.0000
# 6 20.8258 -20.8258 0.0000 0.0000 0.0000 13.5224
#
#
#
# Elastic Compliance Matrix: (Units=1/GPa)
#
#
# Indices 1 2 3 4 5 6 
#
# 1 0.036744 -0.022198 -0.004011 0.000000 0.000000 -0.090777
# 2 -0.022198 0.036744 -0.004011 0.000000 0.000000 0.090777
# 3 -0.004011 -0.004011 0.006490 0.000000 0.000000 0.000000
# 4 0.000000 0.000000 0.000000 0.063854 0.000000 0.000000
# 5 0.000000 0.000000 0.000000 0.000000 0.063854 0.000000
# 6 -0.090777 0.090777 0.000000 0.000000 0.000000 0.353561
#
#
# Mechanical properties :
#
#
# Convention : Reuss Voigt Hill
#
# Bulk Modulus (GPa) = 51.18559 77.80355 64.49457
# Shear Modulus (GPa) = 7.95928 27.54673 17.75300
#
# Velocity S-wave (km/s) = 1.83947 3.42209 2.74721
# Velocity P-wave (km/s) = 5.12558 6.97783 6.12216
#
# Compressibility (1/GPa) = 0.01953675
#
# Stress axis : x y z
#
# Youngs Moduli (GPa) = 27.21555 27.21555 154.09210
#
# Poissons Ratio (x) = 0.60414 0.61804
# Poissons Ratio (y) = 0.60414 0.61804
# Poissons Ratio (z) = 0.10916 0.10916
#
# Static dielectric constant tensor:
#      x y z
#    x 1.902310 0.000000 0.000000 
#    y 0.000000 1.902310 0.000000 
#    z 0.000000 0.000000 1.881930 
# 
# From -- ./inp_files/667.got.cif
#   From: 2010.05.17/outbox.cif.g08.bks.cpg/sg87_1_cif.got.tgz:667.got - 2010.06.03 19:07:00.
