data_PCOD9546212
_publ_section_title
;
Structure prediction by ZEFSAII (Michael W. Deem and Ramdas Pophale) SiO2 
 PCOD9546212
Probable space group: I 41/A
;
_chemical_formula_sum "Si O2"
_cell_formula_units_Z 72
_cell_length_a 12.828888
_cell_length_b 12.828888
_cell_length_c 15.119504
_cell_angle_alpha 90.000000
_cell_angle_beta 90.000000
_cell_angle_gamma 90.000000
_cell_volume 2488.373522
_symmetry_space_group_name_H-M "I 41/A"
_symmetry_group_IT_number 88
_space_group.IT_coordinate_system_code '2'
_symmetry_cell_setting 'tetragonal'
loop_
_space_group_symop_operation_xyz
x,y,z
3/4-y,1/4+x,1/4+z
-x,1/2-y,z
1/4+y,1/4-x,1/4+z
-x,-y,-z
1/4+y,3/4-x,3/4-z
x,1/2+y,-z
3/4-y,3/4+x,3/4-z
1/2+x,1/2+y,1/2+z
1/4-y,3/4+x,3/4+z
1/2-x,-y,1/2+z
3/4+y,3/4-x,3/4+z
1/2-x,1/2-y,1/2-z
3/4+y,1/4-x,1/4-z
1/2+x,y,1/2-z
1/4-y,1/4+x,1/4-z
loop_
_atom_site_type_symbol
_atom_site_label
_atom_site_fract_x
_atom_site_fract_y
_atom_site_fract_z
Si Si1 0.747838 0.569834 0.186551
Si Si2 0.436157 0.054400 0.794443
Si Si3 0.000000 0.750000 0.563075
Si Si4 0.286504 0.704037 0.627555
Si Si5 0.617592 0.866658 0.794064
O O1 0.813085 0.578739 0.276346
O O2 0.929230 0.541054 0.398185
O O3 0.845605 0.530692 0.124030
O O4 0.659664 0.484295 0.201776
O O5 0.489831 0.152023 0.750621
O O6 0.465371 0.957079 0.729528
O O7 0.969343 0.660629 0.633295
O O8 0.380973 0.679624 0.693416
O O9 0.217722 0.798112 0.665868
#
# Coordination Sequence:
#
# PCOD9546212 Si02
#       5
#    16  16   8  16  16
#     4  10  17  36  60  87 115 167 190 242 299 375
#     4   9  19  36  60  85 121 157 205 242 306 361
#     4  10  22  38  54  90 122 158 198 270 290 352
#     4   8  17  35  57  86 112 147 197 251 294 366
#     4  10  18  35  61  83 120 150 200 254 303 351
#
# _framework density 28.934562
#
# number of rings (size 3 to 8) (size 9 to 14) (size 15 to 20)
#    1.333    1.333    2.222    0.000    0.000    0.889 
#    8.000    0.000    0.000    2.667    0.000    0.000 
#    0.000    0.000    0.000    0.000    0.000    0.000 
#
# Total GULP energy -201074.290817 kJ/mol
# GULP energy per Si atom -5585.396967 kJ/mol
# Density = 2.886871 g / cm^3
# Si number density = 28.934562 Si / 1000 Ang^3
#
#
#
# Elastic Constant Matrix: (Units=GPa)
#
#
# Indices 1 2 3 4 5 6 
#
# 1 97.4680 21.1811 21.0747 0.0000 0.0000 9.9669
# 2 21.1811 97.4680 21.0747 0.0000 0.0000 -9.9669
# 3 21.0747 21.0747 46.4176 0.0000 0.0000 0.0000
# 4 0.0000 0.0000 0.0000 37.5557 0.0000 0.0000
# 5 0.0000 0.0000 0.0000 0.0000 37.5557 0.0000
# 6 9.9669 -9.9669 0.0000 0.0000 0.0000 30.5713
#
#
#
# Elastic Compliance Matrix: (Units=1/GPa)
#
#
# Indices 1 2 3 4 5 6 
#
# 1 0.012189 -0.002140 -0.004562 0.000000 0.000000 -0.004672
# 2 -0.002140 0.012189 -0.004563 0.000000 0.000000 0.004672
# 3 -0.004562 -0.004563 0.025687 0.000000 0.000000 0.000000
# 4 0.000000 0.000000 0.000000 0.026627 0.000000 0.000000
# 5 0.000000 0.000000 0.000000 0.000000 0.026627 0.000000
# 6 -0.004672 0.004672 0.000000 0.000000 0.000000 0.035757
#
#
# Mechanical properties :
#
#
# Convention : Reuss Voigt Hill
#
# Bulk Modulus (GPa) = 36.31800 40.89051 38.60426
# Shear Modulus (GPa) = 29.27679 33.00472 31.14076
#
# Velocity S-wave (km/s) = 3.18437 3.38104 3.28418
# Velocity P-wave (km/s) = 5.10875 5.42261 5.26802
#
# Compressibility (1/GPa) = 0.02753455
#
# Stress axis : x y z
#
# Youngs Moduli (GPa) = 82.04077 82.04077 38.93094
#
# Poissons Ratio (x) = 0.17557 0.17762
# Poissons Ratio (y) = 0.17557 0.17762
# Poissons Ratio (z) = 0.37431 0.37431
#
# Static dielectric constant tensor:
#      x y z
#    x 2.576470 0.000000 0.000000 
#    y 0.000000 2.576470 0.000000 
#    z 0.000000 0.000000 2.420950 
# 
# From -- ./inp_files/3802.got.cif
#   From: 2010.05.17/outbox.cif.g08.bks.cpg/sg88_2_cif.got.tgz:3802.got - 2010.06.03 19:11:41.
