data_PCOD9546551
_publ_section_title
;
Structure prediction by ZEFSAII (Michael W. Deem and Ramdas Pophale) SiO2 
 PCOD9546551
Probable space group: I 41/A
;
_chemical_formula_sum "Si O2"
_cell_formula_units_Z 88
_cell_length_a 10.605353
_cell_length_b 10.605353
_cell_length_c 32.329793
_cell_angle_alpha 90.000000
_cell_angle_beta 90.000000
_cell_angle_gamma 90.000000
_cell_volume 3636.245369
_symmetry_space_group_name_H-M "I 41/A"
_symmetry_group_IT_number 88
_space_group.IT_coordinate_system_code '2'
_symmetry_cell_setting 'tetragonal'
loop_
_space_group_symop_operation_xyz
x,y,z
3/4-y,1/4+x,1/4+z
-x,1/2-y,z
1/4+y,1/4-x,1/4+z
-x,-y,-z
1/4+y,3/4-x,3/4-z
x,1/2+y,-z
3/4-y,3/4+x,3/4-z
1/2+x,1/2+y,1/2+z
1/4-y,3/4+x,3/4+z
1/2-x,-y,1/2+z
3/4+y,3/4-x,3/4+z
1/2-x,1/2-y,1/2-z
3/4+y,1/4-x,1/4-z
1/2+x,y,1/2-z
1/4-y,1/4+x,1/4-z
loop_
_atom_site_type_symbol
_atom_site_label
_atom_site_fract_x
_atom_site_fract_y
_atom_site_fract_z
Si Si1 0.013262 0.958843 0.366995
Si Si2 0.510613 0.030040 0.223952
Si Si3 0.225303 0.394041 0.218119
Si Si4 0.638502 0.135946 0.675196
Si Si5 0.500000 0.750000 0.000369
Si Si6 0.009575 0.952352 0.886941
O O1 0.126428 0.862971 0.374842
O O2 0.997595 0.040026 0.325400
O O3 0.008044 0.054217 0.404351
O O4 0.534110 0.876960 0.225682
O O5 0.637447 0.099738 0.238912
O O6 0.392149 0.082379 0.250578
O O7 0.222238 0.516678 0.188351
O O8 0.221066 0.280699 0.184774
O O9 0.598954 0.190835 0.719085
O O10 0.544214 0.071796 0.641786
O O11 0.893620 0.877499 0.865551
#
# Coordination Sequence:
#
# PCOD9546551 Si02
#       6
#    16  16  16  16   8  16
#     4  11  23  40  67 103 141 184 236 302 363 442
#     4  11  24  43  68 106 149 190 236 308 379 456
#     4  10  23  45  69 103 145 190 245 299 383 442
#     4  10  22  39  71  97 131 189 244 299 353 451
#     4  10  24  38  67  98 138 186 234 298 381 434
#     4   9  20  44  74  95 132 184 249 302 360 431
#
# _framework density 24.200789
#
# number of rings (size 3 to 8) (size 9 to 14) (size 15 to 20)
#    0.000    1.818    1.818    1.091    5.091    1.455 
#   16.364    0.909    8.000    0.000    0.000    0.000 
#    0.000    0.000    0.000    0.000    0.000    0.000 
#
# Total GULP energy -245320.034223 kJ/mol
# GULP energy per Si atom -5575.455323 kJ/mol
# Density = 2.414571 g / cm^3
# Si number density = 24.200789 Si / 1000 Ang^3
#
#
#
# Elastic Constant Matrix: (Units=GPa)
#
#
# Indices 1 2 3 4 5 6 
#
# 1 59.9192 15.3551 9.9533 0.0000 0.0000 10.6509
# 2 15.3551 59.9192 9.9533 0.0000 0.0000 -10.6509
# 3 9.9533 9.9533 55.6705 0.0000 0.0000 0.0000
# 4 0.0000 0.0000 0.0000 20.0072 0.0000 0.0000
# 5 0.0000 0.0000 0.0000 0.0000 20.0072 0.0000
# 6 10.6509 -10.6509 0.0000 0.0000 0.0000 -2.7535
#
#
#
# Elastic Compliance Matrix: (Units=1/GPa)
#
#
# Indices 1 2 3 4 5 6 
#
# 1 0.010910 0.003034 -0.002493 0.000000 0.000000 0.030467
# 2 0.003034 0.010910 -0.002493 0.000000 0.000000 -0.030467
# 3 -0.002493 -0.002493 0.018854 0.000000 0.000000 0.000000
# 4 0.000000 0.000000 0.000000 0.049982 0.000000 0.000000
# 5 0.000000 0.000000 0.000000 0.000000 0.049982 0.000000
# 6 0.030467 -0.030467 0.000000 0.000000 0.000000 -0.127475
#
#
# Mechanical properties :
#
#
# Convention : Reuss Voigt Hill
#
# Bulk Modulus (GPa) = 27.19592 27.33690 27.26641
# Shear Modulus (GPa) = 170.50644 16.80202 93.65423
#
# Velocity S-wave (km/s) = 8.40285 2.63777 6.22759
# Velocity P-wave (km/s) = 10.26673 4.53845 7.93736
#
# Compressibility (1/GPa) = 0.03677022
#
# Stress axis : x y z
#
# Youngs Moduli (GPa) = 91.65725 91.65725 53.03835
#
# Poissons Ratio (x) = -0.27807 0.13223
# Poissons Ratio (y) = -0.27807 0.13223
# Poissons Ratio (z) = 0.22850 0.22850
#
# Static dielectric constant tensor:
#      x y z
#    x 1.961210 0.000000 0.000000 
#    y 0.000000 1.961210 0.000000 
#    z 0.000000 0.000000 1.921570 
# 
# From -- ./inp_files/6450.got.cif
#   From: 2010.05.17/outbox.cif.g08.bks.cpg/sg88_4_cif.got.tgz:6450.got - 2010.06.03 19:11:41.
