data_PCOD9546231
_publ_section_title
;
Structure prediction by ZEFSAII (Michael W. Deem and Ramdas Pophale) SiO2 
 PCOD9546231
Probable space group: I 41/A
;
_chemical_formula_sum "Si O2"
_cell_formula_units_Z 104
_cell_length_a 23.650792
_cell_length_b 23.650792
_cell_length_c 9.450297
_cell_angle_alpha 90.000000
_cell_angle_beta 90.000000
_cell_angle_gamma 90.000000
_cell_volume 5286.117773
_symmetry_space_group_name_H-M "I 41/A"
_symmetry_group_IT_number 88
_space_group.IT_coordinate_system_code '2'
_symmetry_cell_setting 'tetragonal'
loop_
_space_group_symop_operation_xyz
x,y,z
3/4-y,1/4+x,1/4+z
-x,1/2-y,z
1/4+y,1/4-x,1/4+z
-x,-y,-z
1/4+y,3/4-x,3/4-z
x,1/2+y,-z
3/4-y,3/4+x,3/4-z
1/2+x,1/2+y,1/2+z
1/4-y,3/4+x,3/4+z
1/2-x,-y,1/2+z
3/4+y,3/4-x,3/4+z
1/2-x,1/2-y,1/2-z
3/4+y,1/4-x,1/4-z
1/2+x,y,1/2-z
1/4-y,1/4+x,1/4-z
loop_
_atom_site_type_symbol
_atom_site_label
_atom_site_fract_x
_atom_site_fract_y
_atom_site_fract_z
Si Si1 0.587689 0.638403 0.860115
Si Si2 0.433419 0.791469 0.373835
Si Si3 0.500000 0.750000 0.625000
Si Si4 0.040238 0.057101 0.135214
Si Si5 0.445582 0.942233 0.073723
Si Si6 0.549840 0.437743 0.144540
Si Si7 0.500000 0.750000 0.125000
Si Si8 0.679077 0.234117 0.102163
O O1 0.525121 0.665571 0.872147
O O2 0.582592 0.596841 0.723806
O O3 0.632207 0.688405 0.859538
O O4 0.597059 0.601425 0.002158
O O5 0.468558 0.794358 0.520278
O O6 0.374199 0.824329 0.364188
O O7 0.469875 0.793994 0.231147
O O8 0.976698 0.065946 0.199341
O O9 0.047579 0.989834 0.153985
O O10 0.032777 0.069737 0.971224
O O11 0.482566 0.921846 0.205845
O O12 0.419504 0.003308 0.113919
O O13 0.492827 0.946324 0.949322
#
# Coordination Sequence:
#
# PCOD9546231 Si02
#       8
#    16  16   4  16  16  16   4  16
#     4  10  21  32  51  77 105 136 176 211 270 303
#     4   9  20  30  45  63 102 146 168 206 242 298
#     4  10  20  34  40  62 112 142 172 198 252 306
#     4   8  18  35  51  81  99 135 181 221 264 305
#     4   8  16  32  50  74  97 127 171 217 250 308
#     4   8  15  32  51  65  97 131 168 218 254 282
#     4  10  20  34  36  66 112 138 184 190 232 310
#     4  10  18  33  59  73 108 138 177 224 254 313
#
# _framework density 19.674175000000002
#
# number of rings (size 3 to 8) (size 9 to 14) (size 15 to 20)
#    0.000    3.385    0.000    0.923    8.615    0.000 
#    0.000    3.077    0.000    0.000    0.000    6.462 
#    0.000    0.000    0.000    0.000    0.000    0.000 
#
# Total GULP energy -289580.323824 kJ/mol
# GULP energy per Si atom -5568.852381 kJ/mol
# Density = 1.962940 g / cm^3
# Si number density = 19.674175 Si / 1000 Ang^3
#
#
#
# Elastic Constant Matrix: (Units=GPa)
#
#
# Indices 1 2 3 4 5 6 
#
# 1 78.6825 32.8356 19.3597 0.0000 0.0000 4.8369
# 2 32.8356 78.6825 19.3597 0.0000 0.0000 -4.8369
# 3 19.3597 19.3597 86.4712 0.0000 0.0000 0.0000
# 4 0.0000 0.0000 0.0000 11.1403 0.0000 0.0000
# 5 0.0000 0.0000 0.0000 0.0000 11.1403 0.0000
# 6 4.8369 -4.8369 0.0000 0.0000 0.0000 11.4447
#
#
#
# Elastic Compliance Matrix: (Units=1/GPa)
#
#
# Indices 1 2 3 4 5 6 
#
# 1 0.016835 -0.007112 -0.002177 0.000000 0.000000 -0.010121
# 2 -0.007112 0.016835 -0.002177 0.000000 0.000000 0.010121
# 3 -0.002177 -0.002177 0.012539 0.000000 0.000000 0.000000
# 4 0.000000 0.000000 0.000000 0.089764 0.000000 0.000000
# 5 0.000000 0.000000 0.000000 0.000000 0.089764 0.000000
# 6 -0.010121 0.010121 0.000000 0.000000 0.000000 0.095931
#
#
# Mechanical properties :
#
#
# Convention : Reuss Voigt Hill
#
# Bulk Modulus (GPa) = 42.95930 42.99402 42.97666
# Shear Modulus (GPa) = 14.19004 18.23048 16.21026
#
# Velocity S-wave (km/s) = 2.68853 3.04735 2.87354
# Velocity P-wave (km/s) = 5.61430 5.85510 5.73596
#
# Compressibility (1/GPa) = 0.02327785
#
# Stress axis : x y z
#
# Youngs Moduli (GPa) = 59.39978 59.39978 79.74951
#
# Poissons Ratio (x) = 0.42246 0.17360
# Poissons Ratio (y) = 0.42246 0.17360
# Poissons Ratio (z) = 0.12930 0.12930
#
# Static dielectric constant tensor:
#      x y z
#    x 1.776710 0.000000 0.000000 
#    y 0.000000 1.776710 0.000000 
#    z 0.000000 0.000000 1.768430 
# 
# From -- ./inp_files/1830.got.cif
#   From: 2010.05.17/outbox.cif.g08.bks.cpg/sg88_1_cif.got.tgz:1830.got - 2010.06.03 19:11:41.
