data_PCOD9546479
_publ_section_title
;
Structure prediction by ZEFSAII (Michael W. Deem and Ramdas Pophale) SiO2 
 PCOD9546479
Probable space group: I 41/A
;
_chemical_formula_sum "Si O2"
_cell_formula_units_Z 84
_cell_length_a 22.208016
_cell_length_b 22.208016
_cell_length_c 8.931466
_cell_angle_alpha 90.000000
_cell_angle_beta 90.000000
_cell_angle_gamma 90.000000
_cell_volume 4404.963079
_symmetry_space_group_name_H-M "I 41/A"
_symmetry_group_IT_number 88
_space_group.IT_coordinate_system_code '2'
_symmetry_cell_setting 'tetragonal'
loop_
_space_group_symop_operation_xyz
x,y,z
3/4-y,1/4+x,1/4+z
-x,1/2-y,z
1/4+y,1/4-x,1/4+z
-x,-y,-z
1/4+y,3/4-x,3/4-z
x,1/2+y,-z
3/4-y,3/4+x,3/4-z
1/2+x,1/2+y,1/2+z
1/4-y,3/4+x,3/4+z
1/2-x,-y,1/2+z
3/4+y,3/4-x,3/4+z
1/2-x,1/2-y,1/2-z
3/4+y,1/4-x,1/4-z
1/2+x,y,1/2-z
1/4-y,1/4+x,1/4-z
loop_
_atom_site_type_symbol
_atom_site_label
_atom_site_fract_x
_atom_site_fract_y
_atom_site_fract_z
Si Si1 0.273329 0.287983 0.394575
Si Si2 0.785143 0.173939 0.918351
Si Si3 0.895317 0.837273 0.761232
Si Si4 0.431017 0.100754 0.821362
Si Si5 0.571873 0.579681 0.162871
Si Si6 0.000000 0.750000 0.875000
O O1 0.250000 0.250000 0.250000
O O2 0.284005 0.244324 0.536814
O O3 0.336467 0.317255 0.352461
O O4 0.217762 0.328147 0.452357
O O5 0.716685 0.154776 0.947673
O O6 0.799989 0.160879 0.746003
O O7 0.840377 0.150738 0.018581
O O8 0.882512 0.822731 0.588482
O O9 0.955438 0.799837 0.800246
O O10 0.501511 0.096679 0.857276
O O11 0.389617 0.138738 0.933134
#
# Coordination Sequence:
#
# PCOD9546479 Si02
#       6
#    16  16  16  16  16   4
#     4  11  19  39  61  88 118 163 205 246 317 377
#     4  10  21  40  59  84 124 167 203 252 313 382
#     4  11  22  37  62  89 129 159 205 271 315 371
#     4  10  21  40  59  88 121 162 207 255 318 371
#     4  10  22  38  63  88 120 165 207 254 310 385
#     4  12  24  36  56 110 124 152 212 274 324 368
#
# _framework density 19.069399000000001
#
# number of rings (size 3 to 8) (size 9 to 14) (size 15 to 20)
#    0.000    1.524    5.714    2.286    0.000    3.429 
#   10.286    0.000   16.762    0.000    0.000    0.000 
#    0.000    0.000    0.000    0.000    0.000    0.000 
#
# Total GULP energy -233950.666911 kJ/mol
# GULP energy per Si atom -5570.253974 kJ/mol
# Density = 1.902600 g / cm^3
# Si number density = 19.069399 Si / 1000 Ang^3
#
#
#
# Elastic Constant Matrix: (Units=GPa)
#
#
# Indices 1 2 3 4 5 6 
#
# 1 104.6127 60.5220 17.8683 0.0000 0.0000 -0.9522
# 2 60.5220 104.6127 17.8683 0.0000 0.0000 0.9522
# 3 17.8683 17.8683 34.9472 0.0000 0.0000 0.0000
# 4 0.0000 0.0000 0.0000 26.6056 0.0000 0.0000
# 5 0.0000 0.0000 0.0000 0.0000 26.6056 0.0000
# 6 -0.9522 0.9522 0.0000 0.0000 0.0000 29.6253
#
#
#
# Elastic Compliance Matrix: (Units=1/GPa)
#
#
# Indices 1 2 3 4 5 6 
#
# 1 0.014761 -0.007951 -0.003481 0.000000 0.000000 0.000730
# 2 -0.007951 0.014761 -0.003481 0.000000 0.000000 -0.000730
# 3 -0.003481 -0.003481 0.032175 0.000000 0.000000 0.000000
# 4 0.000000 0.000000 0.000000 0.037586 0.000000 0.000000
# 5 0.000000 0.000000 0.000000 0.000000 0.037586 0.000000
# 6 0.000730 -0.000730 0.000000 0.000000 0.000000 0.033802
#
#
# Mechanical properties :
#
#
# Convention : Reuss Voigt Hill
#
# Bulk Modulus (GPa) = 31.38038 48.52110 39.95074
# Shear Modulus (GPa) = 23.68312 26.42824 25.05568
#
# Velocity S-wave (km/s) = 3.52795 3.72680 3.62874
# Velocity P-wave (km/s) = 5.75211 6.63464 6.20908
#
# Compressibility (1/GPa) = 0.03186704
#
# Stress axis : x y z
#
# Youngs Moduli (GPa) = 67.74806 67.74806 31.08037
#
# Poissons Ratio (x) = 0.53870 0.10820
# Poissons Ratio (y) = 0.53870 0.10820
# Poissons Ratio (z) = 0.23586 0.23586
#
# Static dielectric constant tensor:
#      x y z
#    x 1.713500 0.000000 0.000000 
#    y 0.000000 1.713500 0.000000 
#    z 0.000000 0.000000 1.681880 
# 
# From -- ./inp_files/1665.got.cif
#   From: 2010.05.17/outbox.cif.g08.bks.cpg/sg88_1_cif.got.tgz:1665.got - 2010.06.03 19:11:41.
