data_PCOD9546004
_publ_section_title
;
Structure prediction by ZEFSAII (Michael W. Deem and Ramdas Pophale) SiO2 
 PCOD9546004
Probable space group: I 4/M
;
_chemical_formula_sum "Si O2"
_cell_formula_units_Z 64
_cell_length_a 11.971853
_cell_length_b 11.971853
_cell_length_c 22.896676
_cell_angle_alpha 90.000000
_cell_angle_beta 90.000000
_cell_angle_gamma 90.000000
_cell_volume 3281.672138
_symmetry_space_group_name_H-M "I 4/M"
_symmetry_group_IT_number 87
_symmetry_cell_setting 'tetragonal'
loop_
_space_group_symop_operation_xyz
x,y,z
-y,x,z
-x,-y,z
y,-x,z
-x,-y,-z
y,-x,-z
x,y,-z
-y,x,-z
1/2+x,1/2+y,1/2+z
1/2-y,1/2+x,1/2+z
1/2-x,1/2-y,1/2+z
1/2+y,1/2-x,1/2+z
1/2-x,1/2-y,1/2-z
1/2+y,1/2-x,1/2-z
1/2+x,1/2+y,1/2-z
1/2-y,1/2+x,1/2-z
loop_
_atom_site_type_symbol
_atom_site_label
_atom_site_fract_x
_atom_site_fract_y
_atom_site_fract_z
Si Si1 0.810695 0.378979 0.567076
Si Si2 0.367687 0.002856 0.336113
Si Si3 0.763666 0.609868 0.380928
Si Si4 0.033361 0.818532 0.756511
O O1 0.832294 0.349802 0.500000
O O2 0.912644 0.351981 0.610182
O O3 0.702003 0.315493 0.591181
O O4 0.791455 0.511694 0.573825
O O5 0.291753 0.042935 0.282596
O O6 0.500000 0.000000 0.321860
O O7 0.337265 0.878704 0.357281
O O8 0.710401 0.549075 0.324468
O O9 0.913130 0.874168 0.744232
#
# Coordination Sequence:
#
# PCOD9546004 Si02
#       4
#    16  16  16  16
#     4  11  24  42  63  90 125 166 209 255 304 363
#     4  10  25  39  62  93 125 165 204 252 309 366
#     4  11  23  40  63  93 122 164 207 254 306 367
#     4  11  23  41  64  91 129 160 203 255 308 365
#
# _framework density 19.502254000000001
#
# number of rings (size 3 to 8) (size 9 to 14) (size 15 to 20)
#    0.000    1.250    2.500    2.250    7.000    8.000 
#    0.000    1.250    0.000    0.000    0.000    5.250 
#    0.000    0.000    0.000    0.000    0.000    0.000 
#
# Total GULP energy -178960.008974 kJ/mol
# GULP energy per Si atom -5592.500280 kJ/mol
# Density = 1.945787 g / cm^3
# Si number density = 19.502254 Si / 1000 Ang^3
#
#
#
# Elastic Constant Matrix: (Units=GPa)
#
#
# Indices 1 2 3 4 5 6 
#
# 1 57.0834 11.1290 30.4554 0.0000 0.0000 -4.9127
# 2 11.1290 57.0834 30.4554 0.0000 0.0000 4.9127
# 3 30.4554 30.4554 123.4648 0.0000 0.0000 0.0000
# 4 0.0000 0.0000 0.0000 17.3729 0.0000 0.0000
# 5 0.0000 0.0000 0.0000 0.0000 17.3729 0.0000
# 6 -4.9127 4.9127 0.0000 0.0000 0.0000 14.4308
#
#
#
# Elastic Compliance Matrix: (Units=1/GPa)
#
#
# Indices 1 2 3 4 5 6 
#
# 1 0.021135 -0.002334 -0.004638 0.000000 0.000000 0.007989
# 2 -0.002334 0.021135 -0.004638 0.000000 0.000000 -0.007989
# 3 -0.004638 -0.004638 0.010388 0.000000 0.000000 0.000000
# 4 0.000000 0.000000 0.000000 0.057561 0.000000 0.000000
# 5 0.000000 0.000000 0.000000 0.000000 0.057561 0.000000
# 6 0.007989 -0.007989 0.000000 0.000000 0.000000 0.074736
#
#
# Mechanical properties :
#
#
# Convention : Reuss Voigt Hill
#
# Bulk Modulus (GPa) = 33.96830 42.41235 38.19032
# Shear Modulus (GPa) = 18.14571 20.87478 19.51025
#
# Velocity S-wave (km/s) = 3.05362 3.27521 3.16636
# Velocity P-wave (km/s) = 5.46702 6.00810 5.74393
#
# Compressibility (1/GPa) = 0.02943921
#
# Stress axis : x y z
#
# Youngs Moduli (GPa) = 47.31451 47.31451 96.26947
#
# Poissons Ratio (x) = 0.11042 0.44648
# Poissons Ratio (y) = 0.11042 0.44648
# Poissons Ratio (z) = 0.21944 0.21944
#
# Static dielectric constant tensor:
#      x y z
#    x 1.680000 0.000000 0.000000 
#    y 0.000000 1.680000 0.000000 
#    z 0.000000 0.000000 1.662050 
# 
# From -- ./inp_files/4965.got.cif
#   From: 2010.05.17/outbox.cif.g08.bks.cpg/sg87_3_cif.got.tgz:4965.got - 2010.06.03 19:07:00.
