data_PCOD9546278
_publ_section_title
;
Structure prediction by ZEFSAII (Michael W. Deem and Ramdas Pophale) SiO2 
 PCOD9546278
Probable space group: I 41/A
;
_chemical_formula_sum "Si O2"
_cell_formula_units_Z 76
_cell_length_a 11.002220
_cell_length_b 11.002220
_cell_length_c 31.165668
_cell_angle_alpha 90.000000
_cell_angle_beta 90.000000
_cell_angle_gamma 90.000000
_cell_volume 3772.568113
_symmetry_space_group_name_H-M "I 41/A"
_symmetry_group_IT_number 88
_space_group.IT_coordinate_system_code '2'
_symmetry_cell_setting 'tetragonal'
loop_
_space_group_symop_operation_xyz
x,y,z
3/4-y,1/4+x,1/4+z
-x,1/2-y,z
1/4+y,1/4-x,1/4+z
-x,-y,-z
1/4+y,3/4-x,3/4-z
x,1/2+y,-z
3/4-y,3/4+x,3/4-z
1/2+x,1/2+y,1/2+z
1/4-y,3/4+x,3/4+z
1/2-x,-y,1/2+z
3/4+y,3/4-x,3/4+z
1/2-x,1/2-y,1/2-z
3/4+y,1/4-x,1/4-z
1/2+x,y,1/2-z
1/4-y,1/4+x,1/4-z
loop_
_atom_site_type_symbol
_atom_site_label
_atom_site_fract_x
_atom_site_fract_y
_atom_site_fract_z
Si Si1 0.794083 0.410497 0.584487
Si Si2 0.500000 0.750000 0.625000
Si Si3 0.000000 0.750000 0.583164
Si Si4 0.754002 0.315170 0.076344
Si Si5 0.145439 0.282649 0.517000
Si Si6 0.740251 0.684152 0.177374
O O1 0.737137 0.539408 0.572705
O O2 0.781323 0.302709 0.550329
O O3 0.751252 0.383280 0.632325
O O4 0.940223 0.424886 0.584771
O O5 0.488624 0.626931 0.653743
O O6 0.868774 0.717741 0.604253
O O7 0.026990 0.624173 0.558789
O O8 0.713202 0.274935 0.028517
O O9 0.140174 0.418328 0.536979
O O10 0.000000 0.250000 0.516892
#
# Coordination Sequence:
#
# PCOD9546278 Si02
#       6
#    16   4   8  16  16  16
#     4  10  20  36  64  99 131 171 221 276 340 398
#     4  12  28  52  70  84 144 192 232 280 362 416
#     4  10  22  36  65  92 129 168 226 261 325 410
#     4  11  24  43  66  94 127 184 222 282 341 407
#     4  10  21  36  67 100 133 163 222 287 339 395
#     4  10  19  35  60  99 135 170 212 281 335 399
#
# _framework density 20.145427000000002
#
# number of rings (size 3 to 8) (size 9 to 14) (size 15 to 20)
#    0.000    1.684    3.158    1.263    2.947    2.526 
#    0.000    2.105    0.000    0.000    0.000    0.000 
#    0.000    0.000    0.000    0.000    0.000    0.000 
#
# Total GULP energy -211588.360985 kJ/mol
# GULP energy per Si atom -5568.114763 kJ/mol
# Density = 2.009958 g / cm^3
# Si number density = 20.145427 Si / 1000 Ang^3
#
#
#
# Elastic Constant Matrix: (Units=GPa)
#
#
# Indices 1 2 3 4 5 6 
#
# 1 104.5488 41.1962 38.4365 0.0000 0.0000 -4.2490
# 2 41.1962 104.5488 38.4365 0.0000 0.0000 4.2490
# 3 38.4365 38.4365 101.9279 0.0000 0.0000 0.0000
# 4 0.0000 0.0000 0.0000 8.9074 0.0000 0.0000
# 5 0.0000 0.0000 0.0000 0.0000 8.9074 0.0000
# 6 -4.2490 4.2490 0.0000 0.0000 0.0000 21.7541
#
#
#
# Elastic Compliance Matrix: (Units=1/GPa)
#
#
# Indices 1 2 3 4 5 6 
#
# 1 0.012387 -0.003822 -0.003230 0.000000 0.000000 0.003166
# 2 -0.003822 0.012387 -0.003230 0.000000 0.000000 -0.003166
# 3 -0.003230 -0.003230 0.012247 0.000000 0.000000 0.000000
# 4 0.000000 0.000000 0.000000 0.112266 0.000000 0.000000
# 5 0.000000 0.000000 0.000000 0.000000 0.112266 0.000000
# 6 0.003166 -0.003166 0.000000 0.000000 0.000000 0.047205
#
#
# Mechanical properties :
#
#
# Convention : Reuss Voigt Hill
#
# Bulk Modulus (GPa) = 60.76316 60.79601 60.77958
# Shear Modulus (GPa) = 14.93395 20.77755 17.85575
#
# Velocity S-wave (km/s) = 2.72565 3.21499 2.98038
# Velocity P-wave (km/s) = 6.33508 6.63518 6.48687
#
# Compressibility (1/GPa) = 0.01645734
#
# Stress axis : x y z
#
# Youngs Moduli (GPa) = 80.72923 80.72923 81.65467
#
# Poissons Ratio (x) = 0.30857 0.26372
# Poissons Ratio (y) = 0.30857 0.26372
# Poissons Ratio (z) = 0.26074 0.26074
#
# Static dielectric constant tensor:
#      x y z
#    x 1.757900 0.000000 0.000000 
#    y 0.000000 1.757900 0.000000 
#    z 0.000000 0.000000 1.809010 
# 
# From -- ./inp_files/6393.got.cif
#   From: 2010.05.17/outbox.cif.g08.bks.cpg/sg88_4_cif.got.tgz:6393.got - 2010.06.03 19:11:41.
