data_PCOD9546788
_publ_section_title
;
Structure prediction by ZEFSAII (Michael W. Deem and Ramdas Pophale) SiO2 
 PCOD9546788
Probable space group: I 41/A
;
_chemical_formula_sum "Si O2"
_cell_formula_units_Z 64
_cell_length_a 22.321887
_cell_length_b 22.321887
_cell_length_c 4.939041
_cell_angle_alpha 90.000000
_cell_angle_beta 90.000000
_cell_angle_gamma 90.000000
_cell_volume 2460.959360
_symmetry_space_group_name_H-M "I 41/A"
_symmetry_group_IT_number 88
_space_group.IT_coordinate_system_code '2'
_symmetry_cell_setting 'tetragonal'
loop_
_space_group_symop_operation_xyz
x,y,z
3/4-y,1/4+x,1/4+z
-x,1/2-y,z
1/4+y,1/4-x,1/4+z
-x,-y,-z
1/4+y,3/4-x,3/4-z
x,1/2+y,-z
3/4-y,3/4+x,3/4-z
1/2+x,1/2+y,1/2+z
1/4-y,3/4+x,3/4+z
1/2-x,-y,1/2+z
3/4+y,3/4-x,3/4+z
1/2-x,1/2-y,1/2-z
3/4+y,1/4-x,1/4-z
1/2+x,y,1/2-z
1/4-y,1/4+x,1/4-z
loop_
_atom_site_type_symbol
_atom_site_label
_atom_site_fract_x
_atom_site_fract_y
_atom_site_fract_z
Si Si1 0.666514 0.457552 0.081602
Si Si2 0.089579 0.954408 0.070515
Si Si3 0.962147 0.340610 0.659154
Si Si4 0.165092 0.290681 0.113651
O O1 0.682962 0.526004 0.168651
O O2 0.643467 0.435036 0.373466
O O3 0.611135 0.446196 0.878117
O O4 0.076937 0.025669 0.062983
O O5 0.027531 0.927496 0.962071
O O6 0.031421 0.321970 0.682080
O O7 0.955937 0.394548 0.445888
O O8 0.939225 0.360405 0.949590
#
# Coordination Sequence:
#
# PCOD9546788 Si02
#       4
#    16  16  16  16
#     4  12  25  43  65  94 129 167 215 268 324 390
#     4  11  25  42  65  94 127 168 213 265 324 384
#     4  11  24  41  64  94 128 167 212 262 319 382
#     4  11  24  43  64  94 130 165 214 267 317 387
#
# _framework density 26.006117
#
# number of rings (size 3 to 8) (size 9 to 14) (size 15 to 20)
#    0.000    0.750    0.000    7.500    0.000   18.000 
#    0.000    0.000    0.000    0.000    0.000    0.000 
#    0.000    0.000    0.000    0.000    0.000    0.000 
#
# Total GULP energy -179316.856015 kJ/mol
# GULP energy per Si atom -5603.651750 kJ/mol
# Density = 2.594693 g / cm^3
# Si number density = 26.006117 Si / 1000 Ang^3
#
#
#
# Elastic Constant Matrix: (Units=GPa)
#
#
# Indices 1 2 3 4 5 6 
#
# 1 87.6778 15.4289 11.1530 0.0000 0.0000 -0.1621
# 2 15.4289 87.6778 11.1530 0.0000 0.0000 0.1621
# 3 11.1530 11.1530 127.2309 0.0000 0.0000 0.0000
# 4 0.0000 0.0000 0.0000 35.5924 0.0000 0.0000
# 5 0.0000 0.0000 0.0000 0.0000 35.5924 0.0000
# 6 -0.1621 0.1621 0.0000 0.0000 0.0000 37.0902
#
#
#
# Elastic Compliance Matrix: (Units=1/GPa)
#
#
# Indices 1 2 3 4 5 6 
#
# 1 0.011864 -0.001978 -0.000867 0.000000 0.000000 0.000060
# 2 -0.001978 0.011864 -0.000867 0.000000 0.000000 -0.000060
# 3 -0.000867 -0.000867 0.008012 0.000000 0.000000 0.000000
# 4 0.000000 0.000000 0.000000 0.028096 0.000000 0.000000
# 5 0.000000 0.000000 0.000000 0.000000 0.028096 0.000000
# 6 0.000060 -0.000060 0.000000 0.000000 0.000000 0.026962
#
#
# Mechanical properties :
#
#
# Convention : Reuss Voigt Hill
#
# Bulk Modulus (GPa) = 41.12257 42.00625 41.56441
# Shear Modulus (GPa) = 38.33763 39.31179 38.82471
#
# Velocity S-wave (km/s) = 3.84367 3.89219 3.86801
# Velocity P-wave (km/s) = 5.96199 6.03212 5.99716
#
# Compressibility (1/GPa) = 0.02431754
#
# Stress axis : x y z
#
# Youngs Moduli (GPa) = 84.29041 84.29041 124.81808
#
# Poissons Ratio (x) = 0.16669 0.10817
# Poissons Ratio (y) = 0.16669 0.10817
# Poissons Ratio (z) = 0.07305 0.07305
#
# Static dielectric constant tensor:
#      x y z
#    x 2.070940 0.000000 0.000000 
#    y 0.000000 2.070940 0.000000 
#    z 0.000000 0.000000 1.908420 
# 
# From -- ./inp_files/612.got.cif
#   From: 2010.05.17/outbox.cif.g08.bks.cpg/sg88_1_cif.got.tgz:612.got - 2010.06.03 19:11:41.
