data_PCOD9546442
_publ_section_title
;
Structure prediction by ZEFSAII (Michael W. Deem and Ramdas Pophale) SiO2 
 PCOD9546442
Probable space group: I 41/A
;
_chemical_formula_sum "Si O2"
_cell_formula_units_Z 116
_cell_length_a 18.929691
_cell_length_b 18.929691
_cell_length_c 17.084479
_cell_angle_alpha 90.000000
_cell_angle_beta 90.000000
_cell_angle_gamma 90.000000
_cell_volume 6121.936054
_symmetry_space_group_name_H-M "I 41/A"
_symmetry_group_IT_number 88
_space_group.IT_coordinate_system_code '2'
_symmetry_cell_setting 'tetragonal'
loop_
_space_group_symop_operation_xyz
x,y,z
3/4-y,1/4+x,1/4+z
-x,1/2-y,z
1/4+y,1/4-x,1/4+z
-x,-y,-z
1/4+y,3/4-x,3/4-z
x,1/2+y,-z
3/4-y,3/4+x,3/4-z
1/2+x,1/2+y,1/2+z
1/4-y,3/4+x,3/4+z
1/2-x,-y,1/2+z
3/4+y,3/4-x,3/4+z
1/2-x,1/2-y,1/2-z
3/4+y,1/4-x,1/4-z
1/2+x,y,1/2-z
1/4-y,1/4+x,1/4-z
loop_
_atom_site_type_symbol
_atom_site_label
_atom_site_fract_x
_atom_site_fract_y
_atom_site_fract_z
Si Si1 0.582291 0.728767 0.924693
Si Si2 0.343300 0.494132 0.999847
Si Si3 0.869728 0.758986 0.749446
Si Si4 0.224675 0.506344 0.882043
Si Si5 0.500000 0.750000 0.625000
Si Si6 0.951562 0.390994 0.543350
Si Si7 0.884497 0.147928 0.531503
Si Si8 0.614077 0.010842 0.521110
O O1 0.500000 0.750000 0.924010
O O2 0.602242 0.714400 0.835067
O O3 0.587525 0.665401 0.986956
O O4 0.624005 0.794394 0.963215
O O5 0.304148 0.455578 0.070582
O O6 0.340881 0.577562 0.015061
O O7 0.293845 0.479084 0.926522
O O8 0.421030 0.465746 0.984126
O O9 0.806731 0.812008 0.773831
O O10 0.831078 0.684187 0.730638
O O11 0.931318 0.753676 0.816015
O O12 0.247870 0.578278 0.838919
O O13 0.161282 0.514732 0.942666
O O14 0.931618 0.380776 0.634060
O O15 0.033918 0.376570 0.533560
#
# Coordination Sequence:
#
# PCOD9546442 Si02
#       8
#    16  16  16  16   4  16  16  16
#     4  10  21  37  61  85 116 153 190 233 297 356
#     4  11  21  37  57  85 119 152 190 242 287 343
#     4  11  22  41  62  90 121 156 204 264 303 368
#     4  10  21  38  60  83 117 158 200 235 300 358
#     4  12  24  40  68  92 126 160 212 256 332 368
#     4  11  21  36  59  87 118 153 192 235 289 353
#     4  11  21  36  59  87 118 153 192 235 289 353
#     4  10  22  39  63  86 118 160 204 252 306 356
#
# _framework density 18.948253999999999
#
# number of rings (size 3 to 8) (size 9 to 14) (size 15 to 20)
#    0.000    1.379    3.448    2.897    0.000    0.000 
#    0.000    0.000    0.000    0.000    0.000    0.000 
#    0.000    0.000    0.000    0.000    0.000    0.000 
#
# Total GULP energy -323427.656895 kJ/mol
# GULP energy per Si atom -5576.338912 kJ/mol
# Density = 1.890513 g / cm^3
# Si number density = 18.948254 Si / 1000 Ang^3
#
#
#
# Elastic Constant Matrix: (Units=GPa)
#
#
# Indices 1 2 3 4 5 6 
#
# 1 47.3693 -7.3643 17.1964 0.0000 0.0000 -5.2319
# 2 -7.3643 47.3693 17.1964 0.0000 0.0000 5.2319
# 3 17.1964 17.1964 110.4524 0.0000 0.0000 0.0000
# 4 0.0000 0.0000 0.0000 11.8243 0.0000 0.0000
# 5 0.0000 0.0000 0.0000 0.0000 11.8243 0.0000
# 6 -5.2319 5.2319 0.0000 0.0000 0.0000 26.7398
#
#
#
# Elastic Compliance Matrix: (Units=1/GPa)
#
#
# Indices 1 2 3 4 5 6 
#
# 1 0.023920 0.004940 -0.004493 0.000000 0.000000 0.003714
# 2 0.004940 0.023920 -0.004493 0.000000 0.000000 -0.003714
# 3 -0.004493 -0.004493 0.010453 0.000000 0.000000 0.000000
# 4 0.000000 0.000000 0.000000 0.084572 0.000000 0.000000
# 5 0.000000 0.000000 0.000000 0.000000 0.084572 0.000000
# 6 0.003714 -0.003714 0.000000 0.000000 0.000000 0.038851
#
#
# Mechanical properties :
#
#
# Convention : Reuss Voigt Hill
#
# Bulk Modulus (GPa) = 19.92052 28.80534 24.36293
# Shear Modulus (GPa) = 17.17542 21.95516 19.56529
#
# Velocity S-wave (km/s) = 3.01398 3.40765 3.21684
# Velocity P-wave (km/s) = 4.75899 5.54237 5.16555
#
# Compressibility (1/GPa) = 0.05019950
#
# Stress axis : x y z
#
# Youngs Moduli (GPa) = 41.80597 41.80597 95.66845
#
# Poissons Ratio (x) = -0.20651 0.42986
# Poissons Ratio (y) = -0.20651 0.42986
# Poissons Ratio (z) = 0.18784 0.18784
#
# Static dielectric constant tensor:
#      x y z
#    x 1.649130 0.000000 0.000000 
#    y 0.000000 1.649130 0.000000 
#    z 0.000000 0.000000 1.650840 
# 
# From -- ./inp_files/4025.got.cif
#   From: 2010.05.17/outbox.cif.g08.bks.cpg/sg88_3_cif.got.tgz:4025.got - 2010.06.03 19:11:41.
