data_PCOD9546770
_publ_section_title
;
Structure prediction by ZEFSAII (Michael W. Deem and Ramdas Pophale) SiO2 
 PCOD9546770
Probable space group: I 41/A
;
_chemical_formula_sum "Si O2"
_cell_formula_units_Z 100
_cell_length_a 14.274733
_cell_length_b 14.274733
_cell_length_c 22.670191
_cell_angle_alpha 90.000000
_cell_angle_beta 90.000000
_cell_angle_gamma 90.000000
_cell_volume 4619.459530
_symmetry_space_group_name_H-M "I 41/A"
_symmetry_group_IT_number 88
_space_group.IT_coordinate_system_code '2'
_symmetry_cell_setting 'tetragonal'
loop_
_space_group_symop_operation_xyz
x,y,z
3/4-y,1/4+x,1/4+z
-x,1/2-y,z
1/4+y,1/4-x,1/4+z
-x,-y,-z
1/4+y,3/4-x,3/4-z
x,1/2+y,-z
3/4-y,3/4+x,3/4-z
1/2+x,1/2+y,1/2+z
1/4-y,3/4+x,3/4+z
1/2-x,-y,1/2+z
3/4+y,3/4-x,3/4+z
1/2-x,1/2-y,1/2-z
3/4+y,1/4-x,1/4-z
1/2+x,y,1/2-z
1/4-y,1/4+x,1/4-z
loop_
_atom_site_type_symbol
_atom_site_label
_atom_site_fract_x
_atom_site_fract_y
_atom_site_fract_z
Si Si1 0.334480 0.890992 0.348666
Si Si2 0.206721 0.700815 0.032745
Si Si3 0.807263 0.493931 0.036455
Si Si4 0.262486 0.745725 0.648970
Si Si5 0.581621 0.815294 0.011695
Si Si6 0.500000 0.250000 0.875000
Si Si7 0.895138 0.891588 0.789402
O O1 0.298387 0.822812 0.398763
O O2 0.351341 0.845129 0.284644
O O3 0.266671 0.978914 0.336230
O O4 0.431444 0.935803 0.374310
O O5 0.185777 0.606782 0.995263
O O6 0.314008 0.727983 0.016922
O O7 0.133741 0.778642 0.012034
O O8 0.906803 0.522053 0.064111
O O9 0.785988 0.568666 0.986002
O O10 0.317881 0.702177 0.594144
O O11 0.336368 0.803321 0.688471
O O12 0.500000 0.750000 0.985321
O O13 0.545330 0.824743 0.079361
#
# Coordination Sequence:
#
# PCOD9546770 Si02
#       7
#    16  16  16  16  16   4  16
#     4  11  23  43  69 100 138 172 234 291 338 404
#     4  11  23  43  66 102 134 176 230 284 341 418
#     4  11  23  43  65  97 139 185 225 286 343 415
#     4  12  22  43  63  98 143 179 230 283 338 433
#     4   9  21  44  71  93 132 173 220 286 341 411
#     4   8  20  44  72  88 128 168 224 282 332 420
#     4  12  24  41  69  97 137 190 224 279 361 412
#
# _framework density 21.647552999999998
#
# number of rings (size 3 to 8) (size 9 to 14) (size 15 to 20)
#    0.480    0.640    6.400    0.480    0.000    4.800 
#    0.000    0.800    0.000    0.000    0.000    0.000 
#    0.000    0.000    0.000    0.000    0.000    0.000 
#
# Total GULP energy -278909.870629 kJ/mol
# GULP energy per Si atom -5578.197413 kJ/mol
# Density = 2.159828 g / cm^3
# Si number density = 21.647553 Si / 1000 Ang^3
#
#
#
# Elastic Constant Matrix: (Units=GPa)
#
#
# Indices 1 2 3 4 5 6 
#
# 1 58.0815 20.2931 41.7954 0.0000 0.0000 0.1197
# 2 20.2931 58.0815 41.7954 0.0000 0.0000 -0.1197
# 3 41.7954 41.7954 132.6303 0.0000 0.0000 0.0000
# 4 0.0000 0.0000 0.0000 31.3154 0.0000 0.0000
# 5 0.0000 0.0000 0.0000 0.0000 31.3154 0.0000
# 6 0.1197 -0.1197 0.0000 0.0000 0.0000 4.7562
#
#
#
# Elastic Compliance Matrix: (Units=1/GPa)
#
#
# Indices 1 2 3 4 5 6 
#
# 1 0.022843 -0.003624 -0.006056 0.000000 0.000000 -0.000666
# 2 -0.003624 0.022843 -0.006056 0.000000 0.000000 0.000666
# 3 -0.006056 -0.006056 0.011357 0.000000 0.000000 0.000000
# 4 0.000000 0.000000 0.000000 0.031933 0.000000 0.000000
# 5 0.000000 0.000000 0.000000 0.000000 0.031933 0.000000
# 6 -0.000666 0.000666 0.000000 0.000000 0.000000 0.210287
#
#
# Mechanical properties :
#
#
# Convention : Reuss Voigt Hill
#
# Bulk Modulus (GPa) = 39.11020 50.72899 44.91960
# Shear Modulus (GPa) = 13.47008 23.13803 18.30405
#
# Velocity S-wave (km/s) = 2.49719 3.27288 2.91099
# Velocity P-wave (km/s) = 5.14010 6.14550 5.66515
#
# Compressibility (1/GPa) = 0.02556878
#
# Stress axis : x y z
#
# Youngs Moduli (GPa) = 43.77717 43.77717 88.05332
#
# Poissons Ratio (x) = 0.15866 0.53328
# Poissons Ratio (y) = 0.15866 0.53328
# Poissons Ratio (z) = 0.26513 0.26513
#
# Static dielectric constant tensor:
#      x y z
#    x 1.808600 0.000000 0.000000 
#    y 0.000000 1.808600 0.000000 
#    z 0.000000 0.000000 1.827490 
# 
# From -- ./inp_files/5272.got.cif
#   From: 2010.05.17/outbox.cif.g08.bks.cpg/sg88_3_cif.got.tgz:5272.got - 2010.06.03 19:11:41.
