data_PCOD9546361
_publ_section_title
;
Structure prediction by ZEFSAII (Michael W. Deem and Ramdas Pophale) SiO2 
 PCOD9546361
Probable space group: I 41/A
;
_chemical_formula_sum "Si O2"
_cell_formula_units_Z 112
_cell_length_a 14.768807
_cell_length_b 14.768807
_cell_length_c 21.944198
_cell_angle_alpha 90.000000
_cell_angle_beta 90.000000
_cell_angle_gamma 90.000000
_cell_volume 4786.417123
_symmetry_space_group_name_H-M "I 41/A"
_symmetry_group_IT_number 88
_space_group.IT_coordinate_system_code '2'
_symmetry_cell_setting 'tetragonal'
loop_
_space_group_symop_operation_xyz
x,y,z
3/4-y,1/4+x,1/4+z
-x,1/2-y,z
1/4+y,1/4-x,1/4+z
-x,-y,-z
1/4+y,3/4-x,3/4-z
x,1/2+y,-z
3/4-y,3/4+x,3/4-z
1/2+x,1/2+y,1/2+z
1/4-y,3/4+x,3/4+z
1/2-x,-y,1/2+z
3/4+y,3/4-x,3/4+z
1/2-x,1/2-y,1/2-z
3/4+y,1/4-x,1/4-z
1/2+x,y,1/2-z
1/4-y,1/4+x,1/4-z
loop_
_atom_site_type_symbol
_atom_site_label
_atom_site_fract_x
_atom_site_fract_y
_atom_site_fract_z
Si Si1 0.740967 0.260388 0.652106
Si Si2 0.836819 0.362424 0.406033
Si Si3 0.144774 0.946364 0.509403
Si Si4 0.581902 0.801070 0.526345
Si Si5 0.304846 0.521724 0.560546
Si Si6 0.223320 0.753651 0.488215
Si Si7 0.977842 0.430665 0.945225
O O1 0.643839 0.311253 0.645813
O O2 0.789752 0.326620 0.701344
O O3 0.730595 0.162787 0.683346
O O4 0.782373 0.255785 0.584738
O O5 0.771139 0.447669 0.391686
O O6 0.821354 0.329867 0.475200
O O7 0.798927 0.282173 0.365418
O O8 0.171416 0.841832 0.511163
O O9 0.240637 0.995780 0.496329
O O10 0.500000 0.750000 0.560614
O O11 0.629988 0.890003 0.555788
O O12 0.669993 0.743992 0.506972
O O13 0.524242 0.840789 0.469946
O O14 0.372348 0.438701 0.569294
O O15 0.000000 0.500000 0.000000
#
# Coordination Sequence:
#
# PCOD9546361 Si02
#       7
#    16  16  16  16  16  16  16
#     4  10  23  46  69  98 143 183 234 305 358 433
#     4  10  22  44  66 100 140 182 238 287 361 434
#     4  10  23  42  67  99 130 180 235 288 361 428
#     4  10  20  37  64  90 130 172 222 274 343 414
#     4   9  21  41  62  94 130 178 225 284 339 422
#     4  11  23  41  69 101 135 183 233 292 357 434
#     4  10  20  41  66  94 135 184 228 288 349 421
#
# _framework density 23.399547999999999
#
# number of rings (size 3 to 8) (size 9 to 14) (size 15 to 20)
#    0.000    2.000    1.429    0.857    0.000    7.429 
#   18.000    0.000    0.000    0.000    0.000    0.000 
#    0.000    0.000    0.000    0.000    0.000    0.000 
#
# Total GULP energy -312219.787174 kJ/mol
# GULP energy per Si atom -5575.353342 kJ/mol
# Density = 2.334629 g / cm^3
# Si number density = 23.399548 Si / 1000 Ang^3
#
#
#
# Elastic Constant Matrix: (Units=GPa)
#
#
# Indices 1 2 3 4 5 6 
#
# 1 75.8076 15.8360 2.3542 0.0000 0.0000 12.8209
# 2 15.8360 75.8076 2.3542 0.0000 0.0000 -12.8209
# 3 2.3542 2.3542 101.6635 0.0000 0.0000 0.0000
# 4 0.0000 0.0000 0.0000 14.5257 0.0000 0.0000
# 5 0.0000 0.0000 0.0000 0.0000 14.5257 0.0000
# 6 12.8209 -12.8209 0.0000 0.0000 0.0000 38.6219
#
#
#
# Elastic Compliance Matrix: (Units=1/GPa)
#
#
# Indices 1 2 3 4 5 6 
#
# 1 0.015179 -0.004254 -0.000253 0.000000 0.000000 -0.006451
# 2 -0.004254 0.015179 -0.000253 0.000000 0.000000 0.006451
# 3 -0.000253 -0.000253 0.009848 0.000000 0.000000 0.000000
# 4 0.000000 0.000000 0.000000 0.068844 0.000000 0.000000
# 5 0.000000 0.000000 0.000000 0.000000 0.068844 0.000000
# 6 -0.006451 0.006451 0.000000 0.000000 0.000000 0.030175
#
#
# Mechanical properties :
#
#
# Convention : Reuss Voigt Hill
#
# Bulk Modulus (GPa) = 32.58836 32.70752 32.64794
# Shear Modulus (GPa) = 21.94752 29.05028 25.49890
#
# Velocity S-wave (km/s) = 3.06591 3.52730 3.30467
# Velocity P-wave (km/s) = 5.14687 5.53148 5.34264
#
# Compressibility (1/GPa) = 0.03068580
#
# Stress axis : x y z
#
# Youngs Moduli (GPa) = 65.88142 65.88142 101.54257
#
# Poissons Ratio (x) = 0.28026 0.02569
# Poissons Ratio (y) = 0.28026 0.02569
# Poissons Ratio (z) = 0.01667 0.01667
#
# Static dielectric constant tensor:
#      x y z
#    x 1.981380 0.000000 0.000000 
#    y 0.000000 1.981380 0.000000 
#    z 0.000000 0.000000 1.964590 
# 
# From -- ./inp_files/5342.got.cif
#   From: 2010.05.17/outbox.cif.g08.bks.cpg/sg88_3_cif.got.tgz:5342.got - 2010.06.03 19:11:41.
