data_PCOD9546106
_publ_section_title
;
Structure prediction by ZEFSAII (Michael W. Deem and Ramdas Pophale) SiO2 
 PCOD9546106
Probable space group: I 4/M
;
_chemical_formula_sum "Si O2"
_cell_formula_units_Z 64
_cell_length_a 11.650679
_cell_length_b 11.650679
_cell_length_c 23.726975
_cell_angle_alpha 90.000000
_cell_angle_beta 90.000000
_cell_angle_gamma 90.000000
_cell_volume 3220.659753
_symmetry_space_group_name_H-M "I 4/M"
_symmetry_group_IT_number 87
_symmetry_cell_setting 'tetragonal'
loop_
_space_group_symop_operation_xyz
x,y,z
-y,x,z
-x,-y,z
y,-x,z
-x,-y,-z
y,-x,-z
x,y,-z
-y,x,-z
1/2+x,1/2+y,1/2+z
1/2-y,1/2+x,1/2+z
1/2-x,1/2-y,1/2+z
1/2+y,1/2-x,1/2+z
1/2-x,1/2-y,1/2-z
1/2+y,1/2-x,1/2-z
1/2+x,1/2+y,1/2-z
1/2-y,1/2+x,1/2-z
loop_
_atom_site_type_symbol
_atom_site_label
_atom_site_fract_x
_atom_site_fract_y
_atom_site_fract_z
Si Si1 0.305793 0.872735 0.173516
Si Si2 0.634135 0.197242 0.294818
Si Si3 0.687314 0.447701 0.135790
Si Si4 0.954655 0.368785 0.564129
O O1 0.365378 0.811002 0.227285
O O2 0.180031 0.818215 0.180886
O O3 0.358178 0.853693 0.112018
O O4 0.320818 0.006696 0.184334
O O5 0.724237 0.102203 0.317718
O O6 0.632755 0.575220 0.138450
O O7 0.771106 0.452009 0.081081
O O8 0.916421 0.351415 0.500000
O O9 0.000000 0.500000 0.568865
#
# Coordination Sequence:
#
# PCOD9546106 Si02
#       4
#    16  16  16  16
#     4  11  24  42  64  99 130 169 225 272 334 399
#     4  11  24  42  69  97 131 174 215 282 339 393
#     4  11  23  41  65 102 139 166 215 279 337 393
#     4  11  23  42  67  94 131 180 225 265 318 396
#
# _framework density 19.871704999999999
#
# number of rings (size 3 to 8) (size 9 to 14) (size 15 to 20)
#    0.000    1.000    5.000    1.500    3.500    1.500 
#    0.000    2.500    0.000    0.000    0.000    1.750 
#    0.000    0.000    0.000    0.000    0.000    0.000 
#
# Total GULP energy -178304.854805 kJ/mol
# GULP energy per Si atom -5572.026713 kJ/mol
# Density = 1.982648 g / cm^3
# Si number density = 19.871705 Si / 1000 Ang^3
#
#
#
# Elastic Constant Matrix: (Units=GPa)
#
#
# Indices 1 2 3 4 5 6 
#
# 1 128.3230 38.4917 53.3048 0.0000 0.0000 -5.6418
# 2 38.4917 128.3230 53.3048 0.0000 0.0000 5.6418
# 3 53.3048 53.3048 175.6758 0.0000 0.0000 0.0000
# 4 0.0000 0.0000 0.0000 24.7147 0.0000 0.0000
# 5 0.0000 0.0000 0.0000 0.0000 24.7147 0.0000
# 6 -5.6418 5.6418 0.0000 0.0000 0.0000 0.7142
#
#
#
# Elastic Compliance Matrix: (Units=1/GPa)
#
#
# Indices 1 2 3 4 5 6 
#
# 1 0.718577 -0.711140 -0.002257 0.000000 0.000000 11.293655
# 2 -0.711140 0.718577 -0.002257 0.000000 0.000000-11.293655
# 3 -0.002257 -0.002257 0.007062 0.000000 0.000000 0.000000
# 4 0.000000 0.000000 0.000000 0.040462 0.000000 0.000000
# 5 0.000000 0.000000 0.000000 0.000000 0.040462 0.000000
# 6 11.293655-11.293655 0.000000 0.000000 0.000000179.822326
#
#
# Mechanical properties :
#
#
# Convention : Reuss Voigt Hill
#
# Bulk Modulus (GPa) = 77.46429 80.28051 78.87240
# Shear Modulus (GPa) = 0.02735 29.17675 14.60205
#
# Velocity S-wave (km/s) = 0.11745 3.83594 2.71369
# Velocity P-wave (km/s) = 6.25182 7.75283 7.04243
#
# Compressibility (1/GPa) = 0.01290917
#
# Stress axis : x y z
#
# Youngs Moduli (GPa) = 1.39164 1.39164 141.60923
#
# Poissons Ratio (x) = 0.98965 0.31955
# Poissons Ratio (y) = 0.98965 0.31955
# Poissons Ratio (z) = 0.00314 0.00314
#
# Static dielectric constant tensor:
#      x y z
#    x 1.767490 0.000000 0.000000 
#    y 0.000000 1.767490 0.000000 
#    z 0.000000 0.000000 1.692420 
# 
# From -- ./inp_files/5671.got.cif
#   From: 2010.05.17/outbox.cif.g08.bks.cpg/sg87_3_cif.got.tgz:5671.got - 2010.06.03 19:07:00.
