data_PCOD9546674
_publ_section_title
;
Structure prediction by ZEFSAII (Michael W. Deem and Ramdas Pophale) SiO2 
 PCOD9546674
Probable space group: I 41/A
;
_chemical_formula_sum "Si O2"
_cell_formula_units_Z 116
_cell_length_a 16.400651
_cell_length_b 16.400651
_cell_length_c 16.933605
_cell_angle_alpha 90.000000
_cell_angle_beta 90.000000
_cell_angle_gamma 90.000000
_cell_volume 4554.823988
_symmetry_space_group_name_H-M "I 41/A"
_symmetry_group_IT_number 88
_space_group.IT_coordinate_system_code '2'
_symmetry_cell_setting 'tetragonal'
loop_
_space_group_symop_operation_xyz
x,y,z
3/4-y,1/4+x,1/4+z
-x,1/2-y,z
1/4+y,1/4-x,1/4+z
-x,-y,-z
1/4+y,3/4-x,3/4-z
x,1/2+y,-z
3/4-y,3/4+x,3/4-z
1/2+x,1/2+y,1/2+z
1/4-y,3/4+x,3/4+z
1/2-x,-y,1/2+z
3/4+y,3/4-x,3/4+z
1/2-x,1/2-y,1/2-z
3/4+y,1/4-x,1/4-z
1/2+x,y,1/2-z
1/4-y,1/4+x,1/4-z
loop_
_atom_site_type_symbol
_atom_site_label
_atom_site_fract_x
_atom_site_fract_y
_atom_site_fract_z
Si Si1 0.474640 0.507424 0.590656
Si Si2 0.536505 0.601731 0.849014
Si Si3 0.394413 0.854377 0.997285
Si Si4 0.275977 0.439763 0.757752
Si Si5 0.145452 0.411026 0.337482
Si Si6 0.174294 0.209532 0.648154
Si Si7 0.144047 0.349503 0.061730
Si Si8 0.000000 0.250000 0.125000
O O1 0.500000 0.500000 0.500000
O O2 0.429742 0.424573 0.608729
O O3 0.552408 0.535810 0.640482
O O4 0.397457 0.570001 0.596764
O O5 0.567914 0.667264 0.912102
O O6 0.447162 0.603211 0.810918
O O7 0.525825 0.520509 0.901222
O O8 0.602945 0.588492 0.780931
O O9 0.331448 0.930013 0.980556
O O10 0.472117 0.879928 0.051416
O O11 0.350656 0.791308 0.056022
O O12 0.292243 0.410579 0.669245
O O13 0.304618 0.532401 0.775147
O O14 0.330465 0.380950 0.814208
O O15 0.067821 0.288375 0.070210
#
# Coordination Sequence:
#
# PCOD9546674 Si02
#       8
#    16  16  16  16  16  16  16   4
#     4  11  28  47  76 106 142 188 249 304 381 454
#     4  11  23  42  69 103 142 184 235 308 368 439
#     4  11  23  41  66  97 146 192 239 290 367 445
#     4  11  21  40  67 102 133 186 232 303 356 426
#     4  12  24  40  74 105 139 184 247 299 371 437
#     4  11  21  43  64  97 143 189 235 289 363 430
#     4  10  24  47  69 102 141 185 234 307 371 438
#     4   8  20  44  72  80 128 182 216 272 372 416
#
# _framework density 25.467506
#
# number of rings (size 3 to 8) (size 9 to 14) (size 15 to 20)
#    0.000    1.103    4.138    1.655    9.655    1.379 
#    0.000    1.379    0.000    0.000    0.000    0.000 
#    0.000    0.000    0.000    0.000    0.000    0.000 
#
# Total GULP energy -324076.455898 kJ/mol
# GULP energy per Si atom -5587.525102 kJ/mol
# Density = 2.540954 g / cm^3
# Si number density = 25.467506 Si / 1000 Ang^3
#
#
#
# Elastic Constant Matrix: (Units=GPa)
#
#
# Indices 1 2 3 4 5 6 
#
# 1 31.8110 68.4097 3.8914 0.0000 0.0000 10.1576
# 2 68.4097 31.8110 3.8914 0.0000 0.0000 -10.1576
# 3 3.8914 3.8914 93.0901 0.0000 0.0000 0.0000
# 4 0.0000 0.0000 0.0000 37.1582 0.0000 0.0000
# 5 0.0000 0.0000 0.0000 0.0000 37.1582 0.0000
# 6 10.1576 -10.1576 0.0000 0.0000 0.0000 28.3225
#
#
#
# Elastic Compliance Matrix: (Units=1/GPa)
#
#
# Indices 1 2 3 4 5 6 
#
# 1 -0.006388 0.016399 -0.000418 0.000000 0.000000 0.008172
# 2 0.016399 -0.006388 -0.000418 0.000000 0.000000 -0.008172
# 3 -0.000418 -0.000418 0.010777 0.000000 0.000000 0.000000
# 4 0.000000 0.000000 0.000000 0.026912 0.000000 0.000000
# 5 0.000000 0.000000 0.000000 0.000000 0.026912 0.000000
# 6 0.008172 -0.008172 0.000000 0.000000 0.000000 0.029446
#
#
# Mechanical properties :
#
#
# Convention : Reuss Voigt Hill
#
# Bulk Modulus (GPa) = 34.33551 34.34412 34.33981
# Shear Modulus (GPa) = 83.53556 25.89575 54.71565
#
# Velocity S-wave (km/s) = 5.73341 3.19221 4.64017
# Velocity P-wave (km/s) = 7.57237 5.20593 6.49779
#
# Compressibility (1/GPa) = 0.02912437
#
# Stress axis : x y z
#
# Youngs Moduli (GPa) = -156.53583 -156.53579 92.78792
#
# Poissons Ratio (x) = 2.56700 0.03883
# Poissons Ratio (y) = 2.56700 0.03883
# Poissons Ratio (z) = -0.06550 -0.06550
#
# Static dielectric constant tensor:
#      x y z
#    x 2.027030 0.000000 0.000000 
#    y 0.000000 2.027030 0.000000 
#    z 0.000000 0.000000 2.001510 
# 
# From -- ./inp_files/4039.got.cif
#   From: 2010.05.17/outbox.cif.g08.bks.cpg/sg88_3_cif.got.tgz:4039.got - 2010.06.03 19:11:41.
