data_PCOD9546221
_publ_section_title
;
Structure prediction by ZEFSAII (Michael W. Deem and Ramdas Pophale) SiO2 
 PCOD9546221
Probable space group: I 41/A
;
_chemical_formula_sum "Si O2"
_cell_formula_units_Z 80
_cell_length_a 12.592272
_cell_length_b 12.592272
_cell_length_c 22.393109
_cell_angle_alpha 90.000000
_cell_angle_beta 90.000000
_cell_angle_gamma 90.000000
_cell_volume 3550.770363
_symmetry_space_group_name_H-M "I 41/A"
_symmetry_group_IT_number 88
_space_group.IT_coordinate_system_code '2'
_symmetry_cell_setting 'tetragonal'
loop_
_space_group_symop_operation_xyz
x,y,z
3/4-y,1/4+x,1/4+z
-x,1/2-y,z
1/4+y,1/4-x,1/4+z
-x,-y,-z
1/4+y,3/4-x,3/4-z
x,1/2+y,-z
3/4-y,3/4+x,3/4-z
1/2+x,1/2+y,1/2+z
1/4-y,3/4+x,3/4+z
1/2-x,-y,1/2+z
3/4+y,3/4-x,3/4+z
1/2-x,1/2-y,1/2-z
3/4+y,1/4-x,1/4-z
1/2+x,y,1/2-z
1/4-y,1/4+x,1/4-z
loop_
_atom_site_type_symbol
_atom_site_label
_atom_site_fract_x
_atom_site_fract_y
_atom_site_fract_z
Si Si1 0.404119 0.589837 0.303378
Si Si2 0.558090 0.984669 0.124633
Si Si3 0.452350 0.912155 0.610211
Si Si4 0.420074 0.886072 0.217109
Si Si5 0.249960 0.985755 0.785729
O O1 0.339866 0.682261 0.335812
O O2 0.464975 0.518976 0.351474
O O3 0.474603 0.640728 0.252503
O O4 0.326162 0.503811 0.271513
O O5 0.463972 0.977208 0.171696
O O6 0.555780 0.888973 0.077061
O O7 0.671722 0.983597 0.159654
O O8 0.569273 0.861781 0.603947
O O9 0.377207 0.946781 0.554169
O O10 0.341372 0.932538 0.266796
#
# Coordination Sequence:
#
# PCOD9546221 Si02
#       5
#    16  16  16  16  16
#     4   9  18  34  55  76 106 149 173 217 277 313
#     4   9  20  34  58  84 104 145 184 216 274 325
#     4  10  18  29  50  81 108 134 182 222 260 328
#     4  10  18  37  56  76 112 142 181 227 260 323
#     4   9  18  34  55  76 106 149 173 217 277 313
#
# _framework density 22.530321000000001
#
# number of rings (size 3 to 8) (size 9 to 14) (size 15 to 20)
#    0.000    2.600    2.000    0.000    0.000    1.200 
#    0.000   11.000    4.400    0.000    0.000    0.000 
#    0.000    0.000    0.000    0.000    0.000    0.000 
#
# Total GULP energy -222864.288933 kJ/mol
# GULP energy per Si atom -5571.607223 kJ/mol
# Density = 2.247904 g / cm^3
# Si number density = 22.530321 Si / 1000 Ang^3
#
#
#
# Elastic Constant Matrix: (Units=GPa)
#
#
# Indices 1 2 3 4 5 6 
#
# 1 52.4279 1.2035 -5.0639 0.0000 0.0000 -3.1371
# 2 1.2035 52.4279 -5.0639 0.0000 0.0000 3.1371
# 3 -5.0639 -5.0639 29.4643 0.0000 0.0000 0.0000
# 4 0.0000 0.0000 0.0000 12.8406 0.0000 0.0000
# 5 0.0000 0.0000 0.0000 0.0000 12.8406 0.0000
# 6 -3.1371 3.1371 0.0000 0.0000 0.0000 13.2764
#
#
#
# Elastic Compliance Matrix: (Units=1/GPa)
#
#
# Indices 1 2 3 4 5 6 
#
# 1 0.019688 -0.000416 0.003312 0.000000 0.000000 0.004750
# 2 -0.000416 0.019688 0.003312 0.000000 0.000000 -0.004750
# 3 0.003312 0.003312 0.035078 0.000000 0.000000 0.000000
# 4 0.000000 0.000000 0.000000 0.077878 0.000000 0.000000
# 5 0.000000 0.000000 0.000000 0.000000 0.077878 0.000000
# 6 0.004750 -0.004750 0.000000 0.000000 0.000000 0.077567
#
#
# Mechanical properties :
#
#
# Convention : Reuss Voigt Hill
#
# Bulk Modulus (GPa) = 11.51164 12.94128 12.22646
# Shear Modulus (GPa) = 15.41709 17.34116 16.37913
#
# Velocity S-wave (km/s) = 2.61872 2.77732 2.69918
# Velocity P-wave (km/s) = 3.77678 4.00513 3.89263
#
# Compressibility (1/GPa) = 0.08686861
#
# Stress axis : x y z
#
# Youngs Moduli (GPa) = 50.79364 50.79364 28.50803
#
# Poissons Ratio (x) = 0.02114 -0.09442
# Poissons Ratio (y) = 0.02114 -0.09442
# Poissons Ratio (z) = -0.16823 -0.16823
#
# Static dielectric constant tensor:
#      x y z
#    x 1.860380 0.000000 0.000000 
#    y 0.000000 1.860380 0.000000 
#    z 0.000000 0.000000 1.812720 
# 
# From -- ./inp_files/5201.got.cif
#   From: 2010.05.17/outbox.cif.g08.bks.cpg/sg88_3_cif.got.tgz:5201.got - 2010.06.03 19:11:41.
