data_PCOD9546319
_publ_section_title
;
Structure prediction by ZEFSAII (Michael W. Deem and Ramdas Pophale) SiO2 
 PCOD9546319
Probable space group: I 41/A
;
_chemical_formula_sum "Si O2"
_cell_formula_units_Z 112
_cell_length_a 18.314399
_cell_length_b 18.314399
_cell_length_c 17.740954
_cell_angle_alpha 90.000000
_cell_angle_beta 90.000000
_cell_angle_gamma 90.000000
_cell_volume 5950.621306
_symmetry_space_group_name_H-M "I 41/A"
_symmetry_group_IT_number 88
_space_group.IT_coordinate_system_code '2'
_symmetry_cell_setting 'tetragonal'
loop_
_space_group_symop_operation_xyz
x,y,z
3/4-y,1/4+x,1/4+z
-x,1/2-y,z
1/4+y,1/4-x,1/4+z
-x,-y,-z
1/4+y,3/4-x,3/4-z
x,1/2+y,-z
3/4-y,3/4+x,3/4-z
1/2+x,1/2+y,1/2+z
1/4-y,3/4+x,3/4+z
1/2-x,-y,1/2+z
3/4+y,3/4-x,3/4+z
1/2-x,1/2-y,1/2-z
3/4+y,1/4-x,1/4-z
1/2+x,y,1/2-z
1/4-y,1/4+x,1/4-z
loop_
_atom_site_type_symbol
_atom_site_label
_atom_site_fract_x
_atom_site_fract_y
_atom_site_fract_z
Si Si1 0.928815 0.056488 0.696294
Si Si2 0.240113 0.013679 0.165387
Si Si3 0.397070 0.312944 0.095453
Si Si4 0.555107 0.099624 0.906203
Si Si5 0.221113 0.607838 0.210105
Si Si6 0.662185 0.917883 0.454578
Si Si7 0.089026 0.711473 0.216957
O O1 0.920194 0.088252 0.780408
O O2 0.883299 0.114441 0.645656
O O3 0.010265 0.068977 0.664615
O O4 0.892949 0.976839 0.694638
O O5 0.256925 0.950209 0.226251
O O6 0.184941 0.981102 0.103989
O O7 0.313077 0.031658 0.118537
O O8 0.202631 0.078573 0.212875
O O9 0.363673 0.335201 0.175548
O O10 0.426457 0.233767 0.069065
O O11 0.471116 0.360429 0.087121
O O12 0.576870 0.029916 0.956551
O O13 0.505524 0.158179 0.952771
O O14 0.145390 0.646886 0.223156
#
# Coordination Sequence:
#
# PCOD9546319 Si02
#       7
#    16  16  16  16  16  16  16
#     4  11  20  30  50  76 111 147 189 214 275 338
#     4  10  20  33  56  78 107 140 194 237 284 329
#     4  10  21  35  52  77 113 150 186 231 277 350
#     4  11  20  32  52  79 116 152 182 221 273 344
#     4  11  21  36  55  81 111 148 187 238 282 340
#     4  11  18  37  52  77 106 149 189 240 282 338
#     4  10  21  35  51  79 114 147 186 227 282 350
#
# _framework density 18.821563999999999
#
# number of rings (size 3 to 8) (size 9 to 14) (size 15 to 20)
#    0.000    1.429    4.286    3.857    2.000    1.429 
#    0.000    0.714    0.000    0.000    0.000    0.000 
#    0.000    9.143    0.000    0.000    0.000    0.000 
#
# Total GULP energy -311863.528728 kJ/mol
# GULP energy per Si atom -5568.991584 kJ/mol
# Density = 1.877873 g / cm^3
# Si number density = 18.821564 Si / 1000 Ang^3
#
#
#
# Elastic Constant Matrix: (Units=GPa)
#
#
# Indices 1 2 3 4 5 6 
#
# 1 56.3629 12.9013 12.9541 0.0000 0.0000 1.8098
# 2 12.9013 56.3629 12.9541 0.0000 0.0000 -1.8098
# 3 12.9541 12.9541 61.8259 0.0000 0.0000 0.0000
# 4 0.0000 0.0000 0.0000 29.3648 0.0000 0.0000
# 5 0.0000 0.0000 0.0000 0.0000 29.3648 0.0000
# 6 1.8098 -1.8098 0.0000 0.0000 0.0000 23.2039
#
#
#
# Elastic Compliance Matrix: (Units=1/GPa)
#
#
# Indices 1 2 3 4 5 6 
#
# 1 0.019412 -0.003747 -0.003282 0.000000 0.000000 -0.001806
# 2 -0.003747 0.019412 -0.003282 0.000000 0.000000 0.001806
# 3 -0.003282 -0.003282 0.017550 0.000000 0.000000 0.000000
# 4 0.000000 0.000000 0.000000 0.034054 0.000000 0.000000
# 5 0.000000 0.000000 0.000000 0.000000 0.034054 0.000000
# 6 -0.001806 0.001806 0.000000 0.000000 0.000000 0.043378
#
#
# Mechanical properties :
#
#
# Convention : Reuss Voigt Hill
#
# Bulk Modulus (GPa) = 27.97104 28.01895 27.99500
# Shear Modulus (GPa) = 24.94994 25.43617 25.19305
#
# Velocity S-wave (km/s) = 3.64483 3.68018 3.66255
# Velocity P-wave (km/s) = 5.71021 5.74258 5.72642
#
# Compressibility (1/GPa) = 0.03575127
#
# Stress axis : x y z
#
# Youngs Moduli (GPa) = 51.51390 51.51390 56.98047
#
# Poissons Ratio (x) = 0.19302 0.18702
# Poissons Ratio (y) = 0.19302 0.18702
# Poissons Ratio (z) = 0.16908 0.16908
#
# Static dielectric constant tensor:
#      x y z
#    x 1.724380 0.000000 0.000000 
#    y 0.000000 1.724380 0.000000 
#    z 0.000000 0.000000 1.691430 
# 
# From -- ./inp_files/4842.got.cif
#   From: 2010.05.17/outbox.cif.g08.bks.cpg/sg88_3_cif.got.tgz:4842.got - 2010.06.03 19:11:41.
