data_PCOD9546473
_publ_section_title
;
Structure prediction by ZEFSAII (Michael W. Deem and Ramdas Pophale) SiO2 
 PCOD9546473
Probable space group: I 41/A
;
_chemical_formula_sum "Si O2"
_cell_formula_units_Z 88
_cell_length_a 17.160409
_cell_length_b 17.160409
_cell_length_c 14.174888
_cell_angle_alpha 90.000000
_cell_angle_beta 90.000000
_cell_angle_gamma 90.000000
_cell_volume 4174.215873
_symmetry_space_group_name_H-M "I 41/A"
_symmetry_group_IT_number 88
_space_group.IT_coordinate_system_code '2'
_symmetry_cell_setting 'tetragonal'
loop_
_space_group_symop_operation_xyz
x,y,z
3/4-y,1/4+x,1/4+z
-x,1/2-y,z
1/4+y,1/4-x,1/4+z
-x,-y,-z
1/4+y,3/4-x,3/4-z
x,1/2+y,-z
3/4-y,3/4+x,3/4-z
1/2+x,1/2+y,1/2+z
1/4-y,3/4+x,3/4+z
1/2-x,-y,1/2+z
3/4+y,3/4-x,3/4+z
1/2-x,1/2-y,1/2-z
3/4+y,1/4-x,1/4-z
1/2+x,y,1/2-z
1/4-y,1/4+x,1/4-z
loop_
_atom_site_type_symbol
_atom_site_label
_atom_site_fract_x
_atom_site_fract_y
_atom_site_fract_z
Si Si1 0.575903 0.675782 0.451721
Si Si2 0.260163 0.379982 0.596649
Si Si3 0.627879 0.497816 0.931433
Si Si4 0.000000 0.250000 0.625000
Si Si5 0.403922 0.337046 0.125261
Si Si6 0.160959 0.240243 0.554709
Si Si7 0.500000 0.250000 0.375000
O O1 0.648892 0.621162 0.429692
O O2 0.491040 0.637018 0.435542
O O3 0.587232 0.751203 0.382066
O O4 0.565711 0.713684 0.555694
O O5 0.242657 0.362194 0.707028
O O6 0.212135 0.457660 0.575108
O O7 0.221419 0.309248 0.537871
O O8 0.621431 0.573682 0.863856
O O9 0.560930 0.442432 0.890364
O O10 0.923627 0.222690 0.571488
O O11 0.359384 0.317563 0.029106
#
# Coordination Sequence:
#
# PCOD9546473 Si02
#       7
#    16  16  16   4  16  16   4
#     4  10  22  42  74 100 133 180 245 283 342 418
#     4  12  25  40  65 101 142 183 226 282 338 416
#     4  12  23  40  60  99 147 180 218 276 351 407
#     4  12  20  30  52 100 136 186 212 244 338 440
#     4  10  21  39  65  98 132 180 221 280 344 413
#     4  12  22  35  61  98 145 180 210 267 343 424
#     4   8  20  46  72  96 118 180 244 308 326 384
#
# _framework density 21.081803000000001
#
# number of rings (size 3 to 8) (size 9 to 14) (size 15 to 20)
#    0.000    1.091    5.455    2.727    2.545    0.000 
#    0.000    5.455    0.000    6.545    0.000    0.000 
#    0.000    0.000    0.000    0.000    0.000    0.000 
#
# Total GULP energy -245024.442483 kJ/mol
# GULP energy per Si atom -5568.737329 kJ/mol
# Density = 2.103382 g / cm^3
# Si number density = 21.081803 Si / 1000 Ang^3
#
#
#
# Elastic Constant Matrix: (Units=GPa)
#
#
# Indices 1 2 3 4 5 6 
#
# 1 127.2189 45.2311 13.2436 0.0000 0.0000 -3.7772
# 2 45.2311 127.2189 13.2436 0.0000 0.0000 3.7772
# 3 13.2436 13.2436 59.0911 0.0000 0.0000 0.0000
# 4 0.0000 0.0000 0.0000 33.4076 0.0000 0.0000
# 5 0.0000 0.0000 0.0000 0.0000 33.4076 0.0000
# 6 -3.7772 3.7772 0.0000 0.0000 0.0000 41.0787
#
#
#
# Elastic Compliance Matrix: (Units=1/GPa)
#
#
# Indices 1 2 3 4 5 6 
#
# 1 0.009153 -0.003148 -0.001346 0.000000 0.000000 0.001131
# 2 -0.003148 0.009153 -0.001346 0.000000 0.000000 -0.001131
# 3 -0.001346 -0.001346 0.017526 0.000000 0.000000 0.000000
# 4 0.000000 0.000000 0.000000 0.029933 0.000000 0.000000
# 5 0.000000 0.000000 0.000000 0.000000 0.029933 0.000000
# 6 0.001131 -0.001131 0.000000 0.000000 0.000000 0.024552
#
#
# Mechanical properties :
#
#
# Convention : Reuss Voigt Hill
#
# Bulk Modulus (GPa) = 41.40186 50.77394 46.08790
# Shear Modulus (GPa) = 35.71893 37.69949 36.70921
#
# Velocity S-wave (km/s) = 4.12065 4.23336 4.17739
# Velocity P-wave (km/s) = 6.50546 6.93048 6.72133
#
# Compressibility (1/GPa) = 0.02415350
#
# Stress axis : x y z
#
# Youngs Moduli (GPa) = 109.24980 109.24980 57.05699
#
# Poissons Ratio (x) = 0.34390 0.07680
# Poissons Ratio (y) = 0.34390 0.07680
# Poissons Ratio (z) = 0.14705 0.14705
#
# Static dielectric constant tensor:
#      x y z
#    x 1.691620 0.000000 0.000000 
#    y 0.000000 1.691620 0.000000 
#    z 0.000000 0.000000 1.775200 
# 
# From -- ./inp_files/3249.got.cif
#   From: 2010.05.17/outbox.cif.g08.bks.cpg/sg88_2_cif.got.tgz:3249.got - 2010.06.03 19:11:41.
