data_PCOD9546689
_publ_section_title
;
Structure prediction by ZEFSAII (Michael W. Deem and Ramdas Pophale) SiO2 
 PCOD9546689
Probable space group: I 41/A
;
_chemical_formula_sum "Si O2"
_cell_formula_units_Z 56
_cell_length_a 10.178200
_cell_length_b 10.178200
_cell_length_c 23.661723
_cell_angle_alpha 90.000000
_cell_angle_beta 90.000000
_cell_angle_gamma 90.000000
_cell_volume 2451.254064
_symmetry_space_group_name_H-M "I 41/A"
_symmetry_group_IT_number 88
_space_group.IT_coordinate_system_code '2'
_symmetry_cell_setting 'tetragonal'
loop_
_space_group_symop_operation_xyz
x,y,z
3/4-y,1/4+x,1/4+z
-x,1/2-y,z
1/4+y,1/4-x,1/4+z
-x,-y,-z
1/4+y,3/4-x,3/4-z
x,1/2+y,-z
3/4-y,3/4+x,3/4-z
1/2+x,1/2+y,1/2+z
1/4-y,3/4+x,3/4+z
1/2-x,-y,1/2+z
3/4+y,3/4-x,3/4+z
1/2-x,1/2-y,1/2-z
3/4+y,1/4-x,1/4-z
1/2+x,y,1/2-z
1/4-y,1/4+x,1/4-z
loop_
_atom_site_type_symbol
_atom_site_label
_atom_site_fract_x
_atom_site_fract_y
_atom_site_fract_z
Si Si1 0.814280 0.276879 0.154514
Si Si2 0.570426 0.445723 0.161477
Si Si3 0.500000 0.250000 0.504835
Si Si4 0.959228 0.093700 0.551111
O O1 0.851915 0.158884 0.112939
O O2 0.668529 0.327632 0.146199
O O3 0.873197 0.232286 0.214746
O O4 0.474393 0.377385 0.206229
O O5 0.653425 0.552815 0.195302
O O6 0.512676 0.523979 0.108313
O O7 0.000000 0.250000 0.547230
O O8 0.000000 0.000000 0.500000
#
# Coordination Sequence:
#
# PCOD9546689 Si02
#       4
#    16  16   8  16
#     4   9  23  43  69 105 142 179 241 296 365 443
#     4  12  25  46  73 101 147 183 251 296 376 451
#     4  10  25  42  72 112 136 191 244 308 376 442
#     4  12  30  49  72 106 148 193 247 309 378 457
#
# _framework density 22.845448000000001
#
# number of rings (size 3 to 8) (size 9 to 14) (size 15 to 20)
#    0.000    1.429    2.857    0.857   18.000    0.000 
#    0.000    0.000    0.000    0.000    0.000    0.000 
#    0.000    0.000    0.000    0.000    0.000    0.000 
#
# Total GULP energy -156285.549180 kJ/mol
# GULP energy per Si atom -5581.626756 kJ/mol
# Density = 2.279345 g / cm^3
# Si number density = 22.845448 Si / 1000 Ang^3
#
#
#
# Elastic Constant Matrix: (Units=GPa)
#
#
# Indices 1 2 3 4 5 6 
#
# 1 84.9126 8.4108 43.9703 0.0000 0.0000 -16.7387
# 2 8.4108 84.9126 43.9703 0.0000 0.0000 16.7387
# 3 43.9703 43.9703 128.6498 0.0000 0.0000 0.0000
# 4 0.0000 0.0000 0.0000 21.0318 0.0000 0.0000
# 5 0.0000 0.0000 0.0000 0.0000 21.0318 0.0000
# 6 -16.7387 16.7387 0.0000 0.0000 0.0000 43.2587
#
#
#
# Elastic Compliance Matrix: (Units=1/GPa)
#
#
# Indices 1 2 3 4 5 6 
#
# 1 0.015771 0.000035 -0.005402 0.000000 0.000000 0.006089
# 2 0.000035 0.015771 -0.005402 0.000000 0.000000 -0.006089
# 3 -0.005402 -0.005402 0.011466 0.000000 0.000000 0.000000
# 4 0.000000 0.000000 0.000000 0.047547 0.000000 0.000000
# 5 0.000000 0.000000 0.000000 0.000000 0.047547 0.000000
# 6 0.006089 -0.006089 0.000000 0.000000 0.000000 0.027829
#
#
# Mechanical properties :
#
#
# Convention : Reuss Voigt Hill
#
# Bulk Modulus (GPa) = 46.57879 54.57529 50.57704
# Shear Modulus (GPa) = 25.69021 30.53934 28.11477
#
# Velocity S-wave (km/s) = 3.35703 3.66017 3.51187
# Velocity P-wave (km/s) = 5.95475 6.46554 6.21540
#
# Compressibility (1/GPa) = 0.02146900
#
# Stress axis : x y z
#
# Youngs Moduli (GPa) = 63.40707 63.40707 87.21576
#
# Poissons Ratio (x) = -0.00222 0.47116
# Poissons Ratio (y) = -0.00222 0.47116
# Poissons Ratio (z) = 0.34254 0.34254
#
# Static dielectric constant tensor:
#      x y z
#    x 1.914430 0.000000 0.000000 
#    y 0.000000 1.914430 0.000000 
#    z 0.000000 0.000000 1.903700 
# 
# From -- ./inp_files/4334.got.cif
#   From: 2010.05.17/outbox.cif.g08.bks.cpg/sg88_3_cif.got.tgz:4334.got - 2010.06.03 19:11:41.
