data_PCOD9546398
_publ_section_title
;
Structure prediction by ZEFSAII (Michael W. Deem and Ramdas Pophale) SiO2 
 PCOD9546398
Probable space group: I 41/A
;
_chemical_formula_sum "Si O2"
_cell_formula_units_Z 80
_cell_length_a 10.252738
_cell_length_b 10.252738
_cell_length_c 36.481475
_cell_angle_alpha 90.000000
_cell_angle_beta 90.000000
_cell_angle_gamma 90.000000
_cell_volume 3834.882909
_symmetry_space_group_name_H-M "I 41/A"
_symmetry_group_IT_number 88
_space_group.IT_coordinate_system_code '2'
_symmetry_cell_setting 'tetragonal'
loop_
_space_group_symop_operation_xyz
x,y,z
3/4-y,1/4+x,1/4+z
-x,1/2-y,z
1/4+y,1/4-x,1/4+z
-x,-y,-z
1/4+y,3/4-x,3/4-z
x,1/2+y,-z
3/4-y,3/4+x,3/4-z
1/2+x,1/2+y,1/2+z
1/4-y,3/4+x,3/4+z
1/2-x,-y,1/2+z
3/4+y,3/4-x,3/4+z
1/2-x,1/2-y,1/2-z
3/4+y,1/4-x,1/4-z
1/2+x,y,1/2-z
1/4-y,1/4+x,1/4-z
loop_
_atom_site_type_symbol
_atom_site_label
_atom_site_fract_x
_atom_site_fract_y
_atom_site_fract_z
Si Si1 0.193653 0.670504 0.041821
Si Si2 0.953087 0.597070 0.790223
Si Si3 0.062884 0.935889 0.066080
Si Si4 0.465161 0.902257 0.353743
Si Si5 0.105335 0.067763 0.635667
O O1 0.132825 0.799111 0.060261
O O2 0.302286 0.624758 0.070441
O O3 0.074624 0.568254 0.044246
O O4 0.215578 0.710436 0.000075
O O5 0.801220 0.604677 0.799918
O O6 0.007050 0.500369 0.821407
O O7 0.000000 0.750000 0.790490
O O8 0.033746 0.949029 0.108883
O O9 0.500000 0.750000 0.346558
O O10 0.311215 0.904252 0.364621
O O11 0.950894 0.081111 0.628004
#
# Coordination Sequence:
#
# PCOD9546398 Si02
#       5
#    16  16  16  16  16
#     4  10  20  42  64  90 131 170 214 276 337 389
#     4  12  26  38  67 105 130 170 222 281 340 405
#     4  10  20  41  63  87 131 177 214 257 340 405
#     4  11  24  42  63  97 142 170 215 287 340 388
#     4  10  21  42  70  89 119 183 234 260 320 423
#
# _framework density 20.861134
#
# number of rings (size 3 to 8) (size 9 to 14) (size 15 to 20)
#    0.000    1.400    6.000    1.800    2.800    1.600 
#    3.600    1.000    0.000    0.000    0.000    0.000 
#    0.000    0.000    0.000    0.000    0.000    0.000 
#
# Total GULP energy -223329.085735 kJ/mol
# GULP energy per Si atom -5583.227143 kJ/mol
# Density = 2.081365 g / cm^3
# Si number density = 20.861134 Si / 1000 Ang^3
#
#
#
# Elastic Constant Matrix: (Units=GPa)
#
#
# Indices 1 2 3 4 5 6 
#
# 1 40.9938 14.0148 25.3486 0.0000 0.0000 1.0795
# 2 14.0148 40.9938 25.3486 0.0000 0.0000 -1.0795
# 3 25.3486 25.3486 181.7593 0.0000 0.0000 0.0000
# 4 0.0000 0.0000 0.0000 38.8279 0.0000 0.0000
# 5 0.0000 0.0000 0.0000 0.0000 38.8279 0.0000
# 6 1.0795 -1.0795 0.0000 0.0000 0.0000 16.9632
#
#
#
# Elastic Compliance Matrix: (Units=1/GPa)
#
#
# Indices 1 2 3 4 5 6 
#
# 1 0.029058 -0.008198 -0.002909 0.000000 0.000000 -0.002371
# 2 -0.008198 0.029058 -0.002909 0.000000 0.000000 0.002371
# 3 -0.002909 -0.002909 0.006313 0.000000 0.000000 0.000000
# 4 0.000000 0.000000 0.000000 0.025755 0.000000 0.000000
# 5 0.000000 0.000000 0.000000 0.000000 0.025755 0.000000
# 6 -0.002371 0.002371 0.000000 0.000000 0.000000 0.059253
#
#
# Mechanical properties :
#
#
# Convention : Reuss Voigt Hill
#
# Bulk Modulus (GPa) = 27.47500 43.68565 35.58033
# Shear Modulus (GPa) = 23.21744 32.19282 27.70513
#
# Velocity S-wave (km/s) = 3.33971 3.93261 3.64823
# Velocity P-wave (km/s) = 5.29817 6.45037 5.90245
#
# Compressibility (1/GPa) = 0.03639672
#
# Stress axis : x y z
#
# Youngs Moduli (GPa) = 34.41414 34.41413 158.39747
#
# Poissons Ratio (x) = 0.28212 0.46081
# Poissons Ratio (y) = 0.28212 0.46081
# Poissons Ratio (z) = 0.10012 0.10012
#
# Static dielectric constant tensor:
#      x y z
#    x 1.807160 0.000000 0.000000 
#    y 0.000000 1.807160 0.000000 
#    z 0.000000 0.000000 1.752430 
# 
# From -- ./inp_files/6324.got.cif
#   From: 2010.05.17/outbox.cif.g08.bks.cpg/sg88_4_cif.got.tgz:6324.got - 2010.06.03 19:11:41.
