data_PCOD9546871
_publ_section_title
;
Structure prediction by ZEFSAII (Michael W. Deem and Ramdas Pophale) SiO2 
 PCOD9546871
Probable space group: I 41/A
;
_chemical_formula_sum "Si O2"
_cell_formula_units_Z 52
_cell_length_a 14.179477
_cell_length_b 14.179477
_cell_length_c 9.034349
_cell_angle_alpha 90.000000
_cell_angle_beta 90.000000
_cell_angle_gamma 90.000000
_cell_volume 1816.424238
_symmetry_space_group_name_H-M "I 41/A"
_symmetry_group_IT_number 88
_space_group.IT_coordinate_system_code '2'
_symmetry_cell_setting 'tetragonal'
loop_
_space_group_symop_operation_xyz
x,y,z
3/4-y,1/4+x,1/4+z
-x,1/2-y,z
1/4+y,1/4-x,1/4+z
-x,-y,-z
1/4+y,3/4-x,3/4-z
x,1/2+y,-z
3/4-y,3/4+x,3/4-z
1/2+x,1/2+y,1/2+z
1/4-y,3/4+x,3/4+z
1/2-x,-y,1/2+z
3/4+y,3/4-x,3/4+z
1/2-x,1/2-y,1/2-z
3/4+y,1/4-x,1/4-z
1/2+x,y,1/2-z
1/4-y,1/4+x,1/4-z
loop_
_atom_site_type_symbol
_atom_site_label
_atom_site_fract_x
_atom_site_fract_y
_atom_site_fract_z
Si Si1 0.421570 0.333858 0.201302
Si Si2 0.347070 0.545191 0.685448
Si Si3 0.000000 0.250000 0.625000
Si Si4 0.515936 0.452328 0.816121
O O1 0.500000 0.250000 0.176838
O O2 0.381163 0.340839 0.369444
O O3 0.438135 0.445208 0.160797
O O4 0.339333 0.299744 0.090566
O O5 0.261281 0.572946 0.787930
O O6 0.408281 0.480907 0.793428
O O7 0.110122 0.225867 0.669910
#
# Coordination Sequence:
#
# PCOD9546871 Si02
#       4
#    16  16   4  16
#     4  12  27  51  84 126 171 222 298 355 430 518
#     4  12  29  51  86 131 172 232 289 364 434 515
#     4  12  32  56  84 130 176 236 276 366 448 508
#     4  12  29  52  83 125 176 228 288 362 434 519
#
# _framework density 28.627673000000001
#
# number of rings (size 3 to 8) (size 9 to 14) (size 15 to 20)
#    0.000    0.000    4.615    2.769    8.615    1.231 
#    0.000    0.000    0.000    0.000    0.000    0.000 
#    0.000    0.000    0.000    0.000    0.000    0.000 
#
# Total GULP energy -145275.114899 kJ/mol
# GULP energy per Si atom -5587.504419 kJ/mol
# Density = 2.856252 g / cm^3
# Si number density = 28.627673 Si / 1000 Ang^3
#
#
#
# Elastic Constant Matrix: (Units=GPa)
#
#
# Indices 1 2 3 4 5 6 
#
# 1 179.6998 59.0061 11.7689 0.0000 0.0000 -26.7911
# 2 59.0061 179.6998 11.7689 0.0000 0.0000 26.7911
# 3 11.7689 11.7689 72.3828 0.0000 0.0000 0.0000
# 4 0.0000 0.0000 0.0000 73.4147 0.0000 0.0000
# 5 0.0000 0.0000 0.0000 0.0000 73.4147 0.0000
# 6 -26.7911 26.7911 0.0000 0.0000 0.0000 57.1144
#
#
#
# Elastic Compliance Matrix: (Units=1/GPa)
#
#
# Indices 1 2 3 4 5 6 
#
# 1 0.007361 -0.003104 -0.000692 0.000000 0.000000 0.004909
# 2 -0.003104 0.007361 -0.000692 0.000000 0.000000 -0.004909
# 3 -0.000692 -0.000692 0.014041 0.000000 0.000000 0.000000
# 4 0.000000 0.000000 0.000000 0.013621 0.000000 0.000000
# 5 0.000000 0.000000 0.000000 0.000000 0.013621 0.000000
# 6 0.004909 -0.004909 0.000000 0.000000 0.000000 0.022114
#
#
# Mechanical properties :
#
#
# Convention : Reuss Voigt Hill
#
# Bulk Modulus (GPa) = 50.53921 66.31890 58.42906
# Shear Modulus (GPa) = 53.36702 64.07130 58.71916
#
# Velocity S-wave (km/s) = 4.32229 4.73598 4.53386
# Velocity P-wave (km/s) = 6.52702 7.28850 6.91824
#
# Compressibility (1/GPa) = 0.01978662
#
# Stress axis : x y z
#
# Youngs Moduli (GPa) = 135.84928 135.84928 71.22226
#
# Poissons Ratio (x) = 0.42162 0.04930
# Poissons Ratio (y) = 0.42162 0.04930
# Poissons Ratio (z) = 0.09404 0.09404
#
# Static dielectric constant tensor:
#      x y z
#    x 2.196950 0.000000 0.000000 
#    y 0.000000 2.196950 0.000000 
#    z 0.000000 0.000000 2.579700 
# 
# From -- ./inp_files/2200.got.cif
#   From: 2010.05.17/outbox.cif.g08.bks.cpg/sg88_2_cif.got.tgz:2200.got - 2010.06.03 19:11:41.
