data_PCOD9546794
_publ_section_title
;
Structure prediction by ZEFSAII (Michael W. Deem and Ramdas Pophale) SiO2 
 PCOD9546794
Probable space group: I 41/A
;
_chemical_formula_sum "Si O2"
_cell_formula_units_Z 56
_cell_length_a 11.245244
_cell_length_b 11.245244
_cell_length_c 20.312053
_cell_angle_alpha 90.000000
_cell_angle_beta 90.000000
_cell_angle_gamma 90.000000
_cell_volume 2568.571074
_symmetry_space_group_name_H-M "I 41/A"
_symmetry_group_IT_number 88
_space_group.IT_coordinate_system_code '2'
_symmetry_cell_setting 'tetragonal'
loop_
_space_group_symop_operation_xyz
x,y,z
3/4-y,1/4+x,1/4+z
-x,1/2-y,z
1/4+y,1/4-x,1/4+z
-x,-y,-z
1/4+y,3/4-x,3/4-z
x,1/2+y,-z
3/4-y,3/4+x,3/4-z
1/2+x,1/2+y,1/2+z
1/4-y,3/4+x,3/4+z
1/2-x,-y,1/2+z
3/4+y,3/4-x,3/4+z
1/2-x,1/2-y,1/2-z
3/4+y,1/4-x,1/4-z
1/2+x,y,1/2-z
1/4-y,1/4+x,1/4-z
loop_
_atom_site_type_symbol
_atom_site_label
_atom_site_fract_x
_atom_site_fract_y
_atom_site_fract_z
Si Si1 0.000000 0.250000 0.125000
Si Si2 0.500000 0.750000 0.125000
Si Si3 0.382741 0.697099 0.328826
Si Si4 0.138294 0.543493 0.444849
Si Si5 0.745576 0.833751 0.685693
O O1 0.113529 0.307227 0.160465
O O2 0.580847 0.845416 0.164774
O O3 0.500000 0.750000 0.295906
O O4 0.303223 0.811886 0.346055
O O5 0.301399 0.637807 0.273038
O O6 0.431097 0.605176 0.383517
O O7 0.275463 0.510283 0.444612
O O8 0.750000 0.750000 0.750000
#
# Coordination Sequence:
#
# PCOD9546794 Si02
#       5
#     4   4  16  16  16
#     4  12  28  52  66 112 156 208 272 314 412 492
#     4  12  20  48  78 116 148 196 268 342 416 480
#     4  11  24  44  71 109 149 197 256 328 396 485
#     4  11  24  45  79 111 150 199 268 335 406 491
#     4  12  27  48  74 108 157 213 266 331 411 500
#
# _framework density 21.802007
#
# number of rings (size 3 to 8) (size 9 to 14) (size 15 to 20)
#    0.000    0.571    4.286    3.429    2.000    0.000 
#    0.000    0.000    0.000    0.000    0.000    0.000 
#    0.000    0.000    0.000    0.000    0.000    0.000 
#
# Total GULP energy -155920.363920 kJ/mol
# GULP energy per Si atom -5568.584426 kJ/mol
# Density = 2.175238 g / cm^3
# Si number density = 21.802007 Si / 1000 Ang^3
#
#
#
# Elastic Constant Matrix: (Units=GPa)
#
#
# Indices 1 2 3 4 5 6 
#
# 1 183.7150 72.3705 61.2183 0.0000 0.0000 3.3617
# 2 72.3705 183.7150 61.2183 0.0000 0.0000 -3.3617
# 3 61.2183 61.2183 83.1334 0.0000 0.0000 0.0000
# 4 0.0000 0.0000 0.0000 11.8151 0.0000 0.0000
# 5 0.0000 0.0000 0.0000 0.0000 11.8151 0.0000
# 6 3.3617 -3.3617 0.0000 0.0000 0.0000 50.6438
#
#
#
# Elastic Compliance Matrix: (Units=1/GPa)
#
#
# Indices 1 2 3 4 5 6 
#
# 1 0.007522 -0.001495 -0.004438 0.000000 0.000000 -0.000599
# 2 -0.001495 0.007522 -0.004438 0.000000 0.000000 0.000599
# 3 -0.004438 -0.004438 0.018565 0.000000 0.000000 0.000000
# 4 0.000000 0.000000 0.000000 0.084637 0.000000 0.000000
# 5 0.000000 0.000000 0.000000 0.000000 0.084637 0.000000
# 6 -0.000599 0.000599 0.000000 0.000000 0.000000 0.019825
#
#
# Mechanical properties :
#
#
# Convention : Reuss Voigt Hill
#
# Bulk Modulus (GPa) = 77.72127 93.35307 85.53717
# Shear Modulus (GPa) = 20.18240 31.90522 26.04381
#
# Velocity S-wave (km/s) = 3.04585 3.82960 3.45999
# Velocity P-wave (km/s) = 6.93511 7.90354 7.43511
#
# Compressibility (1/GPa) = 0.01286649
#
# Stress axis : x y z
#
# Youngs Moduli (GPa) = 132.94247 132.94247 53.86444
#
# Poissons Ratio (x) = 0.19878 0.23905
# Poissons Ratio (y) = 0.19878 0.23905
# Poissons Ratio (z) = 0.59001 0.59001
#
# Static dielectric constant tensor:
#      x y z
#    x 1.800520 0.000000 0.000000 
#    y 0.000000 1.800520 0.000000 
#    z 0.000000 0.000000 1.864950 
# 
# From -- ./inp_files/4359.got.cif
#   From: 2010.05.17/outbox.cif.g08.bks.cpg/sg88_3_cif.got.tgz:4359.got - 2010.06.03 19:11:41.
