data_PCOD9546370
_publ_section_title
;
Structure prediction by ZEFSAII (Michael W. Deem and Ramdas Pophale) SiO2 
 PCOD9546370
Probable space group: I 41/A
;
_chemical_formula_sum "Si O2"
_cell_formula_units_Z 64
_cell_length_a 7.871517
_cell_length_b 7.871517
_cell_length_c 41.034669
_cell_angle_alpha 90.000000
_cell_angle_beta 90.000000
_cell_angle_gamma 90.000000
_cell_volume 2542.540093
_symmetry_space_group_name_H-M "I 41/A"
_symmetry_group_IT_number 88
_space_group.IT_coordinate_system_code '2'
_symmetry_cell_setting 'tetragonal'
loop_
_space_group_symop_operation_xyz
x,y,z
3/4-y,1/4+x,1/4+z
-x,1/2-y,z
1/4+y,1/4-x,1/4+z
-x,-y,-z
1/4+y,3/4-x,3/4-z
x,1/2+y,-z
3/4-y,3/4+x,3/4-z
1/2+x,1/2+y,1/2+z
1/4-y,3/4+x,3/4+z
1/2-x,-y,1/2+z
3/4+y,3/4-x,3/4+z
1/2-x,1/2-y,1/2-z
3/4+y,1/4-x,1/4-z
1/2+x,y,1/2-z
1/4-y,1/4+x,1/4-z
loop_
_atom_site_type_symbol
_atom_site_label
_atom_site_fract_x
_atom_site_fract_y
_atom_site_fract_z
Si Si1 0.965372 0.453103 0.264633
Si Si2 0.193496 0.463335 0.799593
Si Si3 0.377827 0.505835 0.117966
Si Si4 0.697531 0.184888 0.178256
O O1 0.927244 0.546938 0.231205
O O2 0.810456 0.441836 0.290747
O O3 0.000000 0.250000 0.257432
O O4 0.119851 0.541190 0.283285
O O5 0.182289 0.351315 0.831846
O O6 0.186663 0.655619 0.813721
O O7 0.289954 0.689517 0.115865
O O8 0.270826 0.397076 0.143504
O O9 0.500000 0.250000 0.176803
#
# Coordination Sequence:
#
# PCOD9546370 Si02
#       4
#    16  16  16  16
#     4   9  17  36  61  86 112 156 190 236 296 343
#     4  10  20  38  63  87 117 155 196 244 287 352
#     4  11  21  38  63  82 118 163 191 233 305 354
#     4   9  17  37  57  84 113 148 191 232 287 349
#
# _framework density 25.171676999999999
#
# number of rings (size 3 to 8) (size 9 to 14) (size 15 to 20)
#    0.000    2.750    5.000    3.000    0.000    0.000 
#    9.000    1.250    0.000    0.000    0.000    0.000 
#    0.000    0.000    0.000    0.000    0.000    0.000 
#
# Total GULP energy -178827.842311 kJ/mol
# GULP energy per Si atom -5588.370072 kJ/mol
# Density = 2.511439 g / cm^3
# Si number density = 25.171677 Si / 1000 Ang^3
#
#
#
# Elastic Constant Matrix: (Units=GPa)
#
#
# Indices 1 2 3 4 5 6 
#
# 1 28.9522 11.6570 25.5992 0.0000 0.0000 -4.2316
# 2 11.6570 28.9522 25.5992 0.0000 0.0000 4.2316
# 3 25.5992 25.5992 202.2297 0.0000 0.0000 0.0000
# 4 0.0000 0.0000 0.0000 29.5272 0.0000 0.0000
# 5 0.0000 0.0000 0.0000 0.0000 29.5272 0.0000
# 6 -4.2316 4.2316 0.0000 0.0000 0.0000 12.5480
#
#
#
# Elastic Compliance Matrix: (Units=1/GPa)
#
#
# Indices 1 2 3 4 5 6 
#
# 1 0.049274 -0.019973 -0.003709 0.000000 0.000000 0.023353
# 2 -0.019973 0.049274 -0.003709 0.000000 0.000000 -0.023353
# 3 -0.003709 -0.003709 0.005884 0.000000 0.000000 0.000000
# 4 0.000000 0.000000 0.000000 0.033867 0.000000 0.000000
# 5 0.000000 0.000000 0.000000 0.000000 0.033867 0.000000
# 6 0.023353 -0.023353 0.000000 0.000000 0.000000 0.095445
#
#
# Mechanical properties :
#
#
# Convention : Reuss Voigt Hill
#
# Bulk Modulus (GPa) = 20.14100 42.87167 31.50633
# Shear Modulus (GPa) = 14.75174 27.47240 21.11207
#
# Velocity S-wave (km/s) = 2.42346 3.30722 2.89921
# Velocity P-wave (km/s) = 3.98117 5.62604 4.87350
#
# Compressibility (1/GPa) = 0.04964997
#
# Stress axis : x y z
#
# Youngs Moduli (GPa) = 20.29464 20.29463 169.95524
#
# Poissons Ratio (x) = 0.40534 0.63038
# Poissons Ratio (y) = 0.40534 0.63038
# Poissons Ratio (z) = 0.07527 0.07527
#
# Static dielectric constant tensor:
#      x y z
#    x 2.070200 0.000000 0.000000 
#    y 0.000000 2.070200 0.000000 
#    z 0.000000 0.000000 2.047720 
# 
# From -- ./inp_files/6184.got.cif
#   From: 2010.05.17/outbox.cif.g08.bks.cpg/sg88_4_cif.got.tgz:6184.got - 2010.06.03 19:11:41.
