data_PCOD9546800
_publ_section_title
;
Structure prediction by ZEFSAII (Michael W. Deem and Ramdas Pophale) SiO2 
 PCOD9546800
Probable space group: I 41/A
;
_chemical_formula_sum "Si O2"
_cell_formula_units_Z 88
_cell_length_a 12.134455
_cell_length_b 12.134455
_cell_length_c 26.548809
_cell_angle_alpha 90.000000
_cell_angle_beta 90.000000
_cell_angle_gamma 90.000000
_cell_volume 3909.179332
_symmetry_space_group_name_H-M "I 41/A"
_symmetry_group_IT_number 88
_space_group.IT_coordinate_system_code '2'
_symmetry_cell_setting 'tetragonal'
loop_
_space_group_symop_operation_xyz
x,y,z
3/4-y,1/4+x,1/4+z
-x,1/2-y,z
1/4+y,1/4-x,1/4+z
-x,-y,-z
1/4+y,3/4-x,3/4-z
x,1/2+y,-z
3/4-y,3/4+x,3/4-z
1/2+x,1/2+y,1/2+z
1/4-y,3/4+x,3/4+z
1/2-x,-y,1/2+z
3/4+y,3/4-x,3/4+z
1/2-x,1/2-y,1/2-z
3/4+y,1/4-x,1/4-z
1/2+x,y,1/2-z
1/4-y,1/4+x,1/4-z
loop_
_atom_site_type_symbol
_atom_site_label
_atom_site_fract_x
_atom_site_fract_y
_atom_site_fract_z
Si Si1 0.878616 0.974254 0.981229
Si Si2 0.301683 0.385131 0.957547
Si Si3 0.829997 0.222155 0.125420
Si Si4 0.349390 0.625359 0.914144
Si Si5 0.500000 0.250000 0.741975
Si Si6 0.874993 0.790522 0.056826
O O1 0.899591 0.969078 0.920916
O O2 0.785783 0.062028 0.997266
O O3 0.843568 0.861245 0.007900
O O4 0.000000 0.000000 0.000000
O O5 0.329250 0.496951 0.927185
O O6 0.218551 0.299222 0.931674
O O7 0.409086 0.319823 0.976502
O O8 0.896379 0.326062 0.149371
O O9 0.745064 0.279585 0.087876
O O10 0.436628 0.666492 0.955069
O O11 0.386712 0.630128 0.856559
O O12 0.000000 0.750000 0.048389
#
# Coordination Sequence:
#
# PCOD9546800 Si02
#       6
#    16  16  16  16   8  16
#     4  12  24  43  73 110 146 188 247 309 394 447
#     4  12  28  48  74 106 150 201 257 308 380 457
#     4  11  25  41  72 115 152 187 239 314 397 460
#     4  12  26  48  74 108 148 198 254 313 375 461
#     4  12  30  50  75 104 152 210 257 312 376 470
#     4  12  26  46  75 111 149 194 248 322 390 466
#
# _framework density 22.511119999999998
#
# number of rings (size 3 to 8) (size 9 to 14) (size 15 to 20)
#    0.000    0.182    6.364    1.636    5.091    2.909 
#    0.000    0.000    0.000    0.000    0.000    0.000 
#    0.000    0.000    0.000    0.000    0.000    0.000 
#
# Total GULP energy -245460.311257 kJ/mol
# GULP energy per Si atom -5578.643438 kJ/mol
# Density = 2.245988 g / cm^3
# Si number density = 22.511120 Si / 1000 Ang^3
#
#
#
# Elastic Constant Matrix: (Units=GPa)
#
#
# Indices 1 2 3 4 5 6 
#
# 1 124.0686 63.1226 30.1848 0.0000 0.0000 -7.3640
# 2 63.1226 124.0686 30.1848 0.0000 0.0000 7.3640
# 3 30.1848 30.1848 59.8988 0.0000 0.0000 0.0000
# 4 0.0000 0.0000 0.0000 7.8844 0.0000 0.0000
# 5 0.0000 0.0000 0.0000 0.0000 7.8844 0.0000
# 6 -7.3640 7.3640 0.0000 0.0000 0.0000 57.5833
#
#
#
# Elastic Compliance Matrix: (Units=1/GPa)
#
#
# Indices 1 2 3 4 5 6 
#
# 1 0.011655 -0.005276 -0.003214 0.000000 0.000000 0.002165
# 2 -0.005276 0.011655 -0.003214 0.000000 0.000000 -0.002165
# 3 -0.003214 -0.003214 0.019935 0.000000 0.000000 0.000000
# 4 0.000000 0.000000 0.000000 0.126832 0.000000 0.000000
# 5 0.000000 0.000000 0.000000 0.000000 0.126832 0.000000
# 6 0.002165 -0.002165 0.000000 0.000000 0.000000 0.017920
#
#
# Mechanical properties :
#
#
# Convention : Reuss Voigt Hill
#
# Bulk Modulus (GPa) = 50.41777 61.66894 56.04335
# Shear Modulus (GPa) = 14.49903 26.97336 20.73619
#
# Velocity S-wave (km/s) = 2.54063 3.46529 3.03834
# Velocity P-wave (km/s) = 5.57242 6.59283 6.10398
#
# Compressibility (1/GPa) = 0.01983428
#
# Stress axis : x y z
#
# Youngs Moduli (GPa) = 85.80004 85.80004 50.16418
#
# Poissons Ratio (x) = 0.45270 0.16125
# Poissons Ratio (y) = 0.45270 0.16125
# Poissons Ratio (z) = 0.27580 0.27580
#
# Static dielectric constant tensor:
#      x y z
#    x 1.958340 0.000000 0.000000 
#    y 0.000000 1.958340 0.000000 
#    z 0.000000 0.000000 1.819980 
# 
# From -- ./inp_files/6469.got.cif
#   From: 2010.05.17/outbox.cif.g08.bks.cpg/sg88_4_cif.got.tgz:6469.got - 2010.06.03 19:11:41.
