data_PCOD9546707
_publ_section_title
;
Structure prediction by ZEFSAII (Michael W. Deem and Ramdas Pophale) SiO2 
 PCOD9546707
Probable space group: I 41/A
;
_chemical_formula_sum "Si O2"
_cell_formula_units_Z 64
_cell_length_a 18.063906
_cell_length_b 18.063906
_cell_length_c 6.754404
_cell_angle_alpha 90.000000
_cell_angle_beta 90.000000
_cell_angle_gamma 90.000000
_cell_volume 2203.993771
_symmetry_space_group_name_H-M "I 41/A"
_symmetry_group_IT_number 88
_space_group.IT_coordinate_system_code '2'
_symmetry_cell_setting 'tetragonal'
loop_
_space_group_symop_operation_xyz
x,y,z
3/4-y,1/4+x,1/4+z
-x,1/2-y,z
1/4+y,1/4-x,1/4+z
-x,-y,-z
1/4+y,3/4-x,3/4-z
x,1/2+y,-z
3/4-y,3/4+x,3/4-z
1/2+x,1/2+y,1/2+z
1/4-y,3/4+x,3/4+z
1/2-x,-y,1/2+z
3/4+y,3/4-x,3/4+z
1/2-x,1/2-y,1/2-z
3/4+y,1/4-x,1/4-z
1/2+x,y,1/2-z
1/4-y,1/4+x,1/4-z
loop_
_atom_site_type_symbol
_atom_site_label
_atom_site_fract_x
_atom_site_fract_y
_atom_site_fract_z
Si Si1 0.446121 0.123729 0.669926
Si Si2 0.348420 0.459645 0.106764
Si Si3 0.593964 0.852662 0.864978
Si Si4 0.745837 0.808078 0.977762
O O1 0.367142 0.132993 0.568329
O O2 0.515558 0.167558 0.583045
O O3 0.478697 0.039442 0.677984
O O4 0.432636 0.140640 0.904073
O O5 0.274689 0.429886 0.994733
O O6 0.408956 0.485787 0.948440
O O7 0.557817 0.915823 0.731288
O O8 0.685031 0.861018 0.867186
#
# Coordination Sequence:
#
# PCOD9546707 Si02
#       4
#    16  16  16  16
#     4   9  18  27  46  73 105 131 170 218 272 317
#     4  11  20  34  53  75 101 142 182 224 265 322
#     4   9  17  26  43  69 102 135 161 210 270 320
#     4   9  16  28  47  69 101 135 165 209 267 315
#
# _framework density 29.038198000000001
#
# number of rings (size 3 to 8) (size 9 to 14) (size 15 to 20)
#    1.500    1.000    5.000    0.750    0.000    0.500 
#    0.000    0.000    0.000    6.000    0.000    0.000 
#    0.000    0.000    1.000    0.000    0.000    0.000 
#
# Total GULP energy -178748.260681 kJ/mol
# GULP energy per Si atom -5585.883146 kJ/mol
# Density = 2.897211 g / cm^3
# Si number density = 29.038198 Si / 1000 Ang^3
#
#
#
# Elastic Constant Matrix: (Units=GPa)
#
#
# Indices 1 2 3 4 5 6 
#
# 1 193.6422 35.8051 26.5335 0.0000 0.0000 18.5040
# 2 35.8051 193.6422 26.5335 0.0000 0.0000 -18.5040
# 3 26.5335 26.5335 65.7540 0.0000 0.0000 0.0000
# 4 0.0000 0.0000 0.0000 46.6434 0.0000 0.0000
# 5 0.0000 0.0000 0.0000 0.0000 46.6434 0.0000
# 6 18.5040 -18.5040 0.0000 0.0000 0.0000 48.6517
#
#
#
# Elastic Compliance Matrix: (Units=1/GPa)
#
#
# Indices 1 2 3 4 5 6 
#
# 1 0.005881 -0.001075 -0.001940 0.000000 0.000000 -0.002646
# 2 -0.001075 0.005881 -0.001940 0.000000 0.000000 0.002646
# 3 -0.001940 -0.001940 0.016774 0.000000 0.000000 0.000000
# 4 0.000000 0.000000 0.000000 0.021439 0.000000 0.000000
# 5 0.000000 0.000000 0.000000 0.000000 0.021439 0.000000
# 6 -0.002646 0.002646 0.000000 0.000000 0.000000 0.022567
#
#
# Mechanical properties :
#
#
# Convention : Reuss Voigt Hill
#
# Bulk Modulus (GPa) = 53.68083 70.08696 61.88390
# Shear Modulus (GPa) = 45.41359 52.66546 49.03953
#
# Velocity S-wave (km/s) = 3.95894 4.26333 4.11395
# Velocity P-wave (km/s) = 6.27886 6.95868 6.62749
#
# Compressibility (1/GPa) = 0.01862862
#
# Stress axis : x y z
#
# Youngs Moduli (GPa) = 170.02640 170.02640 59.61724
#
# Poissons Ratio (x) = 0.18270 0.11564
# Poissons Ratio (y) = 0.18270 0.11564
# Poissons Ratio (z) = 0.32980 0.32980
#
# Static dielectric constant tensor:
#      x y z
#    x 2.263130 0.000000 0.000000 
#    y 0.000000 2.263130 0.000000 
#    z 0.000000 0.000000 2.468490 
# 
# From -- ./inp_files/2360.got.cif
#   From: 2010.05.17/outbox.cif.g08.bks.cpg/sg88_2_cif.got.tgz:2360.got - 2010.06.03 19:11:41.
