data_PCOD9546531
_publ_section_title
;
Structure prediction by ZEFSAII (Michael W. Deem and Ramdas Pophale) SiO2 
 PCOD9546531
Probable space group: I 41/A
;
_chemical_formula_sum "Si O2"
_cell_formula_units_Z 64
_cell_length_a 15.041028
_cell_length_b 15.041028
_cell_length_c 12.794509
_cell_angle_alpha 90.000000
_cell_angle_beta 90.000000
_cell_angle_gamma 90.000000
_cell_volume 2894.534055
_symmetry_space_group_name_H-M "I 41/A"
_symmetry_group_IT_number 88
_space_group.IT_coordinate_system_code '2'
_symmetry_cell_setting 'tetragonal'
loop_
_space_group_symop_operation_xyz
x,y,z
3/4-y,1/4+x,1/4+z
-x,1/2-y,z
1/4+y,1/4-x,1/4+z
-x,-y,-z
1/4+y,3/4-x,3/4-z
x,1/2+y,-z
3/4-y,3/4+x,3/4-z
1/2+x,1/2+y,1/2+z
1/4-y,3/4+x,3/4+z
1/2-x,-y,1/2+z
3/4+y,3/4-x,3/4+z
1/2-x,1/2-y,1/2-z
3/4+y,1/4-x,1/4-z
1/2+x,y,1/2-z
1/4-y,1/4+x,1/4-z
loop_
_atom_site_type_symbol
_atom_site_label
_atom_site_fract_x
_atom_site_fract_y
_atom_site_fract_z
Si Si1 0.395354 0.000067 0.113489
Si Si2 0.883252 0.152545 0.236839
Si Si3 0.599074 0.647452 0.750000
Si Si4 0.909757 0.020948 0.623504
O O1 0.351496 0.074939 0.186383
O O2 0.337144 0.914906 0.088823
O O3 0.489261 0.969954 0.163501
O O4 0.415027 0.040512 0.000137
O O5 0.862885 0.129385 0.116653
O O6 0.858852 0.254602 0.263087
O O7 0.991245 0.154703 0.246847
O O8 0.619814 0.577360 0.840145
#
# Coordination Sequence:
#
# PCOD9546531 Si02
#       4
#    16  16  16  16
#     4  10  22  38  56  82 117 155 192 230 278 342
#     4   8  15  32  60  89 112 138 183 246 305 345
#     4   8  15  32  60  89 112 138 183 246 305 345
#     4  10  22  38  56  82 117 155 192 230 278 342
#
# _framework density 22.11064
#
# number of rings (size 3 to 8) (size 9 to 14) (size 15 to 20)
#    0.000    3.000    0.000    1.500    0.000    4.500 
#    0.000    5.000    0.000   10.500    0.000    0.000 
#    0.000    1.000    0.000    0.000    0.000    0.000 
#
# Total GULP energy -178439.440868 kJ/mol
# GULP energy per Si atom -5576.232527 kJ/mol
# Density = 2.206031 g / cm^3
# Si number density = 22.110640 Si / 1000 Ang^3
#
#
#
# Elastic Constant Matrix: (Units=GPa)
#
#
# Indices 1 2 3 4 5 6 
#
# 1 63.5864 39.3950 20.5327 0.0000 0.0000 4.2096
# 2 39.3950 63.5864 20.5327 0.0000 0.0000 -4.2096
# 3 20.5327 20.5327 70.5029 0.0000 0.0000 0.0000
# 4 0.0000 0.0000 0.0000 46.0717 0.0000 0.0000
# 5 0.0000 0.0000 0.0000 0.0000 46.0717 0.0000
# 6 4.2096 -4.2096 0.0000 0.0000 0.0000 12.8760
#
#
#
# Elastic Compliance Matrix: (Units=1/GPa)
#
#
# Indices 1 2 3 4 5 6 
#
# 1 0.028815 -0.017829 -0.003200 0.000000 0.000000 -0.015250
# 2 -0.017829 0.028815 -0.003200 0.000000 0.000000 0.015250
# 3 -0.003200 -0.003200 0.016047 0.000000 0.000000 0.000000
# 4 0.000000 0.000000 0.000000 0.021705 0.000000 0.000000
# 5 0.000000 0.000000 0.000000 0.000000 0.021705 0.000000
# 6 -0.015250 0.015250 0.000000 0.000000 0.000000 0.087635
#
#
# Mechanical properties :
#
#
# Convention : Reuss Voigt Hill
#
# Bulk Modulus (GPa) = 39.64814 39.84407 39.74610
# Shear Modulus (GPa) = 19.11410 28.81824 23.96617
#
# Velocity S-wave (km/s) = 2.94339 3.61413 3.29587
# Velocity P-wave (km/s) = 5.43341 5.95612 5.70076
#
# Compressibility (1/GPa) = 0.02522186
#
# Stress axis : x y z
#
# Youngs Moduli (GPa) = 34.70381 34.70381 62.31524
#
# Poissons Ratio (x) = 0.61873 0.19938
# Poissons Ratio (y) = 0.61873 0.19938
# Poissons Ratio (z) = 0.11104 0.11104
#
# Static dielectric constant tensor:
#      x y z
#    x 1.861890 0.000000 0.000000 
#    y 0.000000 1.861890 0.000000 
#    z 0.000000 0.000000 1.833160 
# 
# From -- ./inp_files/3066.got.cif
#   From: 2010.05.17/outbox.cif.g08.bks.cpg/sg88_2_cif.got.tgz:3066.got - 2010.06.03 19:11:41.
