data_PCOD9546566
_publ_section_title
;
Structure prediction by ZEFSAII (Michael W. Deem and Ramdas Pophale) SiO2 
 PCOD9546566
Probable space group: I 41/A
;
_chemical_formula_sum "Si O2"
_cell_formula_units_Z 52
_cell_length_a 10.380585
_cell_length_b 10.380585
_cell_length_c 20.633735
_cell_angle_alpha 90.000000
_cell_angle_beta 90.000000
_cell_angle_gamma 90.000000
_cell_volume 2223.419993
_symmetry_space_group_name_H-M "I 41/A"
_symmetry_group_IT_number 88
_space_group.IT_coordinate_system_code '2'
_symmetry_cell_setting 'tetragonal'
loop_
_space_group_symop_operation_xyz
x,y,z
3/4-y,1/4+x,1/4+z
-x,1/2-y,z
1/4+y,1/4-x,1/4+z
-x,-y,-z
1/4+y,3/4-x,3/4-z
x,1/2+y,-z
3/4-y,3/4+x,3/4-z
1/2+x,1/2+y,1/2+z
1/4-y,3/4+x,3/4+z
1/2-x,-y,1/2+z
3/4+y,3/4-x,3/4+z
1/2-x,1/2-y,1/2-z
3/4+y,1/4-x,1/4-z
1/2+x,y,1/2-z
1/4-y,1/4+x,1/4-z
loop_
_atom_site_type_symbol
_atom_site_label
_atom_site_fract_x
_atom_site_fract_y
_atom_site_fract_z
Si Si1 0.619750 0.415858 0.361830
Si Si2 0.500000 0.250000 0.875000
Si Si3 0.112910 0.170054 0.505909
Si Si4 0.731898 0.072993 0.528235
O O1 0.658669 0.283874 0.397670
O O2 0.651909 0.535434 0.408319
O O3 0.688687 0.414733 0.292266
O O4 0.608408 0.300725 0.826496
O O5 0.214504 0.282001 0.524996
O O6 0.161377 0.040493 0.474573
O O7 0.000000 0.250000 0.469299
#
# Coordination Sequence:
#
# PCOD9546566 Si02
#       4
#    16   4  16  16
#     4  11  25  46  70 100 134 180 235 289 348 422
#     4   8  20  36  60  96 136 180 220 290 324 424
#     4  10  22  40  65  98 143 177 227 282 341 412
#     4  12  22  46  68 102 134 189 229 286 348 411
#
# _framework density 23.387392999999999
#
# number of rings (size 3 to 8) (size 9 to 14) (size 15 to 20)
#    0.923    0.308    3.077    3.692    0.000    0.000 
#    5.538    0.000    0.000    0.000    0.000    0.000 
#    0.000    0.000    0.000    0.000    0.000    0.000 
#
# Total GULP energy -144906.125978 kJ/mol
# GULP energy per Si atom -5573.312538 kJ/mol
# Density = 2.333416 g / cm^3
# Si number density = 23.387393 Si / 1000 Ang^3
#
#
#
# Elastic Constant Matrix: (Units=GPa)
#
#
# Indices 1 2 3 4 5 6 
#
# 1 68.5202 29.3601 11.8277 0.0000 0.0000 -3.5460
# 2 29.3601 68.5202 11.8277 0.0000 0.0000 3.5460
# 3 11.8277 11.8277 66.2282 0.0000 0.0000 0.0000
# 4 0.0000 0.0000 0.0000 24.7234 0.0000 0.0000
# 5 0.0000 0.0000 0.0000 0.0000 24.7234 0.0000
# 6 -3.5460 3.5460 0.0000 0.0000 0.0000 41.6943
#
#
#
# Elastic Compliance Matrix: (Units=1/GPa)
#
#
# Indices 1 2 3 4 5 6 
#
# 1 0.018307 -0.007629 -0.001907 0.000000 0.000000 0.002206
# 2 -0.007629 0.018307 -0.001907 0.000000 0.000000 -0.002206
# 3 -0.001907 -0.001907 0.015780 0.000000 0.000000 0.000000
# 4 0.000000 0.000000 0.000000 0.040448 0.000000 0.000000
# 5 0.000000 0.000000 0.000000 0.000000 0.040448 0.000000
# 6 0.002206 -0.002206 0.000000 0.000000 0.000000 0.024359
#
#
# Mechanical properties :
#
#
# Convention : Reuss Voigt Hill
#
# Bulk Modulus (GPa) = 33.88946 34.36663 34.12804
# Shear Modulus (GPa) = 26.26468 28.24506 27.25487
#
# Velocity S-wave (km/s) = 3.35480 3.47897 3.41745
# Velocity P-wave (km/s) = 5.43398 5.55555 5.49510
#
# Compressibility (1/GPa) = 0.02950770
#
# Stress axis : x y z
#
# Youngs Moduli (GPa) = 54.62521 54.62521 63.36970
#
# Poissons Ratio (x) = 0.41674 0.12084
# Poissons Ratio (y) = 0.41674 0.12084
# Poissons Ratio (z) = 0.10416 0.10416
#
# Static dielectric constant tensor:
#      x y z
#    x 1.962500 0.000000 0.000000 
#    y 0.000000 1.962500 0.000000 
#    z 0.000000 0.000000 1.973030 
# 
# From -- ./inp_files/4274.got.cif
#   From: 2010.05.17/outbox.cif.g08.bks.cpg/sg88_3_cif.got.tgz:4274.got - 2010.06.03 19:11:41.
