data_PCOD9546220
_publ_section_title
;
Structure prediction by ZEFSAII (Michael W. Deem and Ramdas Pophale) SiO2 
 PCOD9546220
Probable space group: I 41/A
;
_chemical_formula_sum "Si O2"
_cell_formula_units_Z 112
_cell_length_a 14.317288
_cell_length_b 14.317288
_cell_length_c 31.756405
_cell_angle_alpha 90.000000
_cell_angle_beta 90.000000
_cell_angle_gamma 90.000000
_cell_volume 6509.578285
_symmetry_space_group_name_H-M "I 41/A"
_symmetry_group_IT_number 88
_space_group.IT_coordinate_system_code '2'
_symmetry_cell_setting 'tetragonal'
loop_
_space_group_symop_operation_xyz
x,y,z
3/4-y,1/4+x,1/4+z
-x,1/2-y,z
1/4+y,1/4-x,1/4+z
-x,-y,-z
1/4+y,3/4-x,3/4-z
x,1/2+y,-z
3/4-y,3/4+x,3/4-z
1/2+x,1/2+y,1/2+z
1/4-y,3/4+x,3/4+z
1/2-x,-y,1/2+z
3/4+y,3/4-x,3/4+z
1/2-x,1/2-y,1/2-z
3/4+y,1/4-x,1/4-z
1/2+x,y,1/2-z
1/4-y,1/4+x,1/4-z
loop_
_atom_site_type_symbol
_atom_site_label
_atom_site_fract_x
_atom_site_fract_y
_atom_site_fract_z
Si Si1 0.088664 0.645959 0.514295
Si Si2 0.248739 0.585791 0.071239
Si Si3 0.391466 0.250853 0.927150
Si Si4 0.649024 0.002370 0.148171
Si Si5 0.483457 0.644986 0.856040
Si Si6 0.608388 0.327176 0.053139
Si Si7 0.240400 0.530221 0.234231
O O1 0.111965 0.702285 0.472603
O O2 0.128921 0.716602 0.549680
O O3 0.132491 0.546014 0.505496
O O4 0.979074 0.646290 0.523064
O O5 0.340729 0.651857 0.068066
O O6 0.275649 0.519782 0.111294
O O7 0.167255 0.660726 0.079860
O O8 0.225776 0.534142 0.027288
O O9 0.500000 0.250000 0.916643
O O10 0.332655 0.323043 0.898667
O O11 0.696808 0.006366 0.194843
O O12 0.582468 0.091368 0.140684
O O13 0.500000 0.750000 0.840372
O O14 0.432772 0.651511 0.901232
O O15 0.689994 0.394252 0.038156
#
# Coordination Sequence:
#
# PCOD9546220 Si02
#       7
#    16  16  16  16  16  16  16
#     4  10  18  29  49  79 111 161 192 214 266 334
#     4  11  22  35  55  82 114 158 197 235 293 334
#     4  10  19  30  46  78 126 163 185 219 262 343
#     4  10  24  35  52  85 115 155 198 235 288 340
#     4  11  23  40  57  80 118 156 198 246 294 347
#     4  11  18  33  52  80 118 161 191 216 270 344
#     4  11  21  36  54  81 121 141 193 244 279 339
#
# _framework density 17.205414999999999
#
# number of rings (size 3 to 8) (size 9 to 14) (size 15 to 20)
#    0.000    1.429    5.714    1.286    4.000    1.143 
#    0.000    0.714    0.000    0.000    0.000    0.000 
#    0.000    0.000    0.000    0.000    0.000    0.000 
#
# Total GULP energy -311736.055592 kJ/mol
# GULP energy per Si atom -5566.715278 kJ/mol
# Density = 1.716625 g / cm^3
# Si number density = 17.205415 Si / 1000 Ang^3
#
#
#
# Elastic Constant Matrix: (Units=GPa)
#
#
# Indices 1 2 3 4 5 6 
#
# 1 112.1025 -25.9617 19.4843 0.0000 0.0000 111.2883
# 2 -25.9617 112.1025 19.4843 0.0000 0.0000 -111.2883
# 3 19.4843 19.4843 89.5094 0.0000 0.0000 0.0000
# 4 0.0000 0.0000 0.0000 18.0223 0.0000 0.0000
# 5 0.0000 0.0000 0.0000 0.0000 18.0223 0.0000
# 6 111.2883 -111.2883 0.0000 0.0000 0.0000 303.6406
#
#
#
# Elastic Compliance Matrix: (Units=1/GPa)
#
#
# Indices 1 2 3 4 5 6 
#
# 1 0.015290 -0.002413 -0.002803 0.000000 0.000000 -0.006488
# 2 -0.002413 0.015290 -0.002803 0.000000 0.000000 0.006488
# 3 -0.002803 -0.002803 0.012392 0.000000 0.000000 0.000000
# 4 0.000000 0.000000 0.000000 0.055487 0.000000 0.000000
# 5 0.000000 0.000000 0.000000 0.000000 0.055487 0.000000
# 6 -0.006488 0.006488 0.000000 0.000000 0.000000 0.008050
#
#
# Mechanical properties :
#
#
# Convention : Reuss Voigt Hill
#
# Bulk Modulus (GPa) = 37.12772 37.74761 37.43767
# Shear Modulus (GPa) = 26.73626 87.98423 57.36024
#
# Velocity S-wave (km/s) = 3.94629 7.15881 5.78021
# Velocity P-wave (km/s) = 6.51077 9.50360 8.14581
#
# Compressibility (1/GPa) = 0.02693405
#
# Stress axis : x y z
#
# Youngs Moduli (GPa) = 65.40194 65.40194 80.69499
#
# Poissons Ratio (x) = 0.15782 0.22619
# Poissons Ratio (y) = 0.15782 0.22619
# Poissons Ratio (z) = 0.18332 0.18332
#
# Static dielectric constant tensor:
#      x y z
#    x 1.637680 0.000000 0.000000 
#    y 0.000000 1.637680 0.000000 
#    z 0.000000 0.000000 1.628840 
# 
# From -- ./inp_files/6573.got.cif
#   From: 2010.05.17/outbox.cif.g08.bks.cpg/sg88_4_cif.got.tgz:6573.got - 2010.06.03 19:11:41.
