data_PCOD9546170
_publ_section_title
;
Structure prediction by ZEFSAII (Michael W. Deem and Ramdas Pophale) SiO2 
 PCOD9546170
Probable space group: I 4/M
;
_chemical_formula_sum "Si O2"
_cell_formula_units_Z 80
_cell_length_a 10.222771
_cell_length_b 10.222771
_cell_length_c 35.815702
_cell_angle_alpha 90.000000
_cell_angle_beta 90.000000
_cell_angle_gamma 90.000000
_cell_volume 3742.921618
_symmetry_space_group_name_H-M "I 4/M"
_symmetry_group_IT_number 87
_symmetry_cell_setting 'tetragonal'
loop_
_space_group_symop_operation_xyz
x,y,z
-y,x,z
-x,-y,z
y,-x,z
-x,-y,-z
y,-x,-z
x,y,-z
-y,x,-z
1/2+x,1/2+y,1/2+z
1/2-y,1/2+x,1/2+z
1/2-x,1/2-y,1/2+z
1/2+y,1/2-x,1/2+z
1/2-x,1/2-y,1/2-z
1/2+y,1/2-x,1/2-z
1/2+x,1/2+y,1/2-z
1/2-y,1/2+x,1/2-z
loop_
_atom_site_type_symbol
_atom_site_label
_atom_site_fract_x
_atom_site_fract_y
_atom_site_fract_z
Si Si1 0.396812 0.305003 0.958353
Si Si2 0.717440 0.540746 0.831363
Si Si3 0.283054 0.452010 0.750830
Si Si4 0.926143 0.621049 0.392878
Si Si5 0.548679 0.283735 0.669139
O O1 0.552820 0.330972 0.955482
O O2 0.363765 0.213107 0.923982
O O3 0.368985 0.253012 0.000000
O O4 0.600729 0.645483 0.832899
O O5 0.784751 0.561427 0.790981
O O6 0.806777 0.535661 0.867415
O O7 0.404954 0.350764 0.751132
O O8 0.219925 0.434765 0.710429
O O9 0.818201 0.574732 0.363269
O O10 0.000000 0.500000 0.411503
O O11 0.650459 0.405129 0.666929
#
# Coordination Sequence:
#
# PCOD9546170 Si02
#       5
#    16  16  16  16  16
#     4   9  20  42  71  95 115 144 180 229 299 362
#     4   9  18  35  58  80 108 147 194 253 309 341
#     4   7  12  30  55  73  95 146 206 243 285 333
#     4  12  25  34  54  91 123 147 187 240 286 341
#     4   9  20  39  57  73 110 166 208 234 272 339
#
# _framework density 21.373676
#
# number of rings (size 3 to 8) (size 9 to 14) (size 15 to 20)
#    0.000    2.800    0.000    4.200    5.600    2.000 
#    3.600    3.000    0.000    0.000    0.000    1.400 
#    0.000    0.000    0.000    0.000    0.000    0.000 
#
# Total GULP energy -223456.656109 kJ/mol
# GULP energy per Si atom -5586.416403 kJ/mol
# Density = 2.132503 g / cm^3
# Si number density = 21.373676 Si / 1000 Ang^3
#
#
#
# Elastic Constant Matrix: (Units=GPa)
#
#
# Indices 1 2 3 4 5 6 
#
# 1 40.4170 8.6209 13.5615 0.0000 0.0000 3.8294
# 2 8.6209 40.4170 13.5615 0.0000 0.0000 -3.8294
# 3 13.5615 13.5615 108.2205 0.0000 0.0000 0.0000
# 4 0.0000 0.0000 0.0000 -532.7162 0.0008 0.0000
# 5 0.0000 0.0000 0.0000 0.0008 -532.7162 0.0000
# 6 3.8294 -3.8294 0.0000 0.0000 0.0000 15.1006
#
#
#
# Elastic Compliance Matrix: (Units=1/GPa)
#
#
# Indices 1 2 3 4 5 6 
#
# 1 0.027704 -0.005793 -0.002746 0.000000 0.000000 -0.008494
# 2 -0.005793 0.027704 -0.002746 0.000000 0.000000 0.008494
# 3 -0.002746 -0.002746 0.009929 0.000000 0.000000 0.000000
# 4 0.000000 0.000000 0.000000 -0.001877 0.000000 0.000000
# 5 0.000000 0.000000 0.000000 0.000000 -0.001877 0.000000
# 6 -0.008494 0.008494 0.000000 0.000000 0.000000 0.070531
#
#
# Mechanical properties :
#
#
# Convention : Reuss Voigt Hill
#
# Bulk Modulus (GPa) = 23.38217 28.94917 26.16567
# Shear Modulus (GPa) = 29.59687 -199.84567 -85.12440
#
# Velocity S-wave (km/s) = 3.72524 -9.68007 -6.31769
# Velocity P-wave (km/s) = 5.42832 10.55295 6.39914
#
# Compressibility (1/GPa) = 0.04276763
#
# Stress axis : x y z
#
# Youngs Moduli (GPa) = 36.09622 36.09622 100.71954
#
# Poissons Ratio (x) = 0.20909 0.27655
# Poissons Ratio (y) = 0.20909 0.27655
# Poissons Ratio (z) = 0.09911 0.09911
#
# Static dielectric constant tensor:
#      x y z
#    x 1.809700 0.000000 0.000000 
#    y 0.000000 1.809700 0.000000 
#    z 0.000000 0.000000 1.764040 
# 
# From -- ./inp_files/6471.got.cif
#   From: 2010.05.17/outbox.cif.g08.bks.cpg/sg87_4_cif.got.tgz:6471.got - 2010.06.03 19:07:00.
