data_PCOD9546489
_publ_section_title
;
Structure prediction by ZEFSAII (Michael W. Deem and Ramdas Pophale) SiO2 
 PCOD9546489
Probable space group: I 41/A
;
_chemical_formula_sum "Si O2"
_cell_formula_units_Z 112
_cell_length_a 17.338464
_cell_length_b 17.338464
_cell_length_c 19.196115
_cell_angle_alpha 90.000000
_cell_angle_beta 90.000000
_cell_angle_gamma 90.000000
_cell_volume 5770.780893
_symmetry_space_group_name_H-M "I 41/A"
_symmetry_group_IT_number 88
_space_group.IT_coordinate_system_code '2'
_symmetry_cell_setting 'tetragonal'
loop_
_space_group_symop_operation_xyz
x,y,z
3/4-y,1/4+x,1/4+z
-x,1/2-y,z
1/4+y,1/4-x,1/4+z
-x,-y,-z
1/4+y,3/4-x,3/4-z
x,1/2+y,-z
3/4-y,3/4+x,3/4-z
1/2+x,1/2+y,1/2+z
1/4-y,3/4+x,3/4+z
1/2-x,-y,1/2+z
3/4+y,3/4-x,3/4+z
1/2-x,1/2-y,1/2-z
3/4+y,1/4-x,1/4-z
1/2+x,y,1/2-z
1/4-y,1/4+x,1/4-z
loop_
_atom_site_type_symbol
_atom_site_label
_atom_site_fract_x
_atom_site_fract_y
_atom_site_fract_z
Si Si1 0.909152 0.252743 0.349019
Si Si2 0.652011 0.575284 0.433373
Si Si3 0.769098 0.714850 0.404678
Si Si4 0.746766 0.016990 0.437347
Si Si5 0.681403 0.850826 0.232069
Si Si6 0.109372 0.573212 0.642628
Si Si7 0.090125 0.243712 0.516178
O O1 0.859182 0.184203 0.315957
O O2 0.883008 0.339318 0.331407
O O3 0.903891 0.243339 0.433187
O O4 0.000000 0.250000 0.331068
O O5 0.709750 0.646153 0.417705
O O6 0.683996 0.539997 0.505068
O O7 0.666953 0.517103 0.368687
O O8 0.790503 0.712621 0.322852
O O9 0.725963 0.792361 0.428834
O O10 0.849123 0.701748 0.445372
O O11 0.825741 0.987306 0.473552
O O12 0.716894 0.941631 0.396879
O O13 0.673998 0.830938 0.312817
O O14 0.592356 0.866539 0.213023
O O15 0.000000 0.250000 0.535225
#
# Coordination Sequence:
#
# PCOD9546489 Si02
#       7
#    16  16  16  16  16  16  16
#     4  10  21  41  61  87 120 161 209 259 317 378
#     4  11  23  40  62  91 120 162 212 264 313 382
#     4  11  22  35  59  86 125 167 206 254 305 373
#     4  11  22  39  62  88 124 159 204 256 318 377
#     4  10  22  35  55  86 124 164 203 248 307 372
#     4  11  21  40  61  84 120 166 207 255 321 373
#     4  10  22  35  56  89 129 165 204 248 303 379
#
# _framework density 19.40812
#
# number of rings (size 3 to 8) (size 9 to 14) (size 15 to 20)
#    0.000    1.429    4.286    1.286    2.000    0.571 
#    0.000    0.000    0.000    0.000    0.000    0.000 
#    0.000    0.000    0.000    0.000    0.000    0.000 
#
# Total GULP energy -312468.047093 kJ/mol
# GULP energy per Si atom -5579.786555 kJ/mol
# Density = 1.936395 g / cm^3
# Si number density = 19.408120 Si / 1000 Ang^3
#
#
#
# Elastic Constant Matrix: (Units=GPa)
#
#
# Indices 1 2 3 4 5 6 
#
# 1 67.3216 32.9370 17.8747 0.0000 0.0000 -0.5210
# 2 32.9370 67.3217 17.8747 0.0000 0.0000 0.5210
# 3 17.8747 17.8747 44.4168 0.0000 0.0000 0.0000
# 4 0.0000 0.0000 0.0000 19.6992 0.0000 0.0000
# 5 0.0000 0.0000 0.0000 0.0000 19.6992 0.0000
# 6 -0.5210 0.5210 0.0000 0.0000 0.0000 36.7311
#
#
#
# Elastic Compliance Matrix: (Units=1/GPa)
#
#
# Indices 1 2 3 4 5 6 
#
# 1 0.020370 -0.008725 -0.004686 0.000000 0.000000 0.000413
# 2 -0.008725 0.020370 -0.004686 0.000000 0.000000 -0.000413
# 3 -0.004686 -0.004686 0.026286 0.000000 0.000000 0.000000
# 4 0.000000 0.000000 0.000000 0.050763 0.000000 0.000000
# 5 0.000000 0.000000 0.000000 0.000000 0.050763 0.000000
# 6 0.000413 -0.000413 0.000000 0.000000 0.000000 0.027237
#
#
# Mechanical properties :
#
#
# Convention : Reuss Voigt Hill
#
# Bulk Modulus (GPa) = 32.43514 35.15921 33.79718
# Shear Modulus (GPa) = 20.63877 22.58414 21.61145
#
# Velocity S-wave (km/s) = 3.26453 3.41492 3.34057
# Velocity P-wave (km/s) = 5.56399 5.80551 5.68603
#
# Compressibility (1/GPa) = 0.03083076
#
# Stress axis : x y z
#
# Youngs Moduli (GPa) = 49.09121 49.09121 38.04322
#
# Poissons Ratio (x) = 0.42832 0.17829
# Poissons Ratio (y) = 0.42832 0.17829
# Poissons Ratio (z) = 0.23006 0.23006
#
# Static dielectric constant tensor:
#      x y z
#    x 1.701060 0.000000 0.000000 
#    y 0.000000 1.701060 0.000000 
#    z 0.000000 0.000000 1.686700 
# 
# From -- ./inp_files/5354.got.cif
#   From: 2010.05.17/outbox.cif.g08.bks.cpg/sg88_3_cif.got.tgz:5354.got - 2010.06.03 19:11:41.
