data_PCOD9546932
_publ_section_title
;
Structure prediction by ZEFSAII (Michael W. Deem and Ramdas Pophale) SiO2 
 PCOD9546932
Probable space group: P 4 2 2
;
_chemical_formula_sum "Si O2"
_cell_formula_units_Z 34
_cell_length_a 11.873398
_cell_length_b 11.873398
_cell_length_c 10.143024
_cell_angle_alpha 90.000000
_cell_angle_beta 90.000000
_cell_angle_gamma 90.000000
_cell_volume 1429.938978
_symmetry_space_group_name_H-M "P 4 2 2"
_symmetry_group_IT_number 89
_symmetry_cell_setting 'tetragonal'
loop_
_space_group_symop_operation_xyz
x,y,z
-y,x,z
-x,-y,z
y,-x,z
x,-y,-z
-x,y,-z
y,x,-z
-y,-x,-z
loop_
_atom_site_type_symbol
_atom_site_label
_atom_site_fract_x
_atom_site_fract_y
_atom_site_fract_z
Si Si1 0.321890 0.130052 0.287025
Si Si2 0.632901 0.809806 0.996308
Si Si3 0.322359 0.520675 0.343542
Si Si4 0.754320 0.899921 0.741522
Si Si5 0.000000 0.000000 0.802365
O O1 0.319289 0.129101 0.126794
O O2 0.436490 0.197099 0.316625
O O3 0.214186 0.205573 0.331864
O O4 0.306099 0.002362 0.334641
O O5 0.500000 0.809900 0.000000
O O6 0.685648 0.685648 0.000000
O O7 0.676938 0.865361 0.863280
O O8 0.379234 0.405394 0.293445
O O9 0.329214 0.500000 0.500000
O O10 0.870194 0.952858 0.795199
#
# Coordination Sequence:
#
# PCOD9546932 Si02
#       5
#     8   8   8   8   2
#     4  10  20  35  59  85 122 164 204 249 307 358
#     4  10  22  36  50  83 127 172 213 247 301 364
#     4   9  20  40  65  86 109 151 204 254 310 381
#     4   9  19  35  54  90 126 169 208 252 298 372
#     4   8  16  36  61  76 124 181 230 237 280 368
#
# _framework density 23.777238000000001
#
# number of rings (size 3 to 8) (size 9 to 14) (size 15 to 20)
#    0.000    2.588    0.000    1.412    6.588    4.000 
#    0.000   17.059    0.000   14.118    0.000    0.000 
#    0.000   22.588    0.000    0.000    0.000    0.000 
#
# Total GULP energy -189327.600937 kJ/mol
# GULP energy per Si atom -5568.458851 kJ/mol
# Density = 2.372312 g / cm^3
# Si number density = 23.777238 Si / 1000 Ang^3
#
#
#
# Elastic Constant Matrix: (Units=GPa)
#
#
# Indices 1 2 3 4 5 6 
#
# 1 137.1611 32.0262 10.7953 0.0000 0.0000 0.0000
# 2 32.0262 137.1611 10.7953 0.0000 0.0000 0.0000
# 3 10.7953 10.7953 52.6852 0.0000 0.0000 0.0000
# 4 0.0000 0.0000 0.0000 3.9156 0.0000 0.0000
# 5 0.0000 0.0000 0.0000 0.0000 3.9156 0.0000
# 6 0.0000 0.0000 0.0000 0.0000 0.0000 47.0361
#
#
#
# Elastic Compliance Matrix: (Units=1/GPa)
#
#
# Indices 1 2 3 4 5 6 
#
# 1 0.007790 -0.001721 -0.001244 0.000000 0.000000 0.000000
# 2 -0.001721 0.007790 -0.001244 0.000000 0.000000 0.000000
# 3 -0.001244 -0.001244 0.019490 0.000000 0.000000 0.000000
# 4 0.000000 0.000000 0.000000 0.255390 0.000000 0.000000
# 5 0.000000 0.000000 0.000000 0.000000 0.255390 0.000000
# 6 0.000000 0.000000 0.000000 0.000000 0.000000 0.021260
#
#
# Mechanical properties :
#
#
# Convention : Reuss Voigt Hill
#
# Bulk Modulus (GPa) = 37.51716 48.24900 42.88308
# Shear Modulus (GPa) = 8.55559 29.19948 18.87754
#
# Velocity S-wave (km/s) = 1.89896 3.50815 2.82074
# Velocity P-wave (km/s) = 4.54103 6.06182 5.35568
#
# Compressibility (1/GPa) = 0.02665447
#
# Stress axis : x y z
#
# Youngs Moduli (GPa) = 128.36226 128.36226 51.30756
#
# Poissons Ratio (x) = 0.22093 0.06381
# Poissons Ratio (y) = 0.22093 0.06381
# Poissons Ratio (z) = 0.15963 0.15963
#
# Static dielectric constant tensor:
#      x y z
#    x 1.924900 0.000000 0.000000 
#    y 0.000000 1.924900 0.000000 
#    z 0.000000 0.000000 1.963350 
# 
# From -- ./inp_files/1641.got.cif
#   From: 2010.05.17/outbox.cif.g08.bks.cpg/sg89_1_cif.got.tgz:1641.got - 2010.06.03 19:15:31.
