data_PCOD9546195
_publ_section_title
;
Structure prediction by ZEFSAII (Michael W. Deem and Ramdas Pophale) SiO2 
 PCOD9546195
Probable space group: I 41/A
;
_chemical_formula_sum "Si O2"
_cell_formula_units_Z 72
_cell_length_a 11.499471
_cell_length_b 11.499471
_cell_length_c 24.827520
_cell_angle_alpha 90.000000
_cell_angle_beta 90.000000
_cell_angle_gamma 90.000000
_cell_volume 3283.137451
_symmetry_space_group_name_H-M "I 41/A"
_symmetry_group_IT_number 88
_space_group.IT_coordinate_system_code '2'
_symmetry_cell_setting 'tetragonal'
loop_
_space_group_symop_operation_xyz
x,y,z
3/4-y,1/4+x,1/4+z
-x,1/2-y,z
1/4+y,1/4-x,1/4+z
-x,-y,-z
1/4+y,3/4-x,3/4-z
x,1/2+y,-z
3/4-y,3/4+x,3/4-z
1/2+x,1/2+y,1/2+z
1/4-y,3/4+x,3/4+z
1/2-x,-y,1/2+z
3/4+y,3/4-x,3/4+z
1/2-x,1/2-y,1/2-z
3/4+y,1/4-x,1/4-z
1/2+x,y,1/2-z
1/4-y,1/4+x,1/4-z
loop_
_atom_site_type_symbol
_atom_site_label
_atom_site_fract_x
_atom_site_fract_y
_atom_site_fract_z
Si Si1 0.000000 0.250000 0.456695
Si Si2 0.483668 0.118247 0.149092
Si Si3 0.253397 0.291321 0.996641
Si Si4 0.721823 0.109058 0.326456
Si Si5 0.112263 0.834458 0.812301
O O1 0.996794 0.358815 0.414304
O O2 0.114690 0.242031 0.492087
O O3 0.500000 0.250000 0.171787
O O4 0.352217 0.077878 0.158677
O O5 0.561900 0.033441 0.184948
O O6 0.218055 0.400922 0.033944
O O7 0.176046 0.181734 0.018342
O O8 0.715701 0.242748 0.305642
O O9 0.652560 0.112084 0.382925
O O10 0.000000 0.750000 0.816555
#
# Coordination Sequence:
#
# PCOD9546195 Si02
#       5
#     8  16  16  16  16
#     4  10  22  44  56  92 135 161 212 276 308 386
#     4  10  22  37  57  94 123 159 209 256 329 393
#     4  11  21  36  58  83 127 167 201 263 319 375
#     4  11  17  33  57  88 122 157 202 257 323 390
#     4  10  14  27  52  84 115 153 190 242 319 366
#
# _framework density 21.930240000000001
#
# number of rings (size 3 to 8) (size 9 to 14) (size 15 to 20)
#    0.667    0.889    6.667    2.000    0.000    3.556 
#    0.000    1.111    0.000    0.000    0.000    0.000 
#    0.000    0.000    0.000    0.000    0.000    0.000 
#
# Total GULP energy -200847.667845 kJ/mol
# GULP energy per Si atom -5579.101885 kJ/mol
# Density = 2.188033 g / cm^3
# Si number density = 21.930240 Si / 1000 Ang^3
#
#
#
# Elastic Constant Matrix: (Units=GPa)
#
#
# Indices 1 2 3 4 5 6 
#
# 1 69.6976 -8.6166 13.7774 0.0000 0.0000 8.8134
# 2 -8.6166 69.6976 13.7774 0.0000 0.0000 -8.8134
# 3 13.7774 13.7774 63.7381 0.0000 0.0000 0.0000
# 4 0.0000 0.0000 0.0000 3.5054 0.0000 0.0000
# 5 0.0000 0.0000 0.0000 0.0000 3.5054 0.0000
# 6 8.8134 -8.8134 0.0000 0.0000 0.0000 3.3173
#
#
#
# Elastic Compliance Matrix: (Units=1/GPa)
#
#
# Indices 1 2 3 4 5 6 
#
# 1 0.024952 -0.006811 -0.003921 0.000000 0.000000 -0.084388
# 2 -0.006811 0.024952 -0.003921 0.000000 0.000000 0.084388
# 3 -0.003921 -0.003921 0.017384 0.000000 0.000000 0.000000
# 4 0.000000 0.000000 0.000000 0.285276 0.000000 0.000000
# 5 0.000000 0.000000 0.000000 0.000000 0.285276 0.000000
# 6 -0.084388 0.084388 0.000000 0.000000 0.000000 0.749854
#
#
# Mechanical properties :
#
#
# Convention : Reuss Voigt Hill
#
# Bulk Modulus (GPa) = 26.32909 26.77886 26.55398
# Shear Modulus (GPa) = 3.49733 14.34528 8.92131
#
# Velocity S-wave (km/s) = 1.26421 2.56038 2.01913
# Velocity P-wave (km/s) = 3.76336 4.58019 4.19172
#
# Compressibility (1/GPa) = 0.03798080
#
# Stress axis : x y z
#
# Youngs Moduli (GPa) = 40.07720 40.07720 57.52283
#
# Poissons Ratio (x) = 0.27297 0.22556
# Poissons Ratio (y) = 0.27297 0.22556
# Poissons Ratio (z) = 0.15715 0.15715
#
# Static dielectric constant tensor:
#      x y z
#    x 1.826780 0.000000 0.000000 
#    y 0.000000 1.826780 0.000000 
#    z 0.000000 0.000000 1.879220 
# 
# From -- ./inp_files/5720.got.cif
#   From: 2010.05.17/outbox.cif.g08.bks.cpg/sg88_3_cif.got.tgz:5720.got - 2010.06.03 19:11:41.
