data_PCOD9546224
_publ_section_title
;
Structure prediction by ZEFSAII (Michael W. Deem and Ramdas Pophale) SiO2 
 PCOD9546224
Probable space group: I 41/A
;
_chemical_formula_sum "Si O2"
_cell_formula_units_Z 120
_cell_length_a 21.506323
_cell_length_b 21.506323
_cell_length_c 15.866340
_cell_angle_alpha 90.000000
_cell_angle_beta 90.000000
_cell_angle_gamma 90.000000
_cell_volume 7338.530183
_symmetry_space_group_name_H-M "I 41/A"
_symmetry_group_IT_number 88
_space_group.IT_coordinate_system_code '2'
_symmetry_cell_setting 'tetragonal'
loop_
_space_group_symop_operation_xyz
x,y,z
3/4-y,1/4+x,1/4+z
-x,1/2-y,z
1/4+y,1/4-x,1/4+z
-x,-y,-z
1/4+y,3/4-x,3/4-z
x,1/2+y,-z
3/4-y,3/4+x,3/4-z
1/2+x,1/2+y,1/2+z
1/4-y,3/4+x,3/4+z
1/2-x,-y,1/2+z
3/4+y,3/4-x,3/4+z
1/2-x,1/2-y,1/2-z
3/4+y,1/4-x,1/4-z
1/2+x,y,1/2-z
1/4-y,1/4+x,1/4-z
loop_
_atom_site_type_symbol
_atom_site_label
_atom_site_fract_x
_atom_site_fract_y
_atom_site_fract_z
Si Si1 0.774076 0.634860 0.147472
Si Si2 0.725171 0.942216 0.819605
Si Si3 0.758694 0.404268 0.358048
Si Si4 0.172876 0.071549 0.749175
Si Si5 0.956711 0.382496 0.680627
Si Si6 0.624637 0.804263 0.264530
Si Si7 0.000000 0.750000 0.499238
Si Si8 0.693178 0.679875 0.993729
O O1 0.813438 0.576795 0.111391
O O2 0.734844 0.610998 0.227926
O O3 0.816984 0.692394 0.174384
O O4 0.727438 0.653430 0.074832
O O5 0.734071 0.899760 0.737188
O O6 0.691548 0.914772 0.901711
O O7 0.794222 0.965308 0.846566
O O8 0.687440 0.004427 0.792785
O O9 0.767829 0.341745 0.412235
O O10 0.114180 0.105528 0.707284
O O11 0.965890 0.391555 0.580496
O O12 0.981034 0.312615 0.699240
O O13 0.998612 0.428251 0.737324
O O14 0.564100 0.767226 0.295775
O O15 0.603229 0.876097 0.259228
#
# Coordination Sequence:
#
# PCOD9546224 Si02
#       8
#    16  16  16  16  16  16   8  16
#     4  10  18  30  48  74 100 124 161 200 237 287
#     4   9  17  30  51  70  97 127 152 191 255 291
#     4   9  16  30  51  71  95 126 157 195 239 298
#     4  10  19  30  46  74 101 126 155 199 245 294
#     4  11  20  33  46  64 101 133 164 200 231 285
#     4  10  19  31  49  66  94 136 164 193 236 284
#     4  10  21  36  48  62  92 141 170 187 232 284
#     4  10  19  31  47  71  98 128 165 199 236 283
#
# _framework density 16.352048
#
# number of rings (size 3 to 8) (size 9 to 14) (size 15 to 20)
#    0.000    2.133    2.667    2.800    3.733    0.533 
#    2.400    0.667    0.000    0.000    0.000    0.000 
#    0.000    1.067    0.000    0.000    0.000    0.000 
#
# Total GULP energy -334155.831642 kJ/mol
# GULP energy per Si atom -5569.263861 kJ/mol
# Density = 1.631483 g / cm^3
# Si number density = 16.352048 Si / 1000 Ang^3
#
#
#
# Elastic Constant Matrix: (Units=GPa)
#
#
# Indices 1 2 3 4 5 6 
#
# 1 35.8584 8.8623 14.2811 0.0000 0.0000 1.2042
# 2 8.8623 35.8584 14.2811 0.0000 0.0000 -1.2042
# 3 14.2811 14.2811 80.0878 0.0000 0.0000 0.0000
# 4 0.0000 0.0000 0.0000 13.5128 0.0000 0.0000
# 5 0.0000 0.0000 0.0000 0.0000 13.5128 0.0000
# 6 1.2042 -1.2042 0.0000 0.0000 0.0000 22.3274
#
#
#
# Elastic Compliance Matrix: (Units=1/GPa)
#
#
# Indices 1 2 3 4 5 6 
#
# 1 0.031228 -0.005993 -0.004500 0.000000 0.000000 -0.002007
# 2 -0.005993 0.031228 -0.004500 0.000000 0.000000 0.002007
# 3 -0.004500 -0.004500 0.014091 0.000000 0.000000 0.000000
# 4 0.000000 0.000000 0.000000 0.074004 0.000000 0.000000
# 5 0.000000 0.000000 0.000000 0.000000 0.074004 0.000000
# 6 -0.002007 0.002007 0.000000 0.000000 0.000000 0.045005
#
#
# Mechanical properties :
#
#
# Convention : Reuss Voigt Hill
#
# Bulk Modulus (GPa) = 21.47691 25.18374 23.33033
# Shear Modulus (GPa) = 15.86969 17.49596 16.68282
#
# Velocity S-wave (km/s) = 3.11867 3.27457 3.19757
# Velocity P-wave (km/s) = 5.11182 5.45265 5.28499
#
# Compressibility (1/GPa) = 0.04656163
#
# Stress axis : x y z
#
# Youngs Moduli (GPa) = 32.02227 32.02227 70.96675
#
# Poissons Ratio (x) = 0.19192 0.31934
# Poissons Ratio (y) = 0.19192 0.31934
# Poissons Ratio (z) = 0.14410 0.14410
#
# Static dielectric constant tensor:
#      x y z
#    x 1.575080 0.000000 0.000000 
#    y 0.000000 1.575080 0.000000 
#    z 0.000000 0.000000 1.549800 
# 
# From -- ./inp_files/3373.got.cif
#   From: 2010.05.17/outbox.cif.g08.bks.cpg/sg88_2_cif.got.tgz:3373.got - 2010.06.03 19:11:41.
