data_PCOD9546365
_publ_section_title
;
Structure prediction by ZEFSAII (Michael W. Deem and Ramdas Pophale) SiO2 
 PCOD9546365
Probable space group: I 41/A
;
_chemical_formula_sum "Si O2"
_cell_formula_units_Z 88
_cell_length_a 13.541982
_cell_length_b 13.541982
_cell_length_c 19.377992
_cell_angle_alpha 90.000000
_cell_angle_beta 90.000000
_cell_angle_gamma 90.000000
_cell_volume 3553.638421
_symmetry_space_group_name_H-M "I 41/A"
_symmetry_group_IT_number 88
_space_group.IT_coordinate_system_code '2'
_symmetry_cell_setting 'tetragonal'
loop_
_space_group_symop_operation_xyz
x,y,z
3/4-y,1/4+x,1/4+z
-x,1/2-y,z
1/4+y,1/4-x,1/4+z
-x,-y,-z
1/4+y,3/4-x,3/4-z
x,1/2+y,-z
3/4-y,3/4+x,3/4-z
1/2+x,1/2+y,1/2+z
1/4-y,3/4+x,3/4+z
1/2-x,-y,1/2+z
3/4+y,3/4-x,3/4+z
1/2-x,1/2-y,1/2-z
3/4+y,1/4-x,1/4-z
1/2+x,y,1/2-z
1/4-y,1/4+x,1/4-z
loop_
_atom_site_type_symbol
_atom_site_label
_atom_site_fract_x
_atom_site_fract_y
_atom_site_fract_z
Si Si1 0.606706 0.555733 0.908221
Si Si2 0.722200 0.401512 0.506535
Si Si3 0.649883 0.788748 0.124979
Si Si4 0.356386 0.335329 0.367749
Si Si5 0.500000 0.750000 0.319472
Si Si6 0.429468 0.957175 0.263212
O O1 0.667130 0.537215 0.837742
O O2 0.677914 0.556130 0.973584
O O3 0.514968 0.482175 0.918596
O O4 0.558752 0.662815 0.893662
O O5 0.631430 0.426341 0.455826
O O6 0.738399 0.284220 0.498385
O O7 0.596043 0.690895 0.091724
O O8 0.699599 0.855323 0.066274
O O9 0.465856 0.379064 0.385652
O O10 0.275051 0.363209 0.426179
O O11 0.444124 0.842264 0.282950
#
# Coordination Sequence:
#
# PCOD9546365 Si02
#       6
#    16  16  16  16   8  16
#     4  10  22  39  61  88 125 162 203 248 303 361
#     4   9  20  38  57  89 125 155 202 256 290 359
#     4  10  21  38  59  88 123 157 200 252 296 356
#     4   9  18  35  60  88 119 158 197 245 307 360
#     4  10  20  38  59  84 119 162 200 252 304 350
#     4   9  19  37  58  84 121 157 202 249 293 360
#
# _framework density 24.763352000000001
#
# number of rings (size 3 to 8) (size 9 to 14) (size 15 to 20)
#    0.000    2.545    0.000    1.091    0.000    7.273 
#    0.000   24.545    0.000    6.545    0.000    1.273 
#    0.000    0.000    0.000    0.000    0.000    0.000 
#
# Total GULP energy -245462.541991 kJ/mol
# GULP energy per Si atom -5578.694136 kJ/mol
# Density = 2.470699 g / cm^3
# Si number density = 24.763352 Si / 1000 Ang^3
#
#
#
# Elastic Constant Matrix: (Units=GPa)
#
#
# Indices 1 2 3 4 5 6 
#
# 1 106.3059 17.1361 44.6835 0.0000 0.0000 -5.2188
# 2 17.1361 106.3059 44.6835 0.0000 0.0000 5.2188
# 3 44.6835 44.6835 148.5904 0.0000 0.0000 0.0000
# 4 0.0000 0.0000 0.0000 -1.5833 0.0000 0.0000
# 5 0.0000 0.0000 0.0000 0.0000 -1.5833 0.0000
# 6 -5.2188 5.2188 0.0000 0.0000 0.0000 23.0418
#
#
#
# Elastic Compliance Matrix: (Units=1/GPa)
#
#
# Indices 1 2 3 4 5 6 
#
# 1 0.010938 -0.000582 -0.003114 0.000000 0.000000 0.002609
# 2 -0.000582 0.010938 -0.003114 0.000000 0.000000 -0.002609
# 3 -0.003114 -0.003114 0.008603 0.000000 0.000000 0.000000
# 4 0.000000 0.000000 0.000000 -0.631582 0.000000 0.000000
# 5 0.000000 0.000000 0.000000 0.000000 -0.631582 0.000000
# 6 0.002609 -0.002609 0.000000 0.000000 0.000000 0.044581
#
#
# Mechanical properties :
#
#
# Convention : Reuss Voigt Hill
#
# Bulk Modulus (GPa) = 59.32093 63.80092 61.56093
# Shear Modulus (GPa) = -4.27766 20.95497 8.33866
#
# Velocity S-wave (km/s) = -1.31574 2.91212 1.83702
# Velocity P-wave (km/s) = 4.65821 6.09323 5.42339
#
# Compressibility (1/GPa) = 0.01685746
#
# Stress axis : x y z
#
# Youngs Moduli (GPa) = 91.42702 91.42702 116.24140
#
# Poissons Ratio (x) = 0.05324 0.36198
# Poissons Ratio (y) = 0.05324 0.36198
# Poissons Ratio (z) = 0.28471 0.28471
#
# Static dielectric constant tensor:
#      x y z
#    x 2.020370 0.000000 0.000000 
#    y 0.000000 2.020370 0.000000 
#    z 0.000000 0.000000 1.984960 
# 
# From -- ./inp_files/4575.got.cif
#   From: 2010.05.17/outbox.cif.g08.bks.cpg/sg88_3_cif.got.tgz:4575.got - 2010.06.03 19:11:41.
