data_PCOD9546939
_publ_section_title
;
Structure prediction by ZEFSAII (Michael W. Deem and Ramdas Pophale) SiO2 
 PCOD9546939
Probable space group: P 4 2 2
;
_chemical_formula_sum "Si O2"
_cell_formula_units_Z 44
_cell_length_a 8.755868
_cell_length_b 8.755868
_cell_length_c 26.707727
_cell_angle_alpha 90.000000
_cell_angle_beta 90.000000
_cell_angle_gamma 90.000000
_cell_volume 2047.553885
_symmetry_space_group_name_H-M "P 4 2 2"
_symmetry_group_IT_number 89
_symmetry_cell_setting 'tetragonal'
loop_
_space_group_symop_operation_xyz
x,y,z
-y,x,z
-x,-y,z
y,-x,z
x,-y,-z
-x,y,-z
y,x,-z
-y,-x,-z
loop_
_atom_site_type_symbol
_atom_site_label
_atom_site_fract_x
_atom_site_fract_y
_atom_site_fract_z
Si Si1 0.829694 0.451068 0.922800
Si Si2 0.731456 0.410546 0.811022
Si Si3 0.709647 0.709647 0.000000
Si Si4 0.758735 0.914324 0.733266
Si Si5 0.840373 0.802069 0.441311
Si Si6 0.614179 0.273879 0.352498
O O1 0.752066 0.409026 0.870804
O O2 0.732290 0.572612 0.957283
O O3 0.846789 0.312499 0.962113
O O4 0.000000 0.500000 0.910603
O O5 0.690091 0.583627 0.797180
O O6 0.872966 0.342935 0.781299
O O7 0.670062 0.859068 0.684170
O O8 0.912537 0.812820 0.733671
O O9 0.796786 0.796786 0.500000
O O10 0.766731 0.669437 0.408418
O O11 0.022201 0.794411 0.429860
O O12 0.697020 0.436059 0.343175
#
# Coordination Sequence:
#
# PCOD9546939 Si02
#       6
#     8   8   4   8   8   8
#     4  11  23  37  64  92 125 166 210 259 322 378
#     4  11  24  41  64  96 126 161 210 263 315 377
#     4  10  20  39  58  91 126 158 204 255 304 375
#     4  11  26  45  66  93 126 166 213 268 332 402
#     4   9  19  37  62  93 130 173 223 277 332 393
#     4  11  24  41  62  92 130 171 220 274 330 393
#
# _framework density 21.489058
#
# number of rings (size 3 to 8) (size 9 to 14) (size 15 to 20)
#    0.000    1.455    1.818    3.818    2.545   10.909 
#    0.000    2.727    0.000    4.364    0.000    0.000 
#    0.000    0.000    0.000    0.000    0.000    0.000 
#
# Total GULP energy -245372.007431 kJ/mol
# GULP energy per Si atom -5576.636533 kJ/mol
# Density = 2.144015 g / cm^3
# Si number density = 21.489058 Si / 1000 Ang^3
#
#
#
# Elastic Constant Matrix: (Units=GPa)
#
#
# Indices 1 2 3 4 5 6 
#
# 1 29.8016 20.3460 6.5811 0.0000 0.0000 0.0000
# 2 20.3460 29.8016 6.5811 0.0000 0.0000 0.0000
# 3 6.5811 6.5811 69.9488 0.0000 0.0000 0.0000
# 4 0.0000 0.0000 0.0000 30.3802 0.0000 0.0000
# 5 0.0000 0.0000 0.0000 0.0000 30.3802 0.0000
# 6 0.0000 0.0000 0.0000 0.0000 0.0000 32.8401
#
#
#
# Elastic Compliance Matrix: (Units=1/GPa)
#
#
# Indices 1 2 3 4 5 6 
#
# 1 0.063102 -0.042656 -0.001924 0.000000 0.000000 0.000000
# 2 -0.042656 0.063102 -0.001924 0.000000 0.000000 0.000000
# 3 -0.001924 -0.001924 0.014658 0.000000 0.000000 0.000000
# 4 0.000000 0.000000 0.000000 0.032916 0.000000 0.000000
# 5 0.000000 0.000000 0.000000 0.000000 0.032916 0.000000
# 6 0.000000 0.000000 0.000000 0.000000 0.000000 0.030451
#
#
# Mechanical properties :
#
#
# Convention : Reuss Voigt Hill
#
# Bulk Modulus (GPa) = 20.89622 21.84096 21.36859
# Shear Modulus (GPa) = 14.44660 25.12303 19.78481
#
# Velocity S-wave (km/s) = 2.59564 3.42293 3.03758
# Velocity P-wave (km/s) = 4.32763 5.08013 4.71891
#
# Compressibility (1/GPa) = 0.04785554
#
# Stress axis : x y z
#
# Youngs Moduli (GPa) = 15.84744 15.84744 68.22148
#
# Poissons Ratio (x) = 0.67598 0.13124
# Poissons Ratio (y) = 0.67598 0.13124
# Poissons Ratio (z) = 0.03049 0.03049
#
# Static dielectric constant tensor:
#      x y z
#    x 1.821920 0.000000 0.000000 
#    y 0.000000 1.821920 0.000000 
#    z 0.000000 0.000000 1.772460 
# 
# From -- ./inp_files/2901.got.cif
#   From: 2010.05.17/outbox.cif.g08.bks.cpg/sg89_2_cif.got.tgz:2901.got - 2010.06.03 19:15:31.
