data_PCOD9546142
_publ_section_title
;
Structure prediction by ZEFSAII (Michael W. Deem and Ramdas Pophale) SiO2 
 PCOD9546142
Probable space group: I 4/M
;
_chemical_formula_sum "Si O2"
_cell_formula_units_Z 64
_cell_length_a 10.512577
_cell_length_b 10.512577
_cell_length_c 28.865643
_cell_angle_alpha 90.000000
_cell_angle_beta 90.000000
_cell_angle_gamma 90.000000
_cell_volume 3190.065614
_symmetry_space_group_name_H-M "I 4/M"
_symmetry_group_IT_number 87
_symmetry_cell_setting 'tetragonal'
loop_
_space_group_symop_operation_xyz
x,y,z
-y,x,z
-x,-y,z
y,-x,z
-x,-y,-z
y,-x,-z
x,y,-z
-y,x,-z
1/2+x,1/2+y,1/2+z
1/2-y,1/2+x,1/2+z
1/2-x,1/2-y,1/2+z
1/2+y,1/2-x,1/2+z
1/2-x,1/2-y,1/2-z
1/2+y,1/2-x,1/2-z
1/2+x,1/2+y,1/2-z
1/2-y,1/2+x,1/2-z
loop_
_atom_site_type_symbol
_atom_site_label
_atom_site_fract_x
_atom_site_fract_y
_atom_site_fract_z
Si Si1 0.541290 0.851942 0.811315
Si Si2 0.786479 0.278464 0.354772
Si Si3 0.177682 0.120133 0.553524
Si Si4 0.443914 0.298855 0.721662
O O1 0.423927 0.766603 0.829675
O O2 0.663897 0.806860 0.840405
O O3 0.575613 0.812554 0.758656
O O4 0.500000 0.000000 0.816170
O O5 0.815218 0.268889 0.408995
O O6 0.736352 0.407869 0.331024
O O7 0.212441 0.143230 0.500000
O O8 0.032710 0.169804 0.560454
O O9 0.583736 0.350749 0.730244
#
# Coordination Sequence:
#
# PCOD9546142 Si02
#       4
#    16  16  16  16
#     4  12  26  39  64  92 130 176 221 262 324 387
#     4  12  23  39  63  95 132 169 211 267 329 383
#     4   9  18  36  64  96 126 160 208 266 330 388
#     4  11  25  43  61  87 128 178 220 260 313 385
#
# _framework density 20.062283000000001
#
# number of rings (size 3 to 8) (size 9 to 14) (size 15 to 20)
#    0.000    1.000    5.000    3.000    3.500    0.500 
#    0.000    0.000    0.000    7.500    0.000    1.750 
#    0.000    0.000    0.000    0.000    0.000    0.000 
#
# Total GULP energy -178617.962282 kJ/mol
# GULP energy per Si atom -5581.811321 kJ/mol
# Density = 2.001662 g / cm^3
# Si number density = 20.062283 Si / 1000 Ang^3
#
#
#
# Elastic Constant Matrix: (Units=GPa)
#
#
# Indices 1 2 3 4 5 6 
#
# 1 89.7735 44.5113 37.3290 0.0000 0.0000 18.8661
# 2 44.5113 89.7735 37.3290 0.0000 0.0000 -18.8661
# 3 37.3290 37.3290 153.2634 0.0000 0.0000 0.0000
# 4 0.0000 0.0000 0.0000 30.6395 0.0000 0.0000
# 5 0.0000 0.0000 0.0000 0.0000 30.6395 0.0000
# 6 18.8661 -18.8661 0.0000 0.0000 0.0000 48.2653
#
#
#
# Elastic Compliance Matrix: (Units=1/GPa)
#
#
# Indices 1 2 3 4 5 6 
#
# 1 0.020693 -0.012080 -0.002098 0.000000 0.000000 -0.012810
# 2 -0.012080 0.020693 -0.002098 0.000000 0.000000 0.012810
# 3 -0.002098 -0.002098 0.007547 0.000000 0.000000 0.000000
# 4 0.000000 0.000000 0.000000 0.032638 0.000000 0.000000
# 5 0.000000 0.000000 0.000000 0.000000 0.032638 0.000000
# 6 -0.012810 0.012810 0.000000 0.000000 0.000000 0.030733
#
#
# Mechanical properties :
#
#
# Convention : Reuss Voigt Hill
#
# Bulk Modulus (GPa) = 61.04391 63.46098 62.25245
# Shear Modulus (GPa) = 27.32956 36.15162 31.74059
#
# Velocity S-wave (km/s) = 3.69485 4.24957 3.98188
# Velocity P-wave (km/s) = 6.97824 7.46854 7.22755
#
# Compressibility (1/GPa) = 0.01638165
#
# Stress axis : x y z
#
# Youngs Moduli (GPa) = 48.32584 48.32584 132.50970
#
# Poissons Ratio (x) = 0.58376 0.27798
# Poissons Ratio (y) = 0.58376 0.27798
# Poissons Ratio (z) = 0.10138 0.10138
#
# Static dielectric constant tensor:
#      x y z
#    x 1.757020 0.000000 0.000000 
#    y 0.000000 1.757020 0.000000 
#    z 0.000000 0.000000 1.696690 
# 
# From -- ./inp_files/6126.got.cif
#   From: 2010.05.17/outbox.cif.g08.bks.cpg/sg87_4_cif.got.tgz:6126.got - 2010.06.03 19:07:00.
