data_PCOD9546262
_publ_section_title
;
Structure prediction by ZEFSAII (Michael W. Deem and Ramdas Pophale) SiO2 
 PCOD9546262
Probable space group: I 41/A
;
_chemical_formula_sum "Si O2"
_cell_formula_units_Z 96
_cell_length_a 22.812478
_cell_length_b 22.812478
_cell_length_c 8.770857
_cell_angle_alpha 90.000000
_cell_angle_beta 90.000000
_cell_angle_gamma 90.000000
_cell_volume 4564.434258
_symmetry_space_group_name_H-M "I 41/A"
_symmetry_group_IT_number 88
_space_group.IT_coordinate_system_code '2'
_symmetry_cell_setting 'tetragonal'
loop_
_space_group_symop_operation_xyz
x,y,z
3/4-y,1/4+x,1/4+z
-x,1/2-y,z
1/4+y,1/4-x,1/4+z
-x,-y,-z
1/4+y,3/4-x,3/4-z
x,1/2+y,-z
3/4-y,3/4+x,3/4-z
1/2+x,1/2+y,1/2+z
1/4-y,3/4+x,3/4+z
1/2-x,-y,1/2+z
3/4+y,3/4-x,3/4+z
1/2-x,1/2-y,1/2-z
3/4+y,1/4-x,1/4-z
1/2+x,y,1/2-z
1/4-y,1/4+x,1/4-z
loop_
_atom_site_type_symbol
_atom_site_label
_atom_site_fract_x
_atom_site_fract_y
_atom_site_fract_z
Si Si1 0.438653 0.685841 0.691330
Si Si2 0.099794 0.048772 0.411039
Si Si3 0.363810 0.769258 0.299997
Si Si4 0.464219 0.558806 0.259982
Si Si5 0.621854 0.917162 0.532291
Si Si6 0.082952 0.496266 0.279712
O O1 0.423175 0.752540 0.657520
O O2 0.457769 0.670936 0.863456
O O3 0.389736 0.640988 0.633508
O O4 0.154700 0.072105 0.319318
O O5 0.049514 0.099284 0.425771
O O6 0.069940 0.995303 0.320422
O O7 0.113895 0.029679 0.582625
O O8 0.358232 0.783827 0.121826
O O9 0.309702 0.801314 0.388807
O O10 0.431586 0.574946 0.413843
O O11 0.530516 0.536596 0.283984
O O12 0.622350 0.971760 0.645284
#
# Coordination Sequence:
#
# PCOD9546262 Si02
#       6
#    16  16  16  16  16  16
#     4  10  19  32  48  74 114 152 187 223 275 354
#     4   9  17  34  53  73 106 142 180 230 283 333
#     4   8  15  33  51  69 104 150 173 224 280 319
#     4   9  18  33  54  78 106 137 188 237 276 331
#     4  11  19  32  56  81 103 148 192 228 288 345
#     4   8  17  32  53  76 107 139 181 232 273 326
#
# _framework density 21.032177999999998
#
# number of rings (size 3 to 8) (size 9 to 14) (size 15 to 20)
#    0.000    2.833    1.667    2.500    0.000    0.000 
#    6.000    3.333    0.000    4.000    0.000    0.000 
#    0.000    0.000    0.000    0.000    0.000    0.000 
#
# Total GULP energy -267873.754308 kJ/mol
# GULP energy per Si atom -5580.703215 kJ/mol
# Density = 2.098431 g / cm^3
# Si number density = 21.032178 Si / 1000 Ang^3
#
#
#
# Elastic Constant Matrix: (Units=GPa)
#
#
# Indices 1 2 3 4 5 6 
#
# 1 31.6910 17.0684 33.5527 0.0000 0.0000 9.0447
# 2 17.0684 31.6910 33.5527 0.0000 0.0000 -9.0447
# 3 33.5527 33.5527 104.6735 0.0000 0.0000 0.0000
# 4 0.0000 0.0000 0.0000 32.0931 0.0000 0.0000
# 5 0.0000 0.0000 0.0000 0.0000 32.0931 0.0000
# 6 9.0447 -9.0447 0.0000 0.0000 0.0000 17.1665
#
#
#
# Elastic Compliance Matrix: (Units=1/GPa)
#
#
# Indices 1 2 3 4 5 6 
#
# 1 0.116548 -0.079850 -0.011764 0.000000 0.000000 -0.103478
# 2 -0.079850 0.116548 -0.011764 0.000000 0.000000 0.103478
# 3 -0.011764 -0.011764 0.017095 0.000000 0.000000 0.000000
# 4 0.000000 0.000000 0.000000 0.031159 0.000000 0.000000
# 5 0.000000 0.000000 0.000000 0.000000 0.031159 0.000000
# 6 -0.103478 0.103478 0.000000 0.000000 0.000000 0.167294
#
#
# Mechanical properties :
#
#
# Convention : Reuss Voigt Hill
#
# Bulk Modulus (GPa) = 23.02140 37.37813 30.19976
# Shear Modulus (GPa) = 7.13229 21.86265 14.49747
#
# Velocity S-wave (km/s) = 1.84350 3.22760 2.62830
# Velocity P-wave (km/s) = 3.93712 5.63031 4.85805
#
# Compressibility (1/GPa) = 0.04343785
#
# Stress axis : x y z
#
# Youngs Moduli (GPa) = 8.58014 8.58014 58.49634
#
# Poissons Ratio (x) = 0.68512 0.68813
# Poissons Ratio (y) = 0.68512 0.68813
# Poissons Ratio (z) = 0.10093 0.10093
#
# Static dielectric constant tensor:
#      x y z
#    x 1.758670 0.000000 0.000000 
#    y 0.000000 1.758670 0.000000 
#    z 0.000000 0.000000 1.762550 
# 
# From -- ./inp_files/1690.got.cif
#   From: 2010.05.17/outbox.cif.g08.bks.cpg/sg88_1_cif.got.tgz:1690.got - 2010.06.03 19:11:41.
