data_PCOD9546021
_publ_section_title
;
Structure prediction by ZEFSAII (Michael W. Deem and Ramdas Pophale) SiO2 
 PCOD9546021
Probable space group: I 4/M
;
_chemical_formula_sum "Si O2"
_cell_formula_units_Z 120
_cell_length_a 13.837161
_cell_length_b 13.837161
_cell_length_c 26.895035
_cell_angle_alpha 90.000000
_cell_angle_beta 90.000000
_cell_angle_gamma 90.000000
_cell_volume 5149.512326
_symmetry_space_group_name_H-M "I 4/M"
_symmetry_group_IT_number 87
_symmetry_cell_setting 'tetragonal'
loop_
_space_group_symop_operation_xyz
x,y,z
-y,x,z
-x,-y,z
y,-x,z
-x,-y,-z
y,-x,-z
x,y,-z
-y,x,-z
1/2+x,1/2+y,1/2+z
1/2-y,1/2+x,1/2+z
1/2-x,1/2-y,1/2+z
1/2+y,1/2-x,1/2+z
1/2-x,1/2-y,1/2-z
1/2+y,1/2-x,1/2-z
1/2+x,1/2+y,1/2-z
1/2-y,1/2+x,1/2-z
loop_
_atom_site_type_symbol
_atom_site_label
_atom_site_fract_x
_atom_site_fract_y
_atom_site_fract_z
Si Si1 0.835835 0.826302 0.254067
Si Si2 0.510297 0.161674 0.744109
Si Si3 0.560700 0.899103 0.556676
Si Si4 0.107002 0.883016 0.856596
Si Si5 0.684631 0.913078 0.869035
Si Si6 0.831210 0.994278 0.697250
Si Si7 0.655418 0.450964 0.000000
Si Si8 0.982566 0.728735 0.402669
O O1 0.750000 0.750000 0.250000
O O2 0.760885 0.917649 0.271461
O O3 0.876529 0.865756 0.201477
O O4 0.927887 0.750564 0.271358
O O5 0.418752 0.085971 0.733521
O O6 0.543872 0.186281 0.686460
O O7 0.570176 0.864742 0.500000
O O8 0.499147 0.829931 0.591656
O O9 0.500000 0.000000 0.555105
O O10 0.663642 0.927942 0.579570
O O11 0.147461 0.783477 0.878455
O O12 0.993063 0.870644 0.868673
O O13 0.594928 0.841788 0.877080
O O14 0.804882 0.990080 0.639534
O O15 0.903968 0.087982 0.706060
O O16 0.616510 0.561463 0.000000
O O17 0.719335 0.438590 0.950786
#
# Coordination Sequence:
#
# PCOD9546021 Si02
#       8
#    16  16  16  16  16  16   8  16
#     4  12  24  40  62  92 134 181 230 279 326 401
#     4  11  20  33  53  88 135 176 210 262 343 408
#     4   9  19  37  64  96 132 168 213 285 363 414
#     4  11  23  44  65  90 141 197 226 265 341 424
#     4  11  21  38  66 101 135 174 229 286 344 415
#     4  12  24  38  59  93 134 175 225 277 324 401
#     4  11  28  54  73  92 132 181 226 289 361 417
#     4  11  23  44  69  99 129 174 229 293 355 412
#
# _framework density 23.303176000000001
#
# number of rings (size 3 to 8) (size 9 to 14) (size 15 to 20)
#    0.000    1.000    4.667    2.400    6.533    1.333 
#    2.400    0.000    0.000    0.800    0.000    0.933 
#    0.000    0.000    0.000    0.000    0.000    0.000 
#
# Total GULP energy -334662.486183 kJ/mol
# GULP energy per Si atom -5577.708103 kJ/mol
# Density = 2.325014 g / cm^3
# Si number density = 23.303176 Si / 1000 Ang^3
#
#
#
# Elastic Constant Matrix: (Units=GPa)
#
#
# Indices 1 2 3 4 5 6 
#
# 1 154.4335 17.8247 44.1565 0.0000 0.0000 -6.8002
# 2 17.8247 154.4335 44.1565 0.0000 0.0000 6.8002
# 3 44.1565 44.1565 149.5964 0.0000 0.0000 0.0000
# 4 0.0000 0.0000 0.0000 24.5840 0.0000 0.0000
# 5 0.0000 0.0000 0.0000 0.0000 24.5840 0.0000
# 6 -6.8002 6.8002 0.0000 0.0000 0.0000 27.6968
#
#
#
# Elastic Compliance Matrix: (Units=1/GPa)
#
#
# Indices 1 2 3 4 5 6 
#
# 1 0.007172 -0.000332 -0.002019 0.000000 0.000000 0.001842
# 2 -0.000332 0.007172 -0.002019 0.000000 0.000000 -0.001842
# 3 -0.002019 -0.002019 0.007877 0.000000 0.000000 0.000000
# 4 0.000000 0.000000 0.000000 0.040677 0.000000 0.000000
# 5 0.000000 0.000000 0.000000 0.000000 0.040677 0.000000
# 6 0.001842 -0.001842 0.000000 0.000000 0.000000 0.037010
#
#
# Mechanical properties :
#
#
# Convention : Reuss Voigt Hill
#
# Bulk Modulus (GPa) = 74.17829 74.52654 74.35241
# Shear Modulus (GPa) = 32.50608 38.86133 35.68370
#
# Velocity S-wave (km/s) = 3.73892 4.08811 3.91740
# Velocity P-wave (km/s) = 7.10917 7.37117 7.24136
#
# Compressibility (1/GPa) = 0.01348103
#
# Stress axis : x y z
#
# Youngs Moduli (GPa) = 139.43144 139.43144 126.95827
#
# Poissons Ratio (x) = 0.04624 0.25634
# Poissons Ratio (y) = 0.04624 0.25634
# Poissons Ratio (z) = 0.28152 0.28152
#
# Static dielectric constant tensor:
#      x y z
#    x 1.725160 0.000000 0.000000 
#    y 0.000000 1.725160 0.000000 
#    z 0.000000 0.000000 1.824440 
# 
# From -- ./inp_files/6760.got.cif
#   From: 2010.05.17/outbox.cif.g08.bks.cpg/sg87_4_cif.got.tgz:6760.got - 2010.06.03 19:07:00.
