data_PCOD9546636
_publ_section_title
;
Structure prediction by ZEFSAII (Michael W. Deem and Ramdas Pophale) SiO2 
 PCOD9546636
Probable space group: I 41/A
;
_chemical_formula_sum "Si O2"
_cell_formula_units_Z 76
_cell_length_a 14.230464
_cell_length_b 14.230464
_cell_length_c 14.545859
_cell_angle_alpha 90.000000
_cell_angle_beta 90.000000
_cell_angle_gamma 90.000000
_cell_volume 2945.625260
_symmetry_space_group_name_H-M "I 41/A"
_symmetry_group_IT_number 88
_space_group.IT_coordinate_system_code '2'
_symmetry_cell_setting 'tetragonal'
loop_
_space_group_symop_operation_xyz
x,y,z
3/4-y,1/4+x,1/4+z
-x,1/2-y,z
1/4+y,1/4-x,1/4+z
-x,-y,-z
1/4+y,3/4-x,3/4-z
x,1/2+y,-z
3/4-y,3/4+x,3/4-z
1/2+x,1/2+y,1/2+z
1/4-y,3/4+x,3/4+z
1/2-x,-y,1/2+z
3/4+y,3/4-x,3/4+z
1/2-x,1/2-y,1/2-z
3/4+y,1/4-x,1/4-z
1/2+x,y,1/2-z
1/4-y,1/4+x,1/4-z
loop_
_atom_site_type_symbol
_atom_site_label
_atom_site_fract_x
_atom_site_fract_y
_atom_site_fract_z
Si Si1 0.858568 0.944520 0.433521
Si Si2 0.000000 0.750000 0.875000
Si Si3 0.000000 0.250000 0.872491
Si Si4 0.380850 0.914785 0.865711
Si Si5 0.677762 0.339648 0.022455
Si Si6 0.036035 0.540817 0.904270
O O1 0.767777 0.876777 0.425921
O O2 0.911801 0.921307 0.527619
O O3 0.912441 0.935390 0.337650
O O4 0.825392 0.051591 0.447445
O O5 0.958055 0.848200 0.914649
O O6 0.913534 0.200078 0.926562
O O7 0.958335 0.333658 0.811181
O O8 0.273146 0.877678 0.864728
O O9 0.760341 0.286305 0.074914
O O10 0.000000 0.500000 0.000000
#
# Coordination Sequence:
#
# PCOD9546636 Si02
#       6
#    16   4   8  16  16  16
#     4  10  23  43  70  93 137 188 242 298 378 443
#     4  12  28  46  80 106 140 206 236 308 386 452
#     4  10  24  42  62  99 135 176 234 300 372 442
#     4  10  24  44  67 100 138 187 239 309 370 455
#     4  10  24  44  67 100 138 187 239 309 370 455
#     4  11  27  45  71 111 143 188 248 311 382 468
#
# _framework density 25.800972000000002
#
# number of rings (size 3 to 8) (size 9 to 14) (size 15 to 20)
#    0.000    1.684    0.000    1.263   11.789   14.316 
#    0.000    0.000    0.000    0.000    0.000    0.000 
#    0.000    0.000    0.000    0.000    0.000    0.000 
#
# Total GULP energy -212789.941966 kJ/mol
# GULP energy per Si atom -5599.735315 kJ/mol
# Density = 2.574225 g / cm^3
# Si number density = 25.800972 Si / 1000 Ang^3
#
#
#
# Elastic Constant Matrix: (Units=GPa)
#
#
# Indices 1 2 3 4 5 6 
#
# 1 151.1054 23.6329 22.3663 0.0000 0.0000 2.8757
# 2 23.6329 151.1054 22.3663 0.0000 0.0000 -2.8757
# 3 22.3663 22.3663 116.1953 0.0000 0.0000 0.0000
# 4 0.0000 0.0000 0.0000 23.6170 0.0000 0.0000
# 5 0.0000 0.0000 0.0000 0.0000 23.6170 0.0000
# 6 2.8757 -2.8757 0.0000 0.0000 0.0000 45.5355
#
#
#
# Elastic Compliance Matrix: (Units=1/GPa)
#
#
# Indices 1 2 3 4 5 6 
#
# 1 0.006943 -0.000924 -0.001159 0.000000 0.000000 -0.000497
# 2 -0.000924 0.006943 -0.001159 0.000000 0.000000 0.000497
# 3 -0.001159 -0.001159 0.009052 0.000000 0.000000 0.000000
# 4 0.000000 0.000000 0.000000 0.042342 0.000000 0.000000
# 5 0.000000 0.000000 0.000000 0.000000 0.042342 0.000000
# 6 -0.000497 0.000497 0.000000 0.000000 0.000000 0.022024
#
#
# Mechanical properties :
#
#
# Convention : Reuss Voigt Hill
#
# Bulk Modulus (GPa) = 60.76635 61.68190 61.22412
# Shear Modulus (GPa) = 35.30690 41.88993 38.59842
#
# Velocity S-wave (km/s) = 3.70325 4.03374 3.87202
# Velocity P-wave (km/s) = 6.47213 6.75673 6.61596
#
# Compressibility (1/GPa) = 0.01645648
#
# Stress axis : x y z
#
# Youngs Moduli (GPa) = 144.02258 144.02258 110.46954
#
# Poissons Ratio (x) = 0.13306 0.12800
# Poissons Ratio (y) = 0.13306 0.12800
# Poissons Ratio (z) = 0.16688 0.16688
#
# Static dielectric constant tensor:
#      x y z
#    x 2.031800 0.000000 0.000000 
#    y 0.000000 2.031800 0.000000 
#    z 0.000000 0.000000 2.084320 
# 
# From -- ./inp_files/3852.got.cif
#   From: 2010.05.17/outbox.cif.g08.bks.cpg/sg88_2_cif.got.tgz:3852.got - 2010.06.03 19:11:41.
