data_PCOD9546861
_publ_section_title
;
Structure prediction by ZEFSAII (Michael W. Deem and Ramdas Pophale) SiO2 
 PCOD9546861
Probable space group: I 41/A
;
_chemical_formula_sum "Si O2"
_cell_formula_units_Z 56
_cell_length_a 10.105214
_cell_length_b 10.105214
_cell_length_c 22.643895
_cell_angle_alpha 90.000000
_cell_angle_beta 90.000000
_cell_angle_gamma 90.000000
_cell_volume 2312.289263
_symmetry_space_group_name_H-M "I 41/A"
_symmetry_group_IT_number 88
_space_group.IT_coordinate_system_code '2'
_symmetry_cell_setting 'tetragonal'
loop_
_space_group_symop_operation_xyz
x,y,z
3/4-y,1/4+x,1/4+z
-x,1/2-y,z
1/4+y,1/4-x,1/4+z
-x,-y,-z
1/4+y,3/4-x,3/4-z
x,1/2+y,-z
3/4-y,3/4+x,3/4-z
1/2+x,1/2+y,1/2+z
1/4-y,3/4+x,3/4+z
1/2-x,-y,1/2+z
3/4+y,3/4-x,3/4+z
1/2-x,1/2-y,1/2-z
3/4+y,1/4-x,1/4-z
1/2+x,y,1/2-z
1/4-y,1/4+x,1/4-z
loop_
_atom_site_type_symbol
_atom_site_label
_atom_site_fract_x
_atom_site_fract_y
_atom_site_fract_z
Si Si1 0.337467 0.024540 0.133833
Si Si2 0.930700 0.118119 0.038351
Si Si3 0.304434 0.306473 0.965294
Si Si4 0.000000 0.750000 0.182031
O O1 0.559365 0.091147 0.240268
O O2 0.428568 0.142364 0.108583
O O3 0.418002 0.934668 0.180833
O O4 0.313359 0.928087 0.079155
O O5 0.842005 0.040546 0.086800
O O6 0.000000 0.250000 0.063583
O O7 0.000000 0.000000 0.000000
O O8 0.398476 0.316463 0.021819
#
# Coordination Sequence:
#
# PCOD9546861 Si02
#       4
#    16  16  16   8
#     4  12  25  46  78 111 148 211 256 325 408 476
#     4  12  26  51  75 111 160 199 262 330 398 487
#     4  12  25  49  74 110 150 200 262 322 397 476
#     4  12  26  49  72 112 158 199 268 332 394 488
#
# _framework density 24.218420999999999
#
# number of rings (size 3 to 8) (size 9 to 14) (size 15 to 20)
#    0.000    0.000    2.857    7.714    0.000    0.000 
#    5.143    0.000    0.000    0.000    0.000    0.000 
#    0.000    0.000    0.000    0.000    0.000    0.000 
#
# Total GULP energy -156680.650493 kJ/mol
# GULP energy per Si atom -5595.737518 kJ/mol
# Density = 2.416330 g / cm^3
# Si number density = 24.218421 Si / 1000 Ang^3
#
#
#
# Elastic Constant Matrix: (Units=GPa)
#
#
# Indices 1 2 3 4 5 6 
#
# 1 88.1907 33.4867 35.4296 0.0000 0.0000 -13.1560
# 2 33.4867 88.1907 35.4296 0.0000 0.0000 13.1560
# 3 35.4296 35.4296 95.4278 0.0000 0.0000 0.0000
# 4 0.0000 0.0000 0.0000 6.5024 0.0000 0.0000
# 5 0.0000 0.0000 0.0000 0.0000 6.5024 0.0000
# 6 -13.1560 13.1560 0.0000 0.0000 0.0000 47.8631
#
#
#
# Elastic Compliance Matrix: (Units=1/GPa)
#
#
# Indices 1 2 3 4 5 6 
#
# 1 0.015775 -0.005290 -0.003893 0.000000 0.000000 0.005790
# 2 -0.005290 0.015775 -0.003893 0.000000 0.000000 -0.005790
# 3 -0.003893 -0.003893 0.013370 0.000000 0.000000 0.000000
# 4 0.000000 0.000000 0.000000 0.153790 0.000000 0.000000
# 5 0.000000 0.000000 0.000000 0.000000 0.153790 0.000000
# 6 0.005790 -0.005790 0.000000 0.000000 0.000000 0.024076
#
#
# Mechanical properties :
#
#
# Convention : Reuss Voigt Hill
#
# Bulk Modulus (GPa) = 53.27937 53.38901 53.33419
# Shear Modulus (GPa) = 12.22539 23.33778 17.78159
#
# Velocity S-wave (km/s) = 2.24921 3.10762 2.71258
# Velocity P-wave (km/s) = 5.36587 5.91346 5.64631
#
# Compressibility (1/GPa) = 0.01876899
#
# Stress axis : x y z
#
# Youngs Moduli (GPa) = 63.39003 63.39003 74.79527
#
# Poissons Ratio (x) = 0.33532 0.29118
# Poissons Ratio (y) = 0.33532 0.29118
# Poissons Ratio (z) = 0.24678 0.24678
#
# Static dielectric constant tensor:
#      x y z
#    x 1.863180 0.000000 0.000000 
#    y 0.000000 1.863180 0.000000 
#    z 0.000000 0.000000 1.861130 
# 
# From -- ./inp_files/4341.got.cif
#   From: 2010.05.17/outbox.cif.g08.bks.cpg/sg88_3_cif.got.tgz:4341.got - 2010.06.03 19:11:41.
