data_PCOD9546112
_publ_section_title
;
Structure prediction by ZEFSAII (Michael W. Deem and Ramdas Pophale) SiO2 
 PCOD9546112
Probable space group: I 4/M
;
_chemical_formula_sum "Si O2"
_cell_formula_units_Z 44
_cell_length_a 8.751635
_cell_length_b 8.751635
_cell_length_c 26.099656
_cell_angle_alpha 90.000000
_cell_angle_beta 90.000000
_cell_angle_gamma 90.000000
_cell_volume 1999.001759
_symmetry_space_group_name_H-M "I 4/M"
_symmetry_group_IT_number 87
_symmetry_cell_setting 'tetragonal'
loop_
_space_group_symop_operation_xyz
x,y,z
-y,x,z
-x,-y,z
y,-x,z
-x,-y,-z
y,-x,-z
x,y,-z
-y,x,-z
1/2+x,1/2+y,1/2+z
1/2-y,1/2+x,1/2+z
1/2-x,1/2-y,1/2+z
1/2+y,1/2-x,1/2+z
1/2-x,1/2-y,1/2-z
1/2+y,1/2-x,1/2-z
1/2+x,1/2+y,1/2-z
1/2-y,1/2+x,1/2-z
loop_
_atom_site_type_symbol
_atom_site_label
_atom_site_fract_x
_atom_site_fract_y
_atom_site_fract_z
Si Si1 0.416497 0.162232 0.604028
Si Si2 0.000000 0.000000 0.907365
Si Si3 0.762223 0.906854 0.500000
Si Si4 0.335230 0.697073 0.801267
O O1 0.518773 0.311471 0.593259
O O2 0.329003 0.127719 0.551386
O O3 0.304186 0.205388 0.651045
O O4 0.500000 0.000000 0.617214
O O5 0.916479 0.809159 0.500000
O O6 0.295219 0.518676 0.802749
O O7 0.250000 0.750000 0.750000
#
# Coordination Sequence:
#
# PCOD9546112 Si02
#       4
#    16   4   8  16
#     4  12  27  48  75 115 157 205 260 326 393 470
#     4  12  28  45  80 108 156 200 268 305 392 462
#     4  11  23  45  78 112 163 209 260 319 394 472
#     4  11  27  46  72 104 145 195 256 319 389 462
#
# _framework density 22.010988000000001
#
# number of rings (size 3 to 8) (size 9 to 14) (size 15 to 20)
#    0.000    0.545    0.000    7.091   10.182    5.091 
#    0.000    0.000    0.000    0.000    0.000    0.000 
#    0.000    0.000    0.000    0.000    0.000    0.000 
#
# Total GULP energy -122478.282893 kJ/mol
# GULP energy per Si atom -5567.194677 kJ/mol
# Density = 2.196089 g / cm^3
# Si number density = 22.010988 Si / 1000 Ang^3
#
#
#
# Elastic Constant Matrix: (Units=GPa)
#
#
# Indices 1 2 3 4 5 6 
#
# 1 159.5369 5.4107 47.8429 0.0000 0.0000 -47.9672
# 2 5.4107 159.5368 47.8429 0.0000 0.0000 47.9672
# 3 47.8429 47.8429 174.6092 0.0000 0.0000 0.0000
# 4 0.0000 0.0000 0.0000 32.3400 0.0000 0.0000
# 5 0.0000 0.0000 0.0000 0.0000 32.3400 0.0000
# 6 -47.9672 47.9672 0.0000 0.0000 0.0000 168.7630
#
#
#
# Elastic Compliance Matrix: (Units=1/GPa)
#
#
# Indices 1 2 3 4 5 6 
#
# 1 0.007546 -0.000337 -0.001975 0.000000 0.000000 0.002241
# 2 -0.000337 0.007546 -0.001975 0.000000 0.000000 -0.002241
# 3 -0.001975 -0.001975 0.006809 0.000000 0.000000 0.000000
# 4 0.000000 0.000000 0.000000 0.030921 0.000000 0.000000
# 5 0.000000 0.000000 0.000000 0.000000 0.030921 0.000000
# 6 0.002241 -0.002241 0.000000 0.000000 0.000000 0.007199
#
#
# Mechanical properties :
#
#
# Convention : Reuss Voigt Hill
#
# Bulk Modulus (GPa) = 75.04306 77.31955 76.18131
# Shear Modulus (GPa) = 48.09581 72.86101 60.47841
#
# Velocity S-wave (km/s) = 4.67956 5.75968 5.24749
# Velocity P-wave (km/s) = 7.96022 8.91268 8.44988
#
# Compressibility (1/GPa) = 0.01332568
#
# Stress axis : x y z
#
# Youngs Moduli (GPa) = 132.52899 132.52898 146.85552
#
# Poissons Ratio (x) = 0.04470 0.29005
# Poissons Ratio (y) = 0.04470 0.29005
# Poissons Ratio (z) = 0.26175 0.26175
#
# Static dielectric constant tensor:
#      x y z
#    x 1.121530 0.000000 0.000000 
#    y 0.000000 1.121530 0.000000 
#    z 0.000000 0.000000 1.752580 
# 
# From -- ./inp_files/6374.got.cif
#   From: 2010.05.17/outbox.cif.g08.bks.cpg/sg87_4_cif.got.tgz:6374.got - 2010.06.03 19:07:00.
