data_PCOD9546847
_publ_section_title
;
Structure prediction by ZEFSAII (Michael W. Deem and Ramdas Pophale) SiO2 
 PCOD9546847
Probable space group: I 41/A
;
_chemical_formula_sum "Si O2"
_cell_formula_units_Z 68
_cell_length_a 18.534996
_cell_length_b 18.534996
_cell_length_c 7.793852
_cell_angle_alpha 90.000000
_cell_angle_beta 90.000000
_cell_angle_gamma 90.000000
_cell_volume 2677.547277
_symmetry_space_group_name_H-M "I 41/A"
_symmetry_group_IT_number 88
_space_group.IT_coordinate_system_code '2'
_symmetry_cell_setting 'tetragonal'
loop_
_space_group_symop_operation_xyz
x,y,z
3/4-y,1/4+x,1/4+z
-x,1/2-y,z
1/4+y,1/4-x,1/4+z
-x,-y,-z
1/4+y,3/4-x,3/4-z
x,1/2+y,-z
3/4-y,3/4+x,3/4-z
1/2+x,1/2+y,1/2+z
1/4-y,3/4+x,3/4+z
1/2-x,-y,1/2+z
3/4+y,3/4-x,3/4+z
1/2-x,1/2-y,1/2-z
3/4+y,1/4-x,1/4-z
1/2+x,y,1/2-z
1/4-y,1/4+x,1/4-z
loop_
_atom_site_type_symbol
_atom_site_label
_atom_site_fract_x
_atom_site_fract_y
_atom_site_fract_z
Si Si1 0.465480 0.903807 0.643900
Si Si2 0.870404 0.873443 0.525092
Si Si3 0.712502 0.772403 0.070612
Si Si4 0.668939 0.016420 0.492348
Si Si5 0.500000 0.250000 0.375000
O O1 0.402412 0.937529 0.531540
O O2 0.490925 0.831078 0.551946
O O3 0.520843 0.968111 0.690706
O O4 0.430468 0.879253 0.824951
O O5 0.840018 0.794283 0.480366
O O6 0.800917 0.912719 0.609060
O O7 0.907937 0.914141 0.365919
O O8 0.750000 0.750000 0.250000
O O9 0.734063 0.064620 0.425284
#
# Coordination Sequence:
#
# PCOD9546847 Si02
#       5
#    16  16  16  16   4
#     4   9  21  38  53  77 111 147 190 236 284 339
#     4   9  18  34  56  82 115 148 183 233 283 337
#     4   9  18  34  56  84 113 143 184 230 282 343
#     4   9  18  36  58  82 113 147 187 237 286 336
#     4  12  24  40  56  74 112 156 192 240 288 338
#
# _framework density 25.396377000000001
#
# number of rings (size 3 to 8) (size 9 to 14) (size 15 to 20)
#    0.000    2.824    0.000    1.412    0.000    6.118 
#    0.000   12.941    0.000    0.000    0.000    0.000 
#    0.000    0.000    0.000    0.000    0.000    0.000 
#
# Total GULP energy -189958.888279 kJ/mol
# GULP energy per Si atom -5587.026126 kJ/mol
# Density = 2.533857 g / cm^3
# Si number density = 25.396377 Si / 1000 Ang^3
#
#
#
# Elastic Constant Matrix: (Units=GPa)
#
#
# Indices 1 2 3 4 5 6 
#
# 1 151.3073 83.4457 30.0312 0.0000 0.0000 26.1287
# 2 83.4457 151.3073 30.0312 0.0000 0.0000 -26.1287
# 3 30.0312 30.0312 63.7294 0.0000 0.0000 0.0000
# 4 0.0000 0.0000 0.0000 33.6282 0.0000 0.0000
# 5 0.0000 0.0000 0.0000 0.0000 33.6282 0.0000
# 6 26.1287 -26.1287 0.0000 0.0000 0.0000 44.5625
#
#
#
# Elastic Compliance Matrix: (Units=1/GPa)
#
#
# Indices 1 2 3 4 5 6 
#
# 1 0.015855 -0.011011 -0.002283 0.000000 0.000000 -0.015753
# 2 -0.011011 0.015855 -0.002283 0.000000 0.000000 0.015753
# 3 -0.002283 -0.002283 0.017843 0.000000 0.000000 0.000000
# 4 0.000000 0.000000 0.000000 0.029737 0.000000 0.000000
# 5 0.000000 0.000000 0.000000 0.000000 0.029737 0.000000
# 6 -0.015753 0.015753 0.000000 0.000000 0.000000 0.040913
#
#
# Mechanical properties :
#
#
# Convention : Reuss Voigt Hill
#
# Bulk Modulus (GPa) = 54.34792 72.59558 63.47175
# Shear Modulus (GPa) = 26.70570 37.21952 31.96261
#
# Velocity S-wave (km/s) = 3.24629 3.83240 3.55145
# Velocity P-wave (km/s) = 5.95798 6.94479 6.47022
#
# Compressibility (1/GPa) = 0.01839997
#
# Stress axis : x y z
#
# Youngs Moduli (GPa) = 63.07118 63.07118 56.04579
#
# Poissons Ratio (x) = 0.69450 0.12793
# Poissons Ratio (y) = 0.69450 0.12793
# Poissons Ratio (z) = 0.14396 0.14396
#
# Static dielectric constant tensor:
#      x y z
#    x 2.019240 0.000000 0.000000 
#    y 0.000000 2.019240 0.000000 
#    z 0.000000 0.000000 2.017290 
# 
# From -- ./inp_files/2407.got.cif
#   From: 2010.05.17/outbox.cif.g08.bks.cpg/sg88_2_cif.got.tgz:2407.got - 2010.06.03 19:11:41.
