data_PCOD9546988
_publ_section_title
;
Structure prediction by ZEFSAII (Michael W. Deem and Ramdas Pophale) SiO2 
 PCOD9546988
Probable space group: P 4 2 2
;
_chemical_formula_sum "Si O2"
_cell_formula_units_Z 56
_cell_length_a 15.330357
_cell_length_b 15.330357
_cell_length_c 10.892693
_cell_angle_alpha 90.000000
_cell_angle_beta 90.000000
_cell_angle_gamma 90.000000
_cell_volume 2559.999029
_symmetry_space_group_name_H-M "P 4 2 2"
_symmetry_group_IT_number 89
_symmetry_cell_setting 'tetragonal'
loop_
_space_group_symop_operation_xyz
x,y,z
-y,x,z
-x,-y,z
y,-x,z
x,-y,-z
-x,y,-z
y,x,-z
-y,-x,-z
loop_
_atom_site_type_symbol
_atom_site_label
_atom_site_fract_x
_atom_site_fract_y
_atom_site_fract_z
Si Si1 0.102210 0.600422 0.992017
Si Si2 0.236434 0.686572 0.114915
Si Si3 0.089608 0.884247 0.644260
Si Si4 0.281293 0.408489 0.574295
Si Si5 0.297174 0.161552 0.746644
Si Si6 0.099844 0.395586 0.493907
Si Si7 0.555184 0.366928 0.835738
O O1 0.128540 0.649696 0.866254
O O2 0.131852 0.500000 0.000000
O O3 0.138532 0.654688 0.108305
O O4 0.000000 0.599574 0.000000
O O5 0.278894 0.736598 0.227732
O O6 0.291310 0.599961 0.087004
O O7 0.249121 0.750880 0.000000
O O8 0.119594 0.880407 0.500000
O O9 0.125958 0.800650 0.717783
O O10 0.984891 0.882671 0.668792
O O11 0.277402 0.500000 0.500000
O O12 0.337472 0.337472 0.500000
O O13 0.179860 0.377599 0.588356
O O14 0.331303 0.434064 0.697930
O O15 0.358060 0.139204 0.632081
O O16 0.090537 0.500000 0.500000
O O17 0.000000 0.359669 0.500000
O O18 0.608897 0.455479 0.855940
#
# Coordination Sequence:
#
# PCOD9546988 Si02
#       7
#     8   8   8   8   8   8   8
#     4  10  25  46  72 100 131 181 240 301 353 411
#     4  10  25  43  66  95 131 170 229 288 337 412
#     4   9  21  42  69 104 143 178 222 278 350 438
#     4  11  21  37  61  90 134 171 218 272 328 409
#     4  11  24  43  71 101 136 185 230 286 364 407
#     4  10  25  43  62  98 142 180 229 279 338 422
#     4  11  24  38  62  95 127 174 217 269 347 403
#
# _framework density 21.875008999999999
#
# number of rings (size 3 to 8) (size 9 to 14) (size 15 to 20)
#    0.000    1.714    1.429    1.286   10.000    5.286 
#    0.000    0.714    0.000    0.000    0.000    0.000 
#    0.000    0.000    0.000    0.000    0.000    0.000 
#
# Total GULP energy -312168.827133 kJ/mol
# GULP energy per Si atom -5574.443342 kJ/mol
# Density = 2.182522 g / cm^3
# Si number density = 21.875009 Si / 1000 Ang^3
#
#
#
# Elastic Constant Matrix: (Units=GPa)
#
#
# Indices 1 2 3 4 5 6 
#
# 1 124.9995 69.1482 33.7728 0.0000 0.0000 0.0000
# 2 69.1482 124.9997 33.7728 0.0000 0.0000 0.0000
# 3 33.7728 33.7728 68.5643 0.0000 0.0000 0.0000
# 4 0.0000 0.0000 0.0000 12.1853 0.0000 0.0000
# 5 0.0000 0.0000 0.0000 0.0000 12.1856 0.0000
# 6 0.0000 0.0000 0.0000 0.0000 0.0000 19.8210
#
#
#
# Elastic Compliance Matrix: (Units=1/GPa)
#
#
# Indices 1 2 3 4 5 6 
#
# 1 0.012060 -0.005844 -0.003062 0.000000 0.000000 0.000000
# 2 -0.005844 0.012060 -0.003062 0.000000 0.000000 0.000000
# 3 -0.003062 -0.003062 0.017601 0.000000 0.000000 0.000000
# 4 0.000000 0.000000 0.000000 0.082066 0.000000 0.000000
# 5 0.000000 0.000000 0.000000 0.000000 0.082064 0.000000
# 6 0.000000 0.000000 0.000000 0.000000 0.000000 0.050451
#
#
# Mechanical properties :
#
#
# Convention : Reuss Voigt Hill
#
# Bulk Modulus (GPa) = 56.22445 65.77234 60.99840
# Shear Modulus (GPa) = 17.47230 20.96305 19.21767
#
# Velocity S-wave (km/s) = 2.82925 3.09902 2.96720
# Velocity P-wave (km/s) = 6.03583 6.55270 6.29957
#
# Compressibility (1/GPa) = 0.01778586
#
# Stress axis : x y z
#
# Youngs Moduli (GPa) = 82.91660 82.91680 56.81448
#
# Poissons Ratio (x) = 0.48460 0.17395
# Poissons Ratio (y) = 0.48459 0.17395
# Poissons Ratio (z) = 0.25387 0.25387
#
# Static dielectric constant tensor:
#      x y z
#    x 1.832380 0.000000 0.000000 
#    y 0.000000 1.832390 0.000000 
#    z 0.000000 0.000000 1.828160 
# 
# From -- ./inp_files/1885.got.cif
#   From: 2010.05.17/outbox.cif.g08.bks.cpg/sg89_1_cif.got.tgz:1885.got - 2010.06.03 19:15:31.
