data_PCOD9546923
_publ_section_title
;
Structure prediction by ZEFSAII (Michael W. Deem and Ramdas Pophale) SiO2 
 PCOD9546923
Probable space group: P 4 2 2
;
_chemical_formula_sum "Si O2"
_cell_formula_units_Z 48
_cell_length_a 14.372919
_cell_length_b 14.372919
_cell_length_c 11.542277
_cell_angle_alpha 90.000000
_cell_angle_beta 90.000000
_cell_angle_gamma 90.000000
_cell_volume 2384.412823
_symmetry_space_group_name_H-M "P 4 2 2"
_symmetry_group_IT_number 89
_symmetry_cell_setting 'tetragonal'
loop_
_space_group_symop_operation_xyz
x,y,z
-y,x,z
-x,-y,z
y,-x,z
x,-y,-z
-x,y,-z
y,x,-z
-y,-x,-z
loop_
_atom_site_type_symbol
_atom_site_label
_atom_site_fract_x
_atom_site_fract_y
_atom_site_fract_z
Si Si1 0.128636 0.227245 0.405544
Si Si2 0.637546 0.150987 0.913094
Si Si3 0.712460 0.288237 0.743669
Si Si4 0.424087 0.847298 0.167360
Si Si5 0.019215 0.662627 0.284512
Si Si6 0.598941 0.187504 0.561186
O O1 0.146618 0.146618 0.500000
O O2 0.201352 0.222434 0.299117
O O3 0.168620 0.319919 0.468674
O O4 0.026982 0.252448 0.356713
O O5 0.677031 0.246960 0.864312
O O6 0.529633 0.150076 0.872976
O O7 0.685413 0.070369 0.836498
O O8 0.637000 0.140833 0.050361
O O9 0.754471 0.389586 0.767635
O O10 0.633520 0.270352 0.646498
O O11 0.401447 0.932640 0.250551
O O12 0.094180 0.607750 0.361341
O O13 0.500000 0.199415 0.500000
#
# Coordination Sequence:
#
# PCOD9546923 Si02
#       6
#     8   8   8   8   8   8
#     4   9  19  34  45  72 112 150 183 220 269 336
#     4  10  20  33  53  82 104 148 193 236 297 344
#     4   9  20  34  51  71 108 152 187 229 293 338
#     4  10  20  34  53  77 116 143 186 243 296 351
#     4  10  20  30  51  79 111 144 177 228 285 343
#     4  10  21  32  51  81 109 145 193 231 283 344
#
# _framework density 20.130742000000001
#
# number of rings (size 3 to 8) (size 9 to 14) (size 15 to 20)
#    0.000    2.333    0.000    2.000   11.667    2.000 
#    0.000    0.000    0.000    0.500    0.000    3.500 
#    0.000  933.333    0.000  368.333    0.000    0.000 
#
# Total GULP energy -267664.163123 kJ/mol
# GULP energy per Si atom -5576.336732 kJ/mol
# Density = 2.008492 g / cm^3
# Si number density = 20.130742 Si / 1000 Ang^3
#
#
#
# Elastic Constant Matrix: (Units=GPa)
#
#
# Indices 1 2 3 4 5 6 
#
# 1 50.0011 34.0894 33.6678 0.0000 0.0000 0.0000
# 2 34.0894 50.0011 33.6678 0.0000 0.0000 0.0000
# 3 33.6678 33.6678 110.9452 0.0000 0.0000 0.0000
# 4 0.0000 0.0000 0.0000 35.9745 0.0000 0.0000
# 5 0.0000 0.0000 0.0000 0.0000 35.9745 0.0000
# 6 0.0000 0.0000 0.0000 0.0000 0.0000 18.5284
#
#
#
# Elastic Compliance Matrix: (Units=1/GPa)
#
#
# Indices 1 2 3 4 5 6 
#
# 1 0.039278 -0.023569 -0.004767 0.000000 0.000000 0.000000
# 2 -0.023569 0.039278 -0.004767 0.000000 0.000000 0.000000
# 3 -0.004767 -0.004767 0.011907 0.000000 0.000000 0.000000
# 4 0.000000 0.000000 0.000000 0.027797 0.000000 0.000000
# 5 0.000000 0.000000 0.000000 0.000000 0.027797 0.000000
# 6 0.000000 0.000000 0.000000 0.000000 0.000000 0.053971
#
#
# Mechanical properties :
#
#
# Convention : Reuss Voigt Hill
#
# Bulk Modulus (GPa) = 41.22591 45.97750 43.60170
# Shear Modulus (GPa) = 18.22684 25.39698 21.81191
#
# Velocity S-wave (km/s) = 3.01229 3.55576 3.29525
# Velocity P-wave (km/s) = 5.71157 6.30451 6.01535
#
# Compressibility (1/GPa) = 0.02425659
#
# Stress axis : x y z
#
# Youngs Moduli (GPa) = 25.45954 25.45954 83.98572
#
# Poissons Ratio (x) = 0.60005 0.40038
# Poissons Ratio (y) = 0.60005 0.40038
# Poissons Ratio (z) = 0.12137 0.12137
#
# Static dielectric constant tensor:
#      x y z
#    x 1.749890 0.000000 0.000000 
#    y 0.000000 1.749890 0.000000 
#    z 0.000000 0.000000 1.807980 
# 
# From -- ./inp_files/1805.got.cif
#   From: 2010.05.17/outbox.cif.g08.bks.cpg/sg89_1_cif.got.tgz:1805.got - 2010.06.03 19:15:31.
