data_PCOD9546529
_publ_section_title
;
Structure prediction by ZEFSAII (Michael W. Deem and Ramdas Pophale) SiO2 
 PCOD9546529
Probable space group: I 41/A
;
_chemical_formula_sum "Si O2"
_cell_formula_units_Z 56
_cell_length_a 9.668139
_cell_length_b 9.668139
_cell_length_c 25.668553
_cell_angle_alpha 90.000000
_cell_angle_beta 90.000000
_cell_angle_gamma 90.000000
_cell_volume 2399.314389
_symmetry_space_group_name_H-M "I 41/A"
_symmetry_group_IT_number 88
_space_group.IT_coordinate_system_code '2'
_symmetry_cell_setting 'tetragonal'
loop_
_space_group_symop_operation_xyz
x,y,z
3/4-y,1/4+x,1/4+z
-x,1/2-y,z
1/4+y,1/4-x,1/4+z
-x,-y,-z
1/4+y,3/4-x,3/4-z
x,1/2+y,-z
3/4-y,3/4+x,3/4-z
1/2+x,1/2+y,1/2+z
1/4-y,3/4+x,3/4+z
1/2-x,-y,1/2+z
3/4+y,3/4-x,3/4+z
1/2-x,1/2-y,1/2-z
3/4+y,1/4-x,1/4-z
1/2+x,y,1/2-z
1/4-y,1/4+x,1/4-z
loop_
_atom_site_type_symbol
_atom_site_label
_atom_site_fract_x
_atom_site_fract_y
_atom_site_fract_z
Si Si1 0.750805 0.664150 0.546004
Si Si2 0.500000 0.250000 0.761086
Si Si3 0.198022 0.075783 0.381688
Si Si4 0.260823 0.287485 0.564540
O O1 0.686953 0.548232 0.581983
O O2 0.670572 0.685227 0.491494
O O3 0.910340 0.646458 0.524978
O O4 0.758006 0.802496 0.580128
O O5 0.551532 0.373486 0.798244
O O6 0.210234 0.932225 0.412638
O O7 0.046546 0.092699 0.357350
#
# Coordination Sequence:
#
# PCOD9546529 Si02
#       4
#    16   8  16  16
#     4  10  24  39  62  93 135 158 215 266 305 391
#     4   8  20  39  62  90 126 156 206 277 286 362
#     4  12  22  42  64  98 124 178 202 262 330 362
#     4  10  22  37  67  94 122 163 216 270 300 375
#
# _framework density 23.340002999999999
#
# number of rings (size 3 to 8) (size 9 to 14) (size 15 to 20)
#    1.714    0.000    0.000    5.143    0.000    2.857 
#    0.000    8.571    0.000    0.000    0.000    0.000 
#    0.000    0.000    0.000    0.000    0.000    0.000 
#
# Total GULP energy -156195.048492 kJ/mol
# GULP energy per Si atom -5578.394589 kJ/mol
# Density = 2.328688 g / cm^3
# Si number density = 23.340003 Si / 1000 Ang^3
#
#
#
# Elastic Constant Matrix: (Units=GPa)
#
#
# Indices 1 2 3 4 5 6 
#
# 1 64.5688 8.8377 26.4798 0.0000 0.0000 3.1130
# 2 8.8377 64.5688 26.4798 0.0000 0.0000 -3.1130
# 3 26.4798 26.4798 154.2790 0.0000 0.0000 0.0000
# 4 0.0000 0.0000 0.0000 22.3283 0.0000 0.0000
# 5 0.0000 0.0000 0.0000 0.0000 22.3283 0.0000
# 6 3.1130 -3.1130 0.0000 0.0000 0.0000 -8.8888
#
#
#
# Elastic Compliance Matrix: (Units=1/GPa)
#
#
# Indices 1 2 3 4 5 6 
#
# 1 0.016408 -0.000860 -0.002669 0.000000 0.000000 0.006047
# 2 -0.000860 0.016408 -0.002669 0.000000 0.000000 -0.006047
# 3 -0.002669 -0.002669 0.007398 0.000000 0.000000 0.000000
# 4 0.000000 0.000000 0.000000 0.044786 0.000000 0.000000
# 5 0.000000 0.000000 0.000000 0.000000 0.044786 0.000000
# 6 0.006047 -0.006047 0.000000 0.000000 0.000000 -0.108266
#
#
# Mechanical properties :
#
#
# Convention : Reuss Voigt Hill
#
# Bulk Modulus (GPa) = 35.94599 45.22345 40.58472
# Shear Modulus (GPa) = 115.77482 21.92819 68.85151
#
# Velocity S-wave (km/s) = 7.05062 3.06847 5.43722
# Velocity P-wave (km/s) = 9.03970 5.65438 7.53950
#
# Compressibility (1/GPa) = 0.02781952
#
# Stress axis : x y z
#
# Youngs Moduli (GPa) = 60.94630 60.94629 135.17504
#
# Poissons Ratio (x) = 0.05240 0.36073
# Poissons Ratio (y) = 0.05240 0.36073
# Poissons Ratio (z) = 0.16264 0.16264
#
# Static dielectric constant tensor:
#      x y z
#    x 1.892850 0.000000 0.000000 
#    y 0.000000 1.892850 0.000000 
#    z 0.000000 0.000000 1.912250 
# 
# From -- ./inp_files/5073.got.cif
#   From: 2010.05.17/outbox.cif.g08.bks.cpg/sg88_3_cif.got.tgz:5073.got - 2010.06.03 19:11:41.
