data_PCOD9546463
_publ_section_title
;
Structure prediction by ZEFSAII (Michael W. Deem and Ramdas Pophale) SiO2 
 PCOD9546463
Probable space group: I 41/A
;
_chemical_formula_sum "Si O2"
_cell_formula_units_Z 112
_cell_length_a 28.713329
_cell_length_b 28.713329
_cell_length_c 6.097421
_cell_angle_alpha 90.000000
_cell_angle_beta 90.000000
_cell_angle_gamma 90.000000
_cell_volume 5027.050830
_symmetry_space_group_name_H-M "I 41/A"
_symmetry_group_IT_number 88
_space_group.IT_coordinate_system_code '2'
_symmetry_cell_setting 'tetragonal'
loop_
_space_group_symop_operation_xyz
x,y,z
3/4-y,1/4+x,1/4+z
-x,1/2-y,z
1/4+y,1/4-x,1/4+z
-x,-y,-z
1/4+y,3/4-x,3/4-z
x,1/2+y,-z
3/4-y,3/4+x,3/4-z
1/2+x,1/2+y,1/2+z
1/4-y,3/4+x,3/4+z
1/2-x,-y,1/2+z
3/4+y,3/4-x,3/4+z
1/2-x,1/2-y,1/2-z
3/4+y,1/4-x,1/4-z
1/2+x,y,1/2-z
1/4-y,1/4+x,1/4-z
loop_
_atom_site_type_symbol
_atom_site_label
_atom_site_fract_x
_atom_site_fract_y
_atom_site_fract_z
Si Si1 0.545420 0.439453 0.654031
Si Si2 0.585650 0.840108 0.897975
Si Si3 0.378054 0.240783 0.789379
Si Si4 0.435091 0.917696 0.660505
Si Si5 0.135543 0.427892 0.584552
Si Si6 0.123725 0.028933 0.482986
Si Si7 0.038185 0.507503 0.215271
O O1 0.520489 0.394152 0.757194
O O2 0.599165 0.436615 0.716919
O O3 0.514902 0.480073 0.773316
O O4 0.543375 0.458006 0.405429
O O5 0.616127 0.823970 0.689211
O O6 0.529531 0.842766 0.903862
O O7 0.598717 0.804226 0.095609
O O8 0.605120 0.892517 0.936911
O O9 0.341516 0.219502 0.615487
O O10 0.451494 0.950957 0.462622
O O11 0.390762 0.945177 0.758641
O O12 0.149798 0.479980 0.521979
O O13 0.181665 0.399925 0.634991
O O14 0.076669 0.014229 0.605627
#
# Coordination Sequence:
#
# PCOD9546463 Si02
#       7
#    16  16  16  16  16  16  16
#     4  10  21  38  68 102 131 179 227 288 358 414
#     4  11  25  46  68 103 137 191 227 296 352 431
#     4  11  24  44  69  98 145 183 241 287 357 432
#     4  12  21  43  68  99 143 177 226 297 355 413
#     4  11  24  44  69  95 140 183 227 288 360 418
#     4  12  25  46  65 103 144 182 233 305 346 442
#     4  11  22  40  66 105 138 169 231 298 363 409
#
# _framework density 22.279464000000001
#
# number of rings (size 3 to 8) (size 9 to 14) (size 15 to 20)
#    0.000    0.857    7.143    0.000    0.000    9.429 
#    0.000    2.857    0.000    0.000    0.000    0.000 
#    0.000    0.000    0.000    0.000    0.000    0.000 
#
# Total GULP energy -312210.481526 kJ/mol
# GULP energy per Si atom -5575.187170 kJ/mol
# Density = 2.222875 g / cm^3
# Si number density = 22.279464 Si / 1000 Ang^3
#
#
#
# Elastic Constant Matrix: (Units=GPa)
#
#
# Indices 1 2 3 4 5 6 
#
# 1 80.8262 -3.9272 20.1860 0.0000 0.0000 -3.8365
# 2 -3.9272 80.8262 20.1860 0.0000 0.0000 3.8365
# 3 20.1860 20.1860 44.5384 0.0000 0.0000 0.0000
# 4 0.0000 0.0000 0.0000 32.2388 0.0000 0.0000
# 5 0.0000 0.0000 0.0000 0.0000 32.2388 0.0000
# 6 -3.8365 3.8365 0.0000 0.0000 0.0000 37.4491
#
#
#
# Elastic Compliance Matrix: (Units=1/GPa)
#
#
# Indices 1 2 3 4 5 6 
#
# 1 0.014487 0.002578 -0.007734 0.000000 0.000000 0.001220
# 2 0.002578 0.014487 -0.007734 0.000000 0.000000 -0.001220
# 3 -0.007734 -0.007734 0.029463 0.000000 0.000000 0.000000
# 4 0.000000 0.000000 0.000000 0.031018 0.000000 0.000000
# 5 0.000000 0.000000 0.000000 0.000000 0.031018 0.000000
# 6 0.001220 -0.001220 0.000000 0.000000 0.000000 0.026953
#
#
# Mechanical properties :
#
#
# Convention : Reuss Voigt Hill
#
# Bulk Modulus (GPa) = 30.62250 31.00896 30.81573
# Shear Modulus (GPa) = 27.16012 31.70175 29.43094
#
# Velocity S-wave (km/s) = 3.49530 3.77624 3.63848
# Velocity P-wave (km/s) = 5.48307 5.74123 5.61364
#
# Compressibility (1/GPa) = 0.03265573
#
# Stress axis : x y z
#
# Youngs Moduli (GPa) = 69.02775 69.02775 33.94070
#
# Poissons Ratio (x) = -0.17792 0.26250
# Poissons Ratio (y) = -0.17792 0.26250
# Poissons Ratio (z) = 0.53387 0.53387
#
# Static dielectric constant tensor:
#      x y z
#    x 1.867510 0.000000 0.000000 
#    y 0.000000 1.867510 0.000000 
#    z 0.000000 0.000000 1.894820 
# 
# From -- ./inp_files/791.got.cif
#   From: 2010.05.17/outbox.cif.g08.bks.cpg/sg88_1_cif.got.tgz:791.got - 2010.06.03 19:11:41.
