data_PCOD9546394
_publ_section_title
;
Structure prediction by ZEFSAII (Michael W. Deem and Ramdas Pophale) SiO2 
 PCOD9546394
Probable space group: I 41/A
;
_chemical_formula_sum "Si O2"
_cell_formula_units_Z 48
_cell_length_a 18.988656
_cell_length_b 18.988656
_cell_length_c 4.916565
_cell_angle_alpha 90.000000
_cell_angle_beta 90.000000
_cell_angle_gamma 90.000000
_cell_volume 1772.761204
_symmetry_space_group_name_H-M "I 41/A"
_symmetry_group_IT_number 88
_space_group.IT_coordinate_system_code '2'
_symmetry_cell_setting 'tetragonal'
loop_
_space_group_symop_operation_xyz
x,y,z
3/4-y,1/4+x,1/4+z
-x,1/2-y,z
1/4+y,1/4-x,1/4+z
-x,-y,-z
1/4+y,3/4-x,3/4-z
x,1/2+y,-z
3/4-y,3/4+x,3/4-z
1/2+x,1/2+y,1/2+z
1/4-y,3/4+x,3/4+z
1/2-x,-y,1/2+z
3/4+y,3/4-x,3/4+z
1/2-x,1/2-y,1/2-z
3/4+y,1/4-x,1/4-z
1/2+x,y,1/2-z
1/4-y,1/4+x,1/4-z
loop_
_atom_site_type_symbol
_atom_site_label
_atom_site_fract_x
_atom_site_fract_y
_atom_site_fract_z
Si Si1 0.765386 0.891907 0.160891
Si Si2 0.461662 0.349928 0.334184
Si Si3 0.177778 0.182007 0.372458
O O1 0.697240 0.935166 0.072168
O O2 0.771133 0.827749 0.373867
O O3 0.795423 0.863944 0.879355
O O4 0.536809 0.320734 0.230474
O O5 0.487654 0.414289 0.520382
O O6 0.402431 0.350084 0.104347
#
# Coordination Sequence:
#
# PCOD9546394 Si02
#       3
#    16  16  16
#     4  12  25  42  61  83 120 171 215 250 297 352
#     4   7  16  40  65  94 127 162 184 243 318 383
#     4  10  20  40  66  93 118 163 202 246 304 374
#
# _framework density 27.076404
#
# number of rings (size 3 to 8) (size 9 to 14) (size 15 to 20)
#    2.000    0.333    0.000    4.000    0.000    2.667 
#    0.000   13.333    0.000    0.000    0.000    0.000 
#    0.000    0.000    0.000    0.000    0.000    0.000 
#
# Total GULP energy -133785.214133 kJ/mol
# GULP energy per Si atom -5574.383922 kJ/mol
# Density = 2.701478 g / cm^3
# Si number density = 27.076404 Si / 1000 Ang^3
#
#
#
# Elastic Constant Matrix: (Units=GPa)
#
#
# Indices 1 2 3 4 5 6 
#
# 1 75.6055 36.8748 31.3192 0.0000 0.0000 -9.5647
# 2 36.8748 75.6055 31.3192 0.0000 0.0000 9.5647
# 3 31.3192 31.3192 155.9155 0.0000 0.0000 0.0000
# 4 0.0000 0.0000 0.0000 31.5497 0.0000 0.0000
# 5 0.0000 0.0000 0.0000 0.0000 31.5497 0.0000
# 6 -9.5647 9.5647 0.0000 0.0000 0.0000 12.7288
#
#
#
# Elastic Compliance Matrix: (Units=1/GPa)
#
#
# Indices 1 2 3 4 5 6 
#
# 1 0.025534 -0.015524 -0.002011 0.000000 0.000000 0.030852
# 2 -0.015524 0.025534 -0.002011 0.000000 0.000000 -0.030852
# 3 -0.002011 -0.002011 0.007222 0.000000 0.000000 0.000000
# 4 0.000000 0.000000 0.000000 0.031696 0.000000 0.000000
# 5 0.000000 0.000000 0.000000 0.000000 0.031696 0.000000
# 6 0.030852 -0.030852 0.000000 0.000000 0.000000 0.124928
#
#
# Mechanical properties :
#
#
# Convention : Reuss Voigt Hill
#
# Bulk Modulus (GPa) = 52.08643 56.23920 54.16281
# Shear Modulus (GPa) = 17.11752 29.00654 23.06203
#
# Velocity S-wave (km/s) = 2.51707 3.27660 2.92162
# Velocity P-wave (km/s) = 5.26556 5.92710 5.60609
#
# Compressibility (1/GPa) = 0.01919886
#
# Stress axis : x y z
#
# Youngs Moduli (GPa) = 39.16389 39.16389 138.47443
#
# Poissons Ratio (x) = 0.60796 0.27844
# Poissons Ratio (y) = 0.60796 0.27844
# Poissons Ratio (z) = 0.07875 0.07875
#
# Static dielectric constant tensor:
#      x y z
#    x 2.292890 0.000000 0.000000 
#    y 0.000000 2.292890 0.000000 
#    z 0.000000 0.000000 2.071740 
# 
# From -- ./inp_files/368.got.cif
#   From: 2010.05.17/outbox.cif.g08.bks.cpg/sg88_1_cif.got.tgz:368.got - 2010.06.03 19:11:41.
