data_PCOD9546322
_publ_section_title
;
Structure prediction by ZEFSAII (Michael W. Deem and Ramdas Pophale) SiO2 
 PCOD9546322
Probable space group: I 41/A
;
_chemical_formula_sum "Si O2"
_cell_formula_units_Z 96
_cell_length_a 17.708200
_cell_length_b 17.708200
_cell_length_c 17.327045
_cell_angle_alpha 90.000000
_cell_angle_beta 90.000000
_cell_angle_gamma 90.000000
_cell_volume 5433.420788
_symmetry_space_group_name_H-M "I 41/A"
_symmetry_group_IT_number 88
_space_group.IT_coordinate_system_code '2'
_symmetry_cell_setting 'tetragonal'
loop_
_space_group_symop_operation_xyz
x,y,z
3/4-y,1/4+x,1/4+z
-x,1/2-y,z
1/4+y,1/4-x,1/4+z
-x,-y,-z
1/4+y,3/4-x,3/4-z
x,1/2+y,-z
3/4-y,3/4+x,3/4-z
1/2+x,1/2+y,1/2+z
1/4-y,3/4+x,3/4+z
1/2-x,-y,1/2+z
3/4+y,3/4-x,3/4+z
1/2-x,1/2-y,1/2-z
3/4+y,1/4-x,1/4-z
1/2+x,y,1/2-z
1/4-y,1/4+x,1/4-z
loop_
_atom_site_type_symbol
_atom_site_label
_atom_site_fract_x
_atom_site_fract_y
_atom_site_fract_z
Si Si1 0.359147 0.950815 0.844090
Si Si2 0.089622 0.755670 0.110498
Si Si3 0.706505 0.137407 0.613066
Si Si4 0.945896 0.681033 0.473031
Si Si5 0.764677 0.468634 0.745777
Si Si6 0.181489 0.235146 0.590292
O O1 0.411841 0.875518 0.843759
O O2 0.330166 0.968803 0.931254
O O3 0.287771 0.969170 0.789098
O O4 0.418970 0.013758 0.815607
O O5 0.137722 0.685711 0.076253
O O6 0.102192 0.732814 0.200379
O O7 0.000000 0.750000 0.095556
O O8 0.698885 0.087645 0.690645
O O9 0.769177 0.200755 0.631315
O O10 0.739619 0.080223 0.550535
O O11 0.864791 0.721777 0.476284
O O12 0.000000 0.750000 0.454744
O O13 0.948025 0.623719 0.402763
#
# Coordination Sequence:
#
# PCOD9546322 Si02
#       6
#    16  16  16  16  16  16
#     4  10  22  34  54  79 107 151 181 232 266 331
#     4  10  22  35  51  78 110 139 182 222 277 319
#     4  10  20  34  53  78 104 147 175 229 265 330
#     4  11  19  26  46  76 117 152 171 194 250 329
#     4  10  20  35  55  75 113 140 193 216 275 317
#     4  11  18  30  47  79 119 144 176 203 257 332
#
# _framework density 17.668427999999999
#
# number of rings (size 3 to 8) (size 9 to 14) (size 15 to 20)
#    0.000    1.667    1.667    5.000    4.667    2.667 
#    0.000    0.833    0.000    0.000    0.000    0.000 
#    0.000    0.000    0.000    0.000    0.000    0.000 
#
# Total GULP energy -267209.144313 kJ/mol
# GULP energy per Si atom -5566.857173 kJ/mol
# Density = 1.762821 g / cm^3
# Si number density = 17.668428 Si / 1000 Ang^3
#
#
#
# Elastic Constant Matrix: (Units=GPa)
#
#
# Indices 1 2 3 4 5 6 
#
# 1 79.1399 27.0870 8.1442 0.0000 0.0000 -3.5567
# 2 27.0870 79.1399 8.1442 0.0000 0.0000 3.5567
# 3 8.1442 8.1442 36.2904 0.0000 0.0000 0.0000
# 4 0.0000 0.0000 0.0000 14.7517 0.0000 0.0000
# 5 0.0000 0.0000 0.0000 0.0000 14.7517 0.0000
# 6 -3.5567 3.5567 0.0000 0.0000 0.0000 27.0797
#
#
#
# Elastic Compliance Matrix: (Units=1/GPa)
#
#
# Indices 1 2 3 4 5 6 
#
# 1 0.014656 -0.004907 -0.002188 0.000000 0.000000 0.002569
# 2 -0.004907 0.014656 -0.002188 0.000000 0.000000 -0.002569
# 3 -0.002188 -0.002188 0.028538 0.000000 0.000000 0.000000
# 4 0.000000 0.000000 0.000000 0.067789 0.000000 0.000000
# 5 0.000000 0.000000 0.000000 0.000000 0.067789 0.000000
# 6 0.002569 -0.002569 0.000000 0.000000 0.000000 0.037603
#
#
# Mechanical properties :
#
#
# Convention : Reuss Voigt Hill
#
# Bulk Modulus (GPa) = 25.45534 31.25787 28.35661
# Shear Modulus (GPa) = 19.03391 21.39628 20.21510
#
# Velocity S-wave (km/s) = 3.28576 3.48370 3.38618
# Velocity P-wave (km/s) = 5.36968 5.82335 5.60111
#
# Compressibility (1/GPa) = 0.03928448
#
# Stress axis : x y z
#
# Youngs Moduli (GPa) = 68.23223 68.23223 35.04159
#
# Poissons Ratio (x) = 0.33478 0.07667
# Poissons Ratio (y) = 0.33478 0.07667
# Poissons Ratio (z) = 0.14929 0.14929
#
# Static dielectric constant tensor:
#      x y z
#    x 1.673810 0.000000 0.000000 
#    y 0.000000 1.673810 0.000000 
#    z 0.000000 0.000000 1.653950 
# 
# From -- ./inp_files/3941.got.cif
#   From: 2010.05.17/outbox.cif.g08.bks.cpg/sg88_2_cif.got.tgz:3941.got - 2010.06.03 19:11:41.
