data_PCOD9546798
_publ_section_title
;
Structure prediction by ZEFSAII (Michael W. Deem and Ramdas Pophale) SiO2 
 PCOD9546798
Probable space group: I 41/A
;
_chemical_formula_sum "Si O2"
_cell_formula_units_Z 84
_cell_length_a 14.447991
_cell_length_b 14.447991
_cell_length_c 18.473054
_cell_angle_alpha 90.000000
_cell_angle_beta 90.000000
_cell_angle_gamma 90.000000
_cell_volume 3856.147385
_symmetry_space_group_name_H-M "I 41/A"
_symmetry_group_IT_number 88
_space_group.IT_coordinate_system_code '2'
_symmetry_cell_setting 'tetragonal'
loop_
_space_group_symop_operation_xyz
x,y,z
3/4-y,1/4+x,1/4+z
-x,1/2-y,z
1/4+y,1/4-x,1/4+z
-x,-y,-z
1/4+y,3/4-x,3/4-z
x,1/2+y,-z
3/4-y,3/4+x,3/4-z
1/2+x,1/2+y,1/2+z
1/4-y,3/4+x,3/4+z
1/2-x,-y,1/2+z
3/4+y,3/4-x,3/4+z
1/2-x,1/2-y,1/2-z
3/4+y,1/4-x,1/4-z
1/2+x,y,1/2-z
1/4-y,1/4+x,1/4-z
loop_
_atom_site_type_symbol
_atom_site_label
_atom_site_fract_x
_atom_site_fract_y
_atom_site_fract_z
Si Si1 0.934286 0.483289 0.068354
Si Si2 0.224323 0.176963 0.811448
Si Si3 0.398384 0.914726 0.199392
Si Si4 0.500000 0.750000 0.125000
Si Si5 0.544032 0.923671 0.708031
Si Si6 0.093230 0.300635 0.911967
O O1 0.861974 0.400498 0.048792
O O2 0.900948 0.587471 0.091620
O O3 0.998548 0.443020 0.131609
O O4 0.000000 0.500000 0.000000
O O5 0.250000 0.250000 0.750000
O O6 0.291518 0.128285 0.870259
O O7 0.179185 0.100224 0.759996
O O8 0.165524 0.243832 0.863783
O O9 0.443557 0.817926 0.177163
O O10 0.464101 0.983094 0.244010
O O11 0.481395 0.854274 0.754747
O O12 0.000000 0.250000 0.886220
#
# Coordination Sequence:
#
# PCOD9546798 Si02
#       6
#    16  16  16   4  16  16
#     4  12  25  46  74 108 148 202 251 324 384 464
#     4  11  25  46  70 110 146 192 250 311 385 461
#     4  11  26  46  73 109 146 195 253 323 381 475
#     4  12  24  48  80 100 148 204 250 316 404 444
#     4  11  27  46  72 107 147 198 258 317 392 467
#     4  11  24  47  76 103 145 198 253 308 389 456
#
# _framework density 21.7834
#
# number of rings (size 3 to 8) (size 9 to 14) (size 15 to 20)
#    0.000    0.762    3.810    2.286    6.667    1.524 
#    3.429    0.000    0.000    0.000    0.000    0.000 
#    0.000    0.000    0.000    0.000    0.000    0.000 
#
# Total GULP energy -233933.554209 kJ/mol
# GULP energy per Si atom -5569.846529 kJ/mol
# Density = 2.173382 g / cm^3
# Si number density = 21.783400 Si / 1000 Ang^3
#
#
#
# Elastic Constant Matrix: (Units=GPa)
#
#
# Indices 1 2 3 4 5 6 
#
# 1 73.5390 31.0902 45.0717 0.0000 0.0000 -12.8212
# 2 31.0902 73.5390 45.0717 0.0000 0.0000 12.8212
# 3 45.0717 45.0717 180.8317 0.0000 0.0000 0.0000
# 4 0.0000 0.0000 0.0000 37.0406 0.0000 0.0000
# 5 0.0000 0.0000 0.0000 0.0000 37.0406 0.0000
# 6 -12.8212 12.8212 0.0000 0.0000 0.0000 22.0833
#
#
#
# Elastic Compliance Matrix: (Units=1/GPa)
#
#
# Indices 1 2 3 4 5 6 
#
# 1 0.024227 -0.012056 -0.003034 0.000000 0.000000 0.021065
# 2 -0.012056 0.024227 -0.003034 0.000000 0.000000 -0.021065
# 3 -0.003034 -0.003034 0.007042 0.000000 0.000000 0.000000
# 4 0.000000 0.000000 0.000000 0.026997 0.000000 0.000000
# 5 0.000000 0.000000 0.000000 0.000000 0.026997 0.000000
# 6 0.021065 -0.021065 0.000000 0.000000 0.000000 0.069743
#
#
# Mechanical properties :
#
#
# Convention : Reuss Voigt Hill
#
# Bulk Modulus (GPa) = 51.94779 63.37523 57.66151
# Shear Modulus (GPa) = 22.53294 33.01132 27.77213
#
# Velocity S-wave (km/s) = 3.21971 3.89708 3.57448
# Velocity P-wave (km/s) = 6.14176 7.02895 6.60028
#
# Compressibility (1/GPa) = 0.01925010
#
# Stress axis : x y z
#
# Youngs Moduli (GPa) = 41.27619 41.27619 142.00014
#
# Poissons Ratio (x) = 0.49762 0.43078
# Poissons Ratio (y) = 0.49762 0.43078
# Poissons Ratio (z) = 0.12522 0.12522
#
# Static dielectric constant tensor:
#      x y z
#    x 1.883830 0.000000 0.000000 
#    y 0.000000 1.883830 0.000000 
#    z 0.000000 0.000000 1.696630 
# 
# From -- ./inp_files/3893.got.cif
#   From: 2010.05.17/outbox.cif.g08.bks.cpg/sg88_2_cif.got.tgz:3893.got - 2010.06.03 19:11:41.
