data_PCOD9546174
_publ_section_title
;
Structure prediction by ZEFSAII (Michael W. Deem and Ramdas Pophale) SiO2 
 PCOD9546174
Probable space group: I 4/M
;
_chemical_formula_sum "Si O2"
_cell_formula_units_Z 56
_cell_length_a 18.784570
_cell_length_b 18.784570
_cell_length_c 5.781568
_cell_angle_alpha 90.000000
_cell_angle_beta 90.000000
_cell_angle_gamma 90.000000
_cell_volume 2040.084490
_symmetry_space_group_name_H-M "I 4/M"
_symmetry_group_IT_number 87
_symmetry_cell_setting 'tetragonal'
loop_
_space_group_symop_operation_xyz
x,y,z
-y,x,z
-x,-y,z
y,-x,z
-x,-y,-z
y,-x,-z
x,y,-z
-y,x,-z
1/2+x,1/2+y,1/2+z
1/2-y,1/2+x,1/2+z
1/2-x,1/2-y,1/2+z
1/2+y,1/2-x,1/2+z
1/2-x,1/2-y,1/2-z
1/2+y,1/2-x,1/2-z
1/2+x,1/2+y,1/2-z
1/2-y,1/2+x,1/2-z
loop_
_atom_site_type_symbol
_atom_site_label
_atom_site_fract_x
_atom_site_fract_y
_atom_site_fract_z
Si Si1 0.940648 0.765507 0.249745
Si Si2 0.610791 0.083370 0.750532
Si Si3 0.336020 0.753603 0.249914
Si Si4 0.619763 0.508181 0.000000
O O1 0.901631 0.771458 0.500000
O O2 0.964702 0.683211 0.247793
O O3 0.000138 0.825827 0.284799
O O4 0.905790 0.776661 0.000000
O O5 0.575803 0.074752 0.500000
O O6 0.642057 0.163402 0.752140
O O7 0.574976 0.074443 0.000000
O O8 0.361131 0.725587 0.500000
O O9 0.250000 0.750000 0.250000
O O10 0.361514 0.724708 0.000000
O O11 0.564064 0.571696 0.000000
#
# Coordination Sequence:
#
# PCOD9546174 Si02
#       4
#    16  16  16   8
#     4   8  15  25  34  42  50  61  75  88 112 144
#     4   8  12  19  29  38  49  63  76  88 100 124
#     4   8  12  16  23  36  51  64  76  88 100 112
#     4   9  18  28  36  44  52  60  74 100 130 156
#
# _framework density 27.449843999999999
#
# number of rings (size 3 to 8) (size 9 to 14) (size 15 to 20)
#    0.857    3.000    0.000    0.000    0.000    1.143 
#    0.000    1.429    0.000    0.000    0.000    0.000 
#    0.000    0.000    0.000    0.000    0.000    0.000 
#
# Total GULP energy -155941.613690 kJ/mol
# GULP energy per Si atom -5569.343346 kJ/mol
# Density = 2.738737 g / cm^3
# Si number density = 27.449844 Si / 1000 Ang^3
#
#
#
# Elastic Constant Matrix: (Units=GPa)
#
#
# Indices 1 2 3 4 5 6 
#
# 1 123.4795 25.2510 29.2318 0.0000 0.0000 -29.2567
# 2 25.2510 123.4795 29.2318 0.0000 0.0000 29.2567
# 3 29.2318 29.2318 398.2258 0.0000 0.0000 0.0000
# 4 0.0000 0.0000 0.0000 -443.7075 0.0000 0.0000
# 5 0.0000 0.0000 0.0000 0.0000 -443.7075 0.0000
# 6 -29.2567 29.2567 0.0000 0.0000 0.0000 16.0549
#
#
#
# Elastic Compliance Matrix: (Units=1/GPa)
#
#
# Indices 1 2 3 4 5 6 
#
# 1 -0.056061 0.062985 -0.000508 0.000000 0.000000 -0.216937
# 2 0.062985 -0.056061 -0.000508 0.000000 0.000000 0.216937
# 3 -0.000508 -0.000508 0.002586 0.000000 0.000000 0.000000
# 4 0.000000 0.000000 0.000000 -0.002254 0.000000 0.000000
# 5 0.000000 0.000000 0.000000 0.000000 -0.002254 0.000000
# 6 -0.216937 0.216937 0.000000 0.000000 0.000000 -0.728360
#
#
# Mechanical properties :
#
#
# Convention : Reuss Voigt Hill
#
# Bulk Modulus (GPa) = 69.44641 90.29044 79.86843
# Shear Modulus (GPa) = -5.19999 -136.84069 -71.02034
#
# Velocity S-wave (km/s) = -1.37785 -7.06820 -5.09205
# Velocity P-wave (km/s) = 4.77734 5.80071 2.32650
#
# Compressibility (1/GPa) = 0.01439959
#
# Stress axis : x y z
#
# Youngs Moduli (GPa) = -17.83759 -17.83759 386.73522
#
# Poissons Ratio (x) = 1.12350 0.19654
# Poissons Ratio (y) = 1.12350 0.19654
# Poissons Ratio (z) = -0.00907 -0.00907
#
# Static dielectric constant tensor:
#      x y z
#    x 2.097820 0.000000 0.000000 
#    y 0.000000 2.097820 0.000000 
#    z 0.000000 0.000000 2.131430 
# 
# From -- ./inp_files/217.got.cif
#   From: 2010.05.17/outbox.cif.g08.bks.cpg/sg87_1_cif.got.tgz:217.got - 2010.06.03 19:07:00.
