data_PCOD9546419
_publ_section_title
;
Structure prediction by ZEFSAII (Michael W. Deem and Ramdas Pophale) SiO2 
 PCOD9546419
Probable space group: I 41/A
;
_chemical_formula_sum "Si O2"
_cell_formula_units_Z 84
_cell_length_a 19.621944
_cell_length_b 19.621944
_cell_length_c 11.653130
_cell_angle_alpha 90.000000
_cell_angle_beta 90.000000
_cell_angle_gamma 90.000000
_cell_volume 4486.696111
_symmetry_space_group_name_H-M "I 41/A"
_symmetry_group_IT_number 88
_space_group.IT_coordinate_system_code '2'
_symmetry_cell_setting 'tetragonal'
loop_
_space_group_symop_operation_xyz
x,y,z
3/4-y,1/4+x,1/4+z
-x,1/2-y,z
1/4+y,1/4-x,1/4+z
-x,-y,-z
1/4+y,3/4-x,3/4-z
x,1/2+y,-z
3/4-y,3/4+x,3/4-z
1/2+x,1/2+y,1/2+z
1/4-y,3/4+x,3/4+z
1/2-x,-y,1/2+z
3/4+y,3/4-x,3/4+z
1/2-x,1/2-y,1/2-z
3/4+y,1/4-x,1/4-z
1/2+x,y,1/2-z
1/4-y,1/4+x,1/4-z
loop_
_atom_site_type_symbol
_atom_site_label
_atom_site_fract_x
_atom_site_fract_y
_atom_site_fract_z
Si Si1 0.825913 0.077708 0.636066
Si Si2 0.672950 0.938486 0.393624
Si Si3 0.066018 0.964145 0.554431
Si Si4 0.500000 0.250000 0.375000
Si Si5 0.902499 0.929232 0.866881
Si Si6 0.136700 0.714827 0.973344
O O1 0.851921 0.084799 0.767685
O O2 0.885834 0.071079 0.542216
O O3 0.770023 0.137140 0.628347
O O4 0.791470 0.002631 0.629138
O O5 0.674202 0.880120 0.488978
O O6 0.628780 0.003937 0.425511
O O7 0.039480 0.911683 0.648032
O O8 0.000000 0.000000 0.500000
O O9 0.564732 0.251977 0.456444
O O10 0.875836 0.861622 0.929654
O O11 0.984164 0.933426 0.852111
#
# Coordination Sequence:
#
# PCOD9546419 Si02
#       6
#    16  16  16   4  16  16
#     4   9  20  35  58  84 116 153 188 237 298 354
#     4   9  18  35  57  79 114 147 184 237 299 344
#     4  11  22  38  59  87 120 155 195 247 301 361
#     4   8  20  44  52  80 114 160 192 240 300 346
#     4  10  21  35  56  82 110 150 190 243 293 348
#     4  10  21  36  59  80 113 149 194 240 296 345
#
# _framework density 18.722017000000001
#
# number of rings (size 3 to 8) (size 9 to 14) (size 15 to 20)
#    0.000    2.286    0.000    3.429    8.000    0.762 
#    0.000   11.429    0.000    0.000    0.000    0.000 
#    0.000    0.000    0.000    0.000    0.000    0.000 
#
# Total GULP energy -233937.136410 kJ/mol
# GULP energy per Si atom -5569.931819 kJ/mol
# Density = 1.867940 g / cm^3
# Si number density = 18.722017 Si / 1000 Ang^3
#
#
#
# Elastic Constant Matrix: (Units=GPa)
#
#
# Indices 1 2 3 4 5 6 
#
# 1 43.5626 11.2439 16.3991 0.0000 0.0000 6.9284
# 2 11.2439 43.5626 16.3991 0.0000 0.0000 -6.9284
# 3 16.3991 16.3991 81.9656 0.0000 0.0000 0.0000
# 4 0.0000 0.0000 0.0000 29.0094 0.0000 0.0000
# 5 0.0000 0.0000 0.0000 0.0000 29.0094 0.0000
# 6 6.9284 -6.9284 0.0000 0.0000 0.0000 12.9930
#
#
#
# Elastic Compliance Matrix: (Units=1/GPa)
#
#
# Indices 1 2 3 4 5 6 
#
# 1 0.030420 -0.009693 -0.004147 0.000000 0.000000 -0.021390
# 2 -0.009693 0.030420 -0.004147 0.000000 0.000000 0.021390
# 3 -0.004147 -0.004147 0.013860 0.000000 0.000000 0.000000
# 4 0.000000 0.000000 0.000000 0.034472 0.000000 0.000000
# 5 0.000000 0.000000 0.000000 0.000000 0.034472 0.000000
# 6 -0.021390 0.021390 0.000000 0.000000 0.000000 0.099776
#
#
# Mechanical properties :
#
#
# Convention : Reuss Voigt Hill
#
# Bulk Modulus (GPa) = 25.82184 28.57501 27.19843
# Shear Modulus (GPa) = 17.10559 22.53897 19.82228
#
# Velocity S-wave (km/s) = 3.02596 3.47345 3.25740
# Velocity P-wave (km/s) = 5.10204 5.60200 5.35785
#
# Compressibility (1/GPa) = 0.03872691
#
# Stress axis : x y z
#
# Youngs Moduli (GPa) = 32.87278 32.87278 72.15184
#
# Poissons Ratio (x) = 0.31862 0.29922
# Poissons Ratio (y) = 0.31862 0.29922
# Poissons Ratio (z) = 0.13633 0.13633
#
# Static dielectric constant tensor:
#      x y z
#    x 1.681520 0.000000 0.000000 
#    y 0.000000 1.681520 0.000000 
#    z 0.000000 0.000000 1.666890 
# 
# From -- ./inp_files/2576.got.cif
#   From: 2010.05.17/outbox.cif.g08.bks.cpg/sg88_2_cif.got.tgz:2576.got - 2010.06.03 19:11:41.
