data_PCOD9546323
_publ_section_title
;
Structure prediction by ZEFSAII (Michael W. Deem and Ramdas Pophale) SiO2 
 PCOD9546323
Probable space group: I 41/A
;
_chemical_formula_sum "Si O2"
_cell_formula_units_Z 80
_cell_length_a 12.320440
_cell_length_b 12.320440
_cell_length_c 28.649846
_cell_angle_alpha 90.000000
_cell_angle_beta 90.000000
_cell_angle_gamma 90.000000
_cell_volume 4348.853001
_symmetry_space_group_name_H-M "I 41/A"
_symmetry_group_IT_number 88
_space_group.IT_coordinate_system_code '2'
_symmetry_cell_setting 'tetragonal'
loop_
_space_group_symop_operation_xyz
x,y,z
3/4-y,1/4+x,1/4+z
-x,1/2-y,z
1/4+y,1/4-x,1/4+z
-x,-y,-z
1/4+y,3/4-x,3/4-z
x,1/2+y,-z
3/4-y,3/4+x,3/4-z
1/2+x,1/2+y,1/2+z
1/4-y,3/4+x,3/4+z
1/2-x,-y,1/2+z
3/4+y,3/4-x,3/4+z
1/2-x,1/2-y,1/2-z
3/4+y,1/4-x,1/4-z
1/2+x,y,1/2-z
1/4-y,1/4+x,1/4-z
loop_
_atom_site_type_symbol
_atom_site_label
_atom_site_fract_x
_atom_site_fract_y
_atom_site_fract_z
Si Si1 0.194826 0.554400 0.554366
Si Si2 0.858073 0.142511 0.130822
Si Si3 0.871204 0.624191 0.376978
Si Si4 0.879756 0.765413 0.232664
Si Si5 0.773593 0.028011 0.453578
O O1 0.278063 0.605847 0.590029
O O2 0.163455 0.437605 0.576183
O O3 0.240923 0.534473 0.502530
O O4 0.086065 0.627121 0.552440
O O5 0.856931 0.271549 0.133767
O O6 0.824351 0.082785 0.178682
O O7 0.853255 0.751891 0.380441
O O8 0.803726 0.577379 0.333762
O O9 0.750000 0.750000 0.250000
O O10 0.871230 0.886631 0.213151
O O11 0.000000 0.750000 0.257735
#
# Coordination Sequence:
#
# PCOD9546323 Si02
#       5
#    16  16  16  16  16
#     4  10  21  37  58  86 115 152 195 241 292 353
#     4  10  22  40  60  82 114 156 198 244 290 342
#     4  10  20  34  54  84 120 150 188 238 294 352
#     4  10  20  34  56  86 114 150 192 240 298 354
#     4  10  21  37  58  86 115 152 195 241 292 353
#
# _framework density 18.395652999999999
#
# number of rings (size 3 to 8) (size 9 to 14) (size 15 to 20)
#    0.000    2.000    2.000    1.200    0.000    8.800 
#    0.000    0.000    0.000    0.000    0.000    0.000 
#    0.000    0.000    0.000    0.000    0.000    0.000 
#
# Total GULP energy -222700.516130 kJ/mol
# GULP energy per Si atom -5567.512903 kJ/mol
# Density = 1.835378 g / cm^3
# Si number density = 18.395653 Si / 1000 Ang^3
#
#
#
# Elastic Constant Matrix: (Units=GPa)
#
#
# Indices 1 2 3 4 5 6 
#
# 1 15.1886 22.9421 -14.6644 0.0000 0.0000 0.4973
# 2 22.9421 15.1886 -14.6644 0.0000 0.0000 -0.4973
# 3 -14.6644 -14.6644 58.3707 0.0000 0.0000 0.0000
# 4 0.0000 0.0000 0.0000 17.7524 0.0000 0.0000
# 5 0.0000 0.0000 0.0000 0.0000 17.7524 0.0000
# 6 0.4973 -0.4973 0.0000 0.0000 0.0000 22.9981
#
#
#
# Elastic Compliance Matrix: (Units=1/GPa)
#
#
# Indices 1 2 3 4 5 6 
#
# 1 -0.048055 0.080563 0.008167 0.000000 0.000000 0.002781
# 2 0.080563 -0.048055 0.008167 0.000000 0.000000 -0.002781
# 3 0.008167 0.008167 0.021235 0.000000 0.000000 0.000000
# 4 0.000000 0.000000 0.000000 0.056330 0.000000 0.000000
# 5 0.000000 0.000000 0.000000 0.000000 0.056330 0.000000
# 6 0.002781 -0.002781 0.000000 0.000000 0.000000 0.043362
#
#
# Mechanical properties :
#
#
# Convention : Reuss Voigt Hill
#
# Bulk Modulus (GPa) = 8.40926 8.44162 8.42544
# Shear Modulus (GPa) = -68.48737 18.04289 -25.22224
#
# Velocity S-wave (km/s) = -6.10827 3.13521 -3.70685
# Velocity P-wave (km/s) = 6.72062 4.20772 3.70553
#
# Compressibility (1/GPa) = 0.11891649
#
# Stress axis : x y z
#
# Youngs Moduli (GPa) = -20.80933 -20.80933 47.09135
#
# Poissons Ratio (x) = 1.67645 -0.38458
# Poissons Ratio (y) = 1.67645 -0.38458
# Poissons Ratio (z) = 0.16994 0.16994
#
# Static dielectric constant tensor:
#      x y z
#    x 1.670870 0.000000 0.000000 
#    y 0.000000 1.670870 0.000000 
#    z 0.000000 0.000000 1.671070 
# 
# From -- ./inp_files/6279.got.cif
#   From: 2010.05.17/outbox.cif.g08.bks.cpg/sg88_4_cif.got.tgz:6279.got - 2010.06.03 19:11:41.
