data_PCOD9546120
_publ_section_title
;
Structure prediction by ZEFSAII (Michael W. Deem and Ramdas Pophale) SiO2 
 PCOD9546120
Probable space group: I 4/M
;
_chemical_formula_sum "Si O2"
_cell_formula_units_Z 84
_cell_length_a 11.797845
_cell_length_b 11.797845
_cell_length_c 28.938746
_cell_angle_alpha 90.000000
_cell_angle_beta 90.000000
_cell_angle_gamma 90.000000
_cell_volume 4027.959361
_symmetry_space_group_name_H-M "I 4/M"
_symmetry_group_IT_number 87
_symmetry_cell_setting 'tetragonal'
loop_
_space_group_symop_operation_xyz
x,y,z
-y,x,z
-x,-y,z
y,-x,z
-x,-y,-z
y,-x,-z
x,y,-z
-y,x,-z
1/2+x,1/2+y,1/2+z
1/2-y,1/2+x,1/2+z
1/2-x,1/2-y,1/2+z
1/2+y,1/2-x,1/2+z
1/2-x,1/2-y,1/2-z
1/2+y,1/2-x,1/2-z
1/2+x,1/2+y,1/2-z
1/2-y,1/2+x,1/2-z
loop_
_atom_site_type_symbol
_atom_site_label
_atom_site_fract_x
_atom_site_fract_y
_atom_site_fract_z
Si Si1 0.397261 0.161738 0.621877
Si Si2 0.085665 0.171102 0.204335
Si Si3 0.909954 0.830997 0.689440
Si Si4 0.500000 0.500000 0.922300
Si Si5 0.852786 0.397340 0.885629
Si Si6 0.692523 0.677495 0.054288
O O1 0.377683 0.234461 0.668020
O O2 0.531433 0.172397 0.612683
O O3 0.311468 0.193824 0.580853
O O4 0.378730 0.027356 0.626442
O O5 0.105667 0.205761 0.257569
O O6 0.950941 0.145991 0.198586
O O7 0.866161 0.738633 0.653740
O O8 0.044921 0.854358 0.682598
O O9 0.380855 0.426851 0.925688
O O10 0.789664 0.379544 0.933963
O O11 0.705762 0.659211 0.000000
#
# Coordination Sequence:
#
# PCOD9546120 Si02
#       6
#    16  16  16   4  16  16
#     4  11  24  40  60  92 132 169 207 261 331 391
#     4   9  19  39  64  91 129 180 230 266 306 372
#     4   9  19  36  63  97 132 175 226 276 318 368
#     4  12  25  44  72 100 120 160 216 268 332 396
#     4  11  24  39  60  94 129 166 209 263 330 392
#     4  12  25  44  69  94 124 162 211 271 328 397
#
# _framework density 20.854230999999999
#
# number of rings (size 3 to 8) (size 9 to 14) (size 15 to 20)
#    0.000    1.524    1.905    4.286    0.000    2.286 
#    0.000    8.571    0.000    0.000    0.000    4.000 
#    0.000    0.000    0.000    0.000    0.000    0.000 
#
# Total GULP energy -234184.634493 kJ/mol
# GULP energy per Si atom -5575.824631 kJ/mol
# Density = 2.080677 g / cm^3
# Si number density = 20.854231 Si / 1000 Ang^3
#
#
#
# Elastic Constant Matrix: (Units=GPa)
#
#
# Indices 1 2 3 4 5 6 
#
# 1 107.8142 3.6912 39.5180 0.0000 0.0000 -12.5613
# 2 3.6912 107.8142 39.5180 0.0000 0.0000 12.5613
# 3 39.5180 39.5180 112.0912 0.0000 0.0000 0.0000
# 4 0.0000 0.0000 0.0000 13.1953 0.0000 0.0000
# 5 0.0000 0.0000 0.0000 0.0000 13.1953 0.0000
# 6 -12.5613 12.5613 0.0000 0.0000 0.0000 20.3372
#
#
#
# Elastic Compliance Matrix: (Units=1/GPa)
#
#
# Indices 1 2 3 4 5 6 
#
# 1 0.011621 0.000335 -0.004215 0.000000 0.000000 0.006971
# 2 0.000335 0.011621 -0.004215 0.000000 0.000000 -0.006971
# 3 -0.004215 -0.004215 0.011893 0.000000 0.000000 0.000000
# 4 0.000000 0.000000 0.000000 0.075784 0.000000 0.000000
# 5 0.000000 0.000000 0.000000 0.000000 0.075784 0.000000
# 6 0.006971 -0.006971 0.000000 0.000000 0.000000 0.057782
#
#
# Mechanical properties :
#
#
# Convention : Reuss Voigt Hill
#
# Bulk Modulus (GPa) = 52.78486 54.79709 53.79098
# Shear Modulus (GPa) = 18.72721 25.67841 22.20281
#
# Velocity S-wave (km/s) = 2.99993 3.51284 3.26646
# Velocity P-wave (km/s) = 6.11275 6.54115 6.33057
#
# Compressibility (1/GPa) = 0.01894482
#
# Stress axis : x y z
#
# Youngs Moduli (GPa) = 86.05194 86.05194 84.08049
#
# Poissons Ratio (x) = -0.02882 0.35440
# Poissons Ratio (y) = -0.02882 0.35440
# Poissons Ratio (z) = 0.36271 0.36271
#
# Static dielectric constant tensor:
#      x y z
#    x 1.793020 0.000000 0.000000 
#    y 0.000000 1.793020 0.000000 
#    z 0.000000 0.000000 1.752280 
# 
# From -- ./inp_files/6604.got.cif
#   From: 2010.05.17/outbox.cif.g08.bks.cpg/sg87_4_cif.got.tgz:6604.got - 2010.06.03 19:07:00.
