data_PCOD9546764
_publ_section_title
;
Structure prediction by ZEFSAII (Michael W. Deem and Ramdas Pophale) SiO2 
 PCOD9546764
Probable space group: I 41/A
;
_chemical_formula_sum "Si O2"
_cell_formula_units_Z 72
_cell_length_a 12.554725
_cell_length_b 12.554725
_cell_length_c 17.708220
_cell_angle_alpha 90.000000
_cell_angle_beta 90.000000
_cell_angle_gamma 90.000000
_cell_volume 2791.189467
_symmetry_space_group_name_H-M "I 41/A"
_symmetry_group_IT_number 88
_space_group.IT_coordinate_system_code '2'
_symmetry_cell_setting 'tetragonal'
loop_
_space_group_symop_operation_xyz
x,y,z
3/4-y,1/4+x,1/4+z
-x,1/2-y,z
1/4+y,1/4-x,1/4+z
-x,-y,-z
1/4+y,3/4-x,3/4-z
x,1/2+y,-z
3/4-y,3/4+x,3/4-z
1/2+x,1/2+y,1/2+z
1/4-y,3/4+x,3/4+z
1/2-x,-y,1/2+z
3/4+y,3/4-x,3/4+z
1/2-x,1/2-y,1/2-z
3/4+y,1/4-x,1/4-z
1/2+x,y,1/2-z
1/4-y,1/4+x,1/4-z
loop_
_atom_site_type_symbol
_atom_site_label
_atom_site_fract_x
_atom_site_fract_y
_atom_site_fract_z
Si Si1 0.090345 0.107312 0.857551
Si Si2 0.664310 0.137215 0.288690
Si Si3 0.882902 0.946820 0.310688
Si Si4 0.500000 0.750000 0.625000
Si Si5 0.000000 0.250000 0.625000
Si Si6 0.167161 0.107065 0.386206
O O1 0.117178 0.042529 0.780421
O O2 0.200549 0.165261 0.886399
O O3 0.967371 0.145593 0.845452
O O4 0.085363 0.029663 0.929788
O O5 0.593725 0.233632 0.315950
O O6 0.661286 0.102526 0.203255
O O7 0.620159 0.035443 0.333661
O O8 0.763318 0.905225 0.331818
O O9 0.963791 0.851518 0.327269
#
# Coordination Sequence:
#
# PCOD9546764 Si02
#       6
#    16  16  16   4   4  16
#     4  11  24  46  81 112 153 199 260 316 390 460
#     4  11  23  41  72 112 162 199 248 319 396 456
#     4  11  28  50  79 111 153 205 256 321 385 461
#     4  12  24  32  66 116 156 200 246 316 396 448
#     4  12  32  56  78  96 160 200 266 316 380 468
#     4  11  24  45  78 110 155 201 254 318 393 460
#
# _framework density 25.795456000000001
#
# number of rings (size 3 to 8) (size 9 to 14) (size 15 to 20)
#    0.000    0.889    2.222    6.000    9.333    0.889 
#    0.000    0.000    0.000    0.000    0.000    0.000 
#    0.000    0.000    0.000    0.000    0.000    0.000 
#
# Total GULP energy -200858.900258 kJ/mol
# GULP energy per Si atom -5579.413896 kJ/mol
# Density = 2.573674 g / cm^3
# Si number density = 25.795456 Si / 1000 Ang^3
#
#
#
# Elastic Constant Matrix: (Units=GPa)
#
#
# Indices 1 2 3 4 5 6 
#
# 1 87.4317 -6.7770 -2.7720 0.0000 0.0000 -9.4113
# 2 -6.7770 87.4317 -2.7720 0.0000 0.0000 9.4113
# 3 -2.7720 -2.7720 140.0103 0.0000 0.0000 0.0000
# 4 0.0000 0.0000 0.0000 29.1348 0.0000 0.0000
# 5 0.0000 0.0000 0.0000 0.0000 29.1348 0.0000
# 6 -9.4113 9.4113 0.0000 0.0000 0.0000 43.6969
#
#
#
# Elastic Compliance Matrix: (Units=1/GPa)
#
#
# Indices 1 2 3 4 5 6 
#
# 1 0.011754 0.000662 0.000246 0.000000 0.000000 0.002389
# 2 0.000662 0.011754 0.000246 0.000000 0.000000 -0.002389
# 3 0.000246 0.000246 0.007152 0.000000 0.000000 0.000000
# 4 0.000000 0.000000 0.000000 0.034323 0.000000 0.000000
# 5 0.000000 0.000000 0.000000 0.000000 0.034323 0.000000
# 6 0.002389 -0.002389 0.000000 0.000000 0.000000 0.023914
#
#
# Mechanical properties :
#
#
# Convention : Reuss Voigt Hill
#
# Bulk Modulus (GPa) = 30.33413 32.24797 31.29105
# Shear Modulus (GPa) = 37.90695 42.20629 40.05662
#
# Velocity S-wave (km/s) = 3.83759 4.04937 3.94490
# Velocity P-wave (km/s) = 5.60546 5.86445 5.73642
#
# Compressibility (1/GPa) = 0.03296616
#
# Stress axis : x y z
#
# Youngs Moduli (GPa) = 85.07931 85.07931 139.81980
#
# Poissons Ratio (x) = -0.05630 -0.03437
# Poissons Ratio (y) = -0.05630 -0.03437
# Poissons Ratio (z) = -0.02091 -0.02091
#
# Static dielectric constant tensor:
#      x y z
#    x 2.157510 0.000000 0.000000 
#    y 0.000000 2.157510 0.000000 
#    z 0.000000 0.000000 1.928470 
# 
# From -- ./inp_files/3864.got.cif
#   From: 2010.05.17/outbox.cif.g08.bks.cpg/sg88_2_cif.got.tgz:3864.got - 2010.06.03 19:11:41.
