data_PCOD9546653
_publ_section_title
;
Structure prediction by ZEFSAII (Michael W. Deem and Ramdas Pophale) SiO2 
 PCOD9546653
Probable space group: I 41/A
;
_chemical_formula_sum "Si O2"
_cell_formula_units_Z 96
_cell_length_a 14.584368
_cell_length_b 14.584368
_cell_length_c 20.488941
_cell_angle_alpha 90.000000
_cell_angle_beta 90.000000
_cell_angle_gamma 90.000000
_cell_volume 4358.075403
_symmetry_space_group_name_H-M "I 41/A"
_symmetry_group_IT_number 88
_space_group.IT_coordinate_system_code '2'
_symmetry_cell_setting 'tetragonal'
loop_
_space_group_symop_operation_xyz
x,y,z
3/4-y,1/4+x,1/4+z
-x,1/2-y,z
1/4+y,1/4-x,1/4+z
-x,-y,-z
1/4+y,3/4-x,3/4-z
x,1/2+y,-z
3/4-y,3/4+x,3/4-z
1/2+x,1/2+y,1/2+z
1/4-y,3/4+x,3/4+z
1/2-x,-y,1/2+z
3/4+y,3/4-x,3/4+z
1/2-x,1/2-y,1/2-z
3/4+y,1/4-x,1/4-z
1/2+x,y,1/2-z
1/4-y,1/4+x,1/4-z
loop_
_atom_site_type_symbol
_atom_site_label
_atom_site_fract_x
_atom_site_fract_y
_atom_site_fract_z
Si Si1 0.340368 0.795273 0.453748
Si Si2 0.203532 0.267817 0.319669
Si Si3 0.340971 0.108464 0.910756
Si Si4 0.963065 0.113646 0.148535
Si Si5 0.469204 0.399938 0.973047
Si Si6 0.120523 0.603082 0.603443
O O1 0.426965 0.860096 0.439841
O O2 0.247510 0.853175 0.447266
O O3 0.349136 0.759076 0.527107
O O4 0.337322 0.715535 0.401023
O O5 0.250000 0.250000 0.250000
O O6 0.273095 0.325301 0.364871
O O7 0.184436 0.174615 0.359272
O O8 0.435075 0.140111 0.946336
O O9 0.341995 0.150753 0.838007
O O10 0.338153 0.997896 0.908516
O O11 0.894013 0.198030 0.142523
O O12 0.500000 0.500000 0.000000
O O13 0.417138 0.356940 0.034858
#
# Coordination Sequence:
#
# PCOD9546653 Si02
#       6
#    16  16  16  16  16  16
#     4  12  26  47  73 106 146 194 246 305 371 444
#     4  12  27  46  71 109 141 195 248 302 373 440
#     4  11  24  47  75 107 149 194 246 306 375 448
#     4  11  26  48  71  99 145 190 241 307 363 440
#     4  10  23  48  67 110 147 187 247 305 367 447
#     4  11  27  47  74 105 154 189 242 313 365 459
#
# _framework density 22.028071000000001
#
# number of rings (size 3 to 8) (size 9 to 14) (size 15 to 20)
#    0.000    0.833    5.000    1.500    9.333    3.000 
#    3.000    0.000    0.000    0.000    0.000    0.000 
#    0.000    0.000    0.000    0.000    0.000    0.000 
#
# Total GULP energy -268608.569005 kJ/mol
# GULP energy per Si atom -5596.011854 kJ/mol
# Density = 2.197793 g / cm^3
# Si number density = 22.028071 Si / 1000 Ang^3
#
#
#
# Elastic Constant Matrix: (Units=GPa)
#
#
# Indices 1 2 3 4 5 6 
#
# 1 66.0611 20.8043 23.4199 0.0000 0.0000 1.1327
# 2 20.8043 66.0611 23.4199 0.0000 0.0000 -1.1327
# 3 23.4199 23.4199 135.7029 0.0000 0.0000 0.0000
# 4 0.0000 0.0000 0.0000 39.1178 0.0000 0.0000
# 5 0.0000 0.0000 0.0000 0.0000 39.1178 0.0000
# 6 1.1327 -1.1327 0.0000 0.0000 0.0000 25.4099
#
#
#
# Elastic Compliance Matrix: (Units=1/GPa)
#
#
# Indices 1 2 3 4 5 6 
#
# 1 0.017419 -0.004726 -0.002191 0.000000 0.000000 -0.000987
# 2 -0.004726 0.017419 -0.002191 0.000000 0.000000 0.000987
# 3 -0.002191 -0.002191 0.008125 0.000000 0.000000 0.000000
# 4 0.000000 0.000000 0.000000 0.025564 0.000000 0.000000
# 5 0.000000 0.000000 0.000000 0.000000 0.025564 0.000000
# 6 -0.000987 0.000987 0.000000 0.000000 0.000000 0.039443
#
#
# Mechanical properties :
#
#
# Convention : Reuss Voigt Hill
#
# Bulk Modulus (GPa) = 40.40533 44.79040 42.59786
# Shear Modulus (GPa) = 31.25023 34.07452 32.66237
#
# Velocity S-wave (km/s) = 3.77059 3.93729 3.85484
# Velocity P-wave (km/s) = 6.11056 6.40680 6.26043
#
# Compressibility (1/GPa) = 0.02474921
#
# Stress axis : x y z
#
# Youngs Moduli (GPa) = 57.40721 57.40721 123.07429
#
# Poissons Ratio (x) = 0.27131 0.26961
# Poissons Ratio (y) = 0.27131 0.26961
# Poissons Ratio (z) = 0.12576 0.12576
#
# Static dielectric constant tensor:
#      x y z
#    x 1.825570 0.000000 0.000000 
#    y 0.000000 1.825570 0.000000 
#    z 0.000000 0.000000 1.774320 
# 
# From -- ./inp_files/4695.got.cif
#   From: 2010.05.17/outbox.cif.g08.bks.cpg/sg88_3_cif.got.tgz:4695.got - 2010.06.03 19:11:41.
