data_PCOD9546086
_publ_section_title
;
Structure prediction by ZEFSAII (Michael W. Deem and Ramdas Pophale) SiO2 
 PCOD9546086
Probable space group: I 4/M
;
_chemical_formula_sum "Si O2"
_cell_formula_units_Z 56
_cell_length_a 14.654671
_cell_length_b 14.654671
_cell_length_c 12.901971
_cell_angle_alpha 90.000000
_cell_angle_beta 90.000000
_cell_angle_gamma 90.000000
_cell_volume 2770.819320
_symmetry_space_group_name_H-M "I 4/M"
_symmetry_group_IT_number 87
_symmetry_cell_setting 'tetragonal'
loop_
_space_group_symop_operation_xyz
x,y,z
-y,x,z
-x,-y,z
y,-x,z
-x,-y,-z
y,-x,-z
x,y,-z
-y,x,-z
1/2+x,1/2+y,1/2+z
1/2-y,1/2+x,1/2+z
1/2-x,1/2-y,1/2+z
1/2+y,1/2-x,1/2+z
1/2-x,1/2-y,1/2-z
1/2+y,1/2-x,1/2-z
1/2+x,1/2+y,1/2-z
1/2-y,1/2+x,1/2-z
loop_
_atom_site_type_symbol
_atom_site_label
_atom_site_fract_x
_atom_site_fract_y
_atom_site_fract_z
Si Si1 0.092071 0.126525 0.500000
Si Si2 0.505651 0.769416 0.718249
Si Si3 0.416627 0.929360 0.613497
Si Si4 0.172021 0.177087 0.720438
O O1 0.131607 0.175160 0.603374
O O2 0.981003 0.123289 0.500000
O O3 0.461799 0.830373 0.628263
O O4 0.546961 0.844428 0.798002
O O5 0.588663 0.700439 0.702277
O O6 0.422049 0.714467 0.765449
O O7 0.374546 0.938899 0.500000
O O8 0.500000 0.000000 0.621136
O O9 0.250000 0.250000 0.750000
#
# Coordination Sequence:
#
# PCOD9546086 Si02
#       4
#     8  16  16  16
#     4  11  24  44  72 102 134 181 234 288 352 409
#     4  12  23  43  62 101 134 177 228 281 347 410
#     4  11  22  41  66  91 129 176 230 289 342 406
#     4  12  25  41  68  99 142 176 225 288 345 412
#
# _framework density 20.210628
#
# number of rings (size 3 to 8) (size 9 to 14) (size 15 to 20)
#    0.000    0.429    8.571    0.000    4.000    0.571 
#    2.571    0.000    0.000    0.000    0.000    2.000 
#    0.000    0.000    0.000    0.000    0.000    0.000 
#
# Total GULP energy -156335.087099 kJ/mol
# GULP energy per Si atom -5583.395968 kJ/mol
# Density = 2.016463 g / cm^3
# Si number density = 20.210628 Si / 1000 Ang^3
#
#
#
# Elastic Constant Matrix: (Units=GPa)
#
#
# Indices 1 2 3 4 5 6 
#
# 1 101.8062 39.0967 11.8638 0.0000 0.0000 -6.5968
# 2 39.0967 101.8062 11.8638 0.0000 0.0000 6.5968
# 3 11.8638 11.8638 45.0537 0.0000 0.0000 0.0000
# 4 0.0000 0.0000 0.0000 18.3299 0.0000 0.0000
# 5 0.0000 0.0000 0.0000 0.0000 18.3299 0.0000
# 6 -6.5968 6.5968 0.0000 0.0000 0.0000 49.5234
#
#
#
# Elastic Compliance Matrix: (Units=1/GPa)
#
#
# Indices 1 2 3 4 5 6 
#
# 1 0.011916 -0.004490 -0.001956 0.000000 0.000000 0.002185
# 2 -0.004490 0.011916 -0.001956 0.000000 0.000000 -0.002185
# 3 -0.001956 -0.001956 0.023226 0.000000 0.000000 0.000000
# 4 0.000000 0.000000 0.000000 0.054556 0.000000 0.000000
# 5 0.000000 0.000000 0.000000 0.000000 0.054556 0.000000
# 6 0.002185 -0.002185 0.000000 0.000000 0.000000 0.020775
#
#
# Mechanical properties :
#
#
# Convention : Reuss Voigt Hill
#
# Bulk Modulus (GPa) = 33.05107 41.59052 37.32080
# Shear Modulus (GPa) = 24.53004 29.62611 27.07807
#
# Velocity S-wave (km/s) = 3.48763 3.83282 3.66429
# Velocity P-wave (km/s) = 5.71024 6.34118 6.03396
#
# Compressibility (1/GPa) = 0.03025620
#
# Stress axis : x y z
#
# Youngs Moduli (GPa) = 83.91818 83.91818 43.05586
#
# Poissons Ratio (x) = 0.37679 0.08420
# Poissons Ratio (y) = 0.37679 0.08420
# Poissons Ratio (z) = 0.16411 0.16411
#
# Static dielectric constant tensor:
#      x y z
#    x 1.743200 0.000000 0.000000 
#    y 0.000000 1.743200 0.000000 
#    z 0.000000 0.000000 1.728910 
# 
# From -- ./inp_files/2162.got.cif
#   From: 2010.05.17/outbox.cif.g08.bks.cpg/sg87_2_cif.got.tgz:2162.got - 2010.06.03 19:07:00.
