data_PCOD9546295
_publ_section_title
;
Structure prediction by ZEFSAII (Michael W. Deem and Ramdas Pophale) SiO2 
 PCOD9546295
Probable space group: I 41/A
;
_chemical_formula_sum "Si O2"
_cell_formula_units_Z 100
_cell_length_a 14.806089
_cell_length_b 14.806089
_cell_length_c 24.183362
_cell_angle_alpha 90.000000
_cell_angle_beta 90.000000
_cell_angle_gamma 90.000000
_cell_volume 5301.483183
_symmetry_space_group_name_H-M "I 41/A"
_symmetry_group_IT_number 88
_space_group.IT_coordinate_system_code '2'
_symmetry_cell_setting 'tetragonal'
loop_
_space_group_symop_operation_xyz
x,y,z
3/4-y,1/4+x,1/4+z
-x,1/2-y,z
1/4+y,1/4-x,1/4+z
-x,-y,-z
1/4+y,3/4-x,3/4-z
x,1/2+y,-z
3/4-y,3/4+x,3/4-z
1/2+x,1/2+y,1/2+z
1/4-y,3/4+x,3/4+z
1/2-x,-y,1/2+z
3/4+y,3/4-x,3/4+z
1/2-x,1/2-y,1/2-z
3/4+y,1/4-x,1/4-z
1/2+x,y,1/2-z
1/4-y,1/4+x,1/4-z
loop_
_atom_site_type_symbol
_atom_site_label
_atom_site_fract_x
_atom_site_fract_y
_atom_site_fract_z
Si Si1 0.582358 0.545574 0.426079
Si Si2 0.405496 0.962851 0.933021
Si Si3 0.745154 0.520501 0.357840
Si Si4 0.893994 0.750145 0.082489
Si Si5 0.181204 0.636244 0.715519
Si Si6 0.500000 0.750000 0.125000
Si Si7 0.343637 0.184203 0.802369
O O1 0.640206 0.515733 0.373368
O O2 0.622191 0.646850 0.435738
O O3 0.473872 0.552515 0.426011
O O4 0.599332 0.476415 0.475694
O O5 0.459894 0.911682 0.884117
O O6 0.308382 0.993117 0.910043
O O7 0.465711 0.050569 0.947464
O O8 0.401927 0.903797 0.988832
O O9 0.772656 0.449435 0.311535
O O10 0.777165 0.617329 0.335433
O O11 0.877044 0.677072 0.034259
O O12 0.000000 0.750000 0.097612
O O13 0.560729 0.687260 0.085337
#
# Coordination Sequence:
#
# PCOD9546295 Si02
#       7
#    16  16  16  16  16   4  16
#     4  10  19  38  61  81 113 156 186 241 296 345
#     4  10  21  36  55  82 113 150 196 230 282 349
#     4  11  20  38  58  84 118 152 192 246 289 351
#     4   9  18  35  59  83 110 147 188 235 282 347
#     4   9  21  37  58  86 113 144 198 236 289 348
#     4  12  24  40  56  88 128 152 192 248 292 346
#     4  11  22  36  56  82 117 155 187 238 289 343
#
# _framework density 18.862646999999999
#
# number of rings (size 3 to 8) (size 9 to 14) (size 15 to 20)
#    0.000    1.920    3.200    0.960    1.120    0.000 
#    2.880    0.000    3.520    0.000    0.000    0.000 
#    0.000    0.000    0.000    0.000    0.000    0.000 
#
# Total GULP energy -278605.613475 kJ/mol
# GULP energy per Si atom -5572.112269 kJ/mol
# Density = 1.881972 g / cm^3
# Si number density = 18.862647 Si / 1000 Ang^3
#
#
#
# Elastic Constant Matrix: (Units=GPa)
#
#
# Indices 1 2 3 4 5 6 
#
# 1 25.9816 11.2669 0.4408 0.0000 0.0000 10.6497
# 2 11.2669 25.9816 0.4408 0.0000 0.0000 -10.6497
# 3 0.4408 0.4408 47.4741 0.0000 0.0000 0.0000
# 4 0.0000 0.0000 0.0000 22.1160 0.0000 0.0000
# 5 0.0000 0.0000 0.0000 0.0000 22.1160 0.0000
# 6 10.6497 -10.6497 0.0000 0.0000 0.0000 22.5984
#
#
#
# Elastic Compliance Matrix: (Units=1/GPa)
#
#
# Indices 1 2 3 4 5 6 
#
# 1 0.120327 -0.093474 -0.000249 0.000000 0.000000 -0.100756
# 2 -0.093474 0.120327 -0.000249 0.000000 0.000000 0.100756
# 3 -0.000249 -0.000249 0.021069 0.000000 0.000000 0.000000
# 4 0.000000 0.000000 0.000000 0.045216 0.000000 0.000000
# 5 0.000000 0.000000 0.000000 0.000000 0.045216 0.000000
# 6 -0.100756 0.100756 0.000000 0.000000 0.000000 0.139215
#
#
# Mechanical properties :
#
#
# Convention : Reuss Voigt Hill
#
# Bulk Modulus (GPa) = 13.55443 13.74827 13.65135
# Shear Modulus (GPa) = 7.10321 19.18536 13.14428
#
# Velocity S-wave (km/s) = 1.94266 3.19267 2.64264
# Velocity P-wave (km/s) = 3.49762 4.57114 4.06993
#
# Compressibility (1/GPa) = 0.07377661
#
# Stress axis : x y z
#
# Youngs Moduli (GPa) = 8.31070 8.31070 47.46368
#
# Poissons Ratio (x) = 0.77684 0.01183
# Poissons Ratio (y) = 0.77684 0.01183
# Poissons Ratio (z) = 0.00207 0.00207
#
# Static dielectric constant tensor:
#      x y z
#    x 1.658620 0.000000 0.000000 
#    y 0.000000 1.658620 0.000000 
#    z 0.000000 0.000000 1.644570 
# 
# From -- ./inp_files/5289.got.cif
#   From: 2010.05.17/outbox.cif.g08.bks.cpg/sg88_3_cif.got.tgz:5289.got - 2010.06.03 19:11:41.
