data_PCOD9546887
_publ_section_title
;
Structure prediction by ZEFSAII (Michael W. Deem and Ramdas Pophale) SiO2 
 PCOD9546887
Probable space group: I 41/A
;
_chemical_formula_sum "Si O2"
_cell_formula_units_Z 56
_cell_length_a 30.000000
_cell_length_b 30.000000
_cell_length_c 6.000000
_cell_angle_alpha 90.000000
_cell_angle_beta 90.000000
_cell_angle_gamma 90.000000
_cell_volume 5400.000000
_symmetry_space_group_name_H-M "I 41/A"
_symmetry_group_IT_number 88
_space_group.IT_coordinate_system_code '2'
_symmetry_cell_setting 'tetragonal'
loop_
_space_group_symop_operation_xyz
x,y,z
3/4-y,1/4+x,1/4+z
-x,1/2-y,z
1/4+y,1/4-x,1/4+z
-x,-y,-z
1/4+y,3/4-x,3/4-z
x,1/2+y,-z
3/4-y,3/4+x,3/4-z
1/2+x,1/2+y,1/2+z
1/4-y,3/4+x,3/4+z
1/2-x,-y,1/2+z
3/4+y,3/4-x,3/4+z
1/2-x,1/2-y,1/2-z
3/4+y,1/4-x,1/4-z
1/2+x,y,1/2-z
1/4-y,1/4+x,1/4-z
loop_
_atom_site_type_symbol
_atom_site_label
_atom_site_fract_x
_atom_site_fract_y
_atom_site_fract_z
Si Si1 0.147425 0.393937 0.814097
Si Si2 0.605260 0.518290 0.176057
Si Si3 0.023259 0.366227 0.094171
Si Si4 0.430110 0.078294 0.028706
Si Si5 0.903138 0.188173 0.878930
Si Si6 0.023862 0.583923 0.277176
Si Si7 0.234287 0.065764 0.239090
O O1 0.196163 0.377182 0.741700
O O2 0.107846 0.398983 0.628052
O O3 0.129136 0.352517 0.962720
O O4 0.156450 0.444039 0.896614
O O5 0.560721 0.545331 0.248081
O O6 0.646182 0.508239 0.342208
O O7 0.589266 0.470115 0.090668
O O8 0.058145 0.390255 0.260269
O O9 0.984330 0.342954 0.235961
O O10 0.048714 0.335211 0.913806
O O11 0.995691 0.403059 0.960286
O O12 0.478910 0.071952 0.915046
O O13 0.877011 0.203299 0.651793
O O14 0.274363 0.041649 0.372410
#
# Coordination Sequence:
#
# PCOD9546887 Si02
#       7
#    16  16  16  16  16  16  16
#     4  11  23  44  67  95 137 180 227 281 335 408
#     4  11  24  40  68  98 132 181 225 277 339 408
#     4  11  24  43  71  98 134 175 223 275 340 404
#     4  11  23  45  66 100 139 175 223 286 339 400
#     4  10  24  41  68  99 129 176 219 275 334 402
#     4  10  24  43  68 100 137 172 222 280 339 405
#     4  12  25  42  65  99 137 185 231 286 337 402
#
# _framework density 10.370369999999999
#
# number of rings (size 3 to 8) (size 9 to 14) (size 15 to 20)
#    0.000    1.143    1.429    3.857    6.000    0.857 
#    2.571    0.000    0.000    0.000    0.000    0.000 
#    0.000    0.000    0.000    0.000    0.000    0.000 
#
# Total GULP energy -312043.308657 kJ/mol
# GULP energy per Si atom -5572.201940 kJ/mol
# Density = 1.034677 g / cm^3
# Si number density = 10.370370 Si / 1000 Ang^3
#
#
#
# Elastic Constant Matrix: (Units=GPa)
#
#
# Indices 1 2 3 4 5 6 
#
# 1 116.6865 40.3252 25.6155 0.0000 0.0000 -7.3057
# 2 40.3252 116.6865 25.6155 0.0000 0.0000 7.3057
# 3 25.6155 25.6155 23.9079 0.0000 0.0000 0.0000
# 4 0.0000 0.0000 0.0000 36.2661 0.0000 0.0000
# 5 0.0000 0.0000 0.0000 0.0000 36.2661 0.0000
# 6 -7.3057 7.3057 0.0000 0.0000 0.0000 48.1700
#
#
#
# Elastic Compliance Matrix: (Units=1/GPa)
#
#
# Indices 1 2 3 4 5 6 
#
# 1 0.011640 -0.001847 -0.010492 0.000000 0.000000 0.002046
# 2 -0.001847 0.011640 -0.010492 0.000000 0.000000 -0.002046
# 3 -0.010492 -0.010492 0.064309 0.000000 0.000000 0.000000
# 4 0.000000 0.000000 0.000000 0.027574 0.000000 0.000000
# 5 0.000000 0.000000 0.000000 0.000000 0.027574 0.000000
# 6 0.002046 -0.002046 0.000000 0.000000 0.000000 0.021380
#
#
# Mechanical properties :
#
#
# Convention : Reuss Voigt Hill
#
# Bulk Modulus (GPa) = 23.85091 48.93260 36.39176
# Shear Modulus (GPa) = 22.34597 35.18875 28.76736
#
# Velocity S-wave (km/s) = 3.28593 4.12345 3.72828
# Velocity P-wave (km/s) = 5.09126 6.80545 6.00979
#
# Compressibility (1/GPa) = 0.04192713
#
# Stress axis : x y z
#
# Youngs Moduli (GPa) = 85.91326 85.91326 15.54985
#
# Poissons Ratio (x) = 0.15872 0.16314
# Poissons Ratio (y) = 0.15872 0.16314
# Poissons Ratio (z) = 0.90137 0.90137
#
# Static dielectric constant tensor:
#      x y z
#    x 1.745310 0.000000 0.000000 
#    y 0.000000 1.745310 0.000000 
#    z 0.000000 0.000000 1.841940 
# 
# From -- ./inp_files/803.got.cif
#   From: 2010.05.17/outbox.ucp.g08.bks.cvg/sg88_1_cif.got.tgz:803.got - 2010.06.11 10:35:41.
