data_PCOD9546884
_publ_section_title
;
Structure prediction by ZEFSAII (Michael W. Deem and Ramdas Pophale) SiO2 
 PCOD9546884
Probable space group: I 41/A
;
_chemical_formula_sum "Si O2"
_cell_formula_units_Z 44
_cell_length_a 12.000000
_cell_length_b 12.000000
_cell_length_c 30.000000
_cell_angle_alpha 90.000000
_cell_angle_beta 90.000000
_cell_angle_gamma 90.000000
_cell_volume 4320.000000
_symmetry_space_group_name_H-M "I 41/A"
_symmetry_group_IT_number 88
_space_group.IT_coordinate_system_code '2'
_symmetry_cell_setting 'tetragonal'
loop_
_space_group_symop_operation_xyz
x,y,z
3/4-y,1/4+x,1/4+z
-x,1/2-y,z
1/4+y,1/4-x,1/4+z
-x,-y,-z
1/4+y,3/4-x,3/4-z
x,1/2+y,-z
3/4-y,3/4+x,3/4-z
1/2+x,1/2+y,1/2+z
1/4-y,3/4+x,3/4+z
1/2-x,-y,1/2+z
3/4+y,3/4-x,3/4+z
1/2-x,1/2-y,1/2-z
3/4+y,1/4-x,1/4-z
1/2+x,y,1/2-z
1/4-y,1/4+x,1/4-z
loop_
_atom_site_type_symbol
_atom_site_label
_atom_site_fract_x
_atom_site_fract_y
_atom_site_fract_z
Si Si1 0.285190 0.813943 0.372696
Si Si2 0.000000 0.250000 0.823660
Si Si3 0.871021 0.005561 0.060064
Si Si4 0.040101 0.485246 0.784022
Si Si5 0.676928 0.365612 0.293166
Si Si6 0.715633 0.116480 0.933789
O O1 0.390306 0.749987 0.353030
O O2 0.222085 0.722400 0.401696
O O3 0.207939 0.862170 0.333221
O O4 0.335602 0.912946 0.403898
O O5 0.997642 0.363563 0.796417
O O6 0.776871 0.100306 0.059769
O O7 0.991828 0.065164 0.063668
O O8 0.881213 0.952157 0.010304
O O9 0.080628 0.475127 0.732954
O O10 0.941640 0.572364 0.795356
O O11 0.776217 0.434214 0.316668
#
# Coordination Sequence:
#
# PCOD9546884 Si02
#       6
#    16   8  16  16  16  16
#     4  12  24  44  64 104 134 182 214 297 339 403
#     4  12  26  42  68  89 144 174 226 271 348 394
#     4  10  22  38  73  98 135 165 227 275 350 404
#     4  11  23  45  67 100 126 189 223 279 330 421
#     4  10  20  44  67 102 128 177 221 284 334 421
#     4  11  25  42  70  95 140 175 238 269 347 404
#
# _framework density 10.185185000000001
#
# number of rings (size 3 to 8) (size 9 to 14) (size 15 to 20)
#    0.000    1.091    3.636    2.727    0.000    2.545 
#    0.000    0.000    4.000    0.000    0.000    0.000 
#    0.000    0.000    0.000    0.000    0.000    0.000 
#
# Total GULP energy -245640.132748 kJ/mol
# GULP energy per Si atom -5582.730290 kJ/mol
# Density = 1.016200 g / cm^3
# Si number density = 10.185185 Si / 1000 Ang^3
#
#
#
# Elastic Constant Matrix: (Units=GPa)
#
#
# Indices 1 2 3 4 5 6 
#
# 1 53.6307 15.5480 8.9320 0.0000 0.0000 -7.2468
# 2 15.5480 53.6307 8.9320 0.0000 0.0000 7.2468
# 3 8.9320 8.9320 5.9561 0.0000 0.0000 0.0000
# 4 0.0000 0.0000 0.0000 18.2628 0.0000 0.0000
# 5 0.0000 0.0000 0.0000 0.0000 18.2628 0.0000
# 6 -7.2468 7.2468 0.0000 0.0000 0.0000 42.3668
#
#
#
# Elastic Compliance Matrix: (Units=1/GPa)
#
#
# Indices 1 2 3 4 5 6 
#
# 1 0.025839 -0.002248 -0.035378 0.000000 0.000000 0.004804
# 2 -0.002248 0.025839 -0.035378 0.000000 0.000000 -0.004804
# 3 -0.035378 -0.035378 0.274007 0.000000 0.000000 0.000000
# 4 0.000000 0.000000 0.000000 0.054756 0.000000 0.000000
# 5 0.000000 0.000000 0.000000 0.000000 0.054756 0.000000
# 6 0.004804 -0.004804 0.000000 0.000000 0.000000 0.025247
#
#
# Mechanical properties :
#
#
# Convention : Reuss Voigt Hill
#
# Bulk Modulus (GPa) = 5.56560 20.00461 12.78511
# Shear Modulus (GPa) = 7.50362 21.09884 14.30123
#
# Velocity S-wave (km/s) = 1.92135 3.22182 2.65252
# Velocity P-wave (km/s) = 2.76772 4.86640 3.95867
#
# Compressibility (1/GPa) = 0.17967507
#
# Stress axis : x y z
#
# Youngs Moduli (GPa) = 38.70110 38.70110 3.64955
#
# Poissons Ratio (x) = 0.08700 0.12912
# Poissons Ratio (y) = 0.08700 0.12912
# Poissons Ratio (z) = 1.36919 1.36919
#
# Static dielectric constant tensor:
#      x y z
#    x 1.788850 0.000000 0.000000 
#    y 0.000000 1.788850 0.000000 
#    z 0.000000 0.000000 1.748380 
# 
# From -- ./inp_files/6462.got.cif
#   From: 2010.05.17/outbox.ucp.g08.bks.cvg/sg88_4_cif.got.tgz:6462.got - 2010.06.11 10:35:41.
