data_PCOD9546354
_publ_section_title
;
Structure prediction by ZEFSAII (Michael W. Deem and Ramdas Pophale) SiO2 
 PCOD9546354
Probable space group: I 41/A
;
_chemical_formula_sum "Si O2"
_cell_formula_units_Z 80
_cell_length_a 25.960155
_cell_length_b 25.960155
_cell_length_c 5.180146
_cell_angle_alpha 90.000000
_cell_angle_beta 90.000000
_cell_angle_gamma 90.000000
_cell_volume 3491.053968
_symmetry_space_group_name_H-M "I 41/A"
_symmetry_group_IT_number 88
_space_group.IT_coordinate_system_code '2'
_symmetry_cell_setting 'tetragonal'
loop_
_space_group_symop_operation_xyz
x,y,z
3/4-y,1/4+x,1/4+z
-x,1/2-y,z
1/4+y,1/4-x,1/4+z
-x,-y,-z
1/4+y,3/4-x,3/4-z
x,1/2+y,-z
3/4-y,3/4+x,3/4-z
1/2+x,1/2+y,1/2+z
1/4-y,3/4+x,3/4+z
1/2-x,-y,1/2+z
3/4+y,3/4-x,3/4+z
1/2-x,1/2-y,1/2-z
3/4+y,1/4-x,1/4-z
1/2+x,y,1/2-z
1/4-y,1/4+x,1/4-z
loop_
_atom_site_type_symbol
_atom_site_label
_atom_site_fract_x
_atom_site_fract_y
_atom_site_fract_z
Si Si1 0.839919 0.686954 0.680204
Si Si2 0.890341 0.559036 0.221818
Si Si3 0.644971 0.682421 0.477866
Si Si4 0.998439 0.834095 0.410033
Si Si5 0.606237 0.049870 0.078925
O O1 0.883795 0.643677 0.726401
O O2 0.872061 0.731484 0.538740
O O3 0.800293 0.667239 0.458993
O O4 0.814110 0.688289 0.961323
O O5 0.925271 0.574046 0.464593
O O6 0.871457 0.502347 0.298881
O O7 0.842952 0.598914 0.191552
O O8 0.924959 0.567716 0.968548
O O9 0.608791 0.731649 0.425914
O O10 0.950309 0.795669 0.447463
#
# Coordination Sequence:
#
# PCOD9546354 Si02
#       5
#    16  16  16  16  16
#     4   9  19  35  55  80 113 146 178 227 287 328
#     4  10  20  37  57  79 110 148 185 227 279 333
#     4   9  19  35  55  80 113 146 178 227 287 328
#     4   9  18  36  61  86 110 144 191 232 268 329
#     4  10  20  37  57  79 110 148 185 227 279 333
#
# _framework density 22.915716
#
# number of rings (size 3 to 8) (size 9 to 14) (size 15 to 20)
#    0.000    2.600    0.000    1.200    0.000    1.600 
#    0.000   18.000    0.000   16.800    0.000    0.000 
#    0.000    0.000    0.000    0.000    0.000    0.000 
#
# Total GULP energy -223211.703736 kJ/mol
# GULP energy per Si atom -5580.292593 kJ/mol
# Density = 2.286356 g / cm^3
# Si number density = 22.915716 Si / 1000 Ang^3
#
#
#
# Elastic Constant Matrix: (Units=GPa)
#
#
# Indices 1 2 3 4 5 6 
#
# 1 65.9225 33.8910 35.0397 0.0000 0.0000 1.1316
# 2 33.8910 65.9225 35.0397 0.0000 0.0000 -1.1316
# 3 35.0397 35.0397 136.1239 0.0000 0.0000 0.0000
# 4 0.0000 0.0000 0.0000 23.4577 0.0000 0.0000
# 5 0.0000 0.0000 0.0000 0.0000 23.4577 0.0000
# 6 1.1316 -1.1316 0.0000 0.0000 0.0000 12.4606
#
#
#
# Elastic Compliance Matrix: (Units=1/GPa)
#
#
# Indices 1 2 3 4 5 6 
#
# 1 0.021825 -0.009596 -0.003148 0.000000 0.000000 -0.002853
# 2 -0.009596 0.021825 -0.003148 0.000000 0.000000 0.002853
# 3 -0.003148 -0.003148 0.008967 0.000000 0.000000 0.000000
# 4 0.000000 0.000000 0.000000 0.042630 0.000000 0.000000
# 5 0.000000 0.000000 0.000000 0.000000 0.042630 0.000000
# 6 -0.002853 0.002853 0.000000 0.000000 0.000000 0.080771
#
#
# Mechanical properties :
#
#
# Convention : Reuss Voigt Hill
#
# Bulk Modulus (GPa) = 48.00056 52.87889 50.43972
# Shear Modulus (GPa) = 19.42687 22.80842 21.11764
#
# Velocity S-wave (km/s) = 2.91478 3.15829 3.03897
# Velocity P-wave (km/s) = 5.68506 6.03533 5.86281
#
# Compressibility (1/GPa) = 0.02083309
#
# Stress axis : x y z
#
# Youngs Moduli (GPa) = 45.81941 45.81941 111.52236
#
# Poissons Ratio (x) = 0.43968 0.35105
# Poissons Ratio (y) = 0.43968 0.35105
# Poissons Ratio (z) = 0.14423 0.14423
#
# Static dielectric constant tensor:
#      x y z
#    x 1.899660 0.000000 0.000000 
#    y 0.000000 1.899660 0.000000 
#    z 0.000000 0.000000 1.869160 
# 
# From -- ./inp_files/695.got.cif
#   From: 2010.05.17/outbox.cif.g08.bks.cpg/sg88_1_cif.got.tgz:695.got - 2010.06.03 19:11:41.
