data_PCOD9546995
_publ_section_title
;
Structure prediction by ZEFSAII (Michael W. Deem and Ramdas Pophale) SiO2 
 PCOD9546995
Probable space group: P 4 2 2
;
_chemical_formula_sum "Si O2"
_cell_formula_units_Z 40
_cell_length_a 9.665506
_cell_length_b 9.665506
_cell_length_c 24.101723
_cell_angle_alpha 90.000000
_cell_angle_beta 90.000000
_cell_angle_gamma 90.000000
_cell_volume 2251.631316
_symmetry_space_group_name_H-M "P 4 2 2"
_symmetry_group_IT_number 89
_symmetry_cell_setting 'tetragonal'
loop_
_space_group_symop_operation_xyz
x,y,z
-y,x,z
-x,-y,z
y,-x,z
x,-y,-z
-x,y,-z
y,x,-z
-y,-x,-z
loop_
_atom_site_type_symbol
_atom_site_label
_atom_site_fract_x
_atom_site_fract_y
_atom_site_fract_z
Si Si1 0.813584 0.142471 0.349597
Si Si2 0.353241 0.145901 0.973795
Si Si3 0.668836 0.653609 0.433572
Si Si4 0.305369 0.626058 0.735980
Si Si5 0.601106 0.291642 0.133955
O O1 0.744794 0.216607 0.403055
O O2 0.718599 0.201993 0.299834
O O3 0.975297 0.187172 0.348164
O O4 0.356144 0.170360 0.907887
O O5 0.500000 0.181376 0.000000
O O6 0.249841 0.249841 0.000000
O O7 0.317459 0.000000 0.000000
O O8 0.508936 0.688854 0.418660
O O9 0.672887 0.672887 0.500000
O O10 0.315925 0.460925 0.724807
O O11 0.266770 0.629985 0.801205
O O12 0.677690 0.438327 0.123499
#
# Coordination Sequence:
#
# PCOD9546995 Si02
#       5
#     8   8   8   8   8
#     4  11  24  39  53  79 121 161 196 230 278 341
#     4  11  22  36  56  83 114 147 185 227 280 343
#     4   9  19  37  62  90 117 147 190 243 292 337
#     4   9  19  37  61  86 109 139 188 244 292 340
#     4   9  17  34  60  86 109 139 182 236 290 334
#
# _framework density 17.764897999999999
#
# number of rings (size 3 to 8) (size 9 to 14) (size 15 to 20)
#    0.000    2.200    2.000    3.000    0.000    6.000 
#    3.600    3.000    0.000    0.000    0.000    0.000 
#    0.000    0.000    0.000    0.000    0.000    0.000 
#
# Total GULP energy -222844.524869 kJ/mol
# GULP energy per Si atom -5571.113122 kJ/mol
# Density = 1.772446 g / cm^3
# Si number density = 17.764898 Si / 1000 Ang^3
#
#
#
# Elastic Constant Matrix: (Units=GPa)
#
#
# Indices 1 2 3 4 5 6 
#
# 1 1124.4399 -957.6996 51.1348 0.0000 0.0000 0.0000
# 2 -957.6996 1124.4399 51.1348 0.0000 0.0000 0.0000
# 3 51.1348 51.1348 111.7526 0.0000 0.0000 0.0000
# 4 0.0000 0.0000 0.0000 23.1383 0.0000 0.0000
# 5 0.0000 0.0000 0.0000 0.0000 23.1383 0.0000
# 6 0.0000 0.0000 0.0000 0.0000 0.0000 33.5856
#
#
#
# Elastic Compliance Matrix: (Units=1/GPa)
#
#
# Indices 1 2 3 4 5 6 
#
# 1 0.004409 0.003928 -0.003815 0.000000 0.000000 0.000000
# 2 0.003928 0.004409 -0.003815 0.000000 0.000000 0.000000
# 3 -0.003815 -0.003815 0.012439 0.000000 0.000000 0.000000
# 4 0.000000 0.000000 0.000000 0.043218 0.000000 0.000000
# 5 0.000000 0.000000 0.000000 0.000000 0.043218 0.000000
# 6 0.000000 0.000000 0.000000 0.000000 0.000000 0.029775
#
#
# Mechanical properties :
#
#
# Convention : Reuss Voigt Hill
#
# Bulk Modulus (GPa) = 72.17917 72.19693 72.18805
# Shear Modulus (GPa) = 33.44729 230.37660 131.91194
#
# Velocity S-wave (km/s) = 4.34380 11.40010 8.62644
# Velocity P-wave (km/s) = 8.11644 14.62913 11.82980
#
# Compressibility (1/GPa) = 0.01385441
#
# Stress axis : x y z
#
# Youngs Moduli (GPa) = 226.82293 226.82293 80.38923
#
# Poissons Ratio (x) = -0.89106 0.30667
# Poissons Ratio (y) = -0.89106 0.30667
# Poissons Ratio (z) = 0.86530 0.86530
#
# Static dielectric constant tensor:
#      x y z
#    x 1.579210 0.000000 0.000000 
#    y 0.000000 1.579210 0.000000 
#    z 0.000000 0.000000 1.626710 
# 
# From -- ./inp_files/2681.got.cif
#   From: 2010.05.17/outbox.cif.g08.bks.cpg/sg89_2_cif.got.tgz:2681.got - 2010.06.03 19:15:31.
