data_PCOD9546072
_publ_section_title
;
Structure prediction by ZEFSAII (Michael W. Deem and Ramdas Pophale) SiO2 
 PCOD9546072
Probable space group: I 4/M
;
_chemical_formula_sum "Si O2"
_cell_formula_units_Z 112
_cell_length_a 15.047023
_cell_length_b 15.047023
_cell_length_c 21.722759
_cell_angle_alpha 90.000000
_cell_angle_beta 90.000000
_cell_angle_gamma 90.000000
_cell_volume 4918.312886
_symmetry_space_group_name_H-M "I 4/M"
_symmetry_group_IT_number 87
_symmetry_cell_setting 'tetragonal'
loop_
_space_group_symop_operation_xyz
x,y,z
-y,x,z
-x,-y,z
y,-x,z
-x,-y,-z
y,-x,-z
x,y,-z
-y,x,-z
1/2+x,1/2+y,1/2+z
1/2-y,1/2+x,1/2+z
1/2-x,1/2-y,1/2+z
1/2+y,1/2-x,1/2+z
1/2-x,1/2-y,1/2-z
1/2+y,1/2-x,1/2-z
1/2+x,1/2+y,1/2-z
1/2-y,1/2+x,1/2-z
loop_
_atom_site_type_symbol
_atom_site_label
_atom_site_fract_x
_atom_site_fract_y
_atom_site_fract_z
Si Si1 0.175770 0.455195 0.431654
Si Si2 0.865639 0.065937 0.670215
Si Si3 0.319396 0.666262 0.427783
Si Si4 0.632945 0.433540 0.692407
Si Si5 0.903305 0.613792 0.744549
Si Si6 0.642101 0.146077 0.124801
Si Si7 0.690586 0.063398 0.614356
O O1 0.192232 0.490946 0.500000
O O2 0.261908 0.396116 0.414547
O O3 0.145993 0.540960 0.393144
O O4 0.100792 0.379267 0.433620
O O5 0.827690 0.084778 0.739444
O O6 0.793929 0.087666 0.618127
O O7 0.960344 0.113994 0.666039
O O8 0.329357 0.641130 0.500000
O O9 0.327076 0.593070 0.373456
O O10 0.217948 0.695730 0.414233
O O11 0.614651 0.537918 0.693067
O O12 0.880063 0.509192 0.743224
O O13 0.850494 0.656206 0.801420
O O14 0.892625 0.652164 0.677136
O O15 0.542823 0.180907 0.114647
#
# Coordination Sequence:
#
# PCOD9546072 Si02
#       7
#    16  16  16  16  16  16  16
#     4  11  25  43  61  88 129 169 211 262 312 371
#     4   9  20  39  63  92 129 165 202 258 321 382
#     4  11  24  39  57  86 125 165 212 264 306 360
#     4   9  18  36  61  88 123 166 205 243 299 373
#     4   9  17  34  56  88 125 154 195 251 310 367
#     4  11  22  39  63  90 122 165 205 257 313 379
#     4  11  22  37  65  91 119 164 210 257 319 380
#
# _framework density 22.772037000000001
#
# number of rings (size 3 to 8) (size 9 to 14) (size 15 to 20)
#    0.000    1.857    1.429    3.429    2.000    4.571 
#    0.000    2.143    0.000    0.000    0.000    1.000 
#    0.000    0.000    0.000    0.000    0.000    0.000 
#
# Total GULP energy -312370.628857 kJ/mol
# GULP energy per Si atom -5578.046944 kJ/mol
# Density = 2.272021 g / cm^3
# Si number density = 22.772037 Si / 1000 Ang^3
#
#
#
# Elastic Constant Matrix: (Units=GPa)
#
#
# Indices 1 2 3 4 5 6 
#
# 1 68.7605 3.9414 18.1492 0.0000 0.0000 3.7631
# 2 3.9414 68.7605 18.1492 0.0000 0.0000 -3.7631
# 3 18.1492 18.1492 70.3552 0.0000 0.0000 0.0000
# 4 0.0000 0.0000 0.0000 16.7783 0.0000 0.0000
# 5 0.0000 0.0000 0.0000 0.0000 16.7783 0.0000
# 6 3.7631 -3.7631 0.0000 0.0000 0.0000 17.1685
#
#
#
# Elastic Compliance Matrix: (Units=1/GPa)
#
#
# Indices 1 2 3 4 5 6 
#
# 1 0.015809 -0.000021 -0.004073 0.000000 0.000000 -0.003470
# 2 -0.000021 0.015809 -0.004073 0.000000 0.000000 0.003470
# 3 -0.004073 -0.004073 0.016315 0.000000 0.000000 0.000000
# 4 0.000000 0.000000 0.000000 0.059601 0.000000 0.000000
# 5 0.000000 0.000000 0.000000 0.000000 0.059601 0.000000
# 6 -0.003470 0.003470 0.000000 0.000000 0.000000 0.059767
#
#
# Mechanical properties :
#
#
# Convention : Reuss Voigt Hill
#
# Bulk Modulus (GPa) = 31.64548 32.03956 31.84252
# Shear Modulus (GPa) = 19.70292 21.32077 20.51184
#
# Velocity S-wave (km/s) = 2.94466 3.06317 3.00450
# Velocity P-wave (km/s) = 5.04858 5.15858 5.10388
#
# Compressibility (1/GPa) = 0.03160009
#
# Stress axis : x y z
#
# Youngs Moduli (GPa) = 63.25375 63.25375 61.29368
#
# Poissons Ratio (x) = 0.00133 0.24964
# Poissons Ratio (y) = 0.00133 0.24964
# Poissons Ratio (z) = 0.25762 0.25762
#
# Static dielectric constant tensor:
#      x y z
#    x 1.868160 0.000000 0.000000 
#    y 0.000000 1.868160 0.000000 
#    z 0.000000 0.000000 1.847560 
# 
# From -- ./inp_files/5917.got.cif
#   From: 2010.05.17/outbox.cif.g08.bks.cpg/sg87_3_cif.got.tgz:5917.got - 2010.06.03 19:07:00.
