data_PCOD9546143
_publ_section_title
;
Structure prediction by ZEFSAII (Michael W. Deem and Ramdas Pophale) SiO2 
 PCOD9546143
Probable space group: I 4/M
;
_chemical_formula_sum "Si O2"
_cell_formula_units_Z 48
_cell_length_a 10.256133
_cell_length_b 10.256133
_cell_length_c 18.152988
_cell_angle_alpha 90.000000
_cell_angle_beta 90.000000
_cell_angle_gamma 90.000000
_cell_volume 1909.481296
_symmetry_space_group_name_H-M "I 4/M"
_symmetry_group_IT_number 87
_symmetry_cell_setting 'tetragonal'
loop_
_space_group_symop_operation_xyz
x,y,z
-y,x,z
-x,-y,z
y,-x,z
-x,-y,-z
y,-x,-z
x,y,-z
-y,x,-z
1/2+x,1/2+y,1/2+z
1/2-y,1/2+x,1/2+z
1/2-x,1/2-y,1/2+z
1/2+y,1/2-x,1/2+z
1/2-x,1/2-y,1/2-z
1/2+y,1/2-x,1/2-z
1/2+x,1/2+y,1/2-z
1/2-y,1/2+x,1/2-z
loop_
_atom_site_type_symbol
_atom_site_label
_atom_site_fract_x
_atom_site_fract_y
_atom_site_fract_z
Si Si1 0.778587 0.684851 0.419213
Si Si2 0.709981 0.553105 0.267893
Si Si3 0.854199 0.551946 0.121405
O O1 0.762322 0.624657 0.500000
O O2 0.749258 0.587421 0.351359
O O3 0.688526 0.812442 0.413693
O O4 0.928899 0.728202 0.408184
O O5 0.590060 0.651751 0.255481
O O6 0.822104 0.571355 0.207815
O O7 0.000000 0.500000 0.107724
#
# Coordination Sequence:
#
# PCOD9546143 Si02
#       3
#    16  16  16
#     4  12  28  48  75 115 158 201 257 319 387 458
#     4  11  25  47  76 112 150 202 258 315 381 458
#     4  12  27  47  80 112 153 208 259 314 384 458
#
# _framework density 25.137716000000001
#
# number of rings (size 3 to 8) (size 9 to 14) (size 15 to 20)
#    0.000    0.333    3.333    4.000    4.667    7.333 
#    0.000    3.333    0.000    0.000    0.000    0.000 
#    0.000    0.000    0.000    0.000    0.000    0.000 
#
# Total GULP energy -134491.959446 kJ/mol
# GULP energy per Si atom -5603.831644 kJ/mol
# Density = 2.508050 g / cm^3
# Si number density = 25.137716 Si / 1000 Ang^3
#
#
#
# Elastic Constant Matrix: (Units=GPa)
#
#
# Indices 1 2 3 4 5 6 
#
# 1 85.9125 40.9799 15.5729 0.0000 0.0000 -38.6531
# 2 40.9799 85.9125 15.5729 0.0000 0.0000 38.6531
# 3 15.5729 15.5729 189.6757 0.0000 0.0000 0.0000
# 4 0.0000 0.0000 0.0000 27.2171 0.0000 0.0000
# 5 0.0000 0.0000 0.0000 0.0000 27.2171 0.0000
# 6 -38.6531 38.6531 0.0000 0.0000 0.0000 22.7181
#
#
#
# Elastic Compliance Matrix: (Units=1/GPa)
#
#
# Indices 1 2 3 4 5 6 
#
# 1 -0.001752 0.009795 -0.000660 0.000000 0.000000 -0.019647
# 2 0.009795 -0.001752 -0.000660 0.000000 0.000000 0.019647
# 3 -0.000660 -0.000660 0.005381 0.000000 0.000000 0.000000
# 4 0.000000 0.000000 0.000000 0.036742 0.000000 0.000000
# 5 0.000000 0.000000 0.000000 0.000000 0.036742 0.000000
# 6 -0.019647 0.019647 0.000000 0.000000 0.000000 -0.022839
#
#
# Mechanical properties :
#
#
# Convention : Reuss Voigt Hill
#
# Bulk Modulus (GPa) = 53.12144 56.19469 54.65807
# Shear Modulus (GPa) = 119.48738 34.72212 77.10475
#
# Velocity S-wave (km/s) = 6.90191 3.72058 5.54432
# Velocity P-wave (km/s) = 9.20289 6.39220 7.92317
#
# Compressibility (1/GPa) = 0.01882479
#
# Stress axis : x y z
#
# Youngs Moduli (GPa) = -570.62988 -570.62988 185.85332
#
# Poissons Ratio (x) = 5.58945 0.12273
# Poissons Ratio (y) = 5.58945 0.12273
# Poissons Ratio (z) = -0.37681 -0.37681
#
# Static dielectric constant tensor:
#      x y z
#    x 2.029750 0.000000 0.000000 
#    y 0.000000 2.029750 0.000000 
#    z 0.000000 0.000000 1.969390 
# 
# From -- ./inp_files/4072.got.cif
#   From: 2010.05.17/outbox.cif.g08.bks.cpg/sg87_3_cif.got.tgz:4072.got - 2010.06.03 19:07:00.
