data_PCOD9546421
_publ_section_title
;
Structure prediction by ZEFSAII (Michael W. Deem and Ramdas Pophale) SiO2 
 PCOD9546421
Probable space group: I 41/A
;
_chemical_formula_sum "Si O2"
_cell_formula_units_Z 96
_cell_length_a 14.951177
_cell_length_b 14.951177
_cell_length_c 19.653650
_cell_angle_alpha 90.000000
_cell_angle_beta 90.000000
_cell_angle_gamma 90.000000
_cell_volume 4393.331593
_symmetry_space_group_name_H-M "I 41/A"
_symmetry_group_IT_number 88
_space_group.IT_coordinate_system_code '2'
_symmetry_cell_setting 'tetragonal'
loop_
_space_group_symop_operation_xyz
x,y,z
3/4-y,1/4+x,1/4+z
-x,1/2-y,z
1/4+y,1/4-x,1/4+z
-x,-y,-z
1/4+y,3/4-x,3/4-z
x,1/2+y,-z
3/4-y,3/4+x,3/4-z
1/2+x,1/2+y,1/2+z
1/4-y,3/4+x,3/4+z
1/2-x,-y,1/2+z
3/4+y,3/4-x,3/4+z
1/2-x,1/2-y,1/2-z
3/4+y,1/4-x,1/4-z
1/2+x,y,1/2-z
1/4-y,1/4+x,1/4-z
loop_
_atom_site_type_symbol
_atom_site_label
_atom_site_fract_x
_atom_site_fract_y
_atom_site_fract_z
Si Si1 0.761672 0.620835 0.602655
Si Si2 0.487347 0.473196 0.249641
Si Si3 0.216689 0.967619 0.996422
Si Si4 0.131641 0.708530 0.396831
Si Si5 0.964258 0.153603 0.367722
Si Si6 0.419571 0.467572 0.047484
O O1 0.721628 0.713560 0.572252
O O2 0.718061 0.541329 0.556505
O O3 0.747385 0.589542 0.680236
O O4 0.868638 0.638336 0.595992
O O5 0.385612 0.439007 0.243812
O O6 0.489439 0.573445 0.216828
O O7 0.540494 0.412179 0.196609
O O8 0.323137 0.957619 0.983945
O O9 0.044368 0.647615 0.397911
O O10 0.208233 0.657940 0.356132
O O11 0.000000 0.250000 0.345792
O O12 0.042404 0.120251 0.417610
O O13 0.500000 0.500000 0.000000
#
# Coordination Sequence:
#
# PCOD9546421 Si02
#       6
#    16  16  16  16  16  16
#     4  12  24  46  73 102 143 192 235 297 366 421
#     4  11  25  45  67 101 141 180 243 291 347 430
#     4  12  25  45  72 102 142 191 237 293 363 428
#     4  10  21  35  59  96 137 174 213 270 347 420
#     4  11  24  43  68 102 138 180 231 292 349 419
#     4  11  21  35  63  96 131 173 217 279 346 415
#
# _framework density 21.851299000000001
#
# number of rings (size 3 to 8) (size 9 to 14) (size 15 to 20)
#    0.000    0.833    3.333    5.000    4.667    0.000 
#    3.000    1.667    0.000    0.000    0.000    0.000 
#    0.000    0.000    0.000    0.000    0.000    0.000 
#
# Total GULP energy -267891.992146 kJ/mol
# GULP energy per Si atom -5581.083170 kJ/mol
# Density = 2.180156 g / cm^3
# Si number density = 21.851299 Si / 1000 Ang^3
#
#
#
# Elastic Constant Matrix: (Units=GPa)
#
#
# Indices 1 2 3 4 5 6 
#
# 1 58.8032 13.9640 14.0086 0.0000 0.0000 -0.8736
# 2 13.9640 58.8032 14.0086 0.0000 0.0000 0.8736
# 3 14.0086 14.0086 64.5390 0.0000 0.0000 0.0000
# 4 0.0000 0.0000 0.0000 31.7008 0.0000 0.0000
# 5 0.0000 0.0000 0.0000 0.0000 31.7008 0.0000
# 6 -0.8736 0.8736 0.0000 0.0000 0.0000 16.8401
#
#
#
# Elastic Compliance Matrix: (Units=1/GPa)
#
#
# Indices 1 2 3 4 5 6 
#
# 1 0.018671 -0.003676 -0.003255 0.000000 0.000000 0.001159
# 2 -0.003676 0.018671 -0.003255 0.000000 0.000000 -0.001159
# 3 -0.003255 -0.003255 0.016908 0.000000 0.000000 0.000000
# 4 0.000000 0.000000 0.000000 0.031545 0.000000 0.000000
# 5 0.000000 0.000000 0.000000 0.000000 0.031545 0.000000
# 6 0.001159 -0.001159 0.000000 0.000000 0.000000 0.059502
#
#
# Mechanical properties :
#
#
# Convention : Reuss Voigt Hill
#
# Bulk Modulus (GPa) = 29.51661 29.56754 29.54208
# Shear Modulus (GPa) = 23.98003 25.39260 24.68632
#
# Velocity S-wave (km/s) = 3.31633 3.41260 3.36481
# Velocity P-wave (km/s) = 5.31049 5.39337 5.35209
#
# Compressibility (1/GPa) = 0.03387922
#
# Stress axis : x y z
#
# Youngs Moduli (GPa) = 53.55784 53.55784 59.14529
#
# Poissons Ratio (x) = 0.19686 0.19251
# Poissons Ratio (y) = 0.19686 0.19251
# Poissons Ratio (z) = 0.17433 0.17433
#
# Static dielectric constant tensor:
#      x y z
#    x 1.824120 0.000000 0.000000 
#    y 0.000000 1.824120 0.000000 
#    z 0.000000 0.000000 1.864460 
# 
# From -- ./inp_files/4702.got.cif
#   From: 2010.05.17/outbox.cif.g08.bks.cpg/sg88_3_cif.got.tgz:4702.got - 2010.06.03 19:11:41.
