data_PCOD9546214
_publ_section_title
;
Structure prediction by ZEFSAII (Michael W. Deem and Ramdas Pophale) SiO2 
 PCOD9546214
Probable space group: I 41/A
;
_chemical_formula_sum "Si O2"
_cell_formula_units_Z 108
_cell_length_a 14.915213
_cell_length_b 14.915213
_cell_length_c 20.731712
_cell_angle_alpha 90.000000
_cell_angle_beta 90.000000
_cell_angle_gamma 90.000000
_cell_volume 4612.050847
_symmetry_space_group_name_H-M "I 41/A"
_symmetry_group_IT_number 88
_space_group.IT_coordinate_system_code '2'
_symmetry_cell_setting 'tetragonal'
loop_
_space_group_symop_operation_xyz
x,y,z
3/4-y,1/4+x,1/4+z
-x,1/2-y,z
1/4+y,1/4-x,1/4+z
-x,-y,-z
1/4+y,3/4-x,3/4-z
x,1/2+y,-z
3/4-y,3/4+x,3/4-z
1/2+x,1/2+y,1/2+z
1/4-y,3/4+x,3/4+z
1/2-x,-y,1/2+z
3/4+y,3/4-x,3/4+z
1/2-x,1/2-y,1/2-z
3/4+y,1/4-x,1/4-z
1/2+x,y,1/2-z
1/4-y,1/4+x,1/4-z
loop_
_atom_site_type_symbol
_atom_site_label
_atom_site_fract_x
_atom_site_fract_y
_atom_site_fract_z
Si Si1 0.283447 0.511483 0.615959
Si Si2 0.882768 0.441895 0.772755
Si Si3 0.811710 0.315048 0.435019
Si Si4 0.184081 0.795394 0.700818
Si Si5 0.000000 0.250000 0.948032
Si Si6 0.643133 0.755390 0.336023
Si Si7 0.500000 0.250000 0.875000
Si Si8 0.389609 0.069463 0.894089
O O1 0.343490 0.517532 0.680704
O O2 0.252409 0.601589 0.579673
O O3 0.353078 0.456978 0.569874
O O4 0.191677 0.469937 0.647861
O O5 0.872933 0.342328 0.806417
O O6 0.830557 0.421869 0.708018
O O7 0.988261 0.461770 0.763635
O O8 0.816178 0.260363 0.366997
O O9 0.911191 0.350765 0.453654
O O10 0.250000 0.750000 0.750000
O O11 0.088781 0.776420 0.734008
O O12 0.913355 0.239796 0.901597
O O13 0.745613 0.783326 0.345759
O O14 0.431408 0.164061 0.879727
#
# Coordination Sequence:
#
# PCOD9546214 Si02
#       8
#    16  16  16  16   8  16   4  16
#     4  10  22  43  60  95 127 159 216 269 314 387
#     4  11  20  40  66  85 126 173 211 254 320 390
#     4   9  20  37  63  90 121 160 208 258 312 386
#     4  10  21  39  65  93 123 159 215 265 320 386
#     4  10  18  39  68  88 127 173 207 276 320 392
#     4  10  17  38  64  89 116 164 220 256 312 380
#     4  12  28  42  52 100 148 160 218 276 316 386
#     4  11  26  39  62  95 131 175 208 271 324 383
#
# _framework density 23.416914999999999
#
# number of rings (size 3 to 8) (size 9 to 14) (size 15 to 20)
#    0.000    1.778    4.444    1.333    4.148    0.000 
#    5.333    0.000    0.000    4.000    0.000    0.000 
#    0.000    0.000    0.000    0.000    0.000    0.000 
#
# Total GULP energy -300718.543001 kJ/mol
# GULP energy per Si atom -5568.861907 kJ/mol
# Density = 2.336362 g / cm^3
# Si number density = 23.416915 Si / 1000 Ang^3
#
#
#
# Elastic Constant Matrix: (Units=GPa)
#
#
# Indices 1 2 3 4 5 6 
#
# 1 142.0934 35.1409 -8.1863 0.0000 0.0000 4.3341
# 2 35.1409 142.0934 -8.1863 0.0000 0.0000 -4.3341
# 3 -8.1863 -8.1863 14.9537 0.0000 0.0000 0.0000
# 4 0.0000 0.0000 0.0000 -1.3373 0.0000 0.0000
# 5 0.0000 0.0000 0.0000 0.0000 -1.3373 0.0000
# 6 4.3341 -4.3341 0.0000 0.0000 0.0000 25.8500
#
#
#
# Elastic Compliance Matrix: (Units=1/GPa)
#
#
# Indices 1 2 3 4 5 6 
#
# 1 0.007711 -0.001768 0.003253 0.000000 0.000000 -0.001589
# 2 -0.001768 0.007711 0.003253 0.000000 0.000000 0.001589
# 3 0.003253 0.003253 0.070435 0.000000 0.000000 0.000000
# 4 0.000000 0.000000 0.000000 -0.747758 0.000000 0.000000
# 5 0.000000 0.000000 0.000000 0.000000 -0.747759 0.000000
# 6 -0.001589 0.001589 0.000000 0.000000 0.000000 0.039218
#
#
# Mechanical properties :
#
#
# Convention : Reuss Voigt Hill
#
# Bulk Modulus (GPa) = 10.48940 37.40855 23.94898
# Shear Modulus (GPa) = -3.70881 23.32656 9.80887
#
# Velocity S-wave (km/s) = -1.25986 3.15959 2.04888
# Velocity P-wave (km/s) = 1.54039 5.41483 3.98078
#
# Compressibility (1/GPa) = 0.09533435
#
# Stress axis : x y z
#
# Youngs Moduli (GPa) = 129.68881 129.68880 14.19742
#
# Poissons Ratio (x) = 0.22929 -0.04619
# Poissons Ratio (y) = 0.22929 -0.04619
# Poissons Ratio (z) = -0.42192 -0.42192
#
# Static dielectric constant tensor:
#      x y z
#    x 2.012310 0.000000 0.000000 
#    y 0.000000 2.012310 0.000000 
#    z 0.000000 0.000000 1.974790 
# 
# From -- ./inp_files/5374.got.cif
#   From: 2010.05.17/outbox.cif.g08.bks.cpg/sg88_3_cif.got.tgz:5374.got - 2010.06.03 19:11:41.
