data_PCOD9546597
_publ_section_title
;
Structure prediction by ZEFSAII (Michael W. Deem and Ramdas Pophale) SiO2 
 PCOD9546597
Probable space group: I 41/A
;
_chemical_formula_sum "Si O2"
_cell_formula_units_Z 56
_cell_length_a 13.713781
_cell_length_b 13.713781
_cell_length_c 14.216890
_cell_angle_alpha 90.000000
_cell_angle_beta 90.000000
_cell_angle_gamma 90.000000
_cell_volume 2673.739073
_symmetry_space_group_name_H-M "I 41/A"
_symmetry_group_IT_number 88
_space_group.IT_coordinate_system_code '2'
_symmetry_cell_setting 'tetragonal'
loop_
_space_group_symop_operation_xyz
x,y,z
3/4-y,1/4+x,1/4+z
-x,1/2-y,z
1/4+y,1/4-x,1/4+z
-x,-y,-z
1/4+y,3/4-x,3/4-z
x,1/2+y,-z
3/4-y,3/4+x,3/4-z
1/2+x,1/2+y,1/2+z
1/4-y,3/4+x,3/4+z
1/2-x,-y,1/2+z
3/4+y,3/4-x,3/4+z
1/2-x,1/2-y,1/2-z
3/4+y,1/4-x,1/4-z
1/2+x,y,1/2-z
1/4-y,1/4+x,1/4-z
loop_
_atom_site_type_symbol
_atom_site_label
_atom_site_fract_x
_atom_site_fract_y
_atom_site_fract_z
Si Si1 0.558751 0.568168 0.070000
Si Si2 0.820781 0.291234 0.331419
Si Si3 0.500000 0.250000 0.694139
Si Si4 0.748715 0.839128 0.468720
O O1 0.509781 0.537208 0.167748
O O2 0.675724 0.576343 0.066992
O O3 0.500000 0.500000 0.000000
O O4 0.531076 0.668250 0.018147
O O5 0.750000 0.250000 0.250000
O O6 0.907895 0.224788 0.376490
O O7 0.756811 0.322107 0.420833
O O8 0.879086 0.389457 0.303789
#
# Coordination Sequence:
#
# PCOD9546597 Si02
#       4
#    16  16   8  16
#     4  11  21  42  72  99 131 173 231 287 332 390
#     4  11  26  44  67 102 139 183 221 273 342 418
#     4  10  22  45  69 102 142 174 227 290 345 388
#     4  11  22  45  67 103 136 179 232 279 344 398
#
# _framework density 20.944451999999998
#
# number of rings (size 3 to 8) (size 9 to 14) (size 15 to 20)
#    0.000    1.143    5.714    3.429    0.000    5.714 
#    5.143    0.000    0.000    0.000    0.000    0.000 
#    0.000    0.000    0.000    0.000    0.000    0.000 
#
# Total GULP energy -155920.453813 kJ/mol
# GULP energy per Si atom -5568.587636 kJ/mol
# Density = 2.089678 g / cm^3
# Si number density = 20.944452 Si / 1000 Ang^3
#
#
#
# Elastic Constant Matrix: (Units=GPa)
#
#
# Indices 1 2 3 4 5 6 
#
# 1 66.6056 14.9896 28.6497 0.0000 0.0000 -4.3253
# 2 14.9896 66.6056 28.6497 0.0000 0.0000 4.3253
# 3 28.6497 28.6497 159.8812 0.0000 0.0000 0.0000
# 4 0.0000 0.0000 0.0000 40.2709 0.0000 0.0000
# 5 0.0000 0.0000 0.0000 0.0000 40.2709 0.0000
# 6 -4.3253 4.3253 0.0000 0.0000 0.0000 20.6135
#
#
#
# Elastic Compliance Matrix: (Units=1/GPa)
#
#
# Indices 1 2 3 4 5 6 
#
# 1 0.017050 -0.003030 -0.002512 0.000000 0.000000 0.004213
# 2 -0.003030 0.017050 -0.002512 0.000000 0.000000 -0.004213
# 3 -0.002512 -0.002512 0.007155 0.000000 0.000000 0.000000
# 4 0.000000 0.000000 0.000000 0.024832 0.000000 0.000000
# 5 0.000000 0.000000 0.000000 0.000000 0.024832 0.000000
# 6 0.004213 -0.004213 0.000000 0.000000 0.000000 0.050280
#
#
# Mechanical properties :
#
#
# Convention : Reuss Voigt Hill
#
# Bulk Modulus (GPa) = 39.76836 48.63003 44.19919
# Shear Modulus (GPa) = 30.17692 34.95130 32.56411
#
# Velocity S-wave (km/s) = 3.79992 4.08948 3.94735
# Velocity P-wave (km/s) = 6.18718 6.75037 6.47490
#
# Compressibility (1/GPa) = 0.02514562
#
# Stress axis : x y z
#
# Youngs Moduli (GPa) = 58.65142 58.65142 139.76221
#
# Poissons Ratio (x) = 0.17772 0.35112
# Poissons Ratio (y) = 0.17772 0.35112
# Poissons Ratio (z) = 0.14735 0.14735
#
# Static dielectric constant tensor:
#      x y z
#    x 1.781280 0.000000 0.000000 
#    y 0.000000 1.781280 0.000000 
#    z 0.000000 0.000000 1.700950 
# 
# From -- ./inp_files/2248.got.cif
#   From: 2010.05.17/outbox.cif.g08.bks.cpg/sg88_2_cif.got.tgz:2248.got - 2010.06.03 19:11:41.
