data_PCOD9546960
_publ_section_title
;
Structure prediction by ZEFSAII (Michael W. Deem and Ramdas Pophale) SiO2 
 PCOD9546960
Probable space group: P 4 2 2
;
_chemical_formula_sum "Si O2"
_cell_formula_units_Z 48
_cell_length_a 9.019045
_cell_length_b 9.019045
_cell_length_c 32.769581
_cell_angle_alpha 90.000000
_cell_angle_beta 90.000000
_cell_angle_gamma 90.000000
_cell_volume 2665.581687
_symmetry_space_group_name_H-M "P 4 2 2"
_symmetry_group_IT_number 89
_symmetry_cell_setting 'tetragonal'
loop_
_space_group_symop_operation_xyz
x,y,z
-y,x,z
-x,-y,z
y,-x,z
x,-y,-z
-x,y,-z
y,x,-z
-y,-x,-z
loop_
_atom_site_type_symbol
_atom_site_label
_atom_site_fract_x
_atom_site_fract_y
_atom_site_fract_z
Si Si1 0.500000 0.000000 0.568237
Si Si2 0.159497 0.807061 0.955708
Si Si3 0.249655 0.500000 0.500000
Si Si4 0.271176 0.394885 0.210748
Si Si5 0.631524 0.711137 0.880597
Si Si6 0.075459 0.239174 0.275137
Si Si7 0.244854 0.953429 0.367208
O O1 0.521103 0.140838 0.538613
O O2 0.366450 0.046567 0.597975
O O3 0.209222 0.707126 0.918290
O O4 0.981180 0.801201 0.953681
O O5 0.230394 0.769607 0.000000
O O6 0.357326 0.357326 0.500000
O O7 0.430661 0.311407 0.215390
O O8 0.223232 0.348489 0.164824
O O9 0.145090 0.350322 0.242642
O O10 0.454899 0.695688 0.883006
O O11 0.075648 0.302409 0.321248
O O12 0.908170 0.178420 0.270554
O O13 0.113249 0.834214 0.370867
#
# Coordination Sequence:
#
# PCOD9546960 Si02
#       7
#     4   8   4   8   8   8   8
#     4  11  20  34  60  82 102 146 188 214 264 325
#     4   9  19  35  52  72 100 131 164 207 258 311
#     4  10  22  38  54  80 116 144 176 226 272 314
#     4   9  19  35  52  72 101 135 171 212 257 310
#     4   9  19  35  52  72 100 132 167 209 256 307
#     4   9  19  34  51  74 104 135 168 211 260 306
#     4   9  19  35  53  77 108 137 173 221 263 307
#
# _framework density 18.007325000000002
#
# number of rings (size 3 to 8) (size 9 to 14) (size 15 to 20)
#    0.000    2.750    0.000    3.500    0.000    6.000 
#    0.000    7.500    0.000    6.000    0.000    0.000 
#    0.000    0.000    0.000    0.000    0.000    0.000 
#
# Total GULP energy -267226.331310 kJ/mol
# GULP energy per Si atom -5567.215236 kJ/mol
# Density = 1.796634 g / cm^3
# Si number density = 18.007325 Si / 1000 Ang^3
#
#
#
# Elastic Constant Matrix: (Units=GPa)
#
#
# Indices 1 2 3 4 5 6 
#
# 1 45.8295 30.0305 61.3010 0.0000 0.0000 0.0000
# 2 30.0305 45.8294 61.3008 0.0000 0.0000 0.0000
# 3 61.3010 61.3008 164.7469 0.0000 0.0000 0.0000
# 4 0.0000 0.0000 0.0000 32.8771 0.0000 0.0000
# 5 0.0000 0.0000 0.0000 0.0000 32.8770 0.0000
# 6 0.0000 0.0000 0.0000 0.0000 0.0000 20.4330
#
#
#
# Elastic Compliance Matrix: (Units=1/GPa)
#
#
# Indices 1 2 3 4 5 6 
#
# 1 0.048182 -0.015114 -0.012304 0.000000 0.000000 0.000000
# 2 -0.015114 0.048182 -0.012304 0.000000 0.000000 0.000000
# 3 -0.012304 -0.012304 0.015227 0.000000 0.000000 0.000000
# 4 0.000000 0.000000 0.000000 0.030416 0.000000 0.000000
# 5 0.000000 0.000000 0.000000 0.000000 0.030416 0.000000
# 6 0.000000 0.000000 0.000000 0.000000 0.000000 0.048940
#
#
# Mechanical properties :
#
#
# Convention : Reuss Voigt Hill
#
# Bulk Modulus (GPa) = 31.10884 62.40784 46.75834
# Shear Modulus (GPa) = 16.05023 24.15566 20.10294
#
# Velocity S-wave (km/s) = 2.98873 3.66653 3.34485
# Velocity P-wave (km/s) = 5.40585 7.25650 6.39844
#
# Compressibility (1/GPa) = 0.03214520
#
# Stress axis : x y z
#
# Youngs Moduli (GPa) = 20.75485 20.75485 65.67474
#
# Poissons Ratio (x) = 0.31368 0.80808
# Poissons Ratio (y) = 0.31368 0.80808
# Poissons Ratio (z) = 0.25537 0.25537
#
# Static dielectric constant tensor:
#      x y z
#    x 1.608060 0.000000 0.000000 
#    y 0.000000 1.608060 0.000000 
#    z 0.000000 0.000000 1.641950 
# 
# From -- ./inp_files/2995.got.cif
#   From: 2010.05.17/outbox.cif.g08.bks.cpg/sg89_2_cif.got.tgz:2995.got - 2010.06.03 19:15:31.
