data_PCOD9546984
_publ_section_title
;
Structure prediction by ZEFSAII (Michael W. Deem and Ramdas Pophale) SiO2 
 PCOD9546984
Probable space group: P 4 2 2
;
_chemical_formula_sum "Si O2"
_cell_formula_units_Z 24
_cell_length_a 13.357535
_cell_length_b 13.357535
_cell_length_c 6.069248
_cell_angle_alpha 90.000000
_cell_angle_beta 90.000000
_cell_angle_gamma 90.000000
_cell_volume 1082.897935
_symmetry_space_group_name_H-M "P 4 2 2"
_symmetry_group_IT_number 89
_symmetry_cell_setting 'tetragonal'
loop_
_space_group_symop_operation_xyz
x,y,z
-y,x,z
-x,-y,z
y,-x,z
x,-y,-z
-x,y,-z
y,x,-z
-y,-x,-z
loop_
_atom_site_type_symbol
_atom_site_label
_atom_site_fract_x
_atom_site_fract_y
_atom_site_fract_z
Si Si1 0.250853 0.607748 0.097859
Si Si2 0.826471 0.500000 0.500000
Si Si3 0.000000 0.170892 0.500000
Si Si4 0.925505 0.657362 0.178704
O O1 0.237172 0.581069 0.354651
O O2 0.228589 0.500000 0.000000
O O3 0.355352 0.644649 0.000000
O O4 0.171021 0.679035 0.974397
O O5 0.893889 0.574201 0.354982
O O6 0.023619 0.247356 0.297945
O O7 0.903514 0.096487 0.500000
O O8 0.000000 0.613856 0.000000
#
# Coordination Sequence:
#
# PCOD9546984 Si02
#       4
#     8   4   4   8
#     4  10  24  42  69 104 141 185 237 293 361 432
#     4  10  24  45  70 107 144 184 242 295 362 437
#     4  11  28  47  66  98 140 191 242 297 370 434
#     4  11  25  41  71 100 135 185 235 299 354 435
#
# _framework density 22.162754
#
# number of rings (size 3 to 8) (size 9 to 14) (size 15 to 20)
#    0.000    1.500    0.000    2.000    9.333   20.333 
#    0.000    1.667    0.000    8.000    0.000    0.000 
#    0.000    0.000    0.000    0.000    0.000    0.000 
#
# Total GULP energy -133618.008929 kJ/mol
# GULP energy per Si atom -5567.417039 kJ/mol
# Density = 2.211231 g / cm^3
# Si number density = 22.162754 Si / 1000 Ang^3
#
#
#
# Elastic Constant Matrix: (Units=GPa)
#
#
# Indices 1 2 3 4 5 6 
#
# 1 79.2595 87.9151 68.2343 0.0000 0.0000 0.0000
# 2 87.9151 79.2727 68.2369 0.0000 0.0000 0.0000
# 3 68.2343 68.2369 151.8263 0.0000 0.0000 0.0000
# 4 0.0000 0.0000 0.0000 -17.3629 0.0000 0.0000
# 5 0.0000 0.0000 0.0000 0.0000 -17.3743 0.0000
# 6 0.0000 0.0000 0.0000 0.0000 0.0000 36.9555
#
#
#
# Elastic Compliance Matrix: (Units=1/GPa)
#
#
# Indices 1 2 3 4 5 6 
#
# 1 -0.053092 0.062534 -0.004244 0.000000 0.000000 0.000000
# 2 0.062534 -0.053080 -0.004248 0.000000 0.000000 0.000000
# 3 -0.004244 -0.004248 0.010403 0.000000 0.000000 0.000000
# 4 0.000000 0.000000 0.000000 -0.057594 0.000000 0.000000
# 5 0.000000 0.000000 0.000000 0.000000 -0.057556 0.000000
# 6 0.000000 0.000000 0.000000 0.000000 0.000000 0.027060
#
#
# Mechanical properties :
#
#
# Convention : Reuss Voigt Hill
#
# Bulk Modulus (GPa) = 81.20770 84.34788 82.77779
# Shear Modulus (GPa) = -17.37082 6.17513 -5.59785
#
# Velocity S-wave (km/s) = -2.80265 1.67102 -1.59100
# Velocity P-wave (km/s) = 5.12327 6.47025 5.83575
#
# Compressibility (1/GPa) = 0.01231410
#
# Stress axis : x y z
#
# Youngs Moduli (GPa) = -18.83514 -18.83938 96.12500
#
# Poissons Ratio (x) = 1.17810 0.40799
# Poissons Ratio (y) = 1.17784 0.40832
# Poissons Ratio (z) = -0.07994 -0.08003
#
# Static dielectric constant tensor:
#      x y z
#    x 1.994370 0.000000 0.000000 
#    y 0.000000 1.994370 0.000000 
#    z 0.000000 0.000000 1.997600 
# 
# From -- ./inp_files/197.got.cif
#   From: 2010.05.17/outbox.cif.g08.bks.cpg/sg89_1_cif.got.tgz:197.got - 2010.06.03 19:15:31.
