data_PCOD9546065
_publ_section_title
;
Structure prediction by ZEFSAII (Michael W. Deem and Ramdas Pophale) SiO2 
 PCOD9546065
Probable space group: I 4/M
;
_chemical_formula_sum "Si O2"
_cell_formula_units_Z 80
_cell_length_a 13.959549
_cell_length_b 13.959549
_cell_length_c 21.899339
_cell_angle_alpha 90.000000
_cell_angle_beta 90.000000
_cell_angle_gamma 90.000000
_cell_volume 4267.502473
_symmetry_space_group_name_H-M "I 4/M"
_symmetry_group_IT_number 87
_symmetry_cell_setting 'tetragonal'
loop_
_space_group_symop_operation_xyz
x,y,z
-y,x,z
-x,-y,z
y,-x,z
-x,-y,-z
y,-x,-z
x,y,-z
-y,x,-z
1/2+x,1/2+y,1/2+z
1/2-y,1/2+x,1/2+z
1/2-x,1/2-y,1/2+z
1/2+y,1/2-x,1/2+z
1/2-x,1/2-y,1/2-z
1/2+y,1/2-x,1/2-z
1/2+x,1/2+y,1/2-z
1/2-y,1/2+x,1/2-z
loop_
_atom_site_type_symbol
_atom_site_label
_atom_site_fract_x
_atom_site_fract_y
_atom_site_fract_z
Si Si1 0.097130 0.563604 0.326809
Si Si2 0.701592 0.381593 0.122095
Si Si3 0.723782 0.921349 0.430205
Si Si4 0.602211 0.383286 0.751572
Si Si5 0.313271 0.122437 0.202494
O O1 0.091751 0.635861 0.383366
O O2 0.111256 0.627803 0.265964
O O3 0.178209 0.481943 0.328499
O O4 0.000000 0.500000 0.323582
O O5 0.719230 0.481504 0.088240
O O6 0.666885 0.297101 0.078251
O O7 0.622297 0.380362 0.176099
O O8 0.798975 0.359287 0.158833
O O9 0.691471 0.928607 0.500000
O O10 0.630195 0.490816 0.735946
O O11 0.652742 0.294716 0.719099
#
# Coordination Sequence:
#
# PCOD9546065 Si02
#       5
#    16  16  16  16  16
#     4  12  21  40  63  92 126 156 200 259 320 367
#     4  12  23  42  63  90 126 167 207 259 308 369
#     4  12  27  44  62  89 126 172 215 251 299 375
#     4  11  22  36  59  94 132 160 196 247 317 381
#     4  12  22  38  65  98 124 157 205 267 327 372
#
# _framework density 18.746327000000001
#
# number of rings (size 3 to 8) (size 9 to 14) (size 15 to 20)
#    0.000    0.200    8.000    2.400    2.800    0.800 
#    0.000    1.000    0.000    0.000    0.000    0.000 
#    0.000    1.600    0.000    0.000    0.000    0.000 
#
# Total GULP energy -223441.203623 kJ/mol
# GULP energy per Si atom -5586.030091 kJ/mol
# Density = 1.870366 g / cm^3
# Si number density = 18.746327 Si / 1000 Ang^3
#
#
#
# Elastic Constant Matrix: (Units=GPa)
#
#
# Indices 1 2 3 4 5 6 
#
# 1 74.4343 44.7382 41.3617 0.0000 0.0000 9.6048
# 2 44.7382 74.4343 41.3617 0.0000 0.0000 -9.6048
# 3 41.3617 41.3617 102.4705 0.0000 0.0000 0.0000
# 4 0.0000 0.0000 0.0000 14.1693 0.0000 0.0000
# 5 0.0000 0.0000 0.0000 0.0000 14.1693 0.0000
# 6 9.6048 -9.6048 0.0000 0.0000 0.0000 19.0834
#
#
#
# Elastic Compliance Matrix: (Units=1/GPa)
#
#
# Indices 1 2 3 4 5 6 
#
# 1 0.030794 -0.019136 -0.004705 0.000000 0.000000 -0.025130
# 2 -0.019136 0.030794 -0.004705 0.000000 0.000000 0.025130
# 3 -0.004705 -0.004705 0.013558 0.000000 0.000000 0.000000
# 4 0.000000 0.000000 0.000000 0.070575 0.000000 0.000000
# 5 0.000000 0.000000 0.000000 0.000000 0.070575 0.000000
# 6 -0.025130 0.025130 0.000000 0.000000 0.000000 0.077698
#
#
# Mechanical properties :
#
#
# Convention : Reuss Voigt Hill
#
# Bulk Modulus (GPa) = 55.39969 56.25137 55.82553
# Shear Modulus (GPa) = 14.00146 17.74290 15.87218
#
# Velocity S-wave (km/s) = 2.73590 3.07982 2.91294
# Velocity P-wave (km/s) = 6.29258 6.53596 6.41543
#
# Compressibility (1/GPa) = 0.01805064
#
# Stress axis : x y z
#
# Youngs Moduli (GPa) = 32.47391 32.47391 73.75931
#
# Poissons Ratio (x) = 0.62144 0.34707
# Poissons Ratio (y) = 0.62144 0.34707
# Poissons Ratio (z) = 0.15281 0.15281
#
# Static dielectric constant tensor:
#      x y z
#    x 1.688650 0.000000 0.000000 
#    y 0.000000 1.688650 0.000000 
#    z 0.000000 0.000000 1.616910 
# 
# From -- ./inp_files/5085.got.cif
#   From: 2010.05.17/outbox.cif.g08.bks.cpg/sg87_3_cif.got.tgz:5085.got - 2010.06.03 19:07:00.
