data_PCOD9546520
_publ_section_title
;
Structure prediction by ZEFSAII (Michael W. Deem and Ramdas Pophale) SiO2 
 PCOD9546520
Probable space group: I 41/A
;
_chemical_formula_sum "Si O2"
_cell_formula_units_Z 48
_cell_length_a 18.409952
_cell_length_b 18.409952
_cell_length_c 5.223707
_cell_angle_alpha 90.000000
_cell_angle_beta 90.000000
_cell_angle_gamma 90.000000
_cell_volume 1770.451856
_symmetry_space_group_name_H-M "I 41/A"
_symmetry_group_IT_number 88
_space_group.IT_coordinate_system_code '2'
_symmetry_cell_setting 'tetragonal'
loop_
_space_group_symop_operation_xyz
x,y,z
3/4-y,1/4+x,1/4+z
-x,1/2-y,z
1/4+y,1/4-x,1/4+z
-x,-y,-z
1/4+y,3/4-x,3/4-z
x,1/2+y,-z
3/4-y,3/4+x,3/4-z
1/2+x,1/2+y,1/2+z
1/4-y,3/4+x,3/4+z
1/2-x,-y,1/2+z
3/4+y,3/4-x,3/4+z
1/2-x,1/2-y,1/2-z
3/4+y,1/4-x,1/4-z
1/2+x,y,1/2-z
1/4-y,1/4+x,1/4-z
loop_
_atom_site_type_symbol
_atom_site_label
_atom_site_fract_x
_atom_site_fract_y
_atom_site_fract_z
Si Si1 0.294559 0.406459 0.764141
Si Si2 0.086212 0.215784 0.769693
Si Si3 0.285250 0.212685 0.495636
O O1 0.233232 0.418925 0.557996
O O2 0.359242 0.351109 0.718744
O O3 0.244628 0.369461 0.987365
O O4 0.074473 0.257379 0.493629
O O5 0.128783 0.272990 0.954129
O O6 0.250000 0.250000 0.250000
O O7 0.250000 0.250000 0.750000
#
# Coordination Sequence:
#
# PCOD9546520 Si02
#       3
#    16  16  16
#     4  11  24  44  71 115 157 214 271 335 415 504
#     4  10  21  45  82 117 160 214 274 350 419 500
#     4  10  23  47  74 108 154 204 266 332 406 492
#
# _framework density 27.111720999999999
#
# number of rings (size 3 to 8) (size 9 to 14) (size 15 to 20)
#    0.000    1.667    3.333    0.000    0.000    5.333 
#   12.000    0.000    0.000   16.000    0.000    0.000 
#    0.000    0.000    0.000    0.000    0.000    0.000 
#
# Total GULP energy -133730.804839 kJ/mol
# GULP energy per Si atom -5572.116868 kJ/mol
# Density = 2.705001 g / cm^3
# Si number density = 27.111721 Si / 1000 Ang^3
#
#
#
# Elastic Constant Matrix: (Units=GPa)
#
#
# Indices 1 2 3 4 5 6 
#
# 1 124.4025 48.3147 23.3079 0.0000 0.0000 27.3583
# 2 48.3147 124.4025 23.3079 0.0000 0.0000 -27.3583
# 3 23.3079 23.3079 135.2056 0.0000 0.0000 0.0000
# 4 0.0000 0.0000 0.0000 -2.9079 0.0000 0.0000
# 5 0.0000 0.0000 0.0000 0.0000 -2.9079 0.0000
# 6 27.3583 -27.3583 0.0000 0.0000 0.0000 53.5726
#
#
#
# Elastic Compliance Matrix: (Units=1/GPa)
#
#
# Indices 1 2 3 4 5 6 
#
# 1 0.013421 -0.007349 -0.001047 0.000000 0.000000 -0.010607
# 2 -0.007349 0.013421 -0.001047 0.000000 0.000000 0.010607
# 3 -0.001047 -0.001047 0.007757 0.000000 0.000000 0.000000
# 4 0.000000 0.000000 0.000000 -0.343885 0.000000 0.000000
# 5 0.000000 0.000000 0.000000 0.000000 -0.343885 0.000000
# 6 -0.010607 0.010607 0.000000 0.000000 0.000000 0.029500
#
#
# Mechanical properties :
#
#
# Convention : Reuss Voigt Hill
#
# Bulk Modulus (GPa) = 63.63540 63.76353 63.69946
# Shear Modulus (GPa) = -8.33963 28.82335 10.24186
#
# Velocity S-wave (km/s) = -1.75576 3.26411 1.94573
# Velocity P-wave (km/s) = 4.40593 6.14620 5.34733
#
# Compressibility (1/GPa) = 0.01571452
#
# Stress axis : x y z
#
# Youngs Moduli (GPa) = 74.50793 74.50793 128.91482
#
# Poissons Ratio (x) = 0.54756 0.13495
# Poissons Ratio (y) = 0.54756 0.13495
# Poissons Ratio (z) = 0.07800 0.07800
#
# Static dielectric constant tensor:
#      x y z
#    x 2.098630 0.000000 0.000000 
#    y 0.000000 2.098630 0.000000 
#    z 0.000000 0.000000 2.186030 
# 
# From -- ./inp_files/349.got.cif
#   From: 2010.05.17/outbox.cif.g08.bks.cpg/sg88_1_cif.got.tgz:349.got - 2010.06.03 19:11:41.
