data_PCOD9546684
_publ_section_title
;
Structure prediction by ZEFSAII (Michael W. Deem and Ramdas Pophale) SiO2 
 PCOD9546684
Probable space group: I 41/A
;
_chemical_formula_sum "Si O2"
_cell_formula_units_Z 56
_cell_length_a 10.879547
_cell_length_b 10.879547
_cell_length_c 20.001533
_cell_angle_alpha 90.000000
_cell_angle_beta 90.000000
_cell_angle_gamma 90.000000
_cell_volume 2367.472311
_symmetry_space_group_name_H-M "I 41/A"
_symmetry_group_IT_number 88
_space_group.IT_coordinate_system_code '2'
_symmetry_cell_setting 'tetragonal'
loop_
_space_group_symop_operation_xyz
x,y,z
3/4-y,1/4+x,1/4+z
-x,1/2-y,z
1/4+y,1/4-x,1/4+z
-x,-y,-z
1/4+y,3/4-x,3/4-z
x,1/2+y,-z
3/4-y,3/4+x,3/4-z
1/2+x,1/2+y,1/2+z
1/4-y,3/4+x,3/4+z
1/2-x,-y,1/2+z
3/4+y,3/4-x,3/4+z
1/2-x,1/2-y,1/2-z
3/4+y,1/4-x,1/4-z
1/2+x,y,1/2-z
1/4-y,1/4+x,1/4-z
loop_
_atom_site_type_symbol
_atom_site_label
_atom_site_fract_x
_atom_site_fract_y
_atom_site_fract_z
Si Si1 0.187196 0.424778 0.757297
Si Si2 0.117783 0.087018 0.629333
Si Si3 0.123536 0.198265 0.277179
Si Si4 0.000000 0.750000 0.164882
O O1 0.295294 0.446645 0.810286
O O2 0.245247 0.385038 0.686057
O O3 0.125610 0.554484 0.740053
O O4 0.096326 0.317646 0.784069
O O5 0.155853 0.224379 0.606954
O O6 0.250000 0.250000 0.250000
O O7 0.000000 0.250000 0.243979
O O8 0.106791 0.238511 0.355487
#
# Coordination Sequence:
#
# PCOD9546684 Si02
#       4
#    16  16  16   8
#     4  12  24  49  79 109 166 212 277 354 416 527
#     4  11  25  45  72 117 151 209 271 339 430 499
#     4  10  25  52  76 118 165 219 289 343 434 504
#     4  10  24  50  75 115 160 216 272 346 426 512
#
# _framework density 23.653918000000001
#
# number of rings (size 3 to 8) (size 9 to 14) (size 15 to 20)
#    0.857    0.286    2.857    2.571    8.000    0.000 
#    5.143    0.000    0.000    0.000    0.000    0.000 
#    0.000    0.000    0.000    0.000    0.000    0.000 
#
# Total GULP energy -156005.381097 kJ/mol
# GULP energy per Si atom -5571.620753 kJ/mol
# Density = 2.360008 g / cm^3
# Si number density = 23.653918 Si / 1000 Ang^3
#
#
#
# Elastic Constant Matrix: (Units=GPa)
#
#
# Indices 1 2 3 4 5 6 
#
# 1 122.2356 70.4492 46.6420 0.0000 0.0000 5.0377
# 2 70.4492 122.2356 46.6420 0.0000 0.0000 -5.0377
# 3 46.6420 46.6420 177.7999 0.0000 0.0000 0.0000
# 4 0.0000 0.0000 0.0000 10.8004 0.0000 0.0000
# 5 0.0000 0.0000 0.0000 0.0000 10.8004 0.0000
# 6 5.0377 -5.0377 0.0000 0.0000 0.0000 12.3082
#
#
#
# Elastic Compliance Matrix: (Units=1/GPa)
#
#
# Indices 1 2 3 4 5 6 
#
# 1 0.013463 -0.007518 -0.001559 0.000000 0.000000 -0.008587
# 2 -0.007518 0.013463 -0.001559 0.000000 0.000000 0.008587
# 3 -0.001559 -0.001559 0.006443 0.000000 0.000000 0.000000
# 4 0.000000 0.000000 0.000000 0.092589 0.000000 0.000000
# 5 0.000000 0.000000 0.000000 0.000000 0.092589 0.000000
# 6 -0.008587 0.008587 0.000000 0.000000 0.000000 0.088276
#
#
# Mechanical properties :
#
#
# Convention : Reuss Voigt Hill
#
# Bulk Modulus (GPa) = 82.68458 83.30417 82.99438
# Shear Modulus (GPa) = 15.05444 24.01766 19.53605
#
# Velocity S-wave (km/s) = 2.52552 3.18996 2.87699
# Velocity P-wave (km/s) = 6.59820 6.99015 6.79700
#
# Compressibility (1/GPa) = 0.01209415
#
# Stress axis : x y z
#
# Youngs Moduli (GPa) = 74.27879 74.27879 155.21922
#
# Poissons Ratio (x) = 0.55843 0.24206
# Poissons Ratio (y) = 0.55843 0.24206
# Poissons Ratio (z) = 0.11584 0.11584
#
# Static dielectric constant tensor:
#      x y z
#    x 2.039630 0.000000 0.000000 
#    y 0.000000 2.039630 0.000000 
#    z 0.000000 0.000000 2.022750 
# 
# From -- ./inp_files/4320.got.cif
#   From: 2010.05.17/outbox.cif.g08.bks.cpg/sg88_3_cif.got.tgz:4320.got - 2010.06.03 19:11:41.
