data_PCOD9546807
_publ_section_title
;
Structure prediction by ZEFSAII (Michael W. Deem and Ramdas Pophale) SiO2 
 PCOD9546807
Probable space group: I 41/A
;
_chemical_formula_sum "Si O2"
_cell_formula_units_Z 88
_cell_length_a 16.617471
_cell_length_b 16.617471
_cell_length_c 14.866586
_cell_angle_alpha 90.000000
_cell_angle_beta 90.000000
_cell_angle_gamma 90.000000
_cell_volume 4105.264149
_symmetry_space_group_name_H-M "I 41/A"
_symmetry_group_IT_number 88
_space_group.IT_coordinate_system_code '2'
_symmetry_cell_setting 'tetragonal'
loop_
_space_group_symop_operation_xyz
x,y,z
3/4-y,1/4+x,1/4+z
-x,1/2-y,z
1/4+y,1/4-x,1/4+z
-x,-y,-z
1/4+y,3/4-x,3/4-z
x,1/2+y,-z
3/4-y,3/4+x,3/4-z
1/2+x,1/2+y,1/2+z
1/4-y,3/4+x,3/4+z
1/2-x,-y,1/2+z
3/4+y,3/4-x,3/4+z
1/2-x,1/2-y,1/2-z
3/4+y,1/4-x,1/4-z
1/2+x,y,1/2-z
1/4-y,1/4+x,1/4-z
loop_
_atom_site_type_symbol
_atom_site_label
_atom_site_fract_x
_atom_site_fract_y
_atom_site_fract_z
Si Si1 0.392311 0.977110 0.429546
Si Si2 0.000000 0.250000 0.125000
Si Si3 0.500000 0.750000 0.125000
Si Si4 0.614438 0.492980 0.224871
Si Si5 0.376364 0.792321 0.780630
Si Si6 0.330655 0.723657 0.355995
Si Si7 0.847454 0.825165 0.324930
O O1 0.303972 0.944158 0.446324
O O2 0.398866 0.013320 0.330755
O O3 0.455042 0.902901 0.436155
O O4 0.414092 0.044020 0.502409
O O5 0.930903 0.281268 0.192084
O O6 0.463457 0.659398 0.147376
O O7 0.542361 0.449205 0.173951
O O8 0.623957 0.585466 0.197917
O O9 0.424374 0.845373 0.852770
O O10 0.247939 0.673084 0.344591
O O11 0.354400 0.767980 0.263313
#
# Coordination Sequence:
#
# PCOD9546807 Si02
#       7
#    16   4   4  16  16  16  16
#     4  11  26  44  69 102 135 180 231 284 357 408
#     4  12  24  46  72 100 140 170 236 288 340 422
#     4  12  24  46  72  96 144 186 236 284 340 426
#     4  12  24  45  67 100 142 176 229 290 342 419
#     4  11  25  45  72 101 134 184 228 287 350 418
#     4  11  25  45  69 101 139 180 235 283 346 412
#     4  11  26  43  67 105 138 188 230 287 345 411
#
# _framework density 21.435891000000002
#
# number of rings (size 3 to 8) (size 9 to 14) (size 15 to 20)
#    0.000    0.727    3.636    3.273    5.091    1.455 
#    0.000    0.000    0.000    0.000    0.000    0.000 
#    0.000    0.000    0.000    0.000    0.000    0.000 
#
# Total GULP energy -245640.106148 kJ/mol
# GULP energy per Si atom -5582.729685 kJ/mol
# Density = 2.138710 g / cm^3
# Si number density = 21.435891 Si / 1000 Ang^3
#
#
#
# Elastic Constant Matrix: (Units=GPa)
#
#
# Indices 1 2 3 4 5 6 
#
# 1 64.1884 56.1429 14.9251 0.0000 0.0000 -23.4478
# 2 56.1429 64.1884 14.9251 0.0000 0.0000 23.4478
# 3 14.9251 14.9251 65.3959 0.0000 0.0000 0.0000
# 4 0.0000 0.0000 0.0000 26.4074 0.0000 0.0000
# 5 0.0000 0.0000 0.0000 0.0000 26.4074 0.0000
# 6 -23.4478 23.4478 0.0000 0.0000 0.0000 -179.8549
#
#
#
# Elastic Compliance Matrix: (Units=1/GPa)
#
#
# Indices 1 2 3 4 5 6 
#
# 1 0.039717 -0.030908 -0.002010 0.000000 0.000000 -0.009207
# 2 -0.030908 0.039717 -0.002010 0.000000 0.000000 0.009207
# 3 -0.002010 -0.002010 0.016209 0.000000 0.000000 0.000000
# 4 0.000000 0.000000 0.000000 0.037868 0.000000 0.000000
# 5 0.000000 0.000000 0.000000 0.000000 0.037868 0.000000
# 6 -0.009207 0.009207 0.000000 0.000000 0.000000 -0.003159
#
#
# Mechanical properties :
#
#
# Convention : Reuss Voigt Hill
#
# Bulk Modulus (GPa) = 38.78146 40.63986 39.71066
# Shear Modulus (GPa) = 20.26978 -18.22271 1.02354
#
# Velocity S-wave (km/s) = 3.07840 -2.91882 0.69175
# Velocity P-wave (km/s) = 5.54675 2.76417 4.38219
#
# Compressibility (1/GPa) = 0.02578552
#
# Stress axis : x y z
#
# Youngs Moduli (GPa) = 25.17821 25.17821 61.69346
#
# Poissons Ratio (x) = 0.77820 0.12403
# Poissons Ratio (y) = 0.77820 0.12403
# Poissons Ratio (z) = 0.05062 0.05062
#
# Static dielectric constant tensor:
#      x y z
#    x 1.771730 0.000000 0.000000 
#    y 0.000000 1.771730 0.000000 
#    z 0.000000 0.000000 1.765730 
# 
# From -- ./inp_files/3248.got.cif
#   From: 2010.05.17/outbox.cif.g08.bks.cpg/sg88_2_cif.got.tgz:3248.got - 2010.06.03 19:11:41.
