data_PCOD9546640
_publ_section_title
;
Structure prediction by ZEFSAII (Michael W. Deem and Ramdas Pophale) SiO2 
 PCOD9546640
Probable space group: I 41/A
;
_chemical_formula_sum "Si O2"
_cell_formula_units_Z 116
_cell_length_a 17.548765
_cell_length_b 17.548765
_cell_length_c 16.884305
_cell_angle_alpha 90.000000
_cell_angle_beta 90.000000
_cell_angle_gamma 90.000000
_cell_volume 5199.676267
_symmetry_space_group_name_H-M "I 41/A"
_symmetry_group_IT_number 88
_space_group.IT_coordinate_system_code '2'
_symmetry_cell_setting 'tetragonal'
loop_
_space_group_symop_operation_xyz
x,y,z
3/4-y,1/4+x,1/4+z
-x,1/2-y,z
1/4+y,1/4-x,1/4+z
-x,-y,-z
1/4+y,3/4-x,3/4-z
x,1/2+y,-z
3/4-y,3/4+x,3/4-z
1/2+x,1/2+y,1/2+z
1/4-y,3/4+x,3/4+z
1/2-x,-y,1/2+z
3/4+y,3/4-x,3/4+z
1/2-x,1/2-y,1/2-z
3/4+y,1/4-x,1/4-z
1/2+x,y,1/2-z
1/4-y,1/4+x,1/4-z
loop_
_atom_site_type_symbol
_atom_site_label
_atom_site_fract_x
_atom_site_fract_y
_atom_site_fract_z
Si Si1 0.870587 0.218463 0.865356
Si Si2 0.344019 0.721863 0.549307
Si Si3 0.000000 0.750000 0.875000
Si Si4 0.440114 0.502494 0.572052
Si Si5 0.917374 0.678081 0.408484
Si Si6 0.185394 0.531436 0.765752
Si Si7 0.636633 0.494175 0.910122
Si Si8 0.475471 0.859824 0.326320
O O1 0.796132 0.187128 0.820870
O O2 0.915921 0.290744 0.833636
O O3 0.939247 0.156599 0.857698
O O4 0.845577 0.237113 0.955498
O O5 0.432814 0.714663 0.572133
O O6 0.310975 0.784203 0.609018
O O7 0.293152 0.645685 0.560714
O O8 0.500000 0.500000 0.500000
O O9 0.357672 0.519907 0.537206
O O10 0.441682 0.424098 0.618794
O O11 0.913168 0.740724 0.337861
O O12 0.879901 0.595294 0.402926
O O13 0.877901 0.722436 0.481989
O O14 0.233830 0.456548 0.783992
O O15 0.163136 0.526483 0.674520
#
# Coordination Sequence:
#
# PCOD9546640 Si02
#       8
#    16  16   4  16  16  16  16  16
#     4  10  23  44  70 104 140 189 238 303 366 455
#     4  11  23  40  68 102 141 195 243 292 360 444
#     4  12  20  36  68 100 136 192 258 280 352 452
#     4  12  26  43  68 105 152 194 242 303 368 443
#     4  11  27  50  78 106 139 192 251 318 378 456
#     4  11  25  45  65 102 144 192 231 310 364 437
#     4  11  27  45  75 100 147 189 247 298 386 434
#     4  11  25  45  75 107 145 190 252 304 383 447
#
# _framework density 22.309082
#
# number of rings (size 3 to 8) (size 9 to 14) (size 15 to 20)
#    0.000    0.966    1.379    5.793   11.586    2.759 
#    0.000    0.000    0.000    0.000    0.000    0.000 
#    0.000    0.000    0.000    0.000    0.000    0.000 
#
# Total GULP energy -323934.888369 kJ/mol
# GULP energy per Si atom -5585.084282 kJ/mol
# Density = 2.225831 g / cm^3
# Si number density = 22.309082 Si / 1000 Ang^3
#
#
#
# Elastic Constant Matrix: (Units=GPa)
#
#
# Indices 1 2 3 4 5 6 
#
# 1 60.7459 26.5266 12.8221 0.0000 0.0000 6.6502
# 2 26.5266 60.7459 12.8221 0.0000 0.0000 -6.6502
# 3 12.8221 12.8221 74.4318 0.0000 0.0000 0.0000
# 4 0.0000 0.0000 0.0000 25.6038 0.0000 0.0000
# 5 0.0000 0.0000 0.0000 0.0000 25.6038 0.0000
# 6 6.6502 -6.6502 0.0000 0.0000 0.0000 35.0445
#
#
#
# Elastic Compliance Matrix: (Units=1/GPa)
#
#
# Indices 1 2 3 4 5 6 
#
# 1 0.021810 -0.009741 -0.002079 0.000000 0.000000 -0.005987
# 2 -0.009741 0.021810 -0.002079 0.000000 0.000000 0.005987
# 3 -0.002079 -0.002079 0.014151 0.000000 0.000000 0.000000
# 4 0.000000 0.000000 0.000000 0.039057 0.000000 0.000000
# 5 0.000000 0.000000 0.000000 0.000000 0.039057 0.000000
# 6 -0.005987 0.005987 0.000000 0.000000 0.000000 0.030807
#
#
# Mechanical properties :
#
#
# Convention : Reuss Voigt Hill
#
# Bulk Modulus (GPa) = 33.36279 33.36279 33.36279
# Shear Modulus (GPa) = 24.45221 26.83395 25.64308
#
# Velocity S-wave (km/s) = 3.31428 3.47194 3.39403
# Velocity P-wave (km/s) = 5.44364 5.57313 5.50876
#
# Compressibility (1/GPa) = 0.02997351
#
# Stress axis : x y z
#
# Youngs Moduli (GPa) = 45.85093 45.85093 70.66420
#
# Poissons Ratio (x) = 0.44661 0.14692
# Poissons Ratio (y) = 0.44661 0.14692
# Poissons Ratio (z) = 0.09533 0.09533
#
# Static dielectric constant tensor:
#      x y z
#    x 1.883520 0.000000 0.000000 
#    y 0.000000 1.883520 0.000000 
#    z 0.000000 0.000000 2.004660 
# 
# From -- ./inp_files/4020.got.cif
#   From: 2010.05.17/outbox.cif.g08.bks.cpg/sg88_3_cif.got.tgz:4020.got - 2010.06.03 19:11:41.
