data_PCOD9546834
_publ_section_title
;
Structure prediction by ZEFSAII (Michael W. Deem and Ramdas Pophale) SiO2 
 PCOD9546834
Probable space group: I 41/A
;
_chemical_formula_sum "Si O2"
_cell_formula_units_Z 84
_cell_length_a 16.990986
_cell_length_b 16.990986
_cell_length_c 11.842728
_cell_angle_alpha 90.000000
_cell_angle_beta 90.000000
_cell_angle_gamma 90.000000
_cell_volume 3418.919842
_symmetry_space_group_name_H-M "I 41/A"
_symmetry_group_IT_number 88
_space_group.IT_coordinate_system_code '2'
_symmetry_cell_setting 'tetragonal'
loop_
_space_group_symop_operation_xyz
x,y,z
3/4-y,1/4+x,1/4+z
-x,1/2-y,z
1/4+y,1/4-x,1/4+z
-x,-y,-z
1/4+y,3/4-x,3/4-z
x,1/2+y,-z
3/4-y,3/4+x,3/4-z
1/2+x,1/2+y,1/2+z
1/4-y,3/4+x,3/4+z
1/2-x,-y,1/2+z
3/4+y,3/4-x,3/4+z
1/2-x,1/2-y,1/2-z
3/4+y,1/4-x,1/4-z
1/2+x,y,1/2-z
1/4-y,1/4+x,1/4-z
loop_
_atom_site_type_symbol
_atom_site_label
_atom_site_fract_x
_atom_site_fract_y
_atom_site_fract_z
Si Si1 0.208253 0.927635 0.841440
Si Si2 0.536344 0.071674 0.571952
Si Si3 0.500000 0.250000 0.375000
Si Si4 0.781103 0.632323 0.199890
Si Si5 0.373661 0.433476 0.790876
Si Si6 0.923276 0.361460 0.268172
O O1 0.180701 0.869542 0.740697
O O2 0.183690 0.008563 0.782262
O O3 0.295765 0.936899 0.898884
O O4 0.155186 0.891884 0.941523
O O5 0.553392 0.069083 0.705360
O O6 0.472547 0.139790 0.557217
O O7 0.500000 0.000000 0.500000
O O8 0.417310 0.245834 0.442175
O O9 0.687259 0.637791 0.186857
O O10 0.794383 0.644297 0.332111
O O11 0.831136 0.690813 0.121223
#
# Coordination Sequence:
#
# PCOD9546834 Si02
#       6
#    16  16   4  16  16  16
#     4  12  20  38  71 108 139 186 238 311 370 441
#     4  12  23  39  67 102 145 187 245 300 371 444
#     4  12  28  48  72  94 136 212 272 308 370 464
#     4  12  22  38  67 112 149 182 238 313 385 439
#     4  12  22  37  66 112 149 183 234 309 382 448
#     4  12  25  43  70 100 140 193 253 310 371 447
#
# _framework density 24.569164000000001
#
# number of rings (size 3 to 8) (size 9 to 14) (size 15 to 20)
#    0.000    0.000   11.429    0.000    0.000    0.000 
#    0.000    1.905    0.000    4.571    0.000    0.000 
#    0.000    0.000    0.000    0.000    0.000    0.000 
#
# Total GULP energy -234055.456951 kJ/mol
# GULP energy per Si atom -5572.748975 kJ/mol
# Density = 2.451324 g / cm^3
# Si number density = 24.569164 Si / 1000 Ang^3
#
#
#
# Elastic Constant Matrix: (Units=GPa)
#
#
# Indices 1 2 3 4 5 6 
#
# 1 38.0167 15.0351 24.6277 0.0000 0.0000 2.4004
# 2 15.0351 38.0167 24.6277 0.0000 0.0000 -2.4004
# 3 24.6277 24.6277 198.2640 0.0000 0.0000 0.0000
# 4 0.0000 0.0000 0.0000 35.7267 0.0000 0.0000
# 5 0.0000 0.0000 0.0000 0.0000 35.7267 0.0000
# 6 2.4004 -2.4004 0.0000 0.0000 0.0000 15.6354
#
#
#
# Elastic Compliance Matrix: (Units=1/GPa)
#
#
# Indices 1 2 3 4 5 6 
#
# 1 0.033131 -0.011824 -0.002647 0.000000 0.000000 -0.006902
# 2 -0.011824 0.033131 -0.002647 0.000000 0.000000 0.006902
# 3 -0.002647 -0.002647 0.005701 0.000000 0.000000 0.000000
# 4 0.000000 0.000000 0.000000 0.027990 0.000000 0.000000
# 5 0.000000 0.000000 0.000000 0.000000 0.027990 0.000000
# 6 -0.006902 0.006902 0.000000 0.000000 0.000000 0.066076
#
#
# Mechanical properties :
#
#
# Convention : Reuss Voigt Hill
#
# Bulk Modulus (GPa) = 26.50538 44.76428 35.63483
# Shear Modulus (GPa) = 20.76147 31.41821 26.08984
#
# Velocity S-wave (km/s) = 2.91008 3.57986 3.26221
# Velocity P-wave (km/s) = 4.70137 5.94529 5.35954
#
# Compressibility (1/GPa) = 0.03772819
#
# Stress axis : x y z
#
# Youngs Moduli (GPa) = 30.18337 30.18337 175.39864
#
# Poissons Ratio (x) = 0.35689 0.46422
# Poissons Ratio (y) = 0.35689 0.46422
# Poissons Ratio (z) = 0.07989 0.07989
#
# Static dielectric constant tensor:
#      x y z
#    x 1.417760 0.000000 0.000000 
#    y 0.000000 1.417760 0.000000 
#    z 0.000000 0.000000 2.182130 
# 
# From -- ./inp_files/2561.got.cif
#   From: 2010.05.17/outbox.cif.g08.bks.cpg/sg88_2_cif.got.tgz:2561.got - 2010.06.03 19:11:41.
