data_PCOD9546042
_publ_section_title
;
Structure prediction by ZEFSAII (Michael W. Deem and Ramdas Pophale) SiO2 
 PCOD9546042
Probable space group: I 4/M
;
_chemical_formula_sum "Si O2"
_cell_formula_units_Z 80
_cell_length_a 11.640924
_cell_length_b 11.640924
_cell_length_c 28.911219
_cell_angle_alpha 90.000000
_cell_angle_beta 90.000000
_cell_angle_gamma 90.000000
_cell_volume 3917.791424
_symmetry_space_group_name_H-M "I 4/M"
_symmetry_group_IT_number 87
_symmetry_cell_setting 'tetragonal'
loop_
_space_group_symop_operation_xyz
x,y,z
-y,x,z
-x,-y,z
y,-x,z
-x,-y,-z
y,-x,-z
x,y,-z
-y,x,-z
1/2+x,1/2+y,1/2+z
1/2-y,1/2+x,1/2+z
1/2-x,1/2-y,1/2+z
1/2+y,1/2-x,1/2+z
1/2-x,1/2-y,1/2-z
1/2+y,1/2-x,1/2-z
1/2+x,1/2+y,1/2-z
1/2-y,1/2+x,1/2-z
loop_
_atom_site_type_symbol
_atom_site_label
_atom_site_fract_x
_atom_site_fract_y
_atom_site_fract_z
Si Si1 0.138340 0.511492 0.949980
Si Si2 0.412035 0.672159 0.179936
Si Si3 0.080417 0.822985 0.786828
Si Si4 0.837788 0.696358 0.896463
Si Si5 0.393505 0.803960 0.622895
O O1 0.186372 0.385046 0.939992
O O2 0.160352 0.588262 0.904476
O O3 0.000000 0.500000 0.952246
O O4 0.177096 0.556922 0.000000
O O5 0.351782 0.547944 0.173438
O O6 0.399600 0.708820 0.233523
O O7 0.357674 0.763478 0.145326
O O8 0.117671 0.724291 0.822590
O O9 0.944871 0.853568 0.794268
O O10 0.801680 0.827914 0.901028
O O11 0.971776 0.689553 0.885887
#
# Coordination Sequence:
#
# PCOD9546042 Si02
#       5
#    16  16  16  16  16
#     4   9  21  41  60  81 115 155 195 244 305 367
#     4   9  19  37  60  84 119 168 212 250 299 358
#     4   9  17  34  58  85 120 161 200 245 303 362
#     4  11  22  37  58  88 122 157 206 251 307 372
#     4  11  21  36  62  87 117 157 199 252 314 368
#
# _framework density 20.419667
#
# number of rings (size 3 to 8) (size 9 to 14) (size 15 to 20)
#    0.000    2.200    2.000    2.400    0.000    2.000 
#    3.600    0.000    0.000    0.000    0.000   11.200 
#    0.000    0.000    0.000    0.000    0.000    0.000 
#
# Total GULP energy -222932.270384 kJ/mol
# GULP energy per Si atom -5573.306760 kJ/mol
# Density = 2.037319 g / cm^3
# Si number density = 20.419667 Si / 1000 Ang^3
#
#
#
# Elastic Constant Matrix: (Units=GPa)
#
#
# Indices 1 2 3 4 5 6 
#
# 1 85.5541 10.8663 47.4627 0.0000 0.0000 15.7533
# 2 10.8663 85.5541 47.4627 0.0000 0.0000 -15.7533
# 3 47.4627 47.4627 121.1405 0.0000 0.0000 0.0000
# 4 0.0000 0.0000 0.0000 15.5190 0.0000 0.0000
# 5 0.0000 0.0000 0.0000 0.0000 15.5190 0.0000
# 6 15.7533 -15.7533 0.0000 0.0000 0.0000 29.3081
#
#
#
# Elastic Compliance Matrix: (Units=1/GPa)
#
#
# Indices 1 2 3 4 5 6 
#
# 1 0.017099 -0.000216 -0.006615 0.000000 0.000000 -0.009307
# 2 -0.000216 0.017099 -0.006615 0.000000 0.000000 0.009307
# 3 -0.006615 -0.006615 0.013438 0.000000 0.000000 0.000000
# 4 0.000000 0.000000 0.000000 0.064437 0.000000 0.000000
# 5 0.000000 0.000000 0.000000 0.000000 0.064437 0.000000
# 6 -0.009307 0.009307 0.000000 0.000000 0.000000 0.044125
#
#
# Mechanical properties :
#
#
# Convention : Reuss Voigt Hill
#
# Bulk Modulus (GPa) = 48.20268 55.98135 52.09201
# Shear Modulus (GPa) = 19.65068 24.49966 22.07517
#
# Velocity S-wave (km/s) = 3.10553 3.46758 3.29154
# Velocity P-wave (km/s) = 6.04287 6.59599 6.32548
#
# Compressibility (1/GPa) = 0.02074574
#
# Stress axis : x y z
#
# Youngs Moduli (GPa) = 58.48139 58.48139 74.41355
#
# Poissons Ratio (x) = 0.01262 0.49225
# Poissons Ratio (y) = 0.01262 0.49225
# Poissons Ratio (z) = 0.38686 0.38686
#
# Static dielectric constant tensor:
#      x y z
#    x 1.756080 0.000000 0.000000 
#    y 0.000000 1.756080 0.000000 
#    z 0.000000 0.000000 1.734650 
# 
# From -- ./inp_files/6480.got.cif
#   From: 2010.05.17/outbox.cif.g08.bks.cpg/sg87_4_cif.got.tgz:6480.got - 2010.06.03 19:07:00.
