data_PCOD9546461
_publ_section_title
;
Structure prediction by ZEFSAII (Michael W. Deem and Ramdas Pophale) SiO2 
 PCOD9546461
Probable space group: I 41/A
;
_chemical_formula_sum "Si O2"
_cell_formula_units_Z 36
_cell_length_a 15.196174
_cell_length_b 15.196174
_cell_length_c 5.192194
_cell_angle_alpha 90.000000
_cell_angle_beta 90.000000
_cell_angle_gamma 90.000000
_cell_volume 1199.000672
_symmetry_space_group_name_H-M "I 41/A"
_symmetry_group_IT_number 88
_space_group.IT_coordinate_system_code '2'
_symmetry_cell_setting 'tetragonal'
loop_
_space_group_symop_operation_xyz
x,y,z
3/4-y,1/4+x,1/4+z
-x,1/2-y,z
1/4+y,1/4-x,1/4+z
-x,-y,-z
1/4+y,3/4-x,3/4-z
x,1/2+y,-z
3/4-y,3/4+x,3/4-z
1/2+x,1/2+y,1/2+z
1/4-y,3/4+x,3/4+z
1/2-x,-y,1/2+z
3/4+y,3/4-x,3/4+z
1/2-x,1/2-y,1/2-z
3/4+y,1/4-x,1/4-z
1/2+x,y,1/2-z
1/4-y,1/4+x,1/4-z
loop_
_atom_site_type_symbol
_atom_site_label
_atom_site_fract_x
_atom_site_fract_y
_atom_site_fract_z
Si Si1 0.500000 0.750000 0.125000
Si Si2 0.079822 0.972098 0.308906
Si Si3 0.914303 0.887289 0.084542
O O1 0.571490 0.714178 0.328171
O O2 0.151945 0.911257 0.448653
O O3 0.017377 0.916584 0.110739
O O4 0.000000 0.000000 0.500000
O O5 0.115497 0.057239 0.159658
#
# Coordination Sequence:
#
# PCOD9546461 Si02
#       3
#     4  16  16
#     4   8  16  36  62  96 152 202 252 310 394 444
#     4  10  21  38  66  98 150 190 250 303 383 457
#     4   9  20  37  60 102 146 195 243 312 374 468
#
# _framework density 30.025005
#
# number of rings (size 3 to 8) (size 9 to 14) (size 15 to 20)
#    0.000    2.667    0.000    0.000    0.000   14.222 
#    0.000    2.222    9.778    0.000    0.000    0.000 
#    0.000    6.222    0.000    0.444    0.000    0.444 
#
# Total GULP energy -100227.617708 kJ/mol
# GULP energy per Si atom -5568.200984 kJ/mol
# Density = 2.995667 g / cm^3
# Si number density = 30.025005 Si / 1000 Ang^3
#
#
#
# Elastic Constant Matrix: (Units=GPa)
#
#
# Indices 1 2 3 4 5 6 
#
# 1 155.2141 51.6835 74.2965 0.0000 0.0000 5.7867
# 2 51.6835 155.2141 74.2965 0.0000 0.0000 -5.7867
# 3 74.2965 74.2965 201.1208 0.0000 0.0000 0.0000
# 4 0.0000 0.0000 0.0000 69.4314 0.0000 0.0000
# 5 0.0000 0.0000 0.0000 0.0000 69.4314 0.0000
# 6 5.7867 -5.7867 0.0000 0.0000 0.0000 22.8758
#
#
#
# Elastic Compliance Matrix: (Units=1/GPa)
#
#
# Indices 1 2 3 4 5 6 
#
# 1 0.008259 -0.001681 -0.002430 0.000000 0.000000 -0.002514
# 2 -0.001681 0.008259 -0.002430 0.000000 0.000000 0.002514
# 3 -0.002430 -0.002430 0.006768 0.000000 0.000000 0.000000
# 4 0.000000 0.000000 0.000000 0.014403 0.000000 0.000000
# 5 0.000000 0.000000 0.000000 0.000000 0.014403 0.000000
# 6 -0.002514 0.002514 0.000000 0.000000 0.000000 0.044986
#
#
# Mechanical properties :
#
#
# Convention : Reuss Voigt Hill
#
# Bulk Modulus (GPa) = 98.00016 101.34464 99.67240
# Shear Modulus (GPa) = 44.02878 53.09920 48.56399
#
# Velocity S-wave (km/s) = 3.83352 4.20992 4.02612
# Velocity P-wave (km/s) = 7.23221 7.58010 7.40820
#
# Compressibility (1/GPa) = 0.01020407
#
# Stress axis : x y z
#
# Youngs Moduli (GPa) = 121.07433 121.07433 147.76136
#
# Poissons Ratio (x) = 0.20349 0.35910
# Poissons Ratio (y) = 0.20349 0.35910
# Poissons Ratio (z) = 0.29424 0.29424
#
# Static dielectric constant tensor:
#      x y z
#    x 2.516460 0.000000 0.000000 
#    y 0.000000 2.516460 0.000000 
#    z 0.000000 0.000000 2.858030 
# 
# From -- ./inp_files/234.got.cif
#   From: 2010.05.17/outbox.cif.g08.bks.cpg/sg88_1_cif.got.tgz:234.got - 2010.06.03 19:11:41.
