data_PCOD9546225
_publ_section_title
;
Structure prediction by ZEFSAII (Michael W. Deem and Ramdas Pophale) SiO2 
 PCOD9546225
Probable space group: I 41/A
;
_chemical_formula_sum "Si O2"
_cell_formula_units_Z 96
_cell_length_a 13.512280
_cell_length_b 13.512280
_cell_length_c 26.694036
_cell_angle_alpha 90.000000
_cell_angle_beta 90.000000
_cell_angle_gamma 90.000000
_cell_volume 4873.842761
_symmetry_space_group_name_H-M "I 41/A"
_symmetry_group_IT_number 88
_space_group.IT_coordinate_system_code '2'
_symmetry_cell_setting 'tetragonal'
loop_
_space_group_symop_operation_xyz
x,y,z
3/4-y,1/4+x,1/4+z
-x,1/2-y,z
1/4+y,1/4-x,1/4+z
-x,-y,-z
1/4+y,3/4-x,3/4-z
x,1/2+y,-z
3/4-y,3/4+x,3/4-z
1/2+x,1/2+y,1/2+z
1/4-y,3/4+x,3/4+z
1/2-x,-y,1/2+z
3/4+y,3/4-x,3/4+z
1/2-x,1/2-y,1/2-z
3/4+y,1/4-x,1/4-z
1/2+x,y,1/2-z
1/4-y,1/4+x,1/4-z
loop_
_atom_site_type_symbol
_atom_site_label
_atom_site_fract_x
_atom_site_fract_y
_atom_site_fract_z
Si Si1 0.302373 0.589575 0.816470
Si Si2 0.659506 0.198276 0.188145
Si Si3 0.035638 0.455226 0.234601
Si Si4 0.500000 0.750000 0.353672
Si Si5 0.167258 0.614971 0.178965
Si Si6 0.500000 0.250000 0.477288
Si Si7 0.743106 0.570769 0.015547
O O1 0.270238 0.705424 0.814462
O O2 0.400753 0.579395 0.782566
O O3 0.332228 0.561586 0.872169
O O4 0.225461 0.520266 0.788310
O O5 0.588887 0.211597 0.139781
O O6 0.589295 0.216740 0.236107
O O7 0.701917 0.089059 0.198190
O O8 0.937109 0.505708 0.256023
O O9 0.097020 0.533354 0.203825
O O10 0.022017 0.354809 0.201990
O O11 0.403484 0.788747 0.323958
O O12 0.268222 0.602757 0.210731
#
# Coordination Sequence:
#
# PCOD9546225 Si02
#       7
#    16  16  16   8  16   8  16
#     4   9  18  31  49  76 103 135 176 208 255 322
#     4   8  14  28  50  68  94 135 169 204 252 312
#     4   9  18  33  51  74 106 138 170 209 256 317
#     4   9  18  34  52  71 100 144 190 213 248 317
#     4  10  20  33  52  74 101 138 178 217 254 307
#     4   7  12  26  46  66  92 130 160 191 248 300
#     4  10  18  30  50  77 105 131 168 223 266 298
#
# _framework density 19.696984
#
# number of rings (size 3 to 8) (size 9 to 14) (size 15 to 20)
#    0.000    3.000    0.000    3.500    0.000    4.000 
#    0.000    0.833    0.000    4.000    0.000    0.000 
#    0.000    0.000    0.000    0.000    0.000    0.000 
#
# Total GULP energy -267205.031646 kJ/mol
# GULP energy per Si atom -5566.771493 kJ/mol
# Density = 1.965215 g / cm^3
# Si number density = 19.696984 Si / 1000 Ang^3
#
#
#
# Elastic Constant Matrix: (Units=GPa)
#
#
# Indices 1 2 3 4 5 6 
#
# 1 57.6765 21.5309 19.3013 0.0000 0.0000 1.8627
# 2 21.5309 57.6765 19.3013 0.0000 0.0000 -1.8627
# 3 19.3013 19.3013 49.5481 0.0000 0.0000 0.0000
# 4 0.0000 0.0000 0.0000 2.4346 0.0000 0.0000
# 5 0.0000 0.0000 0.0000 0.0000 2.4346 0.0000
# 6 1.8627 -1.8627 0.0000 0.0000 0.0000 27.9737
#
#
#
# Elastic Compliance Matrix: (Units=1/GPa)
#
#
# Indices 1 2 3 4 5 6 
#
# 1 0.021720 -0.006137 -0.006071 0.000000 0.000000 -0.001855
# 2 -0.006137 0.021720 -0.006071 0.000000 0.000000 0.001855
# 3 -0.006071 -0.006071 0.024912 0.000000 0.000000 0.000000
# 4 0.000000 0.000000 0.000000 0.410737 0.000000 0.000000
# 5 0.000000 0.000000 0.000000 0.000000 0.410737 0.000000
# 6 -0.001855 0.001855 0.000000 0.000000 0.000000 0.035995
#
#
# Mechanical properties :
#
#
# Convention : Reuss Voigt Hill
#
# Bulk Modulus (GPa) = 31.44952 31.68536 31.56744
# Shear Modulus (GPa) = 5.13887 13.55311 9.34599
#
# Velocity S-wave (km/s) = 1.61698 2.62597 2.18064
# Velocity P-wave (km/s) = 4.41447 5.03147 4.73303
#
# Compressibility (1/GPa) = 0.03179698
#
# Stress axis : x y z
#
# Youngs Moduli (GPa) = 46.03980 46.03980 40.14143
#
# Poissons Ratio (x) = 0.28253 0.24368
# Poissons Ratio (y) = 0.28253 0.24368
# Poissons Ratio (z) = 0.27949 0.27949
#
# Static dielectric constant tensor:
#      x y z
#    x 1.770980 0.000000 0.000000 
#    y 0.000000 1.770980 0.000000 
#    z 0.000000 0.000000 1.704730 
# 
# From -- ./inp_files/5824.got.cif
#   From: 2010.05.17/outbox.cif.g08.bks.cpg/sg88_3_cif.got.tgz:5824.got - 2010.06.03 19:11:41.
