data_PCOD9546096
_publ_section_title
;
Structure prediction by ZEFSAII (Michael W. Deem and Ramdas Pophale) SiO2 
 PCOD9546096
Probable space group: I 4/M
;
_chemical_formula_sum "Si O2"
_cell_formula_units_Z 76
_cell_length_a 11.869571
_cell_length_b 11.869571
_cell_length_c 34.151415
_cell_angle_alpha 90.000000
_cell_angle_beta 90.000000
_cell_angle_gamma 90.000000
_cell_volume 4811.480697
_symmetry_space_group_name_H-M "I 4/M"
_symmetry_group_IT_number 87
_symmetry_cell_setting 'tetragonal'
loop_
_space_group_symop_operation_xyz
x,y,z
-y,x,z
-x,-y,z
y,-x,z
-x,-y,-z
y,-x,-z
x,y,-z
-y,x,-z
1/2+x,1/2+y,1/2+z
1/2-y,1/2+x,1/2+z
1/2-x,1/2-y,1/2+z
1/2+y,1/2-x,1/2+z
1/2-x,1/2-y,1/2-z
1/2+y,1/2-x,1/2-z
1/2+x,1/2+y,1/2-z
1/2-y,1/2+x,1/2-z
loop_
_atom_site_type_symbol
_atom_site_label
_atom_site_fract_x
_atom_site_fract_y
_atom_site_fract_z
Si Si1 0.500000 0.000000 0.750000
Si Si2 0.092950 0.167656 0.913987
Si Si3 0.427599 0.783296 0.288018
Si Si4 0.407669 0.333251 0.500000
Si Si5 0.730744 0.162836 0.833533
Si Si6 0.434086 0.675140 0.797429
O O1 0.573770 0.085783 0.724405
O O2 0.136022 0.242876 0.878451
O O3 0.957977 0.146814 0.910818
O O4 0.119608 0.216014 0.957342
O O5 0.327966 0.742643 0.315778
O O6 0.546375 0.763705 0.309380
O O7 0.419649 0.714023 0.247601
O O8 0.541970 0.353887 0.500000
O O9 0.614254 0.225877 0.824490
O O10 0.360157 0.562748 0.803824
#
# Coordination Sequence:
#
# PCOD9546096 Si02
#       6
#     4  16  16   8  16  16
#     4  12  24  36  48  68  96 134 172 224 248 280
#     4   9  16  28  46  73 105 132 160 195 242 305
#     4  12  22  34  50  68  99 130 172 210 252 287
#     4   7  12  24  44  68 100 135 156 184 240 304
#     4  12  22  32  50  76  97 132 169 208 245 295
#     4  11  23  38  50  64  95 138 177 208 243 288
#
# _framework density 15.795553999999999
#
# number of rings (size 3 to 8) (size 9 to 14) (size 15 to 20)
#    0.000    1.368    6.316    3.158    0.000    0.421 
#    0.000    0.000    0.000    0.000    0.000    1.474 
#    0.000    8.421    0.000    0.000    0.000    0.000 
#
# Total GULP energy -212010.033055 kJ/mol
# GULP energy per Si atom -5579.211396 kJ/mol
# Density = 1.575960 g / cm^3
# Si number density = 15.795554 Si / 1000 Ang^3
#
#
#
# Elastic Constant Matrix: (Units=GPa)
#
#
# Indices 1 2 3 4 5 6 
#
# 1 58.6802 21.8349 33.4744 0.0000 0.0000 -6.2461
# 2 21.8349 58.6802 33.4744 0.0000 0.0000 6.2461
# 3 33.4744 33.4744 147.6980 0.0000 0.0000 0.0000
# 4 0.0000 0.0000 0.0000 16.8656 0.0000 0.0000
# 5 0.0000 0.0000 0.0000 0.0000 16.8656 0.0000
# 6 -6.2461 6.2461 0.0000 0.0000 0.0000 27.2369
#
#
#
# Elastic Compliance Matrix: (Units=1/GPa)
#
#
# Indices 1 2 3 4 5 6 
#
# 1 0.022366 -0.007062 -0.003469 0.000000 0.000000 0.006749
# 2 -0.007062 0.022366 -0.003469 0.000000 0.000000 -0.006749
# 3 -0.003469 -0.003469 0.008343 0.000000 0.000000 0.000000
# 4 0.000000 0.000000 0.000000 0.059292 0.000000 0.000000
# 5 0.000000 0.000000 0.000000 0.000000 0.059292 0.000000
# 6 0.006749 -0.006749 0.000000 0.000000 0.000000 0.039810
#
#
# Mechanical properties :
#
#
# Convention : Reuss Voigt Hill
#
# Bulk Modulus (GPa) = 39.87734 49.18067 44.52900
# Shear Modulus (GPa) = 20.17528 23.94527 22.06027
#
# Velocity S-wave (km/s) = 3.57778 3.89774 3.74118
# Velocity P-wave (km/s) = 6.50907 7.17356 6.84938
#
# Compressibility (1/GPa) = 0.02507690
#
# Stress axis : x y z
#
# Youngs Moduli (GPa) = 44.70999 44.70999 119.86388
#
# Poissons Ratio (x) = 0.31575 0.41575
# Poissons Ratio (y) = 0.31575 0.41575
# Poissons Ratio (z) = 0.15508 0.15508
#
# Static dielectric constant tensor:
#      x y z
#    x 1.541460 0.000000 0.000000 
#    y 0.000000 1.541460 0.000000 
#    z 0.000000 0.000000 1.527450 
# 
# From -- ./inp_files/6505.got.cif
#   From: 2010.05.17/outbox.cif.g08.bks.cpg/sg87_4_cif.got.tgz:6505.got - 2010.06.03 19:07:00.
