data_PCOD9546928
_publ_section_title
;
Structure prediction by ZEFSAII (Michael W. Deem and Ramdas Pophale) SiO2 
 PCOD9546928
Probable space group: P 4 2 2
;
_chemical_formula_sum "Si O2"
_cell_formula_units_Z 40
_cell_length_a 15.501293
_cell_length_b 15.501293
_cell_length_c 7.099962
_cell_angle_alpha 90.000000
_cell_angle_beta 90.000000
_cell_angle_gamma 90.000000
_cell_volume 1706.050470
_symmetry_space_group_name_H-M "P 4 2 2"
_symmetry_group_IT_number 89
_symmetry_cell_setting 'tetragonal'
loop_
_space_group_symop_operation_xyz
x,y,z
-y,x,z
-x,-y,z
y,-x,z
x,-y,-z
-x,y,-z
y,x,-z
-y,-x,-z
loop_
_atom_site_type_symbol
_atom_site_label
_atom_site_fract_x
_atom_site_fract_y
_atom_site_fract_z
Si Si1 0.947663 0.577162 0.197542
Si Si2 0.825392 0.810789 0.729795
Si Si3 0.509431 0.759293 0.728210
Si Si4 0.233640 0.987353 0.289814
Si Si5 0.683138 0.674425 0.727890
O O1 0.850052 0.543310 0.190142
O O2 0.000000 0.500000 0.293202
O O3 0.953269 0.668462 0.299307
O O4 0.000000 0.590107 0.000000
O O5 0.816394 0.816394 0.500000
O O6 0.916077 0.768926 0.787589
O O7 0.745608 0.751801 0.790335
O O8 0.818661 0.908956 0.799719
O O9 0.500000 0.770295 0.500000
O O10 0.583965 0.690900 0.778578
O O11 0.415586 0.725771 0.787421
O O12 0.198404 0.000000 0.500000
O O13 0.679660 0.679660 0.500000
#
# Coordination Sequence:
#
# PCOD9546928 Si02
#       5
#     8   8   8   8   8
#     4  11  24  38  55  85 122 146 200 255 296 356
#     4   9  17  31  51  85 118 149 201 253 297 361
#     4  10  20  34  61  90 124 168 204 254 312 366
#     4  10  20  34  59  83 114 157 198 248 307 363
#     4   9  17  31  52  90 127 157 206 252 303 367
#
# _framework density 23.445964
#
# number of rings (size 3 to 8) (size 9 to 14) (size 15 to 20)
#    0.000    2.200    2.000    1.200    5.600    0.800 
#    0.000    5.000    4.400    0.000    0.000    1.400 
#    0.000    7.200    0.000    0.000    0.000    0.000 
#
# Total GULP energy -223401.183830 kJ/mol
# GULP energy per Si atom -5585.029596 kJ/mol
# Density = 2.339260 g / cm^3
# Si number density = 23.445964 Si / 1000 Ang^3
#
#
#
# Elastic Constant Matrix: (Units=GPa)
#
#
# Indices 1 2 3 4 5 6 
#
# 1 166.1579 66.2737 -5.4316 0.0000 0.0000 0.0000
# 2 66.2737 166.1579 -5.4316 0.0000 0.0000 0.0000
# 3 -5.4316 -5.4316 108.5037 0.0000 0.0000 0.0000
# 4 0.0000 0.0000 0.0000 -9.8559 0.0000 0.0000
# 5 0.0000 0.0000 0.0000 0.0000 -9.8559 0.0000
# 6 0.0000 0.0000 0.0000 0.0000 0.0000 45.3340
#
#
#
# Elastic Compliance Matrix: (Units=1/GPa)
#
#
# Indices 1 2 3 4 5 6 
#
# 1 0.007162 -0.002850 0.000216 0.000000 0.000000 0.000000
# 2 -0.002850 0.007162 0.000216 0.000000 0.000000 0.000000
# 3 0.000216 0.000216 0.009238 0.000000 0.000000 0.000000
# 4 0.000000 0.000000 0.000000 -0.101462 0.000000 0.000000
# 5 0.000000 0.000000 0.000000 0.000000 -0.101462 0.000000
# 6 0.000000 0.000000 0.000000 0.000000 0.000000 0.022058
#
#
# Mechanical properties :
#
#
# Convention : Reuss Voigt Hill
#
# Bulk Modulus (GPa) = 53.40092 61.29335 57.34714
# Shear Modulus (GPa) = -34.19355 30.81839 -1.68758
#
# Velocity S-wave (km/s) = -3.82304 3.62946 -0.84932
# Velocity P-wave (km/s) = 1.82704 6.61537 4.85290
#
# Compressibility (1/GPa) = 0.01872627
#
# Stress axis : x y z
#
# Youngs Moduli (GPa) = 139.62560 139.62560 108.24979
#
# Poissons Ratio (x) = 0.39787 -0.02337
# Poissons Ratio (y) = 0.39787 -0.02337
# Poissons Ratio (z) = -0.03014 -0.03014
#
# Static dielectric constant tensor:
#      x y z
#    x 1.854890 0.000000 0.000000 
#    y 0.000000 1.854890 0.000000 
#    z 0.000000 0.000000 1.999810 
# 
# From -- ./inp_files/976.got.cif
#   From: 2010.05.17/outbox.cif.g08.bks.cpg/sg89_1_cif.got.tgz:976.got - 2010.06.03 19:15:31.
