data_PCOD9546049
_publ_section_title
;
Structure prediction by ZEFSAII (Michael W. Deem and Ramdas Pophale) SiO2 
 PCOD9546049
Probable space group: I 4/M
;
_chemical_formula_sum "Si O2"
_cell_formula_units_Z 112
_cell_length_a 13.727419
_cell_length_b 13.727419
_cell_length_c 24.988862
_cell_angle_alpha 90.000000
_cell_angle_beta 90.000000
_cell_angle_gamma 90.000000
_cell_volume 4708.951943
_symmetry_space_group_name_H-M "I 4/M"
_symmetry_group_IT_number 87
_symmetry_cell_setting 'tetragonal'
loop_
_space_group_symop_operation_xyz
x,y,z
-y,x,z
-x,-y,z
y,-x,z
-x,-y,-z
y,-x,-z
x,y,-z
-y,x,-z
1/2+x,1/2+y,1/2+z
1/2-y,1/2+x,1/2+z
1/2-x,1/2-y,1/2+z
1/2+y,1/2-x,1/2+z
1/2-x,1/2-y,1/2-z
1/2+y,1/2-x,1/2-z
1/2+x,1/2+y,1/2-z
1/2-y,1/2+x,1/2-z
loop_
_atom_site_type_symbol
_atom_site_label
_atom_site_fract_x
_atom_site_fract_y
_atom_site_fract_z
Si Si1 0.180203 0.950513 0.809494
Si Si2 0.355618 0.046174 0.252136
Si Si3 0.857144 0.568920 0.935696
Si Si4 0.090090 0.127808 0.310308
Si Si5 0.310778 0.778569 0.155244
Si Si6 0.857458 0.943880 0.087184
Si Si7 0.363406 0.076397 0.064097
O O1 0.274234 0.011619 0.788463
O O2 0.131270 0.915904 0.754261
O O3 0.224403 0.856181 0.839935
O O4 0.132875 0.027975 0.849881
O O5 0.399641 0.945974 0.275511
O O6 0.313804 0.115236 0.297857
O O7 0.786205 0.636110 0.901518
O O8 0.856797 0.454805 0.919189
O O9 0.965311 0.608738 0.921078
O O10 0.844505 0.576724 0.000000
O O11 0.166163 0.207929 0.330239
O O12 0.978028 0.130788 0.327716
O O13 0.748700 0.905991 0.078786
O O14 0.945552 0.877743 0.065384
O O15 0.366854 0.079093 0.000000
#
# Coordination Sequence:
#
# PCOD9546049 Si02
#       7
#    16  16  16  16  16  16  16
#     4  11  21  39  59  86 125 164 212 260 312 393
#     4   9  20  33  53  87 119 150 190 250 321 375
#     4   9  19  38  67  96 125 159 210 283 348 399
#     4  11  23  41  58  80 123 171 212 255 319 400
#     4  11  21  37  63  92 119 162 216 269 330 392
#     4  11  24  39  58  89 129 181 223 259 321 396
#     4   9  19  39  64  92 124 167 215 269 339 396
#
# _framework density 23.784486000000001
#
# number of rings (size 3 to 8) (size 9 to 14) (size 15 to 20)
#    0.000    1.857    2.857    2.143    2.000    2.857 
#    2.571    0.714    0.000    0.857    0.000    1.000 
#    0.000    0.000    0.000    0.000    0.000    0.000 
#
# Total GULP energy -312894.145465 kJ/mol
# GULP energy per Si atom -5587.395455 kJ/mol
# Density = 2.373035 g / cm^3
# Si number density = 23.784486 Si / 1000 Ang^3
#
#
#
# Elastic Constant Matrix: (Units=GPa)
#
#
# Indices 1 2 3 4 5 6 
#
# 1 101.4532 12.8356 10.7083 0.0000 0.0000 8.8667
# 2 12.8356 101.4532 10.7083 0.0000 0.0000 -8.8667
# 3 10.7083 10.7083 55.7767 0.0000 0.0000 0.0000
# 4 0.0000 0.0000 0.0000 25.0179 0.0000 0.0000
# 5 0.0000 0.0000 0.0000 0.0000 25.0179 0.0000
# 6 8.8667 -8.8667 0.0000 0.0000 0.0000 25.5520
#
#
#
# Elastic Compliance Matrix: (Units=1/GPa)
#
#
# Indices 1 2 3 4 5 6 
#
# 1 0.010601 -0.001525 -0.001743 0.000000 0.000000 -0.004208
# 2 -0.001525 0.010601 -0.001743 0.000000 0.000000 0.004208
# 3 -0.001743 -0.001743 0.018598 0.000000 0.000000 0.000000
# 4 0.000000 0.000000 0.000000 0.039971 0.000000 0.000000
# 5 0.000000 0.000000 0.000000 0.000000 0.039971 0.000000
# 6 -0.004208 0.004208 0.000000 0.000000 0.000000 0.042056
#
#
# Mechanical properties :
#
#
# Convention : Reuss Voigt Hill
#
# Bulk Modulus (GPa) = 33.57930 36.35415 34.96673
# Shear Modulus (GPa) = 27.51083 30.07961 28.79522
#
# Velocity S-wave (km/s) = 3.40468 3.56008 3.48325
# Velocity P-wave (km/s) = 5.44101 5.67599 5.55974
#
# Compressibility (1/GPa) = 0.02978025
#
# Stress axis : x y z
#
# Youngs Moduli (GPa) = 94.32717 94.32717 53.77010
#
# Poissons Ratio (x) = 0.14386 0.09369
# Poissons Ratio (y) = 0.14386 0.09369
# Poissons Ratio (z) = 0.16437 0.16437
#
# Static dielectric constant tensor:
#      x y z
#    x 1.979940 0.000000 0.000000 
#    y 0.000000 1.979940 0.000000 
#    z 0.000000 0.000000 1.923170 
# 
# From -- ./inp_files/6277.got.cif
#   From: 2010.05.17/outbox.cif.g08.bks.cpg/sg87_4_cif.got.tgz:6277.got - 2010.06.03 19:07:00.
