data_PCOD9546390
_publ_section_title
;
Structure prediction by ZEFSAII (Michael W. Deem and Ramdas Pophale) SiO2 
 PCOD9546390
Probable space group: I 41/A
;
_chemical_formula_sum "Si O2"
_cell_formula_units_Z 80
_cell_length_a 11.974591
_cell_length_b 11.974591
_cell_length_c 25.314597
_cell_angle_alpha 90.000000
_cell_angle_beta 90.000000
_cell_angle_gamma 90.000000
_cell_volume 3629.881065
_symmetry_space_group_name_H-M "I 41/A"
_symmetry_group_IT_number 88
_space_group.IT_coordinate_system_code '2'
_symmetry_cell_setting 'tetragonal'
loop_
_space_group_symop_operation_xyz
x,y,z
3/4-y,1/4+x,1/4+z
-x,1/2-y,z
1/4+y,1/4-x,1/4+z
-x,-y,-z
1/4+y,3/4-x,3/4-z
x,1/2+y,-z
3/4-y,3/4+x,3/4-z
1/2+x,1/2+y,1/2+z
1/4-y,3/4+x,3/4+z
1/2-x,-y,1/2+z
3/4+y,3/4-x,3/4+z
1/2-x,1/2-y,1/2-z
3/4+y,1/4-x,1/4-z
1/2+x,y,1/2-z
1/4-y,1/4+x,1/4-z
loop_
_atom_site_type_symbol
_atom_site_label
_atom_site_fract_x
_atom_site_fract_y
_atom_site_fract_z
Si Si1 0.432121 0.633669 0.063171
Si Si2 0.634250 0.477563 0.266201
Si Si3 0.680700 0.759770 0.613053
Si Si4 0.366997 0.487607 0.907302
Si Si5 0.058535 0.631246 0.075334
O O1 0.500000 0.750000 0.062508
O O2 0.367936 0.607375 0.118262
O O3 0.524490 0.538172 0.057983
O O4 0.334970 0.636503 0.020316
O O5 0.527196 0.459869 0.303846
O O6 0.734831 0.513685 0.304890
O O7 0.652527 0.370974 0.228863
O O8 0.612781 0.653154 0.635932
O O9 0.787921 0.772841 0.650130
O O10 0.387442 0.594178 0.869850
O O11 0.000000 0.750000 0.068652
#
# Coordination Sequence:
#
# PCOD9546390 Si02
#       5
#    16  16  16  16  16
#     4  11  20  39  66 100 139 174 216 272 337 402
#     4  10  24  39  64 101 127 177 231 264 338 396
#     4  10  24  47  65  92 136 175 226 280 332 395
#     4  10  20  40  63  96 141 172 217 277 335 397
#     4  10  24  42  66  97 131 173 225 278 337 398
#
# _framework density 22.039290999999999
#
# number of rings (size 3 to 8) (size 9 to 14) (size 15 to 20)
#    0.000    1.800    2.000    0.600    2.800   10.400 
#    0.000    0.000    0.000    0.000    0.000    0.000 
#    0.000    0.000    0.000    0.000    0.000    0.000 
#
# Total GULP energy -223522.054722 kJ/mol
# GULP energy per Si atom -5588.051368 kJ/mol
# Density = 2.198913 g / cm^3
# Si number density = 22.039291 Si / 1000 Ang^3
#
#
#
# Elastic Constant Matrix: (Units=GPa)
#
#
# Indices 1 2 3 4 5 6 
#
# 1 60.9151 7.8789 18.5378 0.0000 0.0000 1.3283
# 2 7.8789 60.9151 18.5378 0.0000 0.0000 -1.3283
# 3 18.5378 18.5378 115.0142 0.0000 0.0000 0.0000
# 4 0.0000 0.0000 0.0000 15.1226 0.0000 0.0000
# 5 0.0000 0.0000 0.0000 0.0000 15.1226 0.0000
# 6 1.3283 -1.3283 0.0000 0.0000 0.0000 32.2177
#
#
#
# Elastic Compliance Matrix: (Units=1/GPa)
#
#
# Indices 1 2 3 4 5 6 
#
# 1 0.017407 -0.001488 -0.002566 0.000000 0.000000 -0.000779
# 2 -0.001488 0.017407 -0.002566 0.000000 0.000000 0.000779
# 3 -0.002566 -0.002566 0.009522 0.000000 0.000000 0.000000
# 4 0.000000 0.000000 0.000000 0.066126 0.000000 0.000000
# 5 0.000000 0.000000 0.000000 0.000000 0.066126 0.000000
# 6 -0.000779 0.000779 0.000000 0.000000 0.000000 0.031103
#
#
# Mechanical properties :
#
#
# Convention : Reuss Voigt Hill
#
# Bulk Modulus (GPa) = 32.15806 36.30595 34.23201
# Shear Modulus (GPa) = 21.61750 25.28523 23.45137
#
# Velocity S-wave (km/s) = 3.13527 3.39083 3.26555
# Velocity P-wave (km/s) = 5.26588 5.64263 5.45751
#
# Compressibility (1/GPa) = 0.03109640
#
# Stress axis : x y z
#
# Youngs Moduli (GPa) = 57.44974 57.44974 105.02346
#
# Poissons Ratio (x) = 0.08546 0.26947
# Poissons Ratio (y) = 0.08546 0.26947
# Poissons Ratio (z) = 0.14740 0.14740
#
# Static dielectric constant tensor:
#      x y z
#    x 1.804150 0.000000 0.000000 
#    y 0.000000 1.804150 0.000000 
#    z 0.000000 0.000000 1.831370 
# 
# From -- ./inp_files/6282.got.cif
#   From: 2010.05.17/outbox.cif.g08.bks.cpg/sg88_4_cif.got.tgz:6282.got - 2010.06.03 19:11:41.
