data_PCOD9546018
_publ_section_title
;
Structure prediction by ZEFSAII (Michael W. Deem and Ramdas Pophale) SiO2 
 PCOD9546018
Probable space group: I 4/M
;
_chemical_formula_sum "Si O2"
_cell_formula_units_Z 60
_cell_length_a 11.954710
_cell_length_b 11.954710
_cell_length_c 21.605613
_cell_angle_alpha 90.000000
_cell_angle_beta 90.000000
_cell_angle_gamma 90.000000
_cell_volume 3087.768152
_symmetry_space_group_name_H-M "I 4/M"
_symmetry_group_IT_number 87
_symmetry_cell_setting 'tetragonal'
loop_
_space_group_symop_operation_xyz
x,y,z
-y,x,z
-x,-y,z
y,-x,z
-x,-y,-z
y,-x,-z
x,y,-z
-y,x,-z
1/2+x,1/2+y,1/2+z
1/2-y,1/2+x,1/2+z
1/2-x,1/2-y,1/2+z
1/2+y,1/2-x,1/2+z
1/2-x,1/2-y,1/2-z
1/2+y,1/2-x,1/2-z
1/2+x,1/2+y,1/2-z
1/2-y,1/2+x,1/2-z
loop_
_atom_site_type_symbol
_atom_site_label
_atom_site_fract_x
_atom_site_fract_y
_atom_site_fract_z
Si Si1 0.500000 0.000000 0.250000
Si Si2 0.363998 0.000494 0.929175
Si Si3 0.640258 0.232214 0.870973
Si Si4 0.649315 0.612509 0.000000
Si Si5 0.182893 0.611348 0.163538
O O1 0.421536 0.085019 0.211525
O O2 0.330561 0.896582 0.885762
O O3 0.500000 0.000000 0.931475
O O4 0.338245 0.115836 0.895305
O O5 0.324172 0.991208 0.000000
O O6 0.720102 0.298932 0.824113
O O7 0.509903 0.235866 0.851866
O O8 0.649628 0.291705 0.937504
O O9 0.521964 0.651415 0.000000
#
# Coordination Sequence:
#
# PCOD9546018 Si02
#       5
#     4  16  16   8  16
#     4  12  24  48  58  80 116 164 216 254 284 336
#     4   9  18  33  55  87 121 153 187 228 288 364
#     4  11  20  35  58  91 121 155 195 240 304 361
#     4  11  20  28  51  93 139 144 165 242 321 371
#     4  11  24  38  61  88 118 159 201 248 298 352
#
# _framework density 19.431512000000001
#
# number of rings (size 3 to 8) (size 9 to 14) (size 15 to 20)
#    0.000    1.467    8.000    0.000    3.733    1.600 
#    0.000    0.000    0.000    0.800    0.000    1.867 
#    0.000    0.000    0.000    0.000    0.000    0.000 
#
# Total GULP energy -167295.546554 kJ/mol
# GULP energy per Si atom -5576.518218 kJ/mol
# Density = 1.938728 g / cm^3
# Si number density = 19.431512 Si / 1000 Ang^3
#
#
#
# Elastic Constant Matrix: (Units=GPa)
#
#
# Indices 1 2 3 4 5 6 
#
# 1 118.0527 29.4616 27.1173 0.0000 0.0000 -5.7558
# 2 29.4616 118.0527 27.1173 0.0000 0.0000 5.7558
# 3 27.1173 27.1173 55.2976 0.0000 0.0000 0.0000
# 4 0.0000 0.0000 0.0000 13.1992 0.0000 0.0000
# 5 0.0000 0.0000 0.0000 0.0000 13.1992 0.0000
# 6 -5.7558 5.7558 0.0000 0.0000 0.0000 20.3452
#
#
#
# Elastic Compliance Matrix: (Units=1/GPa)
#
#
# Indices 1 2 3 4 5 6 
#
# 1 0.009994 -0.001724 -0.004056 0.000000 0.000000 0.003315
# 2 -0.001724 0.009994 -0.004056 0.000000 0.000000 -0.003315
# 3 -0.004056 -0.004056 0.022062 0.000000 0.000000 0.000000
# 4 0.000000 0.000000 0.000000 0.075762 0.000000 0.000000
# 5 0.000000 0.000000 0.000000 0.000000 0.075762 0.000000
# 6 0.003315 -0.003315 0.000000 0.000000 0.000000 0.051028
#
#
# Mechanical properties :
#
#
# Convention : Reuss Voigt Hill
#
# Bulk Modulus (GPa) = 44.68374 50.97727 47.83051
# Shear Modulus (GPa) = 18.40046 23.19585 20.79816
#
# Velocity S-wave (km/s) = 3.08058 3.45878 3.27514
# Velocity P-wave (km/s) = 5.97484 6.49940 6.24263
#
# Compressibility (1/GPa) = 0.02237950
#
# Stress axis : x y z
#
# Youngs Moduli (GPa) = 100.05682 100.05682 45.32774
#
# Poissons Ratio (x) = 0.17253 0.18383
# Poissons Ratio (y) = 0.17253 0.18383
# Poissons Ratio (z) = 0.40578 0.40578
#
# Static dielectric constant tensor:
#      x y z
#    x 1.690980 0.000000 0.000000 
#    y 0.000000 1.690980 0.000000 
#    z 0.000000 0.000000 1.732140 
# 
# From -- ./inp_files/5699.got.cif
#   From: 2010.05.17/outbox.cif.g08.bks.cpg/sg87_3_cif.got.tgz:5699.got - 2010.06.03 19:07:00.
