data_PCOD9546035
_publ_section_title
;
Structure prediction by ZEFSAII (Michael W. Deem and Ramdas Pophale) SiO2 
 PCOD9546035
Probable space group: I 4/M
;
_chemical_formula_sum "Si O2"
_cell_formula_units_Z 64
_cell_length_a 11.183717
_cell_length_b 11.183717
_cell_length_c 23.094868
_cell_angle_alpha 90.000000
_cell_angle_beta 90.000000
_cell_angle_gamma 90.000000
_cell_volume 2888.602762
_symmetry_space_group_name_H-M "I 4/M"
_symmetry_group_IT_number 87
_symmetry_cell_setting 'tetragonal'
loop_
_space_group_symop_operation_xyz
x,y,z
-y,x,z
-x,-y,z
y,-x,z
-x,-y,-z
y,-x,-z
x,y,-z
-y,x,-z
1/2+x,1/2+y,1/2+z
1/2-y,1/2+x,1/2+z
1/2-x,1/2-y,1/2+z
1/2+y,1/2-x,1/2+z
1/2-x,1/2-y,1/2-z
1/2+y,1/2-x,1/2-z
1/2+x,1/2+y,1/2-z
1/2-y,1/2+x,1/2-z
loop_
_atom_site_type_symbol
_atom_site_label
_atom_site_fract_x
_atom_site_fract_y
_atom_site_fract_z
Si Si1 0.825827 0.565087 0.772818
Si Si2 0.029220 0.645276 0.590797
Si Si3 0.774750 0.724548 0.437504
Si Si4 0.602754 0.332842 0.672647
O O1 0.854491 0.438845 0.743164
O O2 0.825855 0.544230 0.840878
O O3 0.713713 0.617713 0.738197
O O4 0.152728 0.698425 0.565286
O O5 0.000000 0.500000 0.583553
O O6 0.919151 0.722592 0.565616
O O7 0.743497 0.666801 0.500000
O O8 0.747005 0.655230 0.378103
O O9 0.656655 0.462211 0.663550
#
# Coordination Sequence:
#
# PCOD9546035 Si02
#       4
#    16  16  16  16
#     4  11  20  40  70 102 138 181 231 293 366 431
#     4  12  26  47  75 109 145 193 247 304 366 433
#     4  12  27  47  73 103 143 197 248 297 358 434
#     4  11  25  42  66 106 145 182 235 301 364 438
#
# _framework density 22.156040000000001
#
# number of rings (size 3 to 8) (size 9 to 14) (size 15 to 20)
#    0.000    0.500    5.000    3.750    3.500    7.500 
#    0.000    2.500    0.000    0.000    0.000    0.000 
#    0.000    0.000    0.000    0.000    0.000    0.000 
#
# Total GULP energy -178589.975999 kJ/mol
# GULP energy per Si atom -5580.936750 kJ/mol
# Density = 2.210561 g / cm^3
# Si number density = 22.156040 Si / 1000 Ang^3
#
#
#
# Elastic Constant Matrix: (Units=GPa)
#
#
# Indices 1 2 3 4 5 6 
#
# 1 121.5708 6.3006 27.8762 0.0000 0.0000 -2.6364
# 2 6.3006 121.5708 27.8762 0.0000 0.0000 2.6364
# 3 27.8762 27.8762 147.0872 0.0000 0.0000 0.0000
# 4 0.0000 0.0000 0.0000 -6.7549 0.0000 0.0000
# 5 0.0000 0.0000 0.0000 0.0000 -6.7549 0.0000
# 6 -2.6364 2.6364 0.0000 0.0000 0.0000 31.9865
#
#
#
# Elastic Compliance Matrix: (Units=1/GPa)
#
#
# Indices 1 2 3 4 5 6 
#
# 1 0.008616 -0.000092 -0.001616 0.000000 0.000000 0.000718
# 2 -0.000092 0.008616 -0.001616 0.000000 0.000000 -0.000718
# 3 -0.001616 -0.001616 0.007411 0.000000 0.000000 0.000000
# 4 0.000000 0.000000 0.000000 -0.148041 0.000000 0.000000
# 5 0.000000 0.000000 0.000000 0.000000 -0.148041 0.000000
# 6 0.000718 -0.000718 0.000000 0.000000 0.000000 0.031381
#
#
# Mechanical properties :
#
#
# Convention : Reuss Voigt Hill
#
# Bulk Modulus (GPa) = 55.56134 57.14829 56.35481
# Shear Modulus (GPa) = -21.98659 25.57374 1.79357
#
# Velocity S-wave (km/s) = -3.15358 3.40112 0.90071
# Velocity P-wave (km/s) = 3.44553 6.42441 5.15484
#
# Compressibility (1/GPa) = 0.01799813
#
# Stress axis : x y z
#
# Youngs Moduli (GPa) = 116.05724 116.05724 134.93307
#
# Poissons Ratio (x) = 0.01064 0.21800
# Poissons Ratio (y) = 0.01064 0.21800
# Poissons Ratio (z) = 0.18751 0.18751
#
# Static dielectric constant tensor:
#      x y z
#    x 1.870910 0.000000 0.000000 
#    y 0.000000 1.870910 0.000000 
#    z 0.000000 0.000000 1.824850 
# 
# From -- ./inp_files/4970.got.cif
#   From: 2010.05.17/outbox.cif.g08.bks.cpg/sg87_3_cif.got.tgz:4970.got - 2010.06.03 19:07:00.
