data_PCOD9546325
_publ_section_title
;
Structure prediction by ZEFSAII (Michael W. Deem and Ramdas Pophale) SiO2 
 PCOD9546325
Probable space group: I 41/A
;
_chemical_formula_sum "Si O2"
_cell_formula_units_Z 112
_cell_length_a 14.100115
_cell_length_b 14.100115
_cell_length_c 25.884768
_cell_angle_alpha 90.000000
_cell_angle_beta 90.000000
_cell_angle_gamma 90.000000
_cell_volume 5146.234671
_symmetry_space_group_name_H-M "I 41/A"
_symmetry_group_IT_number 88
_space_group.IT_coordinate_system_code '2'
_symmetry_cell_setting 'tetragonal'
loop_
_space_group_symop_operation_xyz
x,y,z
3/4-y,1/4+x,1/4+z
-x,1/2-y,z
1/4+y,1/4-x,1/4+z
-x,-y,-z
1/4+y,3/4-x,3/4-z
x,1/2+y,-z
3/4-y,3/4+x,3/4-z
1/2+x,1/2+y,1/2+z
1/4-y,3/4+x,3/4+z
1/2-x,-y,1/2+z
3/4+y,3/4-x,3/4+z
1/2-x,1/2-y,1/2-z
3/4+y,1/4-x,1/4-z
1/2+x,y,1/2-z
1/4-y,1/4+x,1/4-z
loop_
_atom_site_type_symbol
_atom_site_label
_atom_site_fract_x
_atom_site_fract_y
_atom_site_fract_z
Si Si1 0.620266 0.494768 0.457131
Si Si2 0.173901 0.044385 0.411267
Si Si3 0.882600 0.352391 0.715043
Si Si4 0.622033 0.558731 0.797880
Si Si5 0.023667 0.906180 0.869353
Si Si6 0.393740 0.140538 0.762746
Si Si7 0.578622 0.952073 0.745806
O O1 0.716843 0.479682 0.423590
O O2 0.628310 0.419339 0.503381
O O3 0.537174 0.478545 0.416384
O O4 0.625272 0.595580 0.485427
O O5 0.121961 0.941728 0.418826
O O6 0.151572 0.084650 0.355203
O O7 0.139004 0.121745 0.453558
O O8 0.856909 0.247043 0.732585
O O9 0.868929 0.446022 0.749960
O O10 0.998277 0.353625 0.714852
O O11 0.653751 0.447992 0.791812
O O12 0.510424 0.555981 0.784574
O O13 0.103165 0.825773 0.878352
O O14 0.040977 0.943715 0.812016
#
# Coordination Sequence:
#
# PCOD9546325 Si02
#       7
#    16  16  16  16  16  16  16
#     4  10  21  39  60  88 119 158 203 252 313 375
#     4  10  20  34  60  85 118 167 196 254 314 357
#     4   9  19  35  55  85 121 156 204 242 307 371
#     4  10  20  37  57  87 126 153 210 256 301 374
#     4  11  23  41  67  87 119 164 205 255 328 377
#     4   9  19  34  55  83 123 165 196 252 302 365
#     4  10  21  38  61  89 119 156 207 260 301 377
#
# _framework density 21.763483999999998
#
# number of rings (size 3 to 8) (size 9 to 14) (size 15 to 20)
#    0.000    2.143    1.429    1.286    0.000    5.143 
#    0.000    2.857    6.286    0.000    0.000    0.000 
#    0.000    0.000    0.000    0.000    0.000    0.000 
#
# Total GULP energy -312120.367122 kJ/mol
# GULP energy per Si atom -5573.577984 kJ/mol
# Density = 2.171395 g / cm^3
# Si number density = 21.763484 Si / 1000 Ang^3
#
#
#
# Elastic Constant Matrix: (Units=GPa)
#
#
# Indices 1 2 3 4 5 6 
#
# 1 58.0873 20.4692 16.6569 0.0000 0.0000 -10.7973
# 2 20.4692 58.0873 16.6569 0.0000 0.0000 10.7973
# 3 16.6569 16.6569 96.0422 0.0000 0.0000 0.0000
# 4 0.0000 0.0000 0.0000 19.3470 0.0000 0.0000
# 5 0.0000 0.0000 0.0000 0.0000 19.3470 0.0000
# 6 -10.7973 10.7973 0.0000 0.0000 0.0000 16.3797
#
#
#
# Elastic Compliance Matrix: (Units=1/GPa)
#
#
# Indices 1 2 3 4 5 6 
#
# 1 0.028253 -0.014513 -0.002383 0.000000 0.000000 0.028191
# 2 -0.014513 0.028253 -0.002383 0.000000 0.000000 -0.028191
# 3 -0.002383 -0.002383 0.011239 0.000000 0.000000 0.000000
# 4 0.000000 0.000000 0.000000 0.051688 0.000000 0.000000
# 5 0.000000 0.000000 0.000000 0.000000 0.051688 0.000000
# 6 0.028191 -0.028191 0.000000 0.000000 0.000000 0.098218
#
#
# Mechanical properties :
#
#
# Convention : Reuss Voigt Hill
#
# Bulk Modulus (GPa) = 34.26166 35.53143 34.89654
# Shear Modulus (GPa) = 15.74184 21.57698 18.65941
#
# Velocity S-wave (km/s) = 2.69237 3.15211 2.93127
# Velocity P-wave (km/s) = 5.04401 5.44145 5.24649
#
# Compressibility (1/GPa) = 0.02918715
#
# Stress axis : x y z
#
# Youngs Moduli (GPa) = 35.39428 35.39428 88.97843
#
# Poissons Ratio (x) = 0.51367 0.21204
# Poissons Ratio (y) = 0.51367 0.21204
# Poissons Ratio (z) = 0.08435 0.08435
#
# Static dielectric constant tensor:
#      x y z
#    x 1.845670 0.000000 0.000000 
#    y 0.000000 1.845670 0.000000 
#    z 0.000000 0.000000 1.772280 
# 
# From -- ./inp_files/5861.got.cif
#   From: 2010.05.17/outbox.cif.g08.bks.cpg/sg88_3_cif.got.tgz:5861.got - 2010.06.03 19:11:41.
