data_PCOD9546217
_publ_section_title
;
Structure prediction by ZEFSAII (Michael W. Deem and Ramdas Pophale) SiO2 
 PCOD9546217
Probable space group: I 41/A
;
_chemical_formula_sum "Si O2"
_cell_formula_units_Z 112
_cell_length_a 20.401516
_cell_length_b 20.401516
_cell_length_c 17.812102
_cell_angle_alpha 90.000000
_cell_angle_beta 90.000000
_cell_angle_gamma 90.000000
_cell_volume 7413.786138
_symmetry_space_group_name_H-M "I 41/A"
_symmetry_group_IT_number 88
_space_group.IT_coordinate_system_code '2'
_symmetry_cell_setting 'tetragonal'
loop_
_space_group_symop_operation_xyz
x,y,z
3/4-y,1/4+x,1/4+z
-x,1/2-y,z
1/4+y,1/4-x,1/4+z
-x,-y,-z
1/4+y,3/4-x,3/4-z
x,1/2+y,-z
3/4-y,3/4+x,3/4-z
1/2+x,1/2+y,1/2+z
1/4-y,3/4+x,3/4+z
1/2-x,-y,1/2+z
3/4+y,3/4-x,3/4+z
1/2-x,1/2-y,1/2-z
3/4+y,1/4-x,1/4-z
1/2+x,y,1/2-z
1/4-y,1/4+x,1/4-z
loop_
_atom_site_type_symbol
_atom_site_label
_atom_site_fract_x
_atom_site_fract_y
_atom_site_fract_z
Si Si1 0.218498 0.597433 0.545300
Si Si2 0.786913 0.175253 0.802701
Si Si3 0.640082 0.847014 0.074787
Si Si4 0.168368 0.188457 0.805105
Si Si5 0.216945 0.011009 0.059808
Si Si6 0.677834 0.195889 0.930611
Si Si7 0.841039 0.034112 0.334332
O O1 0.147387 0.564041 0.554045
O O2 0.249690 0.588150 0.627187
O O3 0.260281 0.554344 0.485408
O O4 0.204706 0.667916 0.509044
O O5 0.839911 0.233402 0.806904
O O6 0.742416 0.180941 0.728198
O O7 0.736437 0.187256 0.870676
O O8 0.600634 0.869850 0.148833
O O9 0.654349 0.770303 0.069893
O O10 0.709018 0.885251 0.075528
O O11 0.597181 0.871408 0.003985
O O12 0.172008 0.149816 0.883113
O O13 0.281785 0.034148 0.105267
O O14 0.196441 0.062103 0.995987
#
# Coordination Sequence:
#
# PCOD9546217 Si02
#       7
#    16  16  16  16  16  16  16
#     4  11  18  32  44  71  92 127 157 198 240 289
#     4  10  18  30  46  66  93 134 154 191 234 291
#     4  11  21  31  43  70  93 136 160 190 225 285
#     4  10  18  29  46  63  95 125 163 186 234 276
#     4  10  18  26  49  69  92 111 156 201 246 276
#     4  11  21  32  46  63 104 128 166 194 232 284
#     4  11  16  30  46  71  91 115 155 205 232 289
#
# _framework density 15.106992
#
# number of rings (size 3 to 8) (size 9 to 14) (size 15 to 20)
#    0.000    1.429    7.143    1.714    4.000    0.286 
#    0.000    0.000    0.000    0.857    0.000    0.000 
#    0.000    0.000    0.000    0.000    0.000    0.000 
#
# Total GULP energy -312258.532297 kJ/mol
# GULP energy per Si atom -5576.045220 kJ/mol
# Density = 1.507261 g / cm^3
# Si number density = 15.106992 Si / 1000 Ang^3
#
#
#
# Elastic Constant Matrix: (Units=GPa)
#
#
# Indices 1 2 3 4 5 6 
#
# 1 40.9339 10.7985 30.5013 0.0000 0.0000 4.6291
# 2 10.7985 40.9339 30.5013 0.0000 0.0000 -4.6291
# 3 30.5013 30.5013 103.7786 0.0000 0.0000 0.0000
# 4 0.0000 0.0000 0.0000 18.2814 0.0000 0.0000
# 5 0.0000 0.0000 0.0000 0.0000 18.2814 0.0000
# 6 4.6291 -4.6291 0.0000 0.0000 0.0000 15.4459
#
#
#
# Elastic Compliance Matrix: (Units=1/GPa)
#
#
# Indices 1 2 3 4 5 6 
#
# 1 0.033066 -0.003483 -0.008695 0.000000 0.000000 -0.010954
# 2 -0.003483 0.033066 -0.008695 0.000000 0.000000 0.010954
# 3 -0.008695 -0.008695 0.014747 0.000000 0.000000 0.000000
# 4 0.000000 0.000000 0.000000 0.054700 0.000000 0.000000
# 5 0.000000 0.000000 0.000000 0.000000 0.054700 0.000000
# 6 -0.010954 0.010954 0.000000 0.000000 0.000000 0.071308
#
#
# Mechanical properties :
#
#
# Convention : Reuss Voigt Hill
#
# Bulk Modulus (GPa) = 25.55321 36.58319 31.06820
# Shear Modulus (GPa) = 15.80396 17.99140 16.89768
#
# Velocity S-wave (km/s) = 3.23791 3.45473 3.34808
# Velocity P-wave (km/s) = 5.56150 6.33894 5.96291
#
# Compressibility (1/GPa) = 0.03913403
#
# Stress axis : x y z
#
# Youngs Moduli (GPa) = 30.24266 30.24266 67.81151
#
# Poissons Ratio (x) = 0.10533 0.58960
# Poissons Ratio (y) = 0.10533 0.58960
# Poissons Ratio (z) = 0.26295 0.26295
#
# Static dielectric constant tensor:
#      x y z
#    x 1.513050 0.000000 0.000000 
#    y 0.000000 1.513050 0.000000 
#    z 0.000000 0.000000 1.525970 
# 
# From -- ./inp_files/4064.got.cif
#   From: 2010.05.17/outbox.cif.g08.bks.cpg/sg88_3_cif.got.tgz:4064.got - 2010.06.03 19:11:41.
