data_PCOD9546912
_publ_section_title
;
Structure prediction by ZEFSAII (Michael W. Deem and Ramdas Pophale) SiO2 
 PCOD9546912
Probable space group: P 4 2 2
;
_chemical_formula_sum "Si O2"
_cell_formula_units_Z 32
_cell_length_a 18.598533
_cell_length_b 18.598533
_cell_length_c 5.032914
_cell_angle_alpha 90.000000
_cell_angle_beta 90.000000
_cell_angle_gamma 90.000000
_cell_volume 1740.912280
_symmetry_space_group_name_H-M "P 4 2 2"
_symmetry_group_IT_number 89
_symmetry_cell_setting 'tetragonal'
loop_
_space_group_symop_operation_xyz
x,y,z
-y,x,z
-x,-y,z
y,-x,z
x,-y,-z
-x,y,-z
y,x,-z
-y,-x,-z
loop_
_atom_site_type_symbol
_atom_site_label
_atom_site_fract_x
_atom_site_fract_y
_atom_site_fract_z
Si Si1 0.295347 0.921264 0.440389
Si Si2 0.301899 0.415861 0.052676
Si Si3 0.921235 0.803035 0.940890
Si Si4 0.232080 0.346762 0.552647
O O1 0.227905 0.917116 0.644219
O O2 0.343602 0.852245 0.498349
O O3 0.328023 0.000000 0.500000
O O4 0.264321 0.916383 0.143510
O O5 0.250132 0.373790 0.846607
O O6 0.302080 0.500000 0.000000
O O7 0.379134 0.379134 0.000000
O O8 0.273865 0.397827 0.346245
O O9 0.858589 0.858589 0.000000
O O10 0.000000 0.835236 0.000000
O O11 0.268422 0.268422 0.500000
#
# Coordination Sequence:
#
# PCOD9546912 Si02
#       4
#     8   8   8   8
#     4  10  20  33  51  74 100 132 173 220 261 299
#     4  10  21  36  56  82 108 136 167 202 250 306
#     4  10  19  30  45  67  96 130 169 214 264 314
#     4  10  19  33  55  78 103 137 175 214 254 300
#
# _framework density 18.381167999999999
#
# number of rings (size 3 to 8) (size 9 to 14) (size 15 to 20)
#    0.000    2.000    0.000    4.500    0.000    2.500 
#    0.000    0.000    0.000   13.500    0.000    0.000 
#    0.000    0.000    0.000    0.000    0.000    0.000 
#
# Total GULP energy -178633.253936 kJ/mol
# GULP energy per Si atom -5582.289186 kJ/mol
# Density = 1.833933 g / cm^3
# Si number density = 18.381168 Si / 1000 Ang^3
#
#
#
# Elastic Constant Matrix: (Units=GPa)
#
#
# Indices 1 2 3 4 5 6 
#
# 1 68.7965 12.8994 -16.4592 0.0000 0.0000 0.0000
# 2 12.8994 68.7965 -16.4592 0.0000 0.0000 0.0000
# 3 -16.4592 -16.4592 52.0034 0.0000 0.0000 0.0000
# 4 0.0000 0.0000 0.0000 13.8988 0.0000 0.0000
# 5 0.0000 0.0000 0.0000 0.0000 13.8988 0.0000
# 6 0.0000 0.0000 0.0000 0.0000 0.0000 8.9804
#
#
#
# Elastic Compliance Matrix: (Units=1/GPa)
#
#
# Indices 1 2 3 4 5 6 
#
# 1 0.015960 -0.001930 0.004440 0.000000 0.000000 0.000000
# 2 -0.001930 0.015960 0.004440 0.000000 0.000000 0.000000
# 3 0.004440 0.004440 0.022040 0.000000 0.000000 0.000000
# 4 0.000000 0.000000 0.000000 0.071949 0.000000 0.000000
# 5 0.000000 0.000000 0.000000 0.000000 0.071949 0.000000
# 6 0.000000 0.000000 0.000000 0.000000 0.000000 0.111354
#
#
# Mechanical properties :
#
#
# Convention : Reuss Voigt Hill
#
# Bulk Modulus (GPa) = 14.73588 16.61761 15.67674
# Shear Modulus (GPa) = 15.72671 21.32994 18.52832
#
# Velocity S-wave (km/s) = 2.92822 3.41019 3.17836
# Velocity P-wave (km/s) = 4.41212 4.95642 4.69217
#
# Compressibility (1/GPa) = 0.06786158
#
# Stress axis : x y z
#
# Youngs Moduli (GPa) = 62.65716 62.65716 45.37137
#
# Poissons Ratio (x) = 0.12094 -0.20147
# Poissons Ratio (y) = 0.12094 -0.20147
# Poissons Ratio (z) = -0.27823 -0.27823
#
# Static dielectric constant tensor:
#      x y z
#    x 1.623610 0.000000 0.000000 
#    y 0.000000 1.623610 0.000000 
#    z 0.000000 0.000000 1.623640 
# 
# From -- ./inp_files/294.got.cif
#   From: 2010.05.17/outbox.cif.g08.bks.cpg/sg89_1_cif.got.tgz:294.got - 2010.06.03 19:15:31.
