data_PCOD9546229
_publ_section_title
;
Structure prediction by ZEFSAII (Michael W. Deem and Ramdas Pophale) SiO2 
 PCOD9546229
Probable space group: I 41/A
;
_chemical_formula_sum "Si O2"
_cell_formula_units_Z 96
_cell_length_a 22.767296
_cell_length_b 22.767296
_cell_length_c 9.831835
_cell_angle_alpha 90.000000
_cell_angle_beta 90.000000
_cell_angle_gamma 90.000000
_cell_volume 5096.329383
_symmetry_space_group_name_H-M "I 41/A"
_symmetry_group_IT_number 88
_space_group.IT_coordinate_system_code '2'
_symmetry_cell_setting 'tetragonal'
loop_
_space_group_symop_operation_xyz
x,y,z
3/4-y,1/4+x,1/4+z
-x,1/2-y,z
1/4+y,1/4-x,1/4+z
-x,-y,-z
1/4+y,3/4-x,3/4-z
x,1/2+y,-z
3/4-y,3/4+x,3/4-z
1/2+x,1/2+y,1/2+z
1/4-y,3/4+x,3/4+z
1/2-x,-y,1/2+z
3/4+y,3/4-x,3/4+z
1/2-x,1/2-y,1/2-z
3/4+y,1/4-x,1/4-z
1/2+x,y,1/2-z
1/4-y,1/4+x,1/4-z
loop_
_atom_site_type_symbol
_atom_site_label
_atom_site_fract_x
_atom_site_fract_y
_atom_site_fract_z
Si Si1 0.480713 0.940854 0.177300
Si Si2 0.142615 0.862863 0.641814
Si Si3 0.202587 0.679931 0.652004
Si Si4 0.018895 0.920081 0.611126
Si Si5 0.311497 0.498127 0.479884
Si Si6 0.662396 0.273122 0.354618
O O1 0.427311 0.920429 0.272660
O O2 0.540657 0.929434 0.263276
O O3 0.476433 0.010589 0.148143
O O4 0.484661 0.912047 0.029553
O O5 0.084430 0.895932 0.596654
O O6 0.191831 0.906746 0.700872
O O7 0.126082 0.817940 0.763355
O O8 0.205986 0.611112 0.678731
O O9 0.271137 0.700432 0.651515
O O10 0.169661 0.711516 0.776349
O O11 0.986251 0.893211 0.741689
O O12 0.272515 0.526660 0.597371
#
# Coordination Sequence:
#
# PCOD9546229 Si02
#       6
#    16  16  16  16  16  16
#     4   9  19  34  56  82 105 135 182 225 263 322
#     4  10  19  35  56  76 105 143 174 217 277 323
#     4   8  15  32  50  69 101 141 176 213 253 297
#     4  10  18  33  56  81 106 135 178 227 265 314
#     4  11  22  34  50  78 117 152 180 215 261 321
#     4   8  15  30  54  75  94 129 180 218 253 311
#
# _framework density 18.837085999999999
#
# number of rings (size 3 to 8) (size 9 to 14) (size 15 to 20)
#    0.000    2.667    0.000    5.000    0.000    1.333 
#    0.000   13.333    0.000    3.000    0.000    0.000 
#    0.000    0.000    0.000    0.000    0.000    0.000 
#
# Total GULP energy -267574.935911 kJ/mol
# GULP energy per Si atom -5574.477831 kJ/mol
# Density = 1.879421 g / cm^3
# Si number density = 18.837086 Si / 1000 Ang^3
#
#
#
# Elastic Constant Matrix: (Units=GPa)
#
#
# Indices 1 2 3 4 5 6 
#
# 1 33.4697 19.6419 44.3541 0.0000 0.0000 -12.5824
# 2 19.6419 33.4697 44.3541 0.0000 0.0000 12.5824
# 3 44.3541 44.3541 165.4175 0.0000 0.0000 0.0000
# 4 0.0000 0.0000 0.0000 13.5344 0.0000 0.0000
# 5 0.0000 0.0000 0.0000 0.0000 13.5344 0.0000
# 6 -12.5824 12.5824 0.0000 0.0000 0.0000 -1.9267
#
#
#
# Elastic Compliance Matrix: (Units=1/GPa)
#
#
# Indices 1 2 3 4 5 6 
#
# 1 0.019856 0.014243 -0.009143 0.000000 0.000000 -0.036654
# 2 0.014243 0.019856 -0.009143 0.000000 0.000000 0.036654
# 3 -0.009143 -0.009143 0.010949 0.000000 0.000000 0.000000
# 4 0.000000 0.000000 0.000000 0.073886 0.000000 0.000000
# 5 0.000000 0.000000 0.000000 0.000000 0.073886 0.000000
# 6 -0.036654 0.036654 0.000000 0.000000 0.000000 -0.040282
#
#
# Mechanical properties :
#
#
# Convention : Reuss Voigt Hill
#
# Bulk Modulus (GPa) = 23.48817 49.89526 36.69171
# Shear Modulus (GPa) = 27.71194 13.29556 20.50375
#
# Velocity S-wave (km/s) = 3.83970 2.65961 3.30279
# Velocity P-wave (km/s) = 5.67044 5.99805 5.83655
#
# Compressibility (1/GPa) = 0.04257463
#
# Stress axis : x y z
#
# Youngs Moduli (GPa) = 50.36212 50.36212 91.33622
#
# Poissons Ratio (x) = -0.71733 0.83511
# Poissons Ratio (y) = -0.71733 0.83511
# Poissons Ratio (z) = 0.46047 0.46047
#
# Static dielectric constant tensor:
#      x y z
#    x 1.656690 0.000000 0.000000 
#    y 0.000000 1.656690 0.000000 
#    z 0.000000 0.000000 1.670950 
# 
# From -- ./inp_files/1748.got.cif
#   From: 2010.05.17/outbox.cif.g08.bks.cpg/sg88_1_cif.got.tgz:1748.got - 2010.06.03 19:11:41.
