data_PCOD9546434
_publ_section_title
;
Structure prediction by ZEFSAII (Michael W. Deem and Ramdas Pophale) SiO2 
 PCOD9546434
Probable space group: I 41/A
;
_chemical_formula_sum "Si O2"
_cell_formula_units_Z 112
_cell_length_a 14.597013
_cell_length_b 14.597013
_cell_length_c 28.659082
_cell_angle_alpha 90.000000
_cell_angle_beta 90.000000
_cell_angle_gamma 90.000000
_cell_volume 6106.470518
_symmetry_space_group_name_H-M "I 41/A"
_symmetry_group_IT_number 88
_space_group.IT_coordinate_system_code '2'
_symmetry_cell_setting 'tetragonal'
loop_
_space_group_symop_operation_xyz
x,y,z
3/4-y,1/4+x,1/4+z
-x,1/2-y,z
1/4+y,1/4-x,1/4+z
-x,-y,-z
1/4+y,3/4-x,3/4-z
x,1/2+y,-z
3/4-y,3/4+x,3/4-z
1/2+x,1/2+y,1/2+z
1/4-y,3/4+x,3/4+z
1/2-x,-y,1/2+z
3/4+y,3/4-x,3/4+z
1/2-x,1/2-y,1/2-z
3/4+y,1/4-x,1/4-z
1/2+x,y,1/2-z
1/4-y,1/4+x,1/4-z
loop_
_atom_site_type_symbol
_atom_site_label
_atom_site_fract_x
_atom_site_fract_y
_atom_site_fract_z
Si Si1 0.622518 0.031185 0.890069
Si Si2 0.736530 0.643807 0.461713
Si Si3 0.745130 0.311389 0.600813
Si Si4 0.779313 0.692818 0.705513
Si Si5 0.041044 0.352118 0.876286
Si Si6 0.136491 0.179524 0.127545
Si Si7 0.598376 0.053914 0.687128
O O1 0.682367 0.111078 0.912064
O O2 0.651240 0.028118 0.835238
O O3 0.512766 0.040476 0.886286
O O4 0.644182 0.933962 0.913536
O O5 0.719431 0.747560 0.443579
O O6 0.642505 0.591162 0.470587
O O7 0.797524 0.643222 0.507577
O O8 0.650627 0.349098 0.621843
O O9 0.750000 0.750000 0.750000
O O10 0.838683 0.753642 0.669635
O O11 0.691969 0.660443 0.675095
O O12 0.000000 0.250000 0.880156
O O13 0.994308 0.398131 0.831087
O O14 0.118913 0.288590 0.124631
O O15 0.202253 0.150842 0.085159
#
# Coordination Sequence:
#
# PCOD9546434 Si02
#       7
#    16  16  16  16  16  16  16
#     4  10  22  44  65  91 127 167 217 273 333 378
#     4  10  22  42  59  96 125 162 221 267 321 403
#     4  10  22  42  69  87 126 175 211 271 332 392
#     4  11  22  36  61  91 130 172 215 257 324 407
#     4  11  19  42  65  89 131 173 207 268 335 383
#     4  10  21  37  52  84 129 167 198 257 313 374
#     4  11  22  39  65  92 129 160 223 269 313 405
#
# _framework density 18.341201000000002
#
# number of rings (size 3 to 8) (size 9 to 14) (size 15 to 20)
#    0.857    0.714    5.714    0.857    6.000    1.429 
#    5.143    2.143    0.000    0.000    0.000    0.000 
#    0.000    0.000    0.000    0.000    0.000    0.000 
#
# Total GULP energy -312140.920234 kJ/mol
# GULP energy per Si atom -5573.945004 kJ/mol
# Density = 1.829946 g / cm^3
# Si number density = 18.341201 Si / 1000 Ang^3
#
#
#
# Elastic Constant Matrix: (Units=GPa)
#
#
# Indices 1 2 3 4 5 6 
#
# 1 58.1617 10.4563 8.4301 0.0000 0.0000 -3.3111
# 2 10.4563 58.1617 8.4301 0.0000 0.0000 3.3111
# 3 8.4301 8.4301 105.0267 0.0000 0.0000 0.0000
# 4 0.0000 0.0000 0.0000 15.0855 0.0000 0.0000
# 5 0.0000 0.0000 0.0000 0.0000 15.0855 0.0000
# 6 -3.3111 3.3111 0.0000 0.0000 0.0000 32.2159
#
#
#
# Elastic Compliance Matrix: (Units=1/GPa)
#
#
# Indices 1 2 3 4 5 6 
#
# 1 0.018066 -0.003199 -0.001193 0.000000 0.000000 0.002186
# 2 -0.003199 0.018066 -0.001193 0.000000 0.000000 -0.002186
# 3 -0.001193 -0.001193 0.009713 0.000000 0.000000 0.000000
# 4 0.000000 0.000000 0.000000 0.066289 0.000000 0.000000
# 5 0.000000 0.000000 0.000000 0.000000 0.066289 0.000000
# 6 0.002186 -0.002186 0.000000 0.000000 0.000000 0.031490
#
#
# Mechanical properties :
#
#
# Convention : Reuss Voigt Hill
#
# Bulk Modulus (GPa) = 28.84083 30.66480 29.75282
# Shear Modulus (GPa) = 21.49225 25.41295 23.45260
#
# Velocity S-wave (km/s) = 3.42687 3.72636 3.57975
# Velocity P-wave (km/s) = 5.60506 5.93883 5.77436
#
# Compressibility (1/GPa) = 0.03467306
#
# Stress axis : x y z
#
# Youngs Moduli (GPa) = 55.35251 55.35251 102.95528
#
# Poissons Ratio (x) = 0.17709 0.12286
# Poissons Ratio (y) = 0.17709 0.12286
# Poissons Ratio (z) = 0.06605 0.06605
#
# Static dielectric constant tensor:
#      x y z
#    x 1.636820 0.000000 0.000000 
#    y 0.000000 1.636820 0.000000 
#    z 0.000000 0.000000 1.627410 
# 
# From -- ./inp_files/6572.got.cif
#   From: 2010.05.17/outbox.cif.g08.bks.cpg/sg88_4_cif.got.tgz:6572.got - 2010.06.03 19:11:41.
