data_PCOD9546076
_publ_section_title
;
Structure prediction by ZEFSAII (Michael W. Deem and Ramdas Pophale) SiO2 
 PCOD9546076
Probable space group: I 4/M
;
_chemical_formula_sum "Si O2"
_cell_formula_units_Z 104
_cell_length_a 17.793273
_cell_length_b 17.793273
_cell_length_c 17.682430
_cell_angle_alpha 90.000000
_cell_angle_beta 90.000000
_cell_angle_gamma 90.000000
_cell_volume 5598.267312
_symmetry_space_group_name_H-M "I 4/M"
_symmetry_group_IT_number 87
_symmetry_cell_setting 'tetragonal'
loop_
_space_group_symop_operation_xyz
x,y,z
-y,x,z
-x,-y,z
y,-x,z
-x,-y,-z
y,-x,-z
x,y,-z
-y,x,-z
1/2+x,1/2+y,1/2+z
1/2-y,1/2+x,1/2+z
1/2-x,1/2-y,1/2+z
1/2+y,1/2-x,1/2+z
1/2-x,1/2-y,1/2-z
1/2+y,1/2-x,1/2-z
1/2+x,1/2+y,1/2-z
1/2-y,1/2+x,1/2-z
loop_
_atom_site_type_symbol
_atom_site_label
_atom_site_fract_x
_atom_site_fract_y
_atom_site_fract_z
Si Si1 0.229038 0.671632 0.336447
Si Si2 0.242304 0.601317 0.500000
Si Si3 0.523837 0.837212 0.741438
Si Si4 0.234085 0.122266 0.758321
Si Si5 0.165849 0.100346 0.000000
Si Si6 0.615391 0.545665 0.660865
Si Si7 0.677035 0.931541 0.000000
Si Si8 0.948044 0.439182 0.871422
O O1 0.221252 0.643706 0.422277
O O2 0.211328 0.596705 0.284923
O O3 0.168096 0.734235 0.312590
O O4 0.310150 0.709630 0.316771
O O5 0.332583 0.606322 0.500000
O O6 0.210200 0.516964 0.500000
O O7 0.443779 0.795500 0.729972
O O8 0.535205 0.875326 0.823222
O O9 0.511617 0.906623 0.685225
O O10 0.160813 0.070936 0.765562
O O11 0.155410 0.058813 0.919920
O O12 0.252625 0.124323 0.000000
O O13 0.540500 0.594138 0.661593
O O14 0.625697 0.922593 0.072617
O O15 0.000000 0.500000 0.913554
#
# Coordination Sequence:
#
# PCOD9546076 Si02
#       8
#    16   8  16  16   8  16   8  16
#     4  11  24  39  61  88 125 166 211 260 317 382
#     4  12  24  37  59  91 127 167 205 252 310 383
#     4  12  21  40  64  88 119 167 215 267 319 380
#     4  11  23  38  58  88 122 164 211 257 312 376
#     4  12  24  38  55  90 129 173 198 245 309 384
#     4  11  22  38  61  91 124 162 208 256 307 374
#     4  12  27  38  62  89 132 163 213 266 315 389
#     4  12  22  40  61  90 119 161 214 272 325 374
#
# _framework density 18.577176000000001
#
# number of rings (size 3 to 8) (size 9 to 14) (size 15 to 20)
#    0.000    0.462    6.154    3.462    0.000    0.615 
#    0.000    0.000    0.000    0.000    0.000    0.000 
#    0.000    1.231    0.000    0.000    0.000    0.308 
#
# Total GULP energy -289658.150267 kJ/mol
# GULP energy per Si atom -5570.349044 kJ/mol
# Density = 1.853489 g / cm^3
# Si number density = 18.577176 Si / 1000 Ang^3
#
#
#
# Elastic Constant Matrix: (Units=GPa)
#
#
# Indices 1 2 3 4 5 6 
#
# 1 84.2272 31.6380 35.2673 0.0000 0.0000 -8.9874
# 2 31.6380 84.2272 35.2673 0.0000 0.0000 8.9874
# 3 35.2673 35.2673 83.1061 0.0000 0.0000 0.0000
# 4 0.0000 0.0000 0.0000 9.4132 0.0000 0.0000
# 5 0.0000 0.0000 0.0000 0.0000 9.4132 0.0000
# 6 -8.9874 8.9874 0.0000 0.0000 0.0000 55.4711
#
#
#
# Elastic Compliance Matrix: (Units=1/GPa)
#
#
# Indices 1 2 3 4 5 6 
#
# 1 0.015884 -0.004247 -0.004938 0.000000 0.000000 0.003261
# 2 -0.004247 0.015884 -0.004938 0.000000 0.000000 -0.003261
# 3 -0.004938 -0.004938 0.016224 0.000000 0.000000 0.000000
# 4 0.000000 0.000000 0.000000 0.106233 0.000000 0.000000
# 5 0.000000 0.000000 0.000000 0.000000 0.106233 0.000000
# 6 0.003261 -0.003261 0.000000 0.000000 0.000000 0.019084
#
#
# Mechanical properties :
#
#
# Convention : Reuss Voigt Hill
#
# Bulk Modulus (GPa) = 50.64628 50.65620 50.65124
# Shear Modulus (GPa) = 15.90481 24.81870 20.36175
#
# Velocity S-wave (km/s) = 2.92917 3.65907 3.31428
# Velocity P-wave (km/s) = 6.22591 6.72152 6.47846
#
# Compressibility (1/GPa) = 0.01974479
#
# Stress axis : x y z
#
# Youngs Moduli (GPa) = 62.95824 62.95824 61.63659
#
# Poissons Ratio (x) = 0.26735 0.30438
# Poissons Ratio (y) = 0.26735 0.30438
# Poissons Ratio (z) = 0.31091 0.31091
#
# Static dielectric constant tensor:
#      x y z
#    x 1.704980 0.000000 0.000000 
#    y 0.000000 1.704980 0.000000 
#    z 0.000000 0.000000 1.646620 
# 
# From -- ./inp_files/4569.got.cif
#   From: 2010.05.17/outbox.cif.g08.bks.cpg/sg87_3_cif.got.tgz:4569.got - 2010.06.03 19:07:00.
