data_PCOD9546115
_publ_section_title
;
Structure prediction by ZEFSAII (Michael W. Deem and Ramdas Pophale) SiO2 
 PCOD9546115
Probable space group: I 4/M
;
_chemical_formula_sum "Si O2"
_cell_formula_units_Z 34
_cell_length_a 10.569095
_cell_length_b 10.569095
_cell_length_c 11.173447
_cell_angle_alpha 90.000000
_cell_angle_beta 90.000000
_cell_angle_gamma 90.000000
_cell_volume 1248.138491
_symmetry_space_group_name_H-M "I 4/M"
_symmetry_group_IT_number 87
_symmetry_cell_setting 'tetragonal'
loop_
_space_group_symop_operation_xyz
x,y,z
-y,x,z
-x,-y,z
y,-x,z
-x,-y,-z
y,-x,-z
x,y,-z
-y,x,-z
1/2+x,1/2+y,1/2+z
1/2-y,1/2+x,1/2+z
1/2-x,1/2-y,1/2+z
1/2+y,1/2-x,1/2+z
1/2-x,1/2-y,1/2-z
1/2+y,1/2-x,1/2-z
1/2+x,1/2+y,1/2-z
1/2-y,1/2+x,1/2-z
loop_
_atom_site_type_symbol
_atom_site_label
_atom_site_fract_x
_atom_site_fract_y
_atom_site_fract_z
Si Si1 0.548309 0.291350 0.265386
Si Si2 0.988041 0.348067 0.000000
Si Si3 0.500000 0.500000 0.000000
Si Si4 0.889734 0.253735 0.500000
O O1 0.644237 0.409957 0.269006
O O2 0.572485 0.201507 0.377728
O O3 0.561284 0.225840 0.136792
O O4 0.000000 0.500000 0.000000
O O5 0.130635 0.290600 0.000000
O O6 0.380684 0.600001 0.000000
#
# Coordination Sequence:
#
# PCOD9546115 Si02
#       4
#    16   8   2   8
#     4  11  23  51  83 109 143 199 259 311 370 451
#     4  12  32  44  66 114 158 195 245 314 379 438
#     4  12  20  52  72 118 144 192 264 294 380 444
#     4  12  24  45  81 110 149 196 246 317 371 453
#
# _framework density 27.240568
#
# number of rings (size 3 to 8) (size 9 to 14) (size 15 to 20)
#    0.000    0.471    4.706    1.412    6.588    7.529 
#    0.000    0.000    0.000    0.000    0.000    0.000 
#    0.000    0.000    0.000    0.000    0.000    0.000 
#
# Total GULP energy -94705.219577 kJ/mol
# GULP energy per Si atom -5570.895269 kJ/mol
# Density = 2.717857 g / cm^3
# Si number density = 27.240568 Si / 1000 Ang^3
#
#
#
# Elastic Constant Matrix: (Units=GPa)
#
#
# Indices 1 2 3 4 5 6 
#
# 1 82.2888 -47.2267 45.9005 0.0000 0.0000 3.2754
# 2 -47.2267 82.2888 45.9005 0.0000 0.0000 -3.2754
# 3 45.9005 45.9005 315.6247 0.0000 0.0000 0.0000
# 4 0.0000 0.0000 0.0000 42.8957 0.0000 0.0000
# 5 0.0000 0.0000 0.0000 0.0000 42.8957 0.0000
# 6 3.2754 -3.2754 0.0000 0.0000 0.0000 17.8192
#
#
#
# Elastic Compliance Matrix: (Units=1/GPa)
#
#
# Indices 1 2 3 4 5 6 
#
# 1 0.026926 0.019132 -0.006698 0.000000 0.000000 -0.001433
# 2 0.019132 0.026926 -0.006698 0.000000 0.000000 0.001433
# 3 -0.006698 -0.006698 0.005117 0.000000 0.000000 0.000000
# 4 0.000000 0.000000 0.000000 0.023312 0.000000 0.000000
# 5 0.000000 0.000000 0.000000 0.000000 0.023312 0.000000
# 6 -0.001433 0.001433 0.000000 0.000000 0.000000 0.056646
#
#
# Mechanical properties :
#
#
# Convention : Reuss Voigt Hill
#
# Bulk Modulus (GPa) = 14.19639 63.26122 38.72880
# Shear Modulus (GPa) = 28.69491 49.76400 39.22945
#
# Velocity S-wave (km/s) = 3.24912 4.27878 3.79900
# Velocity P-wave (km/s) = 4.39300 6.90538 5.78717
#
# Compressibility (1/GPa) = 0.07044045
#
# Stress axis : x y z
#
# Youngs Moduli (GPa) = 37.13897 37.13897 195.44580
#
# Poissons Ratio (x) = -0.71056 1.30912
# Poissons Ratio (y) = -0.71056 1.30912
# Poissons Ratio (z) = 0.24876 0.24876
#
# Static dielectric constant tensor:
#      x y z
#    x 2.326160 0.000000 0.000000 
#    y 0.000000 2.326160 0.000000 
#    z 0.000000 0.000000 2.090570 
# 
# From -- ./inp_files/1893.got.cif
#   From: 2010.05.17/outbox.cif.g08.bks.cpg/sg87_1_cif.got.tgz:1893.got - 2010.06.03 19:07:00.
