data_PCOD9546418
_publ_section_title
;
Structure prediction by ZEFSAII (Michael W. Deem and Ramdas Pophale) SiO2 
 PCOD9546418
Probable space group: I 41/A
;
_chemical_formula_sum "Si O2"
_cell_formula_units_Z 116
_cell_length_a 17.520682
_cell_length_b 17.520682
_cell_length_c 18.642066
_cell_angle_alpha 90.000000
_cell_angle_beta 90.000000
_cell_angle_gamma 90.000000
_cell_volume 5722.635119
_symmetry_space_group_name_H-M "I 41/A"
_symmetry_group_IT_number 88
_space_group.IT_coordinate_system_code '2'
_symmetry_cell_setting 'tetragonal'
loop_
_space_group_symop_operation_xyz
x,y,z
3/4-y,1/4+x,1/4+z
-x,1/2-y,z
1/4+y,1/4-x,1/4+z
-x,-y,-z
1/4+y,3/4-x,3/4-z
x,1/2+y,-z
3/4-y,3/4+x,3/4-z
1/2+x,1/2+y,1/2+z
1/4-y,3/4+x,3/4+z
1/2-x,-y,1/2+z
3/4+y,3/4-x,3/4+z
1/2-x,1/2-y,1/2-z
3/4+y,1/4-x,1/4-z
1/2+x,y,1/2-z
1/4-y,1/4+x,1/4-z
loop_
_atom_site_type_symbol
_atom_site_label
_atom_site_fract_x
_atom_site_fract_y
_atom_site_fract_z
Si Si1 0.000000 0.250000 0.625000
Si Si2 0.326051 0.136366 0.618337
Si Si3 0.604146 0.081461 0.970073
Si Si4 0.247073 0.782380 0.414158
Si Si5 0.999933 0.163076 0.907830
Si Si6 0.255170 0.484362 0.430835
Si Si7 0.328353 0.604837 0.812589
Si Si8 0.391850 0.236283 0.991703
O O1 0.953551 0.300848 0.681959
O O2 0.319683 0.170620 0.698233
O O3 0.276793 0.197068 0.574506
O O4 0.412821 0.136323 0.592695
O O5 0.296062 0.050786 0.614972
O O6 0.614537 0.173746 0.969248
O O7 0.547824 0.050455 0.908755
O O8 0.680703 0.030512 0.959881
O O9 0.315983 0.840949 0.416748
O O10 0.189005 0.801757 0.478039
O O11 0.056897 0.102468 0.944118
O O12 0.000000 0.250000 0.936383
O O13 0.022882 0.166942 0.823052
O O14 0.227531 0.417138 0.378139
O O15 0.311591 0.454826 0.492885
#
# Coordination Sequence:
#
# PCOD9546418 Si02
#       8
#     4  16  16  16  16  16  16  16
#     4  12  20  32  52  88 140 172 208 230 288 384
#     4  11  22  39  62  86 119 166 208 252 313 371
#     4  10  21  35  55  87 125 161 204 240 300 366
#     4  11  21  35  58  87 127 166 202 249 301 373
#     4  11  23  41  60  87 124 164 211 261 316 374
#     4  11  22  41  64  89 122 160 206 261 312 373
#     4  11  24  42  62  92 122 161 211 266 317 376
#     4  11  21  34  55  88 126 173 201 243 294 374
#
# _framework density 20.270381
#
# number of rings (size 3 to 8) (size 9 to 14) (size 15 to 20)
#    0.000    1.103    6.207    1.241    0.000    0.552 
#    4.966    0.000    0.000    0.000    0.000    0.000 
#    0.000    0.000    0.000    0.000    0.000    0.000 
#
# Total GULP energy -323555.981037 kJ/mol
# GULP energy per Si atom -5578.551397 kJ/mol
# Density = 2.022425 g / cm^3
# Si number density = 20.270381 Si / 1000 Ang^3
#
#
#
# Elastic Constant Matrix: (Units=GPa)
#
#
# Indices 1 2 3 4 5 6 
#
# 1 73.6390 31.8402 15.5684 0.0000 0.0000 -2.1938
# 2 31.8402 73.6390 15.5685 0.0000 0.0000 2.1938
# 3 15.5684 15.5685 53.1210 0.0000 0.0000 0.0000
# 4 0.0000 0.0000 0.0000 22.1555 0.0000 0.0000
# 5 0.0000 0.0000 0.0000 0.0000 22.1555 0.0000
# 6 -2.1938 2.1938 0.0000 0.0000 0.0000 35.0638
#
#
#
# Elastic Compliance Matrix: (Units=1/GPa)
#
#
# Indices 1 2 3 4 5 6 
#
# 1 0.017230 -0.006852 -0.003042 0.000000 0.000000 0.001507
# 2 -0.006852 0.017230 -0.003042 0.000000 0.000000 -0.001507
# 3 -0.003042 -0.003042 0.020608 0.000000 0.000000 0.000000
# 4 0.000000 0.000000 0.000000 0.045136 0.000000 0.000000
# 5 0.000000 0.000000 0.000000 0.000000 0.045136 0.000000
# 6 0.001507 -0.001507 0.000000 0.000000 0.000000 0.028708
#
#
# Mechanical properties :
#
#
# Convention : Reuss Voigt Hill
#
# Bulk Modulus (GPa) = 34.24889 36.26148 35.25519
# Shear Modulus (GPa) = 23.84918 25.03641 24.44280
#
# Velocity S-wave (km/s) = 3.43381 3.51824 3.47629
# Velocity P-wave (km/s) = 5.71438 5.86786 5.79163
#
# Compressibility (1/GPa) = 0.02919802
#
# Stress axis : x y z
#
# Youngs Moduli (GPa) = 58.03710 58.03710 48.52526
#
# Poissons Ratio (x) = 0.39767 0.14760
# Poissons Ratio (y) = 0.39767 0.14760
# Poissons Ratio (z) = 0.17653 0.17653
#
# Static dielectric constant tensor:
#      x y z
#    x 1.749640 0.000000 0.000000 
#    y 0.000000 1.749640 0.000000 
#    z 0.000000 0.000000 1.712150 
# 
# From -- ./inp_files/4030.got.cif
#   From: 2010.05.17/outbox.cif.g08.bks.cpg/sg88_3_cif.got.tgz:4030.got - 2010.06.03 19:11:41.
