data_PCOD9546750
_publ_section_title
;
Structure prediction by ZEFSAII (Michael W. Deem and Ramdas Pophale) SiO2 
 PCOD9546750
Probable space group: I 41/A
;
_chemical_formula_sum "Si O2"
_cell_formula_units_Z 96
_cell_length_a 14.239194
_cell_length_b 14.239194
_cell_length_c 20.981036
_cell_angle_alpha 90.000000
_cell_angle_beta 90.000000
_cell_angle_gamma 90.000000
_cell_volume 4254.002522
_symmetry_space_group_name_H-M "I 41/A"
_symmetry_group_IT_number 88
_space_group.IT_coordinate_system_code '2'
_symmetry_cell_setting 'tetragonal'
loop_
_space_group_symop_operation_xyz
x,y,z
3/4-y,1/4+x,1/4+z
-x,1/2-y,z
1/4+y,1/4-x,1/4+z
-x,-y,-z
1/4+y,3/4-x,3/4-z
x,1/2+y,-z
3/4-y,3/4+x,3/4-z
1/2+x,1/2+y,1/2+z
1/4-y,3/4+x,3/4+z
1/2-x,-y,1/2+z
3/4+y,3/4-x,3/4+z
1/2-x,1/2-y,1/2-z
3/4+y,1/4-x,1/4-z
1/2+x,y,1/2-z
1/4-y,1/4+x,1/4-z
loop_
_atom_site_type_symbol
_atom_site_label
_atom_site_fract_x
_atom_site_fract_y
_atom_site_fract_z
Si Si1 0.625902 0.304323 0.847067
Si Si2 0.099960 0.196967 0.231447
Si Si3 0.392930 0.213709 0.708270
Si Si4 0.578488 0.449603 0.157342
Si Si5 0.029314 0.540936 0.085265
Si Si6 0.742357 0.208726 0.030381
O O1 0.609913 0.221044 0.898180
O O2 0.642916 0.256801 0.778692
O O3 0.709643 0.368360 0.871303
O O4 0.134885 0.205660 0.304790
O O5 0.188408 0.240320 0.193889
O O6 0.094532 0.090173 0.208597
O O7 0.000000 0.250000 0.223534
O O8 0.500000 0.250000 0.704529
O O9 0.343195 0.258836 0.647044
O O10 0.393956 0.100471 0.717621
O O11 0.658160 0.377610 0.179237
O O12 0.519955 0.482078 0.218622
O O13 0.025805 0.529121 0.160347
#
# Coordination Sequence:
#
# PCOD9546750 Si02
#       6
#    16  16  16  16  16  16
#     4  11  22  43  70 100 144 196 251 311 384 457
#     4  11  26  50  74 106 153 194 252 311 375 454
#     4  12  23  45  71 101 146 198 240 312 387 440
#     4  12  25  45  72 108 148 193 258 313 376 470
#     4  11  27  47  76 108 148 203 245 311 387 450
#     4  12  25  43  75 105 140 194 249 305 374 459
#
# _framework density 22.566981999999999
#
# number of rings (size 3 to 8) (size 9 to 14) (size 15 to 20)
#    0.000    0.500    6.667    1.500    2.333    1.333 
#    6.000    0.000    0.000    0.000    0.000    0.000 
#    0.000    0.000    0.000    0.000    0.000    0.000 
#
# Total GULP energy -267801.648145 kJ/mol
# GULP energy per Si atom -5579.201003 kJ/mol
# Density = 2.251562 g / cm^3
# Si number density = 22.566982 Si / 1000 Ang^3
#
#
#
# Elastic Constant Matrix: (Units=GPa)
#
#
# Indices 1 2 3 4 5 6 
#
# 1 93.9811 23.0395 9.5125 0.0000 0.0000 -1.6171
# 2 23.0395 93.9811 9.5125 0.0000 0.0000 1.6171
# 3 9.5125 9.5125 119.7226 0.0000 0.0000 0.0000
# 4 0.0000 0.0000 0.0000 29.5106 0.0000 0.0000
# 5 0.0000 0.0000 0.0000 0.0000 29.5106 0.0000
# 6 -1.6171 1.6171 0.0000 0.0000 0.0000 29.8926
#
#
#
# Elastic Compliance Matrix: (Units=1/GPa)
#
#
# Indices 1 2 3 4 5 6 
#
# 1 0.011394 -0.002737 -0.000688 0.000000 0.000000 0.000764
# 2 -0.002737 0.011394 -0.000688 0.000000 0.000000 -0.000764
# 3 -0.000688 -0.000688 0.008462 0.000000 0.000000 0.000000
# 4 0.000000 0.000000 0.000000 0.033886 0.000000 0.000000
# 5 0.000000 0.000000 0.000000 0.000000 0.033886 0.000000
# 6 0.000764 -0.000764 0.000000 0.000000 0.000000 0.033536
#
#
# Mechanical properties :
#
#
# Convention : Reuss Voigt Hill
#
# Bulk Modulus (GPa) = 43.43074 43.53486 43.48280
# Shear Modulus (GPa) = 33.67948 35.49080 34.58514
#
# Velocity S-wave (km/s) = 3.86738 3.97001 3.91903
# Velocity P-wave (km/s) = 6.26332 6.35200 6.30782
#
# Compressibility (1/GPa) = 0.02302517
#
# Stress axis : x y z
#
# Youngs Moduli (GPa) = 87.76443 87.76443 118.17607
#
# Poissons Ratio (x) = 0.24019 0.08129
# Poissons Ratio (y) = 0.24019 0.08129
# Poissons Ratio (z) = 0.06037 0.06037
#
# Static dielectric constant tensor:
#      x y z
#    x 1.871240 0.000000 0.000000 
#    y 0.000000 1.871240 0.000000 
#    z 0.000000 0.000000 1.914280 
# 
# From -- ./inp_files/4697.got.cif
#   From: 2010.05.17/outbox.cif.g08.bks.cpg/sg88_3_cif.got.tgz:4697.got - 2010.06.03 19:11:41.
