data_PCOD9546630
_publ_section_title
;
Structure prediction by ZEFSAII (Michael W. Deem and Ramdas Pophale) SiO2 
 PCOD9546630
Probable space group: I 41/A
;
_chemical_formula_sum "Si O2"
_cell_formula_units_Z 96
_cell_length_a 23.083514
_cell_length_b 23.083514
_cell_length_c 7.557882
_cell_angle_alpha 90.000000
_cell_angle_beta 90.000000
_cell_angle_gamma 90.000000
_cell_volume 4027.206983
_symmetry_space_group_name_H-M "I 41/A"
_symmetry_group_IT_number 88
_space_group.IT_coordinate_system_code '2'
_symmetry_cell_setting 'tetragonal'
loop_
_space_group_symop_operation_xyz
x,y,z
3/4-y,1/4+x,1/4+z
-x,1/2-y,z
1/4+y,1/4-x,1/4+z
-x,-y,-z
1/4+y,3/4-x,3/4-z
x,1/2+y,-z
3/4-y,3/4+x,3/4-z
1/2+x,1/2+y,1/2+z
1/4-y,3/4+x,3/4+z
1/2-x,-y,1/2+z
3/4+y,3/4-x,3/4+z
1/2-x,1/2-y,1/2-z
3/4+y,1/4-x,1/4-z
1/2+x,y,1/2-z
1/4-y,1/4+x,1/4-z
loop_
_atom_site_type_symbol
_atom_site_label
_atom_site_fract_x
_atom_site_fract_y
_atom_site_fract_z
Si Si1 0.095199 0.490666 0.006752
Si Si2 0.577724 0.282546 0.809257
Si Si3 0.186921 0.337751 0.588925
Si Si4 0.868953 0.654044 0.750933
Si Si5 0.311405 0.456117 0.095981
Si Si6 0.040186 0.378696 0.972513
O O1 0.099925 0.553934 0.916133
O O2 0.156931 0.459271 0.984368
O O3 0.051172 0.445527 0.917802
O O4 0.078900 0.508404 0.209039
O O5 0.556371 0.216728 0.788214
O O6 0.645378 0.284713 0.856071
O O7 0.565392 0.328751 0.654826
O O8 0.143651 0.369366 0.446696
O O9 0.198977 0.375993 0.758551
O O10 0.880442 0.722764 0.749104
O O11 0.921477 0.625428 0.851066
O O12 0.302149 0.517705 0.182949
#
# Coordination Sequence:
#
# PCOD9546630 Si02
#       6
#    16  16  16  16  16  16
#     4  10  23  43  64  93 132 177 215 278 331 394
#     4  11  23  42  67  97 136 180 222 276 328 391
#     4  10  24  41  63  98 132 173 224 268 333 396
#     4  10  26  40  68  98 132 177 222 274 329 397
#     4  12  24  40  67  98 134 179 224 278 332 393
#     4  12  23  44  68  97 139 174 225 275 334 394
#
# _framework density 23.837861
#
# number of rings (size 3 to 8) (size 9 to 14) (size 15 to 20)
#    1.000    0.167    3.333    2.500    4.667    0.333 
#    0.000    0.000    0.000    5.000    0.000    0.000 
#    0.000    0.000    0.000    0.000    0.000    0.000 
#
# Total GULP energy -267715.977111 kJ/mol
# GULP energy per Si atom -5577.416190 kJ/mol
# Density = 2.378361 g / cm^3
# Si number density = 23.837861 Si / 1000 Ang^3
#
#
#
# Elastic Constant Matrix: (Units=GPa)
#
#
# Indices 1 2 3 4 5 6 
#
# 1 85.2431 24.6667 10.7075 0.0000 0.0000 -5.5556
# 2 24.6667 85.2431 10.7075 0.0000 0.0000 5.5556
# 3 10.7075 10.7075 42.5089 0.0000 0.0000 0.0000
# 4 0.0000 0.0000 0.0000 34.8918 0.0000 0.0000
# 5 0.0000 0.0000 0.0000 0.0000 34.8918 0.0000
# 6 -5.5556 5.5556 0.0000 0.0000 0.0000 26.2963
#
#
#
# Elastic Compliance Matrix: (Units=1/GPa)
#
#
# Indices 1 2 3 4 5 6 
#
# 1 0.013371 -0.003803 -0.002410 0.000000 0.000000 0.003628
# 2 -0.003803 0.013371 -0.002410 0.000000 0.000000 -0.003628
# 3 -0.002410 -0.002410 0.024739 0.000000 0.000000 0.000000
# 4 0.000000 0.000000 0.000000 0.028660 0.000000 0.000000
# 5 0.000000 0.000000 0.000000 0.000000 0.028660 0.000000
# 6 0.003628 -0.003628 0.000000 0.000000 0.000000 0.039561
#
#
# Mechanical properties :
#
#
# Convention : Reuss Voigt Hill
#
# Bulk Modulus (GPa) = 29.21047 33.90649 31.55848
# Shear Modulus (GPa) = 28.24558 30.34352 29.29455
#
# Velocity S-wave (km/s) = 3.44598 3.57166 3.50938
# Velocity P-wave (km/s) = 5.30221 5.59139 5.44872
#
# Compressibility (1/GPa) = 0.03423430
#
# Stress axis : x y z
#
# Youngs Moduli (GPa) = 74.79006 74.79006 40.42260
#
# Poissons Ratio (x) = 0.28441 0.09742
# Poissons Ratio (y) = 0.28441 0.09742
# Poissons Ratio (z) = 0.18025 0.18025
#
# Static dielectric constant tensor:
#      x y z
#    x 1.928180 0.000000 0.000000 
#    y 0.000000 1.928180 0.000000 
#    z 0.000000 0.000000 2.003610 
# 
# From -- ./inp_files/1709.got.cif
#   From: 2010.05.17/outbox.cif.g08.bks.cpg/sg88_1_cif.got.tgz:1709.got - 2010.06.03 19:11:41.
