data_PCOD9546648
_publ_section_title
;
Structure prediction by ZEFSAII (Michael W. Deem and Ramdas Pophale) SiO2 
 PCOD9546648
Probable space group: I 41/A
;
_chemical_formula_sum "Si O2"
_cell_formula_units_Z 72
_cell_length_a 17.321282
_cell_length_b 17.321282
_cell_length_c 9.878121
_cell_angle_alpha 90.000000
_cell_angle_beta 90.000000
_cell_angle_gamma 90.000000
_cell_volume 2963.701134
_symmetry_space_group_name_H-M "I 41/A"
_symmetry_group_IT_number 88
_space_group.IT_coordinate_system_code '2'
_symmetry_cell_setting 'tetragonal'
loop_
_space_group_symop_operation_xyz
x,y,z
3/4-y,1/4+x,1/4+z
-x,1/2-y,z
1/4+y,1/4-x,1/4+z
-x,-y,-z
1/4+y,3/4-x,3/4-z
x,1/2+y,-z
3/4-y,3/4+x,3/4-z
1/2+x,1/2+y,1/2+z
1/4-y,3/4+x,3/4+z
1/2-x,-y,1/2+z
3/4+y,3/4-x,3/4+z
1/2-x,1/2-y,1/2-z
3/4+y,1/4-x,1/4-z
1/2+x,y,1/2-z
1/4-y,1/4+x,1/4-z
loop_
_atom_site_type_symbol
_atom_site_label
_atom_site_fract_x
_atom_site_fract_y
_atom_site_fract_z
Si Si1 0.500000 0.250000 0.157769
Si Si2 0.249674 0.435786 0.663872
Si Si3 0.032870 0.421738 0.352267
Si Si4 0.404784 0.002224 0.723887
Si Si5 0.148196 0.676093 0.787470
O O1 0.487459 0.164258 0.092260
O O2 0.577768 0.231029 0.240281
O O3 0.292314 0.497151 0.757611
O O4 0.295533 0.357721 0.672566
O O5 0.163073 0.441475 0.722828
O O6 0.050401 0.413769 0.190940
O O7 0.968901 0.488845 0.339492
O O8 0.432254 0.036857 0.580273
O O9 0.374566 0.914382 0.709944
#
# Coordination Sequence:
#
# PCOD9546648 Si02
#       5
#     8  16  16  16  16
#     4  10  23  46  68 105 144 185 246 299 348 423
#     4  12  27  46  71 109 147 184 240 292 362 427
#     4  11  25  41  75 101 142 189 238 291 361 422
#     4  11  24  44  67 103 144 181 235 301 351 419
#     4  11  22  41  71 104 139 186 238 297 354 427
#
# _framework density 24.293946999999999
#
# number of rings (size 3 to 8) (size 9 to 14) (size 15 to 20)
#    0.000    0.889    2.222    5.333    6.222    0.889 
#    0.000    0.000    0.000    1.333    0.000    0.000 
#    0.000    0.000    0.000    0.000    0.000    0.000 
#
# Total GULP energy -201118.730541 kJ/mol
# GULP energy per Si atom -5586.631404 kJ/mol
# Density = 2.423865 g / cm^3
# Si number density = 24.293947 Si / 1000 Ang^3
#
#
#
# Elastic Constant Matrix: (Units=GPa)
#
#
# Indices 1 2 3 4 5 6 
#
# 1 90.6705 68.4738 29.9339 0.0000 0.0000 -2.5105
# 2 68.4738 90.6705 29.9339 0.0000 0.0000 2.5105
# 3 29.9339 29.9339 52.5344 0.0000 0.0000 0.0000
# 4 0.0000 0.0000 0.0000 33.1079 0.0000 0.0000
# 5 0.0000 0.0000 0.0000 0.0000 33.1079 0.0000
# 6 -2.5105 2.5105 0.0000 0.0000 0.0000 49.0076
#
#
#
# Elastic Compliance Matrix: (Units=1/GPa)
#
#
# Indices 1 2 3 4 5 6 
#
# 1 0.026789 -0.018791 -0.004557 0.000000 0.000000 0.002335
# 2 -0.018791 0.026789 -0.004557 0.000000 0.000000 -0.002335
# 3 -0.004557 -0.004557 0.024228 0.000000 0.000000 0.000000
# 4 0.000000 0.000000 0.000000 0.030204 0.000000 0.000000
# 5 0.000000 0.000000 0.000000 0.000000 0.030204 0.000000
# 6 0.002335 -0.002335 0.000000 0.000000 0.000000 0.020644
#
#
# Mechanical properties :
#
#
# Convention : Reuss Voigt Hill
#
# Bulk Modulus (GPa) = 45.46366 54.50652 49.98509
# Shear Modulus (GPa) = 22.52233 30.08027 26.30130
#
# Velocity S-wave (km/s) = 3.04810 3.52260 3.29390
# Velocity P-wave (km/s) = 5.58054 6.24739 5.92336
#
# Compressibility (1/GPa) = 0.02199559
#
# Stress axis : x y z
#
# Youngs Moduli (GPa) = 37.32879 37.32879 41.27373
#
# Poissons Ratio (x) = 0.70145 0.18809
# Poissons Ratio (y) = 0.70145 0.18809
# Poissons Ratio (z) = 0.17011 0.17011
#
# Static dielectric constant tensor:
#      x y z
#    x 2.006410 0.000000 0.000000 
#    y 0.000000 2.006410 0.000000 
#    z 0.000000 0.000000 1.931730 
# 
# From -- ./inp_files/2406.got.cif
#   From: 2010.05.17/outbox.cif.g08.bks.cpg/sg88_2_cif.got.tgz:2406.got - 2010.06.03 19:11:41.
