data_PCOD9546009
_publ_section_title
;
Structure prediction by ZEFSAII (Michael W. Deem and Ramdas Pophale) SiO2 
 PCOD9546009
Probable space group: I 4/M
;
_chemical_formula_sum "Si O2"
_cell_formula_units_Z 112
_cell_length_a 15.634376
_cell_length_b 15.634376
_cell_length_c 27.733294
_cell_angle_alpha 90.000000
_cell_angle_beta 90.000000
_cell_angle_gamma 90.000000
_cell_volume 6778.952024
_symmetry_space_group_name_H-M "I 4/M"
_symmetry_group_IT_number 87
_symmetry_cell_setting 'tetragonal'
loop_
_space_group_symop_operation_xyz
x,y,z
-y,x,z
-x,-y,z
y,-x,z
-x,-y,-z
y,-x,-z
x,y,-z
-y,x,-z
1/2+x,1/2+y,1/2+z
1/2-y,1/2+x,1/2+z
1/2-x,1/2-y,1/2+z
1/2+y,1/2-x,1/2+z
1/2-x,1/2-y,1/2-z
1/2+y,1/2-x,1/2-z
1/2+x,1/2+y,1/2-z
1/2-y,1/2+x,1/2-z
loop_
_atom_site_type_symbol
_atom_site_label
_atom_site_fract_x
_atom_site_fract_y
_atom_site_fract_z
Si Si1 0.129017 0.346349 0.741214
Si Si2 0.768228 0.618872 0.870890
Si Si3 0.098593 0.480791 0.174104
Si Si4 0.547886 0.369585 0.201363
Si Si5 0.228795 0.871619 0.825977
Si Si6 0.428868 0.622283 0.057684
Si Si7 0.062123 0.792609 0.195430
O O1 0.097247 0.406792 0.785015
O O2 0.057197 0.350260 0.700275
O O3 0.144035 0.257527 0.769482
O O4 0.210711 0.389048 0.717087
O O5 0.847396 0.552718 0.871068
O O6 0.711448 0.587576 0.825359
O O7 0.813275 0.708524 0.858034
O O8 0.702121 0.612418 0.914644
O O9 0.000000 0.500000 0.163444
O O10 0.605675 0.451146 0.187949
O O11 0.542705 0.351254 0.258180
O O12 0.132352 0.842684 0.835036
O O13 0.233907 0.974277 0.830282
O O14 0.386922 0.530084 0.069984
O O15 0.422765 0.632044 0.000000
#
# Coordination Sequence:
#
# PCOD9546009 Si02
#       7
#    16  16  16  16  16  16  16
#     4  11  17  31  43  62  90 134 186 219 255 292
#     4  11  22  34  50  79 103 129 176 219 259 314
#     4  11  18  29  46  66 101 144 179 218 252 294
#     4  11  21  32  47  69  99 136 177 218 262 296
#     4  11  23  32  45  67  95 139 184 223 260 298
#     4   9  19  39  65  88 109 130 153 198 271 340
#     4  12  21  32  45  62  96 143 184 223 256 289
#
# _framework density 16.521728
#
# number of rings (size 3 to 8) (size 9 to 14) (size 15 to 20)
#    0.000    1.143    7.143    2.571    0.000    2.571 
#    0.000    0.000    0.000    0.429    0.000    1.000 
#    0.000    0.000    0.000    1.286    0.000    0.000 
#
# Total GULP energy -312378.677267 kJ/mol
# GULP energy per Si atom -5578.190665 kJ/mol
# Density = 1.648412 g / cm^3
# Si number density = 16.521728 Si / 1000 Ang^3
#
#
#
# Elastic Constant Matrix: (Units=GPa)
#
#
# Indices 1 2 3 4 5 6 
#
# 1 93.6996 37.0838 18.1785 0.0000 0.0000 7.6321
# 2 37.0838 93.6996 18.1785 0.0000 0.0000 -7.6321
# 3 18.1785 18.1785 40.6118 0.0000 0.0000 0.0000
# 4 0.0000 0.0000 0.0000 17.9831 0.0000 0.0000
# 5 0.0000 0.0000 0.0000 0.0000 17.9831 0.0000
# 6 7.6321 -7.6321 0.0000 0.0000 0.0000 26.7799
#
#
#
# Elastic Compliance Matrix: (Units=1/GPa)
#
#
# Indices 1 2 3 4 5 6 
#
# 1 0.013933 -0.005200 -0.003909 0.000000 0.000000 -0.005453
# 2 -0.005200 0.013933 -0.003909 0.000000 0.000000 0.005453
# 3 -0.003909 -0.003909 0.028123 0.000000 0.000000 0.000000
# 4 0.000000 0.000000 0.000000 0.055608 0.000000 0.000000
# 5 0.000000 0.000000 0.000000 0.000000 0.055608 0.000000
# 6 -0.005453 0.005453 0.000000 0.000000 0.000000 0.040450
#
#
# Mechanical properties :
#
#
# Convention : Reuss Voigt Hill
#
# Bulk Modulus (GPa) = 33.38598 41.65475 37.52036
# Shear Modulus (GPa) = 20.51921 22.85390 21.68656
#
# Velocity S-wave (km/s) = 3.52796 3.72326 3.62692
# Velocity P-wave (km/s) = 6.07013 6.61441 6.34811
#
# Compressibility (1/GPa) = 0.02995270
#
# Stress axis : x y z
#
# Youngs Moduli (GPa) = 71.77214 71.77214 35.55823
#
# Poissons Ratio (x) = 0.37322 0.13900
# Poissons Ratio (y) = 0.37322 0.13900
# Poissons Ratio (z) = 0.28056 0.28056
#
# Static dielectric constant tensor:
#      x y z
#    x 1.615660 0.000000 0.000000 
#    y 0.000000 1.615660 0.000000 
#    z 0.000000 0.000000 1.531350 
# 
# From -- ./inp_files/6718.got.cif
#   From: 2010.05.17/outbox.cif.g08.bks.cpg/sg87_4_cif.got.tgz:6718.got - 2010.06.03 19:07:00.
