data_PCOD9546943
_publ_section_title
;
Structure prediction by ZEFSAII (Michael W. Deem and Ramdas Pophale) SiO2 
 PCOD9546943
Probable space group: P 4 2 2
;
_chemical_formula_sum "Si O2"
_cell_formula_units_Z 56
_cell_length_a 14.629328
_cell_length_b 14.629328
_cell_length_c 12.119510
_cell_angle_alpha 90.000000
_cell_angle_beta 90.000000
_cell_angle_gamma 90.000000
_cell_volume 2593.784053
_symmetry_space_group_name_H-M "P 4 2 2"
_symmetry_group_IT_number 89
_symmetry_cell_setting 'tetragonal'
loop_
_space_group_symop_operation_xyz
x,y,z
-y,x,z
-x,-y,z
y,-x,z
x,-y,-z
-x,y,-z
y,x,-z
-y,-x,-z
loop_
_atom_site_type_symbol
_atom_site_label
_atom_site_fract_x
_atom_site_fract_y
_atom_site_fract_z
Si Si1 0.109122 0.400848 0.528241
Si Si2 0.132051 0.222649 0.400254
Si Si3 0.637195 0.866653 0.088514
Si Si4 0.595193 0.385546 0.630400
Si Si5 0.721952 0.727594 0.773037
Si Si6 0.678062 0.981603 0.276985
Si Si7 0.425273 0.866574 0.157274
O O1 0.147994 0.500000 0.500000
O O2 0.153829 0.320022 0.458876
O O3 0.099748 0.367616 0.653245
O O4 0.000000 0.403208 0.500000
O O5 0.150684 0.150684 0.500000
O O6 0.198798 0.216870 0.295016
O O7 0.031056 0.241508 0.347236
O O8 0.686504 0.772599 0.121114
O O9 0.696290 0.940322 0.157034
O O10 0.532988 0.864430 0.135821
O O11 0.622477 0.887830 0.960614
O O12 0.623338 0.488807 0.660267
O O13 0.613952 0.386049 0.500000
O O14 0.648837 0.306339 0.689647
O O15 0.626677 0.775782 0.805261
O O16 0.602610 0.059185 0.249316
#
# Coordination Sequence:
#
# PCOD9546943 Si02
#       7
#     8   8   8   8   8   8   8
#     4   9  19  32  53  82 112 148 192 235 280 357
#     4  10  21  36  48  81 118 150 188 233 288 354
#     4  11  22  37  57  82 111 156 203 249 308 363
#     4   9  18  33  50  71 102 146 202 254 299 357
#     4  11  21  35  54  76 113 154 194 243 311 363
#     4  10  21  35  59  79 112 153 190 239 298 359
#     4  10  23  37  56  82 115 148 203 262 300 357
#
# _framework density 21.590077000000001
#
# number of rings (size 3 to 8) (size 9 to 14) (size 15 to 20)
#    0.000    2.000    0.000    3.857   10.000    1.143 
#    5.143    0.000    3.143    0.000    0.000    6.000 
#    0.000  282.571    0.000   69.143    0.000    0.000 
#
# Total GULP energy -312511.070329 kJ/mol
# GULP energy per Si atom -5580.554827 kJ/mol
# Density = 2.154094 g / cm^3
# Si number density = 21.590077 Si / 1000 Ang^3
#
#
#
# Elastic Constant Matrix: (Units=GPa)
#
#
# Indices 1 2 3 4 5 6 
#
# 1 53.7979 40.8875 25.8714 0.0000 0.0000 0.0000
# 2 40.8875 53.7978 25.8719 0.0000 0.0000 0.0000
# 3 25.8714 25.8719 110.9264 0.0000 0.0000 0.0000
# 4 0.0000 0.0000 0.0000 36.2269 0.0000 0.0000
# 5 0.0000 0.0000 0.0000 0.0000 36.2268 0.0000
# 6 0.0000 0.0000 0.0000 0.0000 0.0000 27.7624
#
#
#
# Elastic Compliance Matrix: (Units=1/GPa)
#
#
# Indices 1 2 3 4 5 6 
#
# 1 0.044780 -0.032676 -0.002823 0.000000 0.000000 0.000000
# 2 -0.032676 0.044781 -0.002823 0.000000 0.000000 0.000000
# 3 -0.002823 -0.002823 0.010332 0.000000 0.000000 0.000000
# 4 0.000000 0.000000 0.000000 0.027604 0.000000 0.000000
# 5 0.000000 0.000000 0.000000 0.000000 0.027604 0.000000
# 6 0.000000 0.000000 0.000000 0.000000 0.000000 0.036020
#
#
# Mechanical properties :
#
#
# Convention : Reuss Voigt Hill
#
# Bulk Modulus (GPa) = 43.01503 44.86485 43.93994
# Shear Modulus (GPa) = 18.14785 28.43598 23.29192
#
# Velocity S-wave (km/s) = 2.90239 3.63310 3.28811
# Velocity P-wave (km/s) = 5.58557 6.19877 5.90014
#
# Compressibility (1/GPa) = 0.02324769
#
# Stress axis : x y z
#
# Youngs Moduli (GPa) = 22.33124 22.33107 96.78812
#
# Poissons Ratio (x) = 0.72970 0.27321
# Poissons Ratio (y) = 0.72971 0.27326
# Poissons Ratio (z) = 0.06304 0.06305
#
# Static dielectric constant tensor:
#      x y z
#    x 1.817540 0.000000 0.000000 
#    y 0.000000 1.817540 0.000000 
#    z 0.000000 0.000000 1.841020 
# 
# From -- ./inp_files/1871.got.cif
#   From: 2010.05.17/outbox.cif.g08.bks.cpg/sg89_1_cif.got.tgz:1871.got - 2010.06.03 19:15:31.
