data_PCOD9546147
_publ_section_title
;
Structure prediction by ZEFSAII (Michael W. Deem and Ramdas Pophale) SiO2 
 PCOD9546147
Probable space group: I 4/M
;
_chemical_formula_sum "Si O2"
_cell_formula_units_Z 64
_cell_length_a 10.143417
_cell_length_b 10.143417
_cell_length_c 25.269827
_cell_angle_alpha 90.000000
_cell_angle_beta 90.000000
_cell_angle_gamma 90.000000
_cell_volume 2599.984916
_symmetry_space_group_name_H-M "I 4/M"
_symmetry_group_IT_number 87
_symmetry_cell_setting 'tetragonal'
loop_
_space_group_symop_operation_xyz
x,y,z
-y,x,z
-x,-y,z
y,-x,z
-x,-y,-z
y,-x,-z
x,y,-z
-y,x,-z
1/2+x,1/2+y,1/2+z
1/2-y,1/2+x,1/2+z
1/2-x,1/2-y,1/2+z
1/2+y,1/2-x,1/2+z
1/2-x,1/2-y,1/2-z
1/2+y,1/2-x,1/2-z
1/2+x,1/2+y,1/2-z
1/2-y,1/2+x,1/2-z
loop_
_atom_site_type_symbol
_atom_site_label
_atom_site_fract_x
_atom_site_fract_y
_atom_site_fract_z
Si Si1 0.205728 0.913700 0.608498
Si Si2 0.543170 0.717852 0.662223
Si Si3 0.055892 0.216939 0.724947
Si Si4 0.846995 0.533174 0.557058
O O1 0.310997 0.850918 0.569419
O O2 0.067407 0.835981 0.603112
O O3 0.273528 0.913547 0.667281
O O4 0.401311 0.646822 0.662475
O O5 0.566769 0.790161 0.718696
O O6 0.546225 0.792428 0.607142
O O7 0.152660 0.089576 0.725315
O O8 0.783428 0.504905 0.500000
O O9 0.000000 0.500000 0.554040
#
# Coordination Sequence:
#
# PCOD9546147 Si02
#       4
#    16  16  16  16
#     4   9  19  39  65  89 115 153 197 240 295 357
#     4   9  19  39  65  89 115 153 197 240 295 357
#     4   7  12  30  59  88 116 142 179 237 296 348
#     4  11  26  42  55  81 123 159 196 250 295 335
#
# _framework density 24.615528000000001
#
# number of rings (size 3 to 8) (size 9 to 14) (size 15 to 20)
#    0.000    3.000    0.000    3.000    3.500    2.000 
#    4.500    6.250    0.000    0.000    0.000    0.000 
#    0.000    0.000    0.000    0.000    0.000    0.000 
#
# Total GULP energy -178714.738022 kJ/mol
# GULP energy per Si atom -5584.835563 kJ/mol
# Density = 2.455950 g / cm^3
# Si number density = 24.615528 Si / 1000 Ang^3
#
#
#
# Elastic Constant Matrix: (Units=GPa)
#
#
# Indices 1 2 3 4 5 6 
#
# 1 38.2999 26.1305 -1.1736 0.0000 0.0000 -1.5215
# 2 26.1305 38.2999 -1.1736 0.0000 0.0000 1.5215
# 3 -1.1736 -1.1736 97.2842 0.0000 0.0000 0.0000
# 4 0.0000 0.0000 0.0000 37.3234 0.0000 0.0000
# 5 0.0000 0.0000 0.0000 0.0000 37.3234 0.0000
# 6 -1.5215 1.5215 0.0000 0.0000 0.0000 16.5985
#
#
#
# Elastic Compliance Matrix: (Units=1/GPa)
#
#
# Indices 1 2 3 4 5 6 
#
# 1 0.049815 -0.034287 0.000187 0.000000 0.000000 0.007709
# 2 -0.034287 0.049815 0.000187 0.000000 0.000000 -0.007709
# 3 0.000187 0.000187 0.010284 0.000000 0.000000 0.000000
# 4 0.000000 0.000000 0.000000 0.026793 0.000000 0.000000
# 5 0.000000 0.000000 0.000000 0.000000 0.026793 0.000000
# 6 0.007709 -0.007709 0.000000 0.000000 0.000000 0.061660
#
#
# Mechanical properties :
#
#
# Convention : Reuss Voigt Hill
#
# Bulk Modulus (GPa) = 23.75981 24.60561 24.18271
# Shear Modulus (GPa) = 16.28599 28.25577 22.27088
#
# Velocity S-wave (km/s) = 2.57498 3.39172 3.01117
# Velocity P-wave (km/s) = 4.30279 5.03548 4.68348
#
# Compressibility (1/GPa) = 0.04208788
#
# Stress axis : x y z
#
# Youngs Moduli (GPa) = 20.07447 20.07447 97.24148
#
# Poissons Ratio (x) = 0.68829 -0.01822
# Poissons Ratio (y) = 0.68829 -0.01822
# Poissons Ratio (z) = -0.00376 -0.00376
#
# Static dielectric constant tensor:
#      x y z
#    x 1.975420 0.000000 0.000000 
#    y 0.000000 1.975420 0.000000 
#    z 0.000000 0.000000 2.069540 
# 
# From -- ./inp_files/4979.got.cif
#   From: 2010.05.17/outbox.cif.g08.bks.cpg/sg87_3_cif.got.tgz:4979.got - 2010.06.03 19:07:00.
