data_PCOD9546166
_publ_section_title
;
Structure prediction by ZEFSAII (Michael W. Deem and Ramdas Pophale) SiO2 
 PCOD9546166
Probable space group: I 4/M
;
_chemical_formula_sum "Si O2"
_cell_formula_units_Z 80
_cell_length_a 10.306953
_cell_length_b 10.306953
_cell_length_c 34.813909
_cell_angle_alpha 90.000000
_cell_angle_beta 90.000000
_cell_angle_gamma 90.000000
_cell_volume 3698.395748
_symmetry_space_group_name_H-M "I 4/M"
_symmetry_group_IT_number 87
_symmetry_cell_setting 'tetragonal'
loop_
_space_group_symop_operation_xyz
x,y,z
-y,x,z
-x,-y,z
y,-x,z
-x,-y,-z
y,-x,-z
x,y,-z
-y,x,-z
1/2+x,1/2+y,1/2+z
1/2-y,1/2+x,1/2+z
1/2-x,1/2-y,1/2+z
1/2+y,1/2-x,1/2+z
1/2-x,1/2-y,1/2-z
1/2+y,1/2-x,1/2-z
1/2+x,1/2+y,1/2-z
1/2-y,1/2+x,1/2-z
loop_
_atom_site_type_symbol
_atom_site_label
_atom_site_fract_x
_atom_site_fract_y
_atom_site_fract_z
Si Si1 0.432375 0.292998 0.803025
Si Si2 0.445557 0.145381 0.359551
Si Si3 0.051078 0.215455 0.780973
Si Si4 0.794206 0.303704 0.880457
Si Si5 0.081785 0.203174 0.542003
O O1 0.578345 0.344645 0.803223
O O2 0.420549 0.227341 0.761395
O O3 0.392471 0.225993 0.842360
O O4 0.432345 0.180554 0.314497
O O5 0.310676 0.188831 0.378270
O O6 0.557849 0.240301 0.375742
O O7 0.500000 0.000000 0.366622
O O8 0.907641 0.150027 0.784558
O O9 0.779748 0.379027 0.920214
O O10 0.106290 0.264474 0.500000
O O11 0.931755 0.161367 0.543448
#
# Coordination Sequence:
#
# PCOD9546166 Si02
#       5
#    16  16  16  16  16
#     4   9  18  35  61  84 113 159 204 262 323 364
#     4  12  25  40  61  92 120 170 217 254 317 375
#     4   9  18  39  61  81 117 165 212 256 312 363
#     4  12  24  41  59  89 132 161 212 266 307 379
#     4   9  18  36  66  98 126 159 201 261 332 382
#
# _framework density 21.631
#
# number of rings (size 3 to 8) (size 9 to 14) (size 15 to 20)
#    0.000    1.800    2.000    5.400    0.000    2.800 
#    3.600    1.000    0.000    3.600    0.000    1.400 
#    0.000    0.000    0.000    0.000    0.000    0.000 
#
# Total GULP energy -223473.425535 kJ/mol
# GULP energy per Si atom -5586.835638 kJ/mol
# Density = 2.158177 g / cm^3
# Si number density = 21.631000 Si / 1000 Ang^3
#
#
#
# Elastic Constant Matrix: (Units=GPa)
#
#
# Indices 1 2 3 4 5 6 
#
# 1 66.0328 5.9917 25.1238 0.0000 0.0000 12.5477
# 2 5.9917 66.0328 25.1238 0.0000 0.0000 -12.5477
# 3 25.1238 25.1238 164.7187 0.0000 0.0000 0.0000
# 4 0.0000 0.0000 0.0000 27.5966 0.0000 0.0000
# 5 0.0000 0.0000 0.0000 0.0000 27.5966 0.0000
# 6 12.5477 -12.5477 0.0000 0.0000 0.0000 21.6791
#
#
#
# Elastic Compliance Matrix: (Units=1/GPa)
#
#
# Indices 1 2 3 4 5 6 
#
# 1 0.018754 -0.003216 -0.002370 0.000000 0.000000 -0.012716
# 2 -0.003216 0.018754 -0.002370 0.000000 0.000000 0.012716
# 3 -0.002370 -0.002370 0.006794 0.000000 0.000000 0.000000
# 4 0.000000 0.000000 0.000000 0.036236 0.000000 0.000000
# 5 0.000000 0.000000 0.000000 0.000000 0.036236 0.000000
# 6 -0.012716 0.012716 0.000000 0.000000 0.000000 0.060847
#
#
# Mechanical properties :
#
#
# Convention : Reuss Voigt Hill
#
# Bulk Modulus (GPa) = 35.22439 45.47364 40.34901
# Shear Modulus (GPa) = 24.63092 31.41079 28.02085
#
# Velocity S-wave (km/s) = 3.37810 3.81480 3.60307
# Velocity P-wave (km/s) = 5.61560 6.36174 6.00028
#
# Compressibility (1/GPa) = 0.02838942
#
# Stress axis : x y z
#
# Youngs Moduli (GPa) = 53.32238 53.32239 147.19122
#
# Poissons Ratio (x) = 0.17150 0.34882
# Poissons Ratio (y) = 0.17150 0.34882
# Poissons Ratio (z) = 0.12637 0.12637
#
# Static dielectric constant tensor:
#      x y z
#    x 1.840490 0.000000 0.000000 
#    y 0.000000 1.840490 0.000000 
#    z 0.000000 0.000000 1.792360 
# 
# From -- ./inp_files/6491.got.cif
#   From: 2010.05.17/outbox.cif.g08.bks.cpg/sg87_4_cif.got.tgz:6491.got - 2010.06.03 19:07:00.
