data_PCOD9546494
_publ_section_title
;
Structure prediction by ZEFSAII (Michael W. Deem and Ramdas Pophale) SiO2 
 PCOD9546494
Probable space group: I 41/A
;
_chemical_formula_sum "Si O2"
_cell_formula_units_Z 116
_cell_length_a 17.980191
_cell_length_b 17.980191
_cell_length_c 15.050718
_cell_angle_alpha 90.000000
_cell_angle_beta 90.000000
_cell_angle_gamma 90.000000
_cell_volume 4865.705510
_symmetry_space_group_name_H-M "I 41/A"
_symmetry_group_IT_number 88
_space_group.IT_coordinate_system_code '2'
_symmetry_cell_setting 'tetragonal'
loop_
_space_group_symop_operation_xyz
x,y,z
3/4-y,1/4+x,1/4+z
-x,1/2-y,z
1/4+y,1/4-x,1/4+z
-x,-y,-z
1/4+y,3/4-x,3/4-z
x,1/2+y,-z
3/4-y,3/4+x,3/4-z
1/2+x,1/2+y,1/2+z
1/4-y,3/4+x,3/4+z
1/2-x,-y,1/2+z
3/4+y,3/4-x,3/4+z
1/2-x,1/2-y,1/2-z
3/4+y,1/4-x,1/4-z
1/2+x,y,1/2-z
1/4-y,1/4+x,1/4-z
loop_
_atom_site_type_symbol
_atom_site_label
_atom_site_fract_x
_atom_site_fract_y
_atom_site_fract_z
Si Si1 0.331822 0.256860 0.710958
Si Si2 0.172534 0.626513 0.717140
Si Si3 0.500000 0.250000 0.375000
Si Si4 0.644094 0.408083 0.739983
Si Si5 0.163723 0.428431 0.469175
Si Si6 0.790341 0.217981 0.986573
Si Si7 0.020430 0.584835 0.930293
Si Si8 0.185707 0.424993 0.272042
O O1 0.250000 0.250000 0.750000
O O2 0.374057 0.180918 0.737694
O O3 0.356408 0.336168 0.751989
O O4 0.314947 0.259718 0.603876
O O5 0.178990 0.607358 0.614091
O O6 0.090446 0.607106 0.745560
O O7 0.188161 0.710619 0.744525
O O8 0.225021 0.570450 0.770370
O O9 0.512074 0.173696 0.426754
O O10 0.730097 0.412507 0.775258
O O11 0.582005 0.465061 0.779645
O O12 0.165038 0.400663 0.368995
O O13 0.242704 0.404586 0.508252
O O14 0.795260 0.252164 0.086084
O O15 0.107818 0.575737 0.953504
#
# Coordination Sequence:
#
# PCOD9546494 Si02
#       8
#    16  16   4  16  16  16  16  16
#     4   9  23  41  63  98 138 178 236 299 364 426
#     4  11  22  41  65  99 145 181 237 291 365 443
#     4  12  28  44  64  92 156 184 230 284 368 456
#     4  10  21  41  67  97 135 187 232 297 366 424
#     4  11  24  40  66 101 139 181 241 303 348 435
#     4  11  21  38  72  97 138 191 237 289 373 450
#     4  12  26  42  65 102 142 193 232 291 367 448
#     4  12  24  39  66 101 142 180 242 301 357 432
#
# _framework density 23.840323999999999
#
# number of rings (size 3 to 8) (size 9 to 14) (size 15 to 20)
#    0.000    1.103    4.138    2.069    5.793    0.000 
#    0.000    0.000    0.000    0.000    0.000    0.000 
#    0.000    0.000    0.000    0.000    0.000    0.000 
#
# Total GULP energy -323248.162664 kJ/mol
# GULP energy per Si atom -5573.244184 kJ/mol
# Density = 2.378606 g / cm^3
# Si number density = 23.840324 Si / 1000 Ang^3
#
#
#
# Elastic Constant Matrix: (Units=GPa)
#
#
# Indices 1 2 3 4 5 6 
#
# 1 107.6643 13.4763 8.9572 0.0000 0.0000 8.5334
# 2 13.4763 107.6643 8.9572 0.0000 0.0000 -8.5334
# 3 8.9572 8.9572 75.3412 0.0000 0.0000 0.0000
# 4 0.0000 0.0000 0.0000 29.7379 0.0000 0.0000
# 5 0.0000 0.0000 0.0000 0.0000 29.7379 0.0000
# 6 8.5334 -8.5334 0.0000 0.0000 0.0000 18.9793
#
#
#
# Elastic Compliance Matrix: (Units=1/GPa)
#
#
# Indices 1 2 3 4 5 6 
#
# 1 0.009981 -0.001578 -0.000999 0.000000 0.000000 -0.005197
# 2 -0.001578 0.009981 -0.000999 0.000000 0.000000 0.005197
# 3 -0.000999 -0.000999 0.013510 0.000000 0.000000 0.000000
# 4 0.000000 0.000000 0.000000 0.033627 0.000000 0.000000
# 5 0.000000 0.000000 0.000000 0.000000 0.033627 0.000000
# 6 -0.005197 0.005197 0.000000 0.000000 0.000000 0.057362
#
#
# Mechanical properties :
#
#
# Convention : Reuss Voigt Hill
#
# Bulk Modulus (GPa) = 37.99425 39.27239 38.63332
# Shear Modulus (GPa) = 28.73334 32.97628 30.85481
#
# Velocity S-wave (km/s) = 3.47542 3.72319 3.60144
# Velocity P-wave (km/s) = 5.66360 5.91538 5.79086
#
# Compressibility (1/GPa) = 0.02631977
#
# Stress axis : x y z
#
# Youngs Moduli (GPa) = 100.19361 100.19361 74.01662
#
# Poissons Ratio (x) = 0.15811 0.07394
# Poissons Ratio (y) = 0.15811 0.07394
# Poissons Ratio (z) = 0.10009 0.10009
#
# Static dielectric constant tensor:
#      x y z
#    x 1.982030 0.000000 0.000000 
#    y 0.000000 1.982030 0.000000 
#    z 0.000000 0.000000 1.978270 
# 
# From -- ./inp_files/4011.got.cif
#   From: 2010.05.17/outbox.cif.g08.bks.cpg/sg88_3_cif.got.tgz:4011.got - 2010.06.03 19:11:41.
