data_PCOD9546436
_publ_section_title
;
Structure prediction by ZEFSAII (Michael W. Deem and Ramdas Pophale) SiO2 
 PCOD9546436
Probable space group: I 41/A
;
_chemical_formula_sum "Si O2"
_cell_formula_units_Z 100
_cell_length_a 13.628081
_cell_length_b 13.628081
_cell_length_c 24.745732
_cell_angle_alpha 90.000000
_cell_angle_beta 90.000000
_cell_angle_gamma 90.000000
_cell_volume 4595.890973
_symmetry_space_group_name_H-M "I 41/A"
_symmetry_group_IT_number 88
_space_group.IT_coordinate_system_code '2'
_symmetry_cell_setting 'tetragonal'
loop_
_space_group_symop_operation_xyz
x,y,z
3/4-y,1/4+x,1/4+z
-x,1/2-y,z
1/4+y,1/4-x,1/4+z
-x,-y,-z
1/4+y,3/4-x,3/4-z
x,1/2+y,-z
3/4-y,3/4+x,3/4-z
1/2+x,1/2+y,1/2+z
1/4-y,3/4+x,3/4+z
1/2-x,-y,1/2+z
3/4+y,3/4-x,3/4+z
1/2-x,1/2-y,1/2-z
3/4+y,1/4-x,1/4-z
1/2+x,y,1/2-z
1/4-y,1/4+x,1/4-z
loop_
_atom_site_type_symbol
_atom_site_label
_atom_site_fract_x
_atom_site_fract_y
_atom_site_fract_z
Si Si1 0.500000 0.750000 0.125000
Si Si2 0.055024 0.389672 0.714940
Si Si3 0.107074 0.721064 0.783787
Si Si4 0.172019 0.291016 0.813055
Si Si5 0.856158 0.729506 0.067832
Si Si6 0.798789 0.108433 0.277428
Si Si7 0.859185 0.577345 0.492259
O O1 0.568162 0.686484 0.085804
O O2 0.114429 0.347184 0.765424
O O3 0.067002 0.500679 0.696177
O O4 0.942493 0.388662 0.734020
O O5 0.168147 0.818883 0.770670
O O6 0.195579 0.647409 0.803263
O O7 0.000000 0.750000 0.810446
O O8 0.069981 0.675065 0.726877
O O9 0.120516 0.295058 0.870407
O O10 0.191062 0.180389 0.792871
O O11 0.276111 0.344898 0.810497
O O12 0.854446 0.849136 0.062285
O O13 0.787746 0.000190 0.253510
#
# Coordination Sequence:
#
# PCOD9546436 Si02
#       7
#     4  16  16  16  16  16  16
#     4  12  20  36  56  84 128 188 200 256 348 398
#     4  11  22  37  59  86 132 173 217 267 327 400
#     4   9  18  37  63  90 115 162 215 273 328 392
#     4  11  22  39  59  92 132 171 225 266 321 406
#     4  10  22  37  64  92 126 175 220 273 339 385
#     4   9  19  37  59  89 122 159 217 266 332 388
#     4  10  21  37  54  89 124 167 202 268 316 393
#
# _framework density 21.758568
#
# number of rings (size 3 to 8) (size 9 to 14) (size 15 to 20)
#    0.000    1.920    1.600    1.920    2.240    3.840 
#    5.760    0.000    0.000    0.000    0.000    0.000 
#    0.000    0.000    0.000    0.000    0.000    0.640 
#
# Total GULP energy -278671.636360 kJ/mol
# GULP energy per Si atom -5573.432727 kJ/mol
# Density = 2.170904 g / cm^3
# Si number density = 21.758568 Si / 1000 Ang^3
#
#
#
# Elastic Constant Matrix: (Units=GPa)
#
#
# Indices 1 2 3 4 5 6 
#
# 1 125.6729 30.2909 24.5690 0.0000 0.0000 0.1085
# 2 30.2909 125.6729 24.5690 0.0000 0.0000 -0.1085
# 3 24.5690 24.5690 98.6997 0.0000 0.0000 0.0000
# 4 0.0000 0.0000 0.0000 -28.0424 0.0000 0.0000
# 5 0.0000 0.0000 0.0000 0.0000 -28.0424 0.0000
# 6 0.1085 -0.1085 0.0000 0.0000 0.0000 32.5674
#
#
#
# Elastic Compliance Matrix: (Units=1/GPa)
#
#
# Indices 1 2 3 4 5 6 
#
# 1 0.008721 -0.001763 -0.001732 0.000000 0.000000 -0.000035
# 2 -0.001763 0.008721 -0.001732 0.000000 0.000000 0.000035
# 3 -0.001732 -0.001732 0.010994 0.000000 0.000000 0.000000
# 4 0.000000 0.000000 0.000000 -0.035660 0.000000 0.000000
# 5 0.000000 0.000000 0.000000 0.000000 -0.035660 0.000000
# 6 -0.000035 0.000035 0.000000 0.000000 0.000000 0.030706
#
#
# Mechanical properties :
#
#
# Convention : Reuss Voigt Hill
#
# Bulk Modulus (GPa) = 55.61355 56.54480 56.07917
# Shear Modulus (GPa) = 1171.24338 13.33762 592.29050
#
# Velocity S-wave (km/s) = 23.22626 2.47853 16.51669
# Velocity P-wave (km/s) = 27.29274 5.85104 19.73738
#
# Compressibility (1/GPa) = 0.01798123
#
# Stress axis : x y z
#
# Youngs Moduli (GPa) = 114.66815 114.66815 90.95900
#
# Poissons Ratio (x) = 0.20221 0.15753
# Poissons Ratio (y) = 0.20221 0.15753
# Poissons Ratio (z) = 0.19859 0.19859
#
# Static dielectric constant tensor:
#      x y z
#    x 1.869450 0.000000 0.000000 
#    y 0.000000 1.869450 0.000000 
#    z 0.000000 0.000000 1.755580 
# 
# From -- ./inp_files/5297.got.cif
#   From: 2010.05.17/outbox.cif.g08.bks.cpg/sg88_3_cif.got.tgz:5297.got - 2010.06.03 19:11:41.
