data_PCOD9546865
_publ_section_title
;
Structure prediction by ZEFSAII (Michael W. Deem and Ramdas Pophale) SiO2 
 PCOD9546865
Probable space group: I 41/A
;
_chemical_formula_sum "Si O2"
_cell_formula_units_Z 52
_cell_length_a 11.205549
_cell_length_b 11.205549
_cell_length_c 17.558847
_cell_angle_alpha 90.000000
_cell_angle_beta 90.000000
_cell_angle_gamma 90.000000
_cell_volume 2204.764831
_symmetry_space_group_name_H-M "I 41/A"
_symmetry_group_IT_number 88
_space_group.IT_coordinate_system_code '2'
_symmetry_cell_setting 'tetragonal'
loop_
_space_group_symop_operation_xyz
x,y,z
3/4-y,1/4+x,1/4+z
-x,1/2-y,z
1/4+y,1/4-x,1/4+z
-x,-y,-z
1/4+y,3/4-x,3/4-z
x,1/2+y,-z
3/4-y,3/4+x,3/4-z
1/2+x,1/2+y,1/2+z
1/4-y,3/4+x,3/4+z
1/2-x,-y,1/2+z
3/4+y,3/4-x,3/4+z
1/2-x,1/2-y,1/2-z
3/4+y,1/4-x,1/4-z
1/2+x,y,1/2-z
1/4-y,1/4+x,1/4-z
loop_
_atom_site_type_symbol
_atom_site_label
_atom_site_fract_x
_atom_site_fract_y
_atom_site_fract_z
Si Si1 0.000000 0.250000 0.625000
Si Si2 0.752592 0.266647 0.919445
Si Si3 0.922544 0.549464 0.071281
Si Si4 0.640976 0.049853 0.681923
O O1 0.121408 0.209921 0.584166
O O2 0.854150 0.173949 0.945183
O O3 0.794695 0.327747 0.841137
O O4 0.730708 0.371533 0.980105
O O5 0.816424 0.461441 0.096285
O O6 0.014114 0.560835 0.140542
O O7 0.000000 0.500000 0.000000
#
# Coordination Sequence:
#
# PCOD9546865 Si02
#       4
#     4  16  16  16
#     4  12  28  48  76 112 148 204 258 320 404 460
#     4  12  28  49  77 114 155 206 258 332 392 477
#     4  12  26  49  76 116 154 206 263 320 401 469
#     4  12  27  47  77 111 155 202 260 322 394 467
#
# _framework density 23.585281999999999
#
# number of rings (size 3 to 8) (size 9 to 14) (size 15 to 20)
#    0.000    0.000    6.154    2.769    4.308    4.308 
#    0.000    0.000    0.000    0.000    0.000    0.000 
#    0.000    0.000    0.000    0.000    0.000    0.000 
#
# Total GULP energy -145303.091701 kJ/mol
# GULP energy per Si atom -5588.580450 kJ/mol
# Density = 2.353160 g / cm^3
# Si number density = 23.585282 Si / 1000 Ang^3
#
#
#
# Elastic Constant Matrix: (Units=GPa)
#
#
# Indices 1 2 3 4 5 6 
#
# 1 112.3698 67.4185 21.6975 0.0000 0.0000 35.5695
# 2 67.4185 112.3698 21.6975 0.0000 0.0000 -35.5695
# 3 21.6975 21.6975 55.5351 0.0000 0.0000 0.0000
# 4 0.0000 0.0000 0.0000 29.8430 0.0000 0.0000
# 5 0.0000 0.0000 0.0000 0.0000 29.8430 0.0000
# 6 35.5695 -35.5695 0.0000 0.0000 0.0000 4.3846
#
#
#
# Elastic Compliance Matrix: (Units=1/GPa)
#
#
# Indices 1 2 3 4 5 6 
#
# 1 0.002131 0.004010 -0.002399 0.000000 0.000000 0.015244
# 2 0.004010 0.002131 -0.002399 0.000000 0.000000 -0.015244
# 3 -0.002399 -0.002399 0.019881 0.000000 0.000000 0.000000
# 4 0.000000 0.000000 0.000000 0.033509 0.000000 0.000000
# 5 0.000000 0.000000 0.000000 0.000000 0.033509 0.000000
# 6 0.015244 -0.015244 0.000000 0.000000 0.000000 -0.019265
#
#
# Mechanical properties :
#
#
# Convention : Reuss Voigt Hill
#
# Bulk Modulus (GPa) = 44.31354 55.76686 50.04020
# Shear Modulus (GPa) = 61.73230 24.11155 42.92192
#
# Velocity S-wave (km/s) = 5.12161 3.20083 4.27061
# Velocity P-wave (km/s) = 7.33512 6.11200 6.75131
#
# Compressibility (1/GPa) = 0.02256646
#
# Stress axis : x y z
#
# Youngs Moduli (GPa) = 469.25523 469.25525 50.29803
#
# Poissons Ratio (x) = -1.88180 0.12068
# Poissons Ratio (y) = -1.88180 0.12068
# Poissons Ratio (z) = 1.12592 1.12592
#
# Static dielectric constant tensor:
#      x y z
#    x 1.975270 0.000000 0.000000 
#    y 0.000000 1.975270 0.000000 
#    z 0.000000 0.000000 1.938610 
# 
# From -- ./inp_files/4281.got.cif
#   From: 2010.05.17/outbox.cif.g08.bks.cpg/sg88_3_cif.got.tgz:4281.got - 2010.06.03 19:11:41.
