data_PCOD9546226
_publ_section_title
;
Structure prediction by ZEFSAII (Michael W. Deem and Ramdas Pophale) SiO2 
 PCOD9546226
Probable space group: I 41/A
;
_chemical_formula_sum "Si O2"
_cell_formula_units_Z 48
_cell_length_a 17.120860
_cell_length_b 17.120860
_cell_length_c 6.557747
_cell_angle_alpha 90.000000
_cell_angle_beta 90.000000
_cell_angle_gamma 90.000000
_cell_volume 1922.232029
_symmetry_space_group_name_H-M "I 41/A"
_symmetry_group_IT_number 88
_space_group.IT_coordinate_system_code '2'
_symmetry_cell_setting 'tetragonal'
loop_
_space_group_symop_operation_xyz
x,y,z
3/4-y,1/4+x,1/4+z
-x,1/2-y,z
1/4+y,1/4-x,1/4+z
-x,-y,-z
1/4+y,3/4-x,3/4-z
x,1/2+y,-z
3/4-y,3/4+x,3/4-z
1/2+x,1/2+y,1/2+z
1/4-y,3/4+x,3/4+z
1/2-x,-y,1/2+z
3/4+y,3/4-x,3/4+z
1/2-x,1/2-y,1/2-z
3/4+y,1/4-x,1/4-z
1/2+x,y,1/2-z
1/4-y,1/4+x,1/4-z
loop_
_atom_site_type_symbol
_atom_site_label
_atom_site_fract_x
_atom_site_fract_y
_atom_site_fract_z
Si Si1 0.692536 0.723597 0.471933
Si Si2 0.345647 0.164349 0.192427
Si Si3 0.647592 0.527818 0.835603
O O1 0.628517 0.671572 0.353840
O O2 0.645693 0.755865 0.676079
O O3 0.770873 0.682682 0.555734
O O4 0.719546 0.805592 0.372752
O O5 0.323200 0.101348 0.368919
O O6 0.696066 0.566168 0.015857
#
# Coordination Sequence:
#
# PCOD9546226 Si02
#       3
#    16  16  16
#     4   9  17  27  45  77 101 132 172 229 278 306
#     4   9  14  28  43  72 103 124 169 229 270 305
#     4  10  18  32  49  75 105 142 183 223 275 330
#
# _framework density 24.970973000000001
#
# number of rings (size 3 to 8) (size 9 to 14) (size 15 to 20)
#    2.000    0.667    3.333    0.000    0.000    0.667 
#    0.000    0.000    0.000    2.000    0.000    0.000 
#    0.000    5.333    0.000    0.000    0.000    0.000 
#
# Total GULP energy -133731.830332 kJ/mol
# GULP energy per Si atom -5572.159597 kJ/mol
# Density = 2.491414 g / cm^3
# Si number density = 24.970973 Si / 1000 Ang^3
#
#
#
# Elastic Constant Matrix: (Units=GPa)
#
#
# Indices 1 2 3 4 5 6 
#
# 1 150.6753 114.7514 34.3445 0.0000 0.0000 -4.6166
# 2 114.7514 150.6753 34.3445 0.0000 0.0000 4.6166
# 3 34.3445 34.3445 65.8001 0.0000 0.0000 0.0000
# 4 0.0000 0.0000 0.0000 36.0019 0.0000 0.0000
# 5 0.0000 0.0000 0.0000 0.0000 36.0019 0.0000
# 6 -4.6166 4.6166 0.0000 0.0000 0.0000 50.6018
#
#
#
# Elastic Compliance Matrix: (Units=1/GPa)
#
#
# Indices 1 2 3 4 5 6 
#
# 1 0.016430 -0.012075 -0.002274 0.000000 0.000000 0.002601
# 2 -0.012075 0.016430 -0.002274 0.000000 0.000000 -0.002601
# 3 -0.002274 -0.002274 0.017571 0.000000 0.000000 0.000000
# 4 0.000000 0.000000 0.000000 0.027776 0.000000 0.000000
# 5 0.000000 0.000000 0.000000 0.000000 0.027776 0.000000
# 6 0.002601 -0.002601 0.000000 0.000000 0.000000 0.020237
#
#
# Mechanical properties :
#
#
# Convention : Reuss Voigt Hill
#
# Bulk Modulus (GPa) = 58.17858 81.55903 69.86880
# Shear Modulus (GPa) = 30.26746 36.76850 33.51798
#
# Velocity S-wave (km/s) = 3.48531 3.84141 3.66769
# Velocity P-wave (km/s) = 6.28853 7.23932 6.78061
#
# Compressibility (1/GPa) = 0.01718846
#
# Stress axis : x y z
#
# Youngs Moduli (GPa) = 60.86264 60.86264 56.91216
#
# Poissons Ratio (x) = 0.73489 0.12939
# Poissons Ratio (y) = 0.73489 0.12939
# Poissons Ratio (z) = 0.13838 0.13838
#
# Static dielectric constant tensor:
#      x y z
#    x 2.069170 0.000000 0.000000 
#    y 0.000000 2.069170 0.000000 
#    z 0.000000 0.000000 2.123690 
# 
# From -- ./inp_files/1147.got.cif
#   From: 2010.05.17/outbox.cif.g08.bks.cpg/sg88_1_cif.got.tgz:1147.got - 2010.06.03 19:11:41.
