data_PCOD9546188
_publ_section_title
;
Structure prediction by ZEFSAII (Michael W. Deem and Ramdas Pophale) SiO2 
 PCOD9546188
Probable space group: I 4/M
;
_chemical_formula_sum "Si O2"
_cell_formula_units_Z 56
_cell_length_a 15.000000
_cell_length_b 15.000000
_cell_length_c 27.000000
_cell_angle_alpha 90.000000
_cell_angle_beta 90.000000
_cell_angle_gamma 90.000000
_cell_volume 6075.000000
_symmetry_space_group_name_H-M "I 4/M"
_symmetry_group_IT_number 87
_symmetry_cell_setting 'tetragonal'
loop_
_space_group_symop_operation_xyz
x,y,z
-y,x,z
-x,-y,z
y,-x,z
-x,-y,-z
y,-x,-z
x,y,-z
-y,x,-z
1/2+x,1/2+y,1/2+z
1/2-y,1/2+x,1/2+z
1/2-x,1/2-y,1/2+z
1/2+y,1/2-x,1/2+z
1/2-x,1/2-y,1/2-z
1/2+y,1/2-x,1/2-z
1/2+x,1/2+y,1/2-z
1/2-y,1/2+x,1/2-z
loop_
_atom_site_type_symbol
_atom_site_label
_atom_site_fract_x
_atom_site_fract_y
_atom_site_fract_z
Si Si1 0.209921 0.507040 0.359225
Si Si2 0.369044 0.743923 0.000000
Si Si3 0.864698 0.941117 0.336713
Si Si4 0.582090 0.774209 0.000000
Si Si5 0.489346 0.649432 0.554797
Si Si6 0.644848 0.528168 0.281573
Si Si7 0.812402 0.624708 0.889382
Si Si8 0.550967 0.912759 0.086002
O O1 0.279096 0.486778 0.402916
O O2 0.260924 0.473911 0.309884
O O3 0.187471 0.613295 0.363264
O O4 0.121994 0.452001 0.375129
O O5 0.350078 0.795265 0.052349
O O6 0.478879 0.736165 0.000000
O O7 0.306436 0.654652 0.000000
O O8 0.782437 0.891247 0.362736
O O9 0.955435 0.886861 0.349927
O O10 0.847784 0.952581 0.277413
O O11 0.591005 0.842447 0.953412
O O12 0.409015 0.579069 0.558679
O O13 0.486470 0.690731 0.500000
O O14 0.567974 0.600178 0.295159
O O15 0.857968 0.527715 0.888406
O O16 0.500000 0.000000 0.062955
#
# Coordination Sequence:
#
# PCOD9546188 Si02
#       8
#    16   8  16   8  16  16  16  16
#     4  11  21  35  60  86 116 157 194 239 292 352
#     4  10  24  37  56  86 119 151 199 253 295 350
#     4   9  20  42  67  83 112 158 194 243 312 362
#     4  10  21  39  56  82 113 157 195 246 294 349
#     4   9  19  34  51  79 119 157 191 231 282 343
#     4   9  19  39  62  89 119 151 194 240 300 361
#     4  10  23  41  56  86 123 150 201 247 289 356
#     4   9  21  39  57  75 115 162 191 226 294 360
#
# _framework density 9.2181069999999998
#
# number of rings (size 3 to 8) (size 9 to 14) (size 15 to 20)
#    0.000    2.429    0.000    2.357    6.000    4.714 
#    2.571    1.429    0.000    0.000    0.000    0.000 
#    0.000    0.000    0.000    0.000    0.000    0.000 
#
# Total GULP energy -311993.289431 kJ/mol
# GULP energy per Si atom -5571.308740 kJ/mol
# Density = 0.919713 g / cm^3
# Si number density = 9.218107 Si / 1000 Ang^3
#
#
#
# Elastic Constant Matrix: (Units=GPa)
#
#
# Indices 1 2 3 4 5 6 
#
# 1 51.8565 7.3169 12.7316 0.0000 0.0000 -1.6743
# 2 7.3169 51.8565 12.7316 0.0000 0.0000 1.6743
# 3 12.7316 12.7316 48.8355 0.0000 0.0000 0.0000
# 4 0.0000 0.0000 0.0000 13.6318 0.0000 0.0000
# 5 0.0000 0.0000 0.0000 0.0000 13.6318 0.0000
# 6 -1.6743 1.6743 0.0000 0.0000 0.0000 17.5956
#
#
#
# Elastic Compliance Matrix: (Units=1/GPa)
#
#
# Indices 1 2 3 4 5 6 
#
# 1 0.020824 -0.001789 -0.004962 0.000000 0.000000 0.002152
# 2 -0.001789 0.020824 -0.004962 0.000000 0.000000 -0.002152
# 3 -0.004962 -0.004962 0.023064 0.000000 0.000000 0.000000
# 4 0.000000 0.000000 0.000000 0.073358 0.000000 0.000000
# 5 0.000000 0.000000 0.000000 0.000000 0.073358 0.000000
# 6 0.002152 -0.002152 0.000000 0.000000 0.000000 0.057242
#
#
# Mechanical properties :
#
#
# Convention : Reuss Voigt Hill
#
# Bulk Modulus (GPa) = 24.22229 24.23432 24.22831
# Shear Modulus (GPa) = 16.34732 16.95641 16.65187
#
# Velocity S-wave (km/s) = 2.98098 3.03600 3.00861
# Velocity P-wave (km/s) = 5.00152 5.04611 5.02387
#
# Compressibility (1/GPa) = 0.04128428
#
# Stress axis : x y z
#
# Youngs Moduli (GPa) = 48.02077 48.02077 43.35693
#
# Poissons Ratio (x) = 0.08593 0.21516
# Poissons Ratio (y) = 0.08593 0.21516
# Poissons Ratio (z) = 0.23830 0.23830
#
# Static dielectric constant tensor:
#      x y z
#    x 1.650960 0.000000 0.000000 
#    y 0.000000 1.650960 0.000000 
#    z 0.000000 0.000000 1.653310 
# 
# From -- ./inp_files/6310.got.cif
#   From: 2010.05.17/outbox.ucp.g08.bks.cvg/sg87_4_cif.got.tgz:6310.got - 2010.06.11 10:35:24.
