data_PCOD9546899
_publ_section_title
;
Structure prediction by ZEFSAII (Michael W. Deem and Ramdas Pophale) SiO2 
 PCOD9546899
Probable space group: P 4 2 2
;
_chemical_formula_sum "Si O2"
_cell_formula_units_Z 48
_cell_length_a 22.406462
_cell_length_b 22.406462
_cell_length_c 5.230990
_cell_angle_alpha 90.000000
_cell_angle_beta 90.000000
_cell_angle_gamma 90.000000
_cell_volume 2626.216120
_symmetry_space_group_name_H-M "P 4 2 2"
_symmetry_group_IT_number 89
_symmetry_cell_setting 'tetragonal'
loop_
_space_group_symop_operation_xyz
x,y,z
-y,x,z
-x,-y,z
y,-x,z
x,-y,-z
-x,y,-z
y,x,-z
-y,-x,-z
loop_
_atom_site_type_symbol
_atom_site_label
_atom_site_fract_x
_atom_site_fract_y
_atom_site_fract_z
Si Si1 0.433715 0.729596 0.931908
Si Si2 0.634613 0.727789 0.567199
Si Si3 0.162801 0.069870 0.043981
Si Si4 0.124926 0.568330 0.046497
Si Si5 0.875013 0.780634 0.456418
Si Si6 0.128649 0.359709 0.454391
O O1 0.388595 0.710420 0.154043
O O2 0.434039 0.802357 0.940029
O O3 0.500000 0.709569 0.000000
O O4 0.412200 0.710339 0.653586
O O5 0.696324 0.696324 0.500000
O O6 0.638308 0.799159 0.555136
O O7 0.185840 0.086766 0.325692
O O8 0.097185 0.097185 0.000000
O O9 0.201894 0.103647 0.827604
O O10 0.165461 0.000000 0.000000
O O11 0.107634 0.610590 0.809918
O O12 0.105022 0.500000 0.000000
O O13 0.106585 0.599547 0.310902
O O14 0.808323 0.808323 0.500000
O O15 0.883942 0.710151 0.488149
#
# Coordination Sequence:
#
# PCOD9546899 Si02
#       6
#     8   8   8   8   8   8
#     4   9  17  28  40  55  81 115 145 181 229 274
#     4  10  18  27  41  62  87 114 147 181 218 278
#     4  10  21  37  57  80 108 140 174 216 257 299
#     4   9  17  28  43  65  95 132 170 205 239 284
#     4  10  20  34  52  77 109 140 172 210 257 313
#     4  10  18  29  46  68 100 136 164 195 244 298
#
# _framework density 18.277245000000001
#
# number of rings (size 3 to 8) (size 9 to 14) (size 15 to 20)
#    0.000    2.333    0.000    3.500    0.000    4.167 
#    0.000    5.000    0.000    3.000    0.000    0.000 
#    0.000   70.000    0.000    0.000    0.000    0.000 
#
# Total GULP energy -267620.219054 kJ/mol
# GULP energy per Si atom -5575.421230 kJ/mol
# Density = 1.823565 g / cm^3
# Si number density = 18.277245 Si / 1000 Ang^3
#
#
#
# Elastic Constant Matrix: (Units=GPa)
#
#
# Indices 1 2 3 4 5 6 
#
# 1 70.8370 -39.5001 -7.5735 0.0000 0.0000 0.0000
# 2 -39.5001 70.8370 -7.5735 0.0000 0.0000 0.0000
# 3 -7.5735 -7.5735 64.1244 0.0000 0.0000 0.0000
# 4 0.0000 0.0000 0.0000 15.0609 0.0000 0.0000
# 5 0.0000 0.0000 0.0000 0.0000 15.0609 0.0000
# 6 0.0000 0.0000 0.0000 0.0000 0.0000 5.1147
#
#
#
# Elastic Compliance Matrix: (Units=1/GPa)
#
#
# Indices 1 2 3 4 5 6 
#
# 1 0.021453 0.012390 0.003997 0.000000 0.000000 0.000000
# 2 0.012390 0.021453 0.003997 0.000000 0.000000 0.000000
# 3 0.003997 0.003997 0.016539 0.000000 0.000000 0.000000
# 4 0.000000 0.000000 0.000000 0.066397 0.000000 0.000000
# 5 0.000000 0.000000 0.000000 0.000000 0.066397 0.000000
# 6 0.000000 0.000000 0.000000 0.000000 0.000000 0.195515
#
#
# Mechanical properties :
#
#
# Convention : Reuss Voigt Hill
#
# Bulk Modulus (GPa) = 9.97866 10.72270 10.35068
# Shear Modulus (GPa) = 13.14438 24.41032 18.77735
#
# Velocity S-wave (km/s) = 2.68464 3.65849 3.20873
# Velocity P-wave (km/s) = 3.88345 4.87089 4.40492
#
# Compressibility (1/GPa) = 0.10021388
#
# Stress axis : x y z
#
# Youngs Moduli (GPa) = 46.61302 46.61302 60.46369
#
# Poissons Ratio (x) = -0.57754 -0.24168
# Poissons Ratio (y) = -0.57754 -0.24168
# Poissons Ratio (z) = -0.18632 -0.18632
#
# Static dielectric constant tensor:
#      x y z
#    x 1.620720 0.000000 0.000000 
#    y 0.000000 1.620720 0.000000 
#    z 0.000000 0.000000 1.629420 
# 
# From -- ./inp_files/410.got.cif
#   From: 2010.05.17/outbox.cif.g08.bks.cpg/sg89_1_cif.got.tgz:410.got - 2010.06.03 19:15:31.
