data_PCOD9546041
_publ_section_title
;
Structure prediction by ZEFSAII (Michael W. Deem and Ramdas Pophale) SiO2 
 PCOD9546041
Probable space group: I 4/M
;
_chemical_formula_sum "Si O2"
_cell_formula_units_Z 112
_cell_length_a 13.622128
_cell_length_b 13.622128
_cell_length_c 26.896990
_cell_angle_alpha 90.000000
_cell_angle_beta 90.000000
_cell_angle_gamma 90.000000
_cell_volume 4991.069244
_symmetry_space_group_name_H-M "I 4/M"
_symmetry_group_IT_number 87
_symmetry_cell_setting 'tetragonal'
loop_
_space_group_symop_operation_xyz
x,y,z
-y,x,z
-x,-y,z
y,-x,z
-x,-y,-z
y,-x,-z
x,y,-z
-y,x,-z
1/2+x,1/2+y,1/2+z
1/2-y,1/2+x,1/2+z
1/2-x,1/2-y,1/2+z
1/2+y,1/2-x,1/2+z
1/2-x,1/2-y,1/2-z
1/2+y,1/2-x,1/2-z
1/2+x,1/2+y,1/2-z
1/2-y,1/2+x,1/2-z
loop_
_atom_site_type_symbol
_atom_site_label
_atom_site_fract_x
_atom_site_fract_y
_atom_site_fract_z
Si Si1 0.665000 0.519151 0.555815
Si Si2 0.790229 0.619728 0.634803
Si Si3 0.389243 0.008260 0.607324
Si Si4 0.324078 0.043186 0.500000
Si Si5 0.187994 0.711372 0.664928
Si Si6 0.641036 0.670814 0.000000
Si Si7 0.383156 0.608162 0.884269
Si Si8 0.372540 0.093663 0.758094
O O1 0.582011 0.604567 0.559437
O O2 0.708379 0.525154 0.500000
O O3 0.745719 0.539151 0.597692
O O4 0.706675 0.703671 0.641629
O O5 0.815710 0.584928 0.690222
O O6 0.897088 0.652482 0.612895
O O7 0.385538 0.036980 0.549830
O O8 0.338243 0.099575 0.634451
O O9 0.500000 0.000000 0.626290
O O10 0.258703 0.144085 0.500000
O O11 0.256681 0.942697 0.500000
O O12 0.172877 0.826694 0.655573
O O13 0.171159 0.676191 0.720708
O O14 0.622390 0.630175 0.056167
O O15 0.365943 0.495555 0.874846
O O16 0.485558 0.124325 0.766409
#
# Coordination Sequence:
#
# PCOD9546041 Si02
#       8
#    16  16  16   8  16   8  16  16
#     4   9  22  48  76 106 145 189 242 306 372 433
#     4  12  26  44  78 108 135 187 245 296 358 438
#     4  12  27  47  66  99 148 185 230 289 360 428
#     4  12  25  39  62  98 138 187 230 286 346 414
#     4  12  24  44  67 101 133 178 238 294 346 424
#     4  12  18  35  62  92 132 184 234 272 326 431
#     4  11  21  36  60  92 133 177 220 276 347 411
#     4  11  25  47  73  99 140 191 235 294 364 430
#
# _framework density 22.440080999999999
#
# number of rings (size 3 to 8) (size 9 to 14) (size 15 to 20)
#    0.000    0.714    4.286    3.643    5.000    0.714 
#    2.571    0.000    0.000    1.714    0.000    0.000 
#    0.000    0.000    0.000    0.000    0.000    0.000 
#
# Total GULP energy -312444.679740 kJ/mol
# GULP energy per Si atom -5579.369281 kJ/mol
# Density = 2.238901 g / cm^3
# Si number density = 22.440081 Si / 1000 Ang^3
#
#
#
# Elastic Constant Matrix: (Units=GPa)
#
#
# Indices 1 2 3 4 5 6 
#
# 1 65.8662 -5.4482 13.5968 0.0000 0.0000 4.9738
# 2 -5.4482 65.8662 13.5968 0.0000 0.0000 -4.9738
# 3 13.5968 13.5968 99.2318 0.0000 0.0000 0.0000
# 4 0.0000 0.0000 0.0000 32.2094 0.0000 0.0000
# 5 0.0000 0.0000 0.0000 0.0000 32.2094 0.0000
# 6 4.9738 -4.9738 0.0000 0.0000 0.0000 30.0337
#
#
#
# Elastic Compliance Matrix: (Units=1/GPa)
#
#
# Indices 1 2 3 4 5 6 
#
# 1 0.015997 0.001643 -0.002417 0.000000 0.000000 -0.002377
# 2 0.001643 0.015997 -0.002417 0.000000 0.000000 0.002377
# 3 -0.002417 -0.002417 0.010740 0.000000 0.000000 0.000000
# 4 0.000000 0.000000 0.000000 0.031047 0.000000 0.000000
# 5 0.000000 0.000000 0.000000 0.000000 0.031047 0.000000
# 6 -0.002377 0.002377 0.000000 0.000000 0.000000 0.034083
#
#
# Mechanical properties :
#
#
# Convention : Reuss Voigt Hill
#
# Bulk Modulus (GPa) = 27.51001 30.49502 29.00251
# Shear Modulus (GPa) = 31.76435 32.83844 32.30140
#
# Velocity S-wave (km/s) = 3.76642 3.82957 3.79813
# Velocity P-wave (km/s) = 5.58574 5.75962 5.67334
#
# Compressibility (1/GPa) = 0.03635041
#
# Stress axis : x y z
#
# Youngs Moduli (GPa) = 62.51329 62.51329 93.11198
#
# Poissons Ratio (x) = -0.10269 0.22505
# Poissons Ratio (y) = -0.10269 0.22505
# Poissons Ratio (z) = 0.15109 0.15109
#
# Static dielectric constant tensor:
#      x y z
#    x 1.874130 0.000000 0.000000 
#    y 0.000000 1.874130 0.000000 
#    z 0.000000 0.000000 1.804030 
# 
# From -- ./inp_files/6314.got.cif
#   From: 2010.05.17/outbox.cif.g08.bks.cpg/sg87_4_cif.got.tgz:6314.got - 2010.06.03 19:07:00.
