data_PCOD9546189
_publ_section_title
;
Structure prediction by ZEFSAII (Michael W. Deem and Ramdas Pophale) SiO2 
 PCOD9546189
Probable space group: I 4/M
;
_chemical_formula_sum "Si O2"
_cell_formula_units_Z 34
_cell_length_a 18.000000
_cell_length_b 18.000000
_cell_length_c 12.000000
_cell_angle_alpha 90.000000
_cell_angle_beta 90.000000
_cell_angle_gamma 90.000000
_cell_volume 3888.000000
_symmetry_space_group_name_H-M "I 4/M"
_symmetry_group_IT_number 87
_symmetry_cell_setting 'tetragonal'
loop_
_space_group_symop_operation_xyz
x,y,z
-y,x,z
-x,-y,z
y,-x,z
-x,-y,-z
y,-x,-z
x,y,-z
-y,x,-z
1/2+x,1/2+y,1/2+z
1/2-y,1/2+x,1/2+z
1/2-x,1/2-y,1/2+z
1/2+y,1/2-x,1/2+z
1/2-x,1/2-y,1/2-z
1/2+y,1/2-x,1/2-z
1/2+x,1/2+y,1/2-z
1/2-y,1/2+x,1/2-z
loop_
_atom_site_type_symbol
_atom_site_label
_atom_site_fract_x
_atom_site_fract_y
_atom_site_fract_z
Si Si1 0.874182 0.238883 0.739730
Si Si2 0.039875 0.885350 0.133499
Si Si3 0.500985 0.161449 0.867257
Si Si4 0.000000 0.500000 0.750000
Si Si5 0.153662 0.262479 0.633151
O O1 0.930262 0.187308 0.808126
O O2 0.924467 0.294304 0.666559
O O3 0.816931 0.184132 0.675837
O O4 0.823441 0.288999 0.820046
O O5 0.956030 0.908539 0.163272
O O6 0.042602 0.877275 0.000000
O O7 0.428689 0.210165 0.830769
O O8 0.498950 0.078112 0.817402
O O9 0.497652 0.155050 0.000000
O O10 0.154780 0.261531 0.500000
#
# Coordination Sequence:
#
# PCOD9546189 Si02
#       5
#    16  16  16   4  16
#     4  11  20  36  59  81 113 150 191 234 293 340
#     4   9  18  33  54  82 114 148 189 236 285 342
#     4  11  23  40  61  85 116 151 194 239 283 345
#     4  12  22  44  60  86 112 160 194 232 292 334
#     4  10  22  37  55  82 114 147 189 240 286 338
#
# _framework density 8.7448560000000004
#
# number of rings (size 3 to 8) (size 9 to 14) (size 15 to 20)
#    0.000    1.647    2.353    3.882    0.000    0.000 
#    0.000    0.000    0.000    0.000    0.000    9.882 
#    0.000    0.000    0.000    0.000    0.000    0.000 
#
# Total GULP energy -189655.468989 kJ/mol
# GULP energy per Si atom -5578.102029 kJ/mol
# Density = 0.872495 g / cm^3
# Si number density = 8.744856 Si / 1000 Ang^3
#
#
#
# Elastic Constant Matrix: (Units=GPa)
#
#
# Indices 1 2 3 4 5 6 
#
# 1 90.4271 50.1262 26.4927 0.0000 0.0000 5.3453
# 2 50.1262 90.4271 26.4927 0.0000 0.0000 -5.3453
# 3 26.4927 26.4927 30.8521 0.0000 0.0000 0.0000
# 4 0.0000 0.0000 0.0000 14.4306 0.0000 0.0000
# 5 0.0000 0.0000 0.0000 0.0000 14.4306 0.0000
# 6 5.3453 -5.3453 0.0000 0.0000 0.0000 37.0379
#
#
#
# Elastic Compliance Matrix: (Units=1/GPa)
#
#
# Indices 1 2 3 4 5 6 
#
# 1 0.018161 -0.007640 -0.009034 0.000000 0.000000 -0.003724
# 2 -0.007640 0.018161 -0.009034 0.000000 0.000000 0.003724
# 3 -0.009034 -0.009034 0.047927 0.000000 0.000000 0.000000
# 4 0.000000 0.000000 0.000000 0.069297 0.000000 0.000000
# 5 0.000000 0.000000 0.000000 0.000000 0.069297 0.000000
# 6 -0.003724 0.003724 0.000000 0.000000 0.000000 0.028074
#
#
# Mechanical properties :
#
#
# Convention : Reuss Voigt Hill
#
# Bulk Modulus (GPa) = 30.45736 46.43658 38.44697
# Shear Modulus (GPa) = 15.96032 20.41948 18.18990
#
# Velocity S-wave (km/s) = 3.02413 3.42060 3.22845
# Velocity P-wave (km/s) = 5.44482 6.49685 5.99396
#
# Compressibility (1/GPa) = 0.03283279
#
# Stress axis : x y z
#
# Youngs Moduli (GPa) = 55.06415 55.06415 20.86500
#
# Poissons Ratio (x) = 0.42071 0.18849
# Poissons Ratio (y) = 0.42071 0.18849
# Poissons Ratio (z) = 0.49743 0.49743
#
# Static dielectric constant tensor:
#      x y z
#    x 1.583140 0.000000 0.000000 
#    y 0.000000 1.583140 0.000000 
#    z 0.000000 0.000000 1.567910 
# 
# From -- ./inp_files/2438.got.cif
#   From: 2010.05.17/outbox.ucp.g08.bks.cvg/sg87_2_cif.got.tgz:2438.got - 2010.06.11 10:35:24.
