data_PCOD9546958
_publ_section_title
;
Structure prediction by ZEFSAII (Michael W. Deem and Ramdas Pophale) SiO2 
 PCOD9546958
Probable space group: P 4 2 2
;
_chemical_formula_sum "Si O2"
_cell_formula_units_Z 26
_cell_length_a 8.973599
_cell_length_b 8.973599
_cell_length_c 18.814305
_cell_angle_alpha 90.000000
_cell_angle_beta 90.000000
_cell_angle_gamma 90.000000
_cell_volume 1515.030922
_symmetry_space_group_name_H-M "P 4 2 2"
_symmetry_group_IT_number 89
_symmetry_cell_setting 'tetragonal'
loop_
_space_group_symop_operation_xyz
x,y,z
-y,x,z
-x,-y,z
y,-x,z
x,-y,-z
-x,y,-z
y,x,-z
-y,-x,-z
loop_
_atom_site_type_symbol
_atom_site_label
_atom_site_fract_x
_atom_site_fract_y
_atom_site_fract_z
Si Si1 0.000000 0.500000 0.380331
Si Si2 0.754419 0.057482 0.103225
Si Si3 0.500000 0.000000 0.000000
Si Si4 0.500000 0.249042 0.500000
Si Si5 0.754203 0.960844 0.733432
O O1 0.141102 0.518877 0.432217
O O2 0.042429 0.366660 0.327518
O O3 0.615543 0.085066 0.051673
O O4 0.701350 0.057981 0.185159
O O5 0.892493 0.171700 0.092269
O O6 0.643458 0.356543 0.500000
O O7 0.880939 0.836459 0.726077
#
# Coordination Sequence:
#
# PCOD9546958 Si02
#       5
#     4   8   2   4   8
#     4  11  19  32  55  77  96 126 170 207 237 284
#     4   9  19  34  50  71  99 128 160 201 249 296
#     4  12  18  26  50  74  92 124 168 194 222 282
#     4  10  22  36  48  70 106 140 164 192 238 294
#     4   9  18  33  52  74  98 123 158 207 254 290
#
# _framework density 17.161365
#
# number of rings (size 3 to 8) (size 9 to 14) (size 15 to 20)
#    0.000    2.308    0.000    5.538    0.000    1.231 
#    0.000    0.000    0.000   14.769    0.000   25.846 
#    0.000    0.000    0.000    0.000    0.000    0.000 
#
# Total GULP energy -144857.765076 kJ/mol
# GULP energy per Si atom -5571.452503 kJ/mol
# Density = 1.712231 g / cm^3
# Si number density = 17.161365 Si / 1000 Ang^3
#
#
#
# Elastic Constant Matrix: (Units=GPa)
#
#
# Indices 1 2 3 4 5 6 
#
# 1 85.0177 13.8846 55.5940 0.0000 0.0000 0.0000
# 2 13.8846 85.0183 55.5941 0.0000 0.0000 0.0000
# 3 55.5940 55.5941 138.5239 0.0000 0.0000 0.0000
# 4 0.0000 0.0000 0.0000 25.4565 0.0000 0.0000
# 5 0.0000 0.0000 0.0000 0.0000 25.4547 0.0000
# 6 0.0000 0.0000 0.0000 0.0000 0.0000 26.3338
#
#
#
# Elastic Compliance Matrix: (Units=1/GPa)
#
#
# Indices 1 2 3 4 5 6 
#
# 1 0.016241 0.002183 -0.007394 0.000000 0.000000 0.000000
# 2 0.002183 0.016241 -0.007394 0.000000 0.000000 0.000000
# 3 -0.007394 -0.007394 0.013154 0.000000 0.000000 0.000000
# 4 0.000000 0.000000 0.000000 0.039283 0.000000 0.000000
# 5 0.000000 0.000000 0.000000 0.000000 0.039285 0.000000
# 6 0.000000 0.000000 0.000000 0.000000 0.000000 0.037974
#
#
# Mechanical properties :
#
#
# Convention : Reuss Voigt Hill
#
# Bulk Modulus (GPa) = 48.95990 62.07837 55.51913
# Shear Modulus (GPa) = 25.74722 27.68148 26.71435
#
# Velocity S-wave (km/s) = 3.87757 4.02059 3.94973
# Velocity P-wave (km/s) = 6.97413 7.60298 7.29534
#
# Compressibility (1/GPa) = 0.02042488
#
# Stress axis : x y z
#
# Youngs Moduli (GPa) = 61.57354 61.57409 76.02407
#
# Poissons Ratio (x) = -0.13439 0.56211
# Poissons Ratio (y) = -0.13439 0.56211
# Poissons Ratio (z) = 0.45527 0.45527
#
# Static dielectric constant tensor:
#      x y z
#    x 1.565510 0.000000 0.000000 
#    y 0.000000 1.565510 0.000000 
#    z 0.000000 0.000000 1.628740 
# 
# From -- ./inp_files/2320.got.cif
#   From: 2010.05.17/outbox.cif.g08.bks.cpg/sg89_2_cif.got.tgz:2320.got - 2010.06.03 19:15:31.
