data_PCOD9546234
_publ_section_title
;
Structure prediction by ZEFSAII (Michael W. Deem and Ramdas Pophale) SiO2 
 PCOD9546234
Probable space group: I 41/A
;
_chemical_formula_sum "Si O2"
_cell_formula_units_Z 96
_cell_length_a 17.115562
_cell_length_b 17.115562
_cell_length_c 14.097654
_cell_angle_alpha 90.000000
_cell_angle_beta 90.000000
_cell_angle_gamma 90.000000
_cell_volume 4129.801479
_symmetry_space_group_name_H-M "I 41/A"
_symmetry_group_IT_number 88
_space_group.IT_coordinate_system_code '2'
_symmetry_cell_setting 'tetragonal'
loop_
_space_group_symop_operation_xyz
x,y,z
3/4-y,1/4+x,1/4+z
-x,1/2-y,z
1/4+y,1/4-x,1/4+z
-x,-y,-z
1/4+y,3/4-x,3/4-z
x,1/2+y,-z
3/4-y,3/4+x,3/4-z
1/2+x,1/2+y,1/2+z
1/4-y,3/4+x,3/4+z
1/2-x,-y,1/2+z
3/4+y,3/4-x,3/4+z
1/2-x,1/2-y,1/2-z
3/4+y,1/4-x,1/4-z
1/2+x,y,1/2-z
1/4-y,1/4+x,1/4-z
loop_
_atom_site_type_symbol
_atom_site_label
_atom_site_fract_x
_atom_site_fract_y
_atom_site_fract_z
Si Si1 0.607068 0.685886 0.124835
Si Si2 0.288755 0.539752 0.636675
Si Si3 0.364831 0.979196 0.180121
Si Si4 0.526842 0.520821 0.788816
Si Si5 0.370318 0.755925 0.643116
Si Si6 0.664290 0.136595 0.204854
O O1 0.522305 0.659360 0.082713
O O2 0.624495 0.613629 0.195316
O O3 0.681798 0.691882 0.054404
O O4 0.239244 0.459788 0.636444
O O5 0.341110 0.527784 0.727868
O O6 0.343033 0.549009 0.546556
O O7 0.230721 0.612998 0.631735
O O8 0.447055 0.015844 0.149675
O O9 0.502649 0.550980 0.683223
O O10 0.586673 0.588395 0.821272
O O11 0.428367 0.826612 0.612094
O O12 0.348476 0.777595 0.752076
#
# Coordination Sequence:
#
# PCOD9546234 Si02
#       6
#    16  16  16  16  16  16
#     4   9  18  33  55  82 114 155 190 236 296 349
#     4  10  20  34  54  82 116 148 200 242 292 344
#     4  10  19  35  54  82 112 156 191 249 284 357
#     4  10  18  34  56  80 114 152 196 234 298 356
#     4   9  18  33  55  82 114 155 190 236 296 349
#     4  10  19  35  54  82 112 156 191 249 284 357
#
# _framework density 23.24567
#
# number of rings (size 3 to 8) (size 9 to 14) (size 15 to 20)
#    0.000    2.333    3.333    0.000    0.000    0.000 
#    0.000   10.000    0.000    0.000    0.000    0.000 
#    0.000    0.000    0.000    0.000    0.000    0.000 
#
# Total GULP energy -267208.773202 kJ/mol
# GULP energy per Si atom -5566.849442 kJ/mol
# Density = 2.319276 g / cm^3
# Si number density = 23.245670 Si / 1000 Ang^3
#
#
#
# Elastic Constant Matrix: (Units=GPa)
#
#
# Indices 1 2 3 4 5 6 
#
# 1 120.4784 35.6002 19.6322 0.0000 0.0000 4.1741
# 2 35.6002 120.4784 19.6322 0.0000 0.0000 -4.1741
# 3 19.6322 19.6322 9.2043 0.0000 0.0000 0.0000
# 4 0.0000 0.0000 0.0000 25.5886 0.0000 0.0000
# 5 0.0000 0.0000 0.0000 0.0000 25.5886 0.0000
# 6 4.1741 -4.1741 0.0000 0.0000 0.0000 40.4341
#
#
#
# Elastic Compliance Matrix: (Units=1/GPa)
#
#
# Indices 1 2 3 4 5 6 
#
# 1 0.012864 0.000962 -0.029489 0.000000 0.000000 -0.001229
# 2 0.000962 0.012864 -0.029489 0.000000 0.000000 0.001229
# 3 -0.029489 -0.029489 0.234440 0.000000 0.000000 0.000000
# 4 0.000000 0.000000 0.000000 0.039080 0.000000 0.000000
# 5 0.000000 0.000000 0.000000 0.000000 0.039080 0.000000
# 6 -0.001229 0.001229 0.000000 0.000000 0.000000 0.024985
#
#
# Mechanical properties :
#
#
# Convention : Reuss Voigt Hill
#
# Bulk Modulus (GPa) = 6.93790 44.43227 25.68509
# Shear Modulus (GPa) = 9.48063 30.00870 19.74467
#
# Velocity S-wave (km/s) = 2.02171 3.59686 2.91759
# Velocity P-wave (km/s) = 2.90531 6.03370 4.73531
#
# Compressibility (1/GPa) = 0.14413585
#
# Stress axis : x y z
#
# Youngs Moduli (GPa) = 77.73652 77.73652 4.26548
#
# Poissons Ratio (x) = -0.07475 0.12578
# Poissons Ratio (y) = -0.07475 0.12578
# Poissons Ratio (z) = 2.29236 2.29236
#
# Static dielectric constant tensor:
#      x y z
#    x 1.951480 0.000000 0.000000 
#    y 0.000000 1.951480 0.000000 
#    z 0.000000 0.000000 1.995790 
# 
# From -- ./inp_files/3936.got.cif
#   From: 2010.05.17/outbox.cif.g08.bks.cpg/sg88_2_cif.got.tgz:3936.got - 2010.06.03 19:11:41.
