data_PCOD9546403
_publ_section_title
;
Structure prediction by ZEFSAII (Michael W. Deem and Ramdas Pophale) SiO2 
 PCOD9546403
Probable space group: I 41/A
;
_chemical_formula_sum "Si O2"
_cell_formula_units_Z 96
_cell_length_a 18.578992
_cell_length_b 18.578992
_cell_length_c 13.550120
_cell_angle_alpha 90.000000
_cell_angle_beta 90.000000
_cell_angle_gamma 90.000000
_cell_volume 4677.216109
_symmetry_space_group_name_H-M "I 41/A"
_symmetry_group_IT_number 88
_space_group.IT_coordinate_system_code '2'
_symmetry_cell_setting 'tetragonal'
loop_
_space_group_symop_operation_xyz
x,y,z
3/4-y,1/4+x,1/4+z
-x,1/2-y,z
1/4+y,1/4-x,1/4+z
-x,-y,-z
1/4+y,3/4-x,3/4-z
x,1/2+y,-z
3/4-y,3/4+x,3/4-z
1/2+x,1/2+y,1/2+z
1/4-y,3/4+x,3/4+z
1/2-x,-y,1/2+z
3/4+y,3/4-x,3/4+z
1/2-x,1/2-y,1/2-z
3/4+y,1/4-x,1/4-z
1/2+x,y,1/2-z
1/4-y,1/4+x,1/4-z
loop_
_atom_site_type_symbol
_atom_site_label
_atom_site_fract_x
_atom_site_fract_y
_atom_site_fract_z
Si Si1 0.563014 0.643365 0.998334
Si Si2 0.891495 0.849442 0.280820
Si Si3 0.685547 0.436794 0.461538
Si Si4 0.077781 0.549679 0.945077
Si Si5 0.652239 0.016715 0.080446
Si Si6 0.996253 0.915121 0.133554
O O1 0.478176 0.640057 0.977001
O O2 0.570442 0.661737 0.113781
O O3 0.604601 0.568309 0.986935
O O4 0.607320 0.697099 0.927040
O O5 0.812953 0.877472 0.308165
O O6 0.931745 0.906571 0.211331
O O7 0.626373 0.495472 0.488596
O O8 0.660721 0.384023 0.375130
O O9 0.706079 0.390715 0.558127
O O10 0.762034 0.473251 0.434046
O O11 0.153569 0.781988 0.728332
O O12 0.031628 0.494384 0.877222
#
# Coordination Sequence:
#
# PCOD9546403 Si02
#       6
#    16  16  16  16  16  16
#     4  12  23  43  65  93 140 180 215 276 341 413
#     4  12  25  39  65 100 135 177 222 272 345 418
#     4  10  20  41  69  91 134 169 220 297 335 394
#     4  10  23  42  68  94 127 174 229 277 348 398
#     4  11  22  41  66  99 131 168 230 284 346 396
#     4  11  23  42  64  93 129 179 221 264 334 422
#
# _framework density 20.525030000000001
#
# number of rings (size 3 to 8) (size 9 to 14) (size 15 to 20)
#    0.000    1.000    6.667    1.000    4.667    0.000 
#    0.000    1.667    0.000    0.000    0.000    0.000 
#    0.000    0.000    0.000    0.000    0.000    0.000 
#
# Total GULP energy -267946.018552 kJ/mol
# GULP energy per Si atom -5582.208720 kJ/mol
# Density = 2.047831 g / cm^3
# Si number density = 20.525030 Si / 1000 Ang^3
#
#
#
# Elastic Constant Matrix: (Units=GPa)
#
#
# Indices 1 2 3 4 5 6 
#
# 1 49.8827 -8.3336 28.1595 0.0000 0.0000 -0.7680
# 2 -8.3336 49.8827 28.1595 0.0000 0.0000 0.7680
# 3 28.1595 28.1595 92.7559 0.0000 0.0000 0.0000
# 4 0.0000 0.0000 0.0000 30.7762 0.0000 0.0000
# 5 0.0000 0.0000 0.0000 0.0000 30.7762 0.0000
# 6 -0.7680 0.7680 0.0000 0.0000 0.0000 11.8161
#
#
#
# Elastic Compliance Matrix: (Units=1/GPa)
#
#
# Indices 1 2 3 4 5 6 
#
# 1 0.029052 0.011845 -0.012416 0.000000 0.000000 0.001118
# 2 0.011845 0.029052 -0.012416 0.000000 0.000000 -0.001118
# 3 -0.012416 -0.012416 0.018320 0.000000 0.000000 0.000000
# 4 0.000000 0.000000 0.000000 0.032493 0.000000 0.000000
# 5 0.000000 0.000000 0.000000 0.000000 0.032493 0.000000
# 6 0.001118 -0.001118 0.000000 0.000000 0.000000 0.084776
#
#
# Mechanical properties :
#
#
# Convention : Reuss Voigt Hill
#
# Bulk Modulus (GPa) = 19.82129 32.05466 25.93797
# Shear Modulus (GPa) = 18.58909 24.30942 21.44925
#
# Velocity S-wave (km/s) = 3.01272 3.44521 3.23620
# Velocity P-wave (km/s) = 4.66691 5.61046 5.16029
#
# Compressibility (1/GPa) = 0.05045081
#
# Stress axis : x y z
#
# Youngs Moduli (GPa) = 34.42087 34.42087 54.58627
#
# Poissons Ratio (x) = -0.40773 0.67774
# Poissons Ratio (y) = -0.40773 0.67774
# Poissons Ratio (z) = 0.42737 0.42737
#
# Static dielectric constant tensor:
#      x y z
#    x 1.758060 0.000000 0.000000 
#    y 0.000000 1.758060 0.000000 
#    z 0.000000 0.000000 1.768150 
# 
# From -- ./inp_files/3945.got.cif
#   From: 2010.05.17/outbox.cif.g08.bks.cpg/sg88_2_cif.got.tgz:3945.got - 2010.06.03 19:11:41.
