data_PCOD9546778
_publ_section_title
;
Structure prediction by ZEFSAII (Michael W. Deem and Ramdas Pophale) SiO2 
 PCOD9546778
Probable space group: I 41/A
;
_chemical_formula_sum "Si O2"
_cell_formula_units_Z 64
_cell_length_a 12.808517
_cell_length_b 12.808517
_cell_length_c 19.970981
_cell_angle_alpha 90.000000
_cell_angle_beta 90.000000
_cell_angle_gamma 90.000000
_cell_volume 3276.401353
_symmetry_space_group_name_H-M "I 41/A"
_symmetry_group_IT_number 88
_space_group.IT_coordinate_system_code '2'
_symmetry_cell_setting 'tetragonal'
loop_
_space_group_symop_operation_xyz
x,y,z
3/4-y,1/4+x,1/4+z
-x,1/2-y,z
1/4+y,1/4-x,1/4+z
-x,-y,-z
1/4+y,3/4-x,3/4-z
x,1/2+y,-z
3/4-y,3/4+x,3/4-z
1/2+x,1/2+y,1/2+z
1/4-y,3/4+x,3/4+z
1/2-x,-y,1/2+z
3/4+y,3/4-x,3/4+z
1/2-x,1/2-y,1/2-z
3/4+y,1/4-x,1/4-z
1/2+x,y,1/2-z
1/4-y,1/4+x,1/4-z
loop_
_atom_site_type_symbol
_atom_site_label
_atom_site_fract_x
_atom_site_fract_y
_atom_site_fract_z
Si Si1 0.983058 0.123301 0.229708
Si Si2 0.998620 0.126765 0.388609
Si Si3 0.169218 0.976043 0.197687
Si Si4 0.276050 0.553693 0.927311
O O1 0.990901 0.100338 0.309478
O O2 0.000000 0.250000 0.219646
O O3 0.877711 0.069035 0.202154
O O4 0.070797 0.053263 0.193292
O O5 0.894382 0.095147 0.428708
O O6 0.000000 0.250000 0.389973
O O7 0.107949 0.093504 0.421628
O O8 0.205299 0.976732 0.273930
O O9 0.255181 0.025431 0.149243
#
# Coordination Sequence:
#
# PCOD9546778 Si02
#       4
#    16  16  16  16
#     4  11  26  42  65 105 135 173 227 278 348 405
#     4  11  23  45  70  93 136 183 222 281 342 405
#     4  12  25  43  69  98 137 179 229 282 336 405
#     4  12  25  43  69  98 137 179 229 282 336 405
#
# _framework density 19.533628
#
# number of rings (size 3 to 8) (size 9 to 14) (size 15 to 20)
#    0.000    0.500    7.500    0.750    3.500    1.000 
#    0.000    0.000    0.000    0.000    0.000    0.000 
#    0.000    0.000    0.000    0.000    0.000    0.000 
#
# Total GULP energy -178383.735531 kJ/mol
# GULP energy per Si atom -5574.491735 kJ/mol
# Density = 1.948917 g / cm^3
# Si number density = 19.533628 Si / 1000 Ang^3
#
#
#
# Elastic Constant Matrix: (Units=GPa)
#
#
# Indices 1 2 3 4 5 6 
#
# 1 87.9909 44.1158 8.2185 0.0000 0.0000 8.3500
# 2 44.1158 87.9909 8.2185 0.0000 0.0000 -8.3500
# 3 8.2185 8.2185 35.2988 0.0000 0.0000 0.0000
# 4 0.0000 0.0000 0.0000 24.4669 0.0000 0.0000
# 5 0.0000 0.0000 0.0000 0.0000 24.4669 0.0000
# 6 8.3500 -8.3500 0.0000 0.0000 0.0000 23.9811
#
#
#
# Elastic Compliance Matrix: (Units=1/GPa)
#
#
# Indices 1 2 3 4 5 6 
#
# 1 0.017035 -0.009239 -0.001815 0.000000 0.000000 -0.009148
# 2 -0.009239 0.017035 -0.001815 0.000000 0.000000 0.009148
# 3 -0.001815 -0.001815 0.029175 0.000000 0.000000 0.000000
# 4 0.000000 0.000000 0.000000 0.040872 0.000000 0.000000
# 5 0.000000 0.000000 0.000000 0.000000 0.040872 0.000000
# 6 -0.009148 0.009148 0.000000 0.000000 0.000000 0.048070
#
#
# Mechanical properties :
#
#
# Convention : Reuss Voigt Hill
#
# Bulk Modulus (GPa) = 26.66266 36.93183 31.79724
# Shear Modulus (GPa) = 21.61712 24.63150 23.12431
#
# Velocity S-wave (km/s) = 3.33026 3.55488 3.44440
# Velocity P-wave (km/s) = 5.33543 5.98309 5.66852
#
# Compressibility (1/GPa) = 0.03750564
#
# Stress axis : x y z
#
# Youngs Moduli (GPa) = 58.70347 58.70347 34.27626
#
# Poissons Ratio (x) = 0.54238 0.06221
# Poissons Ratio (y) = 0.54238 0.06221
# Poissons Ratio (z) = 0.10655 0.10655
#
# Static dielectric constant tensor:
#      x y z
#    x 2.179620 0.000000 0.000000 
#    y 0.000000 2.179620 0.000000 
#    z 0.000000 0.000000 1.707100 
# 
# From -- ./inp_files/4386.got.cif
#   From: 2010.05.17/outbox.cif.g08.bks.cpg/sg88_3_cif.got.tgz:4386.got - 2010.06.03 19:11:41.
