data_PCOD9546299
_publ_section_title
;
Structure prediction by ZEFSAII (Michael W. Deem and Ramdas Pophale) SiO2 
 PCOD9546299
Probable space group: I 41/A
;
_chemical_formula_sum "Si O2"
_cell_formula_units_Z 88
_cell_length_a 12.738790
_cell_length_b 12.738790
_cell_length_c 23.806378
_cell_angle_alpha 90.000000
_cell_angle_beta 90.000000
_cell_angle_gamma 90.000000
_cell_volume 3863.222143
_symmetry_space_group_name_H-M "I 41/A"
_symmetry_group_IT_number 88
_space_group.IT_coordinate_system_code '2'
_symmetry_cell_setting 'tetragonal'
loop_
_space_group_symop_operation_xyz
x,y,z
3/4-y,1/4+x,1/4+z
-x,1/2-y,z
1/4+y,1/4-x,1/4+z
-x,-y,-z
1/4+y,3/4-x,3/4-z
x,1/2+y,-z
3/4-y,3/4+x,3/4-z
1/2+x,1/2+y,1/2+z
1/4-y,3/4+x,3/4+z
1/2-x,-y,1/2+z
3/4+y,3/4-x,3/4+z
1/2-x,1/2-y,1/2-z
3/4+y,1/4-x,1/4-z
1/2+x,y,1/2-z
1/4-y,1/4+x,1/4-z
loop_
_atom_site_type_symbol
_atom_site_label
_atom_site_fract_x
_atom_site_fract_y
_atom_site_fract_z
Si Si1 0.195967 0.725056 0.086347
Si Si2 0.358845 0.217581 0.340124
Si Si3 0.159200 0.821818 0.200511
Si Si4 0.500000 0.750000 0.486994
Si Si5 0.658043 0.896687 0.004830
Si Si6 0.678035 0.290233 0.102129
O O1 0.219725 0.790768 0.142613
O O2 0.295296 0.678524 0.053135
O O3 0.126048 0.630593 0.111256
O O4 0.106069 0.776747 0.046959
O O5 0.389348 0.329929 0.368730
O O6 0.404439 0.219322 0.278475
O O7 0.238842 0.217003 0.354012
O O8 0.142445 0.716753 0.238305
O O9 0.229954 0.911703 0.229381
O O10 0.045724 0.860685 0.181660
O O11 0.722143 0.860176 0.949659
#
# Coordination Sequence:
#
# PCOD9546299 Si02
#       6
#    16  16  16   8  16  16
#     4  11  21  42  65  96 132 174 223 282 346 419
#     4   9  20  36  60  94 132 165 216 272 338 421
#     4  10  23  46  66  95 135 179 229 293 338 408
#     4  10  19  40  60  98 140 170 213 276 358 418
#     4  10  22  43  66  91 127 180 231 274 341 410
#     4  11  22  43  69  92 136 179 223 289 348 405
#
# _framework density 22.778914
#
# number of rings (size 3 to 8) (size 9 to 14) (size 15 to 20)
#    0.000    2.000    1.818    3.818    2.545    0.727 
#   13.091    0.000    0.000    0.000    0.000    0.000 
#    0.000    0.000    0.000    0.000    0.000    0.000 
#
# Total GULP energy -244942.269864 kJ/mol
# GULP energy per Si atom -5566.869770 kJ/mol
# Density = 2.272707 g / cm^3
# Si number density = 22.778914 Si / 1000 Ang^3
#
#
#
# Elastic Constant Matrix: (Units=GPa)
#
#
# Indices 1 2 3 4 5 6 
#
# 1 62.2155 14.5558 34.8973 0.0000 0.0000 -2.7219
# 2 14.5558 62.2155 34.8973 0.0000 0.0000 2.7219
# 3 34.8973 34.8973 106.2264 0.0000 0.0000 0.0000
# 4 0.0000 0.0000 0.0000 21.2701 0.0000 0.0000
# 5 0.0000 0.0000 0.0000 0.0000 21.2701 0.0000
# 6 -2.7219 2.7219 0.0000 0.0000 0.0000 29.2519
#
#
#
# Elastic Compliance Matrix: (Units=1/GPa)
#
#
# Indices 1 2 3 4 5 6 
#
# 1 0.019890 -0.001317 -0.006101 0.000000 0.000000 0.001973
# 2 -0.001317 0.019890 -0.006101 0.000000 0.000000 -0.001973
# 3 -0.006101 -0.006101 0.013423 0.000000 0.000000 0.000000
# 4 0.000000 0.000000 0.000000 0.047014 0.000000 0.000000
# 5 0.000000 0.000000 0.000000 0.000000 0.047014 0.000000
# 6 0.001973 -0.001973 0.000000 0.000000 0.000000 0.034553
#
#
# Mechanical properties :
#
#
# Convention : Reuss Voigt Hill
#
# Bulk Modulus (GPa) = 38.22301 44.37314 41.29807
# Shear Modulus (GPa) = 22.98366 24.11224 23.54795
#
# Velocity S-wave (km/s) = 3.17990 3.25704 3.21870
# Velocity P-wave (km/s) = 5.50443 5.80229 5.65533
#
# Compressibility (1/GPa) = 0.02616225
#
# Stress axis : x y z
#
# Youngs Moduli (GPa) = 50.27631 50.27631 74.50048
#
# Poissons Ratio (x) = 0.06623 0.45456
# Poissons Ratio (y) = 0.06623 0.45456
# Poissons Ratio (z) = 0.30676 0.30676
#
# Static dielectric constant tensor:
#      x y z
#    x 2.084080 0.000000 0.000000 
#    y 0.000000 2.084080 0.000000 
#    z 0.000000 0.000000 1.895330 
# 
# From -- ./inp_files/5231.got.cif
#   From: 2010.05.17/outbox.cif.g08.bks.cpg/sg88_3_cif.got.tgz:5231.got - 2010.06.03 19:11:41.
