data_PCOD9546420
_publ_section_title
;
Structure prediction by ZEFSAII (Michael W. Deem and Ramdas Pophale) SiO2 
 PCOD9546420
Probable space group: I 41/A
;
_chemical_formula_sum "Si O2"
_cell_formula_units_Z 100
_cell_length_a 13.817198
_cell_length_b 13.817198
_cell_length_c 25.303850
_cell_angle_alpha 90.000000
_cell_angle_beta 90.000000
_cell_angle_gamma 90.000000
_cell_volume 4830.883525
_symmetry_space_group_name_H-M "I 41/A"
_symmetry_group_IT_number 88
_space_group.IT_coordinate_system_code '2'
_symmetry_cell_setting 'tetragonal'
loop_
_space_group_symop_operation_xyz
x,y,z
3/4-y,1/4+x,1/4+z
-x,1/2-y,z
1/4+y,1/4-x,1/4+z
-x,-y,-z
1/4+y,3/4-x,3/4-z
x,1/2+y,-z
3/4-y,3/4+x,3/4-z
1/2+x,1/2+y,1/2+z
1/4-y,3/4+x,3/4+z
1/2-x,-y,1/2+z
3/4+y,3/4-x,3/4+z
1/2-x,1/2-y,1/2-z
3/4+y,1/4-x,1/4-z
1/2+x,y,1/2-z
1/4-y,1/4+x,1/4-z
loop_
_atom_site_type_symbol
_atom_site_label
_atom_site_fract_x
_atom_site_fract_y
_atom_site_fract_z
Si Si1 0.424447 0.874768 0.016238
Si Si2 0.346510 0.375546 0.717801
Si Si3 0.842833 0.077379 0.846762
Si Si4 0.214457 0.081800 0.943690
Si Si5 0.018938 0.946050 0.355399
Si Si6 0.500000 0.750000 0.125000
Si Si7 0.386388 0.217064 0.140185
O O1 0.535657 0.856045 0.999339
O O2 0.359360 0.806098 0.053230
O O3 0.371575 0.873643 0.958895
O O4 0.409091 0.985004 0.037025
O O5 0.341716 0.475275 0.751507
O O6 0.402109 0.381127 0.662461
O O7 0.774642 0.156856 0.874717
O O8 0.937415 0.070781 0.882972
O O9 0.772324 0.988825 0.832127
O O10 0.261821 0.165457 0.907618
O O11 0.101062 0.106510 0.939376
O O12 0.014619 0.857838 0.397318
O O13 0.500000 0.250000 0.142341
#
# Coordination Sequence:
#
# PCOD9546420 Si02
#       7
#    16  16  16  16  16   4  16
#     4  10  21  35  58  90 131 166 196 250 324 402
#     4  10  21  36  58  91 131 168 211 253 317 405
#     4  11  23  39  58  89 127 168 210 257 317 393
#     4  11  23  36  58  90 119 165 220 256 314 379
#     4  12  21  33  53  86 124 161 197 247 309 393
#     4  12  24  28  52  88 136 164 180 240 316 396
#     4  12  22  40  63  91 129 176 216 263 324 393
#
# _framework density 20.700147999999999
#
# number of rings (size 3 to 8) (size 9 to 14) (size 15 to 20)
#    0.000    0.960    4.800    2.880    4.480    0.000 
#    0.000    0.000    0.000    9.120    0.000    0.000 
#    0.000    0.000    0.000    0.000    0.000    0.000 
#
# Total GULP energy -279047.371351 kJ/mol
# GULP energy per Si atom -5580.947427 kJ/mol
# Density = 2.065303 g / cm^3
# Si number density = 20.700148 Si / 1000 Ang^3
#
#
#
# Elastic Constant Matrix: (Units=GPa)
#
#
# Indices 1 2 3 4 5 6 
#
# 1 121.1066 19.6626 23.6437 0.0000 0.0000 -6.4113
# 2 19.6626 121.1066 23.6437 0.0000 0.0000 6.4113
# 3 23.6437 23.6437 61.1825 0.0000 0.0000 0.0000
# 4 0.0000 0.0000 0.0000 26.6075 0.0000 0.0000
# 5 0.0000 0.0000 0.0000 0.0000 26.6075 0.0000
# 6 -6.4113 6.4113 0.0000 0.0000 0.0000 17.1402
#
#
#
# Elastic Compliance Matrix: (Units=1/GPa)
#
#
# Indices 1 2 3 4 5 6 
#
# 1 0.009255 -0.001092 -0.003155 0.000000 0.000000 0.003870
# 2 -0.001092 0.009255 -0.003155 0.000000 0.000000 -0.003870
# 3 -0.003155 -0.003155 0.018783 0.000000 0.000000 0.000000
# 4 0.000000 0.000000 0.000000 0.037583 0.000000 0.000000
# 5 0.000000 0.000000 0.000000 0.000000 0.037583 0.000000
# 6 0.003870 -0.003870 0.000000 0.000000 0.000000 0.061238
#
#
# Mechanical properties :
#
#
# Convention : Reuss Voigt Hill
#
# Bulk Modulus (GPa) = 44.46243 48.58841 46.52542
# Shear Modulus (GPa) = 25.51057 29.83409 27.67233
#
# Velocity S-wave (km/s) = 3.51434 3.80050 3.66022
# Velocity P-wave (km/s) = 6.16388 6.54078 6.35513
#
# Compressibility (1/GPa) = 0.02249090
#
# Stress axis : x y z
#
# Youngs Moduli (GPa) = 108.04718 108.04718 53.24008
#
# Poissons Ratio (x) = 0.11795 0.16796
# Poissons Ratio (y) = 0.11795 0.16796
# Poissons Ratio (z) = 0.34086 0.34086
#
# Static dielectric constant tensor:
#      x y z
#    x 1.803930 0.000000 0.000000 
#    y 0.000000 1.803930 0.000000 
#    z 0.000000 0.000000 1.953540 
# 
# From -- ./inp_files/5827.got.cif
#   From: 2010.05.17/outbox.cif.g08.bks.cpg/sg88_3_cif.got.tgz:5827.got - 2010.06.03 19:11:41.
