data_PCOD9546458
_publ_section_title
;
Structure prediction by ZEFSAII (Michael W. Deem and Ramdas Pophale) SiO2 
 PCOD9546458
Probable space group: I 41/A
;
_chemical_formula_sum "Si O2"
_cell_formula_units_Z 52
_cell_length_a 15.254646
_cell_length_b 15.254646
_cell_length_c 8.535001
_cell_angle_alpha 90.000000
_cell_angle_beta 90.000000
_cell_angle_gamma 90.000000
_cell_volume 1986.130790
_symmetry_space_group_name_H-M "I 41/A"
_symmetry_group_IT_number 88
_space_group.IT_coordinate_system_code '2'
_symmetry_cell_setting 'tetragonal'
loop_
_space_group_symop_operation_xyz
x,y,z
3/4-y,1/4+x,1/4+z
-x,1/2-y,z
1/4+y,1/4-x,1/4+z
-x,-y,-z
1/4+y,3/4-x,3/4-z
x,1/2+y,-z
3/4-y,3/4+x,3/4-z
1/2+x,1/2+y,1/2+z
1/4-y,3/4+x,3/4+z
1/2-x,-y,1/2+z
3/4+y,3/4-x,3/4+z
1/2-x,1/2-y,1/2-z
3/4+y,1/4-x,1/4-z
1/2+x,y,1/2-z
1/4-y,1/4+x,1/4-z
loop_
_atom_site_type_symbol
_atom_site_label
_atom_site_fract_x
_atom_site_fract_y
_atom_site_fract_z
Si Si1 0.000000 0.750000 0.875000
Si Si2 0.644579 0.653900 0.461892
Si Si3 0.432760 0.985722 0.644188
Si Si4 0.383109 0.337931 0.878037
O O1 0.933121 0.704853 0.756981
O O2 0.647519 0.576259 0.589092
O O3 0.695122 0.745340 0.485123
O O4 0.651390 0.621652 0.284839
O O5 0.395580 0.072731 0.723405
O O6 0.500000 0.000000 0.500000
O O7 0.483141 0.365518 0.899684
#
# Coordination Sequence:
#
# PCOD9546458 Si02
#       4
#     4  16  16  16
#     4   8  16  32  62  92 124 164 230 284 328 396
#     4  10  21  38  63  96 130 177 222 280 345 405
#     4  11  23  41  67  96 137 175 226 285 344 408
#     4  11  22  38  69 103 133 176 234 287 340 414
#
# _framework density 26.181557000000002
#
# number of rings (size 3 to 8) (size 9 to 14) (size 15 to 20)
#    0.000    1.538    3.077    2.769    8.615    0.000 
#    0.000    0.000    6.769    0.000    0.000    0.000 
#    0.000    0.000    0.000    0.000    0.000    0.000 
#
# Total GULP energy -145343.978501 kJ/mol
# GULP energy per Si atom -5590.153019 kJ/mol
# Density = 2.612197 g / cm^3
# Si number density = 26.181557 Si / 1000 Ang^3
#
#
#
# Elastic Constant Matrix: (Units=GPa)
#
#
# Indices 1 2 3 4 5 6 
#
# 1 74.7724 16.4824 15.8037 0.0000 0.0000 1.4324
# 2 16.4824 74.7724 15.8037 0.0000 0.0000 -1.4324
# 3 15.8037 15.8037 126.5498 0.0000 0.0000 0.0000
# 4 0.0000 0.0000 0.0000 36.2411 0.0000 0.0000
# 5 0.0000 0.0000 0.0000 0.0000 36.2411 0.0000
# 6 1.4324 -1.4324 0.0000 0.0000 0.0000 10.9020
#
#
#
# Elastic Compliance Matrix: (Units=1/GPa)
#
#
# Indices 1 2 3 4 5 6 
#
# 1 0.014360 -0.002907 -0.001430 0.000000 0.000000 -0.002269
# 2 -0.002907 0.014360 -0.001430 0.000000 0.000000 0.002269
# 3 -0.001430 -0.001430 0.008259 0.000000 0.000000 0.000000
# 4 0.000000 0.000000 0.000000 0.027593 0.000000 0.000000
# 5 0.000000 0.000000 0.000000 0.000000 0.027593 0.000000
# 6 -0.002269 0.002269 0.000000 0.000000 0.000000 0.092322
#
#
# Mechanical properties :
#
#
# Convention : Reuss Voigt Hill
#
# Bulk Modulus (GPa) = 39.29991 41.36379 40.33185
# Shear Modulus (GPa) = 24.44928 31.87716 28.16322
#
# Velocity S-wave (km/s) = 3.05919 3.49312 3.28333
# Velocity P-wave (km/s) = 5.24607 5.66589 5.46002
#
# Compressibility (1/GPa) = 0.02544535
#
# Stress axis : x y z
#
# Youngs Moduli (GPa) = 69.63585 69.63585 121.07599
#
# Poissons Ratio (x) = 0.20241 0.17318
# Poissons Ratio (y) = 0.20241 0.17318
# Poissons Ratio (z) = 0.09960 0.09960
#
# Static dielectric constant tensor:
#      x y z
#    x 2.139510 0.000000 0.000000 
#    y 0.000000 2.139510 0.000000 
#    z 0.000000 0.000000 2.088160 
# 
# From -- ./inp_files/1332.got.cif
#   From: 2010.05.17/outbox.cif.g08.bks.cpg/sg88_1_cif.got.tgz:1332.got - 2010.06.03 19:11:41.
