data_PCOD9546696
_publ_section_title
;
Structure prediction by ZEFSAII (Michael W. Deem and Ramdas Pophale) SiO2 
 PCOD9546696
Probable space group: I 41/A
;
_chemical_formula_sum "Si O2"
_cell_formula_units_Z 64
_cell_length_a 15.252479
_cell_length_b 15.252479
_cell_length_c 13.718333
_cell_angle_alpha 90.000000
_cell_angle_beta 90.000000
_cell_angle_gamma 90.000000
_cell_volume 3191.407139
_symmetry_space_group_name_H-M "I 41/A"
_symmetry_group_IT_number 88
_space_group.IT_coordinate_system_code '2'
_symmetry_cell_setting 'tetragonal'
loop_
_space_group_symop_operation_xyz
x,y,z
3/4-y,1/4+x,1/4+z
-x,1/2-y,z
1/4+y,1/4-x,1/4+z
-x,-y,-z
1/4+y,3/4-x,3/4-z
x,1/2+y,-z
3/4-y,3/4+x,3/4-z
1/2+x,1/2+y,1/2+z
1/4-y,3/4+x,3/4+z
1/2-x,-y,1/2+z
3/4+y,3/4-x,3/4+z
1/2-x,1/2-y,1/2-z
3/4+y,1/4-x,1/4-z
1/2+x,y,1/2-z
1/4-y,1/4+x,1/4-z
loop_
_atom_site_type_symbol
_atom_site_label
_atom_site_fract_x
_atom_site_fract_y
_atom_site_fract_z
Si Si1 0.518361 0.882003 0.584305
Si Si2 0.477643 0.079620 0.636044
Si Si3 0.614963 0.586721 0.031775
Si Si4 0.860000 0.840739 0.251389
O O1 0.586706 0.825432 0.646444
O O2 0.540967 0.879245 0.469910
O O3 0.512055 0.981700 0.617725
O O4 0.391473 0.079436 0.703411
O O5 0.555529 0.131032 0.690167
O O6 0.514050 0.600992 0.000316
O O7 0.627809 0.628078 0.137717
O O8 0.630426 0.482528 0.034672
#
# Coordination Sequence:
#
# PCOD9546696 Si02
#       4
#    16  16  16  16
#     4  10  26  45  68  94 133 174 221 271 328 398
#     4  11  25  44  68  98 131 176 225 272 334 400
#     4  11  25  42  68  99 134 175 221 279 337 398
#     4  11  25  42  68  99 134 175 221 279 337 398
#
# _framework density 20.053850000000001
#
# number of rings (size 3 to 8) (size 9 to 14) (size 15 to 20)
#    0.000    1.250    2.500    0.750   14.000    2.000 
#    0.000    0.000    0.000    0.000    0.000    0.000 
#    0.000    0.000    0.000    0.000    0.000    0.000 
#
# Total GULP energy -178944.942244 kJ/mol
# GULP energy per Si atom -5592.029445 kJ/mol
# Density = 2.000821 g / cm^3
# Si number density = 20.053850 Si / 1000 Ang^3
#
#
#
# Elastic Constant Matrix: (Units=GPa)
#
#
# Indices 1 2 3 4 5 6 
#
# 1 33.1213 -15.6628 -11.8704 0.0000 0.0000 -6.9267
# 2 -15.6628 33.1213 -11.8704 0.0000 0.0000 6.9267
# 3 -11.8704 -11.8704 57.5284 0.0000 0.0000 0.0000
# 4 0.0000 0.0000 0.0000 21.7720 0.0000 0.0000
# 5 0.0000 0.0000 0.0000 0.0000 21.7720 0.0000
# 6 -6.9267 6.9267 0.0000 0.0000 0.0000 6.0890
#
#
#
# Elastic Compliance Matrix: (Units=1/GPa)
#
#
# Indices 1 2 3 4 5 6 
#
# 1 0.054949 0.024669 0.016428 0.000000 0.000000 0.034446
# 2 0.024669 0.054949 0.016428 0.000000 0.000000 -0.034446
# 3 0.016428 0.016428 0.024162 0.000000 0.000000 0.000000
# 4 0.000000 0.000000 0.000000 0.045931 0.000000 0.000000
# 5 0.000000 0.000000 0.000000 0.000000 0.045931 0.000000
# 6 0.034446 -0.034446 0.000000 0.000000 0.000000 0.242600
#
#
# Mechanical properties :
#
#
# Convention : Reuss Voigt Hill
#
# Bulk Modulus (GPa) = 4.01424 4.99599 4.50511
# Shear Modulus (GPa) = 11.45454 20.80492 16.12973
#
# Velocity S-wave (km/s) = 2.39255 3.22445 2.83913
# Velocity P-wave (km/s) = 3.10459 4.04468 3.60540
#
# Compressibility (1/GPa) = 0.24911321
#
# Stress axis : x y z
#
# Youngs Moduli (GPa) = 18.19855 18.19855 41.38657
#
# Poissons Ratio (x) = -0.44894 -0.67992
# Poissons Ratio (y) = -0.44894 -0.67992
# Poissons Ratio (z) = -0.29897 -0.29897
#
# Static dielectric constant tensor:
#      x y z
#    x 1.698110 0.000000 0.000000 
#    y 0.000000 1.698110 0.000000 
#    z 0.000000 0.000000 1.677330 
# 
# From -- ./inp_files/3058.got.cif
#   From: 2010.05.17/outbox.cif.g08.bks.cpg/sg88_2_cif.got.tgz:3058.got - 2010.06.03 19:11:41.
