data_PCOD9546456
_publ_section_title
;
Structure prediction by ZEFSAII (Michael W. Deem and Ramdas Pophale) SiO2 
 PCOD9546456
Probable space group: I 41/A
;
_chemical_formula_sum "Si O2"
_cell_formula_units_Z 96
_cell_length_a 21.719267
_cell_length_b 21.719267
_cell_length_c 9.693694
_cell_angle_alpha 90.000000
_cell_angle_beta 90.000000
_cell_angle_gamma 90.000000
_cell_volume 4572.772915
_symmetry_space_group_name_H-M "I 41/A"
_symmetry_group_IT_number 88
_space_group.IT_coordinate_system_code '2'
_symmetry_cell_setting 'tetragonal'
loop_
_space_group_symop_operation_xyz
x,y,z
3/4-y,1/4+x,1/4+z
-x,1/2-y,z
1/4+y,1/4-x,1/4+z
-x,-y,-z
1/4+y,3/4-x,3/4-z
x,1/2+y,-z
3/4-y,3/4+x,3/4-z
1/2+x,1/2+y,1/2+z
1/4-y,3/4+x,3/4+z
1/2-x,-y,1/2+z
3/4+y,3/4-x,3/4+z
1/2-x,1/2-y,1/2-z
3/4+y,1/4-x,1/4-z
1/2+x,y,1/2-z
1/4-y,1/4+x,1/4-z
loop_
_atom_site_type_symbol
_atom_site_label
_atom_site_fract_x
_atom_site_fract_y
_atom_site_fract_z
Si Si1 0.673282 0.697313 0.890171
Si Si2 0.186635 0.978261 0.868737
Si Si3 0.999828 0.151405 0.119166
Si Si4 0.594488 0.562418 0.645917
Si Si5 0.923635 0.318701 0.619587
Si Si6 0.914493 0.927690 0.176955
O O1 0.639159 0.714673 0.746463
O O2 0.738633 0.663006 0.891334
O O3 0.692643 0.764344 0.949948
O O4 0.620725 0.671056 0.989315
O O5 0.231526 0.965354 0.740892
O O6 0.170937 0.913002 0.940468
O O7 0.129552 0.014370 0.801326
O O8 0.052361 0.199732 0.065053
O O9 0.038419 0.101802 0.209122
O O10 0.592509 0.582702 0.485971
O O11 0.919669 0.246267 0.659282
O O12 0.901998 0.366407 0.736493
#
# Coordination Sequence:
#
# PCOD9546456 Si02
#       6
#    16  16  16  16  16  16
#     4  10  21  38  62  89 124 163 210 254 319 378
#     4  10  23  39  63  88 122 169 214 264 318 375
#     4  10  22  35  56  88 120 158 200 258 310 374
#     4  10  22  37  63  85 124 167 212 257 319 374
#     4   9  19  36  65  92 123 161 203 252 315 374
#     4   9  19  38  61  87 118 161 201 260 308 374
#
# _framework density 20.993825999999999
#
# number of rings (size 3 to 8) (size 9 to 14) (size 15 to 20)
#    0.000    2.333    0.000    2.000    9.333    8.000 
#    0.000    0.000    0.000    8.000    0.000    0.000 
#    0.000    0.000    0.000    0.000    0.000    0.000 
#
# Total GULP energy -267369.593466 kJ/mol
# GULP energy per Si atom -5570.199864 kJ/mol
# Density = 2.094604 g / cm^3
# Si number density = 20.993826 Si / 1000 Ang^3
#
#
#
# Elastic Constant Matrix: (Units=GPa)
#
#
# Indices 1 2 3 4 5 6 
#
# 1 118.5308 76.8869 21.5165 0.0000 0.0000 -6.5679
# 2 76.8869 118.5308 21.5165 0.0000 0.0000 6.5679
# 3 21.5165 21.5165 29.7332 0.0000 0.0000 0.0000
# 4 0.0000 0.0000 0.0000 25.1069 0.0000 0.0000
# 5 0.0000 0.0000 0.0000 0.0000 25.1069 0.0000
# 6 -6.5679 6.5679 0.0000 0.0000 0.0000 48.8805
#
#
#
# Elastic Compliance Matrix: (Units=1/GPa)
#
#
# Indices 1 2 3 4 5 6 
#
# 1 0.015582 -0.009494 -0.004405 0.000000 0.000000 0.003369
# 2 -0.009494 0.015582 -0.004405 0.000000 0.000000 -0.003369
# 3 -0.004405 -0.004405 0.040008 0.000000 0.000000 0.000000
# 4 0.000000 0.000000 0.000000 0.039830 0.000000 0.000000
# 5 0.000000 0.000000 0.000000 0.000000 0.039830 0.000000
# 6 0.003369 -0.003369 0.000000 0.000000 0.000000 0.021363
#
#
# Mechanical properties :
#
#
# Convention : Reuss Voigt Hill
#
# Bulk Modulus (GPa) = 28.93334 56.29274 42.61304
# Shear Modulus (GPa) = 22.69387 29.61050 26.15218
#
# Velocity S-wave (km/s) = 3.29139 3.75965 3.53329
# Velocity P-wave (km/s) = 5.31565 6.76157 6.08173
#
# Compressibility (1/GPa) = 0.03456220
#
# Stress axis : x y z
#
# Youngs Moduli (GPa) = 64.17824 64.17824 24.99504
#
# Poissons Ratio (x) = 0.60933 0.11011
# Poissons Ratio (y) = 0.60933 0.11011
# Poissons Ratio (z) = 0.28271 0.28271
#
# Static dielectric constant tensor:
#      x y z
#    x 1.843440 0.000000 0.000000 
#    y 0.000000 1.843440 0.000000 
#    z 0.000000 0.000000 1.765950 
# 
# From -- ./inp_files/2596.got.cif
#   From: 2010.05.17/outbox.cif.g08.bks.cpg/sg88_2_cif.got.tgz:2596.got - 2010.06.03 19:11:41.
