data_PCOD9546272
_publ_section_title
;
Structure prediction by ZEFSAII (Michael W. Deem and Ramdas Pophale) SiO2 
 PCOD9546272
Probable space group: I 41/A
;
_chemical_formula_sum "Si O2"
_cell_formula_units_Z 96
_cell_length_a 15.326782
_cell_length_b 15.326782
_cell_length_c 20.264487
_cell_angle_alpha 90.000000
_cell_angle_beta 90.000000
_cell_angle_gamma 90.000000
_cell_volume 4760.335636
_symmetry_space_group_name_H-M "I 41/A"
_symmetry_group_IT_number 88
_space_group.IT_coordinate_system_code '2'
_symmetry_cell_setting 'tetragonal'
loop_
_space_group_symop_operation_xyz
x,y,z
3/4-y,1/4+x,1/4+z
-x,1/2-y,z
1/4+y,1/4-x,1/4+z
-x,-y,-z
1/4+y,3/4-x,3/4-z
x,1/2+y,-z
3/4-y,3/4+x,3/4-z
1/2+x,1/2+y,1/2+z
1/4-y,3/4+x,3/4+z
1/2-x,-y,1/2+z
3/4+y,3/4-x,3/4+z
1/2-x,1/2-y,1/2-z
3/4+y,1/4-x,1/4-z
1/2+x,y,1/2-z
1/4-y,1/4+x,1/4-z
loop_
_atom_site_type_symbol
_atom_site_label
_atom_site_fract_x
_atom_site_fract_y
_atom_site_fract_z
Si Si1 0.555335 0.170887 0.101922
Si Si2 0.279774 0.503076 0.582383
Si Si3 0.768279 0.120234 0.468783
Si Si4 0.730149 0.664165 0.106890
Si Si5 0.846902 0.784103 0.269544
Si Si6 0.935127 0.013855 0.791701
O O1 0.500000 0.250000 0.131329
O O2 0.543977 0.077129 0.137026
O O3 0.656966 0.192097 0.093724
O O4 0.523376 0.157721 0.026388
O O5 0.285099 0.444437 0.516795
O O6 0.337754 0.476272 0.643960
O O7 0.180137 0.492005 0.608886
O O8 0.294636 0.604632 0.565313
O O9 0.867167 0.117894 0.496842
O O10 0.730136 0.217452 0.468649
O O11 0.660004 0.716186 0.151194
O O12 0.704563 0.655862 0.031273
O O13 0.750000 0.750000 0.250000
#
# Coordination Sequence:
#
# PCOD9546272 Si02
#       6
#    16  16  16  16  16  16
#     4  10  19  35  51  81 121 143 193 251 285 360
#     4  10  22  41  59  90 123 155 204 251 299 359
#     4  11  22  37  65  85 120 169 199 250 313 362
#     4   9  20  35  57  79 118 157 189 241 295 360
#     4   9  19  32  52  82 118 153 193 239 298 362
#     4  11  22  37  61  87 114 160 206 242 309 361
#
# _framework density 20.166644999999999
#
# number of rings (size 3 to 8) (size 9 to 14) (size 15 to 20)
#    0.000    2.000    3.333    1.000    4.667    1.333 
#    0.000    0.833    3.667    0.000    0.000    0.000 
#    0.000    0.000    0.000    0.000    0.000    0.000 
#
# Total GULP energy -267545.875715 kJ/mol
# GULP energy per Si atom -5573.872411 kJ/mol
# Density = 2.012074 g / cm^3
# Si number density = 20.166645 Si / 1000 Ang^3
#
#
#
# Elastic Constant Matrix: (Units=GPa)
#
#
# Indices 1 2 3 4 5 6 
#
# 1 64.7841 14.4225 0.5504 0.0000 0.0000 0.7567
# 2 14.4225 64.7841 0.5504 0.0000 0.0000 -0.7567
# 3 0.5504 0.5504 48.2148 0.0000 0.0000 0.0000
# 4 0.0000 0.0000 0.0000 21.8638 0.0000 0.0000
# 5 0.0000 0.0000 0.0000 0.0000 21.8638 0.0000
# 6 0.7567 -0.7567 0.0000 0.0000 0.0000 4.0188
#
#
#
# Elastic Compliance Matrix: (Units=1/GPa)
#
#
# Indices 1 2 3 4 5 6 
#
# 1 0.016298 -0.003671 -0.000144 0.000000 0.000000 -0.003760
# 2 -0.003671 0.016298 -0.000144 0.000000 0.000000 0.003760
# 3 -0.000144 -0.000144 0.020744 0.000000 0.000000 0.000000
# 4 0.000000 0.000000 0.000000 0.045738 0.000000 0.000000
# 5 0.000000 0.000000 0.000000 0.000000 0.045738 0.000000
# 6 -0.003760 0.003760 0.000000 0.000000 0.000000 0.250245
#
#
# Mechanical properties :
#
#
# Convention : Reuss Voigt Hill
#
# Bulk Modulus (GPa) = 22.01593 23.20329 22.60961
# Shear Modulus (GPa) = 11.95829 20.36659 16.16244
#
# Velocity S-wave (km/s) = 2.43775 3.18136 2.83405
# Velocity P-wave (km/s) = 4.34329 5.00255 4.68453
#
# Compressibility (1/GPa) = 0.04542165
#
# Stress axis : x y z
#
# Youngs Moduli (GPa) = 61.35612 61.35612 48.20716
#
# Poissons Ratio (x) = 0.22524 0.00695
# Poissons Ratio (y) = 0.22524 0.00695
# Poissons Ratio (z) = 0.00884 0.00884
#
# Static dielectric constant tensor:
#      x y z
#    x 1.885780 0.000000 0.000000 
#    y 0.000000 1.885780 0.000000 
#    z 0.000000 0.000000 1.703530 
# 
# From -- ./inp_files/4662.got.cif
#   From: 2010.05.17/outbox.cif.g08.bks.cpg/sg88_3_cif.got.tgz:4662.got - 2010.06.03 19:11:41.
