data_PCOD9546746
_publ_section_title
;
Structure prediction by ZEFSAII (Michael W. Deem and Ramdas Pophale) SiO2 
 PCOD9546746
Probable space group: I 41/A
;
_chemical_formula_sum "Si O2"
_cell_formula_units_Z 80
_cell_length_a 10.274264
_cell_length_b 10.274264
_cell_length_c 40.058202
_cell_angle_alpha 90.000000
_cell_angle_beta 90.000000
_cell_angle_gamma 90.000000
_cell_volume 4228.563862
_symmetry_space_group_name_H-M "I 41/A"
_symmetry_group_IT_number 88
_space_group.IT_coordinate_system_code '2'
_symmetry_cell_setting 'tetragonal'
loop_
_space_group_symop_operation_xyz
x,y,z
3/4-y,1/4+x,1/4+z
-x,1/2-y,z
1/4+y,1/4-x,1/4+z
-x,-y,-z
1/4+y,3/4-x,3/4-z
x,1/2+y,-z
3/4-y,3/4+x,3/4-z
1/2+x,1/2+y,1/2+z
1/4-y,3/4+x,3/4+z
1/2-x,-y,1/2+z
3/4+y,3/4-x,3/4+z
1/2-x,1/2-y,1/2-z
3/4+y,1/4-x,1/4-z
1/2+x,y,1/2-z
1/4-y,1/4+x,1/4-z
loop_
_atom_site_type_symbol
_atom_site_label
_atom_site_fract_x
_atom_site_fract_y
_atom_site_fract_z
Si Si1 0.500000 0.750000 0.882026
Si Si2 0.167133 0.489898 0.964172
Si Si3 0.260223 0.249497 0.581098
Si Si4 0.000000 0.750000 0.875000
Si Si5 0.355059 0.503450 0.542739
Si Si6 0.766727 0.268266 0.077360
Si Si7 0.500000 0.750000 0.125000
O O1 0.513735 0.624928 0.858297
O O2 0.371226 0.736060 0.904428
O O3 0.232061 0.373125 0.943704
O O4 0.227437 0.624585 0.951468
O O5 0.012067 0.489896 0.956148
O O6 0.180445 0.479237 0.003905
O O7 0.290823 0.377391 0.559353
O O8 0.126138 0.257512 0.601263
O O9 0.118739 0.695532 0.896739
O O10 0.308241 0.629242 0.562818
#
# Coordination Sequence:
#
# PCOD9546746 Si02
#       7
#     8  16  16   4  16  16   4
#     4  12  24  40  64  92 134 164 216 252 318 390
#     4  11  22  41  67  94 124 162 215 267 319 375
#     4  12  23  45  62  95 123 180 204 259 319 393
#     4  12  20  36  62  88 120 152 212 262 312 352
#     4  11  22  41  67  94 124 162 215 267 319 375
#     4  12  23  39  60  97 121 164 204 269 309 371
#     4  12  28  44  66  88 144 172 212 250 332 404
#
# _framework density 18.918951
#
# number of rings (size 3 to 8) (size 9 to 14) (size 15 to 20)
#    0.000    0.400    4.000    6.000    0.000    3.200 
#    0.000    6.000    0.000    0.000    0.000    0.000 
#    0.000    0.000    0.000    0.000    0.000    0.000 
#
# Total GULP energy -223850.782736 kJ/mol
# GULP energy per Si atom -5596.269568 kJ/mol
# Density = 1.887589 g / cm^3
# Si number density = 18.918951 Si / 1000 Ang^3
#
#
#
# Elastic Constant Matrix: (Units=GPa)
#
#
# Indices 1 2 3 4 5 6 
#
# 1 98.8238 -5.6489 27.3347 0.0000 0.0000 6.8443
# 2 -5.6489 98.8238 27.3347 0.0000 0.0000 -6.8443
# 3 27.3347 27.3347 88.0167 0.0000 0.0000 0.0000
# 4 0.0000 0.0000 0.0000 43.3380 0.0000 0.0000
# 5 0.0000 0.0000 0.0000 0.0000 43.3380 0.0000
# 6 6.8443 -6.8443 0.0000 0.0000 0.0000 11.6681
#
#
#
# Elastic Compliance Matrix: (Units=1/GPa)
#
#
# Indices 1 2 3 4 5 6 
#
# 1 0.011746 0.001378 -0.004076 0.000000 0.000000 -0.006082
# 2 0.001378 0.011746 -0.004076 0.000000 0.000000 0.006082
# 3 -0.004076 -0.004076 0.013893 0.000000 0.000000 0.000000
# 4 0.000000 0.000000 0.000000 0.023074 0.000000 0.000000
# 5 0.000000 0.000000 0.000000 0.000000 0.023074 0.000000
# 6 -0.006082 0.006082 0.000000 0.000000 0.000000 0.092839
#
#
# Mechanical properties :
#
#
# Convention : Reuss Voigt Hill
#
# Bulk Modulus (GPa) = 41.95030 42.63390 42.29210
# Shear Modulus (GPa) = 25.26938 35.44508 30.35723
#
# Velocity S-wave (km/s) = 3.65864 4.33312 4.01008
# Velocity P-wave (km/s) = 6.33004 6.90061 6.62147
#
# Compressibility (1/GPa) = 0.02383773
#
# Stress axis : x y z
#
# Youngs Moduli (GPa) = 85.13278 85.13278 71.97841
#
# Poissons Ratio (x) = -0.11728 0.29337
# Poissons Ratio (y) = -0.11728 0.29337
# Poissons Ratio (z) = 0.34698 0.34698
#
# Static dielectric constant tensor:
#      x y z
#    x 1.633230 0.000000 0.000000 
#    y 0.000000 1.633230 0.000000 
#    z 0.000000 0.000000 1.633200 
# 
# From -- ./inp_files/6410.got.cif
#   From: 2010.05.17/outbox.cif.g08.bks.cpg/sg88_4_cif.got.tgz:6410.got - 2010.06.03 19:11:41.
