data_PCOD9546432
_publ_section_title
;
Structure prediction by ZEFSAII (Michael W. Deem and Ramdas Pophale) SiO2 
 PCOD9546432
Probable space group: I 41/A
;
_chemical_formula_sum "Si O2"
_cell_formula_units_Z 48
_cell_length_a 7.418189
_cell_length_b 7.418189
_cell_length_c 37.848546
_cell_angle_alpha 90.000000
_cell_angle_beta 90.000000
_cell_angle_gamma 90.000000
_cell_volume 2082.787623
_symmetry_space_group_name_H-M "I 41/A"
_symmetry_group_IT_number 88
_space_group.IT_coordinate_system_code '2'
_symmetry_cell_setting 'tetragonal'
loop_
_space_group_symop_operation_xyz
x,y,z
3/4-y,1/4+x,1/4+z
-x,1/2-y,z
1/4+y,1/4-x,1/4+z
-x,-y,-z
1/4+y,3/4-x,3/4-z
x,1/2+y,-z
3/4-y,3/4+x,3/4-z
1/2+x,1/2+y,1/2+z
1/4-y,3/4+x,3/4+z
1/2-x,-y,1/2+z
3/4+y,3/4-x,3/4+z
1/2-x,1/2-y,1/2-z
3/4+y,1/4-x,1/4-z
1/2+x,y,1/2-z
1/4-y,1/4+x,1/4-z
loop_
_atom_site_type_symbol
_atom_site_label
_atom_site_fract_x
_atom_site_fract_y
_atom_site_fract_z
Si Si1 0.000000 0.250000 0.999918
Si Si2 0.000000 0.250000 0.435405
Si Si3 0.200335 0.480669 0.953057
Si Si4 0.132674 0.520520 0.624935
O O1 0.050602 0.095478 0.027359
O O2 0.172346 0.295381 0.974889
O O3 0.887725 0.093005 0.455016
O O4 0.861007 0.351639 0.408924
O O5 0.156908 0.453649 0.912005
O O6 0.921128 0.476996 0.631041
#
# Coordination Sequence:
#
# PCOD9546432 Si02
#       4
#     8   8  16  16
#     4  10  23  40  57  80 122 163 194 242 292 373
#     4  10  21  36  62  90 114 151 201 254 299 355
#     4  10  22  39  58  85 117 156 199 240 302 358
#     4   9  19  37  61  87 117 149 192 253 305 352
#
# _framework density 23.046033999999999
#
# number of rings (size 3 to 8) (size 9 to 14) (size 15 to 20)
#    0.000    2.333    0.000    1.000    0.000   12.000 
#    0.000    3.333    0.000    0.000    0.000    0.000 
#    0.000    0.000    0.000    0.000    0.000    0.000 
#
# Total GULP energy -133794.522179 kJ/mol
# GULP energy per Si atom -5574.771757 kJ/mol
# Density = 2.299358 g / cm^3
# Si number density = 23.046034 Si / 1000 Ang^3
#
#
#
# Elastic Constant Matrix: (Units=GPa)
#
#
# Indices 1 2 3 4 5 6 
#
# 1 64.5944 26.1922 41.9812 0.0000 0.0000 2.4756
# 2 26.1922 64.5945 41.9812 0.0001 0.0000 -2.4756
# 3 41.9812 41.9812 111.0330 0.0000 0.0000 0.0000
# 4 0.0000 0.0001 0.0000 -77.9333 0.0000 0.0000
# 5 0.0000 0.0000 0.0000 0.0000 -77.9338 0.0000
# 6 2.4756 -2.4756 0.0000 0.0000 0.0000 33.9266
#
#
#
# Elastic Compliance Matrix: (Units=1/GPa)
#
#
# Indices 1 2 3 4 5 6 
#
# 1 0.021612 -0.004675 -0.006404 0.000000 0.000000 -0.001918
# 2 -0.004675 0.021612 -0.006404 0.000000 0.000000 0.001918
# 3 -0.006404 -0.006404 0.013849 0.000000 0.000000 0.000000
# 4 0.000000 0.000000 0.000000 -0.012831 0.000000 0.000000
# 5 0.000000 0.000000 0.000000 0.000000 -0.012831 0.000000
# 6 -0.001918 0.001918 0.000000 0.000000 0.000000 0.029755
#
#
# Mechanical properties :
#
#
# Convention : Reuss Voigt Hill
#
# Bulk Modulus (GPa) = 45.23267 51.17011 48.20139
# Shear Modulus (GPa) = 48.30842 -15.71694 16.29574
#
# Velocity S-wave (km/s) = 4.58336 -2.61431 2.66201
# Velocity P-wave (km/s) = 6.90502 3.62475 5.51444
#
# Compressibility (1/GPa) = 0.02210792
#
# Stress axis : x y z
#
# Youngs Moduli (GPa) = 46.26959 46.26961 72.20751
#
# Poissons Ratio (x) = 0.21631 0.46242
# Poissons Ratio (y) = 0.21631 0.46242
# Poissons Ratio (z) = 0.29631 0.29631
#
# Static dielectric constant tensor:
#      x y z
#    x 2.144630 0.000000 0.000000 
#    y 0.000000 2.144630 0.000000 
#    z 0.000000 0.000000 1.816410 
# 
# From -- ./inp_files/6151.got.cif
#   From: 2010.05.17/outbox.cif.g08.bks.cpg/sg88_4_cif.got.tgz:6151.got - 2010.06.03 19:11:41.
