data_PCOD9546661
_publ_section_title
;
Structure prediction by ZEFSAII (Michael W. Deem and Ramdas Pophale) SiO2 
 PCOD9546661
Probable space group: I 41/A
;
_chemical_formula_sum "Si O2"
_cell_formula_units_Z 112
_cell_length_a 15.137039
_cell_length_b 15.137039
_cell_length_c 21.927285
_cell_angle_alpha 90.000000
_cell_angle_beta 90.000000
_cell_angle_gamma 90.000000
_cell_volume 5024.197709
_symmetry_space_group_name_H-M "I 41/A"
_symmetry_group_IT_number 88
_space_group.IT_coordinate_system_code '2'
_symmetry_cell_setting 'tetragonal'
loop_
_space_group_symop_operation_xyz
x,y,z
3/4-y,1/4+x,1/4+z
-x,1/2-y,z
1/4+y,1/4-x,1/4+z
-x,-y,-z
1/4+y,3/4-x,3/4-z
x,1/2+y,-z
3/4-y,3/4+x,3/4-z
1/2+x,1/2+y,1/2+z
1/4-y,3/4+x,3/4+z
1/2-x,-y,1/2+z
3/4+y,3/4-x,3/4+z
1/2-x,1/2-y,1/2-z
3/4+y,1/4-x,1/4-z
1/2+x,y,1/2-z
1/4-y,1/4+x,1/4-z
loop_
_atom_site_type_symbol
_atom_site_label
_atom_site_fract_x
_atom_site_fract_y
_atom_site_fract_z
Si Si1 0.583092 0.195253 0.772313
Si Si2 0.217136 0.719400 0.502944
Si Si3 0.624900 0.393716 0.222507
Si Si4 0.015373 0.354857 0.391776
Si Si5 0.280171 0.046829 0.423296
Si Si6 0.092531 0.656656 0.902475
Si Si7 0.726934 0.147336 0.874808
O O1 0.500000 0.250000 0.797293
O O2 0.534313 0.114799 0.736283
O O3 0.628302 0.237611 0.713480
O O4 0.656235 0.176573 0.823310
O O5 0.292500 0.793753 0.492733
O O6 0.242901 0.637614 0.546391
O O7 0.189023 0.670970 0.440329
O O8 0.598952 0.370381 0.153017
O O9 0.724178 0.431963 0.220617
O O10 0.618131 0.322629 0.277351
O O11 0.000000 0.250000 0.385635
O O12 0.942532 0.426052 0.370495
O O13 0.351818 0.076529 0.373935
O O14 0.203669 0.995241 0.388505
O O15 0.111671 0.758866 0.890495
#
# Coordination Sequence:
#
# PCOD9546661 Si02
#       7
#    16  16  16  16  16  16  16
#     4  11  24  43  68  98 139 190 232 296 354 423
#     4  11  25  44  65 103 143 176 239 296 347 431
#     4  11  25  44  70 104 140 185 235 293 358 423
#     4  10  24  43  69 100 144 184 234 295 354 429
#     4  12  24  44  73  99 141 186 234 295 357 425
#     4  11  26  45  71 104 141 184 235 296 355 430
#     4  11  25  42  68 102 136 186 239 285 358 427
#
# _framework density 22.292117999999999
#
# number of rings (size 3 to 8) (size 9 to 14) (size 15 to 20)
#    0.000    1.000    2.857    3.000    6.000    2.857 
#    0.000    0.000    0.000    0.000    0.000    0.000 
#    0.000    0.000    0.000    0.000    0.000    0.000 
#
# Total GULP energy -311980.643848 kJ/mol
# GULP energy per Si atom -5571.082926 kJ/mol
# Density = 2.224138 g / cm^3
# Si number density = 22.292118 Si / 1000 Ang^3
#
#
#
# Elastic Constant Matrix: (Units=GPa)
#
#
# Indices 1 2 3 4 5 6 
#
# 1 69.9966 21.6870 5.1637 0.0000 0.0000 8.4583
# 2 21.6870 69.9966 5.1637 0.0000 0.0000 -8.4583
# 3 5.1637 5.1637 47.7476 0.0000 0.0000 0.0000
# 4 0.0000 0.0000 0.0000 -91.9388 0.0000 0.0000
# 5 0.0000 0.0000 0.0000 0.0000 -91.9388 0.0000
# 6 8.4583 -8.4583 0.0000 0.0000 0.0000 26.6160
#
#
#
# Elastic Compliance Matrix: (Units=1/GPa)
#
#
# Indices 1 2 3 4 5 6 
#
# 1 0.017167 -0.006125 -0.001194 0.000000 0.000000 -0.007402
# 2 -0.006125 0.017167 -0.001194 0.000000 0.000000 0.007402
# 3 -0.001194 -0.001194 0.021202 0.000000 0.000000 0.000000
# 4 0.000000 0.000000 0.000000 -0.010877 0.000000 0.000000
# 5 0.000000 0.000000 0.000000 0.000000 -0.010877 0.000000
# 6 -0.007402 0.007402 0.000000 0.000000 0.000000 0.042276
#
#
# Mechanical properties :
#
#
# Convention : Reuss Voigt Hill
#
# Bulk Modulus (GPa) = 25.96833 27.97443 26.97138
# Shear Modulus (GPa) = 47.20550 -21.07054 13.06748
#
# Velocity S-wave (km/s) = 4.60672 -3.07775 2.42377
# Velocity P-wave (km/s) = 6.32220 0.23190 4.46746
#
# Compressibility (1/GPa) = 0.03850845
#
# Stress axis : x y z
#
# Youngs Moduli (GPa) = 58.25253 58.25253 47.16599
#
# Poissons Ratio (x) = 0.35680 0.05632
# Poissons Ratio (y) = 0.35680 0.05632
# Poissons Ratio (z) = 0.06956 0.06956
#
# Static dielectric constant tensor:
#      x y z
#    x 1.868210 0.000000 0.000000 
#    y 0.000000 1.868210 0.000000 
#    z 0.000000 0.000000 1.888110 
# 
# From -- ./inp_files/5340.got.cif
#   From: 2010.05.17/outbox.cif.g08.bks.cpg/sg88_3_cif.got.tgz:5340.got - 2010.06.03 19:11:41.
