data_PCOD9546782
_publ_section_title
;
Structure prediction by ZEFSAII (Michael W. Deem and Ramdas Pophale) SiO2 
 PCOD9546782
Probable space group: I 41/A
;
_chemical_formula_sum "Si O2"
_cell_formula_units_Z 88
_cell_length_a 11.678586
_cell_length_b 11.678586
_cell_length_c 28.120762
_cell_angle_alpha 90.000000
_cell_angle_beta 90.000000
_cell_angle_gamma 90.000000
_cell_volume 3835.373040
_symmetry_space_group_name_H-M "I 41/A"
_symmetry_group_IT_number 88
_space_group.IT_coordinate_system_code '2'
_symmetry_cell_setting 'tetragonal'
loop_
_space_group_symop_operation_xyz
x,y,z
3/4-y,1/4+x,1/4+z
-x,1/2-y,z
1/4+y,1/4-x,1/4+z
-x,-y,-z
1/4+y,3/4-x,3/4-z
x,1/2+y,-z
3/4-y,3/4+x,3/4-z
1/2+x,1/2+y,1/2+z
1/4-y,3/4+x,3/4+z
1/2-x,-y,1/2+z
3/4+y,3/4-x,3/4+z
1/2-x,1/2-y,1/2-z
3/4+y,1/4-x,1/4-z
1/2+x,y,1/2-z
1/4-y,1/4+x,1/4-z
loop_
_atom_site_type_symbol
_atom_site_label
_atom_site_fract_x
_atom_site_fract_y
_atom_site_fract_z
Si Si1 0.192184 0.490020 0.028972
Si Si2 0.047935 0.578037 0.944435
Si Si3 0.601064 0.663830 0.864829
Si Si4 0.500000 0.250000 0.375000
Si Si5 0.000000 0.250000 0.625000
Si Si6 0.449735 0.971598 0.179313
Si Si7 0.871134 0.804145 0.522742
O O1 0.220914 0.575219 0.072044
O O2 0.310044 0.429221 0.012128
O O3 0.086742 0.405632 0.042406
O O4 0.128315 0.566474 0.989502
O O5 0.061515 0.458866 0.917616
O O6 0.081821 0.676336 0.908210
O O7 0.500000 0.750000 0.852116
O O8 0.544933 0.542613 0.849793
O O9 0.634350 0.687943 0.919731
O O10 0.096648 0.305546 0.592826
O O11 0.481740 0.952817 0.234808
O O12 0.000000 0.750000 0.515114
#
# Coordination Sequence:
#
# PCOD9546782 Si02
#       7
#    16  16  16   4   4  16  16
#     4  11  25  44  74 103 143 198 239 312 375 448
#     4  11  25  44  71 109 146 186 248 298 396 446
#     4  11  23  47  75 105 144 193 243 307 374 442
#     4  12  28  40  68 112 150 184 232 316 372 468
#     4  12  28  48  68 108 146 204 248 300 360 440
#     4  12  25  49  75 104 152 191 251 308 374 443
#     4  11  25  47  71 107 145 193 253 300 368 445
#
# _framework density 22.944313000000001
#
# number of rings (size 3 to 8) (size 9 to 14) (size 15 to 20)
#    0.000    0.727    4.545    2.182    5.091    0.727 
#    6.545    0.000    0.000    0.000    0.000    0.000 
#    0.000    0.000    0.000    0.000    0.000    0.000 
#
# Total GULP energy -245197.867242 kJ/mol
# GULP energy per Si atom -5572.678801 kJ/mol
# Density = 2.289209 g / cm^3
# Si number density = 22.944313 Si / 1000 Ang^3
#
#
#
# Elastic Constant Matrix: (Units=GPa)
#
#
# Indices 1 2 3 4 5 6 
#
# 1 87.0491 43.2638 31.9105 0.0000 0.0000 -5.4117
# 2 43.2638 87.0491 31.9105 0.0000 0.0000 5.4117
# 3 31.9105 31.9105 80.2165 0.0000 0.0000 0.0000
# 4 0.0000 0.0000 0.0000 18.2513 0.0000 0.0000
# 5 0.0000 0.0000 0.0000 0.0000 18.2513 0.0000
# 6 -5.4117 5.4117 0.0000 0.0000 0.0000 27.2268
#
#
#
# Elastic Compliance Matrix: (Units=1/GPa)
#
#
# Indices 1 2 3 4 5 6 
#
# 1 0.016775 -0.007244 -0.003791 0.000000 0.000000 0.004774
# 2 -0.007244 0.016775 -0.003791 0.000000 0.000000 -0.004774
# 3 -0.003791 -0.003791 0.015483 0.000000 0.000000 0.000000
# 4 0.000000 0.000000 0.000000 0.054791 0.000000 0.000000
# 5 0.000000 0.000000 0.000000 0.000000 0.054791 0.000000
# 6 0.004774 -0.004774 0.000000 0.000000 0.000000 0.038626
#
#
# Mechanical properties :
#
#
# Convention : Reuss Voigt Hill
#
# Bulk Modulus (GPa) = 51.60320 52.05380 51.82850
# Shear Modulus (GPa) = 21.42677 22.56120 21.99399
#
# Velocity S-wave (km/s) = 3.05923 3.13917 3.09946
# Velocity P-wave (km/s) = 5.91760 5.98961 5.95371
#
# Compressibility (1/GPa) = 0.01937864
#
# Stress axis : x y z
#
# Youngs Moduli (GPa) = 59.61339 59.61339 64.58826
#
# Poissons Ratio (x) = 0.43185 0.24488
# Poissons Ratio (y) = 0.43185 0.24488
# Poissons Ratio (z) = 0.22601 0.22601
#
# Static dielectric constant tensor:
#      x y z
#    x 1.896980 0.000000 0.000000 
#    y 0.000000 1.896980 0.000000 
#    z 0.000000 0.000000 1.868140 
# 
# From -- ./inp_files/6488.got.cif
#   From: 2010.05.17/outbox.cif.g08.bks.cpg/sg88_4_cif.got.tgz:6488.got - 2010.06.03 19:11:41.
