data_PCOD9546355
_publ_section_title
;
Structure prediction by ZEFSAII (Michael W. Deem and Ramdas Pophale) SiO2 
 PCOD9546355
Probable space group: I 41/A
;
_chemical_formula_sum "Si O2"
_cell_formula_units_Z 68
_cell_length_a 25.612072
_cell_length_b 25.612072
_cell_length_c 5.139501
_cell_angle_alpha 90.000000
_cell_angle_beta 90.000000
_cell_angle_gamma 90.000000
_cell_volume 3371.400780
_symmetry_space_group_name_H-M "I 41/A"
_symmetry_group_IT_number 88
_space_group.IT_coordinate_system_code '2'
_symmetry_cell_setting 'tetragonal'
loop_
_space_group_symop_operation_xyz
x,y,z
3/4-y,1/4+x,1/4+z
-x,1/2-y,z
1/4+y,1/4-x,1/4+z
-x,-y,-z
1/4+y,3/4-x,3/4-z
x,1/2+y,-z
3/4-y,3/4+x,3/4-z
1/2+x,1/2+y,1/2+z
1/4-y,3/4+x,3/4+z
1/2-x,-y,1/2+z
3/4+y,3/4-x,3/4+z
1/2-x,1/2-y,1/2-z
3/4+y,1/4-x,1/4-z
1/2+x,y,1/2-z
1/4-y,1/4+x,1/4-z
loop_
_atom_site_type_symbol
_atom_site_label
_atom_site_fract_x
_atom_site_fract_y
_atom_site_fract_z
Si Si1 0.000000 0.750000 0.875000
Si Si2 0.446680 0.344082 0.152343
Si Si3 0.177647 0.303005 0.301764
Si Si4 0.352475 0.295164 0.890379
Si Si5 0.061808 0.506865 0.537864
O O1 0.962936 0.784923 0.703324
O O2 0.432028 0.372446 0.421876
O O3 0.396717 0.335828 0.972686
O O4 0.497828 0.373422 0.036109
O O5 0.169771 0.240869 0.368938
O O6 0.202893 0.327828 0.561187
O O7 0.217323 0.316825 0.069393
O O8 0.303614 0.327469 0.775817
O O9 0.000000 0.500000 0.500000
#
# Coordination Sequence:
#
# PCOD9546355 Si02
#       5
#     4  16  16  16  16
#     4  12  24  34  48  76 130 168 194 220 278 344
#     4  12  23  35  52  79 119 159 200 233 288 359
#     4  11  21  39  56  76 104 153 202 242 282 338
#     4  11  23  36  54  79 114 155 196 243 289 345
#     4  10  20  37  59  74 100 148 201 247 292 316
#
# _framework density 20.169658999999999
#
# number of rings (size 3 to 8) (size 9 to 14) (size 15 to 20)
#    0.000    0.941    7.059    4.235    0.000    0.000 
#    0.000    0.000    0.000    0.000    0.000    0.000 
#    0.000    0.000   16.000    2.353    0.000    0.000 
#
# Total GULP energy -189413.313083 kJ/mol
# GULP energy per Si atom -5570.979797 kJ/mol
# Density = 2.012375 g / cm^3
# Si number density = 20.169659 Si / 1000 Ang^3
#
#
#
# Elastic Constant Matrix: (Units=GPa)
#
#
# Indices 1 2 3 4 5 6 
#
# 1 75.0422 21.6640 33.0317 0.0000 0.0000 -4.2270
# 2 21.6640 75.0422 33.0317 0.0000 0.0000 4.2270
# 3 33.0317 33.0317 127.7782 0.0000 0.0000 0.0000
# 4 0.0000 0.0000 0.0000 5.3240 0.0000 0.0000
# 5 0.0000 0.0000 0.0000 0.0000 5.3240 0.0000
# 6 -4.2270 4.2270 0.0000 0.0000 0.0000 9.3188
#
#
#
# Elastic Compliance Matrix: (Units=1/GPa)
#
#
# Indices 1 2 3 4 5 6 
#
# 1 0.016371 -0.003813 -0.003246 0.000000 0.000000 0.009156
# 2 -0.003813 0.016371 -0.003246 0.000000 0.000000 -0.009156
# 3 -0.003246 -0.003246 0.009505 0.000000 0.000000 0.000000
# 4 0.000000 0.000000 0.000000 0.187827 0.000000 0.000000
# 5 0.000000 0.000000 0.000000 0.000000 0.187827 0.000000
# 6 0.009156 -0.009156 0.000000 0.000000 0.000000 0.115616
#
#
# Mechanical properties :
#
#
# Convention : Reuss Voigt Hill
#
# Bulk Modulus (GPa) = 46.22039 50.36860 48.29450
# Shear Modulus (GPa) = 8.90725 16.66907 12.78816
#
# Velocity S-wave (km/s) = 2.10375 2.87791 2.52073
# Velocity P-wave (km/s) = 5.37276 6.00582 5.69809
#
# Compressibility (1/GPa) = 0.02163547
#
# Stress axis : x y z
#
# Youngs Moduli (GPa) = 61.08248 61.08248 105.21312
#
# Poissons Ratio (x) = 0.23291 0.34157
# Poissons Ratio (y) = 0.23291 0.34157
# Poissons Ratio (z) = 0.19830 0.19830
#
# Static dielectric constant tensor:
#      x y z
#    x 1.810470 0.000000 0.000000 
#    y 0.000000 1.810470 0.000000 
#    z 0.000000 0.000000 1.842040 
# 
# From -- ./inp_files/658.got.cif
#   From: 2010.05.17/outbox.cif.g08.bks.cpg/sg88_1_cif.got.tgz:658.got - 2010.06.03 19:11:41.
