data_PCOD9546123
_publ_section_title
;
Structure prediction by ZEFSAII (Michael W. Deem and Ramdas Pophale) SiO2 
 PCOD9546123
Probable space group: I 4/M
;
_chemical_formula_sum "Si O2"
_cell_formula_units_Z 88
_cell_length_a 17.369100
_cell_length_b 17.369100
_cell_length_c 14.514232
_cell_angle_alpha 90.000000
_cell_angle_beta 90.000000
_cell_angle_gamma 90.000000
_cell_volume 4378.735295
_symmetry_space_group_name_H-M "I 4/M"
_symmetry_group_IT_number 87
_symmetry_cell_setting 'tetragonal'
loop_
_space_group_symop_operation_xyz
x,y,z
-y,x,z
-x,-y,z
y,-x,z
-x,-y,-z
y,-x,-z
x,y,-z
-y,x,-z
1/2+x,1/2+y,1/2+z
1/2-y,1/2+x,1/2+z
1/2-x,1/2-y,1/2+z
1/2+y,1/2-x,1/2+z
1/2-x,1/2-y,1/2-z
1/2+y,1/2-x,1/2-z
1/2+x,1/2+y,1/2-z
1/2-y,1/2+x,1/2-z
loop_
_atom_site_type_symbol
_atom_site_label
_atom_site_fract_x
_atom_site_fract_y
_atom_site_fract_z
Si Si1 0.587913 0.869139 0.500000
Si Si2 0.768242 0.865929 0.813281
Si Si3 0.482668 0.178202 0.000000
Si Si4 0.890589 0.069370 0.400228
Si Si5 0.985300 0.762157 0.304077
Si Si6 0.408957 0.821072 0.500000
Si Si7 0.212308 0.640900 0.682985
O O1 0.497597 0.849107 0.500000
O O2 0.629283 0.832214 0.588379
O O3 0.606211 0.959552 0.500000
O O4 0.704027 0.826439 0.748494
O O5 0.830585 0.799747 0.835848
O O6 0.791897 0.940630 0.752123
O O7 0.729138 0.893140 0.908456
O O8 0.499656 0.226060 0.905449
O O9 0.395073 0.148015 0.000000
O O10 0.859818 0.093420 0.500000
O O11 0.827627 0.079859 0.323583
O O12 0.976431 0.100322 0.396082
O O13 0.940206 0.705723 0.236571
#
# Coordination Sequence:
#
# PCOD9546123 Si02
#       7
#     8  16   8  16  16   8  16
#     4  12  24  45  65  91 128 165 211 260 312 372
#     4  11  24  41  65  93 125 168 213 260 315 376
#     4  12  25  38  64  97 122 162 210 258 314 377
#     4   9  18  32  52  83 119 156 197 246 309 369
#     4  12  21  40  60  88 126 160 212 252 317 369
#     4  12  24  45  65  91 128 165 211 260 312 372
#     4  11  24  41  65  93 125 168 213 260 315 376
#
# _framework density 20.097127
#
# number of rings (size 3 to 8) (size 9 to 14) (size 15 to 20)
#    0.000    0.909    6.364    2.455    0.000    0.000 
#    0.000    0.000    0.000    0.000    0.000    1.273 
#    0.000    0.000    0.000    0.000    0.000    0.000 
#
# Total GULP energy -245389.975651 kJ/mol
# GULP energy per Si atom -5577.044901 kJ/mol
# Density = 2.005138 g / cm^3
# Si number density = 20.097127 Si / 1000 Ang^3
#
#
#
# Elastic Constant Matrix: (Units=GPa)
#
#
# Indices 1 2 3 4 5 6 
#
# 1 53.8393 -4.4540 23.6321 0.0000 0.0000 7.8642
# 2 -4.4540 53.8393 23.6321 0.0000 0.0000 -7.8642
# 3 23.6321 23.6321 136.0138 0.0000 0.0000 0.0000
# 4 0.0000 0.0000 0.0000 25.3044 0.0000 0.0000
# 5 0.0000 0.0000 0.0000 0.0000 25.3044 0.0000
# 6 7.8642 -7.8642 0.0000 0.0000 0.0000 33.3773
#
#
#
# Elastic Compliance Matrix: (Units=1/GPa)
#
#
# Indices 1 2 3 4 5 6 
#
# 1 0.021303 0.002984 -0.004220 0.000000 0.000000 -0.004316
# 2 0.002984 0.021303 -0.004220 0.000000 0.000000 0.004316
# 3 -0.004220 -0.004220 0.008819 0.000000 0.000000 0.000000
# 4 0.000000 0.000000 0.000000 0.039519 0.000000 0.000000
# 5 0.000000 0.000000 0.000000 0.000000 0.039519 0.000000
# 6 -0.004316 0.004316 0.000000 0.000000 0.000000 0.031994
#
#
# Mechanical properties :
#
#
# Convention : Reuss Voigt Hill
#
# Bulk Modulus (GPa) = 24.68270 36.59030 30.63650
# Shear Modulus (GPa) = 26.75604 30.18935 28.47270
#
# Velocity S-wave (km/s) = 3.65271 3.87999 3.76806
# Velocity P-wave (km/s) = 5.48617 6.19021 5.84879
#
# Compressibility (1/GPa) = 0.04051420
#
# Stress axis : x y z
#
# Youngs Moduli (GPa) = 46.94076 46.94076 113.39657
#
# Poissons Ratio (x) = -0.14008 0.47853
# Poissons Ratio (y) = -0.14008 0.47853
# Poissons Ratio (z) = 0.19809 0.19809
#
# Static dielectric constant tensor:
#      x y z
#    x 1.725400 0.000000 0.000000 
#    y 0.000000 1.725400 0.000000 
#    z 0.000000 0.000000 1.692570 
# 
# From -- ./inp_files/3685.got.cif
#   From: 2010.05.17/outbox.cif.g08.bks.cpg/sg87_2_cif.got.tgz:3685.got - 2010.06.03 19:07:00.
