data_PCOD9546776
_publ_section_title
;
Structure prediction by ZEFSAII (Michael W. Deem and Ramdas Pophale) SiO2 
 PCOD9546776
Probable space group: I 41/A
;
_chemical_formula_sum "Si O2"
_cell_formula_units_Z 88
_cell_length_a 10.915511
_cell_length_b 10.915511
_cell_length_c 32.963328
_cell_angle_alpha 90.000000
_cell_angle_beta 90.000000
_cell_angle_gamma 90.000000
_cell_volume 3927.527144
_symmetry_space_group_name_H-M "I 41/A"
_symmetry_group_IT_number 88
_space_group.IT_coordinate_system_code '2'
_symmetry_cell_setting 'tetragonal'
loop_
_space_group_symop_operation_xyz
x,y,z
3/4-y,1/4+x,1/4+z
-x,1/2-y,z
1/4+y,1/4-x,1/4+z
-x,-y,-z
1/4+y,3/4-x,3/4-z
x,1/2+y,-z
3/4-y,3/4+x,3/4-z
1/2+x,1/2+y,1/2+z
1/4-y,3/4+x,3/4+z
1/2-x,-y,1/2+z
3/4+y,3/4-x,3/4+z
1/2-x,1/2-y,1/2-z
3/4+y,1/4-x,1/4-z
1/2+x,y,1/2-z
1/4-y,1/4+x,1/4-z
loop_
_atom_site_type_symbol
_atom_site_label
_atom_site_fract_x
_atom_site_fract_y
_atom_site_fract_z
Si Si1 0.619482 0.024220 0.790300
Si Si2 0.636735 0.878620 0.320896
Si Si3 0.989491 0.954988 0.371901
Si Si4 0.500000 0.750000 0.000610
Si Si5 0.449008 0.939195 0.614741
Si Si6 0.065172 0.114040 0.023307
O O1 0.757059 0.029341 0.806651
O O2 0.535671 0.985471 0.828269
O O3 0.582667 0.162949 0.778415
O O4 0.609027 0.937441 0.752046
O O5 0.699911 0.761698 0.342306
O O6 0.571090 0.838122 0.280166
O O7 0.561111 0.942934 0.356766
O O8 0.112086 0.872050 0.369711
O O9 0.585702 0.886964 0.615572
O O10 0.410608 0.940590 0.567953
O O11 0.000000 0.250000 0.026691
O O12 0.000000 0.000000 0.000000
#
# Coordination Sequence:
#
# PCOD9546776 Si02
#       6
#    16  16  16   8  16  16
#     4  11  25  43  71  99 146 180 240 302 377 429
#     4  11  25  42  66 104 131 187 234 293 362 454
#     4   9  20  42  66  94 137 183 225 284 368 438
#     4  12  26  42  71 106 142 178 246 310 381 430
#     4  11  23  45  69  90 140 186 235 288 367 431
#     4  12  28  47  75 108 145 197 250 308 370 445
#
# _framework density 22.405954000000001
#
# number of rings (size 3 to 8) (size 9 to 14) (size 15 to 20)
#    0.000    1.091    1.818    4.909    5.091    7.273 
#    0.000    0.000    0.000    0.000    0.000    0.000 
#    0.000    0.000    0.000    0.000    0.000    0.000 
#
# Total GULP energy -245957.306950 kJ/mol
# GULP energy per Si atom -5589.938794 kJ/mol
# Density = 2.235496 g / cm^3
# Si number density = 22.405954 Si / 1000 Ang^3
#
#
#
# Elastic Constant Matrix: (Units=GPa)
#
#
# Indices 1 2 3 4 5 6 
#
# 1 51.9251 6.9599 6.8650 0.0000 0.0000 5.3920
# 2 6.9599 51.9251 6.8650 0.0000 0.0000 -5.3920
# 3 6.8650 6.8650 115.7092 0.0000 0.0000 0.0000
# 4 0.0000 0.0000 0.0000 3.7120 0.0000 0.0000
# 5 0.0000 0.0000 0.0000 0.0000 3.7120 0.0000
# 6 5.3920 -5.3920 0.0000 0.0000 0.0000 13.2422
#
#
#
# Elastic Compliance Matrix: (Units=1/GPa)
#
#
# Indices 1 2 3 4 5 6 
#
# 1 0.020933 -0.003713 -0.001022 0.000000 0.000000 -0.010036
# 2 -0.003713 0.020933 -0.001022 0.000000 0.000000 0.010036
# 3 -0.001022 -0.001022 0.008764 0.000000 0.000000 0.000000
# 4 0.000000 0.000000 0.000000 0.269395 -0.000001 0.000000
# 5 0.000000 0.000000 0.000000 -0.000001 0.269395 0.000000
# 6 -0.010036 0.010036 0.000000 0.000000 0.000000 0.083689
#
#
# Mechanical properties :
#
#
# Convention : Reuss Voigt Hill
#
# Bulk Modulus (GPa) = 25.56383 28.99325 27.27854
# Shear Modulus (GPa) = 7.16680 17.39121 12.27901
#
# Velocity S-wave (km/s) = 1.79041 2.78904 2.34353
# Velocity P-wave (km/s) = 3.96336 4.83112 4.41859
#
# Compressibility (1/GPa) = 0.03911777
#
# Stress axis : x y z
#
# Youngs Moduli (GPa) = 47.77068 47.77067 114.10852
#
# Poissons Ratio (x) = 0.17737 0.11658
# Poissons Ratio (y) = 0.17737 0.11658
# Poissons Ratio (z) = 0.04881 0.04881
#
# Static dielectric constant tensor:
#      x y z
#    x 1.852470 0.000000 0.000000 
#    y 0.000000 1.852470 0.000000 
#    z 0.000000 0.000000 1.789500 
# 
# From -- ./inp_files/6448.got.cif
#   From: 2010.05.17/outbox.cif.g08.bks.cpg/sg88_4_cif.got.tgz:6448.got - 2010.06.03 19:11:41.
