data_PCOD9546732
_publ_section_title
;
Structure prediction by ZEFSAII (Michael W. Deem and Ramdas Pophale) SiO2 
 PCOD9546732
Probable space group: I 41/A
;
_chemical_formula_sum "Si O2"
_cell_formula_units_Z 88
_cell_length_a 14.826773
_cell_length_b 14.826773
_cell_length_c 14.696831
_cell_angle_alpha 90.000000
_cell_angle_beta 90.000000
_cell_angle_gamma 90.000000
_cell_volume 3230.851353
_symmetry_space_group_name_H-M "I 41/A"
_symmetry_group_IT_number 88
_space_group.IT_coordinate_system_code '2'
_symmetry_cell_setting 'tetragonal'
loop_
_space_group_symop_operation_xyz
x,y,z
3/4-y,1/4+x,1/4+z
-x,1/2-y,z
1/4+y,1/4-x,1/4+z
-x,-y,-z
1/4+y,3/4-x,3/4-z
x,1/2+y,-z
3/4-y,3/4+x,3/4-z
1/2+x,1/2+y,1/2+z
1/4-y,3/4+x,3/4+z
1/2-x,-y,1/2+z
3/4+y,3/4-x,3/4+z
1/2-x,1/2-y,1/2-z
3/4+y,1/4-x,1/4-z
1/2+x,y,1/2-z
1/4-y,1/4+x,1/4-z
loop_
_atom_site_type_symbol
_atom_site_label
_atom_site_fract_x
_atom_site_fract_y
_atom_site_fract_z
Si Si1 0.072379 0.453747 0.775014
Si Si2 0.000000 0.250000 0.125000
Si Si3 0.654194 0.593605 0.464004
Si Si4 0.653190 0.143771 0.328885
Si Si5 0.000000 0.250000 0.625000
Si Si6 0.081205 0.854657 0.535596
Si Si7 0.743766 0.096799 0.834214
O O1 0.092911 0.557072 0.801810
O O2 0.148143 0.401813 0.834539
O O3 0.106979 0.453540 0.672083
O O4 0.975464 0.406631 0.778113
O O5 0.021919 0.337637 0.066081
O O6 0.671864 0.631322 0.563596
O O7 0.597658 0.500176 0.467971
O O8 0.617096 0.670050 0.394976
O O9 0.746487 0.547316 0.425363
O O10 0.077168 0.236463 0.702844
O O11 0.106616 0.954406 0.504267
#
# Coordination Sequence:
#
# PCOD9546732 Si02
#       7
#    16   4  16  16   4  16  16
#     4  11  23  42  75 101 139 187 241 300 365 431
#     4  12  28  42  60 104 156 190 228 296 362 444
#     4  11  22  45  76 101 137 190 244 303 365 435
#     4  11  24  43  71 104 141 183 242 298 366 440
#     4  12  28  46  60 108 152 190 244 300 358 448
#     4  12  24  44  68 100 145 188 236 300 356 439
#     4  11  21  44  71 103 135 186 247 296 371 435
#
# _framework density 27.237401999999999
#
# number of rings (size 3 to 8) (size 9 to 14) (size 15 to 20)
#    0.000    0.727    5.455    4.364    0.000    5.091 
#    3.273    2.727    0.000    0.000    0.000    0.000 
#    0.000    0.000    0.000    0.000    0.000    0.000 
#
# Total GULP energy -245849.707446 kJ/mol
# GULP energy per Si atom -5587.493351 kJ/mol
# Density = 2.717541 g / cm^3
# Si number density = 27.237402 Si / 1000 Ang^3
#
#
#
# Elastic Constant Matrix: (Units=GPa)
#
#
# Indices 1 2 3 4 5 6 
#
# 1 72.6944 20.7065 14.1137 0.0000 0.0000 -5.9621
# 2 20.7065 72.6944 14.1137 0.0000 0.0000 5.9621
# 3 14.1137 14.1137 124.0741 0.0000 0.0000 0.0000
# 4 0.0000 0.0000 0.0000 35.0731 0.0000 0.0000
# 5 0.0000 0.0000 0.0000 0.0000 35.0731 0.0000
# 6 -5.9621 5.9621 0.0000 0.0000 0.0000 46.4797
#
#
#
# Elastic Compliance Matrix: (Units=1/GPa)
#
#
# Indices 1 2 3 4 5 6 
#
# 1 0.015453 -0.004365 -0.001261 0.000000 0.000000 0.002542
# 2 -0.004365 0.015453 -0.001261 0.000000 0.000000 -0.002542
# 3 -0.001261 -0.001261 0.008347 0.000000 0.000000 0.000000
# 4 0.000000 0.000000 0.000000 0.028512 0.000000 0.000000
# 5 0.000000 0.000000 0.000000 0.000000 0.028512 0.000000
# 6 0.002542 -0.002542 0.000000 0.000000 0.000000 0.022167
#
#
# Mechanical properties :
#
#
# Convention : Reuss Voigt Hill
#
# Bulk Modulus (GPa) = 39.25098 40.81449 40.03273
# Shear Modulus (GPa) = 35.53374 38.02712 36.78043
#
# Velocity S-wave (km/s) = 3.61583 3.74054 3.67872
# Velocity P-wave (km/s) = 5.64573 5.80283 5.72482
#
# Compressibility (1/GPa) = 0.02547707
#
# Stress axis : x y z
#
# Youngs Moduli (GPa) = 64.71226 64.71227 119.80868
#
# Poissons Ratio (x) = 0.28249 0.15111
# Poissons Ratio (y) = 0.28249 0.15111
# Poissons Ratio (z) = 0.08162 0.08162
#
# Static dielectric constant tensor:
#      x y z
#    x 2.235720 0.000000 0.000000 
#    y 0.000000 2.235720 0.000000 
#    z 0.000000 0.000000 2.086320 
# 
# From -- ./inp_files/3257.got.cif
#   From: 2010.05.17/outbox.cif.g08.bks.cpg/sg88_2_cif.got.tgz:3257.got - 2010.06.03 19:11:41.
