data_PCOD9546091
_publ_section_title
;
Structure prediction by ZEFSAII (Michael W. Deem and Ramdas Pophale) SiO2 
 PCOD9546091
Probable space group: I 4/M
;
_chemical_formula_sum "Si O2"
_cell_formula_units_Z 80
_cell_length_a 11.787919
_cell_length_b 11.787919
_cell_length_c 29.210284
_cell_angle_alpha 90.000000
_cell_angle_beta 90.000000
_cell_angle_gamma 90.000000
_cell_volume 4058.916017
_symmetry_space_group_name_H-M "I 4/M"
_symmetry_group_IT_number 87
_symmetry_cell_setting 'tetragonal'
loop_
_space_group_symop_operation_xyz
x,y,z
-y,x,z
-x,-y,z
y,-x,z
-x,-y,-z
y,-x,-z
x,y,-z
-y,x,-z
1/2+x,1/2+y,1/2+z
1/2-y,1/2+x,1/2+z
1/2-x,1/2-y,1/2+z
1/2+y,1/2-x,1/2+z
1/2-x,1/2-y,1/2-z
1/2+y,1/2-x,1/2-z
1/2+x,1/2+y,1/2-z
1/2-y,1/2+x,1/2-z
loop_
_atom_site_type_symbol
_atom_site_label
_atom_site_fract_x
_atom_site_fract_y
_atom_site_fract_z
Si Si1 0.362388 0.999770 0.573503
Si Si2 0.478954 0.319011 0.338722
Si Si3 0.864619 0.684174 0.000000
Si Si4 0.364220 0.815590 0.500000
Si Si5 0.929489 0.389786 0.330680
Si Si6 0.820196 0.968418 0.270589
O O1 0.329213 0.109020 0.543800
O O2 0.329064 0.010066 0.626081
O O3 0.500000 0.000000 0.574247
O O4 0.329465 0.889547 0.544497
O O5 0.595584 0.378749 0.355015
O O6 0.436684 0.192225 0.347890
O O7 0.508840 0.317545 0.284095
O O8 0.803201 0.802914 0.000000
O O9 0.000198 0.693819 0.000000
O O10 0.000000 0.500000 0.316872
O O11 0.930241 0.300175 0.289826
O O12 0.872808 0.089134 0.285650
#
# Coordination Sequence:
#
# PCOD9546091 Si02
#       6
#    16  16   8   8  16  16
#     4   8  18  37  51  77 110 146 179 219 265 323
#     4   9  21  40  56  76 112 153 189 236 291 333
#     4   9  17  34  58  80 103 151 170 216 274 333
#     4   9  17  34  62  78 115 137 182 214 276 329
#     4  11  23  33  58  85 110 147 197 232 276 340
#     4   9  21  38  54  76 112 151 188 240 290 323
#
# _framework density 19.709695
#
# number of rings (size 3 to 8) (size 9 to 14) (size 15 to 20)
#    0.000    2.800    0.000    2.400    5.600    3.400 
#    7.200    0.000    0.000    4.800    0.000    0.000 
#    0.000    0.000    0.000    0.000    0.000    0.000 
#
# Total GULP energy -222725.933613 kJ/mol
# GULP energy per Si atom -5568.148340 kJ/mol
# Density = 1.966484 g / cm^3
# Si number density = 19.709695 Si / 1000 Ang^3
#
#
#
# Elastic Constant Matrix: (Units=GPa)
#
#
# Indices 1 2 3 4 5 6 
#
# 1 66.8773 43.0114 -9.2008 0.0000 0.0000 9.8655
# 2 43.0114 66.8773 -9.2008 0.0000 0.0000 -9.8655
# 3 -9.2008 -9.2008 19.3039 0.0000 0.0000 0.0000
# 4 0.0000 0.0000 0.0000 -18.0886 0.0000 0.0000
# 5 0.0000 0.0000 0.0000 0.0000 -18.0886 0.0000
# 6 9.8655 -9.8655 0.0000 0.0000 0.0000 2.7203
#
#
#
# Elastic Compliance Matrix: (Units=1/GPa)
#
#
# Indices 1 2 3 4 5 6 
#
# 1 -0.005539 0.015429 0.004714 0.000000 0.000000 0.076044
# 2 0.015429 -0.005539 0.004714 0.000000 0.000000 -0.076044
# 3 0.004714 0.004714 0.056296 0.000000 0.000000 0.000000
# 4 0.000000 0.000000 0.000000 -0.055283 0.000000 0.000000
# 5 0.000000 0.000000 0.000000 0.000000 -0.055283 0.000000
# 6 0.076044 -0.076044 0.000000 0.000000 0.000000 -0.183961
#
#
# Mechanical properties :
#
#
# Convention : Reuss Voigt Hill
#
# Bulk Modulus (GPa) = 10.53410 22.47534 16.50472
# Shear Modulus (GPa) = -18.69999 1.87187 -8.41406
#
# Velocity S-wave (km/s) = -3.08355 0.97559 -2.06840
# Velocity P-wave (km/s) = 2.70583 3.56328 1.63943
#
# Compressibility (1/GPa) = 0.09492976
#
# Stress axis : x y z
#
# Youngs Moduli (GPa) = -180.52390 -180.52387 17.76313
#
# Poissons Ratio (x) = 2.78528 -0.08373
# Poissons Ratio (y) = 2.78528 -0.08373
# Poissons Ratio (z) = 0.85092 0.85092
#
# Static dielectric constant tensor:
#      x y z
#    x 1.691520 0.000000 0.000000 
#    y 0.000000 1.691520 0.000000 
#    z 0.000000 0.000000 1.756080 
# 
# From -- ./inp_files/6514.got.cif
#   From: 2010.05.17/outbox.cif.g08.bks.cpg/sg87_4_cif.got.tgz:6514.got - 2010.06.03 19:07:00.
