data_PCOD9546191
_publ_section_title
;
Structure prediction by ZEFSAII (Michael W. Deem and Ramdas Pophale) SiO2 
 PCOD9546191
Probable space group: I 4/M
;
_chemical_formula_sum "Si O2"
_cell_formula_units_Z 48
_cell_length_a 24.000000
_cell_length_b 24.000000
_cell_length_c 9.000000
_cell_angle_alpha 90.000000
_cell_angle_beta 90.000000
_cell_angle_gamma 90.000000
_cell_volume 5184.000000
_symmetry_space_group_name_H-M "I 4/M"
_symmetry_group_IT_number 87
_symmetry_cell_setting 'tetragonal'
loop_
_space_group_symop_operation_xyz
x,y,z
-y,x,z
-x,-y,z
y,-x,z
-x,-y,-z
y,-x,-z
x,y,-z
-y,x,-z
1/2+x,1/2+y,1/2+z
1/2-y,1/2+x,1/2+z
1/2-x,1/2-y,1/2+z
1/2+y,1/2-x,1/2+z
1/2-x,1/2-y,1/2-z
1/2+y,1/2-x,1/2-z
1/2+x,1/2+y,1/2-z
1/2-y,1/2+x,1/2-z
loop_
_atom_site_type_symbol
_atom_site_label
_atom_site_fract_x
_atom_site_fract_y
_atom_site_fract_z
Si Si1 0.632788 0.750916 0.825315
Si Si2 0.852861 0.452923 0.825844
Si Si3 0.642593 0.930425 0.178437
Si Si4 0.225783 0.333278 0.319038
Si Si5 0.075849 0.050534 0.678472
Si Si6 0.357576 0.648671 0.677116
O O1 0.587185 0.799462 0.813375
O O2 0.690645 0.779219 0.769940
O O3 0.616082 0.696711 0.734410
O O4 0.638523 0.736668 0.000000
O O5 0.905486 0.416696 0.772453
O O6 0.846135 0.508964 0.737206
O O7 0.860139 0.465695 0.000000
O O8 0.689373 0.886531 0.226469
O O9 0.642332 0.929710 0.000000
O O10 0.225737 0.330458 0.500000
O O11 0.288457 0.344225 0.270400
O O12 0.080989 0.053917 0.500000
O O13 0.123090 0.086923 0.754456
O O14 0.014749 0.074734 0.718645
O O15 0.361163 0.648076 0.500000
#
# Coordination Sequence:
#
# PCOD9546191 Si02
#       6
#    16  16  16  16  16  16
#     4   9  18  35  54  71 101 141 175 208 247 298
#     4   9  19  34  51  73 100 133 173 214 255 299
#     4   9  18  34  53  71  99 137 171 210 259 303
#     4   8  17  34  52  72 102 138 171 207 254 301
#     4   9  20  40  60  75  98 135 174 209 248 298
#     4  11  21  32  53  84 109 130 164 209 256 306
#
# _framework density 9.2592590000000001
#
# number of rings (size 3 to 8) (size 9 to 14) (size 15 to 20)
#    0.000    2.833    0.000    3.500    0.000    3.667 
#    0.000   10.833    0.000    0.000    0.000    0.000 
#    0.000    0.000    0.000    0.000    0.000    0.000 
#
# Total GULP energy -267507.226864 kJ/mol
# GULP energy per Si atom -5573.067226 kJ/mol
# Density = 0.923818 g / cm^3
# Si number density = 9.259259 Si / 1000 Ang^3
#
#
#
# Elastic Constant Matrix: (Units=GPa)
#
#
# Indices 1 2 3 4 5 6 
#
# 1 47.3577 29.3993 14.6580 0.0000 0.0000 -6.3485
# 2 29.3993 47.3577 14.6580 0.0000 0.0000 6.3485
# 3 14.6580 14.6580 5.7621 0.0000 0.0000 0.0000
# 4 0.0000 0.0000 0.0000 22.4439 0.0000 0.0000
# 5 0.0000 0.0000 0.0000 0.0000 22.4439 0.0000
# 6 -6.3485 6.3485 0.0000 0.0000 0.0000 13.8872
#
#
#
# Elastic Compliance Matrix: (Units=1/GPa)
#
#
# Indices 1 2 3 4 5 6 
#
# 1 0.270436 0.188158 -1.166605 0.000000 0.000000 0.037613
# 2 0.188158 0.270436 -1.166605 0.000000 0.000000 -0.037613
# 3 -1.166605 -1.166605 6.108949 0.000000 0.000000 0.000000
# 4 0.000000 0.000000 0.000000 0.044556 0.000000 0.000000
# 5 0.000000 0.000000 0.000000 0.000000 0.044556 0.000000
# 6 0.037613 -0.037613 0.000000 0.000000 0.000000 0.106398
#
#
# Mechanical properties :
#
#
# Convention : Reuss Voigt Hill
#
# Bulk Modulus (GPa) = 0.42378 24.21204 12.31791
# Shear Modulus (GPa) = 0.41939 14.53914 7.47927
#
# Velocity S-wave (km/s) = 0.47641 2.80503 2.01186
# Velocity P-wave (km/s) = 0.72935 4.85734 3.47316
#
# Compressibility (1/GPa) = 2.35971599
#
# Stress axis : x y z
#
# Youngs Moduli (GPa) = 3.69774 3.69774 0.16369
#
# Poissons Ratio (x) = -0.69576 0.19097
# Poissons Ratio (y) = -0.69576 0.19097
# Poissons Ratio (z) = 4.31380 4.31380
#
# Static dielectric constant tensor:
#      x y z
#    x 1.641370 0.000000 0.000000 
#    y 0.000000 1.641370 0.000000 
#    z 0.000000 0.000000 1.627240 
# 
# From -- ./inp_files/1408.got.cif
#   From: 2010.05.17/outbox.ucp.g08.bks.cvg/sg87_1_cif.got.tgz:1408.got - 2010.06.11 10:35:24.
