data_PCOD9546395
_publ_section_title
;
Structure prediction by ZEFSAII (Michael W. Deem and Ramdas Pophale) SiO2 
 PCOD9546395
Probable space group: I 41/A
;
_chemical_formula_sum "Si O2"
_cell_formula_units_Z 104
_cell_length_a 16.502161
_cell_length_b 16.502161
_cell_length_c 17.660642
_cell_angle_alpha 90.000000
_cell_angle_beta 90.000000
_cell_angle_gamma 90.000000
_cell_volume 4809.369300
_symmetry_space_group_name_H-M "I 41/A"
_symmetry_group_IT_number 88
_space_group.IT_coordinate_system_code '2'
_symmetry_cell_setting 'tetragonal'
loop_
_space_group_symop_operation_xyz
x,y,z
3/4-y,1/4+x,1/4+z
-x,1/2-y,z
1/4+y,1/4-x,1/4+z
-x,-y,-z
1/4+y,3/4-x,3/4-z
x,1/2+y,-z
3/4-y,3/4+x,3/4-z
1/2+x,1/2+y,1/2+z
1/4-y,3/4+x,3/4+z
1/2-x,-y,1/2+z
3/4+y,3/4-x,3/4+z
1/2-x,1/2-y,1/2-z
3/4+y,1/4-x,1/4-z
1/2+x,y,1/2-z
1/4-y,1/4+x,1/4-z
loop_
_atom_site_type_symbol
_atom_site_label
_atom_site_fract_x
_atom_site_fract_y
_atom_site_fract_z
Si Si1 0.616449 0.497731 0.655690
Si Si2 0.252899 0.572067 0.763616
Si Si3 0.847938 0.173932 0.783359
Si Si4 0.987605 0.542216 0.391479
Si Si5 0.000000 0.250000 0.409353
Si Si6 0.373194 0.919758 0.217317
Si Si7 0.671452 0.300818 0.128872
O O1 0.662148 0.567490 0.701996
O O2 0.663547 0.496670 0.575733
O O3 0.635330 0.419266 0.706976
O O4 0.521110 0.485727 0.639001
O O5 0.306898 0.492491 0.786530
O O6 0.298781 0.647458 0.800998
O O7 0.799675 0.194825 0.707812
O O8 0.798581 0.205072 0.856018
O O9 0.928421 0.225574 0.784379
O O10 0.909133 0.592277 0.420548
O O11 0.037582 0.562257 0.317212
O O12 0.081314 0.264249 0.361485
O O13 0.390110 0.910326 0.306449
#
# Coordination Sequence:
#
# PCOD9546395 Si02
#       7
#    16  16  16  16   8  16  16
#     4  11  26  42  76  94 134 180 244 289 355 418
#     4  12  25  49  70 103 135 187 239 300 355 421
#     4  10  22  40  61  96 133 179 226 275 339 417
#     4  11  25  38  62 101 150 180 224 270 347 436
#     4  10  20  40  67  92 137 174 218 282 348 406
#     4  12  26  40  70 103 149 188 226 285 349 443
#     4  11  25  46  67 103 138 186 233 295 350 416
#
# _framework density 21.624458000000001
#
# number of rings (size 3 to 8) (size 9 to 14) (size 15 to 20)
#    0.000    0.923    4.615    1.385   10.769    0.308 
#    0.000    0.000    0.000    0.462    0.000    0.000 
#    0.000    0.000    0.000    0.000    0.000    0.000 
#
# Total GULP energy -290274.733772 kJ/mol
# GULP energy per Si atom -5582.206419 kJ/mol
# Density = 2.157524 g / cm^3
# Si number density = 21.624458 Si / 1000 Ang^3
#
#
#
# Elastic Constant Matrix: (Units=GPa)
#
#
# Indices 1 2 3 4 5 6 
#
# 1 69.5784 11.0309 -5.7967 0.0000 0.0000 4.0824
# 2 11.0309 69.5784 -5.7967 0.0000 0.0000 -4.0824
# 3 -5.7967 -5.7967 50.8758 0.0000 0.0000 0.0000
# 4 0.0000 0.0000 0.0000 24.1829 0.0000 0.0000
# 5 0.0000 0.0000 0.0000 0.0000 24.1829 0.0000
# 6 4.0824 -4.0824 0.0000 0.0000 0.0000 14.2811
#
#
#
# Elastic Compliance Matrix: (Units=1/GPa)
#
#
# Indices 1 2 3 4 5 6 
#
# 1 0.015201 -0.002589 0.001437 0.000000 0.000000 -0.005085
# 2 -0.002589 0.015201 0.001437 0.000000 0.000000 0.005085
# 3 0.001437 0.001437 0.019983 0.000000 0.000000 0.000000
# 4 0.000000 0.000000 0.000000 0.041351 0.000000 0.000000
# 5 0.000000 0.000000 0.000000 0.000000 0.041351 0.000000
# 6 -0.005085 0.005085 0.000000 0.000000 0.000000 0.072930
#
#
# Mechanical properties :
#
#
# Convention : Reuss Voigt Hill
#
# Bulk Modulus (GPa) = 19.62493 20.98973 20.30733
# Shear Modulus (GPa) = 22.47879 25.23573 23.85726
#
# Velocity S-wave (km/s) = 3.22764 3.41984 3.32513
# Velocity P-wave (km/s) = 4.79429 5.03203 4.91460
#
# Compressibility (1/GPa) = 0.05095560
#
# Stress axis : x y z
#
# Youngs Moduli (GPa) = 65.78616 65.78615 50.04207
#
# Poissons Ratio (x) = 0.17029 -0.07191
# Poissons Ratio (y) = 0.17029 -0.07191
# Poissons Ratio (z) = -0.09454 -0.09454
#
# Static dielectric constant tensor:
#      x y z
#    x 1.847100 0.000000 0.000000 
#    y 0.000000 1.847100 0.000000 
#    z 0.000000 0.000000 1.771410 
# 
# From -- ./inp_files/3982.got.cif
#   From: 2010.05.17/outbox.cif.g08.bks.cpg/sg88_2_cif.got.tgz:3982.got - 2010.06.03 19:11:41.
