data_PCOD9546870
_publ_section_title
;
Structure prediction by ZEFSAII (Michael W. Deem and Ramdas Pophale) SiO2 
 PCOD9546870
Probable space group: I 41/A
;
_chemical_formula_sum "Si O2"
_cell_formula_units_Z 36
_cell_length_a 17.375564
_cell_length_b 17.375564
_cell_length_c 4.712300
_cell_angle_alpha 90.000000
_cell_angle_beta 90.000000
_cell_angle_gamma 90.000000
_cell_volume 1422.691550
_symmetry_space_group_name_H-M "I 41/A"
_symmetry_group_IT_number 88
_space_group.IT_coordinate_system_code '2'
_symmetry_cell_setting 'tetragonal'
loop_
_space_group_symop_operation_xyz
x,y,z
3/4-y,1/4+x,1/4+z
-x,1/2-y,z
1/4+y,1/4-x,1/4+z
-x,-y,-z
1/4+y,3/4-x,3/4-z
x,1/2+y,-z
3/4-y,3/4+x,3/4-z
1/2+x,1/2+y,1/2+z
1/4-y,3/4+x,3/4+z
1/2-x,-y,1/2+z
3/4+y,3/4-x,3/4+z
1/2-x,1/2-y,1/2-z
3/4+y,1/4-x,1/4-z
1/2+x,y,1/2-z
1/4-y,1/4+x,1/4-z
loop_
_atom_site_type_symbol
_atom_site_label
_atom_site_fract_x
_atom_site_fract_y
_atom_site_fract_z
Si Si1 0.925595 0.485620 0.693616
Si Si2 0.133958 0.857016 0.958072
Si Si3 0.500000 0.750000 0.625000
O O1 0.937865 0.432887 0.968868
O O2 0.892507 0.565248 0.806403
O O3 0.000000 0.500000 0.500000
O O4 0.873374 0.435997 0.478134
O O5 0.063016 0.801278 0.041509
#
# Coordination Sequence:
#
# PCOD9546870 Si02
#       3
#    16  16   4
#     4  12  27  48  77 111 155 196 253 323 378 456
#     4  12  28  48  78 112 153 201 256 311 389 455
#     4  12  28  46  84 114 144 202 260 314 384 454
#
# _framework density 25.304151999999998
#
# number of rings (size 3 to 8) (size 9 to 14) (size 15 to 20)
#    0.000    0.000    4.444    4.000    6.222    5.333 
#    0.000    0.000    0.000    0.000    0.000    0.000 
#    0.000    0.000    0.000    0.000    0.000    0.000 
#
# Total GULP energy -100899.341008 kJ/mol
# GULP energy per Si atom -5605.518945 kJ/mol
# Density = 2.524656 g / cm^3
# Si number density = 25.304152 Si / 1000 Ang^3
#
#
#
# Elastic Constant Matrix: (Units=GPa)
#
#
# Indices 1 2 3 4 5 6 
#
# 1 149.8286 63.7810 59.9406 0.0000 0.0000 7.4511
# 2 63.7810 149.8286 59.9406 0.0000 0.0000 -7.4511
# 3 59.9406 59.9406 168.2315 0.0000 0.0000 0.0000
# 4 0.0000 0.0000 0.0000 46.8900 0.0000 0.0000
# 5 0.0000 0.0000 0.0000 0.0000 46.8900 0.0000
# 6 7.4511 -7.4511 0.0000 0.0000 0.0000 31.3115
#
#
#
# Elastic Compliance Matrix: (Units=1/GPa)
#
#
# Indices 1 2 3 4 5 6 
#
# 1 0.008986 -0.003135 -0.002085 0.000000 0.000000 -0.002884
# 2 -0.003135 0.008986 -0.002085 0.000000 0.000000 0.002884
# 3 -0.002085 -0.002085 0.007430 0.000000 0.000000 0.000000
# 4 0.000000 0.000000 0.000000 0.021327 0.000000 0.000000
# 5 0.000000 0.000000 0.000000 0.000000 0.021327 0.000000
# 6 -0.002884 0.002884 0.000000 0.000000 0.000000 0.033310
#
#
# Mechanical properties :
#
#
# Convention : Reuss Voigt Hill
#
# Bulk Modulus (GPa) = 92.64959 92.80146 92.72553
# Shear Modulus (GPa) = 41.81574 43.96673 42.89124
#
# Velocity S-wave (km/s) = 4.06954 4.17289 4.12154
# Velocity P-wave (km/s) = 7.66651 7.74412 7.70541
#
# Compressibility (1/GPa) = 0.01079336
#
# Stress axis : x y z
#
# Youngs Moduli (GPa) = 111.28099 111.28099 134.59187
#
# Poissons Ratio (x) = 0.34884 0.28061
# Poissons Ratio (y) = 0.34884 0.28061
# Poissons Ratio (z) = 0.23201 0.23201
#
# Static dielectric constant tensor:
#      x y z
#    x 2.062760 0.000000 0.000000 
#    y 0.000000 2.062760 0.000000 
#    z 0.000000 0.000000 1.940270 
# 
# From -- ./inp_files/217.got.cif
#   From: 2010.05.17/outbox.cif.g08.bks.cpg/sg88_1_cif.got.tgz:217.got - 2010.06.03 19:11:41.
