data_PCOD9546634
_publ_section_title
;
Structure prediction by ZEFSAII (Michael W. Deem and Ramdas Pophale) SiO2 
 PCOD9546634
Probable space group: I 41/A
;
_chemical_formula_sum "Si O2"
_cell_formula_units_Z 72
_cell_length_a 17.648394
_cell_length_b 17.648394
_cell_length_c 9.784638
_cell_angle_alpha 90.000000
_cell_angle_beta 90.000000
_cell_angle_gamma 90.000000
_cell_volume 3047.580208
_symmetry_space_group_name_H-M "I 41/A"
_symmetry_group_IT_number 88
_space_group.IT_coordinate_system_code '2'
_symmetry_cell_setting 'tetragonal'
loop_
_space_group_symop_operation_xyz
x,y,z
3/4-y,1/4+x,1/4+z
-x,1/2-y,z
1/4+y,1/4-x,1/4+z
-x,-y,-z
1/4+y,3/4-x,3/4-z
x,1/2+y,-z
3/4-y,3/4+x,3/4-z
1/2+x,1/2+y,1/2+z
1/4-y,3/4+x,3/4+z
1/2-x,-y,1/2+z
3/4+y,3/4-x,3/4+z
1/2-x,1/2-y,1/2-z
3/4+y,1/4-x,1/4-z
1/2+x,y,1/2-z
1/4-y,1/4+x,1/4-z
loop_
_atom_site_type_symbol
_atom_site_label
_atom_site_fract_x
_atom_site_fract_y
_atom_site_fract_z
Si Si1 0.000000 0.750000 0.375000
Si Si2 0.500000 0.750000 0.625000
Si Si3 0.261542 0.866978 0.364450
Si Si4 0.360230 0.332865 0.874281
Si Si5 0.105425 0.514674 0.092505
Si Si6 0.637725 0.710430 0.812117
O O1 0.070320 0.710350 0.299044
O O2 0.560850 0.710878 0.726231
O O3 0.290999 0.825959 0.229133
O O4 0.172346 0.880140 0.353609
O O5 0.268031 0.826967 0.511432
O O6 0.315606 0.941463 0.382708
O O7 0.363319 0.299366 0.025172
O O8 0.042683 0.573341 0.038852
O O9 0.105145 0.443787 0.992520
#
# Coordination Sequence:
#
# PCOD9546634 Si02
#       6
#     4   4  16  16  16  16
#     4  12  26  44  64  98 142 176 236 294 354 428
#     4  12  26  48  72 102 146 188 236 306 366 428
#     4  10  23  43  68  99 142 181 224 291 357 419
#     4  11  25  43  70 102 135 183 234 290 354 428
#     4  10  23  44  67 100 140 182 231 289 352 423
#     4  11  25  43  71 102 134 184 241 289 352 427
#
# _framework density 23.625302999999999
#
# number of rings (size 3 to 8) (size 9 to 14) (size 15 to 20)
#    0.000    1.333    0.000    4.667    0.000   17.778 
#    0.000    0.000    0.000    0.000    0.000    0.000 
#    0.000    0.000    0.000    0.000    0.000    0.000 
#
# Total GULP energy -200969.747768 kJ/mol
# GULP energy per Si atom -5582.492994 kJ/mol
# Density = 2.357153 g / cm^3
# Si number density = 23.625303 Si / 1000 Ang^3
#
#
#
# Elastic Constant Matrix: (Units=GPa)
#
#
# Indices 1 2 3 4 5 6 
#
# 1 102.7658 38.1846 18.7953 0.0000 0.0000 -0.9319
# 2 38.1846 102.7658 18.7953 0.0000 0.0000 0.9319
# 3 18.7953 18.7953 131.7439 0.0000 0.0000 0.0000
# 4 0.0000 0.0000 0.0000 37.8084 0.0000 0.0000
# 5 0.0000 0.0000 0.0000 0.0000 37.8084 0.0000
# 6 -0.9319 0.9319 0.0000 0.0000 0.0000 40.7954
#
#
#
# Elastic Compliance Matrix: (Units=1/GPa)
#
#
# Indices 1 2 3 4 5 6 
#
# 1 0.011435 -0.004060 -0.001052 0.000000 0.000000 0.000354
# 2 -0.004060 0.011435 -0.001052 0.000000 0.000000 -0.000354
# 3 -0.001052 -0.001052 0.007891 0.000000 0.000000 0.000000
# 4 0.000000 0.000000 0.000000 0.026449 0.000000 0.000000
# 5 0.000000 0.000000 0.000000 0.000000 0.026449 0.000000
# 6 0.000354 -0.000354 0.000000 0.000000 0.000000 0.024529
#
#
# Mechanical properties :
#
#
# Convention : Reuss Voigt Hill
#
# Bulk Modulus (GPa) = 54.25196 54.31401 54.28298
# Shear Modulus (GPa) = 39.47577 40.71578 40.09578
#
# Velocity S-wave (km/s) = 4.09211 4.15589 4.12412
# Velocity P-wave (km/s) = 6.73354 6.78735 6.76050
#
# Compressibility (1/GPa) = 0.01843252
#
# Stress axis : x y z
#
# Youngs Moduli (GPa) = 87.45117 87.45117 126.73127
#
# Poissons Ratio (x) = 0.35502 0.13335
# Poissons Ratio (y) = 0.35502 0.13335
# Poissons Ratio (z) = 0.09202 0.09202
#
# Static dielectric constant tensor:
#      x y z
#    x 1.935910 0.000000 0.000000 
#    y 0.000000 1.935910 0.000000 
#    z 0.000000 0.000000 1.947830 
# 
# From -- ./inp_files/2478.got.cif
#   From: 2010.05.17/outbox.cif.g08.bks.cpg/sg88_2_cif.got.tgz:2478.got - 2010.06.03 19:11:41.
