data_PCOD9546315
_publ_section_title
;
Structure prediction by ZEFSAII (Michael W. Deem and Ramdas Pophale) SiO2 
 PCOD9546315
Probable space group: I 41/A
;
_chemical_formula_sum "Si O2"
_cell_formula_units_Z 80
_cell_length_a 17.405556
_cell_length_b 17.405556
_cell_length_c 13.706773
_cell_angle_alpha 90.000000
_cell_angle_beta 90.000000
_cell_angle_gamma 90.000000
_cell_volume 4152.513205
_symmetry_space_group_name_H-M "I 41/A"
_symmetry_group_IT_number 88
_space_group.IT_coordinate_system_code '2'
_symmetry_cell_setting 'tetragonal'
loop_
_space_group_symop_operation_xyz
x,y,z
3/4-y,1/4+x,1/4+z
-x,1/2-y,z
1/4+y,1/4-x,1/4+z
-x,-y,-z
1/4+y,3/4-x,3/4-z
x,1/2+y,-z
3/4-y,3/4+x,3/4-z
1/2+x,1/2+y,1/2+z
1/4-y,3/4+x,3/4+z
1/2-x,-y,1/2+z
3/4+y,3/4-x,3/4+z
1/2-x,1/2-y,1/2-z
3/4+y,1/4-x,1/4-z
1/2+x,y,1/2-z
1/4-y,1/4+x,1/4-z
loop_
_atom_site_type_symbol
_atom_site_label
_atom_site_fract_x
_atom_site_fract_y
_atom_site_fract_z
Si Si1 0.629107 0.277817 0.475636
Si Si2 0.136624 0.355894 0.427676
Si Si3 0.500232 0.146999 0.931396
Si Si4 0.440555 0.001125 0.152737
Si Si5 0.982456 0.871649 0.988853
O O1 0.695220 0.257012 0.551326
O O2 0.571833 0.348153 0.498297
O O3 0.570497 0.205075 0.476835
O O4 0.661592 0.281063 0.365397
O O5 0.052305 0.337153 0.474905
O O6 0.199042 0.345265 0.511446
O O7 0.123567 0.442455 0.390802
O O8 0.156887 0.301357 0.337033
O O9 0.447693 0.173963 0.838508
O O10 0.523806 0.059403 0.922397
#
# Coordination Sequence:
#
# PCOD9546315 Si02
#       5
#    16  16  16  16  16
#     4   8  15  29  50  80 105 128 166 215 269 309
#     4  10  20  35  55  76 107 144 174 218 266 316
#     4   9  19  34  54  81 104 127 174 225 268 318
#     4  10  20  32  53  74 105 141 178 212 265 310
#     4   8  15  29  52  77 105 130 165 218 261 310
#
# _framework density 19.265440000000002
#
# number of rings (size 3 to 8) (size 9 to 14) (size 15 to 20)
#    0.000    3.000    0.000    1.800    0.000   13.600 
#    0.000    0.000   26.400    0.000    0.000    0.000 
#    0.000    0.000    0.000    0.000    0.000    0.000 
#
# Total GULP energy -222688.349438 kJ/mol
# GULP energy per Si atom -5567.208736 kJ/mol
# Density = 1.922159 g / cm^3
# Si number density = 19.265440 Si / 1000 Ang^3
#
#
#
# Elastic Constant Matrix: (Units=GPa)
#
#
# Indices 1 2 3 4 5 6 
#
# 1 62.4912 19.6812 17.0280 0.0000 0.0000 0.9261
# 2 19.6812 62.4912 17.0280 0.0000 0.0000 -0.9261
# 3 17.0280 17.0280 62.2242 0.0000 0.0000 0.0000
# 4 0.0000 0.0000 0.0000 32.8555 0.0000 0.0000
# 5 0.0000 0.0000 0.0000 0.0000 32.8555 0.0000
# 6 0.9261 -0.9261 0.0000 0.0000 0.0000 14.7887
#
#
#
# Elastic Compliance Matrix: (Units=1/GPa)
#
#
# Indices 1 2 3 4 5 6 
#
# 1 0.018574 -0.004848 -0.003756 0.000000 0.000000 -0.001467
# 2 -0.004848 0.018574 -0.003756 0.000000 0.000000 0.001467
# 3 -0.003756 -0.003756 0.018127 0.000000 0.000000 0.000000
# 4 0.000000 0.000000 0.000000 0.030436 0.000000 0.000000
# 5 0.000000 0.000000 0.000000 0.000000 0.030436 0.000000
# 6 -0.001467 0.001467 0.000000 0.000000 0.000000 0.067803
#
#
# Mechanical properties :
#
#
# Convention : Reuss Voigt Hill
#
# Bulk Modulus (GPa) = 32.72866 32.74234 32.73550
# Shear Modulus (GPa) = 22.84594 24.99790 23.92192
#
# Velocity S-wave (km/s) = 3.44735 3.60606 3.52760
# Velocity P-wave (km/s) = 5.73331 5.86264 5.79833
#
# Compressibility (1/GPa) = 0.03055426
#
# Stress axis : x y z
#
# Youngs Moduli (GPa) = 53.83753 53.83753 55.16708
#
# Poissons Ratio (x) = 0.26101 0.20722
# Poissons Ratio (y) = 0.26101 0.20722
# Poissons Ratio (z) = 0.20223 0.20223
#
# Static dielectric constant tensor:
#      x y z
#    x 1.683510 0.000000 0.000000 
#    y 0.000000 1.683510 0.000000 
#    z 0.000000 0.000000 1.744500 
# 
# From -- ./inp_files/3152.got.cif
#   From: 2010.05.17/outbox.cif.g08.bks.cpg/sg88_2_cif.got.tgz:3152.got - 2010.06.03 19:11:41.
