data_PCOD9546645
_publ_section_title
;
Structure prediction by ZEFSAII (Michael W. Deem and Ramdas Pophale) SiO2 
 PCOD9546645
Probable space group: I 41/A
;
_chemical_formula_sum "Si O2"
_cell_formula_units_Z 88
_cell_length_a 15.640120
_cell_length_b 15.640120
_cell_length_c 14.489510
_cell_angle_alpha 90.000000
_cell_angle_beta 90.000000
_cell_angle_gamma 90.000000
_cell_volume 3544.327633
_symmetry_space_group_name_H-M "I 41/A"
_symmetry_group_IT_number 88
_space_group.IT_coordinate_system_code '2'
_symmetry_cell_setting 'tetragonal'
loop_
_space_group_symop_operation_xyz
x,y,z
3/4-y,1/4+x,1/4+z
-x,1/2-y,z
1/4+y,1/4-x,1/4+z
-x,-y,-z
1/4+y,3/4-x,3/4-z
x,1/2+y,-z
3/4-y,3/4+x,3/4-z
1/2+x,1/2+y,1/2+z
1/4-y,3/4+x,3/4+z
1/2-x,-y,1/2+z
3/4+y,3/4-x,3/4+z
1/2-x,1/2-y,1/2-z
3/4+y,1/4-x,1/4-z
1/2+x,y,1/2-z
1/4-y,1/4+x,1/4-z
loop_
_atom_site_type_symbol
_atom_site_label
_atom_site_fract_x
_atom_site_fract_y
_atom_site_fract_z
Si Si1 0.500000 0.750000 0.625000
Si Si2 0.283714 0.110961 0.629036
Si Si3 0.500000 0.250000 0.875000
Si Si4 0.111374 0.106367 0.689105
Si Si5 0.820111 0.296904 0.859069
Si Si6 0.910345 0.376523 0.013509
Si Si7 0.336995 0.547902 0.559898
O O1 0.587482 0.759203 0.683178
O O2 0.182937 0.125420 0.611804
O O3 0.313968 0.199541 0.677675
O O4 0.335762 0.102622 0.534169
O O5 0.281680 0.016311 0.675679
O O6 0.574784 0.287366 0.936277
O O7 0.161866 0.130608 0.782561
O O8 0.073047 0.014952 0.665549
O O9 0.891685 0.305972 0.936403
O O10 0.840062 0.386748 0.094210
O O11 0.898123 0.466867 0.961385
#
# Coordination Sequence:
#
# PCOD9546645 Si02
#       7
#     4  16   4  16  16  16  16
#     4  12  28  46  68 100 152 182 232 296 362 384
#     4  11  22  40  70 104 132 185 232 296 335 417
#     4  12  28  42  64 108 152 178 220 300 378 396
#     4  12  25  43  66 105 142 186 227 292 348 426
#     4  12  25  42  72 100 147 183 237 284 358 411
#     4  11  24  47  70 105 139 187 231 297 339 424
#     4  10  23  44  76 101 134 183 254 273 346 426
#
# _framework density 24.828403999999999
#
# number of rings (size 3 to 8) (size 9 to 14) (size 15 to 20)
#    0.000    0.727    3.636    3.818    2.545    1.455 
#    0.000    5.455    0.000    0.000    0.000    0.000 
#    0.000    0.000    0.000    0.000    0.000    0.000 
#
# Total GULP energy -245542.965264 kJ/mol
# GULP energy per Si atom -5580.521938 kJ/mol
# Density = 2.477189 g / cm^3
# Si number density = 24.828404 Si / 1000 Ang^3
#
#
#
# Elastic Constant Matrix: (Units=GPa)
#
#
# Indices 1 2 3 4 5 6 
#
# 1 69.8491 14.4616 21.9408 0.0000 0.0000 0.3729
# 2 14.4616 69.8491 21.9408 0.0000 0.0000 -0.3729
# 3 21.9408 21.9408 64.2875 0.0000 0.0000 0.0000
# 4 0.0000 0.0000 0.0000 31.6867 0.0000 0.0000
# 5 0.0000 0.0000 0.0000 0.0000 31.6867 0.0000
# 6 0.3729 -0.3729 0.0000 0.0000 0.0000 33.9891
#
#
#
# Elastic Compliance Matrix: (Units=1/GPa)
#
#
# Indices 1 2 3 4 5 6 
#
# 1 0.016240 -0.001817 -0.004922 0.000000 0.000000 -0.000198
# 2 -0.001817 0.016240 -0.004922 0.000000 0.000000 0.000198
# 3 -0.004922 -0.004922 0.018915 0.000000 0.000000 0.000000
# 4 0.000000 0.000000 0.000000 0.031559 0.000000 0.000000
# 5 0.000000 0.000000 0.000000 0.000000 0.031559 0.000000
# 6 -0.000198 0.000198 0.000000 0.000000 0.000000 0.029426
#
#
# Mechanical properties :
#
#
# Convention : Reuss Voigt Hill
#
# Bulk Modulus (GPa) = 35.62367 35.63020 35.62694
# Shear Modulus (GPa) = 28.30939 29.18200 28.74570
#
# Velocity S-wave (km/s) = 3.38035 3.43205 3.40630
# Velocity P-wave (km/s) = 5.44195 5.48517 5.46360
#
# Compressibility (1/GPa) = 0.02807122
#
# Stress axis : x y z
#
# Youngs Moduli (GPa) = 61.57605 61.57605 52.86786
#
# Poissons Ratio (x) = 0.11190 0.26024
# Poissons Ratio (y) = 0.11190 0.26024
# Poissons Ratio (z) = 0.30310 0.30310
#
# Static dielectric constant tensor:
#      x y z
#    x 2.005460 0.000000 0.000000 
#    y 0.000000 2.005460 0.000000 
#    z 0.000000 0.000000 1.999730 
# 
# From -- ./inp_files/3250.got.cif
#   From: 2010.05.17/outbox.cif.g08.bks.cpg/sg88_2_cif.got.tgz:3250.got - 2010.06.03 19:11:41.
