data_PCOD9546507
_publ_section_title
;
Structure prediction by ZEFSAII (Michael W. Deem and Ramdas Pophale) SiO2 
 PCOD9546507
Probable space group: I 41/A
;
_chemical_formula_sum "Si O2"
_cell_formula_units_Z 72
_cell_length_a 16.363887
_cell_length_b 16.363887
_cell_length_c 9.769657
_cell_angle_alpha 90.000000
_cell_angle_beta 90.000000
_cell_angle_gamma 90.000000
_cell_volume 2616.087467
_symmetry_space_group_name_H-M "I 41/A"
_symmetry_group_IT_number 88
_space_group.IT_coordinate_system_code '2'
_symmetry_cell_setting 'tetragonal'
loop_
_space_group_symop_operation_xyz
x,y,z
3/4-y,1/4+x,1/4+z
-x,1/2-y,z
1/4+y,1/4-x,1/4+z
-x,-y,-z
1/4+y,3/4-x,3/4-z
x,1/2+y,-z
3/4-y,3/4+x,3/4-z
1/2+x,1/2+y,1/2+z
1/4-y,3/4+x,3/4+z
1/2-x,-y,1/2+z
3/4+y,3/4-x,3/4+z
1/2-x,1/2-y,1/2-z
3/4+y,1/4-x,1/4-z
1/2+x,y,1/2-z
1/4-y,1/4+x,1/4-z
loop_
_atom_site_type_symbol
_atom_site_label
_atom_site_fract_x
_atom_site_fract_y
_atom_site_fract_z
Si Si1 0.000000 0.250000 0.957938
Si Si2 0.953467 0.925735 0.723689
Si Si3 0.407198 0.682581 0.044013
Si Si4 0.732550 0.131084 0.500605
Si Si5 0.719793 0.120141 0.200331
O O1 0.916485 0.220493 0.025764
O O2 0.971386 0.321872 0.853759
O O3 0.866065 0.915708 0.646270
O O4 0.040701 0.951976 0.661219
O O5 0.926595 0.990818 0.837031
O O6 0.393123 0.760843 0.143596
O O7 0.328239 0.627335 0.030340
O O8 0.707662 0.161405 0.347501
O O9 0.693269 0.041400 0.497274
#
# Coordination Sequence:
#
# PCOD9546507 Si02
#       5
#     8  16  16  16  16
#     4  10  21  42  69  94 126 178 220 266 346 398
#     4  11  23  42  68  98 137 173 214 277 333 394
#     4   9  21  42  65  92 126 171 230 277 325 401
#     4  11  22  42  65  91 133 177 216 275 337 387
#     4  10  25  41  62 102 135 168 226 272 325 408
#
# _framework density 27.522013000000001
#
# number of rings (size 3 to 8) (size 9 to 14) (size 15 to 20)
#    0.000    2.000    0.000    3.333    0.000   12.444 
#    0.000   17.778    0.000    0.000    0.000    0.000 
#    0.000    0.000    0.000    0.000    0.000    0.000 
#
# Total GULP energy -201179.262463 kJ/mol
# GULP energy per Si atom -5588.312846 kJ/mol
# Density = 2.745937 g / cm^3
# Si number density = 27.522013 Si / 1000 Ang^3
#
#
#
# Elastic Constant Matrix: (Units=GPa)
#
#
# Indices 1 2 3 4 5 6 
#
# 1 194.1695 62.2224 -3.8712 0.0000 0.0000 18.7286
# 2 62.2224 194.1695 -3.8712 0.0000 0.0000 -18.7286
# 3 -3.8712 -3.8712 56.0019 0.0000 0.0000 0.0000
# 4 0.0000 0.0000 0.0000 26.3319 0.0000 0.0000
# 5 0.0000 0.0000 0.0000 0.0000 26.3319 0.0000
# 6 18.7286 -18.7286 0.0000 0.0000 0.0000 35.9545
#
#
#
# Elastic Compliance Matrix: (Units=1/GPa)
#
#
# Indices 1 2 3 4 5 6 
#
# 1 0.006401 -0.002493 0.000270 0.000000 0.000000 -0.004633
# 2 -0.002493 0.006401 0.000270 0.000000 0.000000 0.004633
# 3 0.000270 0.000270 0.017894 0.000000 0.000000 0.000000
# 4 0.000000 0.000000 0.000000 0.037977 0.000000 0.000000
# 5 0.000000 0.000000 0.000000 0.000000 0.037977 0.000000
# 6 -0.004633 0.004633 0.000000 0.000000 0.000000 0.032639
#
#
# Mechanical properties :
#
#
# Convention : Reuss Voigt Hill
#
# Bulk Modulus (GPa) = 37.32530 61.47787 49.40158
# Shear Modulus (GPa) = 32.86783 43.71440 38.29111
#
# Velocity S-wave (km/s) = 3.45952 3.98973 3.73405
# Velocity P-wave (km/s) = 5.43591 6.60379 6.04811
#
# Compressibility (1/GPa) = 0.02679148
#
# Stress axis : x y z
#
# Youngs Moduli (GPa) = 156.22048 156.22048 55.88498
#
# Poissons Ratio (x) = 0.38942 -0.01510
# Poissons Ratio (y) = 0.38942 -0.01510
# Poissons Ratio (z) = -0.04221 -0.04221
#
# Static dielectric constant tensor:
#      x y z
#    x 2.195730 0.000000 0.000000 
#    y 0.000000 2.195730 0.000000 
#    z 0.000000 0.000000 2.310170 
# 
# From -- ./inp_files/2417.got.cif
#   From: 2010.05.17/outbox.cif.g08.bks.cpg/sg88_2_cif.got.tgz:2417.got - 2010.06.03 19:11:41.
