data_PCOD9546659
_publ_section_title
;
Structure prediction by ZEFSAII (Michael W. Deem and Ramdas Pophale) SiO2 
 PCOD9546659
Probable space group: I 41/A
;
_chemical_formula_sum "Si O2"
_cell_formula_units_Z 48
_cell_length_a 13.117408
_cell_length_b 13.117408
_cell_length_c 12.018592
_cell_angle_alpha 90.000000
_cell_angle_beta 90.000000
_cell_angle_gamma 90.000000
_cell_volume 2067.995770
_symmetry_space_group_name_H-M "I 41/A"
_symmetry_group_IT_number 88
_space_group.IT_coordinate_system_code '2'
_symmetry_cell_setting 'tetragonal'
loop_
_space_group_symop_operation_xyz
x,y,z
3/4-y,1/4+x,1/4+z
-x,1/2-y,z
1/4+y,1/4-x,1/4+z
-x,-y,-z
1/4+y,3/4-x,3/4-z
x,1/2+y,-z
3/4-y,3/4+x,3/4-z
1/2+x,1/2+y,1/2+z
1/4-y,3/4+x,3/4+z
1/2-x,-y,1/2+z
3/4+y,3/4-x,3/4+z
1/2-x,1/2-y,1/2-z
3/4+y,1/4-x,1/4-z
1/2+x,y,1/2-z
1/4-y,1/4+x,1/4-z
loop_
_atom_site_type_symbol
_atom_site_label
_atom_site_fract_x
_atom_site_fract_y
_atom_site_fract_z
Si Si1 0.900753 0.176542 0.745636
Si Si2 0.967617 0.483594 0.873668
Si Si3 0.209687 0.171908 0.903228
O O1 0.828266 0.232360 0.833028
O O2 0.827923 0.156305 0.637862
O O3 0.000000 0.250000 0.732937
O O4 0.945012 0.078001 0.806747
O O5 0.860982 0.422317 0.871469
O O6 0.943919 0.568724 0.782021
O O7 0.000000 0.500000 0.000000
#
# Coordination Sequence:
#
# PCOD9546659 Si02
#       3
#    16  16  16
#     4   9  22  43  70  96 132 177 239 293 338 421
#     4  11  26  42  67 100 146 183 226 300 361 425
#     4  10  24  43  68 101 131 187 241 283 357 419
#
# _framework density 23.210881000000001
#
# number of rings (size 3 to 8) (size 9 to 14) (size 15 to 20)
#    0.000    2.000    0.000    0.000   18.667    2.667 
#    0.000    0.000    0.000    0.000    0.000    0.000 
#    0.000    0.000    0.000    0.000    0.000    0.000 
#
# Total GULP energy -133736.622182 kJ/mol
# GULP energy per Si atom -5572.359258 kJ/mol
# Density = 2.315805 g / cm^3
# Si number density = 23.210881 Si / 1000 Ang^3
#
#
#
# Elastic Constant Matrix: (Units=GPa)
#
#
# Indices 1 2 3 4 5 6 
#
# 1 66.9639 7.0266 16.8358 0.0000 0.0000 3.7867
# 2 7.0266 66.9639 16.8358 0.0000 0.0000 -3.7867
# 3 16.8358 16.8358 202.2513 0.0000 0.0000 0.0000
# 4 0.0000 0.0000 0.0000 26.3707 0.0000 0.0000
# 5 0.0000 0.0000 0.0000 0.0000 26.3707 0.0000
# 6 3.7867 -3.7867 0.0000 0.0000 0.0000 6.1557
#
#
#
# Elastic Compliance Matrix: (Units=1/GPa)
#
#
# Indices 1 2 3 4 5 6 
#
# 1 0.016069 -0.002021 -0.001169 0.000000 0.000000 -0.011128
# 2 -0.002021 0.016069 -0.001169 0.000000 0.000000 0.011128
# 3 -0.001169 -0.001169 0.005139 0.000000 0.000000 0.000000
# 4 0.000000 0.000000 0.000000 0.037921 0.000000 0.000000
# 5 0.000000 0.000000 0.000000 0.000000 0.037921 0.000000
# 6 -0.011128 0.011128 0.000000 0.000000 0.000000 0.176142
#
#
# Mechanical properties :
#
#
# Convention : Reuss Voigt Hill
#
# Bulk Modulus (GPa) = 35.01833 46.39726 40.70779
# Shear Modulus (GPa) = 16.26018 31.47816 23.86917
#
# Velocity S-wave (km/s) = 2.64965 3.68663 3.21029
# Velocity P-wave (km/s) = 4.94779 6.17693 5.59621
#
# Compressibility (1/GPa) = 0.02855648
#
# Stress axis : x y z
#
# Youngs Moduli (GPa) = 62.23238 62.23239 194.58975
#
# Poissons Ratio (x) = 0.12580 0.22754
# Poissons Ratio (y) = 0.12580 0.22754
# Poissons Ratio (z) = 0.07277 0.07277
#
# Static dielectric constant tensor:
#      x y z
#    x 1.967910 0.000000 0.000000 
#    y 0.000000 1.967910 0.000000 
#    z 0.000000 0.000000 1.890210 
# 
# From -- ./inp_files/2121.got.cif
#   From: 2010.05.17/outbox.cif.g08.bks.cpg/sg88_2_cif.got.tgz:2121.got - 2010.06.03 19:11:41.
