data_PCOD9546447
_publ_section_title
;
Structure prediction by ZEFSAII (Michael W. Deem and Ramdas Pophale) SiO2 
 PCOD9546447
Probable space group: I 41/A
;
_chemical_formula_sum "Si O2"
_cell_formula_units_Z 80
_cell_length_a 10.242696
_cell_length_b 10.242696
_cell_length_c 33.299897
_cell_angle_alpha 90.000000
_cell_angle_beta 90.000000
_cell_angle_gamma 90.000000
_cell_volume 3493.586145
_symmetry_space_group_name_H-M "I 41/A"
_symmetry_group_IT_number 88
_space_group.IT_coordinate_system_code '2'
_symmetry_cell_setting 'tetragonal'
loop_
_space_group_symop_operation_xyz
x,y,z
3/4-y,1/4+x,1/4+z
-x,1/2-y,z
1/4+y,1/4-x,1/4+z
-x,-y,-z
1/4+y,3/4-x,3/4-z
x,1/2+y,-z
3/4-y,3/4+x,3/4-z
1/2+x,1/2+y,1/2+z
1/4-y,3/4+x,3/4+z
1/2-x,-y,1/2+z
3/4+y,3/4-x,3/4+z
1/2-x,1/2-y,1/2-z
3/4+y,1/4-x,1/4-z
1/2+x,y,1/2-z
1/4-y,1/4+x,1/4-z
loop_
_atom_site_type_symbol
_atom_site_label
_atom_site_fract_x
_atom_site_fract_y
_atom_site_fract_z
Si Si1 0.847566 0.217048 0.286186
Si Si2 0.152112 0.706695 0.628189
Si Si3 0.913600 0.076768 0.604778
Si Si4 0.654764 0.270178 0.043816
Si Si5 0.683822 0.474550 0.975439
O O1 0.750000 0.250000 0.250000
O O2 0.795661 0.280203 0.327190
O O3 0.000000 0.250000 0.277705
O O4 0.835272 0.063607 0.293790
O O5 0.155405 0.556945 0.615448
O O6 0.209079 0.780374 0.589184
O O7 0.000000 0.750000 0.632432
O O8 0.835595 0.199733 0.621937
O O9 0.927487 0.070466 0.556358
O O10 0.500000 0.250000 0.048469
O O11 0.697075 0.131919 0.023292
O O12 0.673368 0.397950 0.017095
#
# Coordination Sequence:
#
# PCOD9546447 Si02
#       5
#    16  16  16  16  16
#     4  11  23  44  67  92 127 174 224 268 328 397
#     4   9  20  42  62  86 129 173 212 251 331 393
#     4  10  21  37  63  97 127 165 220 269 329 394
#     4  10  22  42  64  99 135 173 212 278 336 408
#     4  11  23  42  65  99 135 168 229 270 344 397
#
# _framework density 22.899106
#
# number of rings (size 3 to 8) (size 9 to 14) (size 15 to 20)
#    0.000    1.800    0.000    4.200    2.800    0.000 
#   21.600    0.000    0.000    0.000    0.000    0.000 
#    0.000    0.000    0.000    0.000    0.000    0.000 
#
# Total GULP energy -223360.331262 kJ/mol
# GULP energy per Si atom -5584.008282 kJ/mol
# Density = 2.284699 g / cm^3
# Si number density = 22.899106 Si / 1000 Ang^3
#
#
#
# Elastic Constant Matrix: (Units=GPa)
#
#
# Indices 1 2 3 4 5 6 
#
# 1 66.9773 11.5587 40.3850 0.0000 0.0000 1.1927
# 2 11.5587 66.9773 40.3850 0.0000 0.0000 -1.1927
# 3 40.3850 40.3850 218.5485 0.0000 0.0000 0.0000
# 4 0.0000 0.0000 0.0000 29.3286 0.0000 0.0000
# 5 0.0000 0.0000 0.0000 0.0000 29.3286 0.0000
# 6 1.1927 -1.1927 0.0000 0.0000 0.0000 19.1135
#
#
#
# Elastic Compliance Matrix: (Units=1/GPa)
#
#
# Indices 1 2 3 4 5 6 
#
# 1 0.016907 -0.001186 -0.002905 0.000000 0.000000 -0.001129
# 2 -0.001186 0.016907 -0.002905 0.000000 0.000000 0.001129
# 3 -0.002905 -0.002905 0.005649 0.000000 0.000000 0.000000
# 4 0.000000 0.000000 0.000000 0.034096 0.000000 0.000000
# 5 0.000000 0.000000 0.000000 0.000000 0.034096 0.000000
# 6 -0.001129 0.001129 0.000000 0.000000 0.000000 0.052460
#
#
# Mechanical properties :
#
#
# Convention : Reuss Voigt Hill
#
# Bulk Modulus (GPa) = 39.26093 59.68450 49.47272
# Shear Modulus (GPa) = 27.38251 32.89909 30.14080
#
# Velocity S-wave (km/s) = 3.46177 3.79449 3.63194
# Velocity P-wave (km/s) = 5.75855 6.73188 6.26415
#
# Compressibility (1/GPa) = 0.02547061
#
# Stress axis : x y z
#
# Youngs Moduli (GPa) = 59.14760 59.14761 177.01463
#
# Poissons Ratio (x) = 0.07016 0.51422
# Poissons Ratio (y) = 0.07016 0.51422
# Poissons Ratio (z) = 0.17182 0.17182
#
# Static dielectric constant tensor:
#      x y z
#    x 1.877140 0.000000 0.000000 
#    y 0.000000 1.877140 0.000000 
#    z 0.000000 0.000000 1.948640 
# 
# From -- ./inp_files/6303.got.cif
#   From: 2010.05.17/outbox.cif.g08.bks.cpg/sg88_4_cif.got.tgz:6303.got - 2010.06.03 19:11:41.
