data_PCOD9546158
_publ_section_title
;
Structure prediction by ZEFSAII (Michael W. Deem and Ramdas Pophale) SiO2 
 PCOD9546158
Probable space group: I 4/M
;
_chemical_formula_sum "Si O2"
_cell_formula_units_Z 80
_cell_length_a 10.246830
_cell_length_b 10.246830
_cell_length_c 29.068332
_cell_angle_alpha 90.000000
_cell_angle_beta 90.000000
_cell_angle_gamma 90.000000
_cell_volume 3052.102917
_symmetry_space_group_name_H-M "I 4/M"
_symmetry_group_IT_number 87
_symmetry_cell_setting 'tetragonal'
loop_
_space_group_symop_operation_xyz
x,y,z
-y,x,z
-x,-y,z
y,-x,z
-x,-y,-z
y,-x,-z
x,y,-z
-y,x,-z
1/2+x,1/2+y,1/2+z
1/2-y,1/2+x,1/2+z
1/2-x,1/2-y,1/2+z
1/2+y,1/2-x,1/2+z
1/2-x,1/2-y,1/2-z
1/2+y,1/2-x,1/2-z
1/2+x,1/2+y,1/2-z
1/2-y,1/2+x,1/2-z
loop_
_atom_site_type_symbol
_atom_site_label
_atom_site_fract_x
_atom_site_fract_y
_atom_site_fract_z
Si Si1 0.884357 0.383126 0.624819
Si Si2 0.714250 0.548112 0.212963
Si Si3 0.719795 0.535457 0.315276
Si Si4 0.625086 0.679573 0.449544
Si Si5 0.280559 0.505850 0.946681
O O1 0.921481 0.302491 0.669797
O O2 0.834914 0.519497 0.647663
O O3 0.758690 0.338794 0.595171
O O4 0.992421 0.344889 0.586146
O O5 0.594325 0.649579 0.210359
O O6 0.774913 0.556288 0.263922
O O7 0.603588 0.641589 0.318769
O O8 0.467965 0.673584 0.448247
O O9 0.662043 0.733579 0.500000
O O10 0.374568 0.380041 0.938824
O O11 0.241207 0.513725 0.000000
#
# Coordination Sequence:
#
# PCOD9546158 Si02
#       5
#    16  16  16  16  16
#     4  12  19  29  60  90 106 140 196 241 274 326
#     4   9  20  38  56  77 108 144 186 239 290 335
#     4   9  20  38  56  77 108 144 186 239 290 335
#     4   9  19  36  57  85 121 154 187 231 279 330
#     4   9  19  36  57  85 121 154 187 231 279 330
#
# _framework density 26.211435999999999
#
# number of rings (size 3 to 8) (size 9 to 14) (size 15 to 20)
#    0.000    2.400    0.000    5.400    0.000    6.400 
#    0.000    0.000    0.000   29.400    0.000   22.400 
#    0.000    0.000    0.000    0.000    0.000    0.000 
#
# Total GULP energy -223569.658237 kJ/mol
# GULP energy per Si atom -5589.241456 kJ/mol
# Density = 2.615178 g / cm^3
# Si number density = 26.211436 Si / 1000 Ang^3
#
#
#
# Elastic Constant Matrix: (Units=GPa)
#
#
# Indices 1 2 3 4 5 6 
#
# 1 59.4891 69.5507 76.0523 0.0000 0.0000 -3.1324
# 2 69.5507 59.4891 76.0524 0.0000 0.0000 3.1324
# 3 76.0523 76.0524 228.3056 0.0000 0.0000 0.0000
# 4 0.0000 0.0000 0.0000 49.7460 0.0000 0.0000
# 5 0.0000 0.0000 0.0000 0.0000 49.7460 0.0000
# 6 -3.1324 3.1324 0.0000 0.0000 0.0000 48.7248
#
#
#
# Elastic Compliance Matrix: (Units=1/GPa)
#
#
# Indices 1 2 3 4 5 6 
#
# 1 -0.041401 0.054161 -0.004250 0.000000 0.000000 -0.006144
# 2 0.054161 -0.041401 -0.004250 0.000000 0.000000 0.006144
# 3 -0.004250 -0.004250 0.007212 0.000000 0.000000 0.000000
# 4 0.000000 0.000000 0.000000 0.020102 0.000000 0.000000
# 5 0.000000 0.000000 0.000000 0.000000 0.020102 0.000000
# 6 -0.006144 0.006144 0.000000 0.000000 0.000000 0.019734
#
#
# Mechanical properties :
#
#
# Convention : Reuss Voigt Hill
#
# Bulk Modulus (GPa) = 63.57479 87.84385 75.70932
# Shear Modulus (GPa) = -49.14953 38.01860 -5.56546
#
# Velocity S-wave (km/s) = -4.33496 3.81262 -1.45873
# Velocity P-wave (km/s) = 0.86521 7.27789 5.10975
#
# Compressibility (1/GPa) = 0.01572950
#
# Stress axis : x y z
#
# Youngs Moduli (GPa) = -24.15377 -24.15378 138.65946
#
# Poissons Ratio (x) = 1.30820 0.58937
# Poissons Ratio (y) = 1.30820 0.58937
# Poissons Ratio (z) = -0.10267 -0.10267
#
# Static dielectric constant tensor:
#      x y z
#    x 2.099910 0.000000 0.000000 
#    y 0.000000 2.099910 0.000000 
#    z 0.000000 0.000000 2.005520 
# 
# From -- ./inp_files/6490.got.cif
#   From: 2010.05.17/outbox.cif.g08.bks.cpg/sg87_4_cif.got.tgz:6490.got - 2010.06.03 19:07:00.
