data_PCOD9546289
_publ_section_title
;
Structure prediction by ZEFSAII (Michael W. Deem and Ramdas Pophale) SiO2 
 PCOD9546289
Probable space group: I 41/A
;
_chemical_formula_sum "Si O2"
_cell_formula_units_Z 128
_cell_length_a 22.671174
_cell_length_b 22.671174
_cell_length_c 12.109020
_cell_angle_alpha 90.000000
_cell_angle_beta 90.000000
_cell_angle_gamma 90.000000
_cell_volume 6223.819898
_symmetry_space_group_name_H-M "I 41/A"
_symmetry_group_IT_number 88
_space_group.IT_coordinate_system_code '2'
_symmetry_cell_setting 'tetragonal'
loop_
_space_group_symop_operation_xyz
x,y,z
3/4-y,1/4+x,1/4+z
-x,1/2-y,z
1/4+y,1/4-x,1/4+z
-x,-y,-z
1/4+y,3/4-x,3/4-z
x,1/2+y,-z
3/4-y,3/4+x,3/4-z
1/2+x,1/2+y,1/2+z
1/4-y,3/4+x,3/4+z
1/2-x,-y,1/2+z
3/4+y,3/4-x,3/4+z
1/2-x,1/2-y,1/2-z
3/4+y,1/4-x,1/4-z
1/2+x,y,1/2-z
1/4-y,1/4+x,1/4-z
loop_
_atom_site_type_symbol
_atom_site_label
_atom_site_fract_x
_atom_site_fract_y
_atom_site_fract_z
Si Si1 0.283509 0.978821 0.508019
Si Si2 0.057175 0.609269 0.185296
Si Si3 0.902403 0.320939 0.384326
Si Si4 0.410403 0.215066 0.849092
Si Si5 0.778738 0.339536 0.321390
Si Si6 0.656670 0.142610 0.531255
Si Si7 0.725531 0.227561 0.397520
Si Si8 0.424936 0.186853 0.391957
O O1 0.250984 0.986617 0.631492
O O2 0.296986 0.909496 0.491018
O O3 0.347408 0.007930 0.530743
O O4 0.050821 0.609166 0.317081
O O5 0.119841 0.633398 0.143315
O O6 0.046266 0.542835 0.146401
O O7 0.000973 0.648980 0.145108
O O8 0.945026 0.346820 0.475506
O O9 0.835561 0.342737 0.399608
O O10 0.924615 0.341287 0.266797
O O11 0.428427 0.282923 0.857112
O O12 0.730886 0.297475 0.380437
O O13 0.799880 0.302457 0.213515
O O14 0.690742 0.202890 0.502422
O O15 0.603440 0.139626 0.442614
O O16 0.420489 0.255976 0.369458
#
# Coordination Sequence:
#
# PCOD9546289 Si02
#       8
#    16  16  16  16  16  16  16  16
#     4  12  25  46  68  95 126 167 219 267 322 383
#     4  10  20  36  58  84 117 158 208 248 292 373
#     4  10  19  37  55  83 120 159 199 244 302 371
#     4   9  20  35  58  82 118 166 204 235 300 378
#     4  10  20  38  61  89 117 162 205 259 312 378
#     4  12  21  38  63  92 121 162 202 259 315 370
#     4  10  20  36  65  88 118 159 210 251 315 372
#     4  11  23  31  53  96 133 155 190 256 318 365
#
# _framework density 20.566147000000001
#
# number of rings (size 3 to 8) (size 9 to 14) (size 15 to 20)
#    0.000    1.500    5.000    0.000    3.500    1.000 
#    4.500    0.000    0.000    6.750    0.000    0.000 
#    0.000    0.000    0.000    0.000    0.000    0.000 
#
# Total GULP energy -356936.245297 kJ/mol
# GULP energy per Si atom -5577.128833 kJ/mol
# Density = 2.051934 g / cm^3
# Si number density = 20.566147 Si / 1000 Ang^3
#
#
#
# Elastic Constant Matrix: (Units=GPa)
#
#
# Indices 1 2 3 4 5 6 
#
# 1 40.4595 11.2135 18.4355 0.0000 0.0000 2.4767
# 2 11.2135 40.4595 18.4355 0.0000 0.0000 -2.4767
# 3 18.4355 18.4355 69.2310 0.0000 0.0000 0.0000
# 4 0.0000 0.0000 0.0000 24.9322 0.0000 0.0000
# 5 0.0000 0.0000 0.0000 0.0000 24.9322 0.0000
# 6 2.4767 -2.4767 0.0000 0.0000 0.0000 19.9186
#
#
#
# Elastic Compliance Matrix: (Units=1/GPa)
#
#
# Indices 1 2 3 4 5 6 
#
# 1 0.029410 -0.005518 -0.006362 0.000000 0.000000 -0.004343
# 2 -0.005518 0.029410 -0.006362 0.000000 0.000000 0.004343
# 3 -0.006362 -0.006362 0.017833 0.000000 0.000000 0.000000
# 4 0.000000 0.000000 0.000000 0.040109 0.000000 0.000000
# 5 0.000000 0.000000 0.000000 0.000000 0.040109 0.000000
# 6 -0.004343 0.004343 0.000000 0.000000 0.000000 0.051284
#
#
# Mechanical properties :
#
#
# Convention : Reuss Voigt Hill
#
# Bulk Modulus (GPa) = 24.89531 27.36879 26.13205
# Shear Modulus (GPa) = 19.37762 20.76096 20.06929
#
# Velocity S-wave (km/s) = 3.07287 3.18067 3.12723
# Velocity P-wave (km/s) = 4.97206 5.17933 5.07675
#
# Compressibility (1/GPa) = 0.04016821
#
# Stress axis : x y z
#
# Youngs Moduli (GPa) = 34.00175 34.00175 56.07643
#
# Poissons Ratio (x) = 0.18762 0.35677
# Poissons Ratio (y) = 0.18762 0.35677
# Poissons Ratio (z) = 0.21633 0.21633
#
# Static dielectric constant tensor:
#      x y z
#    x 1.760530 0.000000 0.000000 
#    y 0.000000 1.760530 0.000000 
#    z 0.000000 0.000000 1.766110 
# 
# From -- ./inp_files/2746.got.cif
#   From: 2010.05.17/outbox.cif.g08.bks.cpg/sg88_2_cif.got.tgz:2746.got - 2010.06.03 19:11:41.
