data_PCOD9546144
_publ_section_title
;
Structure prediction by ZEFSAII (Michael W. Deem and Ramdas Pophale) SiO2 
 PCOD9546144
Probable space group: I 4/M
;
_chemical_formula_sum "Si O2"
_cell_formula_units_Z 48
_cell_length_a 15.203904
_cell_length_b 15.203904
_cell_length_c 10.553577
_cell_angle_alpha 90.000000
_cell_angle_beta 90.000000
_cell_angle_gamma 90.000000
_cell_volume 2439.551106
_symmetry_space_group_name_H-M "I 4/M"
_symmetry_group_IT_number 87
_symmetry_cell_setting 'tetragonal'
loop_
_space_group_symop_operation_xyz
x,y,z
-y,x,z
-x,-y,z
y,-x,z
-x,-y,-z
y,-x,-z
x,y,-z
-y,x,-z
1/2+x,1/2+y,1/2+z
1/2-y,1/2+x,1/2+z
1/2-x,1/2-y,1/2+z
1/2+y,1/2-x,1/2+z
1/2-x,1/2-y,1/2-z
1/2+y,1/2-x,1/2-z
1/2+x,1/2+y,1/2-z
1/2-y,1/2+x,1/2-z
loop_
_atom_site_type_symbol
_atom_site_label
_atom_site_fract_x
_atom_site_fract_y
_atom_site_fract_z
Si Si1 0.451280 0.638061 0.150959
Si Si2 0.395061 0.897375 0.000000
Si Si3 0.703302 0.843743 0.747894
Si Si4 0.898901 0.607713 0.500000
O O1 0.391261 0.551638 0.175551
O O2 0.417112 0.720642 0.229541
O O3 0.443277 0.657025 0.000000
O O4 0.351712 0.858883 0.125877
O O5 0.497922 0.870631 0.000000
O O6 0.391211 0.002310 0.000000
O O7 0.750000 0.750000 0.750000
O O8 0.647910 0.856743 0.874791
#
# Coordination Sequence:
#
# PCOD9546144 Si02
#       4
#    16   8  16   8
#     4   9  20  39  64  93 128 174 216 260 321 388
#     4  11  25  48  68  89 134 178 216 269 319 388
#     4  12  25  40  69  99 128 165 222 270 322 380
#     4  11  27  44  66  99 130 176 214 265 333 380
#
# _framework density 19.675750000000001
#
# number of rings (size 3 to 8) (size 9 to 14) (size 15 to 20)
#    0.000    1.333    1.667    4.000    9.333    2.667 
#    0.000    0.000    0.000    2.000    0.000    0.000 
#    0.000    0.000    0.000    0.000    0.000    0.000 
#
# Total GULP energy -134329.659753 kJ/mol
# GULP energy per Si atom -5597.069156 kJ/mol
# Density = 1.963097 g / cm^3
# Si number density = 19.675750 Si / 1000 Ang^3
#
#
#
# Elastic Constant Matrix: (Units=GPa)
#
#
# Indices 1 2 3 4 5 6 
#
# 1 88.6429 32.1562 58.7967 0.0000 0.0000 6.7959
# 2 32.1562 88.6429 58.7967 0.0000 0.0000 -6.7959
# 3 58.7967 58.7967 169.1813 0.0000 0.0000 0.0000
# 4 0.0000 0.0000 0.0000 62.4397 0.0000 0.0000
# 5 0.0000 0.0000 0.0000 0.0000 62.4397 0.0000
# 6 6.7959 -6.7959 0.0000 0.0000 0.0000 35.2685
#
#
#
# Elastic Compliance Matrix: (Units=1/GPa)
#
#
# Indices 1 2 3 4 5 6 
#
# 1 0.015537 -0.003027 -0.004348 0.000000 0.000000 -0.003577
# 2 -0.003027 0.015537 -0.004348 0.000000 0.000000 0.003577
# 3 -0.004348 -0.004348 0.008933 0.000000 0.000000 0.000000
# 4 0.000000 0.000000 0.000000 0.016015 0.000000 0.000000
# 5 0.000000 0.000000 0.000000 0.000000 0.016015 0.000000
# 6 -0.003577 0.003577 0.000000 0.000000 0.000000 0.029732
#
#
# Mechanical properties :
#
#
# Convention : Reuss Voigt Hill
#
# Bulk Modulus (GPa) = 60.37661 71.77406 66.07533
# Shear Modulus (GPa) = 38.24471 45.14408 41.69440
#
# Velocity S-wave (km/s) = 4.41358 4.79519 4.60834
# Velocity P-wave (km/s) = 7.53162 8.19854 7.87215
#
# Compressibility (1/GPa) = 0.01656270
#
# Stress axis : x y z
#
# Youngs Moduli (GPa) = 64.36084 64.36084 111.94488
#
# Poissons Ratio (x) = 0.19480 0.48673
# Poissons Ratio (y) = 0.19480 0.48673
# Poissons Ratio (z) = 0.27984 0.27984
#
# Static dielectric constant tensor:
#      x y z
#    x 1.687700 0.000000 0.000000 
#    y 0.000000 1.687700 0.000000 
#    z 0.000000 0.000000 1.626740 
# 
# From -- ./inp_files/2109.got.cif
#   From: 2010.05.17/outbox.cif.g08.bks.cpg/sg87_2_cif.got.tgz:2109.got - 2010.06.03 19:07:00.
