data_PCOD9546571
_publ_section_title
;
Structure prediction by ZEFSAII (Michael W. Deem and Ramdas Pophale) SiO2 
 PCOD9546571
Probable space group: I 41/A
;
_chemical_formula_sum "Si O2"
_cell_formula_units_Z 100
_cell_length_a 18.698029
_cell_length_b 18.698029
_cell_length_c 11.651045
_cell_angle_alpha 90.000000
_cell_angle_beta 90.000000
_cell_angle_gamma 90.000000
_cell_volume 4073.395110
_symmetry_space_group_name_H-M "I 41/A"
_symmetry_group_IT_number 88
_space_group.IT_coordinate_system_code '2'
_symmetry_cell_setting 'tetragonal'
loop_
_space_group_symop_operation_xyz
x,y,z
3/4-y,1/4+x,1/4+z
-x,1/2-y,z
1/4+y,1/4-x,1/4+z
-x,-y,-z
1/4+y,3/4-x,3/4-z
x,1/2+y,-z
3/4-y,3/4+x,3/4-z
1/2+x,1/2+y,1/2+z
1/4-y,3/4+x,3/4+z
1/2-x,-y,1/2+z
3/4+y,3/4-x,3/4+z
1/2-x,1/2-y,1/2-z
3/4+y,1/4-x,1/4-z
1/2+x,y,1/2-z
1/4-y,1/4+x,1/4-z
loop_
_atom_site_type_symbol
_atom_site_label
_atom_site_fract_x
_atom_site_fract_y
_atom_site_fract_z
Si Si1 0.047385 0.433481 0.217057
Si Si2 0.903128 0.152726 0.023901
Si Si3 0.774314 0.830011 0.215894
Si Si4 0.500000 0.250000 0.375000
Si Si5 0.791800 0.810594 0.583101
Si Si6 0.728037 0.536826 0.971810
Si Si7 0.546037 0.355316 0.875899
O O1 0.976288 0.387936 0.254097
O O2 0.007370 0.492931 0.139430
O O3 0.104306 0.387620 0.145967
O O4 0.081686 0.466933 0.329668
O O5 0.984004 0.183334 0.044161
O O6 0.907279 0.091860 0.930393
O O7 0.750000 0.750000 0.250000
O O8 0.722958 0.892321 0.261048
O O9 0.851512 0.838673 0.277203
O O10 0.749803 0.879738 0.533545
O O11 0.842327 0.786658 0.480021
O O12 0.756679 0.505158 0.093702
O O13 0.583833 0.283159 0.834375
#
# Coordination Sequence:
#
# PCOD9546571 Si02
#       7
#    16  16  16   4  16  16  16
#     4  11  24  42  68  97 137 185 235 298 358 439
#     4  10  22  41  65  96 136 183 232 290 363 429
#     4  12  23  44  70  98 139 184 239 298 367 428
#     4   8  20  40  60  92 130 180 232 288 356 426
#     4  12  23  42  67  99 139 181 234 295 358 430
#     4  12  27  47  72 103 146 194 243 300 365 447
#     4  11  24  40  66 100 134 175 229 290 353 413
#
# _framework density 24.549544999999998
#
# number of rings (size 3 to 8) (size 9 to 14) (size 15 to 20)
#    0.000    0.800    3.200    4.320    0.000    7.680 
#    0.000    0.000    0.000    0.000    0.000    0.000 
#    0.000    0.000    0.000    0.000    0.000    0.000 
#
# Total GULP energy -279319.077524 kJ/mol
# GULP energy per Si atom -5586.381550 kJ/mol
# Density = 2.449367 g / cm^3
# Si number density = 24.549545 Si / 1000 Ang^3
#
#
#
# Elastic Constant Matrix: (Units=GPa)
#
#
# Indices 1 2 3 4 5 6 
#
# 1 59.3064 4.8385 1.7849 0.0000 0.0000 -1.0681
# 2 4.8385 59.3064 1.7849 0.0000 0.0000 1.0681
# 3 1.7849 1.7849 104.8769 0.0000 0.0000 0.0000
# 4 0.0000 0.0000 0.0000 31.6771 0.0000 0.0000
# 5 0.0000 0.0000 0.0000 0.0000 31.6771 0.0000
# 6 -1.0681 1.0681 0.0000 0.0000 0.0000 31.0356
#
#
#
# Elastic Compliance Matrix: (Units=1/GPa)
#
#
# Indices 1 2 3 4 5 6 
#
# 1 0.016994 -0.001390 -0.000266 0.000000 0.000000 0.000633
# 2 -0.001390 0.016994 -0.000266 0.000000 0.000000 -0.000633
# 3 -0.000266 -0.000266 0.009544 0.000000 0.000000 0.000000
# 4 0.000000 0.000000 0.000000 0.031569 0.000000 0.000000
# 5 0.000000 0.000000 0.000000 0.000000 0.031569 0.000000
# 6 0.000633 -0.000633 0.000000 0.000000 0.000000 0.032265
#
#
# Mechanical properties :
#
#
# Convention : Reuss Voigt Hill
#
# Bulk Modulus (GPa) = 25.19484 26.70072 25.94778
# Shear Modulus (GPa) = 32.04990 33.21673 32.63332
#
# Velocity S-wave (km/s) = 3.61712 3.68237 3.64989
# Velocity P-wave (km/s) = 5.26591 5.38328 5.32492
#
# Compressibility (1/GPa) = 0.03969067
#
# Stress axis : x y z
#
# Youngs Moduli (GPa) = 58.84305 58.84305 104.77754
#
# Poissons Ratio (x) = 0.08179 0.02783
# Poissons Ratio (y) = 0.08179 0.02783
# Poissons Ratio (z) = 0.01563 0.01563
#
# Static dielectric constant tensor:
#      x y z
#    x 1.991140 0.000000 0.000000 
#    y 0.000000 1.991140 0.000000 
#    z 0.000000 0.000000 1.963480 
# 
# From -- ./inp_files/2659.got.cif
#   From: 2010.05.17/outbox.cif.g08.bks.cpg/sg88_2_cif.got.tgz:2659.got - 2010.06.03 19:11:41.
