data_PCOD9546802
_publ_section_title
;
Structure prediction by ZEFSAII (Michael W. Deem and Ramdas Pophale) SiO2 
 PCOD9546802
Probable space group: I 41/A
;
_chemical_formula_sum "Si O2"
_cell_formula_units_Z 96
_cell_length_a 14.374515
_cell_length_b 14.374515
_cell_length_c 19.462204
_cell_angle_alpha 90.000000
_cell_angle_beta 90.000000
_cell_angle_gamma 90.000000
_cell_volume 4021.410627
_symmetry_space_group_name_H-M "I 41/A"
_symmetry_group_IT_number 88
_space_group.IT_coordinate_system_code '2'
_symmetry_cell_setting 'tetragonal'
loop_
_space_group_symop_operation_xyz
x,y,z
3/4-y,1/4+x,1/4+z
-x,1/2-y,z
1/4+y,1/4-x,1/4+z
-x,-y,-z
1/4+y,3/4-x,3/4-z
x,1/2+y,-z
3/4-y,3/4+x,3/4-z
1/2+x,1/2+y,1/2+z
1/4-y,3/4+x,3/4+z
1/2-x,-y,1/2+z
3/4+y,3/4-x,3/4+z
1/2-x,1/2-y,1/2-z
3/4+y,1/4-x,1/4-z
1/2+x,y,1/2-z
1/4-y,1/4+x,1/4-z
loop_
_atom_site_type_symbol
_atom_site_label
_atom_site_fract_x
_atom_site_fract_y
_atom_site_fract_z
Si Si1 0.556484 0.154729 0.604790
Si Si2 0.274372 0.243526 0.422119
Si Si3 0.372809 0.323529 0.854345
Si Si4 0.655625 0.511793 0.790966
Si Si5 0.329432 0.639274 0.706617
Si Si6 0.406886 0.046902 0.029895
O O1 0.500000 0.250000 0.597046
O O2 0.572471 0.106014 0.531282
O O3 0.654159 0.166450 0.646137
O O4 0.498349 0.082888 0.650660
O O5 0.284579 0.170475 0.483603
O O6 0.332851 0.212277 0.355365
O O7 0.308895 0.345641 0.442017
O O8 0.462657 0.364849 0.892574
O O9 0.278089 0.355815 0.890965
O O10 0.376901 0.359678 0.776976
O O11 0.726039 0.597172 0.797302
O O12 0.724136 0.426330 0.772909
O O13 0.500000 0.000000 0.000000
#
# Coordination Sequence:
#
# PCOD9546802 Si02
#       6
#    16  16  16  16  16  16
#     4  12  29  49  78 116 156 212 269 333 399 485
#     4  12  28  52  81 114 160 206 266 336 405 475
#     4  11  25  42  71 108 157 206 253 314 397 480
#     4  12  26  48  78 115 157 207 257 328 394 483
#     4  12  30  51  82 114 155 206 276 331 405 474
#     4  12  25  43  71 108 156 200 256 315 393 472
#
# _framework density 23.872221
#
# number of rings (size 3 to 8) (size 9 to 14) (size 15 to 20)
#    0.000    0.167    3.333    4.500   11.667    0.000 
#    0.000    0.000    0.000    0.000    0.000    0.000 
#    0.000    0.000    0.000    0.000    0.000    0.000 
#
# Total GULP energy -268934.750473 kJ/mol
# GULP energy per Si atom -5602.807302 kJ/mol
# Density = 2.381789 g / cm^3
# Si number density = 23.872221 Si / 1000 Ang^3
#
#
#
# Elastic Constant Matrix: (Units=GPa)
#
#
# Indices 1 2 3 4 5 6 
#
# 1 90.0408 29.6644 34.0589 0.0000 0.0000 2.7254
# 2 29.6644 90.0408 34.0589 0.0000 0.0000 -2.7254
# 3 34.0589 34.0589 144.4588 0.0000 0.0000 0.0000
# 4 0.0000 0.0000 0.0000 34.5167 0.0000 0.0000
# 5 0.0000 0.0000 0.0000 0.0000 34.5167 0.0000
# 6 2.7254 -2.7254 0.0000 0.0000 0.0000 52.9338
#
#
#
# Elastic Compliance Matrix: (Units=1/GPa)
#
#
# Indices 1 2 3 4 5 6 
#
# 1 0.013144 -0.003496 -0.002275 0.000000 0.000000 -0.000857
# 2 -0.003496 0.013144 -0.002275 0.000000 0.000000 0.000857
# 3 -0.002275 -0.002275 0.007995 0.000000 0.000000 0.000000
# 4 0.000000 0.000000 0.000000 0.028972 0.000000 0.000000
# 5 0.000000 0.000000 0.000000 0.000000 0.028972 0.000000
# 6 -0.000857 0.000857 0.000000 0.000000 0.000000 0.018980
#
#
# Mechanical properties :
#
#
# Convention : Reuss Voigt Hill
#
# Bulk Modulus (GPa) = 54.96752 57.78940 56.37846
# Shear Modulus (GPa) = 37.49214 39.51065 38.50140
#
# Velocity S-wave (km/s) = 3.96730 4.07269 4.02034
# Velocity P-wave (km/s) = 6.63789 6.81000 6.72450
#
# Compressibility (1/GPa) = 0.01819256
#
# Stress axis : x y z
#
# Youngs Moduli (GPa) = 76.07911 76.07911 125.07772
#
# Poissons Ratio (x) = 0.26597 0.28452
# Poissons Ratio (y) = 0.26597 0.28452
# Poissons Ratio (z) = 0.17306 0.17306
#
# Static dielectric constant tensor:
#      x y z
#    x 1.940160 0.000000 0.000000 
#    y 0.000000 1.940160 0.000000 
#    z 0.000000 0.000000 1.913380 
# 
# From -- ./inp_files/4679.got.cif
#   From: 2010.05.17/outbox.cif.g08.bks.cpg/sg88_3_cif.got.tgz:4679.got - 2010.06.03 19:11:41.
