data_PCOD9546949
_publ_section_title
;
Structure prediction by ZEFSAII (Michael W. Deem and Ramdas Pophale) SiO2 
 PCOD9546949
Probable space group: P 4 2 2
;
_chemical_formula_sum "Si O2"
_cell_formula_units_Z 38
_cell_length_a 8.857383
_cell_length_b 8.857383
_cell_length_c 22.124748
_cell_angle_alpha 90.000000
_cell_angle_beta 90.000000
_cell_angle_gamma 90.000000
_cell_volume 1735.758023
_symmetry_space_group_name_H-M "P 4 2 2"
_symmetry_group_IT_number 89
_symmetry_cell_setting 'tetragonal'
loop_
_space_group_symop_operation_xyz
x,y,z
-y,x,z
-x,-y,z
y,-x,z
x,-y,-z
-x,y,-z
y,x,-z
-y,-x,-z
loop_
_atom_site_type_symbol
_atom_site_label
_atom_site_fract_x
_atom_site_fract_y
_atom_site_fract_z
Si Si1 0.500000 0.500000 0.140667
Si Si2 0.072475 0.757983 0.084873
Si Si3 0.000000 0.500000 0.000000
Si Si4 0.567989 0.163652 0.283046
Si Si5 0.308978 0.252256 0.194175
Si Si6 0.421180 0.263396 0.580407
Si Si7 0.500000 0.000000 0.500000
O O1 0.352944 0.384741 0.147080
O O2 0.105311 0.708975 0.153574
O O3 0.902433 0.819315 0.074595
O O4 0.094412 0.613123 0.042553
O O5 0.441794 0.251707 0.244192
O O6 0.708784 0.168457 0.237391
O O7 0.596382 0.234006 0.348232
O O8 0.500000 0.000000 0.292964
O O9 0.593180 0.316419 0.566789
O O10 0.401936 0.109586 0.543179
#
# Coordination Sequence:
#
# PCOD9546949 Si02
#       7
#     2   8   2   8   8   8   2
#     4   8  20  32  60 105 144 169 216 288 340 422
#     4  11  26  49  72 100 142 190 236 295 366 448
#     4  12  28  46  74  98 128 190 248 292 340 426
#     4  11  20  35  63 103 136 175 223 284 349 426
#     4  10  21  37  65 101 143 179 223 288 364 424
#     4  11  23  41  67  96 133 176 232 289 348 418
#     4  12  24  42  62  94 124 186 236 288 340 414
#
# _framework density 21.892451999999999
#
# number of rings (size 3 to 8) (size 9 to 14) (size 15 to 20)
#    0.000    1.263    3.158    2.526    7.368    1.684 
#    0.000    0.000    0.000    6.316    0.000    0.000 
#    0.000    0.000    0.000    0.000    0.000    0.000 
#
# Total GULP energy -211570.432997 kJ/mol
# GULP energy per Si atom -5567.642974 kJ/mol
# Density = 2.184262 g / cm^3
# Si number density = 21.892452 Si / 1000 Ang^3
#
#
#
# Elastic Constant Matrix: (Units=GPa)
#
#
# Indices 1 2 3 4 5 6 
#
# 1 86.5807 20.4761 50.3171 0.0000 0.0000 0.0000
# 2 20.4761 86.5807 50.3171 0.0000 0.0000 0.0000
# 3 50.3171 50.3171 137.9489 0.0000 0.0000 0.0000
# 4 0.0000 0.0000 0.0000 57.5447 0.0000 0.0000
# 5 0.0000 0.0000 0.0000 0.0000 57.5447 0.0000
# 6 0.0000 0.0000 0.0000 0.0000 0.0000 16.0521
#
#
#
# Elastic Compliance Matrix: (Units=1/GPa)
#
#
# Indices 1 2 3 4 5 6 
#
# 1 0.014671 -0.000456 -0.005185 0.000000 0.000000 0.000000
# 2 -0.000456 0.014671 -0.005185 0.000000 0.000000 0.000000
# 3 -0.005185 -0.005185 0.011031 0.000000 0.000000 0.000000
# 4 0.000000 0.000000 0.000000 0.017378 0.000000 0.000000
# 5 0.000000 0.000000 0.000000 0.000000 0.017378 0.000000
# 6 0.000000 0.000000 0.000000 0.000000 0.000000 0.062297
#
#
# Mechanical properties :
#
#
# Convention : Reuss Voigt Hill
#
# Bulk Modulus (GPa) = 53.41490 61.48121 57.44805
# Shear Modulus (GPa) = 30.24461 38.89496 34.56978
#
# Velocity S-wave (km/s) = 3.72090 4.21959 3.97807
# Velocity P-wave (km/s) = 6.55071 7.20307 6.88462
#
# Compressibility (1/GPa) = 0.01872137
#
# Stress axis : x y z
#
# Youngs Moduli (GPa) = 68.16143 68.16143 90.65047
#
# Poissons Ratio (x) = 0.03111 0.47000
# Poissons Ratio (y) = 0.03111 0.47000
# Poissons Ratio (z) = 0.35340 0.35340
#
# Static dielectric constant tensor:
#      x y z
#    x 1.648130 0.000000 0.000000 
#    y 0.000000 1.648130 0.000000 
#    z 0.000000 0.000000 1.862380 
# 
# From -- ./inp_files/2751.got.cif
#   From: 2010.05.17/outbox.cif.g08.bks.cpg/sg89_2_cif.got.tgz:2751.got - 2010.06.03 19:15:31.
