data_PCOD9546877
_publ_section_title
;
Structure prediction by ZEFSAII (Michael W. Deem and Ramdas Pophale) SiO2 
 PCOD9546877
Probable space group: I 41/A
;
_chemical_formula_sum "Si O2"
_cell_formula_units_Z 40
_cell_length_a 8.413589
_cell_length_b 8.413589
_cell_length_c 19.794684
_cell_angle_alpha 90.000000
_cell_angle_beta 90.000000
_cell_angle_gamma 90.000000
_cell_volume 1401.235590
_symmetry_space_group_name_H-M "I 41/A"
_symmetry_group_IT_number 88
_space_group.IT_coordinate_system_code '2'
_symmetry_cell_setting 'tetragonal'
loop_
_space_group_symop_operation_xyz
x,y,z
3/4-y,1/4+x,1/4+z
-x,1/2-y,z
1/4+y,1/4-x,1/4+z
-x,-y,-z
1/4+y,3/4-x,3/4-z
x,1/2+y,-z
3/4-y,3/4+x,3/4-z
1/2+x,1/2+y,1/2+z
1/4-y,3/4+x,3/4+z
1/2-x,-y,1/2+z
3/4+y,3/4-x,3/4+z
1/2-x,1/2-y,1/2-z
3/4+y,1/4-x,1/4-z
1/2+x,y,1/2-z
1/4-y,1/4+x,1/4-z
loop_
_atom_site_type_symbol
_atom_site_label
_atom_site_fract_x
_atom_site_fract_y
_atom_site_fract_z
Si Si1 0.500000 0.750000 0.625000
Si Si2 0.000000 0.250000 0.625000
Si Si3 0.420951 0.420925 0.073884
Si Si4 0.163261 0.511807 0.961286
O O1 0.569194 0.893243 0.671326
O O2 0.834837 0.227939 0.665826
O O3 0.500000 0.250000 0.055723
O O4 0.361854 0.402444 0.150479
O O5 0.708945 0.518365 0.980122
O O6 0.000000 0.500000 0.000000
#
# Coordination Sequence:
#
# PCOD9546877 Si02
#       4
#     4   4  16  16
#     4  12  28  56  98 144 196 260 350 408 520 632
#     4  12  32  56  90 152 196 276 340 414 512 612
#     4  12  31  58  93 150 205 261 343 420 514 613
#     4  12  28  55  94 141 195 271 328 418 516 609
#
# _framework density 28.546237000000001
#
# number of rings (size 3 to 8) (size 9 to 14) (size 15 to 20)
#    0.000    0.000    4.000    2.400   11.200    1.600 
#    0.000    2.000    0.000    0.000    0.000    0.000 
#    0.000    0.000    0.000    0.000    0.000    0.000 
#
# Total GULP energy -111941.269410 kJ/mol
# GULP energy per Si atom -5597.063471 kJ/mol
# Density = 2.848126 g / cm^3
# Si number density = 28.546237 Si / 1000 Ang^3
#
#
#
# Elastic Constant Matrix: (Units=GPa)
#
#
# Indices 1 2 3 4 5 6 
#
# 1 192.9529 58.0271 75.6627 0.0000 0.0000 5.8093
# 2 58.0271 192.9529 75.6627 0.0000 0.0000 -5.8093
# 3 75.6627 75.6627 212.9627 0.0000 0.0000 0.0000
# 4 0.0000 0.0000 0.0000 71.5461 0.0000 0.0000
# 5 0.0000 0.0000 0.0000 0.0000 71.5461 0.0000
# 6 5.8093 -5.8093 0.0000 0.0000 0.0000 45.9214
#
#
#
# Elastic Compliance Matrix: (Units=1/GPa)
#
#
# Indices 1 2 3 4 5 6 
#
# 1 0.006282 -0.001211 -0.001802 0.000000 0.000000 -0.000948
# 2 -0.001211 0.006282 -0.001802 0.000000 0.000000 0.000948
# 3 -0.001802 -0.001802 0.005976 0.000000 0.000000 0.000000
# 4 0.000000 0.000000 0.000000 0.013977 0.000000 0.000000
# 5 0.000000 0.000000 0.000000 0.000000 0.013977 0.000000
# 6 -0.000948 0.000948 0.000000 0.000000 0.000000 0.022016
#
#
# Mechanical properties :
#
#
# Convention : Reuss Voigt Hill
#
# Bulk Modulus (GPa) = 112.22222 113.06370 112.64296
# Shear Modulus (GPa) = 61.64584 63.77045 62.70815
#
# Velocity S-wave (km/s) = 4.65209 4.73158 4.69200
# Velocity P-wave (km/s) = 8.26158 8.33928 8.30052
#
# Compressibility (1/GPa) = 0.00891089
#
# Stress axis : x y z
#
# Youngs Moduli (GPa) = 159.18901 159.18900 167.34280
#
# Poissons Ratio (x) = 0.19282 0.30147
# Poissons Ratio (y) = 0.19282 0.30147
# Poissons Ratio (z) = 0.28678 0.28678
#
# Static dielectric constant tensor:
#      x y z
#    x 2.864710 0.000000 0.000000 
#    y 0.000000 2.864710 0.000000 
#    z 0.000000 0.000000 2.134790 
# 
# From -- ./inp_files/4963.got.cif
#   From: 2010.05.17/outbox.cif.g08.bks.cpg/sg88_3_cif.got.tgz:4963.got - 2010.06.03 19:11:41.
