data_PCOD9546310
_publ_section_title
;
Structure prediction by ZEFSAII (Michael W. Deem and Ramdas Pophale) SiO2 
 PCOD9546310
Probable space group: I 41/A
;
_chemical_formula_sum "Si O2"
_cell_formula_units_Z 92
_cell_length_a 14.149214
_cell_length_b 14.149214
_cell_length_c 19.870137
_cell_angle_alpha 90.000000
_cell_angle_beta 90.000000
_cell_angle_gamma 90.000000
_cell_volume 3978.006530
_symmetry_space_group_name_H-M "I 41/A"
_symmetry_group_IT_number 88
_space_group.IT_coordinate_system_code '2'
_symmetry_cell_setting 'tetragonal'
loop_
_space_group_symop_operation_xyz
x,y,z
3/4-y,1/4+x,1/4+z
-x,1/2-y,z
1/4+y,1/4-x,1/4+z
-x,-y,-z
1/4+y,3/4-x,3/4-z
x,1/2+y,-z
3/4-y,3/4+x,3/4-z
1/2+x,1/2+y,1/2+z
1/4-y,3/4+x,3/4+z
1/2-x,-y,1/2+z
3/4+y,3/4-x,3/4+z
1/2-x,1/2-y,1/2-z
3/4+y,1/4-x,1/4-z
1/2+x,y,1/2-z
1/4-y,1/4+x,1/4-z
loop_
_atom_site_type_symbol
_atom_site_label
_atom_site_fract_x
_atom_site_fract_y
_atom_site_fract_z
Si Si1 0.884363 0.917212 0.688585
Si Si2 0.608296 0.896654 0.956951
Si Si3 0.799607 0.783792 0.949961
Si Si4 0.200993 0.315402 0.194801
Si Si5 0.697013 0.241585 0.846048
Si Si6 0.000000 0.250000 0.363000
Si Si7 0.500000 0.750000 0.125000
O O1 0.772916 0.904298 0.690094
O O2 0.941464 0.955995 0.752696
O O3 0.927723 0.813036 0.678418
O O4 0.918094 0.978498 0.625445
O O5 0.712385 0.854421 0.965180
O O6 0.558032 0.820313 0.909884
O O7 0.589191 0.997399 0.919343
O O8 0.548551 0.907327 0.025758
O O9 0.800400 0.744240 0.874143
O O10 0.892993 0.847740 0.960875
O O11 0.250000 0.250000 0.250000
O O12 0.609922 0.247232 0.898036
#
# Coordination Sequence:
#
# PCOD9546310 Si02
#       7
#    16  16  16  16  16   8   4
#     4  11  24  45  73 107 147 199 248 317 386 454
#     4  10  22  43  68 104 140 195 249 304 380 454
#     4  12  27  47  77 110 148 198 254 321 385 468
#     4  12  28  49  77 109 150 198 257 322 394 467
#     4  10  24  39  68 101 147 196 246 307 369 461
#     4  10  19  44  74  96 150 193 248 308 388 435
#     4  12  22  40  60 100 148 186 240 296 370 426
#
# _framework density 23.127161000000001
#
# number of rings (size 3 to 8) (size 9 to 14) (size 15 to 20)
#    0.000    1.043    1.739    3.652    4.870    4.522 
#    0.000    0.000    0.000    0.000    0.000    0.000 
#    0.000    0.000    0.000    0.000    0.000    0.000 
#
# Total GULP energy -256834.477375 kJ/mol
# GULP energy per Si atom -5583.358204 kJ/mol
# Density = 2.307452 g / cm^3
# Si number density = 23.127161 Si / 1000 Ang^3
#
#
#
# Elastic Constant Matrix: (Units=GPa)
#
#
# Indices 1 2 3 4 5 6 
#
# 1 103.6880 15.5681 7.1266 0.0000 0.0000 4.8971
# 2 15.5681 103.6880 7.1266 0.0000 0.0000 -4.8971
# 3 7.1266 7.1266 53.6850 0.0000 0.0000 0.0000
# 4 0.0000 0.0000 0.0000 -4.8163 0.0000 0.0000
# 5 0.0000 0.0000 0.0000 0.0000 -4.8163 0.0000
# 6 4.8971 -4.8971 0.0000 0.0000 0.0000 37.2287
#
#
#
# Elastic Compliance Matrix: (Units=1/GPa)
#
#
# Indices 1 2 3 4 5 6 
#
# 1 0.010019 -0.001498 -0.001131 0.000000 0.000000 -0.001515
# 2 -0.001498 0.010019 -0.001131 0.000000 0.000000 0.001515
# 3 -0.001131 -0.001131 0.018927 0.000000 0.000000 0.000000
# 4 0.000000 0.000000 0.000000 -0.207629 0.000000 0.000000
# 5 0.000000 0.000000 0.000000 0.000000 -0.207629 0.000000
# 6 -0.001515 0.001515 0.000000 0.000000 0.000000 0.027260
#
#
# Mechanical properties :
#
#
# Convention : Reuss Voigt Hill
#
# Bulk Modulus (GPa) = 31.80241 35.63372 33.71807
# Shear Modulus (GPa) = -15.10425 20.93521 2.91548
#
# Velocity S-wave (km/s) = -2.55835 3.01195 1.12400
# Velocity P-wave (km/s) = 2.24814 5.24757 4.03678
#
# Compressibility (1/GPa) = 0.03144415
#
# Stress axis : x y z
#
# Youngs Moduli (GPa) = 99.81508 99.81508 52.83328
#
# Poissons Ratio (x) = 0.14953 0.05976
# Poissons Ratio (y) = 0.14953 0.05976
# Poissons Ratio (z) = 0.11290 0.11290
#
# Static dielectric constant tensor:
#      x y z
#    x 1.893040 0.000000 0.000000 
#    y 0.000000 1.893040 0.000000 
#    z 0.000000 0.000000 1.870800 
# 
# From -- ./inp_files/4741.got.cif
#   From: 2010.05.17/outbox.cif.g08.bks.cpg/sg88_3_cif.got.tgz:4741.got - 2010.06.03 19:11:41.
