data_PCOD9546651
_publ_section_title
;
Structure prediction by ZEFSAII (Michael W. Deem and Ramdas Pophale) SiO2 
 PCOD9546651
Probable space group: I 41/A
;
_chemical_formula_sum "Si O2"
_cell_formula_units_Z 52
_cell_length_a 19.596345
_cell_length_b 19.596345
_cell_length_c 4.983056
_cell_angle_alpha 90.000000
_cell_angle_beta 90.000000
_cell_angle_gamma 90.000000
_cell_volume 1913.576907
_symmetry_space_group_name_H-M "I 41/A"
_symmetry_group_IT_number 88
_space_group.IT_coordinate_system_code '2'
_symmetry_cell_setting 'tetragonal'
loop_
_space_group_symop_operation_xyz
x,y,z
3/4-y,1/4+x,1/4+z
-x,1/2-y,z
1/4+y,1/4-x,1/4+z
-x,-y,-z
1/4+y,3/4-x,3/4-z
x,1/2+y,-z
3/4-y,3/4+x,3/4-z
1/2+x,1/2+y,1/2+z
1/4-y,3/4+x,3/4+z
1/2-x,-y,1/2+z
3/4+y,3/4-x,3/4+z
1/2-x,1/2-y,1/2-z
3/4+y,1/4-x,1/4-z
1/2+x,y,1/2-z
1/4-y,1/4+x,1/4-z
loop_
_atom_site_type_symbol
_atom_site_label
_atom_site_fract_x
_atom_site_fract_y
_atom_site_fract_z
Si Si1 0.057502 0.943923 0.545609
Si Si2 0.500000 0.750000 0.625000
Si Si3 0.232860 0.396941 0.127772
Si Si4 0.856255 0.235618 0.310750
O O1 0.121797 0.979113 0.397167
O O2 0.041204 0.922448 0.848537
O O3 0.000000 0.000000 0.500000
O O4 0.027009 0.889510 0.337701
O O5 0.467486 0.816184 0.490789
O O6 0.292611 0.430518 0.304735
O O7 0.189959 0.333596 0.265791
#
# Coordination Sequence:
#
# PCOD9546651 Si02
#       4
#    16   4  16  16
#     4  10  23  47  73 100 139 181 226 287 343 404
#     4  12  28  46  76 102 136 186 232 290 352 406
#     4  11  25  43  68 104 142 186 230 281 345 414
#     4  11  26  47  72 104 139 179 234 289 343 408
#
# _framework density 27.174237999999999
#
# number of rings (size 3 to 8) (size 9 to 14) (size 15 to 20)
#    0.000    1.231    0.000    5.538    0.000   18.462 
#    0.000    0.000    0.000    0.000    0.000    0.000 
#    0.000    0.000    0.000    0.000    0.000    0.000 
#
# Total GULP energy -145148.236368 kJ/mol
# GULP energy per Si atom -5582.624476 kJ/mol
# Density = 2.711239 g / cm^3
# Si number density = 27.174238 Si / 1000 Ang^3
#
#
#
# Elastic Constant Matrix: (Units=GPa)
#
#
# Indices 1 2 3 4 5 6 
#
# 1 179.4428 76.8021 36.3051 0.0000 0.0000 39.9331
# 2 76.8021 179.4428 36.3051 0.0000 0.0000 -39.9331
# 3 36.3051 36.3051 104.4013 0.0000 0.0000 0.0000
# 4 0.0000 0.0000 0.0000 20.1552 0.0000 0.0000
# 5 0.0000 0.0000 0.0000 0.0000 20.1552 0.0000
# 6 39.9331 -39.9331 0.0000 0.0000 0.0000 12.5465
#
#
#
# Elastic Compliance Matrix: (Units=1/GPa)
#
#
# Indices 1 2 3 4 5 6 
#
# 1 -0.001135 0.005464 -0.001505 0.000000 0.000000 0.021001
# 2 0.005464 -0.001135 -0.001505 0.000000 0.000000 -0.021001
# 3 -0.001505 -0.001505 0.010625 0.000000 0.000000 0.000000
# 4 0.000000 0.000000 0.000000 0.049615 0.000000 0.000000
# 5 0.000000 0.000000 0.000000 0.000000 0.049615 0.000000
# 6 0.021001 -0.021001 0.000000 0.000000 0.000000 -0.053978
#
#
# Mechanical properties :
#
#
# Convention : Reuss Voigt Hill
#
# Bulk Modulus (GPa) = 75.40379 84.67903 80.04141
# Shear Modulus (GPa) = 94.12011 31.49635 62.80823
#
# Velocity S-wave (km/s) = 5.89160 3.40818 4.81283
# Velocity P-wave (km/s) = 8.60754 6.83496 7.77195
#
# Compressibility (1/GPa) = 0.01326193
#
# Stress axis : x y z
#
# Youngs Moduli (GPa) = -881.43129 -881.43129 94.11382
#
# Poissons Ratio (x) = 4.81580 0.14168
# Poissons Ratio (y) = 4.81580 0.14168
# Poissons Ratio (z) = -1.32693 -1.32693
#
# Static dielectric constant tensor:
#      x y z
#    x 2.073520 0.000000 0.000000 
#    y 0.000000 2.073520 0.000000 
#    z 0.000000 0.000000 2.039050 
# 
# From -- ./inp_files/385.got.cif
#   From: 2010.05.17/outbox.cif.g08.bks.cpg/sg88_1_cif.got.tgz:385.got - 2010.06.03 19:11:41.
