data_PCOD9546151
_publ_section_title
;
Structure prediction by ZEFSAII (Michael W. Deem and Ramdas Pophale) SiO2 
 PCOD9546151
Probable space group: I 4/M
;
_chemical_formula_sum "Si O2"
_cell_formula_units_Z 80
_cell_length_a 10.639044
_cell_length_b 10.639044
_cell_length_c 32.512134
_cell_angle_alpha 90.000000
_cell_angle_beta 90.000000
_cell_angle_gamma 90.000000
_cell_volume 3680.024299
_symmetry_space_group_name_H-M "I 4/M"
_symmetry_group_IT_number 87
_symmetry_cell_setting 'tetragonal'
loop_
_space_group_symop_operation_xyz
x,y,z
-y,x,z
-x,-y,z
y,-x,z
-x,-y,-z
y,-x,-z
x,y,-z
-y,x,-z
1/2+x,1/2+y,1/2+z
1/2-y,1/2+x,1/2+z
1/2-x,1/2-y,1/2+z
1/2+y,1/2-x,1/2+z
1/2-x,1/2-y,1/2-z
1/2+y,1/2-x,1/2-z
1/2+x,1/2+y,1/2-z
1/2-y,1/2+x,1/2-z
loop_
_atom_site_type_symbol
_atom_site_label
_atom_site_fract_x
_atom_site_fract_y
_atom_site_fract_z
Si Si1 0.690883 0.403189 0.765228
Si Si2 0.646481 0.022795 0.951206
Si Si3 0.692581 0.416449 0.146621
Si Si4 0.111310 0.180188 0.823188
Si Si5 0.710515 0.265744 0.410193
O O1 0.659595 0.552435 0.764987
O O2 0.757175 0.384469 0.809423
O O3 0.747996 0.365240 0.721035
O O4 0.746157 0.927405 0.929377
O O5 0.500000 0.000000 0.938795
O O6 0.696118 0.162533 0.940602
O O7 0.652740 0.000650 0.000000
O O8 0.657792 0.561279 0.146746
O O9 0.758917 0.374406 0.105384
O O10 0.159055 0.228810 0.866903
O O11 0.961143 0.165291 0.823295
#
# Coordination Sequence:
#
# PCOD9546151 Si02
#       5
#    16  16  16  16  16
#     4   7  12  25  46  73 111 149 189 236 278 336
#     4  11  26  45  63  89 121 152 195 253 315 373
#     4   9  18  33  54  82 111 151 204 245 287 348
#     4   9  16  29  49  81 115 147 191 232 279 348
#     4  12  21  37  62  87 114 156 193 246 301 359
#
# _framework density 21.738985
#
# number of rings (size 3 to 8) (size 9 to 14) (size 15 to 20)
#    0.000    2.400    2.000    4.200    0.000    1.200 
#    0.000    1.000    0.000    0.000    0.000    8.400 
#    0.000    0.000    0.000    0.000    0.000    0.000 
#
# Total GULP energy -222729.834748 kJ/mol
# GULP energy per Si atom -5568.245869 kJ/mol
# Density = 2.168951 g / cm^3
# Si number density = 21.738985 Si / 1000 Ang^3
#
#
#
# Elastic Constant Matrix: (Units=GPa)
#
#
# Indices 1 2 3 4 5 6 
#
# 1 41.1565 27.8940 25.9906 0.0000 0.0000 8.5037
# 2 27.8940 41.1565 25.9906 0.0000 0.0000 -8.5037
# 3 25.9906 25.9906 86.3509 0.0000 0.0000 0.0000
# 4 0.0000 0.0000 0.0000 25.7164 0.0000 0.0000
# 5 0.0000 0.0000 0.0000 0.0000 25.7164 0.0000
# 6 8.5037 -8.5037 0.0000 0.0000 0.0000 23.9547
#
#
#
# Elastic Compliance Matrix: (Units=1/GPa)
#
#
# Indices 1 2 3 4 5 6 
#
# 1 0.078567 -0.059842 -0.005636 0.000000 0.000000 -0.049134
# 2 -0.059842 0.078567 -0.005636 0.000000 0.000000 0.049134
# 3 -0.005636 -0.005636 0.014973 0.000000 0.000000 0.000000
# 4 0.000000 0.000000 0.000000 0.038886 0.000000 0.000000
# 5 0.000000 0.000000 0.000000 0.000000 0.038886 0.000000
# 6 -0.049134 0.049134 0.000000 0.000000 0.000000 0.076630
#
#
# Mechanical properties :
#
#
# Convention : Reuss Voigt Hill
#
# Bulk Modulus (GPa) = 33.46797 36.49047 34.97922
# Shear Modulus (GPa) = 10.44502 20.99673 15.72087
#
# Velocity S-wave (km/s) = 2.19435 3.11119 2.69209
# Velocity P-wave (km/s) = 4.67429 5.45236 5.07825
#
# Compressibility (1/GPa) = 0.02987931
#
# Stress axis : x y z
#
# Youngs Moduli (GPa) = 12.72798 12.72798 66.78514
#
# Poissons Ratio (x) = 0.76167 0.37640
# Poissons Ratio (y) = 0.76167 0.37640
# Poissons Ratio (z) = 0.07173 0.07173
#
# Static dielectric constant tensor:
#      x y z
#    x 1.825950 0.000000 0.000000 
#    y 0.000000 1.825950 0.000000 
#    z 0.000000 0.000000 1.877020 
# 
# From -- ./inp_files/6481.got.cif
#   From: 2010.05.17/outbox.cif.g08.bks.cpg/sg87_4_cif.got.tgz:6481.got - 2010.06.03 19:07:00.
