data_PCOD9546948
_publ_section_title
;
Structure prediction by ZEFSAII (Michael W. Deem and Ramdas Pophale) SiO2 
 PCOD9546948
Probable space group: P 4 2 2
;
_chemical_formula_sum "Si O2"
_cell_formula_units_Z 40
_cell_length_a 15.229340
_cell_length_b 15.229340
_cell_length_c 8.247072
_cell_angle_alpha 90.000000
_cell_angle_beta 90.000000
_cell_angle_gamma 90.000000
_cell_volume 1912.766475
_symmetry_space_group_name_H-M "P 4 2 2"
_symmetry_group_IT_number 89
_symmetry_cell_setting 'tetragonal'
loop_
_space_group_symop_operation_xyz
x,y,z
-y,x,z
-x,-y,z
y,-x,z
x,-y,-z
-x,y,-z
y,x,-z
-y,-x,-z
loop_
_atom_site_type_symbol
_atom_site_label
_atom_site_fract_x
_atom_site_fract_y
_atom_site_fract_z
Si Si1 0.443522 0.147980 0.167902
Si Si2 0.599274 0.087108 0.389944
Si Si3 0.906433 0.240301 0.180983
Si Si4 0.592543 0.729479 0.429422
Si Si5 0.903672 0.225733 0.796383
O O1 0.508448 0.097865 0.292633
O O2 0.346601 0.103438 0.174316
O O3 0.423004 0.245802 0.240137
O O4 0.500000 0.149318 0.000000
O O5 0.609939 0.174168 0.497326
O O6 0.674265 0.099533 0.257361
O O7 0.609387 0.000000 0.500000
O O8 0.828120 0.182244 0.257639
O O9 0.996798 0.203442 0.257346
O O10 0.906474 0.219666 0.989987
O O11 0.500000 0.697513 0.500000
O O12 0.666408 0.666408 0.500000
#
# Coordination Sequence:
#
# PCOD9546948 Si02
#       5
#     8   8   8   8   8
#     4  11  22  41  64  95 129 171 219 281 338 408
#     4  11  23  40  60  92 131 165 211 269 341 409
#     4  10  21  37  61  89 126 165 217 268 328 385
#     4  10  23  41  62  90 123 167 212 259 332 397
#     4  10  21  38  58  90 123 170 213 266 326 396
#
# _framework density 20.912120000000002
#
# number of rings (size 3 to 8) (size 9 to 14) (size 15 to 20)
#    0.000    1.600    2.000    2.400    0.000    9.800 
#    0.000    2.000    0.000    0.000    0.000   11.200 
#    0.000    0.000    0.000    0.000    0.000    0.000 
#
# Total GULP energy -222693.341682 kJ/mol
# GULP energy per Si atom -5567.333542 kJ/mol
# Density = 2.086452 g / cm^3
# Si number density = 20.912120 Si / 1000 Ang^3
#
#
#
# Elastic Constant Matrix: (Units=GPa)
#
#
# Indices 1 2 3 4 5 6 
#
# 1 127.0108 111.4218 30.5775 0.0000 0.0000 0.0000
# 2 111.4218 127.0108 30.5775 0.0000 0.0000 0.0000
# 3 30.5775 30.5775 55.8320 0.0000 0.0000 0.0000
# 4 0.0000 0.0000 0.0000 14.4793 0.0000 0.0000
# 5 0.0000 0.0000 0.0000 0.0000 14.4793 0.0000
# 6 0.0000 0.0000 0.0000 0.0000 0.0000 24.0438
#
#
#
# Elastic Compliance Matrix: (Units=1/GPa)
#
#
# Indices 1 2 3 4 5 6 
#
# 1 0.034514 -0.029634 -0.002672 0.000000 0.000000 0.000000
# 2 -0.029634 0.034514 -0.002672 0.000000 0.000000 0.000000
# 3 -0.002672 -0.002672 0.020838 0.000000 0.000000 0.000000
# 4 0.000000 0.000000 0.000000 0.069064 0.000000 0.000000
# 5 0.000000 0.000000 0.000000 0.000000 0.069064 0.000000
# 6 0.000000 0.000000 0.000000 0.000000 0.000000 0.041591
#
#
# Mechanical properties :
#
#
# Convention : Reuss Voigt Hill
#
# Bulk Modulus (GPa) = 50.23213 72.77860 61.50536
# Shear Modulus (GPa) = 14.44341 19.75224 17.09782
#
# Velocity S-wave (km/s) = 2.63091 3.07666 2.86248
# Velocity P-wave (km/s) = 5.77076 6.89194 6.35612
#
# Compressibility (1/GPa) = 0.01990758
#
# Stress axis : x y z
#
# Youngs Moduli (GPa) = 28.97396 28.97396 47.98925
#
# Poissons Ratio (x) = 0.85862 0.12824
# Poissons Ratio (y) = 0.85862 0.12824
# Poissons Ratio (z) = 0.07743 0.07743
#
# Static dielectric constant tensor:
#      x y z
#    x 1.796720 0.000000 0.000000 
#    y 0.000000 1.796720 0.000000 
#    z 0.000000 0.000000 1.848560 
# 
# From -- ./inp_files/988.got.cif
#   From: 2010.05.17/outbox.cif.g08.bks.cpg/sg89_1_cif.got.tgz:988.got - 2010.06.03 19:15:31.
