data_PCOD9546892
_publ_section_title
;
Structure prediction by ZEFSAII (Michael W. Deem and Ramdas Pophale) SiO2 
 PCOD9546892
Probable space group: I 41/A
;
_chemical_formula_sum "Si O2"
_cell_formula_units_Z 24
_cell_length_a 9.000000
_cell_length_b 9.000000
_cell_length_c 30.000000
_cell_angle_alpha 90.000000
_cell_angle_beta 90.000000
_cell_angle_gamma 90.000000
_cell_volume 2430.000000
_symmetry_space_group_name_H-M "I 41/A"
_symmetry_group_IT_number 88
_space_group.IT_coordinate_system_code '2'
_symmetry_cell_setting 'tetragonal'
loop_
_space_group_symop_operation_xyz
x,y,z
3/4-y,1/4+x,1/4+z
-x,1/2-y,z
1/4+y,1/4-x,1/4+z
-x,-y,-z
1/4+y,3/4-x,3/4-z
x,1/2+y,-z
3/4-y,3/4+x,3/4-z
1/2+x,1/2+y,1/2+z
1/4-y,3/4+x,3/4+z
1/2-x,-y,1/2+z
3/4+y,3/4-x,3/4+z
1/2-x,1/2-y,1/2-z
3/4+y,1/4-x,1/4-z
1/2+x,y,1/2-z
1/4-y,1/4+x,1/4-z
loop_
_atom_site_type_symbol
_atom_site_label
_atom_site_fract_x
_atom_site_fract_y
_atom_site_fract_z
Si Si1 0.662669 0.504431 0.026845
Si Si2 0.267975 0.358484 0.380253
Si Si3 0.562185 0.416051 0.205891
O O1 0.689174 0.407343 0.072695
O O2 0.718714 0.671778 0.040053
O O3 0.500000 0.500000 0.000000
O O4 0.778191 0.431739 0.992021
O O5 0.430019 0.442319 0.373946
O O6 0.152021 0.404480 0.341066
O O7 0.500000 0.250000 0.215226
#
# Coordination Sequence:
#
# PCOD9546892 Si02
#       3
#    16  16  16
#     4  12  28  48  77 112 159 200 258 326 389 464
#     4  11  26  48  79 112 151 201 260 321 388 469
#     4  12  26  48  77 111 150 205 260 310 391 472
#
# _framework density 9.8765429999999999
#
# number of rings (size 3 to 8) (size 9 to 14) (size 15 to 20)
#    0.000    0.333    3.333    4.000    9.333    2.667 
#    0.000    0.000    0.000    0.000    0.000    0.000 
#    0.000    0.000    0.000    0.000    0.000    0.000 
#
# Total GULP energy -134076.880774 kJ/mol
# GULP energy per Si atom -5586.536699 kJ/mol
# Density = 0.985406 g / cm^3
# Si number density = 9.876543 Si / 1000 Ang^3
#
#
#
# Elastic Constant Matrix: (Units=GPa)
#
#
# Indices 1 2 3 4 5 6 
#
# 1 156.6472 50.5058 70.1211 0.0000 0.0000 -10.6729
# 2 50.5058 156.6472 70.1211 0.0000 0.0000 10.6729
# 3 70.1211 70.1211 197.7020 0.0000 0.0000 0.0000
# 4 0.0000 0.0000 0.0000 50.0844 0.0000 0.0000
# 5 0.0000 0.0000 0.0000 0.0000 50.0844 0.0000
# 6 -10.6729 10.6729 0.0000 0.0000 0.0000 48.9836
#
#
#
# Elastic Compliance Matrix: (Units=1/GPa)
#
#
# Indices 1 2 3 4 5 6 
#
# 1 0.008103 -0.001750 -0.002253 0.000000 0.000000 0.002147
# 2 -0.001750 0.008103 -0.002253 0.000000 0.000000 -0.002147
# 3 -0.002253 -0.002253 0.006656 0.000000 0.000000 0.000000
# 4 0.000000 0.000000 0.000000 0.019966 0.000000 0.000000
# 5 0.000000 0.000000 0.000000 0.000000 0.019966 0.000000
# 6 0.002147 -0.002147 0.000000 0.000000 0.000000 0.021351
#
#
# Mechanical properties :
#
#
# Convention : Reuss Voigt Hill
#
# Bulk Modulus (GPa) = 96.62612 99.16583 97.89597
# Shear Modulus (GPa) = 49.94585 51.18038 50.56311
#
# Velocity S-wave (km/s) = 5.03388 5.09572 5.06489
# Velocity P-wave (km/s) = 9.09999 9.21593 9.15815
#
# Compressibility (1/GPa) = 0.01034917
#
# Stress axis : x y z
#
# Youngs Moduli (GPa) = 123.41173 123.41172 150.23016
#
# Poissons Ratio (x) = 0.21599 0.33850
# Poissons Ratio (y) = 0.21599 0.33850
# Poissons Ratio (z) = 0.27807 0.27807
#
# Static dielectric constant tensor:
#      x y z
#    x 1.717280 0.000000 0.000000 
#    y 0.000000 1.717280 0.000000 
#    z 0.000000 0.000000 1.705130 
# 
# From -- ./inp_files/6016.got.cif
#   From: 2010.05.17/outbox.ucp.g08.bks.cvg/sg88_4_cif.got.tgz:6016.got - 2010.06.11 10:35:41.
