data_PCOD9546051
_publ_section_title
;
Structure prediction by ZEFSAII (Michael W. Deem and Ramdas Pophale) SiO2 
 PCOD9546051
Probable space group: I 4/M
;
_chemical_formula_sum "Si O2"
_cell_formula_units_Z 96
_cell_length_a 24.247006
_cell_length_b 24.247006
_cell_length_c 8.710043
_cell_angle_alpha 90.000000
_cell_angle_beta 90.000000
_cell_angle_gamma 90.000000
_cell_volume 5120.784963
_symmetry_space_group_name_H-M "I 4/M"
_symmetry_group_IT_number 87
_symmetry_cell_setting 'tetragonal'
loop_
_space_group_symop_operation_xyz
x,y,z
-y,x,z
-x,-y,z
y,-x,z
-x,-y,-z
y,-x,-z
x,y,-z
-y,x,-z
1/2+x,1/2+y,1/2+z
1/2-y,1/2+x,1/2+z
1/2-x,1/2-y,1/2+z
1/2+y,1/2-x,1/2+z
1/2-x,1/2-y,1/2-z
1/2+y,1/2-x,1/2-z
1/2+x,1/2+y,1/2-z
1/2-y,1/2+x,1/2-z
loop_
_atom_site_type_symbol
_atom_site_label
_atom_site_fract_x
_atom_site_fract_y
_atom_site_fract_z
Si Si1 0.494870 0.643868 0.828781
Si Si2 0.102671 0.906265 0.170152
Si Si3 0.284094 0.114260 0.685353
Si Si4 0.771751 0.488134 0.179412
Si Si5 0.308167 0.687498 0.677809
Si Si6 0.366055 0.199479 0.814570
O O1 0.545527 0.604088 0.793869
O O2 0.448162 0.632953 0.705633
O O3 0.516688 0.705717 0.814820
O O4 0.472215 0.637366 0.000000
O O5 0.156637 0.868781 0.179604
O O6 0.099014 0.930438 0.000000
O O7 0.280760 0.114008 0.500000
O O8 0.283365 0.050166 0.740221
O O9 0.233444 0.152082 0.746798
O O10 0.338286 0.145198 0.744972
O O11 0.794261 0.429754 0.241040
O O12 0.788596 0.489779 0.000000
O O13 0.297349 0.703037 0.500000
O O14 0.251102 0.672149 0.761019
O O15 0.365773 0.198477 0.000000
#
# Coordination Sequence:
#
# PCOD9546051 Si02
#       6
#    16  16  16  16  16  16
#     4  11  21  38  60  81 106 152 202 238 282 342
#     4  11  23  37  55  83 116 148 190 247 293 329
#     4  11  22  39  60  87 117 151 190 234 282 337
#     4   9  20  37  60  83 112 149 188 230 280 339
#     4  11  22  36  56  86 119 154 187 230 286 340
#     4  11  22  39  60  87 117 151 190 234 282 337
#
# _framework density 18.747125
#
# number of rings (size 3 to 8) (size 9 to 14) (size 15 to 20)
#    0.000    1.333    3.333    3.000    0.000    1.667 
#    0.000    5.000    0.000    0.500    0.000    3.500 
#    0.000    0.000    0.000    0.000    0.000    0.000 
#
# Total GULP energy -267774.667817 kJ/mol
# GULP energy per Si atom -5578.638913 kJ/mol
# Density = 1.870446 g / cm^3
# Si number density = 18.747125 Si / 1000 Ang^3
#
#
#
# Elastic Constant Matrix: (Units=GPa)
#
#
# Indices 1 2 3 4 5 6 
#
# 1 69.2106 63.4744 27.3348 0.0000 0.0000 16.8290
# 2 63.4744 69.2106 27.3348 0.0000 0.0000 -16.8290
# 3 27.3348 27.3348 58.3963 0.0000 0.0000 0.0000
# 4 0.0000 0.0000 0.0000 23.1955 0.0000 0.0000
# 5 0.0000 0.0000 0.0000 0.0000 23.1955 0.0000
# 6 16.8290 -16.8290 0.0000 0.0000 0.0000 10.6176
#
#
#
# Elastic Compliance Matrix: (Units=1/GPa)
#
#
# Indices 1 2 3 4 5 6 
#
# 1 -0.005833 0.015170 -0.004371 0.000000 0.000000 0.033290
# 2 0.015170 -0.005833 -0.004371 0.000000 0.000000 -0.033290
# 3 -0.004371 -0.004371 0.021216 0.000000 0.000000 0.000000
# 4 0.000000 0.000000 0.000000 0.043112 0.000000 0.000000
# 5 0.000000 0.000000 0.000000 0.000000 0.043112 0.000000
# 6 0.033290 -0.033290 0.000000 0.000000 0.000000 -0.011347
#
#
# Mechanical properties :
#
#
# Convention : Reuss Voigt Hill
#
# Bulk Modulus (GPa) = 44.62681 48.12283 46.37482
# Shear Modulus (GPa) = 63.25982 16.64661 39.95322
#
# Velocity S-wave (km/s) = 5.81524 2.98309 4.62146
# Velocity P-wave (km/s) = 8.30335 6.13109 7.29849
#
# Compressibility (1/GPa) = 0.02240805
#
# Stress axis : x y z
#
# Youngs Moduli (GPa) = -171.44356 -171.44356 47.13370
#
# Poissons Ratio (x) = 2.60086 0.20601
# Poissons Ratio (y) = 2.60086 0.20601
# Poissons Ratio (z) = -0.74935 -0.74935
#
# Static dielectric constant tensor:
#      x y z
#    x 1.656010 0.000000 0.000000 
#    y 0.000000 1.656010 0.000000 
#    z 0.000000 0.000000 1.649760 
# 
# From -- ./inp_files/1412.got.cif
#   From: 2010.05.17/outbox.cif.g08.bks.cpg/sg87_1_cif.got.tgz:1412.got - 2010.06.03 19:07:00.
