data_PCOD9546093
_publ_section_title
;
Structure prediction by ZEFSAII (Michael W. Deem and Ramdas Pophale) SiO2 
 PCOD9546093
Probable space group: I 4/M
;
_chemical_formula_sum "Si O2"
_cell_formula_units_Z 48
_cell_length_a 10.901014
_cell_length_b 10.901014
_cell_length_c 17.897784
_cell_angle_alpha 90.000000
_cell_angle_beta 90.000000
_cell_angle_gamma 90.000000
_cell_volume 2126.831370
_symmetry_space_group_name_H-M "I 4/M"
_symmetry_group_IT_number 87
_symmetry_cell_setting 'tetragonal'
loop_
_space_group_symop_operation_xyz
x,y,z
-y,x,z
-x,-y,z
y,-x,z
-x,-y,-z
y,-x,-z
x,y,-z
-y,x,-z
1/2+x,1/2+y,1/2+z
1/2-y,1/2+x,1/2+z
1/2-x,1/2-y,1/2+z
1/2+y,1/2-x,1/2+z
1/2-x,1/2-y,1/2-z
1/2+y,1/2-x,1/2-z
1/2+x,1/2+y,1/2-z
1/2-y,1/2+x,1/2-z
loop_
_atom_site_type_symbol
_atom_site_label
_atom_site_fract_x
_atom_site_fract_y
_atom_site_fract_z
Si Si1 0.621661 0.059679 0.137820
Si Si2 0.191710 0.594568 0.081483
Si Si3 0.410754 0.316271 0.239699
O O1 0.665454 0.939139 0.092698
O O2 0.500000 0.000000 0.176101
O O3 0.550984 0.155469 0.085328
O O4 0.715421 0.114407 0.196710
O O5 0.269638 0.613295 0.155919
O O6 0.243660 0.622736 0.000000
O O7 0.555628 0.342511 0.249341
#
# Coordination Sequence:
#
# PCOD9546093 Si02
#       3
#    16  16  16
#     4   8  19  37  56  88 100 139 194 228 272 311
#     4   9  19  35  58  86 111 139 183 234 279 324
#     4  11  23  36  54  82 117 151 180 221 275 332
#
# _framework density 22.568785999999999
#
# number of rings (size 3 to 8) (size 9 to 14) (size 15 to 20)
#    2.000    0.333    0.000    4.000    4.667    6.667 
#    0.000    1.667    0.000    6.000    0.000    9.333 
#    0.000    0.000    0.000    0.000    0.000    0.000 
#
# Total GULP energy -133627.199572 kJ/mol
# GULP energy per Si atom -5567.799982 kJ/mol
# Density = 2.251742 g / cm^3
# Si number density = 22.568786 Si / 1000 Ang^3
#
#
#
# Elastic Constant Matrix: (Units=GPa)
#
#
# Indices 1 2 3 4 5 6 
#
# 1 81.6332 15.4397 34.7414 0.0000 0.0000 12.2624
# 2 15.4397 81.6332 34.7414 0.0000 0.0000 -12.2624
# 3 34.7414 34.7414 155.2515 0.0000 0.0000 0.0000
# 4 0.0000 0.0000 0.0000 1.9934 0.0000 0.0000
# 5 0.0000 0.0000 0.0000 0.0000 1.9934 0.0000
# 6 12.2624 -12.2624 0.0000 0.0000 0.0000 26.5077
#
#
#
# Elastic Compliance Matrix: (Units=1/GPa)
#
#
# Indices 1 2 3 4 5 6 
#
# 1 0.015249 -0.002983 -0.002745 0.000000 0.000000 -0.008434
# 2 -0.002983 0.015249 -0.002745 0.000000 0.000000 0.008434
# 3 -0.002745 -0.002745 0.007670 0.000000 0.000000 0.000000
# 4 0.000000 0.000000 0.000000 0.501652 0.000000 0.000000
# 5 0.000000 0.000000 0.000000 0.000000 0.501652 0.000000
# 6 -0.008434 0.008434 0.000000 0.000000 0.000000 0.045528
#
#
# Mechanical properties :
#
#
# Convention : Reuss Voigt Hill
#
# Bulk Modulus (GPa) = 47.11952 54.26255 50.69104
# Shear Modulus (GPa) = 4.50037 21.67194 13.08615
#
# Velocity S-wave (km/s) = 1.41365 3.10217 2.41059
# Velocity P-wave (km/s) = 4.85675 6.07673 5.50067
#
# Compressibility (1/GPa) = 0.02122262
#
# Stress axis : x y z
#
# Youngs Moduli (GPa) = 65.57737 65.57737 130.38438
#
# Poissons Ratio (x) = 0.19561 0.35789
# Poissons Ratio (y) = 0.19561 0.35789
# Poissons Ratio (z) = 0.18000 0.18000
#
# Static dielectric constant tensor:
#      x y z
#    x 1.959700 0.000000 0.000000 
#    y 0.000000 1.959700 0.000000 
#    z 0.000000 0.000000 1.792290 
# 
# From -- ./inp_files/4079.got.cif
#   From: 2010.05.17/outbox.cif.g08.bks.cpg/sg87_3_cif.got.tgz:4079.got - 2010.06.03 19:07:00.
