data_PCOD9546425
_publ_section_title
;
Structure prediction by ZEFSAII (Michael W. Deem and Ramdas Pophale) SiO2 
 PCOD9546425
Probable space group: I 41/A
;
_chemical_formula_sum "Si O2"
_cell_formula_units_Z 112
_cell_length_a 15.252018
_cell_length_b 15.252018
_cell_length_c 28.263341
_cell_angle_alpha 90.000000
_cell_angle_beta 90.000000
_cell_angle_gamma 90.000000
_cell_volume 6574.732937
_symmetry_space_group_name_H-M "I 41/A"
_symmetry_group_IT_number 88
_space_group.IT_coordinate_system_code '2'
_symmetry_cell_setting 'tetragonal'
loop_
_space_group_symop_operation_xyz
x,y,z
3/4-y,1/4+x,1/4+z
-x,1/2-y,z
1/4+y,1/4-x,1/4+z
-x,-y,-z
1/4+y,3/4-x,3/4-z
x,1/2+y,-z
3/4-y,3/4+x,3/4-z
1/2+x,1/2+y,1/2+z
1/4-y,3/4+x,3/4+z
1/2-x,-y,1/2+z
3/4+y,3/4-x,3/4+z
1/2-x,1/2-y,1/2-z
3/4+y,1/4-x,1/4-z
1/2+x,y,1/2-z
1/4-y,1/4+x,1/4-z
loop_
_atom_site_type_symbol
_atom_site_label
_atom_site_fract_x
_atom_site_fract_y
_atom_site_fract_z
Si Si1 0.994030 0.523920 0.769665
Si Si2 0.098407 0.783476 0.065952
Si Si3 0.837380 0.088337 0.792970
Si Si4 0.894744 0.271490 0.830285
Si Si5 0.973849 0.385381 0.131266
Si Si6 0.156058 0.474871 0.899758
Si Si7 0.688817 0.554433 0.284579
O O1 0.016157 0.592197 0.729050
O O2 0.071272 0.451430 0.772795
O O3 0.994331 0.568205 0.821301
O O4 0.896390 0.489935 0.761459
O O5 0.125346 0.732576 0.113832
O O6 0.114449 0.885361 0.079683
O O7 0.000000 0.750000 0.056133
O O8 0.849478 0.190355 0.804171
O O9 0.821673 0.042440 0.844242
O O10 0.760148 0.075321 0.755561
O O11 0.855306 0.360950 0.809745
O O12 0.000000 0.250000 0.826170
O O13 0.907995 0.306531 0.144158
O O14 0.920574 0.453192 0.099899
O O15 0.238673 0.512779 0.928581
#
# Coordination Sequence:
#
# PCOD9546425 Si02
#       7
#    16  16  16  16  16  16  16
#     4  11  22  38  57  88 121 151 200 247 289 353
#     4  10  23  39  59  85 123 152 196 252 297 352
#     4  10  22  41  60  88 120 152 204 247 298 367
#     4  10  21  40  63  87 116 158 195 246 308 363
#     4  10  21  36  56  77 117 160 193 230 285 350
#     4  10  22  40  58  89 116 154 201 247 299 357
#     4  12  22  38  64  87 118 158 201 245 305 360
#
# _framework density 17.034911999999998
#
# number of rings (size 3 to 8) (size 9 to 14) (size 15 to 20)
#    0.000    1.571    4.286    0.429    6.000    0.000 
#    2.571    1.429    0.000    0.000    0.000    0.000 
#    0.000    0.000    0.000    0.000    0.000    0.000 
#
# Total GULP energy -312202.981842 kJ/mol
# GULP energy per Si atom -5575.053247 kJ/mol
# Density = 1.699614 g / cm^3
# Si number density = 17.034912 Si / 1000 Ang^3
#
#
#
# Elastic Constant Matrix: (Units=GPa)
#
#
# Indices 1 2 3 4 5 6 
#
# 1 64.7940 15.7265 5.7814 0.0000 0.0000 8.6435
# 2 15.7265 64.7940 5.7814 0.0000 0.0000 -8.6435
# 3 5.7814 5.7814 26.7246 0.0000 0.0000 0.0000
# 4 0.0000 0.0000 0.0000 20.7957 0.0000 0.0000
# 5 0.0000 0.0000 0.0000 0.0000 20.7957 0.0000
# 6 8.6435 -8.6435 0.0000 0.0000 0.0000 31.6417
#
#
#
# Elastic Compliance Matrix: (Units=1/GPa)
#
#
# Indices 1 2 3 4 5 6 
#
# 1 0.017684 -0.004866 -0.002773 0.000000 0.000000 -0.006160
# 2 -0.004866 0.017684 -0.002773 0.000000 0.000000 0.006160
# 3 -0.002773 -0.002773 0.038618 0.000000 0.000000 0.000000
# 4 0.000000 0.000000 0.000000 0.048087 0.000000 0.000000
# 5 0.000000 0.000000 0.000000 0.000000 0.048087 0.000000
# 6 -0.006160 0.006160 0.000000 0.000000 0.000000 0.034969
#
#
# Mechanical properties :
#
#
# Convention : Reuss Voigt Hill
#
# Bulk Modulus (GPa) = 18.81048 23.43236 21.12142
# Shear Modulus (GPa) = 20.51922 23.24817 21.88370
#
# Velocity S-wave (km/s) = 3.47441 3.69824 3.58807
# Velocity P-wave (km/s) = 5.21169 5.65874 5.43981
#
# Compressibility (1/GPa) = 0.05316187
#
# Stress axis : x y z
#
# Youngs Moduli (GPa) = 56.54876 56.54876 25.89438
#
# Poissons Ratio (x) = 0.27519 0.07180
# Poissons Ratio (y) = 0.27519 0.07180
# Poissons Ratio (z) = 0.15680 0.15680
#
# Static dielectric constant tensor:
#      x y z
#    x 1.580170 0.000000 0.000000 
#    y 0.000000 1.580170 0.000000 
#    z 0.000000 0.000000 1.547660 
# 
# From -- ./inp_files/5338.got.cif
#   From: 2010.05.17/outbox.cif.g08.bks.cpg/sg88_3_cif.got.tgz:5338.got - 2010.06.03 19:11:41.
