data_PCOD9546020
_publ_section_title
;
Structure prediction by ZEFSAII (Michael W. Deem and Ramdas Pophale) SiO2 
 PCOD9546020
Probable space group: I 4/M
;
_chemical_formula_sum "Si O2"
_cell_formula_units_Z 72
_cell_length_a 21.138566
_cell_length_b 21.138566
_cell_length_c 9.903217
_cell_angle_alpha 90.000000
_cell_angle_beta 90.000000
_cell_angle_gamma 90.000000
_cell_volume 4425.143309
_symmetry_space_group_name_H-M "I 4/M"
_symmetry_group_IT_number 87
_symmetry_cell_setting 'tetragonal'
loop_
_space_group_symop_operation_xyz
x,y,z
-y,x,z
-x,-y,z
y,-x,z
-x,-y,-z
y,-x,-z
x,y,-z
-y,x,-z
1/2+x,1/2+y,1/2+z
1/2-y,1/2+x,1/2+z
1/2-x,1/2-y,1/2+z
1/2+y,1/2-x,1/2+z
1/2-x,1/2-y,1/2-z
1/2+y,1/2-x,1/2-z
1/2+x,1/2+y,1/2-z
1/2-y,1/2+x,1/2-z
loop_
_atom_site_type_symbol
_atom_site_label
_atom_site_fract_x
_atom_site_fract_y
_atom_site_fract_z
Si Si1 0.925417 0.818319 0.146041
Si Si2 0.239664 0.653556 0.155866
Si Si3 0.958078 0.096852 0.500000
Si Si4 0.345507 0.765260 0.842072
Si Si5 0.068408 0.834771 0.222829
O O1 0.904490 0.774734 0.270928
O O2 0.881426 0.880924 0.153478
O O3 0.999667 0.833274 0.155896
O O4 0.911928 0.787800 0.000000
O O5 0.291738 0.710144 0.152781
O O6 0.184595 0.678006 0.255267
O O7 0.221351 0.641509 0.000000
O O8 0.941000 0.135550 0.369555
O O9 0.031590 0.079870 0.500000
O O10 0.401225 0.733591 0.753331
O O11 0.361148 0.779437 0.000000
#
# Coordination Sequence:
#
# PCOD9546020 Si02
#       5
#    16  16   8  16  16
#     4  11  23  35  47  68  99 131 167 206 244 284
#     4   9  19  32  49  68  90 120 159 202 246 294
#     4  11  20  32  48  70  96 134 174 207 235 282
#     4   9  17  30  50  69  90 120 156 201 248 293
#     4  11  21  32  51  69  97 130 169 202 244 288
#
# _framework density 16.270658999999998
#
# number of rings (size 3 to 8) (size 9 to 14) (size 15 to 20)
#    0.000    1.889    3.333    1.333    3.111    6.667 
#    0.000    1.111    0.000    0.000    0.000    0.000 
#    0.000    0.889    0.000    6.222    0.000    2.000 
#
# Total GULP energy -200632.281532 kJ/mol
# GULP energy per Si atom -5573.118931 kJ/mol
# Density = 1.623363 g / cm^3
# Si number density = 16.270659 Si / 1000 Ang^3
#
#
#
# Elastic Constant Matrix: (Units=GPa)
#
#
# Indices 1 2 3 4 5 6 
#
# 1 46.4407 39.4234 24.7825 0.0000 0.0000 0.1822
# 2 39.4234 46.4407 24.7825 0.0000 0.0000 -0.1822
# 3 24.7825 24.7825 117.0649 0.0000 0.0000 0.0000
# 4 0.0000 0.0000 0.0000 15.1223 0.0000 0.0000
# 5 0.0000 0.0000 0.0000 0.0000 15.1223 0.0000
# 6 0.1822 -0.1822 0.0000 0.0000 0.0000 21.2919
#
#
#
# Elastic Compliance Matrix: (Units=1/GPa)
#
#
# Indices 1 2 3 4 5 6 
#
# 1 0.077918 -0.064651 -0.002809 0.000000 0.000000 -0.001220
# 2 -0.064651 0.077918 -0.002809 0.000000 0.000000 0.001220
# 3 -0.002809 -0.002809 0.009731 0.000000 0.000000 0.000000
# 4 0.000000 0.000000 0.000000 0.066127 0.000000 0.000000
# 5 0.000000 0.000000 0.000000 0.000000 0.066127 0.000000
# 6 -0.001220 0.001220 0.000000 0.000000 0.000000 0.046987
#
#
# Mechanical properties :
#
#
# Convention : Reuss Voigt Hill
#
# Bulk Modulus (GPa) = 39.94917 43.10256 41.52586
# Shear Modulus (GPa) = 10.12780 18.37117 14.24949
#
# Velocity S-wave (km/s) = 2.49762 3.36385 2.96257
# Velocity P-wave (km/s) = 5.73791 6.45258 6.10571
#
# Compressibility (1/GPa) = 0.02503181
#
# Stress axis : x y z
#
# Youngs Moduli (GPa) = 12.83394 12.83394 102.75929
#
# Poissons Ratio (x) = 0.82972 0.28862
# Poissons Ratio (y) = 0.82972 0.28862
# Poissons Ratio (z) = 0.03605 0.03605
#
# Static dielectric constant tensor:
#      x y z
#    x 1.554980 0.000000 0.000000 
#    y 0.000000 1.554980 0.000000 
#    z 0.000000 0.000000 1.549950 
# 
# From -- ./inp_files/1072.got.cif
#   From: 2010.05.17/outbox.cif.g08.bks.cpg/sg87_1_cif.got.tgz:1072.got - 2010.06.03 19:07:00.
