data_PCOD9546377
_publ_section_title
;
Structure prediction by ZEFSAII (Michael W. Deem and Ramdas Pophale) SiO2 
 PCOD9546377
Probable space group: I 41/A
;
_chemical_formula_sum "Si O2"
_cell_formula_units_Z 96
_cell_length_a 19.456891
_cell_length_b 19.456891
_cell_length_c 12.558584
_cell_angle_alpha 90.000000
_cell_angle_beta 90.000000
_cell_angle_gamma 90.000000
_cell_volume 4754.310773
_symmetry_space_group_name_H-M "I 41/A"
_symmetry_group_IT_number 88
_space_group.IT_coordinate_system_code '2'
_symmetry_cell_setting 'tetragonal'
loop_
_space_group_symop_operation_xyz
x,y,z
3/4-y,1/4+x,1/4+z
-x,1/2-y,z
1/4+y,1/4-x,1/4+z
-x,-y,-z
1/4+y,3/4-x,3/4-z
x,1/2+y,-z
3/4-y,3/4+x,3/4-z
1/2+x,1/2+y,1/2+z
1/4-y,3/4+x,3/4+z
1/2-x,-y,1/2+z
3/4+y,3/4-x,3/4+z
1/2-x,1/2-y,1/2-z
3/4+y,1/4-x,1/4-z
1/2+x,y,1/2-z
1/4-y,1/4+x,1/4-z
loop_
_atom_site_type_symbol
_atom_site_label
_atom_site_fract_x
_atom_site_fract_y
_atom_site_fract_z
Si Si1 0.147341 0.504400 0.846511
Si Si2 0.758450 0.891526 0.279637
Si Si3 0.392326 0.032906 0.431184
Si Si4 0.215890 0.362837 0.551509
Si Si5 0.532486 0.018474 0.193297
Si Si6 0.386173 0.256539 0.394131
O O1 0.212820 0.455470 0.824512
O O2 0.164545 0.579700 0.805412
O O3 0.084034 0.481082 0.775128
O O4 0.120545 0.513037 0.966280
O O5 0.757982 0.891197 0.152316
O O6 0.838575 0.899785 0.308113
O O7 0.725493 0.824852 0.334279
O O8 0.462944 0.075522 0.430570
O O9 0.380403 0.998218 0.316481
O O10 0.218834 0.282144 0.570266
O O11 0.510091 0.091687 0.248173
O O12 0.442148 0.319219 0.399334
#
# Coordination Sequence:
#
# PCOD9546377 Si02
#       6
#    16  16  16  16  16  16
#     4  12  20  39  65  92 130 162 210 274 329 376
#     4  12  21  43  66  91 130 171 213 271 324 385
#     4  11  22  36  61  96 126 160 214 269 326 385
#     4  11  24  38  65  97 127 165 217 266 329 386
#     4  11  24  40  62  97 123 168 215 265 324 393
#     4  10  20  39  58  84 131 173 207 258 332 401
#
# _framework density 20.192201000000001
#
# number of rings (size 3 to 8) (size 9 to 14) (size 15 to 20)
#    0.000    0.833    5.000    3.500    0.000    2.667 
#    6.000    0.000    0.000    0.500    0.000    0.000 
#    0.000    0.000    0.000    0.000    0.000    0.000 
#
# Total GULP energy -267279.727550 kJ/mol
# GULP energy per Si atom -5568.327657 kJ/mol
# Density = 2.014624 g / cm^3
# Si number density = 20.192201 Si / 1000 Ang^3
#
#
#
# Elastic Constant Matrix: (Units=GPa)
#
#
# Indices 1 2 3 4 5 6 
#
# 1 59.9301 41.0134 9.7149 0.0000 0.0000 8.5291
# 2 41.0134 59.9301 9.7149 0.0000 0.0000 -8.5291
# 3 9.7149 9.7149 99.1034 0.0000 0.0000 0.0000
# 4 0.0000 0.0000 0.0000 20.1595 0.0000 0.0000
# 5 0.0000 0.0000 0.0000 0.0000 20.1595 0.0000
# 6 8.5291 -8.5291 0.0000 0.0000 0.0000 15.1131
#
#
#
# Elastic Compliance Matrix: (Units=1/GPa)
#
#
# Indices 1 2 3 4 5 6 
#
# 1 0.058870 -0.048773 -0.000990 0.000000 0.000000 -0.060748
# 2 -0.048773 0.058870 -0.000990 0.000000 0.000000 0.060748
# 3 -0.000990 -0.000990 0.010285 0.000000 0.000000 0.000000
# 4 0.000000 0.000000 0.000000 0.049604 0.000000 0.000000
# 5 0.000000 0.000000 0.000000 0.000000 0.049604 0.000000
# 6 -0.060748 0.060748 0.000000 0.000000 0.000000 0.134733
#
#
# Mechanical properties :
#
#
# Convention : Reuss Voigt Hill
#
# Bulk Modulus (GPa) = 37.70819 37.76113 37.73466
# Shear Modulus (GPa) = 10.58626 21.65446 16.12036
#
# Velocity S-wave (km/s) = 2.29219 3.27833 2.82857
# Velocity P-wave (km/s) = 5.07156 5.75077 5.42181
#
# Compressibility (1/GPa) = 0.02651944
#
# Stress axis : x y z
#
# Youngs Moduli (GPa) = 16.98665 16.98665 97.23348
#
# Poissons Ratio (x) = 0.82849 0.09624
# Poissons Ratio (y) = 0.82849 0.09624
# Poissons Ratio (z) = 0.01681 0.01681
#
# Static dielectric constant tensor:
#      x y z
#    x 1.744740 0.000000 0.000000 
#    y 0.000000 1.744740 0.000000 
#    z 0.000000 0.000000 1.757900 
# 
# From -- ./inp_files/2608.got.cif
#   From: 2010.05.17/outbox.cif.g08.bks.cpg/sg88_2_cif.got.tgz:2608.got - 2010.06.03 19:11:41.
