data_PCOD9546032
_publ_section_title
;
Structure prediction by ZEFSAII (Michael W. Deem and Ramdas Pophale) SiO2 
 PCOD9546032
Probable space group: I 4/M
;
_chemical_formula_sum "Si O2"
_cell_formula_units_Z 120
_cell_length_a 17.563869
_cell_length_b 17.563869
_cell_length_c 21.583533
_cell_angle_alpha 90.000000
_cell_angle_beta 90.000000
_cell_angle_gamma 90.000000
_cell_volume 6658.293179
_symmetry_space_group_name_H-M "I 4/M"
_symmetry_group_IT_number 87
_symmetry_cell_setting 'tetragonal'
loop_
_space_group_symop_operation_xyz
x,y,z
-y,x,z
-x,-y,z
y,-x,z
-x,-y,-z
y,-x,-z
x,y,-z
-y,x,-z
1/2+x,1/2+y,1/2+z
1/2-y,1/2+x,1/2+z
1/2-x,1/2-y,1/2+z
1/2+y,1/2-x,1/2+z
1/2-x,1/2-y,1/2-z
1/2+y,1/2-x,1/2-z
1/2+x,1/2+y,1/2-z
1/2-y,1/2+x,1/2-z
loop_
_atom_site_type_symbol
_atom_site_label
_atom_site_fract_x
_atom_site_fract_y
_atom_site_fract_z
Si Si1 0.265177 0.165027 0.119923
Si Si2 0.575105 0.684497 0.274474
Si Si3 0.452438 0.384450 0.592957
Si Si4 0.090207 0.587129 0.925681
Si Si5 0.328761 0.656764 0.500000
Si Si6 0.190402 0.682621 0.333102
Si Si7 0.590777 0.087778 0.926172
Si Si8 0.091631 0.785006 0.753378
O O1 0.352549 0.143439 0.108555
O O2 0.219828 0.158168 0.055493
O O3 0.246688 0.249879 0.144056
O O4 0.231884 0.109884 0.173863
O O5 0.551991 0.635498 0.335273
O O6 0.620452 0.758078 0.298232
O O7 0.635328 0.633020 0.238265
O O8 0.497506 0.707847 0.242247
O O9 0.539043 0.404708 0.576553
O O10 0.411267 0.320430 0.553505
O O11 0.103415 0.498169 0.910928
O O12 0.001366 0.604913 0.911513
O O13 0.099207 0.594683 0.000000
O O14 0.146229 0.642700 0.389010
O O15 0.131292 0.719698 0.285997
O O16 0.600636 0.097438 0.000000
#
# Coordination Sequence:
#
# PCOD9546032 Si02
#       8
#    16  16  16  16   8  16  16  16
#     4  11  21  36  56  84 119 149 191 235 295 353
#     4  11  20  39  59  78 113 152 197 239 288 348
#     4  11  21  34  52  82 123 162 194 230 275 347
#     4   9  18  37  59  84 112 151 188 233 292 354
#     4  12  20  33  52  87 118 157 192 227 290 344
#     4  11  24  38  56  84 115 151 193 248 298 345
#     4   9  20  36  59  84 112 146 195 242 290 350
#     4  11  24  39  58  82 111 158 197 240 294 344
#
# _framework density 18.022637
#
# number of rings (size 3 to 8) (size 9 to 14) (size 15 to 20)
#    0.000    1.467    4.667    3.600    0.933    2.933 
#    2.400    0.000    0.000    1.600    0.000    0.000 
#    0.000    0.000    0.000    7.067    0.000    0.000 
#
# Total GULP energy -334010.440817 kJ/mol
# GULP energy per Si atom -5566.840680 kJ/mol
# Density = 1.798162 g / cm^3
# Si number density = 18.022637 Si / 1000 Ang^3
#
#
#
# Elastic Constant Matrix: (Units=GPa)
#
#
# Indices 1 2 3 4 5 6 
#
# 1 97.7950 59.9914 27.1101 0.0000 0.0000 -0.4976
# 2 59.9914 97.7950 27.1101 0.0000 0.0000 0.4976
# 3 27.1101 27.1101 40.2842 0.0000 0.0000 0.0000
# 4 0.0000 0.0000 0.0000 6.6002 0.0000 0.0000
# 5 0.0000 0.0000 0.0000 0.0000 6.6002 0.0000
# 6 -0.4976 0.4976 0.0000 0.0000 0.0000 22.5876
#
#
#
# Elastic Compliance Matrix: (Units=1/GPa)
#
#
# Indices 1 2 3 4 5 6 
#
# 1 0.017356 -0.009112 -0.005548 0.000000 0.000000 0.000583
# 2 -0.009112 0.017356 -0.005548 0.000000 0.000000 -0.000583
# 3 -0.005548 -0.005548 0.032291 0.000000 0.000000 0.000000
# 4 0.000000 0.000000 0.000000 0.151510 0.000000 0.000000
# 5 0.000000 0.000000 0.000000 0.000000 0.151510 0.000000
# 6 0.000583 -0.000583 0.000000 0.000000 0.000000 0.044298
#
#
# Mechanical properties :
#
#
# Convention : Reuss Voigt Hill
#
# Bulk Modulus (GPa) = 37.61231 51.58860 44.60045
# Shear Modulus (GPa) = 10.78519 15.26846 13.02683
#
# Velocity S-wave (km/s) = 2.44893 2.91380 2.69142
# Velocity P-wave (km/s) = 5.37690 6.32509 5.87017
#
# Compressibility (1/GPa) = 0.02658704
#
# Stress axis : x y z
#
# Youngs Moduli (GPa) = 57.61693 57.61693 30.96834
#
# Poissons Ratio (x) = 0.52500 0.17181
# Poissons Ratio (y) = 0.52500 0.17182
# Poissons Ratio (z) = 0.31966 0.31966
#
# Static dielectric constant tensor:
#      x y z
#    x 1.641310 0.000000 0.000000 
#    y 0.000000 1.641310 0.000000 
#    z 0.000000 0.000000 1.554040 
# 
# From -- ./inp_files/5529.got.cif
#   From: 2010.05.17/outbox.cif.g08.bks.cpg/sg87_3_cif.got.tgz:5529.got - 2010.06.03 19:07:00.
