data_PCOD9546772
_publ_section_title
;
Structure prediction by ZEFSAII (Michael W. Deem and Ramdas Pophale) SiO2 
 PCOD9546772
Probable space group: I 41/A
;
_chemical_formula_sum "Si O2"
_cell_formula_units_Z 64
_cell_length_a 10.584385
_cell_length_b 10.584385
_cell_length_c 23.230395
_cell_angle_alpha 90.000000
_cell_angle_beta 90.000000
_cell_angle_gamma 90.000000
_cell_volume 2602.482703
_symmetry_space_group_name_H-M "I 41/A"
_symmetry_group_IT_number 88
_space_group.IT_coordinate_system_code '2'
_symmetry_cell_setting 'tetragonal'
loop_
_space_group_symop_operation_xyz
x,y,z
3/4-y,1/4+x,1/4+z
-x,1/2-y,z
1/4+y,1/4-x,1/4+z
-x,-y,-z
1/4+y,3/4-x,3/4-z
x,1/2+y,-z
3/4-y,3/4+x,3/4-z
1/2+x,1/2+y,1/2+z
1/4-y,3/4+x,3/4+z
1/2-x,-y,1/2+z
3/4+y,3/4-x,3/4+z
1/2-x,1/2-y,1/2-z
3/4+y,1/4-x,1/4-z
1/2+x,y,1/2-z
1/4-y,1/4+x,1/4-z
loop_
_atom_site_type_symbol
_atom_site_label
_atom_site_fract_x
_atom_site_fract_y
_atom_site_fract_z
Si Si1 0.576722 0.871737 0.224439
Si Si2 0.286095 0.540697 0.692834
Si Si3 0.923025 0.629649 0.707615
Si Si4 0.672793 0.228707 0.101293
O O1 0.500000 0.750000 0.202727
O O2 0.579273 0.861988 0.294031
O O3 0.716027 0.906644 0.201841
O O4 0.498409 0.998424 0.209066
O O5 0.295955 0.605704 0.755630
O O6 0.431407 0.532064 0.673797
O O7 0.216165 0.621823 0.645104
O O8 0.897427 0.670225 0.642160
O O9 0.000000 0.750000 0.732009
#
# Coordination Sequence:
#
# PCOD9546772 Si02
#       4
#    16  16  16  16
#     4  11  26  47  71 108 152 204 264 328 390 479
#     4  11  25  42  72 113 151 203 268 321 389 476
#     4  11  23  43  71 107 152 204 259 322 387 478
#     4  11  24  43  74 105 153 205 250 326 399 461
#
# _framework density 24.591904
#
# number of rings (size 3 to 8) (size 9 to 14) (size 15 to 20)
#    0.000    1.000    2.500    3.000    7.000    4.000 
#    4.500    0.000    0.000    0.000    0.000    0.000 
#    0.000    0.000    0.000    0.000    0.000    0.000 
#
# Total GULP energy -178780.312190 kJ/mol
# GULP energy per Si atom -5586.884756 kJ/mol
# Density = 2.453593 g / cm^3
# Si number density = 24.591904 Si / 1000 Ang^3
#
#
#
# Elastic Constant Matrix: (Units=GPa)
#
#
# Indices 1 2 3 4 5 6 
#
# 1 111.1334 43.1198 35.1772 0.0000 0.0000 -7.6830
# 2 43.1198 111.1334 35.1772 0.0000 0.0000 7.6830
# 3 35.1772 35.1772 116.1400 0.0000 0.0000 0.0000
# 4 0.0000 0.0000 0.0000 37.3679 0.0000 0.0000
# 5 0.0000 0.0000 0.0000 0.0000 37.3679 0.0000
# 6 -7.6830 7.6830 0.0000 0.0000 0.0000 45.8975
#
#
#
# Elastic Compliance Matrix: (Units=1/GPa)
#
#
# Indices 1 2 3 4 5 6 
#
# 1 0.011401 -0.003879 -0.002278 0.000000 0.000000 0.002558
# 2 -0.003879 0.011401 -0.002278 0.000000 0.000000 -0.002558
# 3 -0.002278 -0.002278 0.009990 0.000000 0.000000 0.000000
# 4 0.000000 0.000000 0.000000 0.026761 0.000000 0.000000
# 5 0.000000 0.000000 0.000000 0.000000 0.026761 0.000000
# 6 0.002558 -0.002558 0.000000 0.000000 0.000000 0.022644
#
#
# Mechanical properties :
#
#
# Convention : Reuss Voigt Hill
#
# Bulk Modulus (GPa) = 62.80948 62.81727 62.81338
# Shear Modulus (GPa) = 38.12769 39.12216 38.62492
#
# Velocity S-wave (km/s) = 3.94180 3.99288 3.96742
# Velocity P-wave (km/s) = 6.80538 6.84520 6.82532
#
# Compressibility (1/GPa) = 0.01592116
#
# Stress axis : x y z
#
# Youngs Moduli (GPa) = 87.70845 87.70845 100.09574
#
# Poissons Ratio (x) = 0.34026 0.22805
# Poissons Ratio (y) = 0.34026 0.22805
# Poissons Ratio (z) = 0.19983 0.19983
#
# Static dielectric constant tensor:
#      x y z
#    x 2.085750 0.000000 0.000000 
#    y 0.000000 2.085750 0.000000 
#    z 0.000000 0.000000 1.926400 
# 
# From -- ./inp_files/5122.got.cif
#   From: 2010.05.17/outbox.cif.g08.bks.cpg/sg88_3_cif.got.tgz:5122.got - 2010.06.03 19:11:41.
