data_PCOD9546593
_publ_section_title
;
Structure prediction by ZEFSAII (Michael W. Deem and Ramdas Pophale) SiO2 
 PCOD9546593
Probable space group: I 41/A
;
_chemical_formula_sum "Si O2"
_cell_formula_units_Z 64
_cell_length_a 17.012111
_cell_length_b 17.012111
_cell_length_c 9.811054
_cell_angle_alpha 90.000000
_cell_angle_beta 90.000000
_cell_angle_gamma 90.000000
_cell_volume 2839.435982
_symmetry_space_group_name_H-M "I 41/A"
_symmetry_group_IT_number 88
_space_group.IT_coordinate_system_code '2'
_symmetry_cell_setting 'tetragonal'
loop_
_space_group_symop_operation_xyz
x,y,z
3/4-y,1/4+x,1/4+z
-x,1/2-y,z
1/4+y,1/4-x,1/4+z
-x,-y,-z
1/4+y,3/4-x,3/4-z
x,1/2+y,-z
3/4-y,3/4+x,3/4-z
1/2+x,1/2+y,1/2+z
1/4-y,3/4+x,3/4+z
1/2-x,-y,1/2+z
3/4+y,3/4-x,3/4+z
1/2-x,1/2-y,1/2-z
3/4+y,1/4-x,1/4-z
1/2+x,y,1/2-z
1/4-y,1/4+x,1/4-z
loop_
_atom_site_type_symbol
_atom_site_label
_atom_site_fract_x
_atom_site_fract_y
_atom_site_fract_z
Si Si1 0.737310 0.159263 0.998771
Si Si2 0.637667 0.226428 0.556175
Si Si3 0.583027 0.346290 0.917776
Si Si4 0.092915 0.390972 0.005182
O O1 0.812252 0.102969 0.016343
O O2 0.704073 0.184606 0.145621
O O3 0.777243 0.233148 0.921271
O O4 0.664596 0.123894 0.915865
O O5 0.612422 0.166236 0.671479
O O6 0.641154 0.193108 0.404269
O O7 0.580795 0.302945 0.555366
O O8 0.605401 0.258578 0.877308
#
# Coordination Sequence:
#
# PCOD9546593 Si02
#       4
#    16  16  16  16
#     4  10  22  44  61  93 131 164 214 272 310 389
#     4  10  23  37  67  91 127 167 213 260 318 379
#     4  11  22  38  64  95 126 170 220 264 319 373
#     4  10  23  40  66  91 130 166 212 264 324 378
#
# _framework density 22.539686
#
# number of rings (size 3 to 8) (size 9 to 14) (size 15 to 20)
#    1.500    0.250    2.500    1.500    3.500    0.500 
#    0.000    5.000    0.000    0.000    0.000    0.000 
#    0.000    0.000    0.000    0.000    0.000    0.000 
#
# Total GULP energy -178541.334730 kJ/mol
# GULP energy per Si atom -5579.416710 kJ/mol
# Density = 2.248838 g / cm^3
# Si number density = 22.539686 Si / 1000 Ang^3
#
#
#
# Elastic Constant Matrix: (Units=GPa)
#
#
# Indices 1 2 3 4 5 6 
#
# 1 50.2605 3.8735 -2.9893 0.0000 0.0000 -0.0010
# 2 3.8735 50.2605 -2.9893 0.0000 0.0000 0.0010
# 3 -2.9893 -2.9893 114.7546 0.0000 0.0000 0.0000
# 4 0.0000 0.0000 0.0000 17.3871 0.0000 0.0000
# 5 0.0000 0.0000 0.0000 0.0000 17.3871 0.0000
# 6 -0.0010 0.0010 0.0000 0.0000 0.0000 15.7945
#
#
#
# Elastic Compliance Matrix: (Units=1/GPa)
#
#
# Indices 1 2 3 4 5 6 
#
# 1 0.020042 -0.001516 0.000483 0.000000 0.000000 0.000001
# 2 -0.001516 0.020042 0.000483 0.000000 0.000000 -0.000001
# 3 0.000483 0.000483 0.008739 0.000000 0.000000 0.000000
# 4 0.000000 0.000000 0.000000 0.057514 0.000000 0.000000
# 5 0.000000 0.000000 0.000000 0.000000 0.057514 0.000000
# 6 0.000001 -0.000001 0.000000 0.000000 0.000000 0.063313
#
#
# Mechanical properties :
#
#
# Convention : Reuss Voigt Hill
#
# Bulk Modulus (GPa) = 20.95479 23.45168 22.20324
# Shear Modulus (GPa) = 20.47731 24.60580 22.54156
#
# Velocity S-wave (km/s) = 3.01740 3.30762 3.16584
# Velocity P-wave (km/s) = 4.63213 5.00143 4.82032
#
# Compressibility (1/GPa) = 0.04772178
#
# Stress axis : x y z
#
# Youngs Moduli (GPa) = 49.89552 49.89552 114.42444
#
# Poissons Ratio (x) = 0.07564 -0.05522
# Poissons Ratio (y) = 0.07564 -0.05522
# Poissons Ratio (z) = -0.02408 -0.02408
#
# Static dielectric constant tensor:
#      x y z
#    x 1.847170 0.000000 0.000000 
#    y 0.000000 1.847170 0.000000 
#    z 0.000000 0.000000 1.821330 
# 
# From -- ./inp_files/1473.got.cif
#   From: 2010.05.17/outbox.cif.g08.bks.cpg/sg88_1_cif.got.tgz:1473.got - 2010.06.03 19:11:41.
