data_PCOD9546749
_publ_section_title
;
Structure prediction by ZEFSAII (Michael W. Deem and Ramdas Pophale) SiO2 
 PCOD9546749
Probable space group: I 41/A
;
_chemical_formula_sum "Si O2"
_cell_formula_units_Z 88
_cell_length_a 11.328135
_cell_length_b 11.328135
_cell_length_c 29.997802
_cell_angle_alpha 90.000000
_cell_angle_beta 90.000000
_cell_angle_gamma 90.000000
_cell_volume 3849.517215
_symmetry_space_group_name_H-M "I 41/A"
_symmetry_group_IT_number 88
_space_group.IT_coordinate_system_code '2'
_symmetry_cell_setting 'tetragonal'
loop_
_space_group_symop_operation_xyz
x,y,z
3/4-y,1/4+x,1/4+z
-x,1/2-y,z
1/4+y,1/4-x,1/4+z
-x,-y,-z
1/4+y,3/4-x,3/4-z
x,1/2+y,-z
3/4-y,3/4+x,3/4-z
1/2+x,1/2+y,1/2+z
1/4-y,3/4+x,3/4+z
1/2-x,-y,1/2+z
3/4+y,3/4-x,3/4+z
1/2-x,1/2-y,1/2-z
3/4+y,1/4-x,1/4-z
1/2+x,y,1/2-z
1/4-y,1/4+x,1/4-z
loop_
_atom_site_type_symbol
_atom_site_label
_atom_site_fract_x
_atom_site_fract_y
_atom_site_fract_z
Si Si1 0.814634 0.986731 0.342639
Si Si2 0.676213 0.917115 0.255966
Si Si3 0.000000 0.250000 0.376962
Si Si4 0.415433 0.467674 0.172306
Si Si5 0.678716 0.681484 0.613688
Si Si6 0.420095 0.386201 0.708606
O O1 0.725268 0.945578 0.304551
O O2 0.795077 0.907907 0.386677
O O3 0.771510 0.117544 0.354300
O O4 0.949297 0.986866 0.326542
O O5 0.543860 0.865193 0.264985
O O6 0.796785 0.864116 0.233692
O O7 0.644319 0.019321 0.220314
O O8 0.077227 0.164136 0.346748
O O9 0.060678 0.334609 0.413403
O O10 0.560651 0.604328 0.619176
O O11 0.732020 0.680600 0.563543
#
# Coordination Sequence:
#
# PCOD9546749 Si02
#       6
#    16  16   8  16  16  16
#     4  12  25  46  71 107 146 195 252 314 380 465
#     4  12  25  46  72 110 154 194 259 324 389 471
#     4  12  24  46  76 102 145 209 252 322 394 460
#     4  12  25  46  74 106 150 199 255 317 391 471
#     4  11  22  42  72  96 137 190 238 297 376 453
#     4  12  25  45  72 106 149 199 251 320 386 467
#
# _framework density 22.860008000000001
#
# number of rings (size 3 to 8) (size 9 to 14) (size 15 to 20)
#    0.000    0.182    9.091    0.000    0.000    1.091 
#    6.545    1.818    0.000    0.000    0.000    0.000 
#    0.000    0.000    0.000    0.000    0.000    0.000 
#
# Total GULP energy -245521.489910 kJ/mol
# GULP energy per Si atom -5580.033862 kJ/mol
# Density = 2.280798 g / cm^3
# Si number density = 22.860008 Si / 1000 Ang^3
#
#
#
# Elastic Constant Matrix: (Units=GPa)
#
#
# Indices 1 2 3 4 5 6 
#
# 1 130.4401 37.4534 30.5056 0.0000 0.0000 -0.5095
# 2 37.4534 130.4401 30.5056 0.0000 0.0000 0.5095
# 3 30.5056 30.5056 92.1785 0.0000 0.0000 0.0000
# 4 0.0000 0.0000 0.0000 37.8949 0.0000 0.0000
# 5 0.0000 0.0000 0.0000 0.0000 37.8949 0.0000
# 6 -0.5095 0.5095 0.0000 0.0000 0.0000 33.1029
#
#
#
# Elastic Compliance Matrix: (Units=1/GPa)
#
#
# Indices 1 2 3 4 5 6 
#
# 1 0.008763 -0.001993 -0.002241 0.000000 0.000000 0.000166
# 2 -0.001993 0.008763 -0.002241 0.000000 0.000000 -0.000166
# 3 -0.002241 -0.002241 0.012332 0.000000 0.000000 0.000000
# 4 0.000000 0.000000 0.000000 0.026389 0.000000 0.000000
# 5 0.000000 0.000000 0.000000 0.000000 0.026389 0.000000
# 6 0.000166 -0.000166 0.000000 0.000000 0.000000 0.030214
#
#
# Mechanical properties :
#
#
# Convention : Reuss Voigt Hill
#
# Bulk Modulus (GPa) = 59.13694 61.10975 60.12335
# Shear Modulus (GPa) = 38.04192 38.75151 38.39671
#
# Velocity S-wave (km/s) = 4.08379 4.12171 4.10279
# Velocity P-wave (km/s) = 6.93987 7.03146 6.98582
#
# Compressibility (1/GPa) = 0.01690990
#
# Stress axis : x y z
#
# Youngs Moduli (GPa) = 114.11353 114.11353 81.09301
#
# Poissons Ratio (x) = 0.22741 0.18170
# Poissons Ratio (y) = 0.22741 0.18170
# Poissons Ratio (z) = 0.25568 0.25568
#
# Static dielectric constant tensor:
#      x y z
#    x 1.960750 0.000000 0.000000 
#    y 0.000000 1.960750 0.000000 
#    z 0.000000 0.000000 1.815530 
# 
# From -- ./inp_files/6414.got.cif
#   From: 2010.05.17/outbox.cif.g08.bks.cpg/sg88_4_cif.got.tgz:6414.got - 2010.06.03 19:11:41.
