data_PCOD9546314
_publ_section_title
;
Structure prediction by ZEFSAII (Michael W. Deem and Ramdas Pophale) SiO2 
 PCOD9546314
Probable space group: I 41/A
;
_chemical_formula_sum "Si O2"
_cell_formula_units_Z 116
_cell_length_a 30.289412
_cell_length_b 30.289412
_cell_length_c 7.598288
_cell_angle_alpha 90.000000
_cell_angle_beta 90.000000
_cell_angle_gamma 90.000000
_cell_volume 6971.037771
_symmetry_space_group_name_H-M "I 41/A"
_symmetry_group_IT_number 88
_space_group.IT_coordinate_system_code '2'
_symmetry_cell_setting 'tetragonal'
loop_
_space_group_symop_operation_xyz
x,y,z
3/4-y,1/4+x,1/4+z
-x,1/2-y,z
1/4+y,1/4-x,1/4+z
-x,-y,-z
1/4+y,3/4-x,3/4-z
x,1/2+y,-z
3/4-y,3/4+x,3/4-z
1/2+x,1/2+y,1/2+z
1/4-y,3/4+x,3/4+z
1/2-x,-y,1/2+z
3/4+y,3/4-x,3/4+z
1/2-x,1/2-y,1/2-z
3/4+y,1/4-x,1/4-z
1/2+x,y,1/2-z
1/4-y,1/4+x,1/4-z
loop_
_atom_site_type_symbol
_atom_site_label
_atom_site_fract_x
_atom_site_fract_y
_atom_site_fract_z
Si Si1 0.613316 0.198699 0.372934
Si Si2 0.000000 0.750000 0.375000
Si Si3 0.082134 0.197211 0.729713
Si Si4 0.365404 0.223920 0.850786
Si Si5 0.715041 0.304325 0.409927
Si Si6 0.446652 0.535543 0.628059
Si Si7 0.952295 0.481087 0.551953
Si Si8 0.544905 0.629102 0.696112
O O1 0.602178 0.190457 0.578436
O O2 0.663800 0.185512 0.342428
O O3 0.578001 0.168929 0.275202
O O4 0.607796 0.251051 0.339231
O O5 0.960136 0.769853 0.261245
O O6 0.061901 0.151332 0.662174
O O7 0.116822 0.226215 0.612925
O O8 0.315505 0.211689 0.901398
O O9 0.364304 0.222018 0.637945
O O10 0.752952 0.318289 0.276298
O O11 0.714995 0.250447 0.395322
O O12 0.724216 0.319379 0.610648
O O13 0.664575 0.316778 0.363880
O O14 0.430632 0.515410 0.813683
O O15 0.000000 0.500000 0.500000
#
# Coordination Sequence:
#
# PCOD9546314 Si02
#       8
#    16   4  16  16  16  16  16  16
#     4  10  20  31  44  66  95 126 164 196 233 284
#     4   8  16  28  40  54  80 128 168 202 224 264
#     4   9  17  29  42  60  89 121 169 200 225 278
#     4   9  18  31  43  65  91 126 163 196 238 279
#     4   8  16  31  47  64  89 117 155 196 240 280
#     4   9  17  31  46  68  87 117 160 194 236 289
#     4   9  16  29  49  65  84 118 158 200 241 283
#     4   9  19  32  43  65  96 126 160 198 232 282
#
# _framework density 16.640276
#
# number of rings (size 3 to 8) (size 9 to 14) (size 15 to 20)
#    0.000    3.034    0.000    2.483    1.931    4.690 
#    9.931    0.000    0.000    0.000    0.000    0.000 
#    0.000    0.000    9.379    0.138    0.000    0.690 
#
# Total GULP energy -322893.583082 kJ/mol
# GULP energy per Si atom -5567.130743 kJ/mol
# Density = 1.660240 g / cm^3
# Si number density = 16.640276 Si / 1000 Ang^3
#
#
#
# Elastic Constant Matrix: (Units=GPa)
#
#
# Indices 1 2 3 4 5 6 
#
# 1 65.4020 31.6150 8.2616 0.0000 0.0000 -3.5662
# 2 31.6150 65.4020 8.2616 0.0000 0.0000 3.5662
# 3 8.2616 8.2616 27.7823 0.0000 0.0000 0.0000
# 4 0.0000 0.0000 0.0000 18.9086 0.0000 0.0000
# 5 0.0000 0.0000 0.0000 0.0000 18.9086 0.0000
# 6 -3.5662 3.5662 0.0000 0.0000 0.0000 0.6875
#
#
#
# Elastic Compliance Matrix: (Units=1/GPa)
#
#
# Indices 1 2 3 4 5 6 
#
# 1 -0.150279 0.161136 -0.003229 0.000000 0.000000 -1.615406
# 2 0.161136 -0.150279 -0.003229 0.000000 0.000000 1.615406
# 3 -0.003229 -0.003229 0.037914 0.000000 0.000000 0.000000
# 4 0.000000 0.000000 0.000000 0.052886 0.000000 0.000000
# 5 0.000000 0.000000 0.000000 0.000000 0.052886 0.000000
# 6 -1.615406 1.615406 0.000000 0.000000 0.000000-15.304646
#
#
# Mechanical properties :
#
#
# Convention : Reuss Voigt Hill
#
# Bulk Modulus (GPa) = 21.40665 28.31808 24.86237
# Shear Modulus (GPa) = -0.31735 15.06416 7.37340
#
# Velocity S-wave (km/s) = -0.43718 3.01206 2.10729
# Velocity P-wave (km/s) = 3.55492 5.39920 4.57104
#
# Compressibility (1/GPa) = 0.04671445
#
# Stress axis : x y z
#
# Youngs Moduli (GPa) = -6.65429 -6.65429 26.37528
#
# Poissons Ratio (x) = 1.07225 0.08516
# Poissons Ratio (y) = 1.07225 0.08516
# Poissons Ratio (z) = -0.02148 -0.02148
#
# Static dielectric constant tensor:
#      x y z
#    x 1.586130 0.000000 0.000000 
#    y 0.000000 1.586130 0.000000 
#    z 0.000000 0.000000 1.634610 
# 
# From -- ./inp_files/1898.got.cif
#   From: 2010.05.17/outbox.cif.g08.bks.cpg/sg88_1_cif.got.tgz:1898.got - 2010.06.03 19:11:41.
