data_PCOD9546138
_publ_section_title
;
Structure prediction by ZEFSAII (Michael W. Deem and Ramdas Pophale) SiO2 
 PCOD9546138
Probable space group: I 4/M
;
_chemical_formula_sum "Si O2"
_cell_formula_units_Z 64
_cell_length_a 13.985801
_cell_length_b 13.985801
_cell_length_c 19.485829
_cell_angle_alpha 90.000000
_cell_angle_beta 90.000000
_cell_angle_gamma 90.000000
_cell_volume 3811.479393
_symmetry_space_group_name_H-M "I 4/M"
_symmetry_group_IT_number 87
_symmetry_cell_setting 'tetragonal'
loop_
_space_group_symop_operation_xyz
x,y,z
-y,x,z
-x,-y,z
y,-x,z
-x,-y,-z
y,-x,-z
x,y,-z
-y,x,-z
1/2+x,1/2+y,1/2+z
1/2-y,1/2+x,1/2+z
1/2-x,1/2-y,1/2+z
1/2+y,1/2-x,1/2+z
1/2-x,1/2-y,1/2-z
1/2+y,1/2-x,1/2-z
1/2+x,1/2+y,1/2-z
1/2-y,1/2+x,1/2-z
loop_
_atom_site_type_symbol
_atom_site_label
_atom_site_fract_x
_atom_site_fract_y
_atom_site_fract_z
Si Si1 0.362866 0.214266 0.682125
Si Si2 0.499015 0.885415 0.420616
Si Si3 0.454679 0.347030 0.785270
Si Si4 0.315978 0.837322 0.667341
O O1 0.413225 0.155929 0.623003
O O2 0.432618 0.297523 0.711819
O O3 0.597299 0.149709 0.616536
O O4 0.342870 0.153069 0.751856
O O5 0.502633 0.855816 0.500000
O O6 0.235754 0.920662 0.337391
O O7 0.500000 0.000000 0.417487
O O8 0.561548 0.385010 0.792304
O O9 0.737448 0.263706 0.660422
#
# Coordination Sequence:
#
# PCOD9546138 Si02
#       4
#    16  16  16  16
#     4   9  20  34  56  84 110 149 190 238 278 341
#     4  11  25  38  55  85 117 153 194 237 293 348
#     4   9  17  30  54  87 114 139 183 238 282 334
#     4   9  21  34  59  85 112 149 193 234 287 333
#
# _framework density 16.791381000000001
#
# number of rings (size 3 to 8) (size 9 to 14) (size 15 to 20)
#    1.500    1.000    0.000    1.500    7.000    1.000 
#    0.000    0.000    0.000    0.000    0.000    7.000 
#    0.000    0.000    0.000    0.000    0.000    0.000 
#
# Total GULP energy -178163.914780 kJ/mol
# GULP energy per Si atom -5567.622337 kJ/mol
# Density = 1.675316 g / cm^3
# Si number density = 16.791381 Si / 1000 Ang^3
#
#
#
# Elastic Constant Matrix: (Units=GPa)
#
#
# Indices 1 2 3 4 5 6 
#
# 1 68.6884 16.6192 63.7759 0.0000 0.0000 -4.1086
# 2 16.6192 68.6884 63.7759 0.0000 0.0000 4.1086
# 3 63.7759 63.7759 122.4263 0.0000 0.0000 0.0000
# 4 0.0000 0.0000 0.0000 13.8182 0.0000 0.0000
# 5 0.0000 0.0000 0.0000 0.0000 13.8182 0.0000
# 6 -4.1086 4.1086 0.0000 0.0000 0.0000 24.6911
#
#
#
# Elastic Compliance Matrix: (Units=1/GPa)
#
#
# Indices 1 2 3 4 5 6 
#
# 1 0.036370 0.016647 -0.027619 0.000000 0.000000 0.003282
# 2 0.016647 0.036370 -0.027619 0.000000 0.000000 -0.003282
# 3 -0.027619 -0.027619 0.036943 0.000000 0.000000 0.000000
# 4 0.000000 0.000000 0.000000 0.072368 0.000000 0.000000
# 5 0.000000 0.000000 0.000000 0.000000 0.072368 0.000000
# 6 0.003282 -0.003282 0.000000 0.000000 0.000000 0.041593
#
#
# Mechanical properties :
#
#
# Convention : Reuss Voigt Hill
#
# Bulk Modulus (GPa) = 30.76569 60.90500 45.83535
# Shear Modulus (GPa) = 13.01992 18.17433 15.59713
#
# Velocity S-wave (km/s) = 2.78761 3.29349 3.05105
# Velocity P-wave (km/s) = 5.35939 7.12833 6.30620
#
# Compressibility (1/GPa) = 0.03250374
#
# Stress axis : x y z
#
# Youngs Moduli (GPa) = 27.49497 27.49497 27.06874
#
# Poissons Ratio (x) = -0.45771 0.74760
# Poissons Ratio (y) = -0.45771 0.74760
# Poissons Ratio (z) = 0.75937 0.75937
#
# Static dielectric constant tensor:
#      x y z
#    x 1.576100 0.000000 0.000000 
#    y 0.000000 1.576100 0.000000 
#    z 0.000000 0.000000 1.546180 
# 
# From -- ./inp_files/4166.got.cif
#   From: 2010.05.17/outbox.cif.g08.bks.cpg/sg87_3_cif.got.tgz:4166.got - 2010.06.03 19:07:00.
