data_PCOD9546941
_publ_section_title
;
Structure prediction by ZEFSAII (Michael W. Deem and Ramdas Pophale) SiO2 
 PCOD9546941
Probable space group: P 4 2 2
;
_chemical_formula_sum "Si O2"
_cell_formula_units_Z 32
_cell_length_a 14.971312
_cell_length_b 14.971312
_cell_length_c 5.950886
_cell_angle_alpha 90.000000
_cell_angle_beta 90.000000
_cell_angle_gamma 90.000000
_cell_volume 1333.832677
_symmetry_space_group_name_H-M "P 4 2 2"
_symmetry_group_IT_number 89
_symmetry_cell_setting 'tetragonal'
loop_
_space_group_symop_operation_xyz
x,y,z
-y,x,z
-x,-y,z
y,-x,z
x,-y,-z
-x,y,-z
y,x,-z
-y,-x,-z
loop_
_atom_site_type_symbol
_atom_site_label
_atom_site_fract_x
_atom_site_fract_y
_atom_site_fract_z
Si Si1 0.105970 0.105970 0.500000
Si Si2 0.000000 0.636657 0.000000
Si Si3 0.863143 0.413623 0.652234
Si Si4 0.727800 0.847428 0.273046
Si Si5 0.329901 0.641203 0.758617
O O1 0.166123 0.144825 0.298502
O O2 0.000000 0.121395 0.500000
O O3 0.920828 0.695667 0.898992
O O4 0.054148 0.582104 0.816795
O O5 0.863976 0.500000 0.500000
O O6 0.872458 0.323985 0.503577
O O7 0.764815 0.409634 0.761409
O O8 0.694048 0.747194 0.230742
O O9 0.369921 0.630080 0.500000
O O10 0.377913 0.622088 0.000000
#
# Coordination Sequence:
#
# PCOD9546941 Si02
#       5
#     4   4   8   8   8
#     4  11  22  38  60  88 128 176 241 312 362 416
#     4  12  24  39  66  91 132 184 248 301 382 451
#     4  11  24  41  63  94 136 183 235 303 371 454
#     4  11  23  41  64  89 130 177 240 298 367 431
#     4  10  20  42  65  91 124 177 233 286 345 425
#
# _framework density 23.991014
#
# number of rings (size 3 to 8) (size 9 to 14) (size 15 to 20)
#    0.000    1.125    6.250    2.250    0.000    4.000 
#    0.000    0.000    0.000    6.000    0.000    0.000 
#    0.000   40.500    0.000   81.000    0.000    3.000 
#
# Total GULP energy -178850.281951 kJ/mol
# GULP energy per Si atom -5589.071311 kJ/mol
# Density = 2.393641 g / cm^3
# Si number density = 23.991014 Si / 1000 Ang^3
#
#
#
# Elastic Constant Matrix: (Units=GPa)
#
#
# Indices 1 2 3 4 5 6 
#
# 1 84.8777 26.3805 42.1876 0.0000 0.0000 0.0000
# 2 26.3805 84.8772 42.1881 0.0000 0.0000 0.0000
# 3 42.1876 42.1881 143.8129 0.0000 0.0000 0.0000
# 4 0.0000 0.0000 0.0000 35.2813 0.0000 0.0000
# 5 0.0000 0.0000 0.0000 0.0000 35.2811 0.0000
# 6 0.0000 0.0000 0.0000 0.0000 0.0000 22.3975
#
#
#
# Elastic Compliance Matrix: (Units=1/GPa)
#
#
# Indices 1 2 3 4 5 6 
#
# 1 0.014327 -0.002768 -0.003391 0.000000 0.000000 0.000000
# 2 -0.002768 0.014327 -0.003391 0.000000 0.000000 0.000000
# 3 -0.003391 -0.003391 0.008943 0.000000 0.000000 0.000000
# 4 0.000000 0.000000 0.000000 0.028344 0.000000 0.000000
# 5 0.000000 0.000000 0.000000 0.000000 0.028344 0.000000
# 6 0.000000 0.000000 0.000000 0.000000 0.000000 0.044648
#
#
# Mechanical properties :
#
#
# Convention : Reuss Voigt Hill
#
# Bulk Modulus (GPa) = 54.05888 59.45336 56.75612
# Shear Modulus (GPa) = 30.45089 32.11274 31.28182
#
# Velocity S-wave (km/s) = 3.56654 3.66256 3.61487
# Velocity P-wave (km/s) = 6.28825 6.53614 6.41340
#
# Compressibility (1/GPa) = 0.01849835
#
# Stress axis : x y z
#
# Youngs Moduli (GPa) = 69.79675 69.79599 111.81854
#
# Poissons Ratio (x) = 0.19316 0.37918
# Poissons Ratio (y) = 0.19316 0.37920
# Poissons Ratio (z) = 0.23669 0.23669
#
# Static dielectric constant tensor:
#      x y z
#    x 1.897790 0.000000 0.000000 
#    y 0.000000 1.897790 0.000000 
#    z 0.000000 0.000000 2.101020 
# 
# From -- ./inp_files/311.got.cif
#   From: 2010.05.17/outbox.cif.g08.bks.cpg/sg89_1_cif.got.tgz:311.got - 2010.06.03 19:15:31.
