data_PCOD9546868
_publ_section_title
;
Structure prediction by ZEFSAII (Michael W. Deem and Ramdas Pophale) SiO2 
 PCOD9546868
Probable space group: I 41/A
;
_chemical_formula_sum "Si O2"
_cell_formula_units_Z 52
_cell_length_a 18.804793
_cell_length_b 18.804793
_cell_length_c 5.671185
_cell_angle_alpha 90.000000
_cell_angle_beta 90.000000
_cell_angle_gamma 90.000000
_cell_volume 2005.445799
_symmetry_space_group_name_H-M "I 41/A"
_symmetry_group_IT_number 88
_space_group.IT_coordinate_system_code '2'
_symmetry_cell_setting 'tetragonal'
loop_
_space_group_symop_operation_xyz
x,y,z
3/4-y,1/4+x,1/4+z
-x,1/2-y,z
1/4+y,1/4-x,1/4+z
-x,-y,-z
1/4+y,3/4-x,3/4-z
x,1/2+y,-z
3/4-y,3/4+x,3/4-z
1/2+x,1/2+y,1/2+z
1/4-y,3/4+x,3/4+z
1/2-x,-y,1/2+z
3/4+y,3/4-x,3/4+z
1/2-x,1/2-y,1/2-z
3/4+y,1/4-x,1/4-z
1/2+x,y,1/2-z
1/4-y,1/4+x,1/4-z
loop_
_atom_site_type_symbol
_atom_site_label
_atom_site_fract_x
_atom_site_fract_y
_atom_site_fract_z
Si Si1 0.678328 0.422483 0.861489
Si Si2 0.770399 0.668651 0.793104
Si Si3 0.000000 0.250000 0.625000
Si Si4 0.910349 0.698911 0.993856
O O1 0.758272 0.421216 0.772610
O O2 0.625782 0.453139 0.646134
O O3 0.684885 0.360191 0.064840
O O4 0.750000 0.750000 0.750000
O O5 0.830762 0.673764 0.995932
O O6 0.055903 0.201857 0.486317
O O7 0.913694 0.783814 0.936875
#
# Coordination Sequence:
#
# PCOD9546868 Si02
#       4
#    16  16   4  16
#     4  12  26  54  82 118 170 222 282 363 442 520
#     4  12  29  52  82 123 165 228 293 358 446 552
#     4   8  18  48  72 106 152 212 246 356 420 502
#     4   9  22  45  72 111 158 201 273 344 428 507
#
# _framework density 25.929397999999999
#
# number of rings (size 3 to 8) (size 9 to 14) (size 15 to 20)
#    0.000    1.538    3.077    0.000    8.615    6.154 
#   11.077    0.000    0.000    0.000    0.000    0.000 
#    0.000    0.000    0.000    0.000    0.000    0.000 
#
# Total GULP energy -144742.990922 kJ/mol
# GULP energy per Si atom -5567.038112 kJ/mol
# Density = 2.587038 g / cm^3
# Si number density = 25.929398 Si / 1000 Ang^3
#
#
#
# Elastic Constant Matrix: (Units=GPa)
#
#
# Indices 1 2 3 4 5 6 
#
# 1 169.5887 47.0095 15.8511 0.0000 0.0000 19.3223
# 2 47.0095 169.5887 15.8511 0.0000 0.0000 -19.3223
# 3 15.8511 15.8511 67.1835 0.0000 0.0000 0.0000
# 4 0.0000 0.0000 0.0000 40.8529 0.0000 0.0000
# 5 0.0000 0.0000 0.0000 0.0000 40.8529 0.0000
# 6 19.3223 -19.3223 0.0000 0.0000 0.0000 166.9335
#
#
#
# Elastic Compliance Matrix: (Units=1/GPa)
#
#
# Indices 1 2 3 4 5 6 
#
# 1 0.006624 -0.001842 -0.001128 0.000000 0.000000 -0.000980
# 2 -0.001842 0.006624 -0.001128 0.000000 0.000000 0.000980
# 3 -0.001128 -0.001128 0.015417 0.000000 0.000000 0.000000
# 4 0.000000 0.000000 0.000000 0.024478 0.000000 0.000000
# 5 0.000000 0.000000 0.000000 0.000000 0.024478 0.000000
# 6 -0.000980 0.000980 0.000000 0.000000 0.000000 0.006217
#
#
# Mechanical properties :
#
#
# Convention : Reuss Voigt Hill
#
# Bulk Modulus (GPa) = 48.85685 62.64271 55.74978
# Shear Modulus (GPa) = 50.57660 71.57115 61.07388
#
# Velocity S-wave (km/s) = 4.42130 5.25949 4.85850
# Velocity P-wave (km/s) = 6.70425 7.81629 7.28153
#
# Compressibility (1/GPa) = 0.02046796
#
# Stress axis : x y z
#
# Youngs Moduli (GPa) = 150.95550 150.95550 64.86347
#
# Poissons Ratio (x) = 0.27813 0.07318
# Poissons Ratio (y) = 0.27813 0.07318
# Poissons Ratio (z) = 0.17032 0.17032
#
# Static dielectric constant tensor:
#      x y z
#    x 2.096470 0.000000 0.000000 
#    y 0.000000 2.096470 0.000000 
#    z 0.000000 0.000000 2.326010 
# 
# From -- ./inp_files/409.got.cif
#   From: 2010.05.17/outbox.cif.g08.bks.cpg/sg88_1_cif.got.tgz:409.got - 2010.06.03 19:11:41.
