data_PCOD9546030
_publ_section_title
;
Structure prediction by ZEFSAII (Michael W. Deem and Ramdas Pophale) SiO2 
 PCOD9546030
Probable space group: I 4/M
;
_chemical_formula_sum "Si O2"
_cell_formula_units_Z 108
_cell_length_a 14.300838
_cell_length_b 14.300838
_cell_length_c 23.785908
_cell_angle_alpha 90.000000
_cell_angle_beta 90.000000
_cell_angle_gamma 90.000000
_cell_volume 4864.550416
_symmetry_space_group_name_H-M "I 4/M"
_symmetry_group_IT_number 87
_symmetry_cell_setting 'tetragonal'
loop_
_space_group_symop_operation_xyz
x,y,z
-y,x,z
-x,-y,z
y,-x,z
-x,-y,-z
y,-x,-z
x,y,-z
-y,x,-z
1/2+x,1/2+y,1/2+z
1/2-y,1/2+x,1/2+z
1/2-x,1/2-y,1/2+z
1/2+y,1/2-x,1/2+z
1/2-x,1/2-y,1/2-z
1/2+y,1/2-x,1/2-z
1/2+x,1/2+y,1/2-z
1/2-y,1/2+x,1/2-z
loop_
_atom_site_type_symbol
_atom_site_label
_atom_site_fract_x
_atom_site_fract_y
_atom_site_fract_z
Si Si1 0.788525 0.999611 0.173270
Si Si2 0.748780 0.852950 0.607046
Si Si3 0.560247 0.355293 0.790619
Si Si4 0.574707 0.863513 0.749846
Si Si5 0.410563 0.628832 0.000000
Si Si6 0.000000 0.000000 0.143328
Si Si7 0.106835 0.492874 0.067313
Si Si8 0.660838 0.172197 0.367272
O O1 0.816727 0.935211 0.227589
O O2 0.727096 0.936831 0.131733
O O3 0.887535 0.030521 0.147821
O O4 0.715953 0.073271 0.201852
O O5 0.786051 0.904936 0.662326
O O6 0.818086 0.877439 0.555556
O O7 0.651366 0.897691 0.589633
O O8 0.757901 0.743688 0.617846
O O9 0.616754 0.451640 0.796992
O O10 0.465658 0.884432 0.765270
O O11 0.629636 0.828991 0.804634
O O12 0.374656 0.522928 0.000000
O O13 0.160086 0.582719 0.091952
O O14 0.000000 0.500000 0.086273
O O15 0.111385 0.494115 0.000000
#
# Coordination Sequence:
#
# PCOD9546030 Si02
#       8
#    16  16  16  16   8   4  16  16
#     4  11  22  40  63  94 134 189 231 285 345 403
#     4  12  24  41  68  98 135 179 230 290 345 426
#     4  11  20  37  61  95 141 183 222 273 343 414
#     4   9  20  40  64  97 142 187 233 283 343 421
#     4  11  22  38  65 100 136 175 215 272 358 430
#     4  12  24  44  64  88 141 177 228 300 340 408
#     4  11  26  47  69  95 134 183 228 293 366 420
#     4  11  26  41  68 106 134 186 234 290 345 433
#
# _framework density 22.201435
#
# number of rings (size 3 to 8) (size 9 to 14) (size 15 to 20)
#    0.000    1.111    2.222    4.444    5.185    2.963 
#    2.667    0.000    0.000    0.000    0.000    0.519 
#    0.000    0.000    0.000    0.000    0.000    0.000 
#
# Total GULP energy -301828.862201 kJ/mol
# GULP energy per Si atom -5589.423374 kJ/mol
# Density = 2.215090 g / cm^3
# Si number density = 22.201435 Si / 1000 Ang^3
#
#
#
# Elastic Constant Matrix: (Units=GPa)
#
#
# Indices 1 2 3 4 5 6 
#
# 1 87.7827 52.8742 9.1535 0.0000 0.0000 -5.3481
# 2 52.8742 87.7827 9.1535 0.0000 0.0000 5.3481
# 3 9.1535 9.1535 37.9245 0.0000 0.0000 0.0000
# 4 0.0000 0.0000 0.0000 22.7240 0.0000 0.0000
# 5 0.0000 0.0000 0.0000 0.0000 22.7240 0.0000
# 6 -5.3481 5.3481 0.0000 0.0000 0.0000 39.4659
#
#
#
# Elastic Compliance Matrix: (Units=1/GPa)
#
#
# Indices 1 2 3 4 5 6 
#
# 1 0.018614 -0.011274 -0.001772 0.000000 0.000000 0.004050
# 2 -0.011274 0.018614 -0.001772 0.000000 0.000000 -0.004050
# 3 -0.001772 -0.001772 0.027223 0.000000 0.000000 0.000000
# 4 0.000000 0.000000 0.000000 0.044006 0.000000 0.000000
# 5 0.000000 0.000000 0.000000 0.000000 0.044006 0.000000
# 6 0.004050 -0.004050 0.000000 0.000000 0.000000 0.026436
#
#
# Mechanical properties :
#
#
# Convention : Reuss Voigt Hill
#
# Bulk Modulus (GPa) = 28.72151 39.53915 34.13033
# Shear Modulus (GPa) = 22.71295 26.47004 24.59149
#
# Velocity S-wave (km/s) = 3.20197 3.45667 3.33175
# Velocity P-wave (km/s) = 5.16091 5.81200 5.49611
#
# Compressibility (1/GPa) = 0.03481711
#
# Stress axis : x y z
#
# Youngs Moduli (GPa) = 53.72387 53.72387 36.73313
#
# Poissons Ratio (x) = 0.60566 0.06508
# Poissons Ratio (y) = 0.60566 0.06508
# Poissons Ratio (z) = 0.09518 0.09518
#
# Static dielectric constant tensor:
#      x y z
#    x 1.852300 0.000000 0.000000 
#    y 0.000000 1.852300 0.000000 
#    z 0.000000 0.000000 1.798400 
# 
# From -- ./inp_files/5957.got.cif
#   From: 2010.05.17/outbox.cif.g08.bks.cpg/sg87_3_cif.got.tgz:5957.got - 2010.06.03 19:07:00.
