data_PCOD9546736
_publ_section_title
;
Structure prediction by ZEFSAII (Michael W. Deem and Ramdas Pophale) SiO2 
 PCOD9546736
Probable space group: I 41/A
;
_chemical_formula_sum "Si O2"
_cell_formula_units_Z 80
_cell_length_a 23.237962
_cell_length_b 23.237962
_cell_length_c 5.405501
_cell_angle_alpha 90.000000
_cell_angle_beta 90.000000
_cell_angle_gamma 90.000000
_cell_volume 2918.986097
_symmetry_space_group_name_H-M "I 41/A"
_symmetry_group_IT_number 88
_space_group.IT_coordinate_system_code '2'
_symmetry_cell_setting 'tetragonal'
loop_
_space_group_symop_operation_xyz
x,y,z
3/4-y,1/4+x,1/4+z
-x,1/2-y,z
1/4+y,1/4-x,1/4+z
-x,-y,-z
1/4+y,3/4-x,3/4-z
x,1/2+y,-z
3/4-y,3/4+x,3/4-z
1/2+x,1/2+y,1/2+z
1/4-y,3/4+x,3/4+z
1/2-x,-y,1/2+z
3/4+y,3/4-x,3/4+z
1/2-x,1/2-y,1/2-z
3/4+y,1/4-x,1/4-z
1/2+x,y,1/2-z
1/4-y,1/4+x,1/4-z
loop_
_atom_site_type_symbol
_atom_site_label
_atom_site_fract_x
_atom_site_fract_y
_atom_site_fract_z
Si Si1 0.670892 0.515480 0.022573
Si Si2 0.058674 0.917043 0.258855
Si Si3 0.366901 0.591427 0.741802
Si Si4 0.435937 0.451677 0.256162
Si Si5 0.496689 0.844493 0.577510
O O1 0.689717 0.471302 0.809970
O O2 0.609926 0.543574 0.965387
O O3 0.664814 0.469914 0.243119
O O4 0.094120 0.907196 0.510060
O O5 0.009720 0.870489 0.194241
O O6 0.038602 0.983906 0.238203
O O7 0.097439 0.908845 0.011630
O O8 0.320996 0.643207 0.723891
O O9 0.481518 0.400243 0.254673
O O10 0.550590 0.806607 0.668503
#
# Coordination Sequence:
#
# PCOD9546736 Si02
#       5
#    16  16  16  16  16
#     4  11  22  38  69 114 159 201 240 298 383 464
#     4  11  25  48  77 116 150 197 252 317 381 451
#     4  11  23  45  75 113 157 194 247 303 381 459
#     4  11  22  44  78 114 154 199 252 316 381 458
#     4  11  25  51  80 106 148 201 264 321 380 441
#
# _framework density 27.406777000000002
#
# number of rings (size 3 to 8) (size 9 to 14) (size 15 to 20)
#    0.000    1.000    2.000    5.400    0.000    1.600 
#    3.600    5.000    0.000    0.000    0.000    0.000 
#    0.000    0.000    0.000    0.000    0.000    0.000 
#
# Total GULP energy -223921.959565 kJ/mol
# GULP energy per Si atom -5598.048989 kJ/mol
# Density = 2.734440 g / cm^3
# Si number density = 27.406777 Si / 1000 Ang^3
#
#
#
# Elastic Constant Matrix: (Units=GPa)
#
#
# Indices 1 2 3 4 5 6 
#
# 1 156.8982 56.4880 41.5646 0.0000 0.0000 -0.5874
# 2 56.4880 156.8982 41.5646 0.0000 0.0000 0.5874
# 3 41.5646 41.5646 145.6347 0.0000 0.0000 0.0000
# 4 0.0000 0.0000 0.0000 45.6059 0.0000 0.0000
# 5 0.0000 0.0000 0.0000 0.0000 45.6059 0.0000
# 6 -0.5874 0.5874 0.0000 0.0000 0.0000 27.3231
#
#
#
# Elastic Compliance Matrix: (Units=1/GPa)
#
#
# Indices 1 2 3 4 5 6 
#
# 1 0.007617 -0.002345 -0.001505 0.000000 0.000000 0.000214
# 2 -0.002345 0.007617 -0.001505 0.000000 0.000000 -0.000214
# 3 -0.001505 -0.001505 0.007725 0.000000 0.000000 0.000000
# 4 0.000000 0.000000 0.000000 0.021927 0.000000 0.000000
# 5 0.000000 0.000000 0.000000 0.000000 0.021927 0.000000
# 6 0.000214 -0.000214 0.000000 0.000000 0.000000 0.036608
#
#
# Mechanical properties :
#
#
# Convention : Reuss Voigt Hill
#
# Bulk Modulus (GPa) = 81.62363 82.07396 81.84880
# Shear Modulus (GPa) = 42.29617 45.02791 43.66204
#
# Velocity S-wave (km/s) = 3.93271 4.05773 3.99571
# Velocity P-wave (km/s) = 7.10413 7.20868 7.15660
#
# Compressibility (1/GPa) = 0.01225135
#
# Stress axis : x y z
#
# Youngs Moduli (GPa) = 131.28340 131.28340 129.44230
#
# Poissons Ratio (x) = 0.30780 0.19479
# Poissons Ratio (y) = 0.30780 0.19479
# Poissons Ratio (z) = 0.19756 0.19756
#
# Static dielectric constant tensor:
#      x y z
#    x 2.209930 0.000000 0.000000 
#    y 0.000000 2.209930 0.000000 
#    z 0.000000 0.000000 2.154240 
# 
# From -- ./inp_files/683.got.cif
#   From: 2010.05.17/outbox.cif.g08.bks.cpg/sg88_1_cif.got.tgz:683.got - 2010.06.03 19:11:41.
