data_PCOD9546329
_publ_section_title
;
Structure prediction by ZEFSAII (Michael W. Deem and Ramdas Pophale) SiO2 
 PCOD9546329
Probable space group: I 41/A
;
_chemical_formula_sum "Si O2"
_cell_formula_units_Z 64
_cell_length_a 14.040890
_cell_length_b 14.040890
_cell_length_c 12.314312
_cell_angle_alpha 90.000000
_cell_angle_beta 90.000000
_cell_angle_gamma 90.000000
_cell_volume 2427.724644
_symmetry_space_group_name_H-M "I 41/A"
_symmetry_group_IT_number 88
_space_group.IT_coordinate_system_code '2'
_symmetry_cell_setting 'tetragonal'
loop_
_space_group_symop_operation_xyz
x,y,z
3/4-y,1/4+x,1/4+z
-x,1/2-y,z
1/4+y,1/4-x,1/4+z
-x,-y,-z
1/4+y,3/4-x,3/4-z
x,1/2+y,-z
3/4-y,3/4+x,3/4-z
1/2+x,1/2+y,1/2+z
1/4-y,3/4+x,3/4+z
1/2-x,-y,1/2+z
3/4+y,3/4-x,3/4+z
1/2-x,1/2-y,1/2-z
3/4+y,1/4-x,1/4-z
1/2+x,y,1/2-z
1/4-y,1/4+x,1/4-z
loop_
_atom_site_type_symbol
_atom_site_label
_atom_site_fract_x
_atom_site_fract_y
_atom_site_fract_z
Si Si1 0.804341 0.780811 0.529285
Si Si2 0.623853 0.533363 0.935700
Si Si3 0.775149 0.888182 0.077411
Si Si4 0.450693 0.878194 0.578060
O O1 0.758578 0.826646 0.420825
O O2 0.800172 0.670602 0.498430
O O3 0.734778 0.793566 0.630551
O O4 0.889347 0.852811 0.554747
O O5 0.735009 0.496244 0.923346
O O6 0.597081 0.490754 0.052606
O O7 0.877745 0.872342 0.022097
O O8 0.559477 0.841560 0.575974
#
# Coordination Sequence:
#
# PCOD9546329 Si02
#       4
#    16  16  16  16
#     4  10  20  35  55  78 108 143 179 225 273 321
#     4  10  21  36  53  78 106 142 185 216 262 334
#     4  10  20  35  55  78 108 143 179 225 273 321
#     4   9  18  32  52  80 108 136 178 231 284 330
#
# _framework density 26.362131999999999
#
# number of rings (size 3 to 8) (size 9 to 14) (size 15 to 20)
#    0.000    2.250    0.000    3.750    0.000    2.000 
#    0.000    6.250    0.000   24.000    0.000    0.000 
#    0.000    0.000    0.000    0.000    0.000    0.000 
#
# Total GULP energy -178634.363982 kJ/mol
# GULP energy per Si atom -5582.323874 kJ/mol
# Density = 2.630213 g / cm^3
# Si number density = 26.362132 Si / 1000 Ang^3
#
#
#
# Elastic Constant Matrix: (Units=GPa)
#
#
# Indices 1 2 3 4 5 6 
#
# 1 67.0313 -5.2397 -1.3073 0.0000 0.0000 -11.2416
# 2 -5.2397 67.0313 -1.3073 0.0000 0.0000 11.2416
# 3 -1.3073 -1.3073 134.3165 0.0000 0.0000 0.0000
# 4 0.0000 0.0000 0.0000 29.7299 0.0000 0.0000
# 5 0.0000 0.0000 0.0000 0.0000 29.7299 0.0000
# 6 -11.2416 11.2416 0.0000 0.0000 0.0000 22.2775
#
#
#
# Elastic Compliance Matrix: (Units=1/GPa)
#
#
# Indices 1 2 3 4 5 6 
#
# 1 0.016302 -0.000112 0.000158 0.000000 0.000000 0.008283
# 2 -0.000112 0.016302 0.000158 0.000000 0.000000 -0.008283
# 3 0.000158 0.000158 0.007448 0.000000 0.000000 0.000000
# 4 0.000000 0.000000 0.000000 0.033636 0.000000 0.000000
# 5 0.000000 0.000000 0.000000 0.000000 0.033636 0.000000
# 6 0.008283 -0.008283 0.000000 0.000000 0.000000 0.053247
#
#
# Mechanical properties :
#
#
# Convention : Reuss Voigt Hill
#
# Bulk Modulus (GPa) = 24.71658 28.07451 26.39555
# Shear Modulus (GPa) = 28.79341 34.76300 31.77820
#
# Velocity S-wave (km/s) = 3.30847 3.63529 3.47572
# Velocity P-wave (km/s) = 4.89804 5.31913 5.11292
#
# Compressibility (1/GPa) = 0.04045866
#
# Stress axis : x y z
#
# Youngs Moduli (GPa) = 61.34297 61.34297 134.26122
#
# Poissons Ratio (x) = 0.00685 -0.02116
# Poissons Ratio (y) = 0.00685 -0.02116
# Poissons Ratio (z) = -0.00967 -0.00967
#
# Static dielectric constant tensor:
#      x y z
#    x 2.152810 0.000000 0.000000 
#    y 0.000000 2.152810 0.000000 
#    z 0.000000 0.000000 2.034430 
# 
# From -- ./inp_files/2350.got.cif
#   From: 2010.05.17/outbox.cif.g08.bks.cpg/sg88_2_cif.got.tgz:2350.got - 2010.06.03 19:11:41.
