data_PCOD9546194
_publ_section_title
;
Structure prediction by ZEFSAII (Michael W. Deem and Ramdas Pophale) SiO2 
 PCOD9546194
Probable space group: I 41/A
;
_chemical_formula_sum "Si O2"
_cell_formula_units_Z 120
_cell_length_a 24.460839
_cell_length_b 24.460839
_cell_length_c 7.710340
_cell_angle_alpha 90.000000
_cell_angle_beta 90.000000
_cell_angle_gamma 90.000000
_cell_volume 4613.348123
_symmetry_space_group_name_H-M "I 41/A"
_symmetry_group_IT_number 88
_space_group.IT_coordinate_system_code '2'
_symmetry_cell_setting 'tetragonal'
loop_
_space_group_symop_operation_xyz
x,y,z
3/4-y,1/4+x,1/4+z
-x,1/2-y,z
1/4+y,1/4-x,1/4+z
-x,-y,-z
1/4+y,3/4-x,3/4-z
x,1/2+y,-z
3/4-y,3/4+x,3/4-z
1/2+x,1/2+y,1/2+z
1/4-y,3/4+x,3/4+z
1/2-x,-y,1/2+z
3/4+y,3/4-x,3/4+z
1/2-x,1/2-y,1/2-z
3/4+y,1/4-x,1/4-z
1/2+x,y,1/2-z
1/4-y,1/4+x,1/4-z
loop_
_atom_site_type_symbol
_atom_site_label
_atom_site_fract_x
_atom_site_fract_y
_atom_site_fract_z
Si Si1 0.147094 0.352765 0.235817
Si Si2 0.646066 0.132834 0.018141
Si Si3 0.703073 0.950738 0.606153
Si Si4 0.124872 0.527964 0.317762
Si Si5 0.621118 0.735409 0.802378
Si Si6 0.106983 0.769652 0.299553
Si Si7 0.500000 0.250000 0.596464
Si Si8 0.680244 0.686819 0.331377
O O1 0.175524 0.391253 0.092386
O O2 0.185440 0.361727 0.402193
O O3 0.143399 0.288373 0.199019
O O4 0.091781 0.383546 0.297934
O O5 0.643931 0.067820 0.971155
O O6 0.653594 0.177475 0.177557
O O7 0.583177 0.147774 0.978663
O O8 0.680310 0.156400 0.855563
O O9 0.696383 0.986438 0.433916
O O10 0.671038 0.984522 0.757476
O O11 0.072535 0.490302 0.349637
O O12 0.556745 0.732923 0.752647
O O13 0.618024 0.757149 0.000653
O O14 0.053278 0.740999 0.219030
O O15 0.159215 0.747074 0.198299
#
# Coordination Sequence:
#
# PCOD9546194 Si02
#       8
#    16  16  16  16  16  16   8  16
#     4   9  15  27  38  59  82 114 150 192 237 272
#     4   9  17  23  30  50  73 109 149 183 225 279
#     4   9  18  31  52  71  93 123 160 205 244 293
#     4   9  16  27  37  54  86 114 154 193 228 283
#     4  10  14  22  34  48  78 112 149 191 222 276
#     4  10  14  20  30  47  70 105 154 186 217 270
#     4  10  15  18  32  48  72 110 162 195 203 266
#     4   9  15  22  34  45  69 107 146 187 225 268
#
# _framework density 26.011475999999998
#
# number of rings (size 3 to 8) (size 9 to 14) (size 15 to 20)
#    0.000    2.667    4.000    2.800    0.000    0.533 
#    0.000    0.000    0.000    0.000    0.000    0.933 
#    0.000    0.000    0.000    0.000    0.000    8.400 
#
# Total GULP energy -335076.014564 kJ/mol
# GULP energy per Si atom -5584.600243 kJ/mol
# Density = 2.595227 g / cm^3
# Si number density = 26.011476 Si / 1000 Ang^3
#
#
#
# Elastic Constant Matrix: (Units=GPa)
#
#
# Indices 1 2 3 4 5 6 
#
# 1 80.7501 -9.3294 16.3768 0.0000 0.0000 -17.2759
# 2 -9.3294 80.7501 16.3768 0.0000 0.0000 17.2759
# 3 16.3768 16.3768 55.2540 0.0000 0.0000 0.0000
# 4 0.0000 0.0000 0.0000 12.1492 0.0000 0.0000
# 5 0.0000 0.0000 0.0000 0.0000 12.1492 0.0000
# 6 -17.2759 17.2759 0.0000 0.0000 0.0000 19.4784
#
#
#
# Elastic Compliance Matrix: (Units=1/GPa)
#
#
# Indices 1 2 3 4 5 6 
#
# 1 0.016515 -0.000311 -0.004803 0.000000 0.000000 0.014923
# 2 -0.000311 0.016515 -0.004803 0.000000 0.000000 -0.014923
# 3 -0.004803 -0.004803 0.020945 0.000000 0.000000 0.000000
# 4 0.000000 0.000000 0.000000 0.082310 0.000000 0.000000
# 5 0.000000 0.000000 0.000000 0.000000 0.082310 0.000000
# 6 0.014923 -0.014923 0.000000 0.000000 0.000000 0.077810
#
#
# Mechanical properties :
#
#
# Convention : Reuss Voigt Hill
#
# Bulk Modulus (GPa) = 29.28909 29.28917 29.28913
# Shear Modulus (GPa) = 15.26172 21.64403 18.45288
#
# Velocity S-wave (km/s) = 2.42488 2.88774 2.66637
# Velocity P-wave (km/s) = 4.37316 4.73321 4.55674
#
# Compressibility (1/GPa) = 0.03414241
#
# Stress axis : x y z
#
# Youngs Moduli (GPa) = 60.55227 60.55227 47.74363
#
# Poissons Ratio (x) = 0.01881 0.22930
# Poissons Ratio (y) = 0.01881 0.22930
# Poissons Ratio (z) = 0.29082 0.29082
#
# Static dielectric constant tensor:
#      x y z
#    x 2.075890 0.000000 0.000000 
#    y 0.000000 2.075890 0.000000 
#    z 0.000000 0.000000 2.117210 
# 
# From -- ./inp_files/2776.got.cif
#   From: 2010.05.17/outbox.cif.g08.bks.cpg/sg88_2_cif.got.tgz:2776.got - 2010.06.03 19:11:41.
