data_PCOD9546410
_publ_section_title
;
Structure prediction by ZEFSAII (Michael W. Deem and Ramdas Pophale) SiO2 
 PCOD9546410
Probable space group: I 41/A
;
_chemical_formula_sum "Si O2"
_cell_formula_units_Z 88
_cell_length_a 11.212982
_cell_length_b 11.212982
_cell_length_c 29.150740
_cell_angle_alpha 90.000000
_cell_angle_beta 90.000000
_cell_angle_gamma 90.000000
_cell_volume 3665.150680
_symmetry_space_group_name_H-M "I 41/A"
_symmetry_group_IT_number 88
_space_group.IT_coordinate_system_code '2'
_symmetry_cell_setting 'tetragonal'
loop_
_space_group_symop_operation_xyz
x,y,z
3/4-y,1/4+x,1/4+z
-x,1/2-y,z
1/4+y,1/4-x,1/4+z
-x,-y,-z
1/4+y,3/4-x,3/4-z
x,1/2+y,-z
3/4-y,3/4+x,3/4-z
1/2+x,1/2+y,1/2+z
1/4-y,3/4+x,3/4+z
1/2-x,-y,1/2+z
3/4+y,3/4-x,3/4+z
1/2-x,1/2-y,1/2-z
3/4+y,1/4-x,1/4-z
1/2+x,y,1/2-z
1/4-y,1/4+x,1/4-z
loop_
_atom_site_type_symbol
_atom_site_label
_atom_site_fract_x
_atom_site_fract_y
_atom_site_fract_z
Si Si1 0.746470 0.318583 0.124004
Si Si2 0.000000 0.750000 0.077500
Si Si3 0.360409 0.288755 0.283819
Si Si4 0.488225 0.524152 0.192228
Si Si5 0.696946 0.168637 0.039677
Si Si6 0.337923 0.020820 0.897243
O O1 0.616302 0.283040 0.143477
O O2 0.832446 0.259873 0.162467
O O3 0.742754 0.276303 0.071686
O O4 0.764734 0.459788 0.126506
O O5 0.870995 0.726631 0.053191
O O6 0.500000 0.250000 0.275920
O O7 0.250000 0.250000 0.250000
O O8 0.346477 0.431190 0.281986
O O9 0.450603 0.590063 0.238686
O O10 0.621367 0.562203 0.180973
O O11 0.416759 0.553778 0.146118
O O12 0.613374 0.087754 0.071715
#
# Coordination Sequence:
#
# PCOD9546410 Si02
#       6
#    16   8  16  16  16  16
#     4  10  23  42  67 103 139 185 237 294 360 431
#     4  10  20  44  70  94 143 193 226 300 358 440
#     4  11  27  39  65 100 145 191 237 295 373 440
#     4  11  24  45  72 100 145 183 242 288 369 420
#     4  11  25  40  72 100 141 180 243 291 360 437
#     4  10  25  45  69 105 140 187 230 299 352 425
#
# _framework density 24.009927999999999
#
# number of rings (size 3 to 8) (size 9 to 14) (size 15 to 20)
#    0.000    1.455    1.818    1.091   17.818    0.364 
#    0.000    2.727    0.000    0.000    0.000    0.000 
#    0.000    0.000    0.000    0.000    0.000    0.000 
#
# Total GULP energy -245562.158268 kJ/mol
# GULP energy per Si atom -5580.958142 kJ/mol
# Density = 2.395528 g / cm^3
# Si number density = 24.009928 Si / 1000 Ang^3
#
#
#
# Elastic Constant Matrix: (Units=GPa)
#
#
# Indices 1 2 3 4 5 6 
#
# 1 69.1132 -8.8571 17.4356 0.0000 0.0000 0.5240
# 2 -8.8571 69.1132 17.4356 0.0000 0.0000 -0.5240
# 3 17.4356 17.4356 133.2968 0.0000 0.0000 0.0000
# 4 0.0000 0.0000 0.0000 16.6481 0.0000 0.0000
# 5 0.0000 0.0000 0.0000 0.0000 16.6481 0.0000
# 6 0.5240 -0.5240 0.0000 0.0000 0.0000 15.8751
#
#
#
# Elastic Compliance Matrix: (Units=1/GPa)
#
#
# Indices 1 2 3 4 5 6 
#
# 1 0.015393 0.002562 -0.002349 0.000000 0.000000 -0.000424
# 2 0.002562 0.015393 -0.002349 0.000000 0.000000 0.000424
# 3 -0.002349 -0.002349 0.008116 0.000000 0.000000 0.000000
# 4 0.000000 0.000000 0.000000 0.060067 0.000000 0.000000
# 5 0.000000 0.000000 0.000000 0.000000 0.060067 0.000000
# 6 -0.000424 0.000424 0.000000 0.000000 0.000000 0.063020
#
#
# Mechanical properties :
#
#
# Convention : Reuss Voigt Hill
#
# Bulk Modulus (GPa) = 28.87493 35.95019 32.41256
# Shear Modulus (GPa) = 21.01988 26.20156 23.61072
#
# Velocity S-wave (km/s) = 2.96204 3.30704 3.13928
# Velocity P-wave (km/s) = 4.87346 5.43944 5.16421
#
# Compressibility (1/GPa) = 0.03463212
#
# Stress axis : x y z
#
# Youngs Moduli (GPa) = 64.96449 64.96449 123.20653
#
# Poissons Ratio (x) = -0.16643 0.28936
# Poissons Ratio (y) = -0.16643 0.28936
# Poissons Ratio (z) = 0.15257 0.15257
#
# Static dielectric constant tensor:
#      x y z
#    x 2.131120 0.000000 0.000000 
#    y 0.000000 2.131120 0.000000 
#    z 0.000000 0.000000 2.041190 
# 
# From -- ./inp_files/6429.got.cif
#   From: 2010.05.17/outbox.cif.g08.bks.cpg/sg88_4_cif.got.tgz:6429.got - 2010.06.03 19:11:41.
