data_PCOD9546130
_publ_section_title
;
Structure prediction by ZEFSAII (Michael W. Deem and Ramdas Pophale) SiO2 
 PCOD9546130
Probable space group: I 4/M
;
_chemical_formula_sum "Si O2"
_cell_formula_units_Z 64
_cell_length_a 12.410940
_cell_length_b 12.410940
_cell_length_c 18.388745
_cell_angle_alpha 90.000000
_cell_angle_beta 90.000000
_cell_angle_gamma 90.000000
_cell_volume 2832.444719
_symmetry_space_group_name_H-M "I 4/M"
_symmetry_group_IT_number 87
_symmetry_cell_setting 'tetragonal'
loop_
_space_group_symop_operation_xyz
x,y,z
-y,x,z
-x,-y,z
y,-x,z
-x,-y,-z
y,-x,-z
x,y,-z
-y,x,-z
1/2+x,1/2+y,1/2+z
1/2-y,1/2+x,1/2+z
1/2-x,1/2-y,1/2+z
1/2+y,1/2-x,1/2+z
1/2-x,1/2-y,1/2-z
1/2+y,1/2-x,1/2-z
1/2+x,1/2+y,1/2-z
1/2-y,1/2+x,1/2-z
loop_
_atom_site_type_symbol
_atom_site_label
_atom_site_fract_x
_atom_site_fract_y
_atom_site_fract_z
Si Si1 0.441895 0.667310 0.209923
Si Si2 0.098361 0.274466 0.915849
Si Si3 0.371736 0.776833 0.654115
Si Si4 0.000841 0.697102 0.415648
O O1 0.368662 0.564066 0.226418
O O2 0.400424 0.763251 0.261039
O O3 0.446879 0.701091 0.125855
O O4 0.191545 0.218583 0.869282
O O5 0.109406 0.404006 0.912279
O O6 0.980958 0.244393 0.887639
O O7 0.113333 0.243489 0.000000
O O8 0.337216 0.895099 0.628475
O O9 0.974328 0.716915 0.500000
#
# Coordination Sequence:
#
# PCOD9546130 Si02
#       4
#    16  16  16  16
#     4  11  25  45  70 105 144 188 241 303 360 432
#     4  11  24  43  70 103 142 186 237 299 363 436
#     4  12  24  44  71 105 145 187 239 300 364 436
#     4  11  26  46  71 103 143 193 245 297 361 433
#
# _framework density 22.595320999999998
#
# number of rings (size 3 to 8) (size 9 to 14) (size 15 to 20)
#    0.000    0.750    2.500    4.500    3.500    7.500 
#    0.000    2.500    0.000    0.000    0.000    0.000 
#    0.000    0.000    0.000    0.000    0.000    0.000 
#
# Total GULP energy -179081.890795 kJ/mol
# GULP energy per Si atom -5596.309087 kJ/mol
# Density = 2.254389 g / cm^3
# Si number density = 22.595321 Si / 1000 Ang^3
#
#
#
# Elastic Constant Matrix: (Units=GPa)
#
#
# Indices 1 2 3 4 5 6 
#
# 1 100.7065 35.3127 40.6560 0.0000 0.0000 2.7602
# 2 35.3127 100.7065 40.6560 0.0000 0.0000 -2.7602
# 3 40.6560 40.6560 128.2430 0.0000 0.0000 0.0000
# 4 0.0000 0.0000 0.0000 30.5325 0.0000 0.0000
# 5 0.0000 0.0000 0.0000 0.0000 30.5325 0.0000
# 6 2.7602 -2.7602 0.0000 0.0000 0.0000 26.5163
#
#
#
# Elastic Compliance Matrix: (Units=1/GPa)
#
#
# Indices 1 2 3 4 5 6 
#
# 1 0.012249 -0.003178 -0.002876 0.000000 0.000000 -0.001606
# 2 -0.003178 0.012249 -0.002876 0.000000 0.000000 0.001606
# 3 -0.002876 -0.002876 0.009621 0.000000 0.000000 0.000000
# 4 0.000000 0.000000 0.000000 0.032752 0.000000 0.000000
# 5 0.000000 0.000000 0.000000 0.000000 0.032752 0.000000
# 6 -0.001606 0.001606 0.000000 0.000000 0.000000 0.038047
#
#
# Mechanical properties :
#
#
# Convention : Reuss Voigt Hill
#
# Bulk Modulus (GPa) = 61.49998 62.54504 62.02251
# Shear Modulus (GPa) = 31.06553 31.71833 31.39193
#
# Velocity S-wave (km/s) = 3.71194 3.75074 3.73139
# Velocity P-wave (km/s) = 6.75636 6.81894 6.78773
#
# Compressibility (1/GPa) = 0.01626017
#
# Stress axis : x y z
#
# Youngs Moduli (GPa) = 81.63757 81.63757 103.93890
#
# Poissons Ratio (x) = 0.25947 0.29890
# Poissons Ratio (y) = 0.25947 0.29890
# Poissons Ratio (z) = 0.23477 0.23477
#
# Static dielectric constant tensor:
#      x y z
#    x 1.827730 0.000000 0.000000 
#    y 0.000000 1.827730 0.000000 
#    z 0.000000 0.000000 1.825890 
# 
# From -- ./inp_files/4974.got.cif
#   From: 2010.05.17/outbox.cif.g08.bks.cpg/sg87_3_cif.got.tgz:4974.got - 2010.06.03 19:07:00.
