data_PCOD9546561
_publ_section_title
;
Structure prediction by ZEFSAII (Michael W. Deem and Ramdas Pophale) SiO2 
 PCOD9546561
Probable space group: I 41/A
;
_chemical_formula_sum "Si O2"
_cell_formula_units_Z 112
_cell_length_a 28.378612
_cell_length_b 28.378612
_cell_length_c 5.060447
_cell_angle_alpha 90.000000
_cell_angle_beta 90.000000
_cell_angle_gamma 90.000000
_cell_volume 4075.408822
_symmetry_space_group_name_H-M "I 41/A"
_symmetry_group_IT_number 88
_space_group.IT_coordinate_system_code '2'
_symmetry_cell_setting 'tetragonal'
loop_
_space_group_symop_operation_xyz
x,y,z
3/4-y,1/4+x,1/4+z
-x,1/2-y,z
1/4+y,1/4-x,1/4+z
-x,-y,-z
1/4+y,3/4-x,3/4-z
x,1/2+y,-z
3/4-y,3/4+x,3/4-z
1/2+x,1/2+y,1/2+z
1/4-y,3/4+x,3/4+z
1/2-x,-y,1/2+z
3/4+y,3/4-x,3/4+z
1/2-x,1/2-y,1/2-z
3/4+y,1/4-x,1/4-z
1/2+x,y,1/2-z
1/4-y,1/4+x,1/4-z
loop_
_atom_site_type_symbol
_atom_site_label
_atom_site_fract_x
_atom_site_fract_y
_atom_site_fract_z
Si Si1 0.496349 0.677648 0.058793
Si Si2 0.306396 0.541281 0.288043
Si Si3 0.015773 0.916008 0.138344
Si Si4 0.098643 0.938264 0.408112
Si Si5 0.106451 0.667726 0.952174
Si Si6 0.117587 0.528635 0.266864
Si Si7 0.932354 0.929922 0.774295
O O1 0.460240 0.708632 0.236373
O O2 0.507165 0.627022 0.192042
O O3 0.463905 0.670589 0.804483
O O4 0.264095 0.552575 0.485258
O O5 0.360978 0.554992 0.313836
O O6 0.292855 0.577952 0.053357
O O7 0.044366 0.950550 0.330479
O O8 0.983859 0.936197 0.905691
O O9 0.061212 0.892292 0.006411
O O10 0.099417 0.886920 0.544905
O O11 0.112852 0.975566 0.633250
O O12 0.077800 0.625187 0.828782
O O13 0.100162 0.541095 0.977597
O O14 0.083825 0.556108 0.480909
#
# Coordination Sequence:
#
# PCOD9546561 Si02
#       7
#    16  16  16  16  16  16  16
#     4  10  22  40  64  99 141 183 245 306 373 437
#     4  10  22  45  74 113 149 191 245 311 388 456
#     4  11  26  41  72 103 144 201 248 304 372 445
#     4  10  24  48  69 105 146 197 245 305 368 448
#     4  11  24  42  70  99 146 195 242 309 366 441
#     4  11  27  48  75 108 147 195 247 305 372 447
#     4  12  27  48  75 106 150 196 250 309 370 445
#
# _framework density 27.481905000000001
#
# number of rings (size 3 to 8) (size 9 to 14) (size 15 to 20)
#    0.000    1.286    2.857    0.857   10.000    3.429 
#    2.571    1.429    0.000    0.000    0.000    0.000 
#    0.000    0.000    0.000    0.000    0.000    0.000 
#
# Total GULP energy -313676.463194 kJ/mol
# GULP energy per Si atom -5601.365414 kJ/mol
# Density = 2.741936 g / cm^3
# Si number density = 27.481905 Si / 1000 Ang^3
#
#
#
# Elastic Constant Matrix: (Units=GPa)
#
#
# Indices 1 2 3 4 5 6 
#
# 1 79.2460 47.3094 30.1319 0.0000 0.0000 5.3406
# 2 47.3094 79.2460 30.1319 0.0000 0.0000 -5.3406
# 3 30.1319 30.1319 74.0333 0.0000 0.0000 0.0000
# 4 0.0000 0.0000 0.0000 28.4815 0.0000 0.0000
# 5 0.0000 0.0000 0.0000 0.0000 28.4815 0.0000
# 6 5.3406 -5.3406 0.0000 0.0000 0.0000 54.9513
#
#
#
# Elastic Compliance Matrix: (Units=1/GPa)
#
#
# Indices 1 2 3 4 5 6 
#
# 1 0.021083 -0.011281 -0.003989 0.000000 0.000000 -0.003145
# 2 -0.011281 0.021083 -0.003989 0.000000 0.000000 0.003145
# 3 -0.003989 -0.003989 0.016755 0.000000 0.000000 0.000000
# 4 0.000000 0.000000 0.000000 0.035110 0.000000 0.000000
# 5 0.000000 0.000000 0.000000 0.000000 0.035110 0.000000
# 6 -0.003145 0.003145 0.000000 0.000000 0.000000 0.018809
#
#
# Mechanical properties :
#
#
# Convention : Reuss Voigt Hill
#
# Bulk Modulus (GPa) = 49.01834 49.74130 49.37982
# Shear Modulus (GPa) = 25.87058 30.71300 28.29179
#
# Velocity S-wave (km/s) = 3.07150 3.34664 3.21202
# Velocity P-wave (km/s) = 5.51853 5.75085 5.63588
#
# Compressibility (1/GPa) = 0.02040053
#
# Stress axis : x y z
#
# Youngs Moduli (GPa) = 47.43245 47.43245 59.68494
#
# Poissons Ratio (x) = 0.53510 0.23809
# Poissons Ratio (y) = 0.53510 0.23809
# Poissons Ratio (z) = 0.18922 0.18922
#
# Static dielectric constant tensor:
#      x y z
#    x 2.176930 0.000000 0.000000 
#    y 0.000000 2.176930 0.000000 
#    z 0.000000 0.000000 2.324690 
# 
# From -- ./inp_files/809.got.cif
#   From: 2010.05.17/outbox.cif.g08.bks.cpg/sg88_1_cif.got.tgz:809.got - 2010.06.03 19:11:41.
