data_PCOD9546797
_publ_section_title
;
Structure prediction by ZEFSAII (Michael W. Deem and Ramdas Pophale) SiO2 
 PCOD9546797
Probable space group: I 41/A
;
_chemical_formula_sum "Si O2"
_cell_formula_units_Z 80
_cell_length_a 11.307318
_cell_length_b 11.307318
_cell_length_c 27.579799
_cell_angle_alpha 90.000000
_cell_angle_beta 90.000000
_cell_angle_gamma 90.000000
_cell_volume 3526.227346
_symmetry_space_group_name_H-M "I 41/A"
_symmetry_group_IT_number 88
_space_group.IT_coordinate_system_code '2'
_symmetry_cell_setting 'tetragonal'
loop_
_space_group_symop_operation_xyz
x,y,z
3/4-y,1/4+x,1/4+z
-x,1/2-y,z
1/4+y,1/4-x,1/4+z
-x,-y,-z
1/4+y,3/4-x,3/4-z
x,1/2+y,-z
3/4-y,3/4+x,3/4-z
1/2+x,1/2+y,1/2+z
1/4-y,3/4+x,3/4+z
1/2-x,-y,1/2+z
3/4+y,3/4-x,3/4+z
1/2-x,1/2-y,1/2-z
3/4+y,1/4-x,1/4-z
1/2+x,y,1/2-z
1/4-y,1/4+x,1/4-z
loop_
_atom_site_type_symbol
_atom_site_label
_atom_site_fract_x
_atom_site_fract_y
_atom_site_fract_z
Si Si1 0.901661 0.662498 0.561749
Si Si2 0.244864 0.222744 0.981504
Si Si3 0.324658 0.322556 0.371667
Si Si4 0.866687 0.526876 0.984411
Si Si5 0.970122 0.445887 0.622428
O O1 0.872896 0.709569 0.507379
O O2 0.781249 0.682751 0.591190
O O3 0.943056 0.529949 0.576309
O O4 0.000000 0.750000 0.582308
O O5 0.236468 0.222475 0.923532
O O6 0.195906 0.095138 0.998618
O O7 0.183431 0.346682 0.997076
O O8 0.440633 0.385304 0.392702
O O9 0.287854 0.389758 0.323511
O O10 0.000000 0.500000 0.000000
O O11 0.870500 0.345556 0.629421
#
# Coordination Sequence:
#
# PCOD9546797 Si02
#       5
#    16  16  16  16  16
#     4  12  28  45  79 108 147 197 257 306 380 462
#     4  12  27  49  75 113 152 204 256 323 388 469
#     4  11  24  46  75 108 149 188 246 320 388 449
#     4  12  26  44  77 108 154 193 255 318 398 463
#     4  11  28  50  75 106 153 198 256 317 376 458
#
# _framework density 22.687138000000001
#
# number of rings (size 3 to 8) (size 9 to 14) (size 15 to 20)
#    0.000    0.400    4.000    3.000   14.000    0.800 
#    0.000    0.000    0.000    0.000    0.000    0.000 
#    0.000    0.000    0.000    0.000    0.000    0.000 
#
# Total GULP energy -223336.091577 kJ/mol
# GULP energy per Si atom -5583.402289 kJ/mol
# Density = 2.263550 g / cm^3
# Si number density = 22.687138 Si / 1000 Ang^3
#
#
#
# Elastic Constant Matrix: (Units=GPa)
#
#
# Indices 1 2 3 4 5 6 
#
# 1 125.4600 66.1359 3.8905 0.0000 0.0000 3.3804
# 2 66.1359 125.4600 3.8905 0.0000 0.0000 -3.3804
# 3 3.8905 3.8905 64.6709 0.0000 0.0000 0.0000
# 4 0.0000 0.0000 0.0000 26.2187 0.0000 0.0000
# 5 0.0000 0.0000 0.0000 0.0000 26.2187 0.0000
# 6 3.3804 -3.3804 0.0000 0.0000 0.0000 20.5460
#
#
#
# Elastic Compliance Matrix: (Units=1/GPa)
#
#
# Indices 1 2 3 4 5 6 
#
# 1 0.011205 -0.005973 -0.000315 0.000000 0.000000 -0.002826
# 2 -0.005973 0.011205 -0.000315 0.000000 0.000000 0.002826
# 3 -0.000315 -0.000315 0.015501 0.000000 0.000000 0.000000
# 4 0.000000 0.000000 0.000000 0.038141 0.000000 0.000000
# 5 0.000000 0.000000 0.000000 0.000000 0.038141 0.000000
# 6 -0.002826 0.002826 0.000000 0.000000 0.000000 0.049601
#
#
# Mechanical properties :
#
#
# Convention : Reuss Voigt Hill
#
# Bulk Modulus (GPa) = 40.47607 51.49163 45.98385
# Shear Modulus (GPa) = 26.99268 30.70826 28.85047
#
# Velocity S-wave (km/s) = 3.45306 3.68306 3.56991
# Velocity P-wave (km/s) = 5.81187 6.39001 6.10779
#
# Compressibility (1/GPa) = 0.02470595
#
# Stress axis : x y z
#
# Youngs Moduli (GPa) = 89.24273 89.24273 64.51294
#
# Poissons Ratio (x) = 0.53307 0.02031
# Poissons Ratio (y) = 0.53307 0.02031
# Poissons Ratio (z) = 0.02809 0.02809
#
# Static dielectric constant tensor:
#      x y z
#    x 1.970840 0.000000 0.000000 
#    y 0.000000 1.970840 0.000000 
#    z 0.000000 0.000000 1.925590 
# 
# From -- ./inp_files/6340.got.cif
#   From: 2010.05.17/outbox.cif.g08.bks.cpg/sg88_4_cif.got.tgz:6340.got - 2010.06.03 19:11:41.
