data_PCOD9546518
_publ_section_title
;
Structure prediction by ZEFSAII (Michael W. Deem and Ramdas Pophale) SiO2 
 PCOD9546518
Probable space group: I 41/A
;
_chemical_formula_sum "Si O2"
_cell_formula_units_Z 100
_cell_length_a 28.273274
_cell_length_b 28.273274
_cell_length_c 4.891651
_cell_angle_alpha 90.000000
_cell_angle_beta 90.000000
_cell_angle_gamma 90.000000
_cell_volume 3910.278304
_symmetry_space_group_name_H-M "I 41/A"
_symmetry_group_IT_number 88
_space_group.IT_coordinate_system_code '2'
_symmetry_cell_setting 'tetragonal'
loop_
_space_group_symop_operation_xyz
x,y,z
3/4-y,1/4+x,1/4+z
-x,1/2-y,z
1/4+y,1/4-x,1/4+z
-x,-y,-z
1/4+y,3/4-x,3/4-z
x,1/2+y,-z
3/4-y,3/4+x,3/4-z
1/2+x,1/2+y,1/2+z
1/4-y,3/4+x,3/4+z
1/2-x,-y,1/2+z
3/4+y,3/4-x,3/4+z
1/2-x,1/2-y,1/2-z
3/4+y,1/4-x,1/4-z
1/2+x,y,1/2-z
1/4-y,1/4+x,1/4-z
loop_
_atom_site_type_symbol
_atom_site_label
_atom_site_fract_x
_atom_site_fract_y
_atom_site_fract_z
Si Si1 0.515722 0.549934 0.387114
Si Si2 0.765198 0.429569 0.214383
Si Si3 0.643680 0.117273 0.299726
Si Si4 0.932531 0.173020 0.744322
Si Si5 0.500000 0.250000 0.875000
Si Si6 0.621190 0.058745 0.812413
Si Si7 0.995372 0.110113 0.414104
O O1 0.500000 0.500000 0.500000
O O2 0.570392 0.546007 0.304219
O O3 0.488482 0.565632 0.113571
O O4 0.506881 0.590611 0.615297
O O5 0.723992 0.451514 0.397119
O O6 0.801709 0.388097 0.294520
O O7 0.734662 0.407202 0.968759
O O8 0.616947 0.164021 0.201309
O O9 0.618540 0.076274 0.120629
O O10 0.639686 0.101566 0.615046
O O11 0.975704 0.209086 0.808064
O O12 0.952658 0.146104 0.478901
O O13 0.888596 0.208858 0.719705
#
# Coordination Sequence:
#
# PCOD9546518 Si02
#       7
#    16  16  16  16   4  16  16
#     4  12  25  45  65  99 140 185 229 282 349 423
#     4  10  22  40  65  99 136 176 231 279 339 401
#     4  11  23  41  71  92 136 175 222 283 339 408
#     4  10  21  45  69 105 132 180 231 285 364 409
#     4   8  20  40  76  98 140 174 228 298 344 426
#     4  11  23  43  65  95 133 182 221 282 338 407
#     4  11  25  44  72  98 139 177 231 297 343 431
#
# _framework density 25.573625
#
# number of rings (size 3 to 8) (size 9 to 14) (size 15 to 20)
#    0.000    1.280    3.200    1.440    2.240    6.400 
#    5.760    0.000    0.000    8.640    0.000    0.000 
#    0.000    0.000    0.000    0.000    0.000    0.000 
#
# Total GULP energy -279479.824413 kJ/mol
# GULP energy per Si atom -5589.596488 kJ/mol
# Density = 2.551542 g / cm^3
# Si number density = 25.573625 Si / 1000 Ang^3
#
#
#
# Elastic Constant Matrix: (Units=GPa)
#
#
# Indices 1 2 3 4 5 6 
#
# 1 106.8716 47.5893 12.5420 0.0000 0.0000 -15.5510
# 2 47.5893 106.8716 12.5420 0.0000 0.0000 15.5510
# 3 12.5420 12.5420 83.0975 0.0000 0.0000 0.0000
# 4 0.0000 0.0000 0.0000 24.4481 0.0000 0.0000
# 5 0.0000 0.0000 0.0000 0.0000 24.4481 0.0000
# 6 -15.5510 15.5510 0.0000 0.0000 0.0000 43.5801
#
#
#
# Elastic Compliance Matrix: (Units=1/GPa)
#
#
# Indices 1 2 3 4 5 6 
#
# 1 0.013695 -0.007059 -0.001002 0.000000 0.000000 0.007406
# 2 -0.007059 0.013695 -0.001002 0.000000 0.000000 -0.007406
# 3 -0.001002 -0.001002 0.012336 0.000000 0.000000 0.000000
# 4 0.000000 0.000000 0.000000 0.040903 0.000000 0.000000
# 5 0.000000 0.000000 0.000000 0.000000 0.040903 0.000000
# 6 0.007406 -0.007406 0.000000 0.000000 0.000000 0.028232
#
#
# Mechanical properties :
#
#
# Convention : Reuss Voigt Hill
#
# Bulk Modulus (GPa) = 46.28935 49.13191 47.71063
# Shear Modulus (GPa) = 28.55684 33.43976 30.99830
#
# Velocity S-wave (km/s) = 3.34526 3.61998 3.48533
# Velocity P-wave (km/s) = 5.74985 6.06020 5.90706
#
# Compressibility (1/GPa) = 0.02160324
#
# Stress axis : x y z
#
# Youngs Moduli (GPa) = 73.01769 73.01769 81.06074
#
# Poissons Ratio (x) = 0.51540 0.08120
# Poissons Ratio (y) = 0.51540 0.08120
# Poissons Ratio (z) = 0.07314 0.07314
#
# Static dielectric constant tensor:
#      x y z
#    x 2.065230 0.000000 0.000000 
#    y 0.000000 2.065230 0.000000 
#    z 0.000000 0.000000 2.016290 
# 
# From -- ./inp_files/779.got.cif
#   From: 2010.05.17/outbox.cif.g08.bks.cpg/sg88_1_cif.got.tgz:779.got - 2010.06.03 19:11:41.
