data_PCOD9546407
_publ_section_title
;
Structure prediction by ZEFSAII (Michael W. Deem and Ramdas Pophale) SiO2 
 PCOD9546407
Probable space group: I 41/A
;
_chemical_formula_sum "Si O2"
_cell_formula_units_Z 84
_cell_length_a 10.182240
_cell_length_b 10.182240
_cell_length_c 32.985125
_cell_angle_alpha 90.000000
_cell_angle_beta 90.000000
_cell_angle_gamma 90.000000
_cell_volume 3419.832166
_symmetry_space_group_name_H-M "I 41/A"
_symmetry_group_IT_number 88
_space_group.IT_coordinate_system_code '2'
_symmetry_cell_setting 'tetragonal'
loop_
_space_group_symop_operation_xyz
x,y,z
3/4-y,1/4+x,1/4+z
-x,1/2-y,z
1/4+y,1/4-x,1/4+z
-x,-y,-z
1/4+y,3/4-x,3/4-z
x,1/2+y,-z
3/4-y,3/4+x,3/4-z
1/2+x,1/2+y,1/2+z
1/4-y,3/4+x,3/4+z
1/2-x,-y,1/2+z
3/4+y,3/4-x,3/4+z
1/2-x,1/2-y,1/2-z
3/4+y,1/4-x,1/4-z
1/2+x,y,1/2-z
1/4-y,1/4+x,1/4-z
loop_
_atom_site_type_symbol
_atom_site_label
_atom_site_fract_x
_atom_site_fract_y
_atom_site_fract_z
Si Si1 0.453577 0.928269 0.916074
Si Si2 0.500000 0.750000 0.987807
Si Si3 0.000000 0.250000 0.901260
Si Si4 0.216993 0.807262 0.706493
Si Si5 0.925443 0.413298 0.147828
Si Si6 0.500000 0.250000 0.875000
Si Si7 0.945821 0.927042 0.308138
O O1 0.515024 0.869143 0.956887
O O2 0.536691 0.872917 0.878041
O O3 0.313747 0.860694 0.904519
O O4 0.414641 0.072607 0.929288
O O5 0.376768 0.763201 0.017574
O O6 0.037508 0.375441 0.928984
O O7 0.250000 0.750000 0.750000
O O8 0.354596 0.845062 0.685947
O O9 0.121723 0.935467 0.703423
O O10 0.920225 0.109172 0.139295
O O11 0.532445 0.379462 0.846889
#
# Coordination Sequence:
#
# PCOD9546407 Si02
#       7
#    16   8   8  16  16   4  16
#     4  10  21  40  64  93 128 168 219 272 324 393
#     4  10  22  39  64  95 134 172 215 270 341 398
#     4  11  22  43  60  93 125 169 217 270 329 388
#     4  11  25  42  62  98 132 173 216 279 338 402
#     4  10  21  40  66  91 124 170 224 258 326 395
#     4  10  20  42  68  96 128 180 232 280 326 412
#     4  10  22  40  64  96 130 172 221 273 337 393
#
# _framework density 24.562608000000001
#
# number of rings (size 3 to 8) (size 9 to 14) (size 15 to 20)
#    0.000    1.714    1.905    1.714    0.000    7.619 
#    0.000    0.000    0.000    0.000    0.000    0.000 
#    0.000    0.000    0.000    0.000    0.000    0.000 
#
# Total GULP energy -233992.771466 kJ/mol
# GULP energy per Si atom -5571.256463 kJ/mol
# Density = 2.450670 g / cm^3
# Si number density = 24.562608 Si / 1000 Ang^3
#
#
#
# Elastic Constant Matrix: (Units=GPa)
#
#
# Indices 1 2 3 4 5 6 
#
# 1 71.7185 -13.2026 25.0005 0.0000 0.0000 9.2859
# 2 -13.2026 71.7185 25.0005 0.0000 0.0000 -9.2859
# 3 25.0005 25.0005 196.0222 0.0000 0.0000 0.0000
# 4 0.0000 0.0000 0.0000 26.7341 0.0000 0.0000
# 5 0.0000 0.0000 0.0000 0.0000 26.7341 0.0000
# 6 9.2859 -9.2859 0.0000 0.0000 0.0000 36.9390
#
#
#
# Elastic Compliance Matrix: (Units=1/GPa)
#
#
# Indices 1 2 3 4 5 6 
#
# 1 0.015820 0.003359 -0.002446 0.000000 0.000000 -0.003132
# 2 0.003359 0.015820 -0.002446 0.000000 0.000000 0.003132
# 3 -0.002446 -0.002446 0.005725 0.000000 0.000000 0.000000
# 4 0.000000 0.000000 0.000000 0.037405 0.000000 0.000000
# 5 0.000000 0.000000 0.000000 0.000000 0.037405 0.000000
# 6 -0.003132 0.003132 0.000000 0.000000 0.000000 0.028647
#
#
# Mechanical properties :
#
#
# Convention : Reuss Voigt Hill
#
# Bulk Modulus (GPa) = 29.15454 45.89511 37.52483
# Shear Modulus (GPa) = 32.19117 38.25882 35.22499
#
# Velocity S-wave (km/s) = 3.62412 3.95093 3.79105
# Velocity P-wave (km/s) = 5.42287 6.28798 5.87138
#
# Compressibility (1/GPa) = 0.03429998
#
# Stress axis : x y z
#
# Youngs Moduli (GPa) = 63.21060 63.21060 174.65969
#
# Poissons Ratio (x) = -0.21235 0.42724
# Poissons Ratio (y) = -0.21235 0.42724
# Poissons Ratio (z) = 0.15462 0.15462
#
# Static dielectric constant tensor:
#      x y z
#    x 2.092630 0.000000 0.000000 
#    y 0.000000 2.092630 0.000000 
#    z 0.000000 0.000000 1.990800 
# 
# From -- ./inp_files/6494.got.cif
#   From: 2010.05.17/outbox.cif.g08.bks.cpg/sg88_4_cif.got.tgz:6494.got - 2010.06.03 19:11:41.
