data_PCOD9546812
_publ_section_title
;
Structure prediction by ZEFSAII (Michael W. Deem and Ramdas Pophale) SiO2 
 PCOD9546812
Probable space group: I 41/A
;
_chemical_formula_sum "Si O2"
_cell_formula_units_Z 32
_cell_length_a 13.246124
_cell_length_b 13.246124
_cell_length_c 6.882408
_cell_angle_alpha 90.000000
_cell_angle_beta 90.000000
_cell_angle_gamma 90.000000
_cell_volume 1207.585938
_symmetry_space_group_name_H-M "I 41/A"
_symmetry_group_IT_number 88
_space_group.IT_coordinate_system_code '2'
_symmetry_cell_setting 'tetragonal'
loop_
_space_group_symop_operation_xyz
x,y,z
3/4-y,1/4+x,1/4+z
-x,1/2-y,z
1/4+y,1/4-x,1/4+z
-x,-y,-z
1/4+y,3/4-x,3/4-z
x,1/2+y,-z
3/4-y,3/4+x,3/4-z
1/2+x,1/2+y,1/2+z
1/4-y,3/4+x,3/4+z
1/2-x,-y,1/2+z
3/4+y,3/4-x,3/4+z
1/2-x,1/2-y,1/2-z
3/4+y,1/4-x,1/4-z
1/2+x,y,1/2-z
1/4-y,1/4+x,1/4-z
loop_
_atom_site_type_symbol
_atom_site_label
_atom_site_fract_x
_atom_site_fract_y
_atom_site_fract_z
Si Si1 0.347208 0.787757 0.126494
Si Si2 0.119534 0.492778 0.987254
O O1 0.250000 0.750000 0.250000
O O2 0.440841 0.847610 0.226141
O O3 0.318471 0.871278 0.966176
O O4 0.185231 0.588537 0.923939
O O5 0.000000 0.500000 0.000000
#
# Coordination Sequence:
#
# PCOD9546812 Si02
#       2
#    16  16
#     4  11  25  47  78 114 160 213 270 338 413 492
#     4  12  31  51  83 120 168 217 284 345 426 500
#
# _framework density 26.499148999999999
#
# number of rings (size 3 to 8) (size 9 to 14) (size 15 to 20)
#    0.000    0.500    5.000    0.000   14.000    1.000 
#    0.000    0.000    0.000    0.000    0.000    0.000 
#    0.000    0.000    0.000    0.000    0.000    0.000 
#
# Total GULP energy -89268.519433 kJ/mol
# GULP energy per Si atom -5579.282465 kJ/mol
# Density = 2.643884 g / cm^3
# Si number density = 26.499149 Si / 1000 Ang^3
#
#
#
# Elastic Constant Matrix: (Units=GPa)
#
#
# Indices 1 2 3 4 5 6 
#
# 1 178.3821 107.0437 55.1304 0.0000 0.0000 -0.9536
# 2 107.0437 178.3821 55.1304 0.0000 0.0000 0.9536
# 3 55.1304 55.1304 83.9442 0.0000 0.0000 0.0000
# 4 0.0000 0.0000 0.0000 59.9183 0.0000 0.0000
# 5 0.0000 0.0000 0.0000 0.0000 59.9183 0.0000
# 6 -0.9536 0.9536 0.0000 0.0000 0.0000 66.0288
#
#
#
# Elastic Compliance Matrix: (Units=1/GPa)
#
#
# Indices 1 2 3 4 5 6 
#
# 1 0.009359 -0.004664 -0.003083 0.000000 0.000000 0.000203
# 2 -0.004664 0.009359 -0.003083 0.000000 0.000000 -0.000203
# 3 -0.003083 -0.003083 0.015962 0.000000 0.000000 0.000000
# 4 0.000000 0.000000 0.000000 0.016689 0.000000 0.000000
# 5 0.000000 0.000000 0.000000 0.000000 0.016689 0.000000
# 6 0.000203 -0.000203 0.000000 0.000000 0.000000 0.015151
#
#
# Mechanical properties :
#
#
# Convention : Reuss Voigt Hill
#
# Bulk Modulus (GPa) = 76.81137 97.25750 87.03444
# Shear Modulus (GPa) = 45.78316 52.06668 48.92492
#
# Velocity S-wave (km/s) = 4.16110 4.43746 4.30150
# Velocity P-wave (km/s) = 7.22050 7.93956 7.58855
#
# Compressibility (1/GPa) = 0.01301891
#
# Stress axis : x y z
#
# Youngs Moduli (GPa) = 106.85087 106.85087 62.64714
#
# Poissons Ratio (x) = 0.49838 0.19315
# Poissons Ratio (y) = 0.49838 0.19315
# Poissons Ratio (z) = 0.32944 0.32944
#
# Static dielectric constant tensor:
#      x y z
#    x 2.313690 0.000000 0.000000 
#    y 0.000000 2.313690 0.000000 
#    z 0.000000 0.000000 2.827470 
# 
# From -- ./inp_files/923.got.cif
#   From: 2010.05.17/outbox.cif.g08.bks.cpg/sg88_1_cif.got.tgz:923.got - 2010.06.03 19:11:41.
