data_PCOD9546554
_publ_section_title
;
Structure prediction by ZEFSAII (Michael W. Deem and Ramdas Pophale) SiO2 
 PCOD9546554
Probable space group: I 41/A
;
_chemical_formula_sum "Si O2"
_cell_formula_units_Z 100
_cell_length_a 28.694971
_cell_length_b 28.694971
_cell_length_c 6.361961
_cell_angle_alpha 90.000000
_cell_angle_beta 90.000000
_cell_angle_gamma 90.000000
_cell_volume 5238.447344
_symmetry_space_group_name_H-M "I 41/A"
_symmetry_group_IT_number 88
_space_group.IT_coordinate_system_code '2'
_symmetry_cell_setting 'tetragonal'
loop_
_space_group_symop_operation_xyz
x,y,z
3/4-y,1/4+x,1/4+z
-x,1/2-y,z
1/4+y,1/4-x,1/4+z
-x,-y,-z
1/4+y,3/4-x,3/4-z
x,1/2+y,-z
3/4-y,3/4+x,3/4-z
1/2+x,1/2+y,1/2+z
1/4-y,3/4+x,3/4+z
1/2-x,-y,1/2+z
3/4+y,3/4-x,3/4+z
1/2-x,1/2-y,1/2-z
3/4+y,1/4-x,1/4-z
1/2+x,y,1/2-z
1/4-y,1/4+x,1/4-z
loop_
_atom_site_type_symbol
_atom_site_label
_atom_site_fract_x
_atom_site_fract_y
_atom_site_fract_z
Si Si1 0.872143 0.160220 0.936340
Si Si2 0.000000 0.250000 0.125000
Si Si3 0.436303 0.814172 0.416846
Si Si4 0.821150 0.818301 0.592767
Si Si5 0.969739 0.518471 0.802318
Si Si6 0.381427 0.249874 0.866269
Si Si7 0.273521 0.184544 0.655967
O O1 0.896229 0.114146 0.842714
O O2 0.877209 0.204976 0.782714
O O3 0.816175 0.154886 0.935643
O O4 0.898293 0.171367 0.157581
O O5 0.984868 0.203562 0.240432
O O6 0.481349 0.831705 0.287764
O O7 0.396542 0.795814 0.261702
O O8 0.807052 0.811563 0.836257
O O9 0.838386 0.768405 0.503142
O O10 0.775021 0.829583 0.456937
O O11 0.937779 0.485490 0.656668
O O12 0.011625 0.535616 0.655039
O O13 0.000000 0.500000 0.000000
#
# Coordination Sequence:
#
# PCOD9546554 Si02
#       7
#    16   4  16  16  16  16  16
#     4  12  25  39  64  90 119 170 211 255 323 380
#     4  12  20  38  52  76 122 180 204 238 288 364
#     4  12  24  37  56  84 127 170 213 249 299 367
#     4  11  24  40  61  93 120 164 216 260 321 381
#     4   9  18  37  63  86 121 161 202 255 318 367
#     4  12  23  39  56  88 127 167 209 257 306 372
#     4  10  22  40  61  88 125 158 209 275 316 368
#
# _framework density 19.089625999999999
#
# number of rings (size 3 to 8) (size 9 to 14) (size 15 to 20)
#    0.000    0.960    3.200    5.760    4.480    1.280 
#    0.000    0.000    0.000    0.000    4.160    0.000 
#    0.000    0.000    0.000    0.000    0.000    0.000 
#
# Total GULP energy -278571.057120 kJ/mol
# GULP energy per Si atom -5571.421142 kJ/mol
# Density = 1.904618 g / cm^3
# Si number density = 19.089626 Si / 1000 Ang^3
#
#
#
# Elastic Constant Matrix: (Units=GPa)
#
#
# Indices 1 2 3 4 5 6 
#
# 1 101.1671 37.3547 36.4968 0.0000 0.0000 -3.6004
# 2 37.3547 101.1671 36.4968 0.0000 0.0000 3.6004
# 3 36.4968 36.4968 93.3556 0.0000 0.0000 0.0000
# 4 0.0000 0.0000 0.0000 27.3958 0.0000 0.0000
# 5 0.0000 0.0000 0.0000 0.0000 27.3958 0.0000
# 6 -3.6004 3.6004 0.0000 0.0000 0.0000 20.4848
#
#
#
# Elastic Compliance Matrix: (Units=1/GPa)
#
#
# Indices 1 2 3 4 5 6 
#
# 1 0.012540 -0.003448 -0.003555 0.000000 0.000000 0.002810
# 2 -0.003448 0.012540 -0.003555 0.000000 0.000000 -0.002810
# 3 -0.003555 -0.003555 0.013491 0.000000 0.000000 0.000000
# 4 0.000000 0.000000 0.000000 0.036502 0.000000 0.000000
# 5 0.000000 0.000000 0.000000 0.000000 0.036502 0.000000
# 6 0.002810 -0.002810 0.000000 0.000000 0.000000 0.049805
#
#
# Mechanical properties :
#
#
# Convention : Reuss Voigt Hill
#
# Bulk Modulus (GPa) = 57.28310 57.37627 57.32968
# Shear Modulus (GPa) = 26.55161 27.41137 26.98149
#
# Velocity S-wave (km/s) = 3.73351 3.79348 3.76361
# Velocity P-wave (km/s) = 6.97553 7.02202 6.99882
#
# Compressibility (1/GPa) = 0.01745716
#
# Stress axis : x y z
#
# Youngs Moduli (GPa) = 79.74436 79.74436 74.12370
#
# Poissons Ratio (x) = 0.27495 0.26347
# Poissons Ratio (y) = 0.27495 0.26347
# Poissons Ratio (z) = 0.28345 0.28345
#
# Static dielectric constant tensor:
#      x y z
#    x 1.720920 0.000000 0.000000 
#    y 0.000000 1.720920 0.000000 
#    z 0.000000 0.000000 1.783180 
# 
# From -- ./inp_files/757.got.cif
#   From: 2010.05.17/outbox.cif.g08.bks.cpg/sg88_1_cif.got.tgz:757.got - 2010.06.03 19:11:41.
