data_PCOD9546950
_publ_section_title
;
Structure prediction by ZEFSAII (Michael W. Deem and Ramdas Pophale) SiO2 
 PCOD9546950
Probable space group: P 4 2 2
;
_chemical_formula_sum "Si O2"
_cell_formula_units_Z 60
_cell_length_a 12.367856
_cell_length_b 12.367856
_cell_length_c 20.865130
_cell_angle_alpha 90.000000
_cell_angle_beta 90.000000
_cell_angle_gamma 90.000000
_cell_volume 3191.610867
_symmetry_space_group_name_H-M "P 4 2 2"
_symmetry_group_IT_number 89
_symmetry_cell_setting 'tetragonal'
loop_
_space_group_symop_operation_xyz
x,y,z
-y,x,z
-x,-y,z
y,-x,z
x,-y,-z
-x,y,-z
y,x,-z
-y,-x,-z
loop_
_atom_site_type_symbol
_atom_site_label
_atom_site_fract_x
_atom_site_fract_y
_atom_site_fract_z
Si Si1 0.421321 0.664951 0.077771
Si Si2 0.391351 0.101191 0.949940
Si Si3 0.129348 0.128450 0.574654
Si Si4 0.166649 0.039892 0.892417
Si Si5 0.979814 0.274655 0.235842
Si Si6 0.500000 0.000000 0.161611
Si Si7 0.198531 0.240915 0.302745
Si Si8 0.403275 0.653464 0.227309
O O1 0.363272 0.548489 0.069140
O O2 0.392673 0.771113 0.035875
O O3 0.391121 0.689101 0.152822
O O4 0.276503 0.075933 0.921469
O O5 0.475564 0.093363 0.890452
O O6 0.401864 0.000000 0.000000
O O7 0.151528 0.151528 0.500000
O O8 0.201674 0.197159 0.623660
O O9 0.000659 0.146615 0.585328
O O10 0.189609 0.022194 0.817325
O O11 0.076715 0.124681 0.912412
O O12 0.976263 0.393497 0.202976
O O13 0.074602 0.271222 0.287558
O O14 0.864187 0.239062 0.262764
O O15 0.268969 0.340837 0.276308
O O16 0.355963 0.532474 0.235981
#
# Coordination Sequence:
#
# PCOD9546950 Si02
#       8
#     8   8   8   8   8   4   8   8
#     4   9  20  40  69  97 120 154 205 265 320 374
#     4  11  24  42  64  88 117 158 204 254 312 380
#     4   9  18  34  54  82 127 179 224 258 293 357
#     4  10  21  38  57  83 118 157 194 241 310 385
#     4  11  23  34  58  90 125 153 202 247 321 382
#     4  10  25  42  56  86 119 154 190 254 320 374
#     4  12  21  33  59  94 127 166 199 264 308 382
#     4   9  20  37  61  95 127 160 205 259 323 383
#
# _framework density 18.799282999999999
#
# number of rings (size 3 to 8) (size 9 to 14) (size 15 to 20)
#    0.000    1.867    2.667    3.000    5.600    1.867 
#    0.000    3.333    0.000    0.800    0.000    7.467 
#    0.000    0.000    0.000    0.000    0.000    0.000 
#
# Total GULP energy -334399.409349 kJ/mol
# GULP energy per Si atom -5573.323489 kJ/mol
# Density = 1.875650 g / cm^3
# Si number density = 18.799283 Si / 1000 Ang^3
#
#
#
# Elastic Constant Matrix: (Units=GPa)
#
#
# Indices 1 2 3 4 5 6 
#
# 1 89.0013 31.6397 49.3161 0.0000 0.0000 0.0000
# 2 31.6397 89.0013 49.3161 0.0000 0.0000 0.0000
# 3 49.3161 49.3161 100.1603 0.0000 0.0000 0.0000
# 4 0.0000 0.0000 0.0000 25.8356 0.0000 0.0000
# 5 0.0000 0.0000 0.0000 0.0000 25.8356 0.0000
# 6 0.0000 0.0000 0.0000 0.0000 0.0000 44.1862
#
#
#
# Elastic Compliance Matrix: (Units=1/GPa)
#
#
# Indices 1 2 3 4 5 6 
#
# 1 0.015654 -0.001780 -0.006831 0.000000 0.000000 0.000000
# 2 -0.001780 0.015654 -0.006831 0.000000 0.000000 0.000000
# 3 -0.006831 -0.006831 0.016711 0.000000 0.000000 0.000000
# 4 0.000000 0.000000 0.000000 0.038706 0.000000 0.000000
# 5 0.000000 0.000000 0.000000 0.000000 0.038706 0.000000
# 6 0.000000 0.000000 0.000000 0.000000 0.000000 0.022631
#
#
# Mechanical properties :
#
#
# Convention : Reuss Voigt Hill
#
# Bulk Modulus (GPa) = 58.36253 59.85629 59.10941
# Shear Modulus (GPa) = 27.07716 29.03090 28.05403
#
# Velocity S-wave (km/s) = 3.79928 3.93397 3.86721
# Velocity P-wave (km/s) = 7.09638 7.24869 7.17294
#
# Compressibility (1/GPa) = 0.01713428
#
# Stress axis : x y z
#
# Youngs Moduli (GPa) = 63.88291 63.88291 59.84107
#
# Poissons Ratio (x) = 0.11369 0.40878
# Poissons Ratio (y) = 0.11369 0.40878
# Poissons Ratio (z) = 0.43639 0.43639
#
# Static dielectric constant tensor:
#      x y z
#    x 1.680050 0.000000 0.000000 
#    y 0.000000 1.680050 0.000000 
#    z 0.000000 0.000000 1.685340 
# 
# From -- ./inp_files/2650.got.cif
#   From: 2010.05.17/outbox.cif.g08.bks.cpg/sg89_2_cif.got.tgz:2650.got - 2010.06.03 19:15:31.
