data_PCOD9546363
_publ_section_title
;
Structure prediction by ZEFSAII (Michael W. Deem and Ramdas Pophale) SiO2 
 PCOD9546363
Probable space group: I 41/A
;
_chemical_formula_sum "Si O2"
_cell_formula_units_Z 72
_cell_length_a 12.670118
_cell_length_b 12.670118
_cell_length_c 18.849613
_cell_angle_alpha 90.000000
_cell_angle_beta 90.000000
_cell_angle_gamma 90.000000
_cell_volume 3025.964003
_symmetry_space_group_name_H-M "I 41/A"
_symmetry_group_IT_number 88
_space_group.IT_coordinate_system_code '2'
_symmetry_cell_setting 'tetragonal'
loop_
_space_group_symop_operation_xyz
x,y,z
3/4-y,1/4+x,1/4+z
-x,1/2-y,z
1/4+y,1/4-x,1/4+z
-x,-y,-z
1/4+y,3/4-x,3/4-z
x,1/2+y,-z
3/4-y,3/4+x,3/4-z
1/2+x,1/2+y,1/2+z
1/4-y,3/4+x,3/4+z
1/2-x,-y,1/2+z
3/4+y,3/4-x,3/4+z
1/2-x,1/2-y,1/2-z
3/4+y,1/4-x,1/4-z
1/2+x,y,1/2-z
1/4-y,1/4+x,1/4-z
loop_
_atom_site_type_symbol
_atom_site_label
_atom_site_fract_x
_atom_site_fract_y
_atom_site_fract_z
Si Si1 0.500000 0.750000 0.362929
Si Si2 0.733921 0.986599 0.688575
Si Si3 0.615913 0.088835 0.561895
Si Si4 0.717317 0.227419 0.910142
Si Si5 0.873659 0.816853 0.262806
O O1 0.490620 0.856768 0.408952
O O2 0.597270 0.746765 0.307682
O O3 0.663150 0.004884 0.618213
O O4 0.856689 0.001382 0.672012
O O5 0.698165 0.083874 0.739182
O O6 0.706209 0.881635 0.733331
O O7 0.691419 0.192288 0.566936
O O8 0.679698 0.239753 0.828987
O O9 0.619696 0.268776 0.957325
#
# Coordination Sequence:
#
# PCOD9546363 Si02
#       5
#     8  16  16  16  16
#     4  10  22  35  58  84 125 168 224 268 326 410
#     4  10  20  38  54  88 132 164 218 276 345 407
#     4  10  23  39  60  92 128 177 222 278 343 410
#     4  11  19  36  57  90 131 168 212 275 354 407
#     4  10  21  31  54  87 124 166 215 267 336 412
#
# _framework density 23.794070999999999
#
# number of rings (size 3 to 8) (size 9 to 14) (size 15 to 20)
#    0.000    1.778    4.444    1.333    3.111    1.778 
#    0.000    1.111    0.000    0.000    0.000    0.000 
#    0.000    0.000    0.000    0.000    0.000    0.000 
#
# Total GULP energy -201221.139600 kJ/mol
# GULP energy per Si atom -5589.476100 kJ/mol
# Density = 2.373991 g / cm^3
# Si number density = 23.794071 Si / 1000 Ang^3
#
#
#
# Elastic Constant Matrix: (Units=GPa)
#
#
# Indices 1 2 3 4 5 6 
#
# 1 82.6627 23.8228 38.0525 0.0000 0.0000 -8.2283
# 2 23.8228 82.6627 38.0525 0.0000 0.0000 8.2283
# 3 38.0525 38.0525 97.2338 0.0000 0.0000 0.0000
# 4 0.0000 0.0000 0.0000 43.0390 0.0000 0.0000
# 5 0.0000 0.0000 0.0000 0.0000 43.0390 0.0000
# 6 -8.2283 8.2283 0.0000 0.0000 0.0000 30.7848
#
#
#
# Elastic Compliance Matrix: (Units=1/GPa)
#
#
# Indices 1 2 3 4 5 6 
#
# 1 0.015703 -0.002665 -0.005102 0.000000 0.000000 0.004910
# 2 -0.002665 0.015703 -0.005102 0.000000 0.000000 -0.004910
# 3 -0.005102 -0.005102 0.014278 0.000000 0.000000 0.000000
# 4 0.000000 0.000000 0.000000 0.023235 0.000000 0.000000
# 5 0.000000 0.000000 0.000000 0.000000 0.023235 0.000000
# 6 0.004910 -0.004910 0.000000 0.000000 0.000000 0.035108
#
#
# Mechanical properties :
#
#
# Convention : Reuss Voigt Hill
#
# Bulk Modulus (GPa) = 50.14018 51.37943 50.75980
# Shear Modulus (GPa) = 31.31862 34.21466 32.76664
#
# Velocity S-wave (km/s) = 3.63193 3.79614 3.71495
# Velocity P-wave (km/s) = 6.22143 6.39175 6.30717
#
# Compressibility (1/GPa) = 0.01994408
#
# Stress axis : x y z
#
# Youngs Moduli (GPa) = 63.68224 63.68224 70.03769
#
# Poissons Ratio (x) = 0.16974 0.35735
# Poissons Ratio (y) = 0.16974 0.35735
# Poissons Ratio (z) = 0.32492 0.32492
#
# Static dielectric constant tensor:
#      x y z
#    x 1.998270 0.000000 0.000000 
#    y 0.000000 1.998270 0.000000 
#    z 0.000000 0.000000 1.932890 
# 
# From -- ./inp_files/3825.got.cif
#   From: 2010.05.17/outbox.cif.g08.bks.cpg/sg88_2_cif.got.tgz:3825.got - 2010.06.03 19:11:41.
