data_PCOD9546204
_publ_section_title
;
Structure prediction by ZEFSAII (Michael W. Deem and Ramdas Pophale) SiO2 
 PCOD9546204
Probable space group: I 41/A
;
_chemical_formula_sum "Si O2"
_cell_formula_units_Z 104
_cell_length_a 22.638326
_cell_length_b 22.638326
_cell_length_c 9.009998
_cell_angle_alpha 90.000000
_cell_angle_beta 90.000000
_cell_angle_gamma 90.000000
_cell_volume 4617.568150
_symmetry_space_group_name_H-M "I 41/A"
_symmetry_group_IT_number 88
_space_group.IT_coordinate_system_code '2'
_symmetry_cell_setting 'tetragonal'
loop_
_space_group_symop_operation_xyz
x,y,z
3/4-y,1/4+x,1/4+z
-x,1/2-y,z
1/4+y,1/4-x,1/4+z
-x,-y,-z
1/4+y,3/4-x,3/4-z
x,1/2+y,-z
3/4-y,3/4+x,3/4-z
1/2+x,1/2+y,1/2+z
1/4-y,3/4+x,3/4+z
1/2-x,-y,1/2+z
3/4+y,3/4-x,3/4+z
1/2-x,1/2-y,1/2-z
3/4+y,1/4-x,1/4-z
1/2+x,y,1/2-z
1/4-y,1/4+x,1/4-z
loop_
_atom_site_type_symbol
_atom_site_label
_atom_site_fract_x
_atom_site_fract_y
_atom_site_fract_z
Si Si1 0.796595 0.109399 0.633438
Si Si2 0.185532 0.602455 0.925793
Si Si3 0.633813 0.010218 0.204392
Si Si4 0.553941 0.450767 0.565283
Si Si5 0.500000 0.750000 0.625000
Si Si6 0.571846 0.709314 0.878470
Si Si7 0.649361 0.318272 0.131546
Si Si8 0.500000 0.250000 0.875000
O O1 0.735829 0.091851 0.548230
O O2 0.832029 0.049468 0.662675
O O3 0.785736 0.136047 0.796369
O O4 0.829949 0.154073 0.523499
O O5 0.177324 0.552722 0.798860
O O6 0.203746 0.661625 0.839105
O O7 0.122705 0.607204 0.007250
O O8 0.579876 0.994589 0.312860
O O9 0.572460 0.384127 0.622882
O O10 0.516906 0.555644 0.438662
O O11 0.534292 0.703806 0.729210
O O12 0.590384 0.779157 0.882101
O O13 0.532055 0.702032 0.021522
#
# Coordination Sequence:
#
# PCOD9546204 Si02
#       8
#    16  16  16  16   4  16  16   4
#     4  12  27  43  71 100 137 179 236 286 342 406
#     4  12  25  44  72 100 134 186 228 286 341 413
#     4  12  27  43  71 100 137 179 236 286 342 406
#     4  10  25  44  67 100 141 177 224 283 348 406
#     4  10  16  42  68  98 120 190 236 278 312 414
#     4   9  22  38  66  96 136 174 230 277 339 397
#     4  10  25  44  67 100 141 177 224 283 348 406
#     4  10  20  34  68  94 132 186 228 290 320 406
#
# _framework density 22.522677999999999
#
# number of rings (size 3 to 8) (size 9 to 14) (size 15 to 20)
#    0.923    0.308    3.077    1.846    4.308    3.077 
#    0.000    0.000    0.000    0.000    0.000    0.000 
#    0.000    0.000    0.000    0.000    0.000    0.000 
#
# Total GULP energy -290580.462963 kJ/mol
# GULP energy per Si atom -5588.085826 kJ/mol
# Density = 2.247141 g / cm^3
# Si number density = 22.522678 Si / 1000 Ang^3
#
#
#
# Elastic Constant Matrix: (Units=GPa)
#
#
# Indices 1 2 3 4 5 6 
#
# 1 86.3924 18.1807 39.1302 0.0000 0.0000 1.0482
# 2 18.1807 86.3924 39.1302 0.0000 0.0000 -1.0482
# 3 39.1302 39.1302 167.8302 0.0000 0.0000 0.0000
# 4 0.0000 0.0000 0.0000 23.9746 0.0000 0.0000
# 5 0.0000 0.0000 0.0000 0.0000 23.9746 0.0000
# 6 1.0482 -1.0482 0.0000 0.0000 0.0000 40.0079
#
#
#
# Elastic Compliance Matrix: (Units=1/GPa)
#
#
# Indices 1 2 3 4 5 6 
#
# 1 0.013128 -0.001544 -0.002701 0.000000 0.000000 -0.000384
# 2 -0.001544 0.013128 -0.002701 0.000000 0.000000 0.000384
# 3 -0.002701 -0.002701 0.007218 0.000000 0.000000 0.000000
# 4 0.000000 0.000000 0.000000 0.041711 0.000000 0.000000
# 5 0.000000 0.000000 0.000000 0.000000 0.041711 0.000000
# 6 -0.000384 0.000384 0.000000 0.000000 0.000000 0.025015
#
#
# Mechanical properties :
#
#
# Convention : Reuss Voigt Hill
#
# Bulk Modulus (GPa) = 51.06639 59.27749 55.17194
# Shear Modulus (GPa) = 30.80154 33.86968 32.33561
#
# Velocity S-wave (km/s) = 3.70209 3.88210 3.79316
# Velocity P-wave (km/s) = 6.40285 6.81692 6.61313
#
# Compressibility (1/GPa) = 0.01958235
#
# Stress axis : x y z
#
# Youngs Moduli (GPa) = 76.17304 76.17304 138.54596
#
# Poissons Ratio (x) = 0.11762 0.37419
# Poissons Ratio (y) = 0.11762 0.37419
# Poissons Ratio (z) = 0.20573 0.20573
#
# Static dielectric constant tensor:
#      x y z
#    x 1.865140 0.000000 0.000000 
#    y 0.000000 1.865140 0.000000 
#    z 0.000000 0.000000 1.849150 
# 
# From -- ./inp_files/1834.got.cif
#   From: 2010.05.17/outbox.cif.g08.bks.cpg/sg88_1_cif.got.tgz:1834.got - 2010.06.03 19:11:41.
