data_PCOD9546369
_publ_section_title
;
Structure prediction by ZEFSAII (Michael W. Deem and Ramdas Pophale) SiO2 
 PCOD9546369
Probable space group: I 41/A
;
_chemical_formula_sum "Si O2"
_cell_formula_units_Z 88
_cell_length_a 16.708828
_cell_length_b 16.708828
_cell_length_c 15.653496
_cell_angle_alpha 90.000000
_cell_angle_beta 90.000000
_cell_angle_gamma 90.000000
_cell_volume 4370.220234
_symmetry_space_group_name_H-M "I 41/A"
_symmetry_group_IT_number 88
_space_group.IT_coordinate_system_code '2'
_symmetry_cell_setting 'tetragonal'
loop_
_space_group_symop_operation_xyz
x,y,z
3/4-y,1/4+x,1/4+z
-x,1/2-y,z
1/4+y,1/4-x,1/4+z
-x,-y,-z
1/4+y,3/4-x,3/4-z
x,1/2+y,-z
3/4-y,3/4+x,3/4-z
1/2+x,1/2+y,1/2+z
1/4-y,3/4+x,3/4+z
1/2-x,-y,1/2+z
3/4+y,3/4-x,3/4+z
1/2-x,1/2-y,1/2-z
3/4+y,1/4-x,1/4-z
1/2+x,y,1/2-z
1/4-y,1/4+x,1/4-z
loop_
_atom_site_type_symbol
_atom_site_label
_atom_site_fract_x
_atom_site_fract_y
_atom_site_fract_z
Si Si1 0.912852 0.392325 0.427910
Si Si2 0.950815 0.003300 0.869778
Si Si3 0.052973 0.129073 0.618750
Si Si4 0.851023 0.668017 0.720642
Si Si5 0.000000 0.250000 0.913040
Si Si6 0.778245 0.777590 0.053093
O O1 0.824732 0.362316 0.399891
O O2 0.914187 0.403652 0.529036
O O3 0.969622 0.318566 0.399990
O O4 0.960009 0.461278 0.376934
O O5 0.033485 0.041574 0.907575
O O6 0.978789 0.958748 0.784186
O O7 0.913245 0.944724 0.940075
O O8 0.097689 0.210237 0.642319
O O9 0.057686 0.062356 0.691112
O O10 0.927110 0.726513 0.723082
O O11 0.895395 0.586592 0.691264
#
# Coordination Sequence:
#
# PCOD9546369 Si02
#       6
#    16  16  16  16   8  16
#     4  10  20  38  61  90 125 157 210 262 311 368
#     4  10  21  42  62  92 125 165 205 259 313 372
#     4  11  22  38  66  92 120 165 213 266 312 369
#     4   9  21  37  63  89 127 161 209 256 308 374
#     4   8  16  34  62  90 114 162 208 260 299 365
#     4  11  23  38  64  91 125 164 208 260 316 375
#
# _framework density 20.136285000000001
#
# number of rings (size 3 to 8) (size 9 to 14) (size 15 to 20)
#    0.000    2.000    1.818    1.636    5.091    5.818 
#    0.000    4.545    0.000    0.000    0.000    0.000 
#    0.000    0.000    0.000    0.000    0.000    0.000 
#
# Total GULP energy -245216.777485 kJ/mol
# GULP energy per Si atom -5573.108579 kJ/mol
# Density = 2.009045 g / cm^3
# Si number density = 20.136285 Si / 1000 Ang^3
#
#
#
# Elastic Constant Matrix: (Units=GPa)
#
#
# Indices 1 2 3 4 5 6 
#
# 1 42.2165 -5.1701 -10.4249 0.0000 0.0000 -4.9161
# 2 -5.1701 42.2165 -10.4249 0.0000 0.0000 4.9161
# 3 -10.4249 -10.4249 60.2706 0.0000 0.0000 0.0000
# 4 0.0000 0.0000 0.0000 22.2812 0.0000 0.0000
# 5 0.0000 0.0000 0.0000 0.0000 22.2812 0.0000
# 6 -4.9161 4.9161 0.0000 0.0000 0.0000 11.7383
#
#
#
# Elastic Compliance Matrix: (Units=1/GPa)
#
#
# Indices 1 2 3 4 5 6 
#
# 1 0.026508 0.003396 0.005172 0.000000 0.000000 0.009679
# 2 0.003396 0.026508 0.005172 0.000000 0.000000 -0.009679
# 3 0.005172 0.005172 0.018381 0.000000 0.000000 0.000000
# 4 0.000000 0.000000 0.000000 0.044881 0.000000 0.000000
# 5 0.000000 0.000000 0.000000 0.000000 0.044881 0.000000
# 6 0.009679 -0.009679 0.000000 0.000000 0.000000 0.093299
#
#
# Mechanical properties :
#
#
# Convention : Reuss Voigt Hill
#
# Bulk Modulus (GPa) = 10.11331 10.29598 10.20465
# Shear Modulus (GPa) = 19.23560 22.64168 20.93864
#
# Velocity S-wave (km/s) = 3.09410 3.35688 3.22816
# Velocity P-wave (km/s) = 4.21876 4.48877 4.35586
#
# Compressibility (1/GPa) = 0.09887963
#
# Stress axis : x y z
#
# Youngs Moduli (GPa) = 37.72475 37.72475 54.40345
#
# Poissons Ratio (x) = -0.12813 -0.28140
# Poissons Ratio (y) = -0.12813 -0.28140
# Poissons Ratio (z) = -0.19513 -0.19513
#
# Static dielectric constant tensor:
#      x y z
#    x 1.744480 0.000000 0.000000 
#    y 0.000000 1.744480 0.000000 
#    z 0.000000 0.000000 1.764780 
# 
# From -- ./inp_files/3213.got.cif
#   From: 2010.05.17/outbox.cif.g08.bks.cpg/sg88_2_cif.got.tgz:3213.got - 2010.06.03 19:11:41.
