data_PCOD9546294
_publ_section_title
;
Structure prediction by ZEFSAII (Michael W. Deem and Ramdas Pophale) SiO2 
 PCOD9546294
Probable space group: I 41/A
;
_chemical_formula_sum "Si O2"
_cell_formula_units_Z 116
_cell_length_a 23.385900
_cell_length_b 23.385900
_cell_length_c 9.171362
_cell_angle_alpha 90.000000
_cell_angle_beta 90.000000
_cell_angle_gamma 90.000000
_cell_volume 5015.820802
_symmetry_space_group_name_H-M "I 41/A"
_symmetry_group_IT_number 88
_space_group.IT_coordinate_system_code '2'
_symmetry_cell_setting 'tetragonal'
loop_
_space_group_symop_operation_xyz
x,y,z
3/4-y,1/4+x,1/4+z
-x,1/2-y,z
1/4+y,1/4-x,1/4+z
-x,-y,-z
1/4+y,3/4-x,3/4-z
x,1/2+y,-z
3/4-y,3/4+x,3/4-z
1/2+x,1/2+y,1/2+z
1/4-y,3/4+x,3/4+z
1/2-x,-y,1/2+z
3/4+y,3/4-x,3/4+z
1/2-x,1/2-y,1/2-z
3/4+y,1/4-x,1/4-z
1/2+x,y,1/2-z
1/4-y,1/4+x,1/4-z
loop_
_atom_site_type_symbol
_atom_site_label
_atom_site_fract_x
_atom_site_fract_y
_atom_site_fract_z
Si Si1 0.120257 0.537459 0.319587
Si Si2 0.803486 0.712036 0.196437
Si Si3 0.514650 0.865075 0.453237
Si Si4 0.118753 0.116869 0.924181
Si Si5 0.302706 0.787139 0.550351
Si Si6 0.091315 0.742517 0.385393
Si Si7 0.215049 0.954827 0.805165
Si Si8 0.000000 0.750000 0.875000
O O1 0.100160 0.542545 0.485257
O O2 0.128722 0.597690 0.242081
O O3 0.067801 0.507987 0.226707
O O4 0.174634 0.498766 0.286934
O O5 0.750000 0.750000 0.250000
O O6 0.805886 0.725059 0.025044
O O7 0.859801 0.735669 0.278260
O O8 0.446682 0.873196 0.456098
O O9 0.539093 0.918945 0.541893
O O10 0.533367 0.864867 0.285606
O O11 0.524493 0.802978 0.528712
O O12 0.155027 0.172866 0.956578
O O13 0.144908 0.065571 0.022292
O O14 0.052204 0.796855 0.431865
O O15 0.275177 0.960233 0.721758
#
# Coordination Sequence:
#
# PCOD9546294 Si02
#       8
#    16  16  16  16  16  16  16   4
#     4   9  19  39  62  84 116 163 203 241 308 368
#     4  10  21  39  58  87 121 160 202 253 303 372
#     4  12  23  38  61  87 125 158 204 251 315 369
#     4  10  19  38  60  84 115 161 195 244 309 365
#     4  10  22  36  60  86 118 156 202 251 305 360
#     4  11  24  40  65  91 122 166 215 259 314 391
#     4   9  19  38  66  85 115 154 202 252 305 364
#     4  12  24  36  58  92 124 164 202 256 312 368
#
# _framework density 23.126823999999999
#
# number of rings (size 3 to 8) (size 9 to 14) (size 15 to 20)
#    0.000    1.793    2.759    1.655    1.931    0.552 
#    2.483    0.000    3.034    0.000    0.000    0.000 
#    0.000    0.000    0.000    0.000    0.000    0.000 
#
# Total GULP energy -323978.981010 kJ/mol
# GULP energy per Si atom -5585.844500 kJ/mol
# Density = 2.307419 g / cm^3
# Si number density = 23.126824 Si / 1000 Ang^3
#
#
#
# Elastic Constant Matrix: (Units=GPa)
#
#
# Indices 1 2 3 4 5 6 
#
# 1 56.9393 -12.3037 1.4688 0.0000 0.0000 -8.4887
# 2 -12.3037 56.9393 1.4688 0.0000 0.0000 8.4887
# 3 1.4688 1.4688 59.7642 0.0000 0.0000 0.0000
# 4 0.0000 0.0000 0.0000 22.5136 0.0000 0.0000
# 5 0.0000 0.0000 0.0000 0.0000 22.5136 0.0000
# 6 -8.4887 8.4887 0.0000 0.0000 0.0000 17.8960
#
#
#
# Elastic Compliance Matrix: (Units=1/GPa)
#
#
# Indices 1 2 3 4 5 6 
#
# 1 0.019391 0.003049 -0.000551 0.000000 0.000000 0.007752
# 2 0.003049 0.019391 -0.000551 0.000000 0.000000 -0.007752
# 3 -0.000551 -0.000551 0.016760 0.000000 0.000000 0.000000
# 4 0.000000 0.000000 0.000000 0.044418 0.000000 0.000000
# 5 0.000000 0.000000 0.000000 0.000000 0.044418 0.000000
# 6 0.007752 -0.007752 0.000000 0.000000 0.000000 0.063232
#
#
# Mechanical properties :
#
#
# Convention : Reuss Voigt Hill
#
# Bulk Modulus (GPa) = 16.82554 17.21228 17.01891
# Shear Modulus (GPa) = 22.36844 24.78525 23.57684
#
# Velocity S-wave (km/s) = 3.11337 3.27725 3.19636
# Velocity P-wave (km/s) = 4.49613 4.66682 4.58227
#
# Compressibility (1/GPa) = 0.05943347
#
# Stress axis : x y z
#
# Youngs Moduli (GPa) = 51.56966 51.56966 59.66757
#
# Poissons Ratio (x) = -0.15722 0.03291
# Poissons Ratio (y) = -0.15722 0.03291
# Poissons Ratio (z) = 0.02844 0.02844
#
# Static dielectric constant tensor:
#      x y z
#    x 1.889130 0.000000 0.000000 
#    y 0.000000 1.889130 0.000000 
#    z 0.000000 0.000000 1.925010 
# 
# From -- ./inp_files/1851.got.cif
#   From: 2010.05.17/outbox.cif.g08.bks.cpg/sg88_1_cif.got.tgz:1851.got - 2010.06.03 19:11:41.
