data_PCOD9546132
_publ_section_title
;
Structure prediction by ZEFSAII (Michael W. Deem and Ramdas Pophale) SiO2 
 PCOD9546132
Probable space group: I 4/M
;
_chemical_formula_sum "Si O2"
_cell_formula_units_Z 48
_cell_length_a 9.212566
_cell_length_b 9.212566
_cell_length_c 21.599657
_cell_angle_alpha 90.000000
_cell_angle_beta 90.000000
_cell_angle_gamma 90.000000
_cell_volume 1833.192531
_symmetry_space_group_name_H-M "I 4/M"
_symmetry_group_IT_number 87
_symmetry_cell_setting 'tetragonal'
loop_
_space_group_symop_operation_xyz
x,y,z
-y,x,z
-x,-y,z
y,-x,z
-x,-y,-z
y,-x,-z
x,y,-z
-y,x,-z
1/2+x,1/2+y,1/2+z
1/2-y,1/2+x,1/2+z
1/2-x,1/2-y,1/2+z
1/2+y,1/2-x,1/2+z
1/2-x,1/2-y,1/2-z
1/2+y,1/2-x,1/2-z
1/2+x,1/2+y,1/2-z
1/2-y,1/2+x,1/2-z
loop_
_atom_site_type_symbol
_atom_site_label
_atom_site_fract_x
_atom_site_fract_y
_atom_site_fract_z
Si Si1 0.274703 0.558684 0.925688
Si Si2 0.230172 0.034316 0.898381
Si Si3 0.326170 0.893783 0.772199
O O1 0.327769 0.399718 0.903216
O O2 0.114618 0.620071 0.913048
O O3 0.284067 0.550833 0.000000
O O4 0.114448 0.156438 0.921196
O O5 0.247368 0.980925 0.826659
O O6 0.250000 0.750000 0.750000
O O7 0.491457 0.843457 0.783925
#
# Coordination Sequence:
#
# PCOD9546132 Si02
#       3
#    16  16  16
#     4   9  21  45  75 108 147 190 238 294 361 439
#     4  11  24  44  67 105 145 186 238 298 358 428
#     4  11  24  45  71  98 138 186 237 299 365 429
#
# _framework density 26.183828999999999
#
# number of rings (size 3 to 8) (size 9 to 14) (size 15 to 20)
#    0.000    1.667    3.333    1.000    0.000    8.667 
#    0.000    5.000    0.000    0.000    0.000    0.000 
#    0.000    0.000    0.000    0.000    0.000    0.000 
#
# Total GULP energy -133761.698637 kJ/mol
# GULP energy per Si atom -5573.404110 kJ/mol
# Density = 2.612423 g / cm^3
# Si number density = 26.183829 Si / 1000 Ang^3
#
#
#
# Elastic Constant Matrix: (Units=GPa)
#
#
# Indices 1 2 3 4 5 6 
#
# 1 133.2939 122.3150 13.2985 0.0000 0.0000 -16.5820
# 2 122.3150 133.2939 13.2985 0.0000 0.0000 16.5820
# 3 13.2985 13.2985 59.0715 0.0000 0.0000 0.0000
# 4 0.0000 0.0000 0.0000 28.4235 0.0000 0.0000
# 5 0.0000 0.0000 0.0000 0.0000 28.4235 0.0000
# 6 -16.5820 16.5820 0.0000 0.0000 0.0000 72.3696
#
#
#
# Elastic Compliance Matrix: (Units=1/GPa)
#
#
# Indices 1 2 3 4 5 6 
#
# 1 0.149929 -0.145923 -0.000902 0.000000 0.000000 0.067788
# 2 -0.145923 0.149929 -0.000902 0.000000 0.000000 -0.067788
# 3 -0.000902 -0.000902 0.017335 0.000000 0.000000 0.000000
# 4 0.000000 0.000000 0.000000 0.035182 0.000000 0.000000
# 5 0.000000 0.000000 0.000000 0.000000 0.035182 0.000000
# 6 0.067788 -0.067788 0.000000 0.000000 0.000000 0.044883
#
#
# Mechanical properties :
#
#
# Convention : Reuss Voigt Hill
#
# Bulk Modulus (GPa) = 45.99951 69.27592 57.63771
# Shear Modulus (GPa) = 6.80144 37.62646 22.21395
#
# Velocity S-wave (km/s) = 1.61345 3.79491 2.91586
# Velocity P-wave (km/s) = 4.59097 6.76141 5.77900
#
# Compressibility (1/GPa) = 0.02173936
#
# Stress axis : x y z
#
# Youngs Moduli (GPa) = 6.66983 6.66983 57.68779
#
# Poissons Ratio (x) = 0.97328 0.05203
# Poissons Ratio (y) = 0.97328 0.05203
# Poissons Ratio (z) = 0.00602 0.00602
#
# Static dielectric constant tensor:
#      x y z
#    x 2.098620 0.000000 0.000000 
#    y 0.000000 2.098620 0.000000 
#    z 0.000000 0.000000 2.116760 
# 
# From -- ./inp_files/6357.got.cif
#   From: 2010.05.17/outbox.cif.g08.bks.cpg/sg87_4_cif.got.tgz:6357.got - 2010.06.03 19:07:00.
