data_PCOD9546824
_publ_section_title
;
Structure prediction by ZEFSAII (Michael W. Deem and Ramdas Pophale) SiO2 
 PCOD9546824
Probable space group: I 41/A
;
_chemical_formula_sum "Si O2"
_cell_formula_units_Z 64
_cell_length_a 10.166487
_cell_length_b 10.166487
_cell_length_c 26.518574
_cell_angle_alpha 90.000000
_cell_angle_beta 90.000000
_cell_angle_gamma 90.000000
_cell_volume 2740.892396
_symmetry_space_group_name_H-M "I 41/A"
_symmetry_group_IT_number 88
_space_group.IT_coordinate_system_code '2'
_symmetry_cell_setting 'tetragonal'
loop_
_space_group_symop_operation_xyz
x,y,z
3/4-y,1/4+x,1/4+z
-x,1/2-y,z
1/4+y,1/4-x,1/4+z
-x,-y,-z
1/4+y,3/4-x,3/4-z
x,1/2+y,-z
3/4-y,3/4+x,3/4-z
1/2+x,1/2+y,1/2+z
1/4-y,3/4+x,3/4+z
1/2-x,-y,1/2+z
3/4+y,3/4-x,3/4+z
1/2-x,1/2-y,1/2-z
3/4+y,1/4-x,1/4-z
1/2+x,y,1/2-z
1/4-y,1/4+x,1/4-z
loop_
_atom_site_type_symbol
_atom_site_label
_atom_site_fract_x
_atom_site_fract_y
_atom_site_fract_z
Si Si1 0.594637 0.423927 0.851272
Si Si2 0.112588 0.067528 0.967131
Si Si3 0.244163 0.182840 0.493511
Si Si4 0.533465 0.401649 0.633849
O O1 0.671230 0.301930 0.875332
O O2 0.577190 0.399409 0.791616
O O3 0.658566 0.565635 0.863440
O O4 0.062370 0.051051 0.910327
O O5 0.230996 0.969954 0.979904
O O6 0.146030 0.217068 0.982889
O O7 0.000000 0.000000 0.000000
O O8 0.213814 0.239677 0.438488
O O9 0.500000 0.250000 0.640539
#
# Coordination Sequence:
#
# PCOD9546824 Si02
#       4
#    16  16  16  16
#     4  11  26  50  74 107 149 192 252 314 368 458
#     4  12  25  50  71 111 154 196 249 317 374 456
#     4  12  28  46  78 107 153 202 249 313 385 450
#     4  12  27  46  75 110 146 197 247 311 377 457
#
# _framework density 23.350058000000001
#
# number of rings (size 3 to 8) (size 9 to 14) (size 15 to 20)
#    0.000    0.250    5.000    2.250   10.500    1.000 
#    0.000    0.000    0.000    0.000    0.000    0.000 
#    0.000    0.000    0.000    0.000    0.000    0.000 
#
# Total GULP energy -178754.896182 kJ/mol
# GULP energy per Si atom -5586.090506 kJ/mol
# Density = 2.329691 g / cm^3
# Si number density = 23.350058 Si / 1000 Ang^3
#
#
#
# Elastic Constant Matrix: (Units=GPa)
#
#
# Indices 1 2 3 4 5 6 
#
# 1 72.1038 14.5175 38.4781 0.0000 0.0000 9.1919
# 2 14.5175 72.1038 38.4781 0.0000 0.0000 -9.1919
# 3 38.4781 38.4781 246.7810 0.0000 0.0000 0.0000
# 4 0.0000 0.0000 0.0000 25.0467 0.0000 0.0000
# 5 0.0000 0.0000 0.0000 0.0000 25.0467 0.0000
# 6 9.1919 -9.1919 0.0000 0.0000 0.0000 36.5335
#
#
#
# Elastic Compliance Matrix: (Units=1/GPa)
#
#
# Indices 1 2 3 4 5 6 
#
# 1 0.016141 -0.002741 -0.002089 0.000000 0.000000 -0.004751
# 2 -0.002741 0.016141 -0.002089 0.000000 0.000000 0.004751
# 3 -0.002089 -0.002089 0.004704 0.000000 0.000000 0.000000
# 4 0.000000 0.000000 0.000000 0.039925 0.000000 0.000000
# 5 0.000000 0.000000 0.000000 0.000000 0.039925 0.000000
# 6 -0.004751 0.004751 0.000000 0.000000 0.000000 0.029763
#
#
# Mechanical properties :
#
#
# Convention : Reuss Voigt Hill
#
# Bulk Modulus (GPa) = 43.20106 63.77068 53.48587
# Shear Modulus (GPa) = 29.73452 37.29304 33.51378
#
# Velocity S-wave (km/s) = 3.57238 4.00074 3.79261
# Velocity P-wave (km/s) = 5.96301 6.97935 6.49110
#
# Compressibility (1/GPa) = 0.02314758
#
# Stress axis : x y z
#
# Youngs Moduli (GPa) = 61.95273 61.95273 212.59618
#
# Poissons Ratio (x) = 0.16978 0.44421
# Poissons Ratio (y) = 0.16978 0.44421
# Poissons Ratio (z) = 0.12945 0.12945
#
# Static dielectric constant tensor:
#      x y z
#    x 2.015330 0.000000 0.000000 
#    y 0.000000 2.015330 0.000000 
#    z 0.000000 0.000000 1.906170 
# 
# From -- ./inp_files/5127.got.cif
#   From: 2010.05.17/outbox.cif.g08.bks.cpg/sg88_3_cif.got.tgz:5127.got - 2010.06.03 19:11:41.
