data_PCOD9546101
_publ_section_title
;
Structure prediction by ZEFSAII (Michael W. Deem and Ramdas Pophale) SiO2 
 PCOD9546101
Probable space group: I 4/M
;
_chemical_formula_sum "Si O2"
_cell_formula_units_Z 112
_cell_length_a 15.817382
_cell_length_b 15.817382
_cell_length_c 23.481814
_cell_angle_alpha 90.000000
_cell_angle_beta 90.000000
_cell_angle_gamma 90.000000
_cell_volume 5874.905026
_symmetry_space_group_name_H-M "I 4/M"
_symmetry_group_IT_number 87
_symmetry_cell_setting 'tetragonal'
loop_
_space_group_symop_operation_xyz
x,y,z
-y,x,z
-x,-y,z
y,-x,z
-x,-y,-z
y,-x,-z
x,y,-z
-y,x,-z
1/2+x,1/2+y,1/2+z
1/2-y,1/2+x,1/2+z
1/2-x,1/2-y,1/2+z
1/2+y,1/2-x,1/2+z
1/2-x,1/2-y,1/2-z
1/2+y,1/2-x,1/2-z
1/2+x,1/2+y,1/2-z
1/2-y,1/2+x,1/2-z
loop_
_atom_site_type_symbol
_atom_site_label
_atom_site_fract_x
_atom_site_fract_y
_atom_site_fract_z
Si Si1 0.200236 0.813202 0.793223
Si Si2 0.555983 0.631190 0.209623
Si Si3 0.819053 0.564221 0.714395
Si Si4 0.971185 0.402453 0.435037
Si Si5 0.192314 0.538906 0.173349
Si Si6 0.513538 0.636315 0.431419
Si Si7 0.079921 0.300621 0.126421
O O1 0.250000 0.750000 0.750000
O O2 0.174451 0.904192 0.766150
O O3 0.113235 0.765072 0.805406
O O4 0.260573 0.836743 0.845135
O O5 0.457375 0.605927 0.205589
O O6 0.568495 0.710363 0.167231
O O7 0.809432 0.537708 0.780494
O O8 0.892318 0.631650 0.702599
O O9 0.835593 0.481557 0.676157
O O10 0.986560 0.375659 0.500000
O O11 0.873043 0.399586 0.418276
O O12 0.000000 0.500000 0.429679
O O13 0.016698 0.346965 0.387175
O O14 0.427238 0.589356 0.414595
O O15 0.513519 0.642274 0.500000
O O16 0.529332 0.725871 0.404078
#
# Coordination Sequence:
#
# PCOD9546101 Si02
#       7
#    16  16  16  16  16  16  16
#     4  12  21  37  58  93 132 159 198 250 312 390
#     4  11  23  39  61  91 130 174 209 252 316 385
#     4  12  23  36  61  98 127 168 201 254 322 387
#     4  11  25  43  63  89 124 170 218 268 324 375
#     4  12  23  40  64  91 133 163 215 260 316 387
#     4   9  19  37  59  84 120 167 212 253 300 365
#     4  12  22  37  59  93 128 163 205 259 316 384
#
# _framework density 19.064136999999999
#
# number of rings (size 3 to 8) (size 9 to 14) (size 15 to 20)
#    0.000    0.714    5.714    3.429    0.000    0.000 
#    0.000    1.429    0.000    3.429    0.000    1.000 
#    0.000    0.000    0.000    0.000    0.000    0.000 
#
# Total GULP energy -312630.235398 kJ/mol
# GULP energy per Si atom -5582.682775 kJ/mol
# Density = 1.902075 g / cm^3
# Si number density = 19.064137 Si / 1000 Ang^3
#
#
#
# Elastic Constant Matrix: (Units=GPa)
#
#
# Indices 1 2 3 4 5 6 
#
# 1 90.1636 22.1073 35.8200 0.0000 0.0000 3.4064
# 2 22.1073 90.1636 35.8200 0.0000 0.0000 -3.4064
# 3 35.8200 35.8200 87.4538 0.0000 0.0000 0.0000
# 4 0.0000 0.0000 0.0000 27.9510 0.0000 0.0000
# 5 0.0000 0.0000 0.0000 0.0000 27.9510 0.0000
# 6 3.4064 -3.4064 0.0000 0.0000 0.0000 33.8262
#
#
#
# Elastic Compliance Matrix: (Units=1/GPa)
#
#
# Indices 1 2 3 4 5 6 
#
# 1 0.013451 -0.001392 -0.004939 0.000000 0.000000 -0.001495
# 2 -0.001392 0.013451 -0.004939 0.000000 0.000000 0.001495
# 3 -0.004939 -0.004939 0.015481 0.000000 0.000000 0.000000
# 4 0.000000 0.000000 0.000000 0.035777 0.000000 0.000000
# 5 0.000000 0.000000 0.000000 0.000000 0.035777 0.000000
# 6 -0.001495 0.001495 0.000000 0.000000 0.000000 0.029864
#
#
# Mechanical properties :
#
#
# Convention : Reuss Voigt Hill
#
# Bulk Modulus (GPa) = 50.39923 50.58619 50.49271
# Shear Modulus (GPa) = 28.90920 29.54786 29.22853
#
# Velocity S-wave (km/s) = 3.89835 3.94117 3.91982
# Velocity P-wave (km/s) = 6.83790 6.87770 6.85783
#
# Compressibility (1/GPa) = 0.01984157
#
# Stress axis : x y z
#
# Youngs Moduli (GPa) = 74.34391 74.34391 64.59707
#
# Poissons Ratio (x) = 0.10351 0.31905
# Poissons Ratio (y) = 0.10351 0.31905
# Poissons Ratio (z) = 0.36719 0.36719
#
# Static dielectric constant tensor:
#      x y z
#    x 1.695200 0.000000 0.000000 
#    y 0.000000 1.695200 0.000000 
#    z 0.000000 0.000000 1.651590 
# 
# From -- ./inp_files/5927.got.cif
#   From: 2010.05.17/outbox.cif.g08.bks.cpg/sg87_3_cif.got.tgz:5927.got - 2010.06.03 19:07:00.
