data_PCOD9546504
_publ_section_title
;
Structure prediction by ZEFSAII (Michael W. Deem and Ramdas Pophale) SiO2 
 PCOD9546504
Probable space group: I 41/A
;
_chemical_formula_sum "Si O2"
_cell_formula_units_Z 88
_cell_length_a 16.689875
_cell_length_b 16.689875
_cell_length_c 13.248282
_cell_angle_alpha 90.000000
_cell_angle_beta 90.000000
_cell_angle_gamma 90.000000
_cell_volume 3690.334487
_symmetry_space_group_name_H-M "I 41/A"
_symmetry_group_IT_number 88
_space_group.IT_coordinate_system_code '2'
_symmetry_cell_setting 'tetragonal'
loop_
_space_group_symop_operation_xyz
x,y,z
3/4-y,1/4+x,1/4+z
-x,1/2-y,z
1/4+y,1/4-x,1/4+z
-x,-y,-z
1/4+y,3/4-x,3/4-z
x,1/2+y,-z
3/4-y,3/4+x,3/4-z
1/2+x,1/2+y,1/2+z
1/4-y,3/4+x,3/4+z
1/2-x,-y,1/2+z
3/4+y,3/4-x,3/4+z
1/2-x,1/2-y,1/2-z
3/4+y,1/4-x,1/4-z
1/2+x,y,1/2-z
1/4-y,1/4+x,1/4-z
loop_
_atom_site_type_symbol
_atom_site_label
_atom_site_fract_x
_atom_site_fract_y
_atom_site_fract_z
Si Si1 0.656455 0.172961 0.681028
Si Si2 0.890358 0.289105 0.176059
Si Si3 0.214218 0.602057 0.589735
Si Si4 0.566982 0.493268 0.862547
Si Si5 0.500000 0.750000 0.859941
Si Si6 0.239416 0.891586 0.694142
O O1 0.682930 0.162083 0.796557
O O2 0.725522 0.226977 0.628244
O O3 0.576284 0.225050 0.673833
O O4 0.643980 0.091107 0.619286
O O5 0.901537 0.211007 0.108567
O O6 0.922082 0.266518 0.287777
O O7 0.806619 0.330545 0.154871
O O8 0.209568 0.663468 0.497730
O O9 0.128284 0.567735 0.621720
O O10 0.260635 0.633097 0.688470
O O11 0.269145 0.527049 0.554846
#
# Coordination Sequence:
#
# PCOD9546504 Si02
#       6
#    16  16  16  16   8  16
#     4  11  24  44  73 103 150 196 247 303 371 447
#     4   9  22  44  67 102 156 180 225 315 382 430
#     4  10  22  45  71 106 145 182 248 306 367 443
#     4  10  23  48  71 100 148 199 242 313 364 431
#     4  10  21  42  66 109 146 190 240 301 379 450
#     4  11  23  42  74 109 138 189 249 294 374 451
#
# _framework density 23.846077000000001
#
# number of rings (size 3 to 8) (size 9 to 14) (size 15 to 20)
#    0.000    2.000    0.000    4.364    5.091    0.727 
#    3.273   10.909    0.000    3.273    0.000    0.000 
#    0.000    0.000    0.000    0.000    0.000    0.000 
#
# Total GULP energy -246237.316562 kJ/mol
# GULP energy per Si atom -5596.302649 kJ/mol
# Density = 2.379180 g / cm^3
# Si number density = 23.846077 Si / 1000 Ang^3
#
#
#
# Elastic Constant Matrix: (Units=GPa)
#
#
# Indices 1 2 3 4 5 6 
#
# 1 103.1479 28.9696 40.9764 0.0000 0.0000 -10.4421
# 2 28.9696 103.1479 40.9764 0.0000 0.0000 10.4421
# 3 40.9764 40.9764 137.0266 0.0000 0.0000 0.0000
# 4 0.0000 0.0000 0.0000 16.4448 0.0000 0.0000
# 5 0.0000 0.0000 0.0000 0.0000 16.4448 0.0000
# 6 -10.4421 10.4421 0.0000 0.0000 0.0000 32.1593
#
#
#
# Elastic Compliance Matrix: (Units=1/GPa)
#
#
# Indices 1 2 3 4 5 6 
#
# 1 0.012065 -0.002772 -0.002779 0.000000 0.000000 0.004818
# 2 -0.002772 0.012065 -0.002779 0.000000 0.000000 -0.004818
# 3 -0.002779 -0.002779 0.008960 0.000000 0.000000 0.000000
# 4 0.000000 0.000000 0.000000 0.060810 0.000000 0.000000
# 5 0.000000 0.000000 0.000000 0.000000 0.060810 0.000000
# 6 0.004818 -0.004818 0.000000 0.000000 0.000000 0.034224
#
#
# Mechanical properties :
#
#
# Convention : Reuss Voigt Hill
#
# Bulk Modulus (GPa) = 60.86506 62.79634 61.83070
# Shear Modulus (GPa) = 23.68884 28.50312 26.09598
#
# Velocity S-wave (km/s) = 3.15525 3.46106 3.31169
# Velocity P-wave (km/s) = 6.23328 6.50869 6.37247
#
# Compressibility (1/GPa) = 0.01642979
#
# Stress axis : x y z
#
# Youngs Moduli (GPa) = 82.88375 82.88375 111.60889
#
# Poissons Ratio (x) = 0.22978 0.31015
# Poissons Ratio (y) = 0.22978 0.31015
# Poissons Ratio (z) = 0.23033 0.23033
#
# Static dielectric constant tensor:
#      x y z
#    x 1.945440 0.000000 0.000000 
#    y 0.000000 1.945440 0.000000 
#    z 0.000000 0.000000 1.973280 
# 
# From -- ./inp_files/3194.got.cif
#   From: 2010.05.17/outbox.cif.g08.bks.cpg/sg88_2_cif.got.tgz:3194.got - 2010.06.03 19:11:41.
