data_PCOD9546267
_publ_section_title
;
Structure prediction by ZEFSAII (Michael W. Deem and Ramdas Pophale) SiO2 
 PCOD9546267
Probable space group: I 41/A
;
_chemical_formula_sum "Si O2"
_cell_formula_units_Z 72
_cell_length_a 17.568314
_cell_length_b 17.568314
_cell_length_c 9.746841
_cell_angle_alpha 90.000000
_cell_angle_beta 90.000000
_cell_angle_gamma 90.000000
_cell_volume 3008.320142
_symmetry_space_group_name_H-M "I 41/A"
_symmetry_group_IT_number 88
_space_group.IT_coordinate_system_code '2'
_symmetry_cell_setting 'tetragonal'
loop_
_space_group_symop_operation_xyz
x,y,z
3/4-y,1/4+x,1/4+z
-x,1/2-y,z
1/4+y,1/4-x,1/4+z
-x,-y,-z
1/4+y,3/4-x,3/4-z
x,1/2+y,-z
3/4-y,3/4+x,3/4-z
1/2+x,1/2+y,1/2+z
1/4-y,3/4+x,3/4+z
1/2-x,-y,1/2+z
3/4+y,3/4-x,3/4+z
1/2-x,1/2-y,1/2-z
3/4+y,1/4-x,1/4-z
1/2+x,y,1/2-z
1/4-y,1/4+x,1/4-z
loop_
_atom_site_type_symbol
_atom_site_label
_atom_site_fract_x
_atom_site_fract_y
_atom_site_fract_z
Si Si1 0.007145 0.119138 0.963785
Si Si2 0.000000 0.750000 0.875000
Si Si3 0.953699 0.613004 0.557015
Si Si4 0.000000 0.250000 0.625000
Si Si5 0.258058 0.761614 0.534271
Si Si6 0.293110 0.064848 0.992458
O O1 0.086445 0.158885 0.922029
O O2 0.013128 0.061597 0.090343
O O3 0.979016 0.074181 0.829803
O O4 0.960350 0.188910 0.026331
O O5 0.000295 0.548843 0.638977
O O6 0.883237 0.578472 0.471520
O O7 0.998916 0.674207 0.467569
O O8 0.242654 0.853227 0.536014
O O9 0.287261 0.003063 0.111719
#
# Coordination Sequence:
#
# PCOD9546267 Si02
#       6
#    16   4  16   4  16  16
#     4  10  19  33  60  95 126 167 216 279 347 406
#     4  12  18  28  60  98 136 174 220 288 358 416
#     4  10  21  39  60  88 133 177 223 277 339 412
#     4  12  26  40  62  96 136 194 228 282 360 412
#     4   9  19  36  61  93 127 167 219 282 342 407
#     4   9  19  40  65  87 123 171 226 287 345 412
#
# _framework density 23.933622
#
# number of rings (size 3 to 8) (size 9 to 14) (size 15 to 20)
#    0.000    2.222    2.222    0.667    0.000    0.000 
#    4.000   10.000    0.000    0.000    0.000    0.000 
#    0.000    0.000    0.000    0.000    0.000    0.000 
#
# Total GULP energy -200941.941114 kJ/mol
# GULP energy per Si atom -5581.720587 kJ/mol
# Density = 2.387915 g / cm^3
# Si number density = 23.933622 Si / 1000 Ang^3
#
#
#
# Elastic Constant Matrix: (Units=GPa)
#
#
# Indices 1 2 3 4 5 6 
#
# 1 77.9746 43.6023 61.6190 0.0000 0.0000 -5.6483
# 2 43.6023 77.9746 61.6190 0.0000 0.0000 5.6483
# 3 61.6190 61.6190 132.9162 0.0000 0.0000 0.0000
# 4 0.0000 0.0000 0.0000 24.8563 0.0000 0.0000
# 5 0.0000 0.0000 0.0000 0.0000 24.8563 0.0000
# 6 -5.6483 5.6483 0.0000 0.0000 0.0000 29.1077
#
#
#
# Elastic Compliance Matrix: (Units=1/GPa)
#
#
# Indices 1 2 3 4 5 6 
#
# 1 0.023296 -0.007779 -0.007194 0.000000 0.000000 0.006030
# 2 -0.007779 0.023296 -0.007194 0.000000 0.000000 -0.006030
# 3 -0.007194 -0.007194 0.014193 0.000000 0.000000 0.000000
# 4 0.000000 0.000000 0.000000 0.040231 0.000000 0.000000
# 5 0.000000 0.000000 0.000000 0.000000 0.040231 0.000000
# 6 0.006030 -0.006030 0.000000 0.000000 0.000000 0.036695
#
#
# Mechanical properties :
#
#
# Convention : Reuss Voigt Hill
#
# Bulk Modulus (GPa) = 60.77866 69.17178 64.97522
# Shear Modulus (GPa) = 21.95293 23.89909 22.92601
#
# Velocity S-wave (km/s) = 3.03189 3.16342 3.09835
# Velocity P-wave (km/s) = 6.14054 6.50440 6.32509
#
# Compressibility (1/GPa) = 0.01645314
#
# Stress axis : x y z
#
# Youngs Moduli (GPa) = 42.92573 42.92573 70.45534
#
# Poissons Ratio (x) = 0.33391 0.50683
# Poissons Ratio (y) = 0.33391 0.50683
# Poissons Ratio (z) = 0.30879 0.30879
#
# Static dielectric constant tensor:
#      x y z
#    x 1.931560 0.000000 0.000000 
#    y 0.000000 1.931560 0.000000 
#    z 0.000000 0.000000 1.962490 
# 
# From -- ./inp_files/2460.got.cif
#   From: 2010.05.17/outbox.cif.g08.bks.cpg/sg88_2_cif.got.tgz:2460.got - 2010.06.03 19:11:41.
