data_PCOD9546784
_publ_section_title
;
Structure prediction by ZEFSAII (Michael W. Deem and Ramdas Pophale) SiO2 
 PCOD9546784
Probable space group: I 41/A
;
_chemical_formula_sum "Si O2"
_cell_formula_units_Z 108
_cell_length_a 13.872985
_cell_length_b 13.872985
_cell_length_c 29.779035
_cell_angle_alpha 90.000000
_cell_angle_beta 90.000000
_cell_angle_gamma 90.000000
_cell_volume 5731.264524
_symmetry_space_group_name_H-M "I 41/A"
_symmetry_group_IT_number 88
_space_group.IT_coordinate_system_code '2'
_symmetry_cell_setting 'tetragonal'
loop_
_space_group_symop_operation_xyz
x,y,z
3/4-y,1/4+x,1/4+z
-x,1/2-y,z
1/4+y,1/4-x,1/4+z
-x,-y,-z
1/4+y,3/4-x,3/4-z
x,1/2+y,-z
3/4-y,3/4+x,3/4-z
1/2+x,1/2+y,1/2+z
1/4-y,3/4+x,3/4+z
1/2-x,-y,1/2+z
3/4+y,3/4-x,3/4+z
1/2-x,1/2-y,1/2-z
3/4+y,1/4-x,1/4-z
1/2+x,y,1/2-z
1/4-y,1/4+x,1/4-z
loop_
_atom_site_type_symbol
_atom_site_label
_atom_site_fract_x
_atom_site_fract_y
_atom_site_fract_z
Si Si1 0.000000 0.750000 0.610996
Si Si2 0.611726 0.978455 0.495421
Si Si3 0.821310 0.160029 0.440269
Si Si4 0.412395 0.926865 0.675815
Si Si5 0.500000 0.750000 0.625000
Si Si6 0.892091 0.505373 0.717789
Si Si7 0.268592 0.485599 0.873031
Si Si8 0.416833 0.921635 0.827925
O O1 0.916418 0.706707 0.580324
O O2 0.959370 0.835639 0.642165
O O3 0.651918 0.900696 0.530740
O O4 0.632908 0.926504 0.448710
O O5 0.500000 0.000000 0.500000
O O6 0.664528 0.078528 0.506168
O O7 0.737649 0.240674 0.433866
O O8 0.827049 0.143013 0.493956
O O9 0.800135 0.064255 0.410542
O O10 0.441695 0.825829 0.654406
O O11 0.337729 0.983631 0.644144
O O12 0.837927 0.486958 0.670542
O O13 0.998292 0.541559 0.704563
O O14 0.257906 0.378519 0.892845
#
# Coordination Sequence:
#
# PCOD9546784 Si02
#       8
#     8  16  16  16   4  16  16  16
#     4  12  26  41  70 102 135 185 242 285 352 408
#     4  11  25  37  61  99 137 177 222 271 338 424
#     4  12  23  45  66  98 138 181 233 286 341 421
#     4  11  24  36  58  92 139 176 219 266 333 411
#     4  12  24  30  56  92 132 184 200 262 324 412
#     4  11  25  45  66  97 131 180 231 281 346 413
#     4  11  24  43  64  95 136 180 223 284 345 404
#     4  12  23  42  67  97 137 179 222 282 343 412
#
# _framework density 18.844009
#
# number of rings (size 3 to 8) (size 9 to 14) (size 15 to 20)
#    0.000    0.593    7.407    0.889    6.222    0.593 
#    0.000    2.222    0.000    0.000    0.000    0.000 
#    0.000    0.000    0.000    0.000    0.000    0.000 
#
# Total GULP energy -301533.352773 kJ/mol
# GULP energy per Si atom -5583.950977 kJ/mol
# Density = 1.880112 g / cm^3
# Si number density = 18.844009 Si / 1000 Ang^3
#
#
#
# Elastic Constant Matrix: (Units=GPa)
#
#
# Indices 1 2 3 4 5 6 
#
# 1 78.1938 19.4649 53.6703 0.0000 0.0000 0.9752
# 2 19.4649 78.1938 53.6703 0.0000 0.0000 -0.9752
# 3 53.6703 53.6703 129.6447 0.0000 0.0000 0.0000
# 4 0.0000 0.0000 0.0000 48.1092 0.0000 0.0000
# 5 0.0000 0.0000 0.0000 0.0000 48.1092 0.0000
# 6 0.9752 -0.9752 0.0000 0.0000 0.0000 -5.2609
#
#
#
# Elastic Compliance Matrix: (Units=1/GPa)
#
#
# Indices 1 2 3 4 5 6 
#
# 1 0.017856 0.000933 -0.007778 0.000000 0.000000 0.003137
# 2 0.000933 0.017856 -0.007778 0.000000 0.000000 -0.003137
# 3 -0.007778 -0.007778 0.014154 0.000000 0.000000 0.000000
# 4 0.000000 0.000000 0.000000 0.020786 0.000000 0.000000
# 5 0.000000 0.000000 0.000000 0.000000 0.020786 0.000000
# 6 0.003137 -0.003137 0.000000 0.000000 0.000000 -0.188918
#
#
# Mechanical properties :
#
#
# Convention : Reuss Voigt Hill
#
# Bulk Modulus (GPa) = 48.49994 59.96039 54.23017
# Shear Modulus (GPa) = -81.48630 28.80662 -26.33984
#
# Velocity S-wave (km/s) = -6.58304 3.91409 -3.74275
# Velocity P-wave (km/s) = 5.65583 7.23292 3.18800
#
# Compressibility (1/GPa) = 0.02061858
#
# Stress axis : x y z
#
# Youngs Moduli (GPa) = 56.00284 56.00284 70.65353
#
# Poissons Ratio (x) = -0.05225 0.54957
# Poissons Ratio (y) = -0.05225 0.54957
# Poissons Ratio (z) = 0.43561 0.43561
#
# Static dielectric constant tensor:
#      x y z
#    x 1.644250 0.000000 0.000000 
#    y 0.000000 1.644250 0.000000 
#    z 0.000000 0.000000 1.727970 
# 
# From -- ./inp_files/5897.got.cif
#   From: 2010.05.17/outbox.cif.g08.bks.cpg/sg88_3_cif.got.tgz:5897.got - 2010.06.03 19:11:41.
