data_PCOD9546491
_publ_section_title
;
Structure prediction by ZEFSAII (Michael W. Deem and Ramdas Pophale) SiO2 
 PCOD9546491
Probable space group: I 41/A
;
_chemical_formula_sum "Si O2"
_cell_formula_units_Z 96
_cell_length_a 20.356858
_cell_length_b 20.356858
_cell_length_c 9.382642
_cell_angle_alpha 90.000000
_cell_angle_beta 90.000000
_cell_angle_gamma 90.000000
_cell_volume 3888.182492
_symmetry_space_group_name_H-M "I 41/A"
_symmetry_group_IT_number 88
_space_group.IT_coordinate_system_code '2'
_symmetry_cell_setting 'tetragonal'
loop_
_space_group_symop_operation_xyz
x,y,z
3/4-y,1/4+x,1/4+z
-x,1/2-y,z
1/4+y,1/4-x,1/4+z
-x,-y,-z
1/4+y,3/4-x,3/4-z
x,1/2+y,-z
3/4-y,3/4+x,3/4-z
1/2+x,1/2+y,1/2+z
1/4-y,3/4+x,3/4+z
1/2-x,-y,1/2+z
3/4+y,3/4-x,3/4+z
1/2-x,1/2-y,1/2-z
3/4+y,1/4-x,1/4-z
1/2+x,y,1/2-z
1/4-y,1/4+x,1/4-z
loop_
_atom_site_type_symbol
_atom_site_label
_atom_site_fract_x
_atom_site_fract_y
_atom_site_fract_z
Si Si1 0.672621 0.667101 0.927281
Si Si2 0.319563 0.996842 0.102874
Si Si3 0.073662 0.176889 0.164172
Si Si4 0.624742 0.540255 0.535863
Si Si5 0.920537 0.181803 0.599485
Si Si6 0.944824 0.959967 0.232931
O O1 0.621127 0.686983 0.801740
O O2 0.727988 0.615628 0.886374
O O3 0.714128 0.727595 0.993535
O O4 0.623865 0.643998 0.048058
O O5 0.272705 0.945222 0.191847
O O6 0.396678 0.984591 0.143686
O O7 0.304344 0.061294 0.196884
O O8 0.080338 0.243950 0.069463
O O9 0.098702 0.107195 0.103579
O O10 0.574109 0.511348 0.419038
O O11 0.918309 0.253053 0.675826
O O12 0.869484 0.184121 0.471810
#
# Coordination Sequence:
#
# PCOD9546491 Si02
#       6
#    16  16  16  16  16  16
#     4  11  23  42  65  95 131 169 220 270 332 397
#     4  10  23  40  65  90 125 172 218 267 328 395
#     4  11  24  37  63  96 127 167 218 277 323 393
#     4  11  23  40  65  91 131 165 218 266 336 386
#     4   9  21  39  66  94 128 168 214 265 325 389
#     4  10  21  41  65  90 128 170 209 267 328 389
#
# _framework density 24.690197000000001
#
# number of rings (size 3 to 8) (size 9 to 14) (size 15 to 20)
#    0.000    1.667    1.667    2.500    7.000    1.333 
#    0.000    0.000    0.000   10.000    0.000    0.000 
#    0.000    0.000    0.000    0.000    0.000    0.000 
#
# Total GULP energy -267700.626656 kJ/mol
# GULP energy per Si atom -5577.096389 kJ/mol
# Density = 2.463400 g / cm^3
# Si number density = 24.690197 Si / 1000 Ang^3
#
#
#
# Elastic Constant Matrix: (Units=GPa)
#
#
# Indices 1 2 3 4 5 6 
#
# 1 82.8879 22.1188 22.7150 0.0000 0.0000 -23.6449
# 2 22.1188 82.8879 22.7150 0.0000 0.0000 23.6449
# 3 22.7150 22.7150 53.8459 0.0000 0.0000 0.0000
# 4 0.0000 0.0000 0.0000 28.1523 0.0000 0.0000
# 5 0.0000 0.0000 0.0000 0.0000 28.1523 0.0000
# 6 -23.6449 23.6449 0.0000 0.0000 0.0000 -14.6107
#
#
#
# Elastic Compliance Matrix: (Units=1/GPa)
#
#
# Indices 1 2 3 4 5 6 
#
# 1 0.009466 0.002183 -0.004914 0.000000 0.000000 -0.011787
# 2 0.002183 0.009466 -0.004914 0.000000 0.000000 0.011787
# 3 -0.004914 -0.004914 0.022718 0.000000 0.000000 0.000000
# 4 0.000000 0.000000 0.000000 0.035521 0.000000 0.000000
# 5 0.000000 0.000000 0.000000 0.000000 0.035521 0.000000
# 6 -0.011787 0.011787 0.000000 0.000000 0.000000 -0.030293
#
#
# Mechanical properties :
#
#
# Convention : Reuss Voigt Hill
#
# Bulk Modulus (GPa) = 37.93744 39.41327 38.67535
# Shear Modulus (GPa) = 46.95843 18.47695 32.71769
#
# Velocity S-wave (km/s) = 4.36582 2.73857 3.64418
# Velocity P-wave (km/s) = 6.38847 5.09877 5.77971
#
# Compressibility (1/GPa) = 0.02635919
#
# Stress axis : x y z
#
# Youngs Moduli (GPa) = 105.63745 105.63745 44.01854
#
# Poissons Ratio (x) = -0.23060 0.21632
# Poissons Ratio (y) = -0.23060 0.21632
# Poissons Ratio (z) = 0.51913 0.51913
#
# Static dielectric constant tensor:
#      x y z
#    x 2.001290 0.000000 0.000000 
#    y 0.000000 2.001290 0.000000 
#    z 0.000000 0.000000 1.922050 
# 
# From -- ./inp_files/2595.got.cif
#   From: 2010.05.17/outbox.cif.g08.bks.cpg/sg88_2_cif.got.tgz:2595.got - 2010.06.03 19:11:41.
