data_PCOD9546840
_publ_section_title
;
Structure prediction by ZEFSAII (Michael W. Deem and Ramdas Pophale) SiO2 
 PCOD9546840
Probable space group: I 41/A
;
_chemical_formula_sum "Si O2"
_cell_formula_units_Z 64
_cell_length_a 11.161858
_cell_length_b 11.161858
_cell_length_c 21.768351
_cell_angle_alpha 90.000000
_cell_angle_beta 90.000000
_cell_angle_gamma 90.000000
_cell_volume 2712.055157
_symmetry_space_group_name_H-M "I 41/A"
_symmetry_group_IT_number 88
_space_group.IT_coordinate_system_code '2'
_symmetry_cell_setting 'tetragonal'
loop_
_space_group_symop_operation_xyz
x,y,z
3/4-y,1/4+x,1/4+z
-x,1/2-y,z
1/4+y,1/4-x,1/4+z
-x,-y,-z
1/4+y,3/4-x,3/4-z
x,1/2+y,-z
3/4-y,3/4+x,3/4-z
1/2+x,1/2+y,1/2+z
1/4-y,3/4+x,3/4+z
1/2-x,-y,1/2+z
3/4+y,3/4-x,3/4+z
1/2-x,1/2-y,1/2-z
3/4+y,1/4-x,1/4-z
1/2+x,y,1/2-z
1/4-y,1/4+x,1/4-z
loop_
_atom_site_type_symbol
_atom_site_label
_atom_site_fract_x
_atom_site_fract_y
_atom_site_fract_z
Si Si1 0.092434 0.530087 0.678222
Si Si2 0.121188 0.324143 0.047663
Si Si3 0.029458 0.545431 0.106174
Si Si4 0.276450 0.319768 0.685271
O O1 0.030509 0.538826 0.743977
O O2 0.131692 0.668188 0.670457
O O3 0.200529 0.440210 0.686766
O O4 0.018875 0.487490 0.619619
O O5 0.105634 0.469553 0.055420
O O6 0.186166 0.282706 0.108840
O O7 0.000000 0.250000 0.039287
O O8 0.099258 0.629794 0.154799
O O9 0.250000 0.250000 0.750000
#
# Coordination Sequence:
#
# PCOD9546840 Si02
#       4
#    16  16  16  16
#     4  12  28  47  76 109 156 209 262 321 393 478
#     4  12  22  44  79 115 151 191 256 334 406 464
#     4  12  23  48  76 116 150 195 259 329 393 467
#     4  12  29  51  76 111 159 209 261 320 397 486
#
# _framework density 23.59834
#
# number of rings (size 3 to 8) (size 9 to 14) (size 15 to 20)
#    0.000    0.000    5.000    4.500    3.500    0.500 
#    0.000    0.000    0.000    0.000    0.000    0.000 
#    0.000    0.000    0.000    0.000    0.000    0.000 
#
# Total GULP energy -178512.591104 kJ/mol
# GULP energy per Si atom -5578.518472 kJ/mol
# Density = 2.354463 g / cm^3
# Si number density = 23.598340 Si / 1000 Ang^3
#
#
#
# Elastic Constant Matrix: (Units=GPa)
#
#
# Indices 1 2 3 4 5 6 
#
# 1 80.9174 28.4803 23.0164 0.0000 0.0000 7.3408
# 2 28.4803 80.9174 23.0164 0.0000 0.0000 -7.3408
# 3 23.0164 23.0164 120.6704 0.0000 0.0000 0.0000
# 4 0.0000 0.0000 0.0000 38.1790 0.0000 0.0000
# 5 0.0000 0.0000 0.0000 0.0000 38.1790 0.0000
# 6 7.3408 -7.3408 0.0000 0.0000 0.0000 33.2269
#
#
#
# Elastic Compliance Matrix: (Units=1/GPa)
#
#
# Indices 1 2 3 4 5 6 
#
# 1 0.015133 -0.005195 -0.001896 0.000000 0.000000 -0.004491
# 2 -0.005195 0.015133 -0.001896 0.000000 0.000000 0.004491
# 3 -0.001896 -0.001896 0.009010 0.000000 0.000000 0.000000
# 4 0.000000 0.000000 0.000000 0.026192 0.000000 0.000000
# 5 0.000000 0.000000 0.000000 0.000000 0.026192 0.000000
# 6 -0.004491 0.004491 0.000000 0.000000 0.000000 0.032080
#
#
# Mechanical properties :
#
#
# Convention : Reuss Voigt Hill
#
# Bulk Modulus (GPa) = 46.93786 47.94793 47.44290
# Shear Modulus (GPa) = 33.59864 35.78312 34.69088
#
# Velocity S-wave (km/s) = 3.77738 3.89825 3.83829
# Velocity P-wave (km/s) = 6.24166 6.37371 6.30803
#
# Compressibility (1/GPa) = 0.02130476
#
# Stress axis : x y z
#
# Youngs Moduli (GPa) = 66.07962 66.07962 110.98547
#
# Poissons Ratio (x) = 0.34326 0.21039
# Poissons Ratio (y) = 0.34326 0.21039
# Poissons Ratio (z) = 0.12527 0.12527
#
# Static dielectric constant tensor:
#      x y z
#    x 1.981300 0.000000 0.000000 
#    y 0.000000 1.981300 0.000000 
#    z 0.000000 0.000000 2.031460 
# 
# From -- ./inp_files/4421.got.cif
#   From: 2010.05.17/outbox.cif.g08.bks.cpg/sg88_3_cif.got.tgz:4421.got - 2010.06.03 19:11:41.
