data_PCOD9546145
_publ_section_title
;
Structure prediction by ZEFSAII (Michael W. Deem and Ramdas Pophale) SiO2 
 PCOD9546145
Probable space group: I 4/M
;
_chemical_formula_sum "Si O2"
_cell_formula_units_Z 56
_cell_length_a 13.698262
_cell_length_b 13.698262
_cell_length_c 13.659229
_cell_angle_alpha 90.000000
_cell_angle_beta 90.000000
_cell_angle_gamma 90.000000
_cell_volume 2563.050263
_symmetry_space_group_name_H-M "I 4/M"
_symmetry_group_IT_number 87
_symmetry_cell_setting 'tetragonal'
loop_
_space_group_symop_operation_xyz
x,y,z
-y,x,z
-x,-y,z
y,-x,z
-x,-y,-z
y,-x,-z
x,y,-z
-y,x,-z
1/2+x,1/2+y,1/2+z
1/2-y,1/2+x,1/2+z
1/2-x,1/2-y,1/2+z
1/2+y,1/2-x,1/2+z
1/2-x,1/2-y,1/2-z
1/2+y,1/2-x,1/2-z
1/2+x,1/2+y,1/2-z
1/2-y,1/2+x,1/2-z
loop_
_atom_site_type_symbol
_atom_site_label
_atom_site_fract_x
_atom_site_fract_y
_atom_site_fract_z
Si Si1 0.952932 0.155291 0.273369
Si Si2 0.341475 0.821933 0.272972
Si Si3 0.157345 0.048694 0.500000
Si Si4 0.382994 0.014179 0.611394
O O1 0.924129 0.241560 0.200359
O O2 0.937683 0.190730 0.386327
O O3 0.062000 0.116776 0.260402
O O4 0.250000 0.750000 0.250000
O O5 0.335528 0.913183 0.346395
O O6 0.389699 0.869747 0.177065
O O7 0.062019 0.118612 0.500000
O O8 0.349028 0.027419 0.500000
O O9 0.500000 0.000000 0.611321
#
# Coordination Sequence:
#
# PCOD9546145 Si02
#       4
#    16  16   8  16
#     4   9  18  32  55  91 136 176 216 283 353 413
#     4  12  23  41  69 101 135 179 237 292 351 432
#     4   7  12  26  46  80 127 169 205 254 335 407
#     4  11  25  48  71  95 140 190 234 290 354 425
#
# _framework density 21.848966000000001
#
# number of rings (size 3 to 8) (size 9 to 14) (size 15 to 20)
#    0.000    1.857    2.857    3.429    2.000    1.143 
#    5.143    0.000    0.000    0.000    0.000    2.000 
#    0.000    0.000    0.000    0.000    0.000    0.000 
#
# Total GULP energy -156021.921298 kJ/mol
# GULP energy per Si atom -5572.211475 kJ/mol
# Density = 2.179924 g / cm^3
# Si number density = 21.848966 Si / 1000 Ang^3
#
#
#
# Elastic Constant Matrix: (Units=GPa)
#
#
# Indices 1 2 3 4 5 6 
#
# 1 92.1141 33.6283 31.8474 0.0000 0.0000 21.1367
# 2 33.6283 92.1141 31.8474 0.0000 0.0000 -21.1367
# 3 31.8474 31.8474 74.6163 0.0000 0.0000 0.0000
# 4 0.0000 0.0000 0.0000 35.4239 0.0000 0.0000
# 5 0.0000 0.0000 0.0000 0.0000 35.4239 0.0000
# 6 21.1367 -21.1367 0.0000 0.0000 0.0000 55.3661
#
#
#
# Elastic Compliance Matrix: (Units=1/GPa)
#
#
# Indices 1 2 3 4 5 6 
#
# 1 0.016880 -0.006734 -0.004331 0.000000 0.000000 -0.009015
# 2 -0.006734 0.016880 -0.004331 0.000000 0.000000 0.009015
# 3 -0.004331 -0.004331 0.017099 0.000000 0.000000 0.000000
# 4 0.000000 0.000000 0.000000 0.028230 0.000000 0.000000
# 5 0.000000 0.000000 0.000000 0.000000 0.028230 0.000000
# 6 -0.009015 0.009015 0.000000 0.000000 0.000000 0.024945
#
#
# Mechanical properties :
#
#
# Convention : Reuss Voigt Hill
#
# Bulk Modulus (GPa) = 49.82823 50.38786 50.10804
# Shear Modulus (GPa) = 29.45623 36.01085 32.73354
#
# Velocity S-wave (km/s) = 3.67573 4.06417 3.87482
# Velocity P-wave (km/s) = 6.39296 6.71828 6.55764
#
# Compressibility (1/GPa) = 0.02006895
#
# Stress axis : x y z
#
# Youngs Moduli (GPa) = 59.24055 59.24055 58.48395
#
# Poissons Ratio (x) = 0.39892 0.25327
# Poissons Ratio (y) = 0.39892 0.25328
# Poissons Ratio (z) = 0.25655 0.25655
#
# Static dielectric constant tensor:
#      x y z
#    x 1.937630 0.000000 0.000000 
#    y 0.000000 1.937630 0.000000 
#    z 0.000000 0.000000 1.790050 
# 
# From -- ./inp_files/3272.got.cif
#   From: 2010.05.17/outbox.cif.g08.bks.cpg/sg87_2_cif.got.tgz:3272.got - 2010.06.03 19:07:00.
