data_PCOD9546103
_publ_section_title
;
Structure prediction by ZEFSAII (Michael W. Deem and Ramdas Pophale) SiO2 
 PCOD9546103
Probable space group: I 4/M
;
_chemical_formula_sum "Si O2"
_cell_formula_units_Z 60
_cell_length_a 14.021843
_cell_length_b 14.021843
_cell_length_c 14.663418
_cell_angle_alpha 90.000000
_cell_angle_beta 90.000000
_cell_angle_gamma 90.000000
_cell_volume 2883.005129
_symmetry_space_group_name_H-M "I 4/M"
_symmetry_group_IT_number 87
_symmetry_cell_setting 'tetragonal'
loop_
_space_group_symop_operation_xyz
x,y,z
-y,x,z
-x,-y,z
y,-x,z
-x,-y,-z
y,-x,-z
x,y,-z
-y,x,-z
1/2+x,1/2+y,1/2+z
1/2-y,1/2+x,1/2+z
1/2-x,1/2-y,1/2+z
1/2+y,1/2-x,1/2+z
1/2-x,1/2-y,1/2-z
1/2+y,1/2-x,1/2-z
1/2+x,1/2+y,1/2-z
1/2-y,1/2+x,1/2-z
loop_
_atom_site_type_symbol
_atom_site_label
_atom_site_fract_x
_atom_site_fract_y
_atom_site_fract_z
Si Si1 0.392136 0.841951 0.500000
Si Si2 0.000000 0.500000 0.750000
Si Si3 0.682947 0.050176 0.847627
Si Si4 0.006236 0.244791 0.500000
Si Si5 0.530553 0.656186 0.804455
Si Si6 0.794436 0.710387 0.000000
O O1 0.456683 0.820568 0.411909
O O2 0.351448 0.949556 0.500000
O O3 0.298578 0.776597 0.500000
O O4 0.940776 0.576267 0.808415
O O5 0.757809 0.042425 0.765974
O O6 0.711745 0.137815 0.911615
O O7 0.038760 0.193557 0.407645
O O8 0.892351 0.245575 0.500000
O O9 0.427125 0.607902 0.790570
#
# Coordination Sequence:
#
# PCOD9546103 Si02
#       6
#     8   4  16   8  16   8
#     4  11  23  40  62  88 119 155 196 242 292 347
#     4  12  24  38  60  88 120 158 196 238 292 348
#     4  11  23  40  62  88 119 155 196 242 292 347
#     4  12  24  38  60  88 120 158 196 238 292 348
#     4  11  23  40  62  88 119 155 196 242 292 347
#     4  11  23  40  62  88 119 155 196 242 292 347
#
# _framework density 20.811616999999998
#
# number of rings (size 3 to 8) (size 9 to 14) (size 15 to 20)
#    0.000    0.800    0.000    8.800    0.000    3.200 
#    0.000    8.000    0.000    6.400    0.000    0.000 
#    0.000    0.000    0.000    0.000    0.000    0.000 
#
# Total GULP energy -168019.935731 kJ/mol
# GULP energy per Si atom -5600.664524 kJ/mol
# Density = 2.076425 g / cm^3
# Si number density = 20.811617 Si / 1000 Ang^3
#
#
#
# Elastic Constant Matrix: (Units=GPa)
#
#
# Indices 1 2 3 4 5 6 
#
# 1 66.6986 -10.3148 28.9486 0.0000 0.0000 -1.7588
# 2 -10.3148 66.6986 28.9486 0.0000 0.0000 1.7588
# 3 28.9486 28.9486 123.6056 0.0000 0.0000 0.0000
# 4 0.0000 0.0000 0.0000 14.2874 0.0000 0.0000
# 5 0.0000 0.0000 0.0000 0.0000 14.2874 0.0000
# 6 -1.7588 1.7588 0.0000 0.0000 0.0000 27.0716
#
#
#
# Elastic Compliance Matrix: (Units=1/GPa)
#
#
# Indices 1 2 3 4 5 6 
#
# 1 0.018187 0.005164 -0.005469 0.000000 0.000000 0.000846
# 2 0.005164 0.018187 -0.005469 0.000000 0.000000 -0.000846
# 3 -0.005469 -0.005469 0.010652 0.000000 0.000000 0.000000
# 4 0.000000 0.000000 0.000000 0.069992 0.000000 0.000000
# 5 0.000000 0.000000 0.000000 0.000000 0.069992 0.000000
# 6 0.000846 -0.000846 0.000000 0.000000 0.000000 0.037049
#
#
# Mechanical properties :
#
#
# Convention : Reuss Voigt Hill
#
# Bulk Modulus (GPa) = 28.18581 39.12972 33.65776
# Shear Modulus (GPa) = 20.20745 25.09064 22.64904
#
# Velocity S-wave (km/s) = 3.11942 3.47595 3.30250
# Velocity P-wave (km/s) = 5.15239 5.91205 5.54524
#
# Compressibility (1/GPa) = 0.03547885
#
# Stress axis : x y z
#
# Youngs Moduli (GPa) = 54.98334 54.98335 93.88007
#
# Poissons Ratio (x) = -0.28393 0.51342
# Poissons Ratio (y) = -0.28393 0.51342
# Poissons Ratio (z) = 0.30070 0.30070
#
# Static dielectric constant tensor:
#      x y z
#    x 1.721700 0.000000 0.000000 
#    y 0.000000 1.721700 0.000000 
#    z 0.000000 0.000000 1.718730 
# 
# From -- ./inp_files/3423.got.cif
#   From: 2010.05.17/outbox.cif.g08.bks.cpg/sg87_2_cif.got.tgz:3423.got - 2010.06.03 19:07:00.
