data_PCOD9546890
_publ_section_title
;
Structure prediction by ZEFSAII (Michael W. Deem and Ramdas Pophale) SiO2 
 PCOD9546890
Probable space group: I 41/A
;
_chemical_formula_sum "Si O2"
_cell_formula_units_Z 26
_cell_length_a 15.000000
_cell_length_b 15.000000
_cell_length_c 12.000000
_cell_angle_alpha 90.000000
_cell_angle_beta 90.000000
_cell_angle_gamma 90.000000
_cell_volume 2700.000000
_symmetry_space_group_name_H-M "I 41/A"
_symmetry_group_IT_number 88
_space_group.IT_coordinate_system_code '2'
_symmetry_cell_setting 'tetragonal'
loop_
_space_group_symop_operation_xyz
x,y,z
3/4-y,1/4+x,1/4+z
-x,1/2-y,z
1/4+y,1/4-x,1/4+z
-x,-y,-z
1/4+y,3/4-x,3/4-z
x,1/2+y,-z
3/4-y,3/4+x,3/4-z
1/2+x,1/2+y,1/2+z
1/4-y,3/4+x,3/4+z
1/2-x,-y,1/2+z
3/4+y,3/4-x,3/4+z
1/2-x,1/2-y,1/2-z
3/4+y,1/4-x,1/4-z
1/2+x,y,1/2-z
1/4-y,1/4+x,1/4-z
loop_
_atom_site_type_symbol
_atom_site_label
_atom_site_fract_x
_atom_site_fract_y
_atom_site_fract_z
Si Si1 0.300915 0.726714 0.868269
Si Si2 0.908281 0.895297 0.521151
Si Si3 0.701483 0.174022 0.594767
Si Si4 0.500000 0.750000 0.125000
O O1 0.250000 0.750000 0.750000
O O2 0.343393 0.820565 0.919208
O O3 0.372634 0.644896 0.847507
O O4 0.239966 0.685565 0.968990
O O5 0.973293 0.833919 0.447705
O O6 0.974124 0.939018 0.611757
O O7 0.880230 0.975019 0.432822
#
# Coordination Sequence:
#
# PCOD9546890 Si02
#       4
#    16  16  16   4
#     4  12  28  45  68 108 151 189 236 311 374 437
#     4  11  22  44  75 101 132 186 252 295 352 436
#     4  11  25  45  73 102 138 196 245 299 364 439
#     4  12  16  44  72 102 132 172 252 296 346 420
#
# _framework density 9.6296300000000006
#
# number of rings (size 3 to 8) (size 9 to 14) (size 15 to 20)
#    0.000    0.615    6.154    0.000    8.615    2.462 
#    0.000    0.000    0.000    0.000    0.000    0.000 
#    0.000    0.000    0.000    0.000    0.000    0.000 
#
# Total GULP energy -144903.803814 kJ/mol
# GULP energy per Si atom -5573.223224 kJ/mol
# Density = 0.960771 g / cm^3
# Si number density = 9.629630 Si / 1000 Ang^3
#
#
#
# Elastic Constant Matrix: (Units=GPa)
#
#
# Indices 1 2 3 4 5 6 
#
# 1 103.2509 32.4316 48.7119 0.0000 0.0000 -1.2385
# 2 32.4316 103.2509 48.7119 0.0000 0.0000 1.2385
# 3 48.7119 48.7119 160.9366 0.0000 0.0000 0.0000
# 4 0.0000 0.0000 0.0000 40.1574 0.0000 0.0000
# 5 0.0000 0.0000 0.0000 0.0000 40.1574 0.0000
# 6 -1.2385 1.2385 0.0000 0.0000 0.0000 41.9058
#
#
#
# Elastic Compliance Matrix: (Units=1/GPa)
#
#
# Indices 1 2 3 4 5 6 
#
# 1 0.011776 -0.002359 -0.002850 0.000000 0.000000 0.000418
# 2 -0.002359 0.011776 -0.002850 0.000000 0.000000 -0.000418
# 3 -0.002850 -0.002850 0.007939 0.000000 0.000000 0.000000
# 4 0.000000 0.000000 0.000000 0.024902 0.000000 0.000000
# 5 0.000000 0.000000 0.000000 0.000000 0.024902 0.000000
# 6 0.000418 -0.000418 0.000000 0.000000 0.000000 0.023888
#
#
# Mechanical properties :
#
#
# Convention : Reuss Voigt Hill
#
# Bulk Modulus (GPa) = 65.05538 69.68322 67.36930
# Shear Modulus (GPa) = 39.54894 40.28297 39.91596
#
# Velocity S-wave (km/s) = 4.53647 4.57838 4.55748
# Velocity P-wave (km/s) = 7.82889 8.01305 7.92151
#
# Compressibility (1/GPa) = 0.01537152
#
# Stress axis : x y z
#
# Youngs Moduli (GPa) = 84.91940 84.91940 125.96015
#
# Poissons Ratio (x) = 0.20034 0.35901
# Poissons Ratio (y) = 0.20034 0.35901
# Poissons Ratio (z) = 0.24204 0.24204
#
# Static dielectric constant tensor:
#      x y z
#    x 1.695360 0.000000 0.000000 
#    y 0.000000 1.695360 0.000000 
#    z 0.000000 0.000000 1.692650 
# 
# From -- ./inp_files/2187.got.cif
#   From: 2010.05.17/outbox.ucp.g08.bks.cvg/sg88_2_cif.got.tgz:2187.got - 2010.06.11 10:35:41.
