data_PCOD9546100
_publ_section_title
;
Structure prediction by ZEFSAII (Michael W. Deem and Ramdas Pophale) SiO2 
 PCOD9546100
Probable space group: I 4/M
;
_chemical_formula_sum "Si O2"
_cell_formula_units_Z 112
_cell_length_a 15.091771
_cell_length_b 15.091771
_cell_length_c 22.920108
_cell_angle_alpha 90.000000
_cell_angle_beta 90.000000
_cell_angle_gamma 90.000000
_cell_volume 5220.319368
_symmetry_space_group_name_H-M "I 4/M"
_symmetry_group_IT_number 87
_symmetry_cell_setting 'tetragonal'
loop_
_space_group_symop_operation_xyz
x,y,z
-y,x,z
-x,-y,z
y,-x,z
-x,-y,-z
y,-x,-z
x,y,-z
-y,x,-z
1/2+x,1/2+y,1/2+z
1/2-y,1/2+x,1/2+z
1/2-x,1/2-y,1/2+z
1/2+y,1/2-x,1/2+z
1/2-x,1/2-y,1/2-z
1/2+y,1/2-x,1/2-z
1/2+x,1/2+y,1/2-z
1/2-y,1/2+x,1/2-z
loop_
_atom_site_type_symbol
_atom_site_label
_atom_site_fract_x
_atom_site_fract_y
_atom_site_fract_z
Si Si1 0.136543 0.359989 0.433739
Si Si2 0.865954 0.932434 0.688287
Si Si3 0.327590 0.667713 0.432984
Si Si4 0.573796 0.371841 0.683651
Si Si5 0.973375 0.645540 0.751351
Si Si6 0.671424 0.052955 0.119853
Si Si7 0.705715 0.972411 0.628537
O O1 0.125331 0.389346 0.500000
O O2 0.228009 0.304941 0.430457
O O3 0.145640 0.453237 0.398784
O O4 0.053420 0.301009 0.415415
O O5 0.829471 0.904555 0.753056
O O6 0.962189 0.887403 0.683806
O O7 0.794357 0.914876 0.637651
O O8 0.358948 0.650275 0.500000
O O9 0.397176 0.662996 0.379418
O O10 0.249134 0.599417 0.417240
O O11 0.614260 0.469534 0.685073
O O12 0.902647 0.567739 0.741092
O O13 0.950264 0.694263 0.811178
O O14 0.981490 0.698175 0.692054
O O15 0.588010 0.119720 0.117114
#
# Coordination Sequence:
#
# PCOD9546100 Si02
#       7
#    16  16  16  16  16  16  16
#     4  11  25  44  64  91 130 174 219 266 323 394
#     4   9  21  39  62  94 131 168 209 266 323 389
#     4  11  25  40  60  91 129 170 218 268 315 381
#     4   9  19  37  61  88 124 168 212 251 307 378
#     4   9  18  35  56  90 130 159 204 263 325 390
#     4  11  23  40  63  95 129 173 214 269 324 385
#     4  11  23  38  67  95 124 169 217 268 332 388
#
# _framework density 21.454626999999999
#
# number of rings (size 3 to 8) (size 9 to 14) (size 15 to 20)
#    0.000    1.857    1.429    2.571    8.000    3.429 
#    0.000    2.143    0.000    0.000    0.000    1.000 
#    0.000    0.000    0.000    0.000    0.000    0.000 
#
# Total GULP energy -312281.975893 kJ/mol
# GULP energy per Si atom -5576.463855 kJ/mol
# Density = 2.140580 g / cm^3
# Si number density = 21.454627 Si / 1000 Ang^3
#
#
#
# Elastic Constant Matrix: (Units=GPa)
#
#
# Indices 1 2 3 4 5 6 
#
# 1 91.0725 -12.7258 22.6582 0.0000 0.0000 -12.0374
# 2 -12.7258 91.0725 22.6582 0.0000 0.0000 12.0374
# 3 22.6582 22.6582 68.3991 0.0000 0.0000 0.0000
# 4 0.0000 0.0000 0.0000 32.2947 0.0000 0.0000
# 5 0.0000 0.0000 0.0000 0.0000 32.2947 0.0000
# 6 -12.0374 12.0374 0.0000 0.0000 0.0000 15.9951
#
#
#
# Elastic Compliance Matrix: (Units=1/GPa)
#
#
# Indices 1 2 3 4 5 6 
#
# 1 0.013730 0.002059 -0.005230 0.000000 0.000000 0.008783
# 2 0.002059 0.013730 -0.005230 0.000000 0.000000 -0.008783
# 3 -0.005230 -0.005230 0.018085 0.000000 0.000000 0.000000
# 4 0.000000 0.000000 0.000000 0.030965 0.000000 0.000000
# 5 0.000000 0.000000 0.000000 0.000000 0.030965 0.000000
# 6 0.008783 -0.008783 0.000000 0.000000 0.000000 0.075739
#
#
# Mechanical properties :
#
#
# Convention : Reuss Voigt Hill
#
# Bulk Modulus (GPa) = 34.79228 35.08062 34.93645
# Shear Modulus (GPa) = 23.85506 30.64712 27.25109
#
# Velocity S-wave (km/s) = 3.33811 3.78360 3.56782
# Velocity P-wave (km/s) = 5.57756 5.95601 5.76989
#
# Compressibility (1/GPa) = 0.02874201
#
# Stress axis : x y z
#
# Youngs Moduli (GPa) = 72.83231 72.83231 55.29340
#
# Poissons Ratio (x) = -0.14995 0.28920
# Poissons Ratio (y) = -0.14995 0.28920
# Poissons Ratio (z) = 0.38094 0.38094
#
# Static dielectric constant tensor:
#      x y z
#    x 1.814500 0.000000 0.000000 
#    y 0.000000 1.814500 0.000000 
#    z 0.000000 0.000000 1.798790 
# 
# From -- ./inp_files/5918.got.cif
#   From: 2010.05.17/outbox.cif.g08.bks.cpg/sg87_3_cif.got.tgz:5918.got - 2010.06.03 19:07:00.
