data_PCOD9546875
_publ_section_title
;
Structure prediction by ZEFSAII (Michael W. Deem and Ramdas Pophale) SiO2 
 PCOD9546875
Probable space group: I 41/A
;
_chemical_formula_sum "Si O2"
_cell_formula_units_Z 52
_cell_length_a 20.041828
_cell_length_b 20.041828
_cell_length_c 4.827101
_cell_angle_alpha 90.000000
_cell_angle_beta 90.000000
_cell_angle_gamma 90.000000
_cell_volume 1938.925165
_symmetry_space_group_name_H-M "I 41/A"
_symmetry_group_IT_number 88
_space_group.IT_coordinate_system_code '2'
_symmetry_cell_setting 'tetragonal'
loop_
_space_group_symop_operation_xyz
x,y,z
3/4-y,1/4+x,1/4+z
-x,1/2-y,z
1/4+y,1/4-x,1/4+z
-x,-y,-z
1/4+y,3/4-x,3/4-z
x,1/2+y,-z
3/4-y,3/4+x,3/4-z
1/2+x,1/2+y,1/2+z
1/4-y,3/4+x,3/4+z
1/2-x,-y,1/2+z
3/4+y,3/4-x,3/4+z
1/2-x,1/2-y,1/2-z
3/4+y,1/4-x,1/4-z
1/2+x,y,1/2-z
1/4-y,1/4+x,1/4-z
loop_
_atom_site_type_symbol
_atom_site_label
_atom_site_fract_x
_atom_site_fract_y
_atom_site_fract_z
Si Si1 0.500000 0.250000 0.875000
Si Si2 0.477371 0.430412 0.371821
Si Si3 0.050943 0.384953 0.631018
Si Si4 0.330548 0.432805 0.596776
O O1 0.457537 0.188877 0.995311
O O2 0.500000 0.500000 0.500000
O O3 0.527489 0.383900 0.552183
O O4 0.398456 0.423770 0.419557
O O5 0.624631 0.412787 0.921291
O O6 0.175040 0.252534 0.803129
O O7 0.329404 0.509021 0.703497
#
# Coordination Sequence:
#
# PCOD9546875 Si02
#       4
#     4  16  16  16
#     4  12  28  50  88 118 160 214 288 334 408 482
#     4  12  28  52  78 109 159 214 265 332 398 480
#     4  12  29  50  81 117 157 213 274 336 399 480
#     4  12  30  49  81 125 168 217 269 340 412 492
#
# _framework density 26.818982999999999
#
# number of rings (size 3 to 8) (size 9 to 14) (size 15 to 20)
#    0.000    0.000    6.154    0.923    8.615    1.231 
#    0.000    0.000    0.000    0.000    0.000    0.000 
#    0.000    0.000    0.000    0.000    0.000    0.000 
#
# Total GULP energy -145480.967960 kJ/mol
# GULP energy per Si atom -5595.421845 kJ/mol
# Density = 2.675794 g / cm^3
# Si number density = 26.818983 Si / 1000 Ang^3
#
#
#
# Elastic Constant Matrix: (Units=GPa)
#
#
# Indices 1 2 3 4 5 6 
#
# 1 211.3201 24.0511 37.1574 0.0000 0.0000 0.6644
# 2 24.0511 211.3201 37.1574 0.0000 0.0000 -0.6644
# 3 37.1574 37.1574 113.0589 0.0000 0.0000 0.0000
# 4 0.0000 0.0000 0.0000 36.2997 0.0000 0.0000
# 5 0.0000 0.0000 0.0000 0.0000 36.2997 0.0000
# 6 0.6644 -0.6644 0.0000 0.0000 0.0000 49.0118
#
#
#
# Elastic Compliance Matrix: (Units=1/GPa)
#
#
# Indices 1 2 3 4 5 6 
#
# 1 0.005040 -0.000300 -0.001558 0.000000 0.000000 -0.000072
# 2 -0.000300 0.005040 -0.001558 0.000000 0.000000 0.000072
# 3 -0.001558 -0.001558 0.009869 0.000000 0.000000 0.000000
# 4 0.000000 0.000000 0.000000 0.027548 0.000000 0.000000
# 5 0.000000 0.000000 0.000000 0.000000 0.027548 0.000000
# 6 -0.000072 0.000072 0.000000 0.000000 0.000000 0.020405
#
#
# Mechanical properties :
#
#
# Convention : Reuss Voigt Hill
#
# Bulk Modulus (GPa) = 76.23061 81.38121 78.80591
# Shear Modulus (GPa) = 46.87942 53.47780 50.17861
#
# Velocity S-wave (km/s) = 4.18544 4.47030 4.33021
# Velocity P-wave (km/s) = 7.20021 7.55349 7.37897
#
# Compressibility (1/GPa) = 0.01311809
#
# Stress axis : x y z
#
# Youngs Moduli (GPa) = 198.39404 198.39404 101.32702
#
# Poissons Ratio (x) = 0.05951 0.15787
# Poissons Ratio (y) = 0.05951 0.15787
# Poissons Ratio (z) = 0.30910 0.30910
#
# Static dielectric constant tensor:
#      x y z
#    x 2.220270 0.000000 0.000000 
#    y 0.000000 2.220270 0.000000 
#    z 0.000000 0.000000 2.130330 
# 
# From -- ./inp_files/407.got.cif
#   From: 2010.05.17/outbox.cif.g08.bks.cpg/sg88_1_cif.got.tgz:407.got - 2010.06.03 19:11:41.
