data_PCOD9546929
_publ_section_title
;
Structure prediction by ZEFSAII (Michael W. Deem and Ramdas Pophale) SiO2 
 PCOD9546929
Probable space group: P 4 2 2
;
_chemical_formula_sum "Si O2"
_cell_formula_units_Z 30
_cell_length_a 7.885456
_cell_length_b 7.885456
_cell_length_c 21.500984
_cell_angle_alpha 90.000000
_cell_angle_beta 90.000000
_cell_angle_gamma 90.000000
_cell_volume 1336.940137
_symmetry_space_group_name_H-M "P 4 2 2"
_symmetry_group_IT_number 89
_symmetry_cell_setting 'tetragonal'
loop_
_space_group_symop_operation_xyz
x,y,z
-y,x,z
-x,-y,z
y,-x,z
x,-y,-z
-x,y,-z
y,x,-z
-y,-x,-z
loop_
_atom_site_type_symbol
_atom_site_label
_atom_site_fract_x
_atom_site_fract_y
_atom_site_fract_z
Si Si1 0.678804 0.725655 0.067066
Si Si2 0.885119 0.251153 0.196885
Si Si3 0.000000 0.500000 0.500000
Si Si4 0.000000 0.500000 0.713842
Si Si5 0.594495 0.229518 0.391879
O O1 0.473648 0.726472 0.071047
O O2 0.724632 0.845093 0.124212
O O3 0.762995 0.762995 0.000000
O O4 0.860103 0.410258 0.241607
O O5 0.081453 0.215435 0.210227
O O6 0.879482 0.608919 0.454676
O O7 0.895806 0.380518 0.666260
O O8 0.707479 0.397687 0.390049
#
# Coordination Sequence:
#
# PCOD9546929 Si02
#       5
#     8   8   2   4   8
#     4   9  19  37  60  84 111 148 196 248 303 370
#     4  11  23  37  55  82 117 155 196 249 315 382
#     4  10  20  34  60  90 124 156 196 252 312 360
#     4  11  22  39  60  85 120 161 206 258 320 383
#     4  10  21  38  62  90 120 160 210 261 307 366
#
# _framework density 22.439298999999998
#
# number of rings (size 3 to 8) (size 9 to 14) (size 15 to 20)
#    0.000    1.867    0.000    4.800    0.000    2.133 
#    0.000    6.667    0.000   30.400    0.000    0.000 
#    0.000    0.000    0.000    0.000    0.000    0.000 
#
# Total GULP energy -167284.355116 kJ/mol
# GULP energy per Si atom -5576.145171 kJ/mol
# Density = 2.238823 g / cm^3
# Si number density = 22.439299 Si / 1000 Ang^3
#
#
#
# Elastic Constant Matrix: (Units=GPa)
#
#
# Indices 1 2 3 4 5 6 
#
# 1 62.0492 6.7402 39.0118 0.0000 0.0000 0.0000
# 2 6.7402 62.0492 39.0118 0.0000 0.0000 0.0000
# 3 39.0118 39.0118 194.1984 0.0000 0.0000 0.0000
# 4 0.0000 0.0000 0.0000 31.8565 0.0000 0.0000
# 5 0.0000 0.0000 0.0000 0.0000 31.8565 0.0000
# 6 0.0000 0.0000 0.0000 0.0000 0.0000 52.6981
#
#
#
# Elastic Compliance Matrix: (Units=1/GPa)
#
#
# Indices 1 2 3 4 5 6 
#
# 1 0.018454 0.000373 -0.003782 0.000000 0.000000 0.000000
# 2 0.000373 0.018454 -0.003782 0.000000 0.000000 0.000000
# 3 -0.003782 -0.003782 0.006669 0.000000 0.000000 0.000000
# 4 0.000000 0.000000 0.000000 0.031391 0.000000 0.000000
# 5 0.000000 0.000000 0.000000 0.000000 0.031391 0.000000
# 6 0.000000 0.000000 0.000000 0.000000 0.000000 0.018976
#
#
# Mechanical properties :
#
#
# Convention : Reuss Voigt Hill
#
# Bulk Modulus (GPa) = 34.25312 54.20269 44.22791
# Shear Modulus (GPa) = 33.45674 38.85107 36.15391
#
# Velocity S-wave (km/s) = 3.86552 4.16551 4.01831
# Velocity P-wave (km/s) = 5.93472 6.88062 6.42510
#
# Compressibility (1/GPa) = 0.02919442
#
# Stress axis : x y z
#
# Youngs Moduli (GPa) = 54.19008 54.19008 149.94975
#
# Poissons Ratio (x) = -0.02023 0.56712
# Poissons Ratio (y) = -0.02023 0.56712
# Poissons Ratio (z) = 0.20495 0.20495
#
# Static dielectric constant tensor:
#      x y z
#    x 1.875770 0.000000 0.000000 
#    y 0.000000 1.875770 0.000000 
#    z 0.000000 0.000000 1.867320 
# 
# From -- ./inp_files/2501.got.cif
#   From: 2010.05.17/outbox.cif.g08.bks.cpg/sg89_2_cif.got.tgz:2501.got - 2010.06.03 19:15:31.
