data_PCOD9546012
_publ_section_title
;
Structure prediction by ZEFSAII (Michael W. Deem and Ramdas Pophale) SiO2 
 PCOD9546012
Probable space group: I 4/M
;
_chemical_formula_sum "Si O2"
_cell_formula_units_Z 64
_cell_length_a 11.878232
_cell_length_b 11.878232
_cell_length_c 20.796241
_cell_angle_alpha 90.000000
_cell_angle_beta 90.000000
_cell_angle_gamma 90.000000
_cell_volume 2934.191459
_symmetry_space_group_name_H-M "I 4/M"
_symmetry_group_IT_number 87
_symmetry_cell_setting 'tetragonal'
loop_
_space_group_symop_operation_xyz
x,y,z
-y,x,z
-x,-y,z
y,-x,z
-x,-y,-z
y,-x,-z
x,y,-z
-y,x,-z
1/2+x,1/2+y,1/2+z
1/2-y,1/2+x,1/2+z
1/2-x,1/2-y,1/2+z
1/2+y,1/2-x,1/2+z
1/2-x,1/2-y,1/2-z
1/2+y,1/2-x,1/2-z
1/2+x,1/2+y,1/2-z
1/2-y,1/2+x,1/2-z
loop_
_atom_site_type_symbol
_atom_site_label
_atom_site_fract_x
_atom_site_fract_y
_atom_site_fract_z
Si Si1 0.338987 0.084408 0.775656
Si Si2 0.835115 0.608115 0.068678
Si Si3 0.653391 0.909606 0.927099
Si Si4 0.660131 0.598371 0.824305
O O1 0.450932 0.139959 0.742407
O O2 0.322821 0.112731 0.851023
O O3 0.223915 0.120067 0.741706
O O4 0.871114 0.477192 0.071583
O O5 0.746022 0.638607 0.121756
O O6 0.954876 0.668505 0.072391
O O7 0.780807 0.627696 0.000000
O O8 0.697072 0.874590 0.000000
O O9 0.536554 0.647403 0.830867
#
# Coordination Sequence:
#
# PCOD9546012 Si02
#       4
#    16  16  16  16
#     4  11  18  34  60  84 101 133 182 226 269 317
#     4   9  16  32  54  77 107 141 174 211 262 322
#     4   9  16  30  56  84 107 130 169 227 275 305
#     4  11  24  37  49  74 113 150 180 218 271 326
#
# _framework density 21.811800999999999
#
# number of rings (size 3 to 8) (size 9 to 14) (size 15 to 20)
#    0.000    2.000    5.000    3.000    0.000    2.000 
#    0.000    1.250    0.000    1.500    0.000    1.750 
#    0.000    0.000    0.000    0.000    0.000    0.000 
#
# Total GULP energy -178196.319094 kJ/mol
# GULP energy per Si atom -5568.634972 kJ/mol
# Density = 2.176216 g / cm^3
# Si number density = 21.811801 Si / 1000 Ang^3
#
#
#
# Elastic Constant Matrix: (Units=GPa)
#
#
# Indices 1 2 3 4 5 6 
#
# 1 81.3494 2.9002 31.5245 0.0000 0.0000 -2.5506
# 2 2.9002 81.3493 31.5245 0.0000 0.0000 2.5506
# 3 31.5245 31.5245 223.9812 0.0000 0.0000 0.0000
# 4 0.0000 0.0000 0.0000 -1.7900 0.0000 0.0000
# 5 0.0000 0.0000 0.0000 0.0000 -1.7900 0.0000
# 6 -2.5506 2.5506 0.0000 0.0000 0.0000 7.3433
#
#
#
# Elastic Compliance Matrix: (Units=1/GPa)
#
#
# Indices 1 2 3 4 5 6 
#
# 1 0.013154 0.000113 -0.001867 0.000000 0.000000 0.004530
# 2 0.000113 0.013154 -0.001867 0.000000 0.000000 -0.004530
# 3 -0.001867 -0.001867 0.004990 0.000000 0.000000 0.000000
# 4 0.000000 0.000000 0.000000 -0.558653 0.000000 0.000000
# 5 0.000000 0.000000 0.000000 0.000000 -0.558653 0.000000
# 6 0.004530 -0.004530 0.000000 0.000000 0.000000 0.139325
#
#
# Mechanical properties :
#
#
# Convention : Reuss Voigt Hill
#
# Bulk Modulus (GPa) = 41.57142 57.61982 49.59562
# Shear Modulus (GPa) = -5.36815 22.13470 8.38328
#
# Velocity S-wave (km/s) = -1.57050 3.18905 1.96260
# Velocity P-wave (km/s) = 3.97642 6.32726 5.28423
#
# Compressibility (1/GPa) = 0.02405499
#
# Stress axis : x y z
#
# Youngs Moduli (GPa) = 76.02093 76.02093 200.38958
#
# Poissons Ratio (x) = -0.00856 0.37418
# Poissons Ratio (y) = -0.00856 0.37418
# Poissons Ratio (z) = 0.14195 0.14195
#
# Static dielectric constant tensor:
#      x y z
#    x 1.825350 0.000000 0.000000 
#    y 0.000000 1.825350 0.000000 
#    z 0.000000 0.000000 1.864010 
# 
# From -- ./inp_files/4967.got.cif
#   From: 2010.05.17/outbox.cif.g08.bks.cpg/sg87_3_cif.got.tgz:4967.got - 2010.06.03 19:07:00.
