data_PCOD9546833
_publ_section_title
;
Structure prediction by ZEFSAII (Michael W. Deem and Ramdas Pophale) SiO2 
 PCOD9546833
Probable space group: I 41/A
;
_chemical_formula_sum "Si O2"
_cell_formula_units_Z 48
_cell_length_a 19.775716
_cell_length_b 19.775716
_cell_length_c 4.790582
_cell_angle_alpha 90.000000
_cell_angle_beta 90.000000
_cell_angle_gamma 90.000000
_cell_volume 1873.495746
_symmetry_space_group_name_H-M "I 41/A"
_symmetry_group_IT_number 88
_space_group.IT_coordinate_system_code '2'
_symmetry_cell_setting 'tetragonal'
loop_
_space_group_symop_operation_xyz
x,y,z
3/4-y,1/4+x,1/4+z
-x,1/2-y,z
1/4+y,1/4-x,1/4+z
-x,-y,-z
1/4+y,3/4-x,3/4-z
x,1/2+y,-z
3/4-y,3/4+x,3/4-z
1/2+x,1/2+y,1/2+z
1/4-y,3/4+x,3/4+z
1/2-x,-y,1/2+z
3/4+y,3/4-x,3/4+z
1/2-x,1/2-y,1/2-z
3/4+y,1/4-x,1/4-z
1/2+x,y,1/2-z
1/4-y,1/4+x,1/4-z
loop_
_atom_site_type_symbol
_atom_site_label
_atom_site_fract_x
_atom_site_fract_y
_atom_site_fract_z
Si Si1 0.422910 0.176688 0.383358
Si Si2 0.392009 0.452427 0.768198
Si Si3 0.202658 0.644269 0.502083
O O1 0.418525 0.252799 0.501371
O O2 0.363045 0.170051 0.154740
O O3 0.420478 0.120114 0.627737
O O4 0.386907 0.507514 0.533472
O O5 0.320454 0.425750 0.871218
O O6 0.425300 0.493298 0.030052
#
# Coordination Sequence:
#
# PCOD9546833 Si02
#       3
#    16  16  16
#     4  11  28  54  82 116 164 222 278 336 408 487
#     4  12  25  51  78 118 159 211 268 337 406 481
#     4  12  25  51  78 118 159 211 268 337 406 481
#
# _framework density 25.620553000000001
#
# number of rings (size 3 to 8) (size 9 to 14) (size 15 to 20)
#    0.000    0.333    6.667    0.000    0.000    8.000 
#    6.000    3.333    0.000    0.000    0.000    0.000 
#    0.000    0.000    0.000    0.000    0.000    0.000 
#
# Total GULP energy -133785.380707 kJ/mol
# GULP energy per Si atom -5574.390863 kJ/mol
# Density = 2.556224 g / cm^3
# Si number density = 25.620553 Si / 1000 Ang^3
#
#
#
# Elastic Constant Matrix: (Units=GPa)
#
#
# Indices 1 2 3 4 5 6 
#
# 1 69.9509 84.8617 25.3002 0.0000 0.0000 -148.5059
# 2 84.8617 69.9509 25.3002 0.0000 0.0000 148.5059
# 3 25.3002 25.3002 140.0232 0.0000 0.0000 0.0000
# 4 0.0000 0.0000 0.0000 0.3256 0.0000 0.0000
# 5 0.0000 0.0000 0.0000 0.0000 0.3256 0.0000
# 6 -148.5059 148.5059 0.0000 0.0000 0.0000 -258.5949
#
#
#
# Elastic Compliance Matrix: (Units=1/GPa)
#
#
# Indices 1 2 3 4 5 6 
#
# 1 0.006645 0.000220 -0.001240 0.000000 0.000000 -0.003689
# 2 0.000220 0.006645 -0.001240 0.000000 0.000000 0.003689
# 3 -0.001240 -0.001240 0.007590 0.000000 0.000000 0.000000
# 4 0.000000 0.000000 0.000000 3.071651 0.000000 0.000000
# 5 0.000000 0.000000 0.000000 0.000000 3.071651 0.000000
# 6 -0.003689 0.003689 0.000000 0.000000 0.000000 0.000370
#
#
# Mechanical properties :
#
#
# Convention : Reuss Voigt Hill
#
# Bulk Modulus (GPa) = 61.13189 61.20547 61.16868
# Shear Modulus (GPa) = 0.80978 -41.95788 -20.57405
#
# Velocity S-wave (km/s) = 0.56281 -4.05120 -2.83685
# Velocity P-wave (km/s) = 4.93301 1.43462 3.63268
#
# Compressibility (1/GPa) = 0.01635807
#
# Stress axis : x y z
#
# Youngs Moduli (GPa) = 150.49804 150.49804 131.75385
#
# Poissons Ratio (x) = -0.03314 0.16342
# Poissons Ratio (y) = -0.03314 0.16342
# Poissons Ratio (z) = 0.18667 0.18667
#
# Static dielectric constant tensor:
#      x y z
#    x 2.145320 0.000000 0.000000 
#    y 0.000000 2.145320 0.000000 
#    z 0.000000 0.000000 1.994540 
# 
# From -- ./inp_files/370.got.cif
#   From: 2010.05.17/outbox.cif.g08.bks.cpg/sg88_1_cif.got.tgz:370.got - 2010.06.03 19:11:41.
