data_PCOD9546740
_publ_section_title
;
Structure prediction by ZEFSAII (Michael W. Deem and Ramdas Pophale) SiO2 
 PCOD9546740
Probable space group: I 41/A
;
_chemical_formula_sum "Si O2"
_cell_formula_units_Z 72
_cell_length_a 19.558419
_cell_length_b 19.558419
_cell_length_c 7.519116
_cell_angle_alpha 90.000000
_cell_angle_beta 90.000000
_cell_angle_gamma 90.000000
_cell_volume 2876.300630
_symmetry_space_group_name_H-M "I 41/A"
_symmetry_group_IT_number 88
_space_group.IT_coordinate_system_code '2'
_symmetry_cell_setting 'tetragonal'
loop_
_space_group_symop_operation_xyz
x,y,z
3/4-y,1/4+x,1/4+z
-x,1/2-y,z
1/4+y,1/4-x,1/4+z
-x,-y,-z
1/4+y,3/4-x,3/4-z
x,1/2+y,-z
3/4-y,3/4+x,3/4-z
1/2+x,1/2+y,1/2+z
1/4-y,3/4+x,3/4+z
1/2-x,-y,1/2+z
3/4+y,3/4-x,3/4+z
1/2-x,1/2-y,1/2-z
3/4+y,1/4-x,1/4-z
1/2+x,y,1/2-z
1/4-y,1/4+x,1/4-z
loop_
_atom_site_type_symbol
_atom_site_label
_atom_site_fract_x
_atom_site_fract_y
_atom_site_fract_z
Si Si1 0.355783 0.294064 0.934842
Si Si2 0.309357 0.937988 0.981658
Si Si3 0.500000 0.250000 0.875000
Si Si4 0.910392 0.124444 0.275433
Si Si5 0.274760 0.161980 0.047454
Si Si6 0.500000 0.250000 0.375000
O O1 0.336558 0.362047 0.036847
O O2 0.477117 0.183127 0.768961
O O3 0.357320 0.313287 0.726133
O O4 0.305092 0.232425 0.970674
O O5 0.233281 0.936227 0.058229
O O6 0.355455 0.970660 0.140036
O O7 0.920315 0.055009 0.164163
O O8 0.829593 0.141520 0.301159
O O9 0.955258 0.187732 0.210436
#
# Coordination Sequence:
#
# PCOD9546740 Si02
#       6
#    16  16   4  16  16   4
#     4  11  22  39  70 102 128 175 228 286 328 413
#     4  11  23  43  67  98 139 179 229 293 348 412
#     4  12  18  32  68 102 132 166 220 272 338 388
#     4  11  25  45  68  97 141 176 231 280 342 409
#     4  11  22  42  73  99 131 173 233 284 339 410
#     4  12  30  48  66  96 144 194 212 286 352 408
#
# _framework density 25.032154999999999
#
# number of rings (size 3 to 8) (size 9 to 14) (size 15 to 20)
#    0.000    0.889    8.889    1.333    0.000    0.889 
#    4.000    0.000    4.889    0.000    0.000    0.000 
#    0.000    0.000    0.000    0.000    0.000    0.000 
#
# Total GULP energy -201812.574963 kJ/mol
# GULP energy per Si atom -5605.904860 kJ/mol
# Density = 2.497518 g / cm^3
# Si number density = 25.032155 Si / 1000 Ang^3
#
#
#
# Elastic Constant Matrix: (Units=GPa)
#
#
# Indices 1 2 3 4 5 6 
#
# 1 315.7449 7.0638 63.1370 0.0000 0.0000 -133.7091
# 2 7.0638 315.7449 63.1370 0.0000 0.0000 133.7091
# 3 63.1370 63.1370 59.2503 0.0000 0.0000 0.0000
# 4 0.0000 0.0000 0.0000 5.5906 0.0000 0.0000
# 5 0.0000 0.0000 0.0000 0.0000 5.5906 0.0000
# 6 -133.7091 133.7091 0.0000 0.0000 0.0000 237.2907
#
#
#
# Elastic Compliance Matrix: (Units=1/GPa)
#
#
# Indices 1 2 3 4 5 6 
#
# 1 0.005821 -0.000509 -0.005661 0.000000 0.000000 0.003566
# 2 -0.000509 0.005821 -0.005661 0.000000 0.000000 -0.003566
# 3 -0.005661 -0.005661 0.028941 0.000000 0.000000 0.000000
# 4 0.000000 0.000000 0.000000 0.178871 0.000000 0.000000
# 5 0.000000 0.000000 0.000000 0.000000 0.178871 0.000000
# 6 0.003566 -0.003566 0.000000 0.000000 0.000000 0.008233
#
#
# Mechanical properties :
#
#
# Convention : Reuss Voigt Hill
#
# Bulk Modulus (GPa) = 59.09026 106.37952 82.73489
# Shear Modulus (GPa) = 11.47163 86.85455 49.16309
#
# Velocity S-wave (km/s) = 2.14306 5.89682 4.43651
# Velocity P-wave (km/s) = 5.45716 9.43148 7.70498
#
# Compressibility (1/GPa) = 0.01692326
#
# Stress axis : x y z
#
# Youngs Moduli (GPa) = 171.80170 171.80170 34.55285
#
# Poissons Ratio (x) = 0.08738 0.19559
# Poissons Ratio (y) = 0.08738 0.19559
# Poissons Ratio (z) = 0.97248 0.97248
#
# Static dielectric constant tensor:
#      x y z
#    x 1.950650 0.000000 0.000000 
#    y 0.000000 1.950650 0.000000 
#    z 0.000000 0.000000 2.046290 
# 
# From -- ./inp_files/2465.got.cif
#   From: 2010.05.17/outbox.cif.g08.bks.cpg/sg88_2_cif.got.tgz:2465.got - 2010.06.03 19:11:41.
