data_PCOD9546934
_publ_section_title
;
Structure prediction by ZEFSAII (Michael W. Deem and Ramdas Pophale) SiO2 
 PCOD9546934
Probable space group: P 4 2 2
;
_chemical_formula_sum "Si O2"
_cell_formula_units_Z 34
_cell_length_a 10.666347
_cell_length_b 10.666347
_cell_length_c 12.644960
_cell_angle_alpha 90.000000
_cell_angle_beta 90.000000
_cell_angle_gamma 90.000000
_cell_volume 1438.629217
_symmetry_space_group_name_H-M "P 4 2 2"
_symmetry_group_IT_number 89
_symmetry_cell_setting 'tetragonal'
loop_
_space_group_symop_operation_xyz
x,y,z
-y,x,z
-x,-y,z
y,-x,z
x,-y,-z
-x,y,-z
y,x,-z
-y,-x,-z
loop_
_atom_site_type_symbol
_atom_site_label
_atom_site_fract_x
_atom_site_fract_y
_atom_site_fract_z
Si Si1 0.200926 0.967716 0.183785
Si Si2 0.373054 0.203759 0.931075
Si Si3 0.744439 0.126543 0.404894
Si Si4 0.654535 0.628483 0.287020
Si Si5 0.000000 0.500000 0.500000
O O1 0.327373 0.925582 0.124637
O O2 0.215043 0.966569 0.311210
O O3 0.098797 0.861164 0.155395
O O4 0.380859 0.305092 0.835632
O O5 0.500000 0.193550 0.000000
O O6 0.262597 0.262597 0.000000
O O7 0.840886 0.159115 0.500000
O O8 0.724033 0.255749 0.344153
O O9 0.603872 0.084565 0.439372
O O10 0.515790 0.668077 0.317480
#
# Coordination Sequence:
#
# PCOD9546934 Si02
#       5
#     8   8   8   8   2
#     4  10  24  47  71  97 137 188 239 295 358 425
#     4  11  22  40  69  99 135 177 232 293 362 424
#     4  11  23  41  66  99 142 182 235 289 358 421
#     4  10  20  35  61  92 132 179 222 277 350 430
#     4  12  24  40  68 104 138 184 236 296 346 438
#
# _framework density 23.633609
#
# number of rings (size 3 to 8) (size 9 to 14) (size 15 to 20)
#    0.000    1.412    2.353    2.824    0.000    3.059 
#    0.000    4.706    0.000    0.000    0.000    0.000 
#    0.000    0.000    0.000    0.000    0.000    0.000 
#
# Total GULP energy -189858.155427 kJ/mol
# GULP energy per Si atom -5584.063395 kJ/mol
# Density = 2.357982 g / cm^3
# Si number density = 23.633609 Si / 1000 Ang^3
#
#
#
# Elastic Constant Matrix: (Units=GPa)
#
#
# Indices 1 2 3 4 5 6 
#
# 1 32.3052 73.5512 39.4788 0.0000 0.0000 0.0000
# 2 73.5512 32.3056 39.4794 0.0000 0.0000 0.0000
# 3 39.4788 39.4794 95.9612 0.0000 0.0000 0.0000
# 4 0.0000 0.0000 0.0000 29.3501 0.0000 0.0000
# 5 0.0000 0.0000 0.0000 0.0000 29.3498 0.0000
# 6 0.0000 0.0000 0.0000 0.0000 0.0000 11.0777
#
#
#
# Elastic Compliance Matrix: (Units=1/GPa)
#
#
# Indices 1 2 3 4 5 6 
#
# 1 -0.005308 0.018937 -0.005607 0.000000 0.000000 0.000000
# 2 0.018937 -0.005308 -0.005607 0.000000 0.000000 0.000000
# 3 -0.005607 -0.005607 0.015034 0.000000 0.000000 0.000000
# 4 0.000000 0.000000 0.000000 0.034071 0.000000 0.000000
# 5 0.000000 0.000000 0.000000 0.000000 0.034072 0.000000
# 6 0.000000 0.000000 0.000000 0.000000 0.000000 0.090271
#
#
# Mechanical properties :
#
#
# Convention : Reuss Voigt Hill
#
# Bulk Modulus (GPa) = 50.34176 51.73232 51.03704
# Shear Modulus (GPa) = 32.46566 14.49303 23.47934
#
# Velocity S-wave (km/s) = 3.71038 2.47905 3.15536
# Velocity P-wave (km/s) = 6.30103 5.48918 5.90907
#
# Compressibility (1/GPa) = 0.01986422
#
# Stress axis : x y z
#
# Youngs Moduli (GPa) = -188.39766 -188.39786 66.51386
#
# Poissons Ratio (x) = 3.56768 0.37295
# Poissons Ratio (y) = 3.56768 0.37294
# Poissons Ratio (z) = -1.05637 -1.05635
#
# Static dielectric constant tensor:
#      x y z
#    x 1.918710 0.000000 0.000000 
#    y 0.000000 1.918710 0.000000 
#    z 0.000000 0.000000 1.958300 
# 
# From -- ./inp_files/1630.got.cif
#   From: 2010.05.17/outbox.cif.g08.bks.cpg/sg89_1_cif.got.tgz:1630.got - 2010.06.03 19:15:31.
