data_PCOD9546090
_publ_section_title
;
Structure prediction by ZEFSAII (Michael W. Deem and Ramdas Pophale) SiO2 
 PCOD9546090
Probable space group: I 4/M
;
_chemical_formula_sum "Si O2"
_cell_formula_units_Z 56
_cell_length_a 17.101797
_cell_length_b 17.101797
_cell_length_c 7.598259
_cell_angle_alpha 90.000000
_cell_angle_beta 90.000000
_cell_angle_gamma 90.000000
_cell_volume 2222.273908
_symmetry_space_group_name_H-M "I 4/M"
_symmetry_group_IT_number 87
_symmetry_cell_setting 'tetragonal'
loop_
_space_group_symop_operation_xyz
x,y,z
-y,x,z
-x,-y,z
y,-x,z
-x,-y,-z
y,-x,-z
x,y,-z
-y,x,-z
1/2+x,1/2+y,1/2+z
1/2-y,1/2+x,1/2+z
1/2-x,1/2-y,1/2+z
1/2+y,1/2-x,1/2+z
1/2-x,1/2-y,1/2-z
1/2+y,1/2-x,1/2-z
1/2+x,1/2+y,1/2-z
1/2-y,1/2+x,1/2-z
loop_
_atom_site_type_symbol
_atom_site_label
_atom_site_fract_x
_atom_site_fract_y
_atom_site_fract_z
Si Si1 0.064516 0.606316 0.200978
Si Si2 0.462235 0.272287 0.000000
Si Si3 0.520256 0.369579 0.299510
Si Si4 0.663847 0.776797 0.301181
O O1 0.099336 0.517803 0.201572
O O2 0.129147 0.657809 0.293092
O O3 0.050571 0.629983 0.000000
O O4 0.522422 0.304070 0.845851
O O5 0.397607 0.250825 0.844918
O O6 0.584872 0.437429 0.274296
O O7 0.526532 0.341859 0.500000
O O8 0.644898 0.750397 0.500000
O O9 0.750000 0.750000 0.250000
#
# Coordination Sequence:
#
# PCOD9546090 Si02
#       4
#    16   8  16  16
#     4  11  22  44  74 107 134 177 235 299 352 412
#     4  12  22  39  64  91 134 175 232 267 344 407
#     4   9  19  39  66  98 136 174 222 286 340 401
#     4  12  25  47  66  95 137 182 226 285 352 426
#
# _framework density 25.199414000000001
#
# number of rings (size 3 to 8) (size 9 to 14) (size 15 to 20)
#    0.000    1.143    2.857    6.000    0.000    1.143 
#   10.286    0.000    0.000    0.000    0.000    0.000 
#    0.000    0.000    0.000    0.000    0.000    0.000 
#
# Total GULP energy -155970.007702 kJ/mol
# GULP energy per Si atom -5570.357418 kJ/mol
# Density = 2.514206 g / cm^3
# Si number density = 25.199414 Si / 1000 Ang^3
#
#
#
# Elastic Constant Matrix: (Units=GPa)
#
#
# Indices 1 2 3 4 5 6 
#
# 1 57.9028 80.2556 28.8227 0.0000 0.0000 1.1843
# 2 80.2556 57.9028 28.8227 0.0000 0.0000 -1.1843
# 3 28.8227 28.8227 196.3871 0.0000 0.0000 0.0000
# 4 0.0000 0.0000 0.0000 78.7784 0.0000 0.0000
# 5 0.0000 0.0000 0.0000 0.0000 78.7784 0.0000
# 6 1.1843 -1.1843 0.0000 0.0000 0.0000 41.8167
#
#
#
# Elastic Compliance Matrix: (Units=1/GPa)
#
#
# Indices 1 2 3 4 5 6 
#
# 1 -0.018447 0.026157 -0.001132 0.000000 0.000000 0.001263
# 2 0.026157 -0.018447 -0.001132 0.000000 0.000000 -0.001263
# 3 -0.001132 -0.001132 0.005424 0.000000 0.000000 0.000000
# 4 0.000000 0.000000 0.000000 0.012694 0.000000 0.000000
# 5 0.000000 0.000000 0.000000 0.000000 0.012694 0.000000
# 6 0.001263 -0.001263 0.000000 0.000000 0.000000 0.023842
#
#
# Mechanical properties :
#
#
# Convention : Reuss Voigt Hill
#
# Bulk Modulus (GPa) = 61.28122 65.33274 63.30698
# Shear Modulus (GPa) = -203.36180 51.49414 -75.93383
#
# Velocity S-wave (km/s) = -8.99312 4.52538 -5.49532
# Velocity P-wave (km/s) = 9.13584 7.29986 3.88431
#
# Compressibility (1/GPa) = 0.01631821
#
# Stress axis : x y z
#
# Youngs Moduli (GPa) = -54.21067 -54.21067 184.36108
#
# Poissons Ratio (x) = 1.41798 0.20862
# Poissons Ratio (y) = 1.41798 0.20862
# Poissons Ratio (z) = -0.06134 -0.06134
#
# Static dielectric constant tensor:
#      x y z
#    x 2.053330 0.000000 0.000000 
#    y 0.000000 2.053330 0.000000 
#    z 0.000000 0.000000 1.904320 
# 
# From -- ./inp_files/725.got.cif
#   From: 2010.05.17/outbox.cif.g08.bks.cpg/sg87_1_cif.got.tgz:725.got - 2010.06.03 19:07:00.
