data_PCOD9546316
_publ_section_title
;
Structure prediction by ZEFSAII (Michael W. Deem and Ramdas Pophale) SiO2 
 PCOD9546316
Probable space group: I 41/A
;
_chemical_formula_sum "Si O2"
_cell_formula_units_Z 76
_cell_length_a 16.188858
_cell_length_b 16.188858
_cell_length_c 14.287130
_cell_angle_alpha 90.000000
_cell_angle_beta 90.000000
_cell_angle_gamma 90.000000
_cell_volume 3744.358506
_symmetry_space_group_name_H-M "I 41/A"
_symmetry_group_IT_number 88
_space_group.IT_coordinate_system_code '2'
_symmetry_cell_setting 'tetragonal'
loop_
_space_group_symop_operation_xyz
x,y,z
3/4-y,1/4+x,1/4+z
-x,1/2-y,z
1/4+y,1/4-x,1/4+z
-x,-y,-z
1/4+y,3/4-x,3/4-z
x,1/2+y,-z
3/4-y,3/4+x,3/4-z
1/2+x,1/2+y,1/2+z
1/4-y,3/4+x,3/4+z
1/2-x,-y,1/2+z
3/4+y,3/4-x,3/4+z
1/2-x,1/2-y,1/2-z
3/4+y,1/4-x,1/4-z
1/2+x,y,1/2-z
1/4-y,1/4+x,1/4-z
loop_
_atom_site_type_symbol
_atom_site_label
_atom_site_fract_x
_atom_site_fract_y
_atom_site_fract_z
Si Si1 0.321433 0.316935 0.731024
Si Si2 0.376026 0.750567 0.773089
Si Si3 0.500000 0.250000 0.685824
Si Si4 0.000000 0.750000 0.875000
Si Si5 0.880458 0.521155 0.914830
Si Si6 0.746545 0.906816 0.047705
O O1 0.250000 0.250000 0.750000
O O2 0.412812 0.275232 0.732634
O O3 0.290843 0.356046 0.631205
O O4 0.331466 0.397655 0.797843
O O5 0.423948 0.770254 0.867280
O O6 0.436271 0.709109 0.697051
O O7 0.302322 0.690073 0.799204
O O8 0.347975 0.833306 0.720367
O O9 0.788680 0.496753 0.945489
O O10 0.882255 0.520019 0.802678
#
# Coordination Sequence:
#
# PCOD9546316 Si02
#       6
#    16  16   8   4  16  16
#     4  11  26  45  70  93 132 183 227 281 337 397
#     4  10  20  34  61  94 128 164 203 262 331 399
#     4  11  22  43  61 101 132 166 225 274 319 409
#     4  10  20  32  56  90 128 162 198 256 336 392
#     4  10  20  37  62  90 124 169 206 264 335 390
#     4  10  21  44  62  91 132 165 221 277 322 401
#
# _framework density 20.297201999999999
#
# number of rings (size 3 to 8) (size 9 to 14) (size 15 to 20)
#    0.000    1.684    4.211    1.263    2.947    5.053 
#    0.000    0.000    0.000    0.000    0.000    0.000 
#    0.000    0.000    0.000    0.000    0.000    0.000 
#
# Total GULP energy -211625.786769 kJ/mol
# GULP energy per Si atom -5569.099652 kJ/mol
# Density = 2.025100 g / cm^3
# Si number density = 20.297202 Si / 1000 Ang^3
#
#
#
# Elastic Constant Matrix: (Units=GPa)
#
#
# Indices 1 2 3 4 5 6 
#
# 1 99.8675 45.2631 10.4535 0.0000 0.0000 -6.9522
# 2 45.2631 99.8675 10.4535 0.0000 0.0000 6.9522
# 3 10.4535 10.4535 43.9746 0.0000 0.0000 0.0000
# 4 0.0000 0.0000 0.0000 26.2759 0.0000 0.0000
# 5 0.0000 0.0000 0.0000 0.0000 26.2759 0.0000
# 6 -6.9522 6.9522 0.0000 0.0000 0.0000 36.1061
#
#
#
# Elastic Compliance Matrix: (Units=1/GPa)
#
#
# Indices 1 2 3 4 5 6 
#
# 1 0.013196 -0.006062 -0.001696 0.000000 0.000000 0.003708
# 2 -0.006062 0.013196 -0.001696 0.000000 0.000000 -0.003708
# 3 -0.001696 -0.001696 0.023547 0.000000 0.000000 0.000000
# 4 0.000000 0.000000 0.000000 0.038058 0.000000 0.000000
# 5 0.000000 0.000000 0.000000 0.000000 0.038058 0.000000
# 6 0.003708 -0.003708 0.000000 0.000000 0.000000 0.029124
#
#
# Mechanical properties :
#
#
# Convention : Reuss Voigt Hill
#
# Bulk Modulus (GPa) = 32.22483 41.78331 37.00407
# Shear Modulus (GPa) = 27.11054 29.56753 28.33904
#
# Velocity S-wave (km/s) = 3.65866 3.82085 3.74064
# Velocity P-wave (km/s) = 5.81022 6.33211 6.07677
#
# Compressibility (1/GPa) = 0.03103198
#
# Stress axis : x y z
#
# Youngs Moduli (GPa) = 75.77923 75.77923 42.46869
#
# Poissons Ratio (x) = 0.45934 0.07203
# Poissons Ratio (y) = 0.45934 0.07203
# Poissons Ratio (z) = 0.12852 0.12852
#
# Static dielectric constant tensor:
#      x y z
#    x 1.797090 0.000000 0.000000 
#    y 0.000000 1.797090 0.000000 
#    z 0.000000 0.000000 1.729800 
# 
# From -- ./inp_files/3167.got.cif
#   From: 2010.05.17/outbox.cif.g08.bks.cpg/sg88_2_cif.got.tgz:3167.got - 2010.06.03 19:11:41.
