data_PCOD9546034
_publ_section_title
;
Structure prediction by ZEFSAII (Michael W. Deem and Ramdas Pophale) SiO2 
 PCOD9546034
Probable space group: I 4/M
;
_chemical_formula_sum "Si O2"
_cell_formula_units_Z 84
_cell_length_a 11.786549
_cell_length_b 11.786549
_cell_length_c 28.559619
_cell_angle_alpha 90.000000
_cell_angle_beta 90.000000
_cell_angle_gamma 90.000000
_cell_volume 3967.580449
_symmetry_space_group_name_H-M "I 4/M"
_symmetry_group_IT_number 87
_symmetry_cell_setting 'tetragonal'
loop_
_space_group_symop_operation_xyz
x,y,z
-y,x,z
-x,-y,z
y,-x,z
-x,-y,-z
y,-x,-z
x,y,-z
-y,x,-z
1/2+x,1/2+y,1/2+z
1/2-y,1/2+x,1/2+z
1/2-x,1/2-y,1/2+z
1/2+y,1/2-x,1/2+z
1/2-x,1/2-y,1/2-z
1/2+y,1/2-x,1/2-z
1/2+x,1/2+y,1/2-z
1/2-y,1/2+x,1/2-z
loop_
_atom_site_type_symbol
_atom_site_label
_atom_site_fract_x
_atom_site_fract_y
_atom_site_fract_z
Si Si1 0.399053 0.150794 0.625880
Si Si2 0.084913 0.336031 0.235140
Si Si3 0.904359 0.834938 0.686514
Si Si4 0.500000 0.500000 0.926803
Si Si5 0.853604 0.385889 0.889227
Si Si6 0.702065 0.676682 0.053977
O O1 0.382205 0.175214 0.680970
O O2 0.529780 0.181598 0.615682
O O3 0.312047 0.193500 0.586737
O O4 0.383909 0.015609 0.620796
O O5 0.141181 0.449375 0.257687
O O6 0.115259 0.223236 0.263593
O O7 0.861540 0.743886 0.649092
O O8 0.040220 0.852972 0.680569
O O9 0.380866 0.425314 0.929573
O O10 0.793054 0.367467 0.938507
O O11 0.729878 0.656496 0.000000
#
# Coordination Sequence:
#
# PCOD9546034 Si02
#       6
#    16  16  16   4  16  16
#     4  11  23  41  68  98 133 185 234 279 337 427
#     4  11  20  40  62  90 134 182 231 275 334 409
#     4  11  24  38  61 100 139 181 235 294 356 420
#     4  12  25  44  68 100 136 172 212 280 372 432
#     4  11  22  41  64  94 133 176 225 280 349 411
#     4  12  26  43  68 100 137 177 225 295 360 417
#
# _framework density 21.171593999999999
#
# number of rings (size 3 to 8) (size 9 to 14) (size 15 to 20)
#    0.000    0.762    5.714    3.143    0.000    3.048 
#    0.000    1.905    0.000    0.571    0.000    1.333 
#    0.000    0.000    0.000    0.000    0.000    0.000 
#
# Total GULP energy -234208.564186 kJ/mol
# GULP energy per Si atom -5576.394385 kJ/mol
# Density = 2.112341 g / cm^3
# Si number density = 21.171594 Si / 1000 Ang^3
#
#
#
# Elastic Constant Matrix: (Units=GPa)
#
#
# Indices 1 2 3 4 5 6 
#
# 1 113.6771 24.7254 51.5621 0.0000 0.0000 0.6649
# 2 24.7254 113.6771 51.5621 0.0000 0.0000 -0.6649
# 3 51.5621 51.5621 134.5920 0.0000 0.0000 0.0000
# 4 0.0000 0.0000 0.0000 -50.8781 0.0000 0.0000
# 5 0.0000 0.0000 0.0000 0.0000 -50.8781 0.0000
# 6 0.6649 -0.6649 0.0000 0.0000 0.0000 15.4241
#
#
#
# Elastic Compliance Matrix: (Units=1/GPa)
#
#
# Indices 1 2 3 4 5 6 
#
# 1 0.010680 -0.000569 -0.003874 0.000000 0.000000 -0.000485
# 2 -0.000569 0.010680 -0.003874 0.000000 0.000000 0.000485
# 3 -0.003874 -0.003874 0.010398 0.000000 0.000000 0.000000
# 4 0.000000 0.000000 0.000000 -0.019655 0.000000 0.000000
# 5 0.000000 0.000000 0.000000 0.000000 -0.019655 0.000000
# 6 -0.000485 0.000485 0.000000 0.000000 0.000000 0.064876
#
#
# Mechanical properties :
#
#
# Convention : Reuss Voigt Hill
#
# Bulk Modulus (GPa) = 66.11052 68.62725 67.36888
# Shear Modulus (GPa) = 63.29145 -1.65997 30.81574
#
# Velocity S-wave (km/s) = 5.47352 -0.88643 3.81927
# Velocity P-wave (km/s) = 8.44036 5.60691 7.16510
#
# Compressibility (1/GPa) = 0.01512619
#
# Stress axis : x y z
#
# Youngs Moduli (GPa) = 93.62875 93.62875 96.17296
#
# Poissons Ratio (x) = 0.05326 0.37255
# Poissons Ratio (y) = 0.05326 0.37255
# Poissons Ratio (z) = 0.36270 0.36270
#
# Static dielectric constant tensor:
#      x y z
#    x 1.835700 0.000000 0.000000 
#    y 0.000000 1.835700 0.000000 
#    z 0.000000 0.000000 1.812870 
# 
# From -- ./inp_files/6605.got.cif
#   From: 2010.05.17/outbox.cif.g08.bks.cpg/sg87_4_cif.got.tgz:6605.got - 2010.06.03 19:07:00.
