data_PCOD9546584
_publ_section_title
;
Structure prediction by ZEFSAII (Michael W. Deem and Ramdas Pophale) SiO2 
 PCOD9546584
Probable space group: I 41/A
;
_chemical_formula_sum "Si O2"
_cell_formula_units_Z 92
_cell_length_a 13.723384
_cell_length_b 13.723384
_cell_length_c 21.278386
_cell_angle_alpha 90.000000
_cell_angle_beta 90.000000
_cell_angle_gamma 90.000000
_cell_volume 4007.385425
_symmetry_space_group_name_H-M "I 41/A"
_symmetry_group_IT_number 88
_space_group.IT_coordinate_system_code '2'
_symmetry_cell_setting 'tetragonal'
loop_
_space_group_symop_operation_xyz
x,y,z
3/4-y,1/4+x,1/4+z
-x,1/2-y,z
1/4+y,1/4-x,1/4+z
-x,-y,-z
1/4+y,3/4-x,3/4-z
x,1/2+y,-z
3/4-y,3/4+x,3/4-z
1/2+x,1/2+y,1/2+z
1/4-y,3/4+x,3/4+z
1/2-x,-y,1/2+z
3/4+y,3/4-x,3/4+z
1/2-x,1/2-y,1/2-z
3/4+y,1/4-x,1/4-z
1/2+x,y,1/2-z
1/4-y,1/4+x,1/4-z
loop_
_atom_site_type_symbol
_atom_site_label
_atom_site_fract_x
_atom_site_fract_y
_atom_site_fract_z
Si Si1 0.500000 0.250000 0.875000
Si Si2 0.829301 0.369310 0.954411
Si Si3 0.500000 0.250000 0.491720
Si Si4 0.444688 0.050113 0.441517
Si Si5 0.929959 0.075108 0.425621
Si Si6 0.984578 0.972390 0.188531
Si Si7 0.391571 0.881387 0.017729
O O1 0.561715 0.181219 0.924006
O O2 0.846992 0.483270 0.939207
O O3 0.784057 0.313731 0.895004
O O4 0.776963 0.345088 0.018978
O O5 0.929889 0.312632 0.965158
O O6 0.442853 0.166026 0.452851
O O7 0.500000 0.000000 0.500000
O O8 0.501008 0.027459 0.376737
O O9 0.876538 0.178272 0.421261
O O10 0.026177 0.097378 0.464836
O O11 0.868649 0.990086 0.459328
O O12 0.074106 0.944719 0.233157
#
# Coordination Sequence:
#
# PCOD9546584 Si02
#       7
#     4  16   8  16  16  16  16
#     4  12  20  38  72  98 136 164 246 288 368 424
#     4  10  23  40  67  98 136 178 231 287 346 428
#     4  10  22  42  70  95 134 187 224 288 354 411
#     4   9  22  41  68 100 135 182 238 286 347 431
#     4  10  23  41  62  97 132 176 233 282 364 419
#     4  11  22  42  65  96 140 180 229 292 350 420
#     4  11  23  39  68  97 132 182 226 294 355 432
#
# _framework density 22.957612000000001
#
# number of rings (size 3 to 8) (size 9 to 14) (size 15 to 20)
#    0.000    1.739    1.739    1.043    7.304    4.870 
#    0.000    3.478    0.000    0.000    0.000    3.652 
#    0.000    0.000    0.000    0.000    0.000    0.000 
#
# Total GULP energy -256484.021809 kJ/mol
# GULP energy per Si atom -5575.739605 kJ/mol
# Density = 2.290536 g / cm^3
# Si number density = 22.957612 Si / 1000 Ang^3
#
#
#
# Elastic Constant Matrix: (Units=GPa)
#
#
# Indices 1 2 3 4 5 6 
#
# 1 82.7474 29.9863 33.6294 0.0000 0.0000 0.7344
# 2 29.9863 82.7474 33.6294 0.0000 0.0000 -0.7344
# 3 33.6294 33.6294 158.7033 0.0000 0.0000 0.0000
# 4 0.0000 0.0000 0.0000 14.3305 0.0000 0.0000
# 5 0.0000 0.0000 0.0000 0.0000 14.3305 0.0000
# 6 0.7344 -0.7344 0.0000 0.0000 0.0000 9.7385
#
#
#
# Elastic Compliance Matrix: (Units=1/GPa)
#
#
# Indices 1 2 3 4 5 6 
#
# 1 0.014574 -0.004420 -0.002152 0.000000 0.000000 -0.001432
# 2 -0.004420 0.014574 -0.002152 0.000000 0.000000 0.001432
# 3 -0.002152 -0.002152 0.007213 0.000000 0.000000 0.000000
# 4 0.000000 0.000000 0.000000 0.069781 0.000000 0.000000
# 5 0.000000 0.000000 0.000000 0.000000 0.069781 0.000000
# 6 -0.001432 0.001432 0.000000 0.000000 0.000000 0.102901
#
#
# Mechanical properties :
#
#
# Convention : Reuss Voigt Hill
#
# Bulk Modulus (GPa) = 52.86925 57.63207 55.25066
# Shear Modulus (GPa) = 16.52486 22.81011 19.66748
#
# Velocity S-wave (km/s) = 2.68582 3.15552 2.93010
# Velocity P-wave (km/s) = 5.71815 6.19957 5.96372
#
# Compressibility (1/GPa) = 0.01891459
#
# Stress axis : x y z
#
# Youngs Moduli (GPa) = 68.61672 68.61672 138.63939
#
# Poissons Ratio (x) = 0.30325 0.29831
# Poissons Ratio (y) = 0.30325 0.29831
# Poissons Ratio (z) = 0.14764 0.14764
#
# Static dielectric constant tensor:
#      x y z
#    x 1.906870 0.000000 0.000000 
#    y 0.000000 1.906870 0.000000 
#    z 0.000000 0.000000 1.969830 
# 
# From -- ./inp_files/4756.got.cif
#   From: 2010.05.17/outbox.cif.g08.bks.cpg/sg88_3_cif.got.tgz:4756.got - 2010.06.03 19:11:41.
