data_PCOD9546503
_publ_section_title
;
Structure prediction by ZEFSAII (Michael W. Deem and Ramdas Pophale) SiO2 
 PCOD9546503
Probable space group: I 41/A
;
_chemical_formula_sum "Si O2"
_cell_formula_units_Z 112
_cell_length_a 31.476529
_cell_length_b 31.476529
_cell_length_c 5.222708
_cell_angle_alpha 90.000000
_cell_angle_beta 90.000000
_cell_angle_gamma 90.000000
_cell_volume 5174.512213
_symmetry_space_group_name_H-M "I 41/A"
_symmetry_group_IT_number 88
_space_group.IT_coordinate_system_code '2'
_symmetry_cell_setting 'tetragonal'
loop_
_space_group_symop_operation_xyz
x,y,z
3/4-y,1/4+x,1/4+z
-x,1/2-y,z
1/4+y,1/4-x,1/4+z
-x,-y,-z
1/4+y,3/4-x,3/4-z
x,1/2+y,-z
3/4-y,3/4+x,3/4-z
1/2+x,1/2+y,1/2+z
1/4-y,3/4+x,3/4+z
1/2-x,-y,1/2+z
3/4+y,3/4-x,3/4+z
1/2-x,1/2-y,1/2-z
3/4+y,1/4-x,1/4-z
1/2+x,y,1/2-z
1/4-y,1/4+x,1/4-z
loop_
_atom_site_type_symbol
_atom_site_label
_atom_site_fract_x
_atom_site_fract_y
_atom_site_fract_z
Si Si1 0.221033 0.943092 0.579653
Si Si2 0.183838 0.736490 0.918757
Si Si3 0.840654 0.176297 0.839595
Si Si4 0.129781 0.935012 0.523549
Si Si5 0.268869 0.200877 0.052923
Si Si6 0.619652 0.513746 0.706961
Si Si7 0.904787 0.108270 0.967183
O O1 0.261799 0.953298 0.417618
O O2 0.178801 0.923443 0.455331
O O3 0.236940 0.914210 0.812809
O O4 0.224379 0.716644 0.075683
O O5 0.208251 0.758976 0.683982
O O6 0.149989 0.702166 0.821531
O O7 0.161682 0.775463 0.062800
O O8 0.809240 0.179535 0.591047
O O9 0.886514 0.155134 0.894699
O O10 0.811695 0.143868 0.999053
O O11 0.101054 0.913750 0.307440
O O12 0.121809 0.984798 0.460130
O O13 0.121177 0.916697 0.805810
O O14 0.250413 0.168146 0.265025
#
# Coordination Sequence:
#
# PCOD9546503 Si02
#       7
#    16  16  16  16  16  16  16
#     4  12  26  42  58  89 133 189 240 278 320 384
#     4  10  23  41  66 103 133 177 223 285 355 414
#     4  11  24  40  68 100 135 175 227 290 345 420
#     4  12  26  43  66  94 131 185 230 281 334 396
#     4  10  21  42  66 101 133 177 228 293 345 408
#     4  11  23  39  64  92 130 180 233 283 333 382
#     4  12  26  45  68 101 134 176 224 282 350 423
#
# _framework density 21.644549999999999
#
# number of rings (size 3 to 8) (size 9 to 14) (size 15 to 20)
#    0.000    0.857    2.857    3.857    8.000    0.000 
#    0.000    0.000    0.000    0.429    0.000    0.000 
#    0.000    0.000    0.000    0.000    0.000    0.000 
#
# Total GULP energy -312213.575937 kJ/mol
# GULP energy per Si atom -5575.242427 kJ/mol
# Density = 2.159529 g / cm^3
# Si number density = 21.644550 Si / 1000 Ang^3
#
#
#
# Elastic Constant Matrix: (Units=GPa)
#
#
# Indices 1 2 3 4 5 6 
#
# 1 128.0578 31.0227 24.7276 0.0000 0.0000 0.6349
# 2 31.0227 128.0578 24.7276 0.0000 0.0000 -0.6349
# 3 24.7276 24.7276 55.2590 0.0000 0.0000 0.0000
# 4 0.0000 0.0000 0.0000 26.1609 0.0000 0.0000
# 5 0.0000 0.0000 0.0000 0.0000 26.1609 0.0000
# 6 0.6349 -0.6349 0.0000 0.0000 0.0000 43.7647
#
#
#
# Elastic Compliance Matrix: (Units=1/GPa)
#
#
# Indices 1 2 3 4 5 6 
#
# 1 0.008805 -0.001503 -0.003268 0.000000 0.000000 -0.000150
# 2 -0.001503 0.008805 -0.003268 0.000000 0.000000 0.000150
# 3 -0.003268 -0.003268 0.021021 0.000000 0.000000 0.000000
# 4 0.000000 0.000000 0.000000 0.038225 0.000000 0.000000
# 5 0.000000 0.000000 0.000000 0.000000 0.038225 0.000000
# 6 -0.000150 0.000150 0.000000 0.000000 0.000000 0.022854
#
#
# Mechanical properties :
#
#
# Convention : Reuss Voigt Hill
#
# Bulk Modulus (GPa) = 44.33654 52.48116 48.40885
# Shear Modulus (GPa) = 30.95437 34.61041 32.78239
#
# Velocity S-wave (km/s) = 3.78580 4.00313 3.89598
# Velocity P-wave (km/s) = 6.29588 6.75768 6.53086
#
# Compressibility (1/GPa) = 0.02255476
#
# Stress axis : x y z
#
# Youngs Moduli (GPa) = 113.57549 113.57549 47.57165
#
# Poissons Ratio (x) = 0.17068 0.15544
# Poissons Ratio (y) = 0.17068 0.15544
# Poissons Ratio (z) = 0.37111 0.37111
#
# Static dielectric constant tensor:
#      x y z
#    x 1.993390 0.000000 0.000000 
#    y 0.000000 1.993390 0.000000 
#    z 0.000000 0.000000 1.898270 
# 
# From -- ./inp_files/806.got.cif
#   From: 2010.05.17/outbox.cif.g08.bks.cpg/sg88_1_cif.got.tgz:806.got - 2010.06.03 19:11:41.
