data_PCOD9546730
_publ_section_title
;
Structure prediction by ZEFSAII (Michael W. Deem and Ramdas Pophale) SiO2 
 PCOD9546730
Probable space group: I 41/A
;
_chemical_formula_sum "Si O2"
_cell_formula_units_Z 116
_cell_length_a 16.831316
_cell_length_b 16.831316
_cell_length_c 17.844337
_cell_angle_alpha 90.000000
_cell_angle_beta 90.000000
_cell_angle_gamma 90.000000
_cell_volume 5055.179300
_symmetry_space_group_name_H-M "I 41/A"
_symmetry_group_IT_number 88
_space_group.IT_coordinate_system_code '2'
_symmetry_cell_setting 'tetragonal'
loop_
_space_group_symop_operation_xyz
x,y,z
3/4-y,1/4+x,1/4+z
-x,1/2-y,z
1/4+y,1/4-x,1/4+z
-x,-y,-z
1/4+y,3/4-x,3/4-z
x,1/2+y,-z
3/4-y,3/4+x,3/4-z
1/2+x,1/2+y,1/2+z
1/4-y,3/4+x,3/4+z
1/2-x,-y,1/2+z
3/4+y,3/4-x,3/4+z
1/2-x,1/2-y,1/2-z
3/4+y,1/4-x,1/4-z
1/2+x,y,1/2-z
1/4-y,1/4+x,1/4-z
loop_
_atom_site_type_symbol
_atom_site_label
_atom_site_fract_x
_atom_site_fract_y
_atom_site_fract_z
Si Si1 0.575296 0.579764 0.200411
Si Si2 0.203877 0.715893 0.320915
Si Si3 0.169686 0.298706 0.156483
Si Si4 0.212734 0.427205 0.043932
Si Si5 0.155190 0.407779 0.301738
Si Si6 0.836762 0.116060 0.883080
Si Si7 0.500000 0.750000 0.625000
Si Si8 0.009995 0.091881 0.862697
O O1 0.530272 0.591138 0.121563
O O2 0.646391 0.643746 0.202142
O O3 0.608894 0.489962 0.204091
O O4 0.519385 0.588272 0.273261
O O5 0.250000 0.750000 0.250000
O O6 0.274657 0.685247 0.374006
O O7 0.174240 0.349604 0.080296
O O8 0.166075 0.362328 0.223207
O O9 0.253071 0.250371 0.150737
O O10 0.087223 0.251624 0.163223
O O11 0.180974 0.507379 0.081119
O O12 0.305753 0.421734 0.063012
O O13 0.190551 0.429547 0.957430
O O14 0.120660 0.340743 0.356136
O O15 0.929493 0.136207 0.886116
#
# Coordination Sequence:
#
# PCOD9546730 Si02
#       8
#    16  16  16  16  16  16   4  16
#     4  12  28  50  75 111 151 192 263 314 382 468
#     4  12  29  50  82 108 144 204 254 320 391 451
#     4  11  24  39  65 105 148 193 238 296 373 444
#     4  11  21  41  74 104 136 196 243 304 356 450
#     4  12  22  43  73 107 144 198 244 302 367 460
#     4  11  25  44  77 106 147 187 255 307 383 449
#     4  12  24  36  56  88 160 192 228 286 376 440
#     4  11  25  45  72 109 148 186 249 313 373 456
#
# _framework density 22.946763000000001
#
# number of rings (size 3 to 8) (size 9 to 14) (size 15 to 20)
#    0.000    0.552    4.138    5.379    5.793    0.276 
#    0.000    1.379    0.000    0.000    0.000    0.000 
#    0.000    0.000    0.000    0.000    0.000    0.000 
#
# Total GULP energy -324199.037666 kJ/mol
# GULP energy per Si atom -5589.638580 kJ/mol
# Density = 2.289453 g / cm^3
# Si number density = 22.946763 Si / 1000 Ang^3
#
#
#
# Elastic Constant Matrix: (Units=GPa)
#
#
# Indices 1 2 3 4 5 6 
#
# 1 63.1570 43.4205 11.1658 0.0000 0.0000 9.8654
# 2 43.4205 63.1570 11.1658 0.0000 0.0000 -9.8654
# 3 11.1658 11.1658 92.2580 0.0000 0.0000 0.0000
# 4 0.0000 0.0000 0.0000 22.2525 0.0000 0.0000
# 5 0.0000 0.0000 0.0000 0.0000 22.2525 0.0000
# 6 9.8654 -9.8654 0.0000 0.0000 0.0000 24.3495
#
#
#
# Elastic Compliance Matrix: (Units=1/GPa)
#
#
# Indices 1 2 3 4 5 6 
#
# 1 0.047394 -0.037767 -0.001165 0.000000 0.000000 -0.034503
# 2 -0.037767 0.047394 -0.001165 0.000000 0.000000 0.034503
# 3 -0.001165 -0.001165 0.011121 0.000000 0.000000 0.000000
# 4 0.000000 0.000000 0.000000 0.044939 0.000000 0.000000
# 5 0.000000 0.000000 0.000000 0.000000 0.044939 0.000000
# 6 -0.034503 0.034503 0.000000 0.000000 0.000000 0.069027
#
#
# Mechanical properties :
#
#
# Convention : Reuss Voigt Hill
#
# Bulk Modulus (GPa) = 38.88837 38.89734 38.89286
# Shear Modulus (GPa) = 14.14109 23.95890 19.04999
#
# Velocity S-wave (km/s) = 2.48514 3.23477 2.88441
# Velocity P-wave (km/s) = 5.02181 5.56234 5.29897
#
# Compressibility (1/GPa) = 0.02571463
#
# Stress axis : x y z
#
# Youngs Moduli (GPa) = 21.09980 21.09980 89.91837
#
# Poissons Ratio (x) = 0.79687 0.10477
# Poissons Ratio (y) = 0.79687 0.10477
# Poissons Ratio (z) = 0.02458 0.02458
#
# Static dielectric constant tensor:
#      x y z
#    x 1.937700 0.000000 0.000000 
#    y 0.000000 1.937700 0.000000 
#    z 0.000000 0.000000 2.268600 
# 
# From -- ./inp_files/4022.got.cif
#   From: 2010.05.17/outbox.cif.g08.bks.cpg/sg88_3_cif.got.tgz:4022.got - 2010.06.03 19:11:41.
