data_PCOD9546155
_publ_section_title
;
Structure prediction by ZEFSAII (Michael W. Deem and Ramdas Pophale) SiO2 
 PCOD9546155
Probable space group: I 4/M
;
_chemical_formula_sum "Si O2"
_cell_formula_units_Z 72
_cell_length_a 10.188476
_cell_length_b 10.188476
_cell_length_c 30.295165
_cell_angle_alpha 90.000000
_cell_angle_beta 90.000000
_cell_angle_gamma 90.000000
_cell_volume 3144.790912
_symmetry_space_group_name_H-M "I 4/M"
_symmetry_group_IT_number 87
_symmetry_cell_setting 'tetragonal'
loop_
_space_group_symop_operation_xyz
x,y,z
-y,x,z
-x,-y,z
y,-x,z
-x,-y,-z
y,-x,-z
x,y,-z
-y,x,-z
1/2+x,1/2+y,1/2+z
1/2-y,1/2+x,1/2+z
1/2-x,1/2-y,1/2+z
1/2+y,1/2-x,1/2+z
1/2-x,1/2-y,1/2-z
1/2+y,1/2-x,1/2-z
1/2+x,1/2+y,1/2-z
1/2-y,1/2+x,1/2-z
loop_
_atom_site_type_symbol
_atom_site_label
_atom_site_fract_x
_atom_site_fract_y
_atom_site_fract_z
Si Si1 0.717056 0.449273 0.249367
Si Si2 0.903946 0.197896 0.000000
Si Si3 0.282260 0.543957 0.655394
Si Si4 0.783998 0.052509 0.347153
Si Si5 0.068661 0.625253 0.081213
O O1 0.650775 0.593507 0.249766
O O2 0.784955 0.434883 0.296829
O O3 0.780250 0.430749 0.201628
O O4 0.877104 0.278090 0.044306
O O5 0.059510 0.168393 0.000000
O O6 0.352750 0.401082 0.653494
O O7 0.192273 0.540986 0.612768
O O8 0.682307 0.080933 0.385417
O O9 0.907491 0.152352 0.349693
O O10 0.000000 0.500000 0.059572
#
# Coordination Sequence:
#
# PCOD9546155 Si02
#       5
#    16   8  16  16  16
#     4   7  12  30  57  84 120 173 226 258 297 362
#     4  11  27  52  80  97 118 160 208 271 343 396
#     4   9  18  36  63  91 125 173 224 272 318 365
#     4   9  20  40  63  89 131 184 219 248 310 390
#     4  12  26  41  64 101 132 160 207 274 329 375
#
# _framework density 22.895002999999999
#
# number of rings (size 3 to 8) (size 9 to 14) (size 15 to 20)
#    0.000    2.556    0.000    4.333    6.222    1.778 
#    4.000    3.333    0.000    1.333    0.000    0.000 
#    0.000    0.000    0.000    0.000    0.000    0.000 
#
# Total GULP energy -201344.995581 kJ/mol
# GULP energy per Si atom -5592.916544 kJ/mol
# Density = 2.284289 g / cm^3
# Si number density = 22.895003 Si / 1000 Ang^3
#
#
#
# Elastic Constant Matrix: (Units=GPa)
#
#
# Indices 1 2 3 4 5 6 
#
# 1 52.2912 17.3063 16.9842 0.0000 0.0000 -2.0316
# 2 17.3063 52.2912 16.9842 0.0000 0.0000 2.0316
# 3 16.9842 16.9842 129.1881 0.0000 0.0000 0.0000
# 4 0.0000 0.0000 0.0000 74.5096 0.0000 0.0000
# 5 0.0000 0.0000 0.0000 0.0000 74.5097 0.0000
# 6 -2.0316 2.0316 0.0000 0.0000 0.0000 17.9707
#
#
#
# Elastic Compliance Matrix: (Units=1/GPa)
#
#
# Indices 1 2 3 4 5 6 
#
# 1 0.022159 -0.006805 -0.002019 0.000000 0.000000 0.003274
# 2 -0.006805 0.022159 -0.002019 0.000000 0.000000 -0.003274
# 3 -0.002019 -0.002019 0.008271 0.000000 0.000000 0.000000
# 4 0.000000 0.000000 0.000000 0.013421 0.000000 0.000000
# 5 0.000000 0.000000 0.000000 0.000000 0.013421 0.000000
# 6 0.003274 -0.003274 0.000000 0.000000 0.000000 0.056387
#
#
# Mechanical properties :
#
#
# Convention : Reuss Voigt Hill
#
# Bulk Modulus (GPa) = 32.35790 37.36889 34.86340
# Shear Modulus (GPa) = 29.79670 45.56438 37.68054
#
# Velocity S-wave (km/s) = 3.61148 4.46594 4.06124
# Velocity P-wave (km/s) = 5.61731 6.55364 6.10346
#
# Compressibility (1/GPa) = 0.03090435
#
# Stress axis : x y z
#
# Youngs Moduli (GPa) = 45.12882 45.12881 120.89866
#
# Poissons Ratio (x) = 0.30712 0.24403
# Poissons Ratio (y) = 0.30712 0.24403
# Poissons Ratio (z) = 0.09109 0.09109
#
# Static dielectric constant tensor:
#      x y z
#    x 1.880110 0.000000 0.000000 
#    y 0.000000 1.880110 0.000000 
#    z 0.000000 0.000000 1.818470 
# 
# From -- ./inp_files/6164.got.cif
#   From: 2010.05.17/outbox.cif.g08.bks.cpg/sg87_4_cif.got.tgz:6164.got - 2010.06.03 19:07:00.
