data_PCOD9546528
_publ_section_title
;
Structure prediction by ZEFSAII (Michael W. Deem and Ramdas Pophale) SiO2 
 PCOD9546528
Probable space group: I 41/A
;
_chemical_formula_sum "Si O2"
_cell_formula_units_Z 112
_cell_length_a 29.065466
_cell_length_b 29.065466
_cell_length_c 6.053168
_cell_angle_alpha 90.000000
_cell_angle_beta 90.000000
_cell_angle_gamma 90.000000
_cell_volume 5113.724279
_symmetry_space_group_name_H-M "I 41/A"
_symmetry_group_IT_number 88
_space_group.IT_coordinate_system_code '2'
_symmetry_cell_setting 'tetragonal'
loop_
_space_group_symop_operation_xyz
x,y,z
3/4-y,1/4+x,1/4+z
-x,1/2-y,z
1/4+y,1/4-x,1/4+z
-x,-y,-z
1/4+y,3/4-x,3/4-z
x,1/2+y,-z
3/4-y,3/4+x,3/4-z
1/2+x,1/2+y,1/2+z
1/4-y,3/4+x,3/4+z
1/2-x,-y,1/2+z
3/4+y,3/4-x,3/4+z
1/2-x,1/2-y,1/2-z
3/4+y,1/4-x,1/4-z
1/2+x,y,1/2-z
1/4-y,1/4+x,1/4-z
loop_
_atom_site_type_symbol
_atom_site_label
_atom_site_fract_x
_atom_site_fract_y
_atom_site_fract_z
Si Si1 0.138588 0.429242 0.687743
Si Si2 0.347461 0.290330 0.032211
Si Si3 0.315392 0.208794 0.796672
Si Si4 0.111464 0.275221 0.094297
Si Si5 0.377147 0.466639 0.187316
Si Si6 0.391919 0.895359 0.422615
Si Si7 0.436217 0.770619 0.226417
O O1 0.091768 0.418927 0.823351
O O2 0.145170 0.483580 0.695139
O O3 0.181593 0.403675 0.796100
O O4 0.132251 0.405925 0.445080
O O5 0.366729 0.261875 0.239544
O O6 0.309135 0.257463 0.917494
O O7 0.390014 0.294043 0.860087
O O8 0.351700 0.217264 0.601888
O O9 0.277427 0.176543 0.685405
O O10 0.339141 0.176335 0.978535
O O11 0.107751 0.326519 0.198561
O O12 0.069017 0.253325 0.962941
O O13 0.384663 0.439187 0.416380
O O14 0.479238 0.803787 0.197196
#
# Coordination Sequence:
#
# PCOD9546528 Si02
#       7
#    16  16  16  16  16  16  16
#     4  11  25  44  67 103 129 181 230 288 353 421
#     4  10  22  37  66  93 130 176 228 273 334 404
#     4   8  18  40  62  95 128 168 212 273 327 404
#     4   9  19  39  63  94 126 178 218 269 332 393
#     4  10  23  43  67  97 134 172 228 282 360 412
#     4   9  20  41  70  91 133 172 216 286 337 408
#     4  10  23  38  56  93 139 176 225 272 320 399
#
# _framework density 21.901845000000002
#
# number of rings (size 3 to 8) (size 9 to 14) (size 15 to 20)
#    0.000    2.429    0.000    0.000   12.000    6.286 
#    2.571    7.857    0.000    0.000    0.000    0.000 
#    0.000    0.000    0.000    0.000    0.000    0.000 
#
# Total GULP energy -312591.972441 kJ/mol
# GULP energy per Si atom -5581.999508 kJ/mol
# Density = 2.185200 g / cm^3
# Si number density = 21.901845 Si / 1000 Ang^3
#
#
#
# Elastic Constant Matrix: (Units=GPa)
#
#
# Indices 1 2 3 4 5 6 
#
# 1 115.0757 53.4262 39.3113 0.0000 0.0000 -4.9063
# 2 53.4262 115.0757 39.3113 0.0000 0.0000 4.9063
# 3 39.3113 39.3113 102.9205 0.0000 0.0000 0.0000
# 4 0.0000 0.0000 0.0000 14.5465 0.0000 0.0000
# 5 0.0000 0.0000 0.0000 0.0000 14.5465 0.0000
# 6 -4.9063 4.9063 0.0000 0.0000 0.0000 25.3670
#
#
#
# Elastic Compliance Matrix: (Units=1/GPa)
#
#
# Indices 1 2 3 4 5 6 
#
# 1 0.011979 -0.004757 -0.002758 0.000000 0.000000 0.003237
# 2 -0.004757 0.011979 -0.002758 0.000000 0.000000 -0.003237
# 3 -0.002758 -0.002758 0.011823 0.000000 0.000000 0.000000
# 4 0.000000 0.000000 0.000000 0.068745 0.000000 0.000000
# 5 0.000000 0.000000 0.000000 0.000000 0.068745 0.000000
# 6 0.003237 -0.003237 0.000000 0.000000 0.000000 0.040673
#
#
# Mechanical properties :
#
#
# Convention : Reuss Voigt Hill
#
# Bulk Modulus (GPa) = 65.64576 66.35217 65.99897
# Shear Modulus (GPa) = 20.87071 24.29354 22.58212
#
# Velocity S-wave (km/s) = 3.09029 3.33408 3.21450
# Velocity P-wave (km/s) = 6.53995 6.72179 6.63149
#
# Compressibility (1/GPa) = 0.01523328
#
# Stress axis : x y z
#
# Youngs Moduli (GPa) = 83.48059 83.48059 84.57793
#
# Poissons Ratio (x) = 0.39713 0.23330
# Poissons Ratio (y) = 0.39713 0.23330
# Poissons Ratio (z) = 0.23027 0.23027
#
# Static dielectric constant tensor:
#      x y z
#    x 1.814900 0.000000 0.000000 
#    y 0.000000 1.814900 0.000000 
#    z 0.000000 0.000000 1.858940 
# 
# From -- ./inp_files/816.got.cif
#   From: 2010.05.17/outbox.cif.g08.bks.cpg/sg88_1_cif.got.tgz:816.got - 2010.06.03 19:11:41.
