data_PCOD9546001
_publ_section_title
;
Structure prediction by ZEFSAII (Michael W. Deem and Ramdas Pophale) SiO2 
 PCOD9546001
Probable space group: I 4/M
;
_chemical_formula_sum "Si O2"
_cell_formula_units_Z 88
_cell_length_a 11.256023
_cell_length_b 11.256023
_cell_length_c 30.044314
_cell_angle_alpha 90.000000
_cell_angle_beta 90.000000
_cell_angle_gamma 90.000000
_cell_volume 3806.556111
_symmetry_space_group_name_H-M "I 4/M"
_symmetry_group_IT_number 87
_symmetry_cell_setting 'tetragonal'
loop_
_space_group_symop_operation_xyz
x,y,z
-y,x,z
-x,-y,z
y,-x,z
-x,-y,-z
y,-x,-z
x,y,-z
-y,x,-z
1/2+x,1/2+y,1/2+z
1/2-y,1/2+x,1/2+z
1/2-x,1/2-y,1/2+z
1/2+y,1/2-x,1/2+z
1/2-x,1/2-y,1/2-z
1/2+y,1/2-x,1/2-z
1/2+x,1/2+y,1/2-z
1/2-y,1/2+x,1/2-z
loop_
_atom_site_type_symbol
_atom_site_label
_atom_site_fract_x
_atom_site_fract_y
_atom_site_fract_z
Si Si1 0.453856 0.692380 0.052840
Si Si2 0.191052 0.506242 0.260552
Si Si3 0.830507 0.102022 0.000000
Si Si4 0.206313 0.629108 0.593683
Si Si5 0.185707 0.950785 0.674641
Si Si6 0.208139 0.390087 0.354716
O O1 0.361225 0.584287 0.061045
O O2 0.414484 0.800504 0.083412
O O3 0.449622 0.720982 0.000000
O O4 0.115420 0.402218 0.235341
O O5 0.293799 0.548782 0.227852
O O6 0.233086 0.453758 0.307335
O O7 0.767336 0.136233 0.954609
O O8 0.960628 0.156909 0.000000
O O9 0.297968 0.692794 0.627685
O O10 0.189080 0.495253 0.610200
O O11 0.308884 0.906070 0.654949
O O12 0.080678 0.860556 0.662602
#
# Coordination Sequence:
#
# PCOD9546001 Si02
#       6
#    16  16   8  16  16  16
#     4   9  20  43  73 103 143 200 251 297 370 445
#     4   9  21  44  71 100 145 190 236 303 377 436
#     4  11  22  44  72  97 150 200 244 294 383 449
#     4  12  24  44  72 108 150 194 246 316 368 445
#     4  10  24  47  74 103 141 195 239 304 384 449
#     4  11  27  42  71 112 144 189 256 306 367 445
#
# _framework density 23.118009000000001
#
# number of rings (size 3 to 8) (size 9 to 14) (size 15 to 20)
#    0.000    1.727    2.727    0.545    5.091    3.273 
#    9.818    1.818    0.000    3.273    0.000    0.000 
#    0.000    0.000    0.000    0.000    0.000    0.000 
#
# Total GULP energy -246288.472743 kJ/mol
# GULP energy per Si atom -5597.465290 kJ/mol
# Density = 2.306539 g / cm^3
# Si number density = 23.118009 Si / 1000 Ang^3
#
#
#
# Elastic Constant Matrix: (Units=GPa)
#
#
# Indices 1 2 3 4 5 6 
#
# 1 69.5362 27.4327 30.5327 0.0000 0.0000 -3.5714
# 2 27.4327 69.5362 30.5327 0.0000 0.0000 3.5714
# 3 30.5327 30.5327 113.2537 0.0000 0.0000 0.0000
# 4 0.0000 0.0000 0.0000 30.7770 0.0000 0.0000
# 5 0.0000 0.0000 0.0000 0.0000 30.7770 0.0000
# 6 -3.5714 3.5714 0.0000 0.0000 0.0000 21.2581
#
#
#
# Elastic Compliance Matrix: (Units=1/GPa)
#
#
# Indices 1 2 3 4 5 6 
#
# 1 0.018435 -0.006013 -0.003349 0.000000 0.000000 0.004107
# 2 -0.006013 0.018435 -0.003349 0.000000 0.000000 -0.004107
# 3 -0.003349 -0.003349 0.010635 0.000000 0.000000 0.000000
# 4 0.000000 0.000000 0.000000 0.032492 0.000000 0.000000
# 5 0.000000 0.000000 0.000000 0.000000 0.032492 0.000000
# 6 0.004107 -0.004107 0.000000 0.000000 0.000000 0.048421
#
#
# Mechanical properties :
#
#
# Convention : Reuss Voigt Hill
#
# Bulk Modulus (GPa) = 45.28333 47.70247 46.49290
# Shear Modulus (GPa) = 25.81422 27.48429 26.64925
#
# Velocity S-wave (km/s) = 3.34522 3.45174 3.39890
# Velocity P-wave (km/s) = 5.87802 6.04691 5.96306
#
# Compressibility (1/GPa) = 0.02208318
#
# Stress axis : x y z
#
# Youngs Moduli (GPa) = 54.24572 54.24571 94.02598
#
# Poissons Ratio (x) = 0.32619 0.31487
# Poissons Ratio (y) = 0.32619 0.31487
# Poissons Ratio (z) = 0.18166 0.18166
#
# Static dielectric constant tensor:
#      x y z
#    x 1.843690 0.000000 0.000000 
#    y 0.000000 1.843690 0.000000 
#    z 0.000000 0.000000 1.916220 
# 
# From -- ./inp_files/6554.got.cif
#   From: 2010.05.17/outbox.cif.g08.bks.cpg/sg87_4_cif.got.tgz:6554.got - 2010.06.03 19:07:00.
