data_PCOD9546690
_publ_section_title
;
Structure prediction by ZEFSAII (Michael W. Deem and Ramdas Pophale) SiO2 
 PCOD9546690
Probable space group: I 41/A
;
_chemical_formula_sum "Si O2"
_cell_formula_units_Z 56
_cell_length_a 10.101342
_cell_length_b 10.101342
_cell_length_c 22.443346
_cell_angle_alpha 90.000000
_cell_angle_beta 90.000000
_cell_angle_gamma 90.000000
_cell_volume 2290.054169
_symmetry_space_group_name_H-M "I 41/A"
_symmetry_group_IT_number 88
_space_group.IT_coordinate_system_code '2'
_symmetry_cell_setting 'tetragonal'
loop_
_space_group_symop_operation_xyz
x,y,z
3/4-y,1/4+x,1/4+z
-x,1/2-y,z
1/4+y,1/4-x,1/4+z
-x,-y,-z
1/4+y,3/4-x,3/4-z
x,1/2+y,-z
3/4-y,3/4+x,3/4-z
1/2+x,1/2+y,1/2+z
1/4-y,3/4+x,3/4+z
1/2-x,-y,1/2+z
3/4+y,3/4-x,3/4+z
1/2-x,1/2-y,1/2-z
3/4+y,1/4-x,1/4-z
1/2+x,y,1/2-z
1/4-y,1/4+x,1/4-z
loop_
_atom_site_type_symbol
_atom_site_label
_atom_site_fract_x
_atom_site_fract_y
_atom_site_fract_z
Si Si1 0.500000 0.750000 0.489614
Si Si2 0.085526 0.420051 0.154879
Si Si3 0.554308 0.896429 0.046536
Si Si4 0.697819 0.181518 0.598162
O O1 0.583582 0.654620 0.533732
O O2 0.388668 0.714266 0.440110
O O3 0.159841 0.321756 0.108898
O O4 0.128046 0.569928 0.139822
O O5 0.500000 0.750000 0.033815
O O6 0.711672 0.892862 0.049944
O O7 0.508934 0.951801 0.110120
O O8 0.500000 0.000000 0.000000
#
# Coordination Sequence:
#
# PCOD9546690 Si02
#       4
#     8  16  16  16
#     4  10  25  44  74 110 140 203 252 304 392 456
#     4   9  23  44  66 109 152 194 258 310 380 463
#     4  12  28  49  74 108 154 200 255 314 388 464
#     4  12  24  47  74 108 153 192 255 316 386 468
#
# _framework density 24.453568000000001
#
# number of rings (size 3 to 8) (size 9 to 14) (size 15 to 20)
#    0.000    1.429    2.857    1.714    6.000    9.143 
#    0.000    0.000    0.000    0.000    0.000    0.000 
#    0.000    0.000    0.000    0.000    0.000    0.000 
#
# Total GULP energy -155924.690374 kJ/mol
# GULP energy per Si atom -5568.738942 kJ/mol
# Density = 2.439791 g / cm^3
# Si number density = 24.453568 Si / 1000 Ang^3
#
#
#
# Elastic Constant Matrix: (Units=GPa)
#
#
# Indices 1 2 3 4 5 6 
#
# 1 100.4956 5.1163 54.4631 0.0000 0.0000 -18.0597
# 2 5.1163 100.4956 54.4631 0.0000 0.0000 18.0597
# 3 54.4631 54.4631 107.8210 0.0000 0.0000 0.0000
# 4 0.0000 0.0000 0.0000 6.8961 0.0000 0.0000
# 5 0.0000 0.0000 0.0000 0.0000 6.8961 0.0000
# 6 -18.0597 18.0597 0.0000 0.0000 0.0000 40.0974
#
#
#
# Elastic Compliance Matrix: (Units=1/GPa)
#
#
# Indices 1 2 3 4 5 6 
#
# 1 0.016203 0.003563 -0.009985 0.000000 0.000000 0.005693
# 2 0.003563 0.016203 -0.009985 0.000000 0.000000 -0.005693
# 3 -0.009985 -0.009985 0.019362 0.000000 0.000000 0.000000
# 4 0.000000 0.000000 0.000000 0.145010 0.000000 0.000000
# 5 0.000000 0.000000 0.000000 0.000000 0.145010 0.000000
# 6 0.005693 -0.005693 0.000000 0.000000 0.000000 0.030068
#
#
# Mechanical properties :
#
#
# Convention : Reuss Voigt Hill
#
# Bulk Modulus (GPa) = 52.75283 59.65523 56.20403
# Shear Modulus (GPa) = 12.16582 23.76255 17.96419
#
# Velocity S-wave (km/s) = 2.23291 3.12066 2.71334
# Velocity P-wave (km/s) = 5.31670 6.11825 5.73150
#
# Compressibility (1/GPa) = 0.01895633
#
# Stress axis : x y z
#
# Youngs Moduli (GPa) = 61.71515 61.71515 51.64879
#
# Poissons Ratio (x) = -0.21989 0.51569
# Poissons Ratio (y) = -0.21989 0.51569
# Poissons Ratio (z) = 0.61620 0.61620
#
# Static dielectric constant tensor:
#      x y z
#    x 2.001820 0.000000 0.000000 
#    y 0.000000 2.001820 0.000000 
#    z 0.000000 0.000000 2.159080 
# 
# From -- ./inp_files/4343.got.cif
#   From: 2010.05.17/outbox.cif.g08.bks.cpg/sg88_3_cif.got.tgz:4343.got - 2010.06.03 19:11:41.
