data_PCOD9546656
_publ_section_title
;
Structure prediction by ZEFSAII (Michael W. Deem and Ramdas Pophale) SiO2 
 PCOD9546656
Probable space group: I 41/A
;
_chemical_formula_sum "Si O2"
_cell_formula_units_Z 32
_cell_length_a 14.752217
_cell_length_b 14.752217
_cell_length_c 5.216708
_cell_angle_alpha 90.000000
_cell_angle_beta 90.000000
_cell_angle_gamma 90.000000
_cell_volume 1135.301240
_symmetry_space_group_name_H-M "I 41/A"
_symmetry_group_IT_number 88
_space_group.IT_coordinate_system_code '2'
_symmetry_cell_setting 'tetragonal'
loop_
_space_group_symop_operation_xyz
x,y,z
3/4-y,1/4+x,1/4+z
-x,1/2-y,z
1/4+y,1/4-x,1/4+z
-x,-y,-z
1/4+y,3/4-x,3/4-z
x,1/2+y,-z
3/4-y,3/4+x,3/4-z
1/2+x,1/2+y,1/2+z
1/4-y,3/4+x,3/4+z
1/2-x,-y,1/2+z
3/4+y,3/4-x,3/4+z
1/2-x,1/2-y,1/2-z
3/4+y,1/4-x,1/4-z
1/2+x,y,1/2-z
1/4-y,1/4+x,1/4-z
loop_
_atom_site_type_symbol
_atom_site_label
_atom_site_fract_x
_atom_site_fract_y
_atom_site_fract_z
Si Si1 0.017995 0.616174 0.791557
Si Si2 0.712868 0.631740 0.138641
O O1 0.947128 0.659046 0.992977
O O2 0.955518 0.593189 0.547723
O O3 0.074370 0.524507 0.837519
O O4 0.795075 0.595170 0.316193
#
# Coordination Sequence:
#
# PCOD9546656 Si02
#       2
#    16  16
#     4  10  24  41  64  94 132 175 222 274 334 397
#     4  11  24  42  68  99 134 178 226 277 338 404
#
# _framework density 28.186350999999998
#
# number of rings (size 3 to 8) (size 9 to 14) (size 15 to 20)
#    0.000    1.500    0.000    3.000    0.000   20.000 
#    0.000    0.000    0.000    0.000    0.000    0.000 
#    0.000    0.000    0.000    0.000    0.000    0.000 
#
# Total GULP energy -89652.310150 kJ/mol
# GULP energy per Si atom -5603.269384 kJ/mol
# Density = 2.812220 g / cm^3
# Si number density = 28.186351 Si / 1000 Ang^3
#
#
#
# Elastic Constant Matrix: (Units=GPa)
#
#
# Indices 1 2 3 4 5 6 
#
# 1 207.1285 82.9937 56.3510 0.0000 0.0000 13.2777
# 2 82.9937 207.1285 56.3510 0.0000 0.0000 -13.2777
# 3 56.3510 56.3510 78.3004 0.0000 0.0000 0.0000
# 4 0.0000 0.0000 0.0000 58.8469 0.0000 0.0000
# 5 0.0000 0.0000 0.0000 0.0000 58.8469 0.0000
# 6 13.2777 -13.2777 0.0000 0.0000 0.0000 92.3867
#
#
#
# Elastic Compliance Matrix: (Units=1/GPa)
#
#
# Indices 1 2 3 4 5 6 
#
# 1 0.006548 -0.001763 -0.003443 0.000000 0.000000 -0.001194
# 2 -0.001763 0.006548 -0.003443 0.000000 0.000000 0.001194
# 3 -0.003443 -0.003443 0.017727 0.000000 0.000000 0.000000
# 4 0.000000 0.000000 0.000000 0.016993 0.000000 0.000000
# 5 0.000000 0.000000 0.000000 0.000000 0.016993 0.000000
# 6 -0.001194 0.001194 0.000000 0.000000 0.000000 0.011167
#
#
# Mechanical properties :
#
#
# Convention : Reuss Voigt Hill
#
# Bulk Modulus (GPa) = 73.94670 98.21654 86.08162
# Shear Modulus (GPa) = 51.13287 61.80688 56.46988
#
# Velocity S-wave (km/s) = 4.26385 4.68781 4.48084
# Velocity P-wave (km/s) = 7.10861 8.01385 7.57477
#
# Compressibility (1/GPa) = 0.01352325
#
# Stress axis : x y z
#
# Youngs Moduli (GPa) = 152.72220 152.72220 56.41000
#
# Poissons Ratio (x) = 0.26932 0.19423
# Poissons Ratio (y) = 0.26932 0.19423
# Poissons Ratio (z) = 0.52586 0.52586
#
# Static dielectric constant tensor:
#      x y z
#    x 2.219210 0.000000 0.000000 
#    y 0.000000 2.219210 0.000000 
#    z 0.000000 0.000000 2.272470 
# 
# From -- ./inp_files/213.got.cif
#   From: 2010.05.17/outbox.cif.g08.bks.cpg/sg88_1_cif.got.tgz:213.got - 2010.06.03 19:11:41.
