data_PCOD9546936
_publ_section_title
;
Structure prediction by ZEFSAII (Michael W. Deem and Ramdas Pophale) SiO2 
 PCOD9546936
Probable space group: P 4 2 2
;
_chemical_formula_sum "Si O2"
_cell_formula_units_Z 64
_cell_length_a 11.081122
_cell_length_b 11.081122
_cell_length_c 25.316879
_cell_angle_alpha 90.000000
_cell_angle_beta 90.000000
_cell_angle_gamma 90.000000
_cell_volume 3108.691593
_symmetry_space_group_name_H-M "P 4 2 2"
_symmetry_group_IT_number 89
_symmetry_cell_setting 'tetragonal'
loop_
_space_group_symop_operation_xyz
x,y,z
-y,x,z
-x,-y,z
y,-x,z
x,-y,-z
-x,y,-z
y,x,-z
-y,-x,-z
loop_
_atom_site_type_symbol
_atom_site_label
_atom_site_fract_x
_atom_site_fract_y
_atom_site_fract_z
Si Si1 0.012896 0.796880 0.558539
Si Si2 0.511965 0.297245 0.441636
Si Si3 0.858593 0.449879 0.754768
Si Si4 0.073953 0.181951 0.852896
Si Si5 0.882262 0.708476 0.966582
Si Si6 0.400968 0.899859 0.360969
Si Si7 0.263893 0.664493 0.199597
Si Si8 0.314117 0.440522 0.914831
O O1 0.040041 0.705925 0.605488
O O2 0.892115 0.876928 0.561559
O O3 0.000000 0.738831 0.500000
O O4 0.622461 0.391741 0.438180
O O5 0.500000 0.239808 0.500000
O O6 0.538330 0.203409 0.396281
O O7 0.859862 0.379007 0.699013
O O8 0.771417 0.569055 0.754685
O O9 0.776287 0.356415 0.790531
O O10 0.000000 0.500000 0.766416
O O11 0.082049 0.218154 0.914034
O O12 0.134814 0.282485 0.817743
O O13 0.937156 0.151159 0.842029
O O14 0.806453 0.596442 0.944552
O O15 0.794071 0.794071 0.000000
O O16 0.000000 0.677517 0.000000
O O17 0.500000 0.000000 0.353844
O O18 0.302904 0.586098 0.147990
O O19 0.425174 0.353065 0.929365
#
# Coordination Sequence:
#
# PCOD9546936 Si02
#       8
#     8   8   8   8   8   8   8   8
#     4   9  21  41  66  94 128 174 224 273 329 402
#     4   9  21  39  58  85 124 168 213 264 323 395
#     4  11  26  44  64  99 137 173 224 296 356 423
#     4  10  20  36  66  98 127 177 229 273 332 407
#     4  11  22  38  62  96 140 182 210 267 342 399
#     4  11  26  37  61  95 130 169 220 271 346 404
#     4  11  22  43  70  95 132 175 230 289 356 414
#     4  10  22  44  70  98 128 174 240 285 331 409
#
# _framework density 20.587439
#
# number of rings (size 3 to 8) (size 9 to 14) (size 15 to 20)
#    0.000    1.750    2.500    1.500    5.250    2.875 
#    0.000    1.875    0.000    1.500    0.000    0.000 
#    0.000    0.000    0.000    0.000    0.000    0.000 
#
# Total GULP energy -356667.671344 kJ/mol
# GULP energy per Si atom -5572.932365 kJ/mol
# Density = 2.054058 g / cm^3
# Si number density = 20.587439 Si / 1000 Ang^3
#
#
#
# Elastic Constant Matrix: (Units=GPa)
#
#
# Indices 1 2 3 4 5 6 
#
# 1 61.1884 26.7598 29.7351 0.0000 0.0000 0.0000
# 2 26.7598 61.1884 29.7351 0.0000 0.0000 0.0000
# 3 29.7351 29.7351 84.6008 0.0000 0.0000 0.0000
# 4 0.0000 0.0000 0.0000 -36.7702 0.0000 0.0000
# 5 0.0000 0.0000 0.0000 0.0000 -36.7702 0.0000
# 6 0.0000 0.0000 0.0000 0.0000 0.0000 11.1959
#
#
#
# Elastic Compliance Matrix: (Units=1/GPa)
#
#
# Indices 1 2 3 4 5 6 
#
# 1 0.021980 -0.007065 -0.005242 0.000000 0.000000 0.000000
# 2 -0.007065 0.021980 -0.005242 0.000000 0.000000 0.000000
# 3 -0.005242 -0.005242 0.015505 0.000000 0.000000 0.000000
# 4 0.000000 0.000000 0.000000 -0.027196 0.000000 0.000000
# 5 0.000000 0.000000 0.000000 0.000000 -0.027196 0.000000
# 6 0.000000 0.000000 0.000000 0.000000 0.000000 0.089319
#
#
# Mechanical properties :
#
#
# Convention : Reuss Voigt Hill
#
# Bulk Modulus (GPa) = 41.04017 42.15974 41.59996
# Shear Modulus (GPa) = 36.33331 -4.41906 15.95713
#
# Velocity S-wave (km/s) = 4.20554 -1.46668 2.78707
# Velocity P-wave (km/s) = 6.60000 4.20174 5.53239
#
# Compressibility (1/GPa) = 0.02436637
#
# Stress axis : x y z
#
# Youngs Moduli (GPa) = 45.49508 45.49508 64.49404
#
# Poissons Ratio (x) = 0.32143 0.33810
# Poissons Ratio (y) = 0.32143 0.33810
# Poissons Ratio (z) = 0.23850 0.23850
#
# Static dielectric constant tensor:
#      x y z
#    x 1.763430 0.000000 0.000000 
#    y 0.000000 1.763430 0.000000 
#    z 0.000000 0.000000 1.795190 
# 
# From -- ./inp_files/2808.got.cif
#   From: 2010.05.17/outbox.cif.g08.bks.cpg/sg89_2_cif.got.tgz:2808.got - 2010.06.03 19:15:31.
