data_PCOD9546409
_publ_section_title
;
Structure prediction by ZEFSAII (Michael W. Deem and Ramdas Pophale) SiO2 
 PCOD9546409
Probable space group: I 41/A
;
_chemical_formula_sum "Si O2"
_cell_formula_units_Z 96
_cell_length_a 14.762691
_cell_length_b 14.762691
_cell_length_c 20.935564
_cell_angle_alpha 90.000000
_cell_angle_beta 90.000000
_cell_angle_gamma 90.000000
_cell_volume 4562.634965
_symmetry_space_group_name_H-M "I 41/A"
_symmetry_group_IT_number 88
_space_group.IT_coordinate_system_code '2'
_symmetry_cell_setting 'tetragonal'
loop_
_space_group_symop_operation_xyz
x,y,z
3/4-y,1/4+x,1/4+z
-x,1/2-y,z
1/4+y,1/4-x,1/4+z
-x,-y,-z
1/4+y,3/4-x,3/4-z
x,1/2+y,-z
3/4-y,3/4+x,3/4-z
1/2+x,1/2+y,1/2+z
1/4-y,3/4+x,3/4+z
1/2-x,-y,1/2+z
3/4+y,3/4-x,3/4+z
1/2-x,1/2-y,1/2-z
3/4+y,1/4-x,1/4-z
1/2+x,y,1/2-z
1/4-y,1/4+x,1/4-z
loop_
_atom_site_type_symbol
_atom_site_label
_atom_site_fract_x
_atom_site_fract_y
_atom_site_fract_z
Si Si1 0.570029 0.447619 0.720288
Si Si2 0.230285 0.265669 0.338968
Si Si3 0.710265 0.794616 0.313436
Si Si4 0.633653 0.702026 0.107205
Si Si5 0.407001 0.288040 0.583227
Si Si6 0.614490 0.387627 0.498612
O O1 0.501419 0.476255 0.664355
O O2 0.628856 0.361806 0.700424
O O3 0.525197 0.420258 0.787264
O O4 0.638703 0.530409 0.732515
O O5 0.143412 0.327136 0.318308
O O6 0.322996 0.306315 0.310758
O O7 0.203378 0.170189 0.305340
O O8 0.750000 0.750000 0.250000
O O9 0.789538 0.845914 0.351507
O O10 0.672158 0.723783 0.365628
O O11 0.543272 0.643146 0.105493
O O12 0.500000 0.250000 0.614461
O O13 0.397633 0.216298 0.524455
#
# Coordination Sequence:
#
# PCOD9546409 Si02
#       6
#    16  16  16  16  16  16
#     4  12  22  44  66  99 140 166 229 287 329 406
#     4  10  23  44  72  94 132 185 222 279 359 402
#     4  12  24  40  66  97 135 180 220 269 341 398
#     4  11  25  41  63  98 136 177 224 270 330 414
#     4  10  20  43  69  89 133 180 219 276 346 407
#     4  10  22  45  66  97 129 173 231 282 332 418
#
# _framework density 21.040475000000001
#
# number of rings (size 3 to 8) (size 9 to 14) (size 15 to 20)
#    0.000    1.167    6.667    0.000    2.333    1.333 
#   15.000    0.000    0.000    0.000    0.000    0.000 
#    0.000    0.000    0.000    0.000    0.000    0.000 
#
# Total GULP energy -267615.824830 kJ/mol
# GULP energy per Si atom -5575.329684 kJ/mol
# Density = 2.099259 g / cm^3
# Si number density = 21.040475 Si / 1000 Ang^3
#
#
#
# Elastic Constant Matrix: (Units=GPa)
#
#
# Indices 1 2 3 4 5 6 
#
# 1 72.2686 10.0236 41.8922 0.0000 0.0000 -6.2089
# 2 10.0236 72.2686 41.8922 0.0000 0.0000 6.2089
# 3 41.8922 41.8922 151.7240 0.0000 0.0000 0.0000
# 4 0.0000 0.0000 0.0000 32.3364 0.0000 0.0000
# 5 0.0000 0.0000 0.0000 0.0000 32.3364 0.0000
# 6 -6.2089 6.2089 0.0000 0.0000 0.0000 11.1918
#
#
#
# Elastic Compliance Matrix: (Units=1/GPa)
#
#
# Indices 1 2 3 4 5 6 
#
# 1 0.017484 -0.000581 -0.004667 0.000000 0.000000 0.010022
# 2 -0.000581 0.017484 -0.004667 0.000000 0.000000 -0.010022
# 3 -0.004667 -0.004667 0.009168 0.000000 0.000000 0.000000
# 4 0.000000 0.000000 0.000000 0.030925 0.000000 0.000000
# 5 0.000000 0.000000 0.000000 0.000000 0.030925 0.000000
# 6 0.010022 -0.010022 0.000000 0.000000 0.000000 0.100471
#
#
# Mechanical properties :
#
#
# Convention : Reuss Voigt Hill
#
# Bulk Modulus (GPa) = 41.14100 53.76414 47.45257
# Shear Modulus (GPa) = 21.33198 28.66977 25.00088
#
# Velocity S-wave (km/s) = 3.18756 3.69535 3.45081
# Velocity P-wave (km/s) = 5.75701 6.61934 6.20318
#
# Compressibility (1/GPa) = 0.02430665
#
# Stress axis : x y z
#
# Youngs Moduli (GPa) = 57.19417 57.19417 109.07209
#
# Poissons Ratio (x) = 0.03321 0.50907
# Poissons Ratio (y) = 0.03321 0.50907
# Poissons Ratio (z) = 0.26694 0.26694
#
# Static dielectric constant tensor:
#      x y z
#    x 1.794650 0.000000 0.000000 
#    y 0.000000 1.794650 0.000000 
#    z 0.000000 0.000000 1.795660 
# 
# From -- ./inp_files/4703.got.cif
#   From: 2010.05.17/outbox.cif.g08.bks.cpg/sg88_3_cif.got.tgz:4703.got - 2010.06.03 19:11:41.
