data_PCOD9546891
_publ_section_title
;
Structure prediction by ZEFSAII (Michael W. Deem and Ramdas Pophale) SiO2 
 PCOD9546891
Probable space group: I 41/A
;
_chemical_formula_sum "Si O2"
_cell_formula_units_Z 48
_cell_length_a 15.000000
_cell_length_b 15.000000
_cell_length_c 21.000000
_cell_angle_alpha 90.000000
_cell_angle_beta 90.000000
_cell_angle_gamma 90.000000
_cell_volume 4725.000000
_symmetry_space_group_name_H-M "I 41/A"
_symmetry_group_IT_number 88
_space_group.IT_coordinate_system_code '2'
_symmetry_cell_setting 'tetragonal'
loop_
_space_group_symop_operation_xyz
x,y,z
3/4-y,1/4+x,1/4+z
-x,1/2-y,z
1/4+y,1/4-x,1/4+z
-x,-y,-z
1/4+y,3/4-x,3/4-z
x,1/2+y,-z
3/4-y,3/4+x,3/4-z
1/2+x,1/2+y,1/2+z
1/4-y,3/4+x,3/4+z
1/2-x,-y,1/2+z
3/4+y,3/4-x,3/4+z
1/2-x,1/2-y,1/2-z
3/4+y,1/4-x,1/4-z
1/2+x,y,1/2-z
1/4-y,1/4+x,1/4-z
loop_
_atom_site_type_symbol
_atom_site_label
_atom_site_fract_x
_atom_site_fract_y
_atom_site_fract_z
Si Si1 0.596644 0.799465 0.774330
Si Si2 0.032721 0.607820 0.888906
Si Si3 0.081356 0.414295 0.868850
Si Si4 0.740164 0.894208 0.028997
Si Si5 0.394571 0.778174 0.017650
Si Si6 0.720719 0.057022 0.920332
O O1 0.500000 0.750000 0.762585
O O2 0.657512 0.774787 0.713959
O O3 0.633533 0.749733 0.836179
O O4 0.603456 0.907995 0.777566
O O5 0.104018 0.688033 0.883403
O O6 0.065043 0.519265 0.854278
O O7 0.069838 0.359251 0.803779
O O8 0.177449 0.409229 0.904724
O O9 0.726561 0.934729 0.100740
O O10 0.668119 0.812242 0.019977
O O11 0.727022 0.974996 0.974423
O O12 0.500000 0.750000 0.032865
O O13 0.344060 0.859180 0.057749
#
# Coordination Sequence:
#
# PCOD9546891 Si02
#       6
#    16  16  16  16  16  16
#     4  12  24  44  71 112 153 197 244 320 399 473
#     4  11  23  38  68 106 155 197 235 297 389 481
#     4  12  26  45  77 110 153 197 263 319 392 474
#     4  12  28  51  79 113 160 204 264 327 403 476
#     4  12  30  53  79 108 150 206 269 337 392 461
#     4  12  28  50  80 115 151 210 267 327 398 479
#
# _framework density 10.15873
#
# number of rings (size 3 to 8) (size 9 to 14) (size 15 to 20)
#    0.000    0.167    5.000    4.000    7.000    2.000 
#    0.000    0.000    0.000    0.000    0.000    0.000 
#    0.000    0.000    0.000    0.000    0.000    0.000 
#
# Total GULP energy -268052.809223 kJ/mol
# GULP energy per Si atom -5584.433525 kJ/mol
# Density = 1.013561 g / cm^3
# Si number density = 10.158730 Si / 1000 Ang^3
#
#
#
# Elastic Constant Matrix: (Units=GPa)
#
#
# Indices 1 2 3 4 5 6 
#
# 1 154.6112 55.1108 30.1992 0.0000 0.0000 0.7559
# 2 55.1108 154.6112 30.1992 0.0000 0.0000 -0.7559
# 3 30.1992 30.1992 129.6025 0.0000 0.0000 0.0000
# 4 0.0000 0.0000 0.0000 44.3799 0.0000 0.0000
# 5 0.0000 0.0000 0.0000 0.0000 44.3799 0.0000
# 6 0.7559 -0.7559 0.0000 0.0000 0.0000 39.3012
#
#
#
# Elastic Compliance Matrix: (Units=1/GPa)
#
#
# Indices 1 2 3 4 5 6 
#
# 1 0.007582 -0.002471 -0.001191 0.000000 0.000000 -0.000193
# 2 -0.002471 0.007582 -0.001191 0.000000 0.000000 0.000193
# 3 -0.001191 -0.001191 0.008271 0.000000 0.000000 0.000000
# 4 0.000000 0.000000 0.000000 0.022533 0.000000 0.000000
# 5 0.000000 0.000000 0.000000 0.000000 0.022533 0.000000
# 6 -0.000193 0.000193 0.000000 0.000000 0.000000 0.025452
#
#
# Mechanical properties :
#
#
# Convention : Reuss Voigt Hill
#
# Bulk Modulus (GPa) = 72.83631 74.42706 73.63168
# Shear Modulus (GPa) = 46.19574 47.16657 46.68116
#
# Velocity S-wave (km/s) = 4.77350 4.82340 4.79852
# Velocity P-wave (km/s) = 8.14302 8.22994 8.18659
#
# Compressibility (1/GPa) = 0.01372942
#
# Stress axis : x y z
#
# Youngs Moduli (GPa) = 131.88821 131.88821 120.90537
#
# Poissons Ratio (x) = 0.32589 0.14400
# Poissons Ratio (y) = 0.32589 0.14400
# Poissons Ratio (z) = 0.15708 0.15708
#
# Static dielectric constant tensor:
#      x y z
#    x 1.742580 0.000000 0.000000 
#    y 0.000000 1.742580 0.000000 
#    z 0.000000 0.000000 1.770200 
# 
# From -- ./inp_files/4712.got.cif
#   From: 2010.05.17/outbox.ucp.g08.bks.cvg/sg88_3_cif.got.tgz:4712.got - 2010.06.11 10:35:41.
