data_PCOD9546981
_publ_section_title
;
Structure prediction by ZEFSAII (Michael W. Deem and Ramdas Pophale) SiO2 
 PCOD9546981
Probable space group: P 4 2 2
;
_chemical_formula_sum "Si O2"
_cell_formula_units_Z 34
_cell_length_a 10.283652
_cell_length_b 10.283652
_cell_length_c 13.048367
_cell_angle_alpha 90.000000
_cell_angle_beta 90.000000
_cell_angle_gamma 90.000000
_cell_volume 1379.910459
_symmetry_space_group_name_H-M "P 4 2 2"
_symmetry_group_IT_number 89
_symmetry_cell_setting 'tetragonal'
loop_
_space_group_symop_operation_xyz
x,y,z
-y,x,z
-x,-y,z
y,-x,z
x,-y,-z
-x,y,-z
y,x,-z
-y,-x,-z
loop_
_atom_site_type_symbol
_atom_site_label
_atom_site_fract_x
_atom_site_fract_y
_atom_site_fract_z
Si Si1 0.860272 0.831702 0.711374
Si Si2 0.500000 0.000000 0.000000
Si Si3 0.346990 0.224218 0.100872
Si Si4 0.865883 0.384955 0.436751
Si Si5 0.707216 0.513701 0.717514
O O1 0.798562 0.762733 0.811511
O O2 0.825600 0.757328 0.604829
O O3 0.017363 0.822757 0.713402
O O4 0.594863 0.912342 0.066878
O O5 0.468332 0.289294 0.160591
O O6 0.294369 0.294369 0.000000
O O7 0.790487 0.500000 0.500000
O O8 0.850215 0.461156 0.327250
O O9 0.000000 0.370945 0.500000
O O10 0.613535 0.632173 0.683928
#
# Coordination Sequence:
#
# PCOD9546981 Si02
#       5
#     8   2   8   8   8
#     4  10  23  42  64  93 131 173 222 284 349 421
#     4  12  24  36  60  96 126 168 224 272 340 432
#     4  11  23  41  66  95 132 173 223 283 352 429
#     4  10  24  40  63  92 124 170 223 279 335 402
#     4  10  23  42  64  93 131 173 222 284 349 421
#
# _framework density 24.639282000000001
#
# number of rings (size 3 to 8) (size 9 to 14) (size 15 to 20)
#    0.000    1.647    0.000    2.824    0.000   20.706 
#    0.000    4.706    0.000    0.000    0.000    0.000 
#    0.000    0.000    0.000    0.000    0.000    0.000 
#
# Total GULP energy -189298.767943 kJ/mol
# GULP energy per Si atom -5567.610822 kJ/mol
# Density = 2.458320 g / cm^3
# Si number density = 24.639282 Si / 1000 Ang^3
#
#
#
# Elastic Constant Matrix: (Units=GPa)
#
#
# Indices 1 2 3 4 5 6 
#
# 1 94.8785 30.7597 45.6819 0.0000 0.0000 0.0000
# 2 30.7597 94.8785 45.6819 0.0000 0.0000 0.0000
# 3 45.6819 45.6819 157.3519 0.0000 0.0000 0.0000
# 4 0.0000 0.0000 0.0000 52.1582 0.0000 0.0000
# 5 0.0000 0.0000 0.0000 0.0000 52.1582 0.0000
# 6 0.0000 0.0000 0.0000 0.0000 0.0000 34.3370
#
#
#
# Elastic Compliance Matrix: (Units=1/GPa)
#
#
# Indices 1 2 3 4 5 6 
#
# 1 0.012843 -0.002753 -0.002929 0.000000 0.000000 0.000000
# 2 -0.002753 0.012843 -0.002929 0.000000 0.000000 0.000000
# 3 -0.002929 -0.002929 0.008056 0.000000 0.000000 0.000000
# 4 0.000000 0.000000 0.000000 0.019172 0.000000 0.000000
# 5 0.000000 0.000000 0.000000 0.000000 0.019172 0.000000
# 6 0.000000 0.000000 0.000000 0.000000 0.000000 0.029123
#
#
# Mechanical properties :
#
#
# Convention : Reuss Voigt Hill
#
# Bulk Modulus (GPa) = 60.53908 65.70622 63.12265
# Shear Modulus (GPa) = 40.34255 42.72971 41.53613
#
# Velocity S-wave (km/s) = 4.05078 4.16890 4.11027
# Velocity P-wave (km/s) = 6.81923 7.06386 6.94262
#
# Compressibility (1/GPa) = 0.01651826
#
# Stress axis : x y z
#
# Youngs Moduli (GPa) = 77.86505 77.86505 124.13213
#
# Poissons Ratio (x) = 0.21439 0.36360
# Poissons Ratio (y) = 0.21439 0.36360
# Poissons Ratio (z) = 0.22808 0.22808
#
# Static dielectric constant tensor:
#      x y z
#    x 2.014430 0.000000 0.000000 
#    y 0.000000 2.014430 0.000000 
#    z 0.000000 0.000000 2.005390 
# 
# From -- ./inp_files/1644.got.cif
#   From: 2010.05.17/outbox.cif.g08.bks.cpg/sg89_1_cif.got.tgz:1644.got - 2010.06.03 19:15:31.
