data_PCOD9546000
_publ_section_title
;
Structure prediction by ZEFSAII (Michael W. Deem and Ramdas Pophale) SiO2 
 PCOD9546000
Probable space group: I 4/M
;
_chemical_formula_sum "Si O2"
_cell_formula_units_Z 88
_cell_length_a 11.632203
_cell_length_b 11.632203
_cell_length_c 29.064120
_cell_angle_alpha 90.000000
_cell_angle_beta 90.000000
_cell_angle_gamma 90.000000
_cell_volume 3932.612211
_symmetry_space_group_name_H-M "I 4/M"
_symmetry_group_IT_number 87
_symmetry_cell_setting 'tetragonal'
loop_
_space_group_symop_operation_xyz
x,y,z
-y,x,z
-x,-y,z
y,-x,z
-x,-y,-z
y,-x,-z
x,y,-z
-y,x,-z
1/2+x,1/2+y,1/2+z
1/2-y,1/2+x,1/2+z
1/2-x,1/2-y,1/2+z
1/2+y,1/2-x,1/2+z
1/2-x,1/2-y,1/2-z
1/2+y,1/2-x,1/2-z
1/2+x,1/2+y,1/2-z
1/2-y,1/2+x,1/2-z
loop_
_atom_site_type_symbol
_atom_site_label
_atom_site_fract_x
_atom_site_fract_y
_atom_site_fract_z
Si Si1 0.831937 0.094827 0.500000
Si Si2 0.355908 0.916226 0.945822
Si Si3 0.824800 0.414269 0.085694
Si Si4 0.904772 0.166133 0.753728
Si Si5 0.724387 0.746696 0.825737
Si Si6 0.668446 0.411667 0.616277
O O1 0.761248 0.125507 0.545530
O O2 0.957427 0.149512 0.500000
O O3 0.447912 0.836390 0.919654
O O4 0.224593 0.889250 0.933193
O O5 0.374049 0.046257 0.927346
O O6 0.379143 0.912077 0.000000
O O7 0.782748 0.364676 0.134383
O O8 0.845398 0.259913 0.786678
O O9 0.869245 0.195484 0.701438
O O10 0.039830 0.150855 0.761835
O O11 0.849727 0.745154 0.849223
O O12 0.647449 0.545674 0.623100
#
# Coordination Sequence:
#
# PCOD9546000 Si02
#       6
#     8  16  16  16  16  16
#     4  11  26  43  64  98 137 188 241 290 337 404
#     4  11  23  43  68 100 146 195 239 291 345 413
#     4  11  23  43  68 100 140 191 235 285 355 419
#     4  10  24  47  73 102 139 179 232 297 368 441
#     4  11  24  42  71 104 138 183 230 292 365 431
#     4  11  24  42  68 104 141 189 239 293 357 421
#
# _framework density 22.376982999999999
#
# number of rings (size 3 to 8) (size 9 to 14) (size 15 to 20)
#    0.000    1.182    3.636    1.636    5.091    2.182 
#    0.000    2.727    0.000    4.909    0.000    0.000 
#    0.000    0.000    0.000    0.000    0.000    0.000 
#
# Total GULP energy -245955.644212 kJ/mol
# GULP energy per Si atom -5589.901005 kJ/mol
# Density = 2.232605 g / cm^3
# Si number density = 22.376983 Si / 1000 Ang^3
#
#
#
# Elastic Constant Matrix: (Units=GPa)
#
#
# Indices 1 2 3 4 5 6 
#
# 1 82.4879 -3.3330 40.5310 0.0000 0.0000 5.9521
# 2 -3.3330 82.4879 40.5310 0.0000 0.0000 -5.9521
# 3 40.5310 40.5310 155.0755 0.0000 0.0000 0.0000
# 4 0.0000 0.0000 0.0000 39.3087 0.0000 0.0000
# 5 0.0000 0.0000 0.0000 0.0000 39.3087 0.0000
# 6 5.9521 -5.9521 0.0000 0.0000 0.0000 14.8990
#
#
#
# Elastic Compliance Matrix: (Units=1/GPa)
#
#
# Indices 1 2 3 4 5 6 
#
# 1 0.014793 0.002458 -0.004509 0.000000 0.000000 -0.004928
# 2 0.002458 0.014793 -0.004509 0.000000 0.000000 0.004928
# 3 -0.004509 -0.004509 0.008805 0.000000 0.000000 0.000000
# 4 0.000000 0.000000 0.000000 0.025440 0.000000 0.000000
# 5 0.000000 0.000000 0.000000 0.000000 0.025440 0.000000
# 6 -0.004928 0.004928 0.000000 0.000000 0.000000 0.071056
#
#
# Mechanical properties :
#
#
# Convention : Reuss Voigt Hill
#
# Bulk Modulus (GPa) = 39.56944 52.83437 46.20190
# Shear Modulus (GPa) = 27.49199 34.85811 31.17505
#
# Velocity S-wave (km/s) = 3.50892 3.95114 3.73657
# Velocity P-wave (km/s) = 5.84279 6.66915 6.26960
#
# Compressibility (1/GPa) = 0.02527203
#
# Stress axis : x y z
#
# Youngs Moduli (GPa) = 67.59825 67.59824 113.56788
#
# Poissons Ratio (x) = -0.16613 0.51205
# Poissons Ratio (y) = -0.16613 0.51205
# Poissons Ratio (z) = 0.30478 0.30478
#
# Static dielectric constant tensor:
#      x y z
#    x 1.861010 0.000000 0.000000 
#    y 0.000000 1.861010 0.000000 
#    z 0.000000 0.000000 1.848050 
# 
# From -- ./inp_files/6595.got.cif
#   From: 2010.05.17/outbox.cif.g08.bks.cpg/sg87_4_cif.got.tgz:6595.got - 2010.06.03 19:07:00.
