data_PCOD9546459
_publ_section_title
;
Structure prediction by ZEFSAII (Michael W. Deem and Ramdas Pophale) SiO2 
 PCOD9546459
Probable space group: I 41/A
;
_chemical_formula_sum "Si O2"
_cell_formula_units_Z 112
_cell_length_a 13.950593
_cell_length_b 13.950593
_cell_length_c 22.648153
_cell_angle_alpha 90.000000
_cell_angle_beta 90.000000
_cell_angle_gamma 90.000000
_cell_volume 4407.761909
_symmetry_space_group_name_H-M "I 41/A"
_symmetry_group_IT_number 88
_space_group.IT_coordinate_system_code '2'
_symmetry_cell_setting 'tetragonal'
loop_
_space_group_symop_operation_xyz
x,y,z
3/4-y,1/4+x,1/4+z
-x,1/2-y,z
1/4+y,1/4-x,1/4+z
-x,-y,-z
1/4+y,3/4-x,3/4-z
x,1/2+y,-z
3/4-y,3/4+x,3/4-z
1/2+x,1/2+y,1/2+z
1/4-y,3/4+x,3/4+z
1/2-x,-y,1/2+z
3/4+y,3/4-x,3/4+z
1/2-x,1/2-y,1/2-z
3/4+y,1/4-x,1/4-z
1/2+x,y,1/2-z
1/4-y,1/4+x,1/4-z
loop_
_atom_site_type_symbol
_atom_site_label
_atom_site_fract_x
_atom_site_fract_y
_atom_site_fract_z
Si Si1 0.081252 0.689803 0.573177
Si Si2 0.335762 0.247615 0.564568
Si Si3 0.939783 0.605900 0.369621
Si Si4 0.393170 0.107943 0.468951
Si Si5 0.168842 0.453007 0.232109
Si Si6 0.110327 0.501956 0.517390
Si Si7 0.505039 0.968440 0.638835
O O1 0.018699 0.633225 0.622048
O O2 0.130070 0.612066 0.531495
O O3 0.166937 0.745329 0.605390
O O4 0.000000 0.750000 0.539433
O O5 0.227276 0.205872 0.571492
O O6 0.402090 0.188185 0.519262
O O7 0.320921 0.352962 0.538983
O O8 0.886605 0.705104 0.355623
O O9 0.880839 0.555845 0.421552
O O10 0.479033 0.070579 0.427313
O O11 0.324678 0.162638 0.421985
O O12 0.350788 0.017476 0.504074
O O13 0.202152 0.563754 0.225525
O O14 0.096971 0.437332 0.177889
O O15 0.000000 0.500000 0.500000
#
# Coordination Sequence:
#
# PCOD9546459 Si02
#       7
#    16  16  16  16  16  16  16
#     4  11  23  45  67 106 146 185 253 306 365 445
#     4  10  24  44  71 103 138 194 246 303 368 445
#     4  10  21  38  63  97 141 185 236 292 354 438
#     4  11  26  48  73 105 142 191 249 307 374 445
#     4  11  23  45  69 102 146 192 242 301 380 442
#     4  11  23  38  66 100 142 198 238 300 369 435
#     4  11  26  46  74 108 145 194 247 312 370 453
#
# _framework density 25.409723
#
# number of rings (size 3 to 8) (size 9 to 14) (size 15 to 20)
#    0.000    1.286    2.857    1.714    4.000    2.000 
#    7.714    0.000    0.000    0.000    0.000    0.000 
#    0.000    0.000    0.000    0.000    0.000    0.000 
#
# Total GULP energy -313268.072679 kJ/mol
# GULP energy per Si atom -5594.072726 kJ/mol
# Density = 2.535189 g / cm^3
# Si number density = 25.409723 Si / 1000 Ang^3
#
#
#
# Elastic Constant Matrix: (Units=GPa)
#
#
# Indices 1 2 3 4 5 6 
#
# 1 116.3467 57.6816 22.9665 0.0000 0.0000 3.6318
# 2 57.6816 116.3467 22.9665 0.0000 0.0000 -3.6318
# 3 22.9665 22.9665 28.9659 0.0000 0.0000 0.0000
# 4 0.0000 0.0000 0.0000 33.9872 0.0000 0.0000
# 5 0.0000 0.0000 0.0000 0.0000 33.9872 0.0000
# 6 3.6318 -3.6318 0.0000 0.0000 0.0000 35.0501
#
#
#
# Elastic Compliance Matrix: (Units=1/GPa)
#
#
# Indices 1 2 3 4 5 6 
#
# 1 0.012267 -0.005000 -0.005762 0.000000 0.000000 -0.001789
# 2 -0.005000 0.012267 -0.005762 0.000000 0.000000 0.001789
# 3 -0.005762 -0.005762 0.043660 0.000000 0.000000 0.000000
# 4 0.000000 0.000000 0.000000 0.029423 0.000000 0.000000
# 5 0.000000 0.000000 0.000000 0.000000 0.029423 0.000000
# 6 -0.001789 0.001789 0.000000 0.000000 0.000000 0.028901
#
#
# Mechanical properties :
#
#
# Convention : Reuss Voigt Hill
#
# Bulk Modulus (GPa) = 28.45210 52.09875 40.27542
# Shear Modulus (GPa) = 24.91218 31.14122 28.02670
#
# Velocity S-wave (km/s) = 3.13456 3.50460 3.32473
# Velocity P-wave (km/s) = 4.93176 6.07654 5.53383
#
# Compressibility (1/GPa) = 0.03514679
#
# Stress axis : x y z
#
# Youngs Moduli (GPa) = 81.51816 81.51816 22.90415
#
# Poissons Ratio (x) = 0.40761 0.13197
# Poissons Ratio (y) = 0.40761 0.13197
# Poissons Ratio (z) = 0.46969 0.46969
#
# Static dielectric constant tensor:
#      x y z
#    x 2.013270 0.000000 0.000000 
#    y 0.000000 2.013270 0.000000 
#    z 0.000000 0.000000 2.016530 
# 
# From -- ./inp_files/5858.got.cif
#   From: 2010.05.17/outbox.cif.g08.bks.cpg/sg88_3_cif.got.tgz:5858.got - 2010.06.03 19:11:41.
