data_PCOD9546343
_publ_section_title
;
Structure prediction by ZEFSAII (Michael W. Deem and Ramdas Pophale) SiO2 
 PCOD9546343
Probable space group: I 41/A
;
_chemical_formula_sum "Si O2"
_cell_formula_units_Z 64
_cell_length_a 10.303749
_cell_length_b 10.303749
_cell_length_c 23.219405
_cell_angle_alpha 90.000000
_cell_angle_beta 90.000000
_cell_angle_gamma 90.000000
_cell_volume 2465.140224
_symmetry_space_group_name_H-M "I 41/A"
_symmetry_group_IT_number 88
_space_group.IT_coordinate_system_code '2'
_symmetry_cell_setting 'tetragonal'
loop_
_space_group_symop_operation_xyz
x,y,z
3/4-y,1/4+x,1/4+z
-x,1/2-y,z
1/4+y,1/4-x,1/4+z
-x,-y,-z
1/4+y,3/4-x,3/4-z
x,1/2+y,-z
3/4-y,3/4+x,3/4-z
1/2+x,1/2+y,1/2+z
1/4-y,3/4+x,3/4+z
1/2-x,-y,1/2+z
3/4+y,3/4-x,3/4+z
1/2-x,1/2-y,1/2-z
3/4+y,1/4-x,1/4-z
1/2+x,y,1/2-z
1/4-y,1/4+x,1/4-z
loop_
_atom_site_type_symbol
_atom_site_label
_atom_site_fract_x
_atom_site_fract_y
_atom_site_fract_z
Si Si1 0.500000 0.250000 0.875000
Si Si2 0.500000 0.250000 0.182277
Si Si3 0.500000 0.250000 0.375000
Si Si4 0.851546 0.400429 0.409295
Si Si5 0.864315 0.977522 0.421518
Si Si6 0.934318 0.548963 0.778676
O O1 0.402491 0.326426 0.916869
O O2 0.617247 0.197852 0.143417
O O3 0.455050 0.132886 0.222397
O O4 0.432521 0.148839 0.332340
O O5 0.767411 0.520654 0.385114
O O6 0.789290 0.309748 0.457503
O O7 0.996050 0.452742 0.422750
O O8 0.783492 0.052573 0.469864
#
# Coordination Sequence:
#
# PCOD9546343 Si02
#       6
#     4   8   4  16  16  16
#     4   8  20  36  68  98 120 206 242 264 372 404
#     4  11  26  41  72 111 138 190 239 287 382 425
#     4  10  20  36  56 100 136 166 220 304 356 394
#     4  11  22  45  69 101 147 188 234 304 354 423
#     4  10  20  40  72  92 141 195 232 296 359 407
#     4  11  21  40  67 102 140 188 233 298 359 425
#
# _framework density 25.962009999999999
#
# number of rings (size 3 to 8) (size 9 to 14) (size 15 to 20)
#    0.000    1.500    5.000    0.000    0.000    1.000 
#    4.500    1.250   27.500    0.000    0.000    0.000 
#    0.000    0.000    0.000    0.000    0.000    0.000 
#
# Total GULP energy -179140.249753 kJ/mol
# GULP energy per Si atom -5598.132805 kJ/mol
# Density = 2.590292 g / cm^3
# Si number density = 25.962010 Si / 1000 Ang^3
#
#
#
# Elastic Constant Matrix: (Units=GPa)
#
#
# Indices 1 2 3 4 5 6 
#
# 1 124.5145 45.7873 42.6501 0.0000 0.0000 9.1204
# 2 45.7873 124.5145 42.6501 0.0000 0.0000 -9.1204
# 3 42.6501 42.6501 91.6799 0.0000 0.0000 0.0000
# 4 0.0000 0.0000 0.0000 29.0027 0.0000 0.0000
# 5 0.0000 0.0000 0.0000 0.0000 29.0027 0.0000
# 6 9.1204 -9.1204 0.0000 0.0000 0.0000 63.6176
#
#
#
# Elastic Compliance Matrix: (Units=1/GPa)
#
#
# Indices 1 2 3 4 5 6 
#
# 1 0.010397 -0.002741 -0.003562 0.000000 0.000000 -0.001884
# 2 -0.002741 0.010397 -0.003562 0.000000 0.000000 0.001884
# 3 -0.003562 -0.003562 0.014221 0.000000 0.000000 0.000000
# 4 0.000000 0.000000 0.000000 0.034480 0.000000 0.000000
# 5 0.000000 0.000000 0.000000 0.000000 0.034480 0.000000
# 6 -0.001884 0.001884 0.000000 0.000000 0.000000 0.016259
#
#
# Mechanical properties :
#
#
# Convention : Reuss Voigt Hill
#
# Bulk Modulus (GPa) = 65.41633 66.98710 66.20171
# Shear Modulus (GPa) = 34.46895 38.29935 36.38415
#
# Velocity S-wave (km/s) = 3.64767 3.84501 3.74764
# Velocity P-wave (km/s) = 6.55685 6.75056 6.65441
#
# Compressibility (1/GPa) = 0.01528670
#
# Stress axis : x y z
#
# Youngs Moduli (GPa) = 96.18002 96.18002 70.31739
#
# Poissons Ratio (x) = 0.26366 0.25044
# Poissons Ratio (y) = 0.26366 0.25044
# Poissons Ratio (z) = 0.34255 0.34255
#
# Static dielectric constant tensor:
#      x y z
#    x 2.033160 0.000000 0.000000 
#    y 0.000000 2.033160 0.000000 
#    z 0.000000 0.000000 2.054960 
# 
# From -- ./inp_files/5677.got.cif
#   From: 2010.05.17/outbox.cif.g08.bks.cpg/sg88_3_cif.got.tgz:5677.got - 2010.06.03 19:11:41.
