data_PCOD9546985
_publ_section_title
;
Structure prediction by ZEFSAII (Michael W. Deem and Ramdas Pophale) SiO2 
 PCOD9546985
Probable space group: P 4 2 2
;
_chemical_formula_sum "Si O2"
_cell_formula_units_Z 46
_cell_length_a 11.034893
_cell_length_b 11.034893
_cell_length_c 20.516426
_cell_angle_alpha 90.000000
_cell_angle_beta 90.000000
_cell_angle_gamma 90.000000
_cell_volume 2498.261878
_symmetry_space_group_name_H-M "P 4 2 2"
_symmetry_group_IT_number 89
_symmetry_cell_setting 'tetragonal'
loop_
_space_group_symop_operation_xyz
x,y,z
-y,x,z
-x,-y,z
y,-x,z
x,-y,-z
-x,y,-z
y,x,-z
-y,-x,-z
loop_
_atom_site_type_symbol
_atom_site_label
_atom_site_fract_x
_atom_site_fract_y
_atom_site_fract_z
Si Si1 0.247931 0.721926 0.706012
Si Si2 0.174386 0.381301 0.103428
Si Si3 0.642937 0.357064 0.000000
Si Si4 0.644802 0.355162 0.574066
Si Si5 0.149681 0.519292 0.228455
Si Si6 0.500000 0.000000 0.000000
Si Si7 0.916872 0.821236 0.200972
O O1 0.284725 0.713028 0.631044
O O2 0.224505 0.585218 0.732609
O O3 0.353889 0.796515 0.744353
O O4 0.121085 0.783512 0.726031
O O5 0.289119 0.323537 0.066230
O O6 0.185541 0.495867 0.152647
O O7 0.123459 0.281738 0.152077
O O8 0.082838 0.418335 0.046484
O O9 0.664275 0.500000 0.000000
O O10 0.664476 0.500097 0.581207
O O11 0.678487 0.321514 0.500000
O O12 0.000000 0.500000 0.234538
O O13 0.055627 0.846293 0.189285
#
# Coordination Sequence:
#
# PCOD9546985 Si02
#       7
#     8   8   4   8   8   2   8
#     4  11  20  36  65  91 129 162 209 260 313 373
#     4  11  25  41  63  85 119 152 198 259 323 389
#     4  11  26  42  56  83 116 148 186 235 316 400
#     4   9  17  32  56  93 137 169 199 239 304 382
#     4  11  24  39  60  94 123 164 217 262 317 379
#     4  12  24  40  70  86 112 160 190 246 342 396
#     4  10  24  43  63  85 115 161 218 267 309 363
#
# _framework density 18.412800000000001
#
# number of rings (size 3 to 8) (size 9 to 14) (size 15 to 20)
#    0.000    1.478    3.478    2.609    7.304    0.348 
#    0.000    0.000    0.000    5.217    0.000    1.217 
#    0.000    0.000    0.000    0.000    0.000    0.000 
#
# Total GULP energy -256256.343403 kJ/mol
# GULP energy per Si atom -5570.790074 kJ/mol
# Density = 1.837089 g / cm^3
# Si number density = 18.412800 Si / 1000 Ang^3
#
#
#
# Elastic Constant Matrix: (Units=GPa)
#
#
# Indices 1 2 3 4 5 6 
#
# 1 85.5510 18.2699 42.5392 0.0000 0.0000 0.0000
# 2 18.2699 85.5520 42.5396 0.0000 0.0000 0.0000
# 3 42.5392 42.5396 157.4901 0.0000 0.0000 0.0000
# 4 0.0000 0.0000 0.0000 22.3127 0.0000 0.0000
# 5 0.0000 0.0000 0.0000 0.0000 22.3122 0.0000
# 6 0.0000 0.0000 0.0000 0.0000 0.0000 35.8193
#
#
#
# Elastic Compliance Matrix: (Units=1/GPa)
#
#
# Indices 1 2 3 4 5 6 
#
# 1 0.013617 -0.001246 -0.003341 0.000000 0.000000 0.000000
# 2 -0.001246 0.013616 -0.003341 0.000000 0.000000 0.000000
# 3 -0.003341 -0.003341 0.008155 0.000000 0.000000 0.000000
# 4 0.000000 0.000000 0.000000 0.044817 0.000000 0.000000
# 5 0.000000 0.000000 0.000000 0.000000 0.044819 0.000000
# 6 0.000000 0.000000 0.000000 0.000000 0.000000 0.027918
#
#
# Mechanical properties :
#
#
# Convention : Reuss Voigt Hill
#
# Bulk Modulus (GPa) = 51.20431 59.47671 55.34051
# Shear Modulus (GPa) = 28.52105 31.10514 29.81310
#
# Velocity S-wave (km/s) = 3.93998 4.11459 4.02823
# Velocity P-wave (km/s) = 6.96903 7.41250 7.19418
#
# Compressibility (1/GPa) = 0.01952961
#
# Stress axis : x y z
#
# Youngs Moduli (GPa) = 73.44028 73.44098 122.63024
#
# Poissons Ratio (x) = 0.09154 0.40974
# Poissons Ratio (y) = 0.09154 0.40974
# Poissons Ratio (z) = 0.24538 0.24538
#
# Static dielectric constant tensor:
#      x y z
#    x 1.678810 0.000000 0.000000 
#    y 0.000000 1.678810 0.000000 
#    z 0.000000 0.000000 0.965230 
# 
# From -- ./inp_files/2431.got.cif
#   From: 2010.05.17/outbox.cif.g08.bks.cpg/sg89_2_cif.got.tgz:2431.got - 2010.06.03 19:15:31.
