data_PCOD9546408
_publ_section_title
;
Structure prediction by ZEFSAII (Michael W. Deem and Ramdas Pophale) SiO2 
 PCOD9546408
Probable space group: I 41/A
;
_chemical_formula_sum "Si O2"
_cell_formula_units_Z 72
_cell_length_a 18.871968
_cell_length_b 18.871968
_cell_length_c 8.404326
_cell_angle_alpha 90.000000
_cell_angle_beta 90.000000
_cell_angle_gamma 90.000000
_cell_volume 2993.210590
_symmetry_space_group_name_H-M "I 41/A"
_symmetry_group_IT_number 88
_space_group.IT_coordinate_system_code '2'
_symmetry_cell_setting 'tetragonal'
loop_
_space_group_symop_operation_xyz
x,y,z
3/4-y,1/4+x,1/4+z
-x,1/2-y,z
1/4+y,1/4-x,1/4+z
-x,-y,-z
1/4+y,3/4-x,3/4-z
x,1/2+y,-z
3/4-y,3/4+x,3/4-z
1/2+x,1/2+y,1/2+z
1/4-y,3/4+x,3/4+z
1/2-x,-y,1/2+z
3/4+y,3/4-x,3/4+z
1/2-x,1/2-y,1/2-z
3/4+y,1/4-x,1/4-z
1/2+x,y,1/2-z
1/4-y,1/4+x,1/4-z
loop_
_atom_site_type_symbol
_atom_site_label
_atom_site_fract_x
_atom_site_fract_y
_atom_site_fract_z
Si Si1 0.500000 0.750000 0.125000
Si Si2 0.425153 0.028934 0.940659
Si Si3 0.466866 0.069006 0.582484
Si Si4 0.410431 0.815606 0.381199
Si Si5 0.500000 0.750000 0.625000
Si Si6 0.187337 0.939139 0.028178
O O1 0.433183 0.766994 0.232237
O O2 0.440367 0.057989 0.763536
O O3 0.365757 0.970242 0.906942
O O4 0.403284 0.086138 0.074738
O O5 0.500000 0.000000 0.000000
O O6 0.528895 0.126066 0.595324
O O7 0.393082 0.083986 0.491656
O O8 0.500000 0.000000 0.500000
O O9 0.428192 0.762617 0.524892
O O10 0.188256 0.014465 0.120227
#
# Coordination Sequence:
#
# PCOD9546408 Si02
#       6
#     4  16  16  16   4  16
#     4  10  20  42  76  90 144 186 248 306 380 458
#     4  11  27  45  74 104 150 203 260 311 400 487
#     4  11  27  46  73 107 146 193 261 323 389 475
#     4  11  24  45  71 107 145 197 253 324 386 460
#     4  10  28  38  72 110 148 194 256 330 380 454
#     4  10  26  47  71 106 148 199 254 319 394 470
#
# _framework density 24.054437
#
# number of rings (size 3 to 8) (size 9 to 14) (size 15 to 20)
#    0.000    1.333    2.222    0.000   18.667    1.778 
#    0.000    0.000    0.000    0.000    0.000    0.000 
#    0.000    0.000    0.000    0.000    0.000    0.000 
#
# Total GULP energy -201262.306718 kJ/mol
# GULP energy per Si atom -5590.619631 kJ/mol
# Density = 2.399969 g / cm^3
# Si number density = 24.054437 Si / 1000 Ang^3
#
#
#
# Elastic Constant Matrix: (Units=GPa)
#
#
# Indices 1 2 3 4 5 6 
#
# 1 119.0531 38.5951 21.0482 0.0000 0.0000 0.0531
# 2 38.5951 119.0531 21.0482 0.0000 0.0000 -0.0531
# 3 21.0482 21.0482 87.2047 0.0000 0.0000 0.0000
# 4 0.0000 0.0000 0.0000 36.6279 0.0000 0.0000
# 5 0.0000 0.0000 0.0000 0.0000 36.6279 0.0000
# 6 0.0531 -0.0531 0.0000 0.0000 0.0000 45.6862
#
#
#
# Elastic Compliance Matrix: (Units=1/GPa)
#
#
# Indices 1 2 3 4 5 6 
#
# 1 0.009605 -0.002824 -0.001637 0.000000 0.000000 -0.000014
# 2 -0.002824 0.009605 -0.001637 0.000000 0.000000 0.000014
# 3 -0.001637 -0.001637 0.012257 0.000000 0.000000 0.000000
# 4 0.000000 0.000000 0.000000 0.027302 0.000000 0.000000
# 5 0.000000 0.000000 0.000000 0.000000 0.027302 0.000000
# 6 -0.000014 0.000014 0.000000 0.000000 0.000000 0.021889
#
#
# Mechanical properties :
#
#
# Convention : Reuss Voigt Hill
#
# Bulk Modulus (GPa) = 51.88963 54.07711 52.98337
# Shear Modulus (GPa) = 39.50176 40.09635 39.79905
#
# Velocity S-wave (km/s) = 4.05678 4.08720 4.07202
# Velocity P-wave (km/s) = 6.60014 6.69354 6.64701
#
# Compressibility (1/GPa) = 0.01927167
#
# Stress axis : x y z
#
# Youngs Moduli (GPa) = 104.11734 104.11734 81.58422
#
# Poissons Ratio (x) = 0.29406 0.13351
# Poissons Ratio (y) = 0.29406 0.13351
# Poissons Ratio (z) = 0.17039 0.17039
#
# Static dielectric constant tensor:
#      x y z
#    x 1.983400 0.000000 0.000000 
#    y 0.000000 1.983400 0.000000 
#    z 0.000000 0.000000 2.107260 
# 
# From -- ./inp_files/1589.got.cif
#   From: 2010.05.17/outbox.cif.g08.bks.cpg/sg88_1_cif.got.tgz:1589.got - 2010.06.03 19:11:41.
