data_PCOD9546140
_publ_section_title
;
Structure prediction by ZEFSAII (Michael W. Deem and Ramdas Pophale) SiO2 
 PCOD9546140
Probable space group: I 4/M
;
_chemical_formula_sum "Si O2"
_cell_formula_units_Z 112
_cell_length_a 14.230703
_cell_length_b 14.230703
_cell_length_c 28.889512
_cell_angle_alpha 90.000000
_cell_angle_beta 90.000000
_cell_angle_gamma 90.000000
_cell_volume 5850.499082
_symmetry_space_group_name_H-M "I 4/M"
_symmetry_group_IT_number 87
_symmetry_cell_setting 'tetragonal'
loop_
_space_group_symop_operation_xyz
x,y,z
-y,x,z
-x,-y,z
y,-x,z
-x,-y,-z
y,-x,-z
x,y,-z
-y,x,-z
1/2+x,1/2+y,1/2+z
1/2-y,1/2+x,1/2+z
1/2-x,1/2-y,1/2+z
1/2+y,1/2-x,1/2+z
1/2-x,1/2-y,1/2-z
1/2+y,1/2-x,1/2-z
1/2+x,1/2+y,1/2-z
1/2-y,1/2+x,1/2-z
loop_
_atom_site_type_symbol
_atom_site_label
_atom_site_fract_x
_atom_site_fract_y
_atom_site_fract_z
Si Si1 0.622283 0.598571 0.949675
Si Si2 0.399367 0.879041 0.697128
Si Si3 0.100222 0.624184 0.697550
Si Si4 0.995799 0.611567 0.554936
Si Si5 0.163865 0.717836 0.393761
Si Si6 0.655004 0.524857 0.446244
Si Si7 0.142822 0.703242 0.101621
O O1 0.513973 0.626626 0.949387
O O2 0.675851 0.632800 0.904776
O O3 0.662009 0.631058 0.000000
O O4 0.512873 0.879315 0.692589
O O5 0.376613 0.849384 0.749550
O O6 0.358275 0.817313 0.656127
O O7 0.367338 0.987433 0.691149
O O8 0.152389 0.682787 0.658387
O O9 0.994450 0.627163 0.500000
O O10 0.898144 0.649255 0.576601
O O11 0.000000 0.500000 0.564382
O O12 0.089099 0.657468 0.576687
O O13 0.271554 0.726287 0.409416
O O14 0.573405 0.602449 0.438939
O O15 0.684855 0.529737 0.500000
O O16 0.743885 0.548672 0.414796
#
# Coordination Sequence:
#
# PCOD9546140 Si02
#       7
#    16  16  16  16  16  16  16
#     4   9  19  36  55  75 110 160 204 238 283 354
#     4   9  19  39  63  87 114 155 203 249 310 369
#     4   9  19  38  64  85 116 157 196 252 312 373
#     4  11  25  42  60  87 129 170 210 260 305 355
#     4  12  23  34  57  90 123 153 195 251 311 367
#     4   9  21  41  61  83 120 166 207 247 297 364
#     4  12  24  36  64  96 122 159 206 261 310 370
#
# _framework density 19.143666
#
# number of rings (size 3 to 8) (size 9 to 14) (size 15 to 20)
#    0.000    1.857    1.429    4.286    4.000    4.000 
#    0.000    0.000    0.000    0.000    0.000    2.000 
#    0.000    0.000    0.000    0.000    0.000    0.000 
#
# Total GULP energy -312548.271848 kJ/mol
# GULP energy per Si atom -5581.219140 kJ/mol
# Density = 1.910009 g / cm^3
# Si number density = 19.143666 Si / 1000 Ang^3
#
#
#
# Elastic Constant Matrix: (Units=GPa)
#
#
# Indices 1 2 3 4 5 6 
#
# 1 40.4989 23.6009 37.9479 0.0000 0.0000 10.1180
# 2 23.6009 40.4989 37.9479 0.0000 0.0000 -10.1180
# 3 37.9479 37.9479 71.7934 0.0000 0.0000 0.0000
# 4 0.0000 0.0000 0.0000 26.7547 0.0000 0.0000
# 5 0.0000 0.0000 0.0000 0.0000 26.7547 0.0000
# 6 10.1180 -10.1180 0.0000 0.0000 0.0000 28.4012
#
#
#
# Elastic Compliance Matrix: (Units=1/GPa)
#
#
# Indices 1 2 3 4 5 6 
#
# 1 0.072453 -0.030758 -0.022039 0.000000 0.000000 -0.036769
# 2 -0.030758 0.072453 -0.022039 0.000000 0.000000 0.036769
# 3 -0.022039 -0.022039 0.037227 0.000000 0.000000 0.000000
# 4 0.000000 0.000000 0.000000 0.037377 0.000000 0.000000
# 5 0.000000 0.000000 0.000000 0.000000 0.037377 0.000000
# 6 -0.036769 0.036769 0.000000 0.000000 0.000000 0.061408
#
#
# Mechanical properties :
#
#
# Convention : Reuss Voigt Hill
#
# Bulk Modulus (GPa) = 30.80519 39.08717 34.94618
# Shear Modulus (GPa) = 10.44310 19.93510 15.18910
#
# Velocity S-wave (km/s) = 2.33815 3.23048 2.81984
# Velocity P-wave (km/s) = 4.83899 5.86318 5.37553
#
# Compressibility (1/GPa) = 0.03246206
#
# Stress axis : x y z
#
# Youngs Moduli (GPa) = 13.80208 13.80208 26.86217
#
# Poissons Ratio (x) = 0.42452 0.59201
# Poissons Ratio (y) = 0.42452 0.59201
# Poissons Ratio (z) = 0.30418 0.30418
#
# Static dielectric constant tensor:
#      x y z
#    x 1.680620 0.000000 0.000000 
#    y 0.000000 1.680620 0.000000 
#    z 0.000000 0.000000 1.659460 
# 
# From -- ./inp_files/6300.got.cif
#   From: 2010.05.17/outbox.cif.g08.bks.cpg/sg87_4_cif.got.tgz:6300.got - 2010.06.03 19:07:00.
