data_PCOD9546270
_publ_section_title
;
Structure prediction by ZEFSAII (Michael W. Deem and Ramdas Pophale) SiO2 
 PCOD9546270
Probable space group: I 41/A
;
_chemical_formula_sum "Si O2"
_cell_formula_units_Z 72
_cell_length_a 11.501025
_cell_length_b 11.501025
_cell_length_c 26.936433
_cell_angle_alpha 90.000000
_cell_angle_beta 90.000000
_cell_angle_gamma 90.000000
_cell_volume 3562.978319
_symmetry_space_group_name_H-M "I 41/A"
_symmetry_group_IT_number 88
_space_group.IT_coordinate_system_code '2'
_symmetry_cell_setting 'tetragonal'
loop_
_space_group_symop_operation_xyz
x,y,z
3/4-y,1/4+x,1/4+z
-x,1/2-y,z
1/4+y,1/4-x,1/4+z
-x,-y,-z
1/4+y,3/4-x,3/4-z
x,1/2+y,-z
3/4-y,3/4+x,3/4-z
1/2+x,1/2+y,1/2+z
1/4-y,3/4+x,3/4+z
1/2-x,-y,1/2+z
3/4+y,3/4-x,3/4+z
1/2-x,1/2-y,1/2-z
3/4+y,1/4-x,1/4-z
1/2+x,y,1/2-z
1/4-y,1/4+x,1/4-z
loop_
_atom_site_type_symbol
_atom_site_label
_atom_site_fract_x
_atom_site_fract_y
_atom_site_fract_z
Si Si1 0.500000 0.250000 0.945410
Si Si2 0.224663 0.617757 0.470103
Si Si3 0.238103 0.139965 0.423882
Si Si4 0.242021 0.214909 0.640005
Si Si5 0.840208 0.968266 0.156696
O O1 0.602409 0.187863 0.976077
O O2 0.543606 0.361095 0.912551
O O3 0.292211 0.637253 0.520989
O O4 0.258469 0.667412 0.415890
O O5 0.228046 0.479584 0.458873
O O6 0.214771 0.272644 0.410966
O O7 0.309450 0.070971 0.381882
O O8 0.116367 0.069967 0.424793
O O9 0.286894 0.346056 0.638605
#
# Coordination Sequence:
#
# PCOD9546270 Si02
#       5
#     8  16  16  16  16
#     4  10  19  34  60  98 140 160 190 256 336 377
#     4  10  21  35  64  94 124 168 204 260 325 382
#     4  11  24  40  65  90 127 167 218 261 318 380
#     4  10  21  40  61  98 136 163 202 269 326 381
#     4  10  24  41  61  92 131 165 213 266 314 381
#
# _framework density 20.207813000000002
#
# number of rings (size 3 to 8) (size 9 to 14) (size 15 to 20)
#    0.000    1.778    0.000    5.333    9.333    2.222 
#    0.000    4.444    9.778    0.000    0.000    0.000 
#    0.000    0.000    0.000    0.000    0.000    0.000 
#
# Total GULP energy -200488.038292 kJ/mol
# GULP energy per Si atom -5569.112175 kJ/mol
# Density = 2.016182 g / cm^3
# Si number density = 20.207813 Si / 1000 Ang^3
#
#
#
# Elastic Constant Matrix: (Units=GPa)
#
#
# Indices 1 2 3 4 5 6 
#
# 1 127.8379 32.3389 31.1233 0.0000 0.0000 1.1386
# 2 32.3389 127.8379 31.1233 0.0000 0.0000 -1.1386
# 3 31.1233 31.1233 85.5171 0.0000 0.0000 0.0000
# 4 0.0000 0.0000 0.0000 9.3679 0.0000 0.0000
# 5 0.0000 0.0000 0.0000 0.0000 9.3679 0.0000
# 6 1.1386 -1.1386 0.0000 0.0000 0.0000 17.1047
#
#
#
# Elastic Compliance Matrix: (Units=1/GPa)
#
#
# Indices 1 2 3 4 5 6 
#
# 1 0.008880 -0.001608 -0.002646 0.000000 0.000000 -0.000698
# 2 -0.001608 0.008880 -0.002646 0.000000 0.000000 0.000698
# 3 -0.002646 -0.002646 0.013620 0.000000 0.000000 0.000000
# 4 0.000000 0.000000 0.000000 0.106747 0.000000 0.000000
# 5 0.000000 0.000000 0.000000 0.000000 0.106747 0.000000
# 6 -0.000698 0.000698 0.000000 0.000000 0.000000 0.058556
#
#
# Mechanical properties :
#
#
# Convention : Reuss Voigt Hill
#
# Bulk Modulus (GPa) = 56.89175 58.92933 57.91054
# Shear Modulus (GPa) = 15.47551 23.60861 19.54206
#
# Velocity S-wave (km/s) = 2.77034 3.42174 3.11312
# Velocity P-wave (km/s) = 6.20061 6.69597 6.45304
#
# Compressibility (1/GPa) = 0.01757724
#
# Stress axis : x y z
#
# Youngs Moduli (GPa) = 112.61587 112.61587 73.42221
#
# Poissons Ratio (x) = 0.18111 0.19431
# Poissons Ratio (y) = 0.18111 0.19431
# Poissons Ratio (z) = 0.29803 0.29803
#
# Static dielectric constant tensor:
#      x y z
#    x 1.757960 0.000000 0.000000 
#    y 0.000000 1.757960 0.000000 
#    z 0.000000 0.000000 1.762790 
# 
# From -- ./inp_files/5692.got.cif
#   From: 2010.05.17/outbox.cif.g08.bks.cpg/sg88_3_cif.got.tgz:5692.got - 2010.06.03 19:11:41.
