data_PCOD9546467
_publ_section_title
;
Structure prediction by ZEFSAII (Michael W. Deem and Ramdas Pophale) SiO2 
 PCOD9546467
Probable space group: I 41/A
;
_chemical_formula_sum "Si O2"
_cell_formula_units_Z 40
_cell_length_a 7.025371
_cell_length_b 7.025371
_cell_length_c 28.008749
_cell_angle_alpha 90.000000
_cell_angle_beta 90.000000
_cell_angle_gamma 90.000000
_cell_volume 1382.395269
_symmetry_space_group_name_H-M "I 41/A"
_symmetry_group_IT_number 88
_space_group.IT_coordinate_system_code '2'
_symmetry_cell_setting 'tetragonal'
loop_
_space_group_symop_operation_xyz
x,y,z
3/4-y,1/4+x,1/4+z
-x,1/2-y,z
1/4+y,1/4-x,1/4+z
-x,-y,-z
1/4+y,3/4-x,3/4-z
x,1/2+y,-z
3/4-y,3/4+x,3/4-z
1/2+x,1/2+y,1/2+z
1/4-y,3/4+x,3/4+z
1/2-x,-y,1/2+z
3/4+y,3/4-x,3/4+z
1/2-x,1/2-y,1/2-z
3/4+y,1/4-x,1/4-z
1/2+x,y,1/2-z
1/4-y,1/4+x,1/4-z
loop_
_atom_site_type_symbol
_atom_site_label
_atom_site_fract_x
_atom_site_fract_y
_atom_site_fract_z
Si Si1 0.841984 0.994782 0.799175
Si Si2 0.500000 0.250000 0.375000
Si Si3 0.500000 0.250000 0.875000
Si Si4 0.720388 0.419256 0.802977
O O1 0.709581 0.184889 0.797423
O O2 0.842120 0.955299 0.742198
O O3 0.058434 0.052828 0.809809
O O4 0.833444 0.827655 0.838532
O O5 0.588231 0.435705 0.848556
#
# Coordination Sequence:
#
# PCOD9546467 Si02
#       4
#    16   4   4  16
#     4  10  22  40  61  89 125 163 210 261 313 374
#     4  12  24  40  64  96 130 164 208 272 324 358
#     4  12  20  36  68  92 122 172 212 256 312 366
#     4  10  21  39  62  89 123 166 211 254 310 382
#
# _framework density 28.935286000000001
#
# number of rings (size 3 to 8) (size 9 to 14) (size 15 to 20)
#    0.000    1.600    0.000    7.200    0.000    1.600 
#    0.000    4.000    0.000    0.000    0.000    0.000 
#    0.000    0.000    0.000    0.000    0.000    0.000 
#
# Total GULP energy -111455.218668 kJ/mol
# GULP energy per Si atom -5572.760933 kJ/mol
# Density = 2.886943 g / cm^3
# Si number density = 28.935286 Si / 1000 Ang^3
#
#
#
# Elastic Constant Matrix: (Units=GPa)
#
#
# Indices 1 2 3 4 5 6 
#
# 1 92.9533 21.8751 35.4009 0.0000 0.0000 3.1378
# 2 21.8751 92.9533 35.4009 0.0000 0.0000 -3.1378
# 3 35.4009 35.4009 203.3476 0.0000 0.0000 0.0000
# 4 0.0000 0.0000 0.0000 51.8655 0.0000 0.0000
# 5 0.0000 0.0000 0.0000 0.0000 51.8655 0.0000
# 6 3.1378 -3.1378 0.0000 0.0000 0.0000 49.6842
#
#
#
# Elastic Compliance Matrix: (Units=1/GPa)
#
#
# Indices 1 2 3 4 5 6 
#
# 1 0.011952 -0.002196 -0.001698 0.000000 0.000000 -0.000894
# 2 -0.002196 0.011952 -0.001698 0.000000 0.000000 0.000894
# 3 -0.001698 -0.001698 0.005509 0.000000 0.000000 0.000000
# 4 0.000000 0.000000 0.000000 0.019281 0.000000 0.000000
# 5 0.000000 0.000000 0.000000 0.000000 0.019281 0.000000
# 6 -0.000894 0.000894 0.000000 0.000000 0.000000 0.020240
#
#
# Mechanical properties :
#
#
# Convention : Reuss Voigt Hill
#
# Bulk Modulus (GPa) = 54.86321 63.84533 59.35427
# Shear Modulus (GPa) = 47.40438 50.45484 48.92961
#
# Velocity S-wave (km/s) = 4.05197 4.18031 4.11664
# Velocity P-wave (km/s) = 6.39477 6.73890 6.56909
#
# Compressibility (1/GPa) = 0.01822715
#
# Stress axis : x y z
#
# Youngs Moduli (GPa) = 83.66878 83.66880 181.51984
#
# Poissons Ratio (x) = 0.18374 0.30829
# Poissons Ratio (y) = 0.18374 0.30829
# Poissons Ratio (z) = 0.14210 0.14210
#
# Static dielectric constant tensor:
#      x y z
#    x 2.366170 0.000000 0.000000 
#    y 0.000000 2.366170 0.000000 
#    z 0.000000 0.000000 3.587380 
# 
# From -- ./inp_files/4979.got.cif
#   From: 2010.05.17/outbox.cif.g08.bks.cpg/sg88_3_cif.got.tgz:4979.got - 2010.06.03 19:11:41.
