data_PCOD9546480
_publ_section_title
;
Structure prediction by ZEFSAII (Michael W. Deem and Ramdas Pophale) SiO2 
 PCOD9546480
Probable space group: I 41/A
;
_chemical_formula_sum "Si O2"
_cell_formula_units_Z 120
_cell_length_a 17.299279
_cell_length_b 17.299279
_cell_length_c 18.636959
_cell_angle_alpha 90.000000
_cell_angle_beta 90.000000
_cell_angle_gamma 90.000000
_cell_volume 5577.390540
_symmetry_space_group_name_H-M "I 41/A"
_symmetry_group_IT_number 88
_space_group.IT_coordinate_system_code '2'
_symmetry_cell_setting 'tetragonal'
loop_
_space_group_symop_operation_xyz
x,y,z
3/4-y,1/4+x,1/4+z
-x,1/2-y,z
1/4+y,1/4-x,1/4+z
-x,-y,-z
1/4+y,3/4-x,3/4-z
x,1/2+y,-z
3/4-y,3/4+x,3/4-z
1/2+x,1/2+y,1/2+z
1/4-y,3/4+x,3/4+z
1/2-x,-y,1/2+z
3/4+y,3/4-x,3/4+z
1/2-x,1/2-y,1/2-z
3/4+y,1/4-x,1/4-z
1/2+x,y,1/2-z
1/4-y,1/4+x,1/4-z
loop_
_atom_site_type_symbol
_atom_site_label
_atom_site_fract_x
_atom_site_fract_y
_atom_site_fract_z
Si Si1 0.556587 0.092166 0.088683
Si Si2 0.325624 0.155667 0.811839
Si Si3 0.232278 0.627068 0.614532
Si Si4 0.331005 0.202431 0.127184
Si Si5 0.049347 0.935927 0.364846
Si Si6 0.500000 0.250000 0.606282
Si Si7 0.320082 0.498182 0.527654
Si Si8 0.658808 0.921540 0.994180
O O1 0.648136 0.093853 0.096015
O O2 0.520400 0.173427 0.102111
O O3 0.529240 0.026029 0.141785
O O4 0.540224 0.072384 0.007353
O O5 0.396461 0.096947 0.803781
O O6 0.349390 0.215378 0.873967
O O7 0.243169 0.113691 0.809582
O O8 0.220074 0.720198 0.612543
O O9 0.291219 0.579867 0.562873
O O10 0.245512 0.601806 0.696820
O O11 0.411135 0.227780 0.168924
O O12 0.286259 0.138717 0.174072
O O13 0.347338 0.157090 0.051863
O O14 0.104586 0.927108 0.435269
O O15 0.245078 0.442108 0.521602
#
# Coordination Sequence:
#
# PCOD9546480 Si02
#       8
#    16  16  16  16  16   8  16  16
#     4  10  21  40  60  86 128 173 219 267 338 399
#     4  11  22  36  58  90 131 173 224 270 333 391
#     4  11  24  42  72  98 135 175 228 291 350 410
#     4  11  24  43  68 102 135 182 229 286 351 413
#     4  11  22  35  56  91 127 176 218 277 322 402
#     4  10  22  42  62  93 137 174 216 282 350 422
#     4  12  22  46  72 101 134 176 239 288 348 418
#     4  11  21  41  67  92 127 180 227 278 329 417
#
# _framework density 21.515439000000001
#
# number of rings (size 3 to 8) (size 9 to 14) (size 15 to 20)
#    0.000    1.067    4.000    5.200    0.000    3.467 
#    4.800    0.000    0.000    0.400    0.000    0.000 
#    0.000    0.000    0.000    0.000    0.000    0.000 
#
# Total GULP energy -334374.286375 kJ/mol
# GULP energy per Si atom -5572.904773 kJ/mol
# Density = 2.146647 g / cm^3
# Si number density = 21.515439 Si / 1000 Ang^3
#
#
#
# Elastic Constant Matrix: (Units=GPa)
#
#
# Indices 1 2 3 4 5 6 
#
# 1 116.6722 36.4957 4.5448 0.0000 0.0000 0.9311
# 2 36.4957 116.6722 4.5448 0.0000 0.0000 -0.9311
# 3 4.5448 4.5448 21.2079 0.0000 0.0000 0.0000
# 4 0.0000 0.0000 0.0000 52.9433 0.0000 0.0000
# 5 0.0000 0.0000 0.0000 0.0000 52.9433 0.0000
# 6 0.9311 -0.9311 0.0000 0.0000 0.0000 33.1187
#
#
#
# Elastic Compliance Matrix: (Units=1/GPa)
#
#
# Indices 1 2 3 4 5 6 
#
# 1 0.009547 -0.002934 -0.001417 0.000000 0.000000 -0.000351
# 2 -0.002934 0.009547 -0.001417 0.000000 0.000000 0.000351
# 3 -0.001417 -0.001417 0.047760 0.000000 0.000000 0.000000
# 4 0.000000 0.000000 0.000000 0.018888 0.000000 0.000000
# 5 0.000000 0.000000 0.000000 0.000000 0.018888 0.000000
# 6 -0.000351 0.000351 0.000000 0.000000 0.000000 0.030214
#
#
# Mechanical properties :
#
#
# Convention : Reuss Voigt Hill
#
# Bulk Modulus (GPa) = 18.07771 38.41368 28.24570
# Shear Modulus (GPa) = 30.33638 41.73222 36.03430
#
# Velocity S-wave (km/s) = 3.75905 4.40891 4.09689
# Velocity P-wave (km/s) = 5.22121 6.61897 5.96120
#
# Compressibility (1/GPa) = 0.05531675
#
# Stress axis : x y z
#
# Youngs Moduli (GPa) = 104.74763 104.74764 20.93823
#
# Poissons Ratio (x) = 0.30732 0.02967
# Poissons Ratio (y) = 0.30732 0.02967
# Poissons Ratio (z) = 0.14844 0.14844
#
# Static dielectric constant tensor:
#      x y z
#    x 1.694990 0.000000 0.000000 
#    y 0.000000 1.694990 0.000000 
#    z 0.000000 0.000000 1.851460 
# 
# From -- ./inp_files/4873.got.cif
#   From: 2010.05.17/outbox.cif.g08.bks.cpg/sg88_3_cif.got.tgz:4873.got - 2010.06.03 19:11:41.
