data_PCOD9546734
_publ_section_title
;
Structure prediction by ZEFSAII (Michael W. Deem and Ramdas Pophale) SiO2 
 PCOD9546734
Probable space group: I 41/A
;
_chemical_formula_sum "Si O2"
_cell_formula_units_Z 48
_cell_length_a 8.217975
_cell_length_b 8.217975
_cell_length_c 28.214997
_cell_angle_alpha 90.000000
_cell_angle_beta 90.000000
_cell_angle_gamma 90.000000
_cell_volume 1905.503014
_symmetry_space_group_name_H-M "I 41/A"
_symmetry_group_IT_number 88
_space_group.IT_coordinate_system_code '2'
_symmetry_cell_setting 'tetragonal'
loop_
_space_group_symop_operation_xyz
x,y,z
3/4-y,1/4+x,1/4+z
-x,1/2-y,z
1/4+y,1/4-x,1/4+z
-x,-y,-z
1/4+y,3/4-x,3/4-z
x,1/2+y,-z
3/4-y,3/4+x,3/4-z
1/2+x,1/2+y,1/2+z
1/4-y,3/4+x,3/4+z
1/2-x,-y,1/2+z
3/4+y,3/4-x,3/4+z
1/2-x,1/2-y,1/2-z
3/4+y,1/4-x,1/4-z
1/2+x,y,1/2-z
1/4-y,1/4+x,1/4-z
loop_
_atom_site_type_symbol
_atom_site_label
_atom_site_fract_x
_atom_site_fract_y
_atom_site_fract_z
Si Si1 0.830179 0.465290 0.125058
Si Si2 0.121002 0.609109 0.970822
Si Si3 0.850390 0.852064 0.289553
O O1 0.771595 0.276788 0.127017
O O2 0.791273 0.495712 0.069958
O O3 0.756272 0.571293 0.167453
O O4 0.000000 0.750000 0.951390
O O5 0.252179 0.674092 0.007489
O O6 0.000000 0.500000 0.000000
O O7 0.750000 0.750000 0.250000
O O8 0.000000 0.750000 0.309439
#
# Coordination Sequence:
#
# PCOD9546734 Si02
#       3
#    16  16  16
#     4  11  21  46  83 116 157 225 288 335 423 529
#     4  12  23  47  82 115 156 221 282 342 426 522
#     4  12  27  51  78 127 178 213 278 372 442 514
#
# _framework density 25.190196
#
# number of rings (size 3 to 8) (size 9 to 14) (size 15 to 20)
#    0.000    0.333    6.667    4.000    0.000    0.000 
#   12.000    0.000    0.000    0.000    0.000    0.000 
#    0.000    0.000    0.000    0.000    0.000    0.000 
#
# Total GULP energy -134138.084043 kJ/mol
# GULP energy per Si atom -5589.086835 kJ/mol
# Density = 2.513286 g / cm^3
# Si number density = 25.190196 Si / 1000 Ang^3
#
#
#
# Elastic Constant Matrix: (Units=GPa)
#
#
# Indices 1 2 3 4 5 6 
#
# 1 115.3014 77.6666 83.4333 0.0000 0.0000 2.8116
# 2 77.6666 115.3014 83.4333 0.0000 0.0000 -2.8116
# 3 83.4333 83.4333 231.2094 0.0000 0.0000 0.0000
# 4 0.0000 0.0000 0.0000 56.8640 0.0000 0.0000
# 5 0.0000 0.0000 0.0000 0.0000 56.8640 0.0000
# 6 2.8116 -2.8116 0.0000 0.0000 0.0000 42.3496
#
#
#
# Elastic Compliance Matrix: (Units=1/GPa)
#
#
# Indices 1 2 3 4 5 6 
#
# 1 0.017185 -0.009652 -0.002718 0.000000 0.000000 -0.001782
# 2 -0.009652 0.017185 -0.002718 0.000000 0.000000 0.001782
# 3 -0.002718 -0.002718 0.006287 0.000000 0.000000 0.000000
# 4 0.000000 0.000000 0.000000 0.017586 0.000000 0.000000
# 5 0.000000 0.000000 0.000000 0.000000 0.017586 0.000000
# 6 -0.001782 0.001782 0.000000 0.000000 0.000000 0.023850
#
#
# Mechanical properties :
#
#
# Convention : Reuss Voigt Hill
#
# Bulk Modulus (GPa) = 95.42497 105.65316 100.53906
# Shear Modulus (GPa) = 37.49564 45.70081 41.59822
#
# Velocity S-wave (km/s) = 3.86230 4.26400 4.06811
# Velocity P-wave (km/s) = 7.60617 8.14097 7.87811
#
# Compressibility (1/GPa) = 0.01047944
#
# Stress axis : x y z
#
# Youngs Moduli (GPa) = 58.19010 58.19010 159.06157
#
# Poissons Ratio (x) = 0.56167 0.43237
# Poissons Ratio (y) = 0.56167 0.43237
# Poissons Ratio (z) = 0.15817 0.15817
#
# Static dielectric constant tensor:
#      x y z
#    x 1.878390 0.000000 0.000000 
#    y 0.000000 1.878390 0.000000 
#    z 0.000000 0.000000 2.099690 
# 
# From -- ./inp_files/6017.got.cif
#   From: 2010.05.17/outbox.cif.g08.bks.cpg/sg88_4_cif.got.tgz:6017.got - 2010.06.03 19:11:41.
