data_PCOD9546305
_publ_section_title
;
Structure prediction by ZEFSAII (Michael W. Deem and Ramdas Pophale) SiO2 
 PCOD9546305
Probable space group: I 41/A
;
_chemical_formula_sum "Si O2"
_cell_formula_units_Z 112
_cell_length_a 14.801649
_cell_length_b 14.801649
_cell_length_c 25.339557
_cell_angle_alpha 90.000000
_cell_angle_beta 90.000000
_cell_angle_gamma 90.000000
_cell_volume 5551.613468
_symmetry_space_group_name_H-M "I 41/A"
_symmetry_group_IT_number 88
_space_group.IT_coordinate_system_code '2'
_symmetry_cell_setting 'tetragonal'
loop_
_space_group_symop_operation_xyz
x,y,z
3/4-y,1/4+x,1/4+z
-x,1/2-y,z
1/4+y,1/4-x,1/4+z
-x,-y,-z
1/4+y,3/4-x,3/4-z
x,1/2+y,-z
3/4-y,3/4+x,3/4-z
1/2+x,1/2+y,1/2+z
1/4-y,3/4+x,3/4+z
1/2-x,-y,1/2+z
3/4+y,3/4-x,3/4+z
1/2-x,1/2-y,1/2-z
3/4+y,1/4-x,1/4-z
1/2+x,y,1/2-z
1/4-y,1/4+x,1/4-z
loop_
_atom_site_type_symbol
_atom_site_label
_atom_site_fract_x
_atom_site_fract_y
_atom_site_fract_z
Si Si1 0.716594 0.687948 0.798789
Si Si2 0.048824 0.023083 0.417460
Si Si3 0.099770 0.224799 0.393623
Si Si4 0.734239 0.304162 0.032978
Si Si5 0.254549 0.651588 0.450342
Si Si6 0.768221 0.888222 0.225436
Si Si7 0.862286 0.721503 0.877446
O O1 0.750000 0.750000 0.750000
O O2 0.659191 0.744458 0.841940
O O3 0.653489 0.599575 0.790239
O O4 0.804529 0.666745 0.834729
O O5 0.096413 0.120808 0.411132
O O6 0.071826 0.984234 0.360160
O O7 0.942595 0.031095 0.432598
O O8 0.093487 0.972198 0.466846
O O9 0.136472 0.277257 0.443832
O O10 0.000000 0.250000 0.378992
O O11 0.721359 0.411080 0.028015
O O12 0.802294 0.263754 0.076477
O O13 0.755316 0.245737 0.981662
O O14 0.178399 0.581990 0.469555
O O15 0.909739 0.807676 0.850109
#
# Coordination Sequence:
#
# PCOD9546305 Si02
#       7
#    16  16  16  16  16  16  16
#     4  10  22  41  60  92 128 164 212 275 322 380
#     4  10  23  42  64  93 130 168 211 271 325 383
#     4  10  19  41  63  87 125 169 210 262 323 396
#     4  11  22  39  67  94 122 174 216 259 334 382
#     4  11  24  42  65  98 131 166 227 270 321 402
#     4  11  23  42  67  94 132 170 214 270 329 387
#     4  10  21  40  62  89 128 167 211 262 328 390
#
# _framework density 20.174313999999999
#
# number of rings (size 3 to 8) (size 9 to 14) (size 15 to 20)
#    0.000    1.571    2.857    1.714    2.000    0.000 
#   18.000    0.000    0.000    0.000    0.000    0.000 
#    0.000    0.000    0.000    0.000    0.000    0.000 
#
# Total GULP energy -311933.029888 kJ/mol
# GULP energy per Si atom -5570.232677 kJ/mol
# Density = 2.012840 g / cm^3
# Si number density = 20.174314 Si / 1000 Ang^3
#
#
#
# Elastic Constant Matrix: (Units=GPa)
#
#
# Indices 1 2 3 4 5 6 
#
# 1 60.5688 7.9429 28.9858 0.0000 0.0000 -2.7843
# 2 7.9429 60.5688 28.9858 0.0000 0.0000 2.7843
# 3 28.9858 28.9858 108.9720 0.0000 0.0000 0.0000
# 4 0.0000 0.0000 0.0000 23.5993 0.0000 0.0000
# 5 0.0000 0.0000 0.0000 0.0000 23.5993 0.0000
# 6 -2.7843 2.7843 0.0000 0.0000 0.0000 30.0966
#
#
#
# Elastic Compliance Matrix: (Units=1/GPa)
#
#
# Indices 1 2 3 4 5 6 
#
# 1 0.019013 -0.000177 -0.005010 0.000000 0.000000 0.001775
# 2 -0.000177 0.019013 -0.005010 0.000000 0.000000 -0.001775
# 3 -0.005010 -0.005010 0.011842 0.000000 0.000000 0.000000
# 4 0.000000 0.000000 0.000000 0.042374 0.000000 0.000000
# 5 0.000000 0.000000 0.000000 0.000000 0.042374 0.000000
# 6 0.001775 -0.001775 0.000000 0.000000 0.000000 0.033555
#
#
# Mechanical properties :
#
#
# Convention : Reuss Voigt Hill
#
# Bulk Modulus (GPa) = 33.93009 40.21540 37.07274
# Shear Modulus (GPa) = 25.20299 26.40540 25.80420
#
# Velocity S-wave (km/s) = 3.53832 3.62174 3.58028
# Velocity P-wave (km/s) = 5.79206 6.12100 5.95880
#
# Compressibility (1/GPa) = 0.02947237
#
# Stress axis : x y z
#
# Youngs Moduli (GPa) = 52.59660 52.59660 84.44547
#
# Poissons Ratio (x) = 0.00932 0.42308
# Poissons Ratio (y) = 0.00932 0.42308
# Poissons Ratio (z) = 0.26351 0.26351
#
# Static dielectric constant tensor:
#      x y z
#    x 1.723240 0.000000 0.000000 
#    y 0.000000 1.723240 0.000000 
#    z 0.000000 0.000000 1.707990 
# 
# From -- ./inp_files/5346.got.cif
#   From: 2010.05.17/outbox.cif.g08.bks.cpg/sg88_3_cif.got.tgz:5346.got - 2010.06.03 19:11:41.
