data_PCOD9546068
_publ_section_title
;
Structure prediction by ZEFSAII (Michael W. Deem and Ramdas Pophale) SiO2 
 PCOD9546068
Probable space group: I 4/M
;
_chemical_formula_sum "Si O2"
_cell_formula_units_Z 80
_cell_length_a 11.170234
_cell_length_b 11.170234
_cell_length_c 33.481144
_cell_angle_alpha 90.000000
_cell_angle_beta 90.000000
_cell_angle_gamma 90.000000
_cell_volume 4177.580534
_symmetry_space_group_name_H-M "I 4/M"
_symmetry_group_IT_number 87
_symmetry_cell_setting 'tetragonal'
loop_
_space_group_symop_operation_xyz
x,y,z
-y,x,z
-x,-y,z
y,-x,z
-x,-y,-z
y,-x,-z
x,y,-z
-y,x,-z
1/2+x,1/2+y,1/2+z
1/2-y,1/2+x,1/2+z
1/2-x,1/2-y,1/2+z
1/2+y,1/2-x,1/2+z
1/2-x,1/2-y,1/2-z
1/2+y,1/2-x,1/2-z
1/2+x,1/2+y,1/2-z
1/2-y,1/2+x,1/2-z
loop_
_atom_site_type_symbol
_atom_site_label
_atom_site_fract_x
_atom_site_fract_y
_atom_site_fract_z
Si Si1 0.073971 0.613266 0.610348
Si Si2 0.301318 0.969826 0.248241
Si Si3 0.981441 0.805744 0.334255
Si Si4 0.547339 0.692944 0.661129
Si Si5 0.314337 0.427950 0.047110
O O1 0.987995 0.682877 0.641806
O O2 0.192264 0.574817 0.634211
O O3 0.104667 0.704689 0.575096
O O4 0.000000 0.500000 0.595110
O O5 0.403373 0.869778 0.254695
O O6 0.231921 0.944404 0.207497
O O7 0.219214 0.973972 0.287222
O O8 0.874486 0.895347 0.344558
O O9 0.414909 0.640199 0.653904
O O10 0.433905 0.351198 0.055157
O O11 0.287826 0.417110 0.000000
#
# Coordination Sequence:
#
# PCOD9546068 Si02
#       5
#    16  16  16  16  16
#     4  12  25  38  64  95 128 161 207 255 305 368
#     4  11  22  37  59  86 116 157 214 269 320 368
#     4  11  24  39  60  88 117 157 211 269 323 365
#     4  11  26  43  59  82 122 174 216 255 310 374
#     4   9  20  42  72 103 132 160 193 248 321 379
#
# _framework density 19.149842
#
# number of rings (size 3 to 8) (size 9 to 14) (size 15 to 20)
#    0.000    1.200    2.000    4.200    8.400    5.200 
#    0.000    0.000    0.000    0.000    0.000    1.400 
#    0.000    0.000    0.000    0.000    0.000    0.000 
#
# Total GULP energy -223847.341876 kJ/mol
# GULP energy per Si atom -5596.183547 kJ/mol
# Density = 1.910626 g / cm^3
# Si number density = 19.149842 Si / 1000 Ang^3
#
#
#
# Elastic Constant Matrix: (Units=GPa)
#
#
# Indices 1 2 3 4 5 6 
#
# 1 59.1827 17.5379 22.1044 0.0000 0.0000 2.0786
# 2 17.5379 59.1827 22.1044 0.0000 0.0000 -2.0786
# 3 22.1044 22.1044 67.6258 0.0000 0.0000 0.0000
# 4 0.0000 0.0000 0.0000 18.1624 0.0000 0.0000
# 5 0.0000 0.0000 0.0000 0.0000 18.1624 0.0000
# 6 2.0786 -2.0786 0.0000 0.0000 0.0000 7.7999
#
#
#
# Elastic Compliance Matrix: (Units=1/GPa)
#
#
# Indices 1 2 3 4 5 6 
#
# 1 0.020364 -0.004305 -0.005249 0.000000 0.000000 -0.006574
# 2 -0.004305 0.020364 -0.005249 0.000000 0.000000 0.006574
# 3 -0.005249 -0.005249 0.018219 0.000000 0.000000 0.000000
# 4 0.000000 0.000000 0.000000 0.055059 0.000000 0.000000
# 5 0.000000 0.000000 0.000000 0.000000 0.055059 0.000000
# 6 -0.006574 0.006574 0.000000 0.000000 0.000000 0.131710
#
#
# Mechanical properties :
#
#
# Convention : Reuss Voigt Hill
#
# Bulk Modulus (GPa) = 34.08274 34.38714 34.23494
# Shear Modulus (GPa) = 14.69895 17.10791 15.90343
#
# Velocity S-wave (km/s) = 2.77352 2.99217 2.88492
# Velocity P-wave (km/s) = 5.30029 5.47114 5.38639
#
# Compressibility (1/GPa) = 0.02934037
#
# Stress axis : x y z
#
# Youngs Moduli (GPa) = 49.10647 49.10647 54.88862
#
# Poissons Ratio (x) = 0.21140 0.28812
# Poissons Ratio (y) = 0.21140 0.28812
# Poissons Ratio (z) = 0.25776 0.25776
#
# Static dielectric constant tensor:
#      x y z
#    x 1.666890 0.000000 0.000000 
#    y 0.000000 1.666890 0.000000 
#    z 0.000000 0.000000 1.646070 
# 
# From -- ./inp_files/6486.got.cif
#   From: 2010.05.17/outbox.cif.g08.bks.cpg/sg87_4_cif.got.tgz:6486.got - 2010.06.03 19:07:00.
