data_PCOD9546942
_publ_section_title
;
Structure prediction by ZEFSAII (Michael W. Deem and Ramdas Pophale) SiO2 
 PCOD9546942
Probable space group: P 4 2 2
;
_chemical_formula_sum "Si O2"
_cell_formula_units_Z 48
_cell_length_a 10.641758
_cell_length_b 10.641758
_cell_length_c 24.442337
_cell_angle_alpha 90.000000
_cell_angle_beta 90.000000
_cell_angle_gamma 90.000000
_cell_volume 2768.021664
_symmetry_space_group_name_H-M "P 4 2 2"
_symmetry_group_IT_number 89
_symmetry_cell_setting 'tetragonal'
loop_
_space_group_symop_operation_xyz
x,y,z
-y,x,z
-x,-y,z
y,-x,z
x,-y,-z
-x,y,-z
y,x,-z
-y,-x,-z
loop_
_atom_site_type_symbol
_atom_site_label
_atom_site_fract_x
_atom_site_fract_y
_atom_site_fract_z
Si Si1 0.986891 0.347893 0.592037
Si Si2 0.318246 0.403120 0.673914
Si Si3 0.999309 0.213806 0.941074
Si Si4 0.711311 0.257557 0.559167
Si Si5 0.211768 0.997866 0.177490
Si Si6 0.357731 0.048161 0.286556
O O1 0.850897 0.304534 0.573154
O O2 0.000000 0.500000 0.589959
O O3 0.105418 0.294277 0.558479
O O4 0.999769 0.305103 0.655366
O O5 0.449485 0.335240 0.685638
O O6 0.292911 0.380194 0.609303
O O7 0.199099 0.353841 0.707144
O O8 0.998231 0.279854 0.881923
O O9 0.879597 0.119626 0.941078
O O10 0.000000 0.282055 0.000000
O O11 0.683846 0.316155 0.500000
O O12 0.292670 0.001677 0.231897
O O13 0.121436 0.119458 0.178811
O O14 0.500000 0.000000 0.285272
#
# Coordination Sequence:
#
# PCOD9546942 Si02
#       6
#     8   8   8   8   8   8
#     4  10  23  39  54  76 104 137 171 212 267 323
#     4  10  22  38  55  75  98 129 172 216 259 307
#     4   7  10  20  38  63  98 133 162 195 243 296
#     4  11  22  37  58  78 102 133 169 211 262 321
#     4   9  18  28  46  77 103 129 169 211 244 300
#     4  10  21  34  53  70 101 137 167 202 263 308
#
# _framework density 17.340906
#
# number of rings (size 3 to 8) (size 9 to 14) (size 15 to 20)
#    0.000    2.500    0.000    5.000    7.000    3.667 
#    0.000    1.667    0.000    0.500    0.000    0.000 
#    0.000    0.000    0.000    0.000    0.333    0.000 
#
# Total GULP energy -267447.685594 kJ/mol
# GULP energy per Si atom -5571.826783 kJ/mol
# Density = 1.730144 g / cm^3
# Si number density = 17.340906 Si / 1000 Ang^3
#
#
#
# Elastic Constant Matrix: (Units=GPa)
#
#
# Indices 1 2 3 4 5 6 
#
# 1 33.8342 20.5338 12.4837 0.0000 0.0000 0.0000
# 2 20.5338 33.8341 12.4837 0.0000 0.0000 0.0000
# 3 12.4837 12.4837 115.0237 0.0000 0.0000 0.0000
# 4 0.0000 0.0000 0.0000 -1.1922 0.0000 0.0000
# 5 0.0000 0.0000 0.0000 0.0000 -1.1918 0.0000
# 6 0.0000 0.0000 0.0000 0.0000 0.0000 3.7834
#
#
#
# Elastic Compliance Matrix: (Units=1/GPa)
#
#
# Indices 1 2 3 4 5 6 
#
# 1 0.047272 -0.027914 -0.002101 0.000000 0.000000 0.000000
# 2 -0.027914 0.047272 -0.002101 0.000000 0.000000 0.000000
# 3 -0.002101 -0.002101 0.009150 0.000000 0.000000 0.000000
# 4 0.000000 0.000000 0.000000 -0.838780 0.000000 0.000000
# 5 0.000000 0.000000 0.000000 0.000000 -0.839070 0.000000
# 6 0.000000 0.000000 0.000000 0.000000 0.000000 0.264315
#
#
# Mechanical properties :
#
#
# Convention : Reuss Voigt Hill
#
# Bulk Modulus (GPa) = 25.34078 30.41049 27.87564
# Shear Modulus (GPa) = -4.05694 9.42593 2.68450
#
# Velocity S-wave (km/s) = -1.53121 2.33398 1.24557
# Velocity P-wave (km/s) = 3.39395 4.98379 4.26363
#
# Compressibility (1/GPa) = 0.03946208
#
# Stress axis : x y z
#
# Youngs Moduli (GPa) = 21.15424 21.15416 109.29086
#
# Poissons Ratio (x) = 0.59050 0.22961
# Poissons Ratio (y) = 0.59050 0.22961
# Poissons Ratio (z) = 0.04444 0.04444
#
# Static dielectric constant tensor:
#      x y z
#    x 1.590070 0.000000 0.000000 
#    y 0.000000 1.590070 0.000000 
#    z 0.000000 0.000000 1.652210 
# 
# From -- ./inp_files/2577.got.cif
#   From: 2010.05.17/outbox.cif.g08.bks.cpg/sg89_2_cif.got.tgz:2577.got - 2010.06.03 19:15:31.
