data_PCOD9546297
_publ_section_title
;
Structure prediction by ZEFSAII (Michael W. Deem and Ramdas Pophale) SiO2 
 PCOD9546297
Probable space group: I 41/A
;
_chemical_formula_sum "Si O2"
_cell_formula_units_Z 112
_cell_length_a 31.458941
_cell_length_b 31.458941
_cell_length_c 5.544078
_cell_angle_alpha 90.000000
_cell_angle_beta 90.000000
_cell_angle_gamma 90.000000
_cell_volume 5486.779781
_symmetry_space_group_name_H-M "I 41/A"
_symmetry_group_IT_number 88
_space_group.IT_coordinate_system_code '2'
_symmetry_cell_setting 'tetragonal'
loop_
_space_group_symop_operation_xyz
x,y,z
3/4-y,1/4+x,1/4+z
-x,1/2-y,z
1/4+y,1/4-x,1/4+z
-x,-y,-z
1/4+y,3/4-x,3/4-z
x,1/2+y,-z
3/4-y,3/4+x,3/4-z
1/2+x,1/2+y,1/2+z
1/4-y,3/4+x,3/4+z
1/2-x,-y,1/2+z
3/4+y,3/4-x,3/4+z
1/2-x,1/2-y,1/2-z
3/4+y,1/4-x,1/4-z
1/2+x,y,1/2-z
1/4-y,1/4+x,1/4-z
loop_
_atom_site_type_symbol
_atom_site_label
_atom_site_fract_x
_atom_site_fract_y
_atom_site_fract_z
Si Si1 0.019014 0.035767 0.749291
Si Si2 0.567880 0.739329 0.117612
Si Si3 0.614730 0.671686 0.380897
Si Si4 0.741539 0.681728 0.885009
Si Si5 0.393964 0.596129 0.362988
Si Si6 0.581431 0.078382 0.132217
Si Si7 0.467713 0.878159 0.491966
O O1 0.053017 0.056925 0.572499
O O2 0.971218 0.020986 0.685249
O O3 0.013101 0.075854 0.930190
O O4 0.042886 0.997644 0.885184
O O5 0.531551 0.705820 0.046514
O O6 0.593400 0.717335 0.334640
O O7 0.595025 0.750584 0.881471
O O8 0.637368 0.665643 0.637618
O O9 0.577211 0.636249 0.367900
O O10 0.642455 0.666230 0.140445
O O11 0.704765 0.646981 0.875622
O O12 0.787968 0.663101 0.940505
O O13 0.350070 0.622882 0.345049
O O14 0.550447 0.115031 0.239757
#
# Coordination Sequence:
#
# PCOD9546297 Si02
#       7
#    16  16  16  16  16  16  16
#     4  10  19  39  58  90 129 157 206 262 319 370
#     4   9  18  36  56  80 117 164 219 270 312 368
#     4  10  21  39  59  86 121 164 212 256 311 373
#     4  10  23  37  62  97 123 165 207 265 323 381
#     4  11  23  42  65  92 124 165 211 255 322 391
#     4  10  21  39  66  89 126 163 209 265 323 385
#     4   9  18  36  58  82 118 165 206 257 314 372
#
# _framework density 20.412703
#
# number of rings (size 3 to 8) (size 9 to 14) (size 15 to 20)
#    0.000    2.143    1.429    1.286    2.000    0.000 
#   12.857    1.429    0.000    3.429    3.714    0.000 
#    0.000    0.000    0.000    0.000    0.000    0.000 
#
# Total GULP energy -311971.983073 kJ/mol
# GULP energy per Si atom -5570.928269 kJ/mol
# Density = 2.036624 g / cm^3
# Si number density = 20.412703 Si / 1000 Ang^3
#
#
#
# Elastic Constant Matrix: (Units=GPa)
#
#
# Indices 1 2 3 4 5 6 
#
# 1 103.4856 54.1806 25.8705 0.0000 0.0000 5.7382
# 2 54.1806 103.4856 25.8705 0.0000 0.0000 -5.7382
# 3 25.8705 25.8705 87.4590 0.0000 0.0000 0.0000
# 4 0.0000 0.0000 0.0000 23.6300 0.0000 0.0000
# 5 0.0000 0.0000 0.0000 0.0000 23.6300 0.0000
# 6 5.7382 -5.7382 0.0000 0.0000 0.0000 38.1129
#
#
#
# Elastic Compliance Matrix: (Units=1/GPa)
#
#
# Indices 1 2 3 4 5 6 
#
# 1 0.014021 -0.006997 -0.002078 0.000000 0.000000 -0.003164
# 2 -0.006997 0.014021 -0.002078 0.000000 0.000000 0.003164
# 3 -0.002078 -0.002078 0.012663 0.000000 0.000000 0.000000
# 4 0.000000 0.000000 0.000000 0.042319 0.000000 0.000000
# 5 0.000000 0.000000 0.000000 0.000000 0.042319 0.000000
# 6 -0.003164 0.003164 0.000000 0.000000 0.000000 0.027191
#
#
# Mechanical properties :
#
#
# Convention : Reuss Voigt Hill
#
# Bulk Modulus (GPa) = 54.34589 56.25260 55.29925
# Shear Modulus (GPa) = 27.62831 29.64183 28.63507
#
# Velocity S-wave (km/s) = 3.68297 3.81481 3.74947
# Velocity P-wave (km/s) = 6.69082 6.85720 6.77452
#
# Compressibility (1/GPa) = 0.01840065
#
# Stress axis : x y z
#
# Youngs Moduli (GPa) = 71.31931 71.31931 78.96914
#
# Poissons Ratio (x) = 0.49903 0.16408
# Poissons Ratio (y) = 0.49903 0.16408
# Poissons Ratio (z) = 0.14819 0.14819
#
# Static dielectric constant tensor:
#      x y z
#    x 1.750010 0.000000 0.000000 
#    y 0.000000 1.750010 0.000000 
#    z 0.000000 0.000000 1.885840 
# 
# From -- ./inp_files/794.got.cif
#   From: 2010.05.17/outbox.cif.g08.bks.cpg/sg88_1_cif.got.tgz:794.got - 2010.06.03 19:11:41.
