data_PCOD9546248
_publ_section_title
;
Structure prediction by ZEFSAII (Michael W. Deem and Ramdas Pophale) SiO2 
 PCOD9546248
Probable space group: I 41/A
;
_chemical_formula_sum "Si O2"
_cell_formula_units_Z 72
_cell_length_a 16.590140
_cell_length_b 16.590140
_cell_length_c 13.086718
_cell_angle_alpha 90.000000
_cell_angle_beta 90.000000
_cell_angle_gamma 90.000000
_cell_volume 3601.893321
_symmetry_space_group_name_H-M "I 41/A"
_symmetry_group_IT_number 88
_space_group.IT_coordinate_system_code '2'
_symmetry_cell_setting 'tetragonal'
loop_
_space_group_symop_operation_xyz
x,y,z
3/4-y,1/4+x,1/4+z
-x,1/2-y,z
1/4+y,1/4-x,1/4+z
-x,-y,-z
1/4+y,3/4-x,3/4-z
x,1/2+y,-z
3/4-y,3/4+x,3/4-z
1/2+x,1/2+y,1/2+z
1/4-y,3/4+x,3/4+z
1/2-x,-y,1/2+z
3/4+y,3/4-x,3/4+z
1/2-x,1/2-y,1/2-z
3/4+y,1/4-x,1/4-z
1/2+x,y,1/2-z
1/4-y,1/4+x,1/4-z
loop_
_atom_site_type_symbol
_atom_site_label
_atom_site_fract_x
_atom_site_fract_y
_atom_site_fract_z
Si Si1 0.141719 0.306647 0.002105
Si Si2 0.055142 0.453232 0.080878
Si Si3 0.500000 0.250000 0.104154
Si Si4 0.455156 0.004272 0.107330
Si Si5 0.352425 0.651476 0.973194
O O1 0.125978 0.399279 0.032013
O O2 0.144231 0.253216 0.104685
O O3 0.218549 0.275400 0.937450
O O4 0.069348 0.282266 0.928145
O O5 0.085031 0.521594 0.157654
O O6 0.000000 0.500000 0.000000
O O7 0.576047 0.283479 0.041550
O O8 0.389656 0.072361 0.079961
O O9 0.409889 0.928644 0.159873
O O10 0.500000 0.000000 0.000000
#
# Coordination Sequence:
#
# PCOD9546248 Si02
#       5
#    16  16   8  16  16
#     4  10  21  36  64  91 129 161 209 263 324 389
#     4  11  21  37  63  98 129 164 209 267 333 393
#     4  10  18  39  65  94 122 172 218 264 322 394
#     4  10  24  46  64  94 132 173 223 270 325 398
#     4  10  23  41  66  95 130 171 219 273 329 393
#
# _framework density 19.989487
#
# number of rings (size 3 to 8) (size 9 to 14) (size 15 to 20)
#    0.000    1.778    2.222    1.333    6.222    3.556 
#    4.000    1.111    0.000    0.000    0.000    0.000 
#    0.000    0.000    0.000    0.000    0.000    0.000 
#
# Total GULP energy -200472.886005 kJ/mol
# GULP energy per Si atom -5568.691278 kJ/mol
# Density = 1.994399 g / cm^3
# Si number density = 19.989487 Si / 1000 Ang^3
#
#
#
# Elastic Constant Matrix: (Units=GPa)
#
#
# Indices 1 2 3 4 5 6 
#
# 1 98.6590 41.3473 36.8474 0.0000 0.0000 6.3086
# 2 41.3473 98.6590 36.8474 0.0000 0.0000 -6.3086
# 3 36.8474 36.8474 107.6297 0.0000 0.0000 0.0000
# 4 0.0000 0.0000 0.0000 18.9585 0.0000 0.0000
# 5 0.0000 0.0000 0.0000 0.0000 18.9585 0.0000
# 6 6.3086 -6.3086 0.0000 0.0000 0.0000 29.1580
#
#
#
# Elastic Compliance Matrix: (Units=1/GPa)
#
#
# Indices 1 2 3 4 5 6 
#
# 1 0.013517 -0.004804 -0.002983 0.000000 0.000000 -0.003964
# 2 -0.004804 0.013517 -0.002983 0.000000 0.000000 0.003964
# 3 -0.002983 -0.002983 0.011333 0.000000 0.000000 0.000000
# 4 0.000000 0.000000 0.000000 0.052747 0.000000 0.000000
# 5 0.000000 0.000000 0.000000 0.000000 0.052747 0.000000
# 6 -0.003964 0.003964 0.000000 0.000000 0.000000 0.036011
#
#
# Mechanical properties :
#
#
# Convention : Reuss Voigt Hill
#
# Bulk Modulus (GPa) = 59.42665 59.44801 59.43733
# Shear Modulus (GPa) = 24.15220 26.07538 25.11379
#
# Velocity S-wave (km/s) = 3.47975 3.61564 3.54835
# Velocity P-wave (km/s) = 6.77779 6.87275 6.82543
#
# Compressibility (1/GPa) = 0.01682747
#
# Stress axis : x y z
#
# Youngs Moduli (GPa) = 73.98173 73.98173 88.23438
#
# Poissons Ratio (x) = 0.35543 0.26318
# Poissons Ratio (y) = 0.35543 0.26318
# Poissons Ratio (z) = 0.22067 0.22067
#
# Static dielectric constant tensor:
#      x y z
#    x 1.726250 0.000000 0.000000 
#    y 0.000000 1.726250 0.000000 
#    z 0.000000 0.000000 1.750090 
# 
# From -- ./inp_files/2418.got.cif
#   From: 2010.05.17/outbox.cif.g08.bks.cpg/sg88_2_cif.got.tgz:2418.got - 2010.06.03 19:11:41.
