data_PCOD9546499
_publ_section_title
;
Structure prediction by ZEFSAII (Michael W. Deem and Ramdas Pophale) SiO2 
 PCOD9546499
Probable space group: I 41/A
;
_chemical_formula_sum "Si O2"
_cell_formula_units_Z 60
_cell_length_a 12.241391
_cell_length_b 12.241391
_cell_length_c 18.520935
_cell_angle_alpha 90.000000
_cell_angle_beta 90.000000
_cell_angle_gamma 90.000000
_cell_volume 2775.392736
_symmetry_space_group_name_H-M "I 41/A"
_symmetry_group_IT_number 88
_space_group.IT_coordinate_system_code '2'
_symmetry_cell_setting 'tetragonal'
loop_
_space_group_symop_operation_xyz
x,y,z
3/4-y,1/4+x,1/4+z
-x,1/2-y,z
1/4+y,1/4-x,1/4+z
-x,-y,-z
1/4+y,3/4-x,3/4-z
x,1/2+y,-z
3/4-y,3/4+x,3/4-z
1/2+x,1/2+y,1/2+z
1/4-y,3/4+x,3/4+z
1/2-x,-y,1/2+z
3/4+y,3/4-x,3/4+z
1/2-x,1/2-y,1/2-z
3/4+y,1/4-x,1/4-z
1/2+x,y,1/2-z
1/4-y,1/4+x,1/4-z
loop_
_atom_site_type_symbol
_atom_site_label
_atom_site_fract_x
_atom_site_fract_y
_atom_site_fract_z
Si Si1 0.876861 0.256919 0.487200
Si Si2 0.347665 0.568730 0.759190
Si Si3 0.865268 0.942624 0.846287
Si Si4 0.500000 0.750000 0.125000
Si Si5 0.000000 0.750000 0.982045
O O1 0.800412 0.150093 0.495991
O O2 0.799170 0.333697 0.440631
O O3 0.000000 0.250000 0.456261
O O4 0.906156 0.291479 0.570193
O O5 0.257043 0.565104 0.818934
O O6 0.302905 0.612752 0.682336
O O7 0.433256 0.663215 0.778918
O O8 0.926819 0.834556 0.815650
#
# Coordination Sequence:
#
# PCOD9546499 Si02
#       5
#    16  16  16   4   8
#     4   9  22  43  64  95 133 177 220 282 340 396
#     4  11  23  40  64  96 128 173 221 275 337 405
#     4  11  23  40  64  96 128 173 221 275 337 405
#     4   8  20  44  70  90 136 176 222 284 328 424
#     4  10  21  42  59  87 130 160 219 270 321 384
#
# _framework density 21.618561
#
# number of rings (size 3 to 8) (size 9 to 14) (size 15 to 20)
#    0.800    1.067    0.000    4.800    3.733    1.067 
#   14.400    0.000    0.000    0.000    0.000    0.000 
#    0.000    0.000    0.000    0.000    0.000    0.000 
#
# Total GULP energy -167292.735439 kJ/mol
# GULP energy per Si atom -5576.424515 kJ/mol
# Density = 2.156936 g / cm^3
# Si number density = 21.618561 Si / 1000 Ang^3
#
#
#
# Elastic Constant Matrix: (Units=GPa)
#
#
# Indices 1 2 3 4 5 6 
#
# 1 116.7063 30.4636 14.0509 0.0000 0.0000 -1.2703
# 2 30.4636 116.7063 14.0509 0.0000 0.0000 1.2703
# 3 14.0509 14.0509 57.4598 0.0000 0.0000 0.0000
# 4 0.0000 0.0000 0.0000 16.6223 0.0000 0.0000
# 5 0.0000 0.0000 0.0000 0.0000 16.6223 0.0000
# 6 -1.2703 1.2703 0.0000 0.0000 0.0000 7.9419
#
#
#
# Elastic Compliance Matrix: (Units=1/GPa)
#
#
# Indices 1 2 3 4 5 6 
#
# 1 0.009389 -0.002261 -0.001743 0.000000 0.000000 0.001863
# 2 -0.002261 0.009389 -0.001743 0.000000 0.000000 -0.001863
# 3 -0.001743 -0.001743 0.018256 0.000000 0.000000 0.000000
# 4 0.000000 0.000000 0.000000 0.060160 0.000000 0.000000
# 5 0.000000 0.000000 0.000000 0.000000 0.060160 0.000000
# 6 0.001863 -0.001863 0.000000 0.000000 0.000000 0.126510
#
#
# Mechanical properties :
#
#
# Convention : Reuss Voigt Hill
#
# Bulk Modulus (GPa) = 39.15515 45.33368 42.24442
# Shear Modulus (GPa) = 16.45431 23.72445 20.08938
#
# Velocity S-wave (km/s) = 2.76183 3.31631 3.05169
# Velocity P-wave (km/s) = 5.32179 5.97321 5.65688
#
# Compressibility (1/GPa) = 0.02553942
#
# Stress axis : x y z
#
# Youngs Moduli (GPa) = 106.50897 106.50897 54.77677
#
# Poissons Ratio (x) = 0.24084 0.09547
# Poissons Ratio (y) = 0.24084 0.09547
# Poissons Ratio (z) = 0.18564 0.18564
#
# Static dielectric constant tensor:
#      x y z
#    x 1.837730 0.000000 0.000000 
#    y 0.000000 1.837730 0.000000 
#    z 0.000000 0.000000 1.772140 
# 
# From -- ./inp_files/4448.got.cif
#   From: 2010.05.17/outbox.cif.g08.bks.cpg/sg88_3_cif.got.tgz:4448.got - 2010.06.03 19:11:41.
