data_PCOD9546177
_publ_section_title
;
Structure prediction by ZEFSAII (Michael W. Deem and Ramdas Pophale) SiO2 
 PCOD9546177
Probable space group: I 4/M
;
_chemical_formula_sum "Si O2"
_cell_formula_units_Z 52
_cell_length_a 21.000000
_cell_length_b 21.000000
_cell_length_c 15.000000
_cell_angle_alpha 90.000000
_cell_angle_beta 90.000000
_cell_angle_gamma 90.000000
_cell_volume 6615.000000
_symmetry_space_group_name_H-M "I 4/M"
_symmetry_group_IT_number 87
_symmetry_cell_setting 'tetragonal'
loop_
_space_group_symop_operation_xyz
x,y,z
-y,x,z
-x,-y,z
y,-x,z
-x,-y,-z
y,-x,-z
x,y,-z
-y,x,-z
1/2+x,1/2+y,1/2+z
1/2-y,1/2+x,1/2+z
1/2-x,1/2-y,1/2+z
1/2+y,1/2-x,1/2+z
1/2-x,1/2-y,1/2-z
1/2+y,1/2-x,1/2-z
1/2+x,1/2+y,1/2-z
1/2-y,1/2+x,1/2-z
loop_
_atom_site_type_symbol
_atom_site_label
_atom_site_fract_x
_atom_site_fract_y
_atom_site_fract_z
Si Si1 0.628738 0.222041 0.603214
Si Si2 0.798157 0.476396 0.604171
Si Si3 0.101110 0.534619 0.247436
Si Si4 0.409814 0.653281 0.690601
Si Si5 0.904540 0.950846 0.000000
Si Si6 0.800296 0.411512 0.108954
Si Si7 0.451421 0.307702 0.251899
O O1 0.640826 0.241756 0.500000
O O2 0.553949 0.201538 0.607043
O O3 0.630171 0.281861 0.670787
O O4 0.675381 0.162082 0.621742
O O5 0.798309 0.457989 0.500000
O O6 0.857314 0.453419 0.663772
O O7 0.737050 0.451438 0.659300
O O8 0.077962 0.461641 0.250637
O O9 0.144113 0.548548 0.160002
O O10 0.432326 0.631045 0.591380
O O11 0.474537 0.667870 0.747269
O O12 0.365407 0.598417 0.733197
O O13 0.973447 0.916982 0.000000
O O14 0.736714 0.430566 0.166743
O O15 0.795675 0.421677 0.000000
#
# Coordination Sequence:
#
# PCOD9546177 Si02
#       7
#    16  16  16  16   8  16  16
#     4   9  17  30  54  75 102 145 184 216 271 332
#     4   9  18  32  49  75 111 142 175 219 273 337
#     4  10  19  31  52  82 110 140 182 230 283 333
#     4  11  20  34  55  86 119 146 180 227 292 342
#     4  11  20  30  52  90 128 152 169 221 293 372
#     4  10  21  40  56  76 107 153 198 233 268 327
#     4  10  23  35  55  83 111 147 187 233 281 342
#
# _framework density 7.8609220000000004
#
# number of rings (size 3 to 8) (size 9 to 14) (size 15 to 20)
#    0.000    2.077    3.846    0.000    2.154    1.538 
#    0.000    2.308    0.000    0.000    0.000    1.077 
#    0.000    0.000    0.000    0.000    0.000    0.000 
#
# Total GULP energy -289672.920823 kJ/mol
# GULP energy per Si atom -5570.633093 kJ/mol
# Density = 0.784303 g / cm^3
# Si number density = 7.860922 Si / 1000 Ang^3
#
#
#
# Elastic Constant Matrix: (Units=GPa)
#
#
# Indices 1 2 3 4 5 6 
#
# 1 94.9149 51.6230 45.8210 0.0000 0.0000 5.3072
# 2 51.6230 94.9149 45.8210 0.0000 0.0000 -5.3072
# 3 45.8210 45.8210 114.6950 0.0000 0.0000 0.0000
# 4 0.0000 0.0000 0.0000 23.0101 0.0000 0.0000
# 5 0.0000 0.0000 0.0000 0.0000 23.0101 0.0000
# 6 5.3072 -5.3072 0.0000 0.0000 0.0000 32.4455
#
#
#
# Elastic Compliance Matrix: (Units=1/GPa)
#
#
# Indices 1 2 3 4 5 6 
#
# 1 0.016581 -0.007484 -0.003634 0.000000 0.000000 -0.003936
# 2 -0.007484 0.016581 -0.003634 0.000000 0.000000 0.003936
# 3 -0.003634 -0.003634 0.011623 0.000000 0.000000 0.000000
# 4 0.000000 0.000000 0.000000 0.043459 0.000000 0.000000
# 5 0.000000 0.000000 0.000000 0.000000 0.043459 0.000000
# 6 -0.003936 0.003936 0.000000 0.000000 0.000000 0.032109
#
#
# Mechanical properties :
#
#
# Convention : Reuss Voigt Hill
#
# Bulk Modulus (GPa) = 65.44736 65.67274 65.56005
# Shear Modulus (GPa) = 25.20057 26.44378 25.82218
#
# Velocity S-wave (km/s) = 4.00797 4.10564 4.05710
# Velocity P-wave (km/s) = 7.94588 8.02106 7.98356
#
# Compressibility (1/GPa) = 0.01527946
#
# Stress axis : x y z
#
# Youngs Moduli (GPa) = 60.31158 60.31158 86.03951
#
# Poissons Ratio (x) = 0.45135 0.31269
# Poissons Ratio (y) = 0.45135 0.31269
# Poissons Ratio (z) = 0.21919 0.21919
#
# Static dielectric constant tensor:
#      x y z
#    x 1.541500 0.000000 0.000000 
#    y 0.000000 1.541500 0.000000 
#    z 0.000000 0.000000 1.506190 
# 
# From -- ./inp_files/3828.got.cif
#   From: 2010.05.17/outbox.ucp.g08.bks.cvg/sg87_2_cif.got.tgz:3828.got - 2010.06.11 10:35:24.
