data_PCOD9546780
_publ_section_title
;
Structure prediction by ZEFSAII (Michael W. Deem and Ramdas Pophale) SiO2 
 PCOD9546780
Probable space group: I 41/A
;
_chemical_formula_sum "Si O2"
_cell_formula_units_Z 80
_cell_length_a 10.815794
_cell_length_b 10.815794
_cell_length_c 30.382528
_cell_angle_alpha 90.000000
_cell_angle_beta 90.000000
_cell_angle_gamma 90.000000
_cell_volume 3554.190656
_symmetry_space_group_name_H-M "I 41/A"
_symmetry_group_IT_number 88
_space_group.IT_coordinate_system_code '2'
_symmetry_cell_setting 'tetragonal'
loop_
_space_group_symop_operation_xyz
x,y,z
3/4-y,1/4+x,1/4+z
-x,1/2-y,z
1/4+y,1/4-x,1/4+z
-x,-y,-z
1/4+y,3/4-x,3/4-z
x,1/2+y,-z
3/4-y,3/4+x,3/4-z
1/2+x,1/2+y,1/2+z
1/4-y,3/4+x,3/4+z
1/2-x,-y,1/2+z
3/4+y,3/4-x,3/4+z
1/2-x,1/2-y,1/2-z
3/4+y,1/4-x,1/4-z
1/2+x,y,1/2-z
1/4-y,1/4+x,1/4-z
loop_
_atom_site_type_symbol
_atom_site_label
_atom_site_fract_x
_atom_site_fract_y
_atom_site_fract_z
Si Si1 0.682764 0.333387 0.865621
Si Si2 0.775702 0.527493 0.696119
Si Si3 0.281094 0.040977 0.040455
Si Si4 0.529065 0.893585 0.334575
Si Si5 0.537079 0.390474 0.560038
O O1 0.657206 0.192805 0.876082
O O2 0.770934 0.386884 0.903211
O O3 0.725512 0.355552 0.815864
O O4 0.828309 0.461341 0.739643
O O5 0.649946 0.455784 0.685942
O O6 0.769981 0.674357 0.703897
O O7 0.271001 0.164960 0.069228
O O8 0.166974 0.945701 0.043848
O O9 0.500000 0.750000 0.321246
O O10 0.546322 0.891757 0.386930
O O11 0.500000 0.250000 0.546068
#
# Coordination Sequence:
#
# PCOD9546780 Si02
#       5
#    16  16  16  16  16
#     4  11  24  44  70  99 138 182 226 285 348 407
#     4  12  26  44  69 104 137 177 233 281 339 410
#     4  12  26  44  69 104 137 177 233 281 339 410
#     4  11  24  44  72 100 138 181 220 284 349 402
#     4  11  23  46  72  96 140 187 223 280 343 399
#
# _framework density 22.508638999999999
#
# number of rings (size 3 to 8) (size 9 to 14) (size 15 to 20)
#    0.000    0.600    4.000    3.000    5.600    4.000 
#    0.000    2.000    0.000    0.000    0.000    0.000 
#    0.000    0.000    0.000    0.000    0.000    0.000 
#
# Total GULP energy -223553.705469 kJ/mol
# GULP energy per Si atom -5588.842637 kJ/mol
# Density = 2.245741 g / cm^3
# Si number density = 22.508639 Si / 1000 Ang^3
#
#
#
# Elastic Constant Matrix: (Units=GPa)
#
#
# Indices 1 2 3 4 5 6 
#
# 1 72.3884 17.4870 -0.4087 0.0000 0.0000 -19.5066
# 2 17.4870 72.3884 -0.4087 0.0000 0.0000 19.5066
# 3 -0.4087 -0.4087 80.7572 0.0000 0.0000 0.0000
# 4 0.0000 0.0000 0.0000 15.5212 0.0000 0.0000
# 5 0.0000 0.0000 0.0000 0.0000 15.5212 0.0000
# 6 -19.5066 19.5066 0.0000 0.0000 0.0000 22.6088
#
#
#
# Elastic Compliance Matrix: (Units=1/GPa)
#
#
# Indices 1 2 3 4 5 6 
#
# 1 0.029103 -0.017976 0.000056 0.000000 0.000000 0.040618
# 2 -0.017976 0.029103 0.000056 0.000000 0.000000 -0.040618
# 3 0.000056 0.000056 0.012383 0.000000 0.000000 0.000000
# 4 0.000000 0.000000 0.000000 0.064428 0.000000 0.000000
# 5 0.000000 0.000000 0.000000 0.000000 0.064428 0.000000
# 6 0.040618 -0.040618 0.000000 0.000000 0.000000 0.114321
#
#
# Mechanical properties :
#
#
# Convention : Reuss Voigt Hill
#
# Bulk Modulus (GPa) = 28.68396 28.76368 28.72382
# Shear Modulus (GPa) = 13.84613 24.65456 19.25034
#
# Velocity S-wave (km/s) = 2.48291 3.31318 2.92763
# Velocity P-wave (km/s) = 4.58159 5.23860 4.92107
#
# Compressibility (1/GPa) = 0.03486269
#
# Stress axis : x y z
#
# Youngs Moduli (GPa) = 34.36119 34.36119 80.75348
#
# Poissons Ratio (x) = 0.61766 -0.00455
# Poissons Ratio (y) = 0.61766 -0.00455
# Poissons Ratio (z) = -0.00194 -0.00194
#
# Static dielectric constant tensor:
#      x y z
#    x 1.862810 0.000000 0.000000 
#    y 0.000000 1.862810 0.000000 
#    z 0.000000 0.000000 1.840140 
# 
# From -- ./inp_files/6338.got.cif
#   From: 2010.05.17/outbox.cif.g08.bks.cpg/sg88_4_cif.got.tgz:6338.got - 2010.06.03 19:11:41.
