data_PCOD9546232
_publ_section_title
;
Structure prediction by ZEFSAII (Michael W. Deem and Ramdas Pophale) SiO2 
 PCOD9546232
Probable space group: I 41/A
;
_chemical_formula_sum "Si O2"
_cell_formula_units_Z 72
_cell_length_a 11.982776
_cell_length_b 11.982776
_cell_length_c 26.653563
_cell_angle_alpha 90.000000
_cell_angle_beta 90.000000
_cell_angle_gamma 90.000000
_cell_volume 3827.103036
_symmetry_space_group_name_H-M "I 41/A"
_symmetry_group_IT_number 88
_space_group.IT_coordinate_system_code '2'
_symmetry_cell_setting 'tetragonal'
loop_
_space_group_symop_operation_xyz
x,y,z
3/4-y,1/4+x,1/4+z
-x,1/2-y,z
1/4+y,1/4-x,1/4+z
-x,-y,-z
1/4+y,3/4-x,3/4-z
x,1/2+y,-z
3/4-y,3/4+x,3/4-z
1/2+x,1/2+y,1/2+z
1/4-y,3/4+x,3/4+z
1/2-x,-y,1/2+z
3/4+y,3/4-x,3/4+z
1/2-x,1/2-y,1/2-z
3/4+y,1/4-x,1/4-z
1/2+x,y,1/2-z
1/4-y,1/4+x,1/4-z
loop_
_atom_site_type_symbol
_atom_site_label
_atom_site_fract_x
_atom_site_fract_y
_atom_site_fract_z
Si Si1 0.267035 0.451797 0.423438
Si Si2 0.826240 0.863019 0.028013
Si Si3 0.500000 0.250000 0.286026
Si Si4 0.838196 0.668626 0.381685
Si Si5 0.987044 0.516993 0.905927
O O1 0.275838 0.436174 0.482794
O O2 0.160050 0.519142 0.405654
O O3 0.381597 0.509423 0.403740
O O4 0.264943 0.330602 0.395980
O O5 0.733302 0.825374 0.067277
O O6 0.919245 0.935161 0.057430
O O7 0.893294 0.765907 0.999698
O O8 0.390405 0.265445 0.319721
O O9 0.861729 0.791441 0.360512
#
# Coordination Sequence:
#
# PCOD9546232 Si02
#       5
#    16  16   8  16  16
#     4  10  19  37  59  85 124 142 195 236 293 357
#     4  10  22  34  60  89 108 155 188 241 297 342
#     4  10  18  33  60  88 126 142 182 230 305 362
#     4  10  24  42  58  78 115 163 203 241 281 334
#     4  10  20  33  54  94 113 151 177 238 300 338
#
# _framework density 18.813186999999999
#
# number of rings (size 3 to 8) (size 9 to 14) (size 15 to 20)
#    0.000    2.000    0.000    5.333    6.222    1.778 
#    0.000    0.000    0.000    0.000    0.000    0.000 
#    0.000    0.000    0.000    0.000    0.000    0.000 
#
# Total GULP energy -201021.520640 kJ/mol
# GULP energy per Si atom -5583.931129 kJ/mol
# Density = 1.877037 g / cm^3
# Si number density = 18.813187 Si / 1000 Ang^3
#
#
#
# Elastic Constant Matrix: (Units=GPa)
#
#
# Indices 1 2 3 4 5 6 
#
# 1 55.7610 30.3330 6.9403 0.0000 0.0000 -0.6104
# 2 30.3330 55.7610 6.9403 0.0000 0.0000 0.6104
# 3 6.9403 6.9403 58.1376 0.0000 0.0000 0.0000
# 4 0.0000 0.0000 0.0000 18.1489 0.0000 0.0000
# 5 0.0000 0.0000 0.0000 0.0000 18.1489 0.0000
# 6 -0.6104 0.6104 0.0000 0.0000 0.0000 28.5231
#
#
#
# Elastic Compliance Matrix: (Units=1/GPa)
#
#
# Indices 1 2 3 4 5 6 
#
# 1 0.025605 -0.013762 -0.001414 0.000000 0.000000 0.000842
# 2 -0.013762 0.025605 -0.001414 0.000000 0.000000 -0.000842
# 3 -0.001414 -0.001414 0.017538 0.000000 0.000000 0.000000
# 4 0.000000 0.000000 0.000000 0.055100 0.000000 0.000000
# 5 0.000000 0.000000 0.000000 0.000000 0.055100 0.000000
# 6 0.000842 -0.000842 0.000000 0.000000 0.000000 0.035095
#
#
# Mechanical properties :
#
#
# Convention : Reuss Voigt Hill
#
# Bulk Modulus (GPa) = 28.11418 28.67630 28.39524
# Shear Modulus (GPa) = 19.29916 21.32727 20.31321
#
# Velocity S-wave (km/s) = 3.20634 3.37060 3.28949
# Velocity P-wave (km/s) = 5.35572 5.51577 5.43633
#
# Compressibility (1/GPa) = 0.03556924
#
# Stress axis : x y z
#
# Youngs Moduli (GPa) = 39.05469 39.05469 57.01868
#
# Poissons Ratio (x) = 0.53747 0.08061
# Poissons Ratio (y) = 0.53747 0.08061
# Poissons Ratio (z) = 0.05522 0.05522
#
# Static dielectric constant tensor:
#      x y z
#    x 1.660000 0.000000 0.000000 
#    y 0.000000 1.660000 0.000000 
#    z 0.000000 0.000000 1.653410 
# 
# From -- ./inp_files/5688.got.cif
#   From: 2010.05.17/outbox.cif.g08.bks.cpg/sg88_3_cif.got.tgz:5688.got - 2010.06.03 19:11:41.
