data_PCOD9546201
_publ_section_title
;
Structure prediction by ZEFSAII (Michael W. Deem and Ramdas Pophale) SiO2 
 PCOD9546201
Probable space group: I 41/A
;
_chemical_formula_sum "Si O2"
_cell_formula_units_Z 128
_cell_length_a 18.871736
_cell_length_b 18.871736
_cell_length_c 17.494491
_cell_angle_alpha 90.000000
_cell_angle_beta 90.000000
_cell_angle_gamma 90.000000
_cell_volume 6230.530355
_symmetry_space_group_name_H-M "I 41/A"
_symmetry_group_IT_number 88
_space_group.IT_coordinate_system_code '2'
_symmetry_cell_setting 'tetragonal'
loop_
_space_group_symop_operation_xyz
x,y,z
3/4-y,1/4+x,1/4+z
-x,1/2-y,z
1/4+y,1/4-x,1/4+z
-x,-y,-z
1/4+y,3/4-x,3/4-z
x,1/2+y,-z
3/4-y,3/4+x,3/4-z
1/2+x,1/2+y,1/2+z
1/4-y,3/4+x,3/4+z
1/2-x,-y,1/2+z
3/4+y,3/4-x,3/4+z
1/2-x,1/2-y,1/2-z
3/4+y,1/4-x,1/4-z
1/2+x,y,1/2-z
1/4-y,1/4+x,1/4-z
loop_
_atom_site_type_symbol
_atom_site_label
_atom_site_fract_x
_atom_site_fract_y
_atom_site_fract_z
Si Si1 0.479828 0.133481 0.874165
Si Si2 0.469768 0.941309 0.273494
Si Si3 0.835803 0.837973 0.005209
Si Si4 0.207108 0.145256 0.256981
Si Si5 0.329846 0.448138 0.375122
Si Si6 0.819846 0.874076 0.274815
Si Si7 0.826062 0.498471 0.614832
Si Si8 0.149561 0.282724 0.308316
O O1 0.422188 0.195524 0.863125
O O2 0.487211 0.087537 0.798275
O O3 0.453831 0.088129 0.946196
O O4 0.389755 0.909452 0.263475
O O5 0.490231 0.909035 0.354409
O O6 0.469739 0.027030 0.268848
O O7 0.792222 0.882445 0.069644
O O8 0.914191 0.834324 0.041963
O O9 0.849527 0.881224 0.927431
O O10 0.237076 0.125140 0.340999
O O11 0.174657 0.078231 0.211952
O O12 0.153743 0.211003 0.259781
O O13 0.277708 0.173327 0.212118
O O14 0.249707 0.466528 0.397882
O O15 0.757047 0.881990 0.214151
O O16 0.810577 0.921626 0.350600
#
# Coordination Sequence:
#
# PCOD9546201 Si02
#       8
#    16  16  16  16  16  16  16  16
#     4   9  20  38  57  76 106 149 187 230 283 341
#     4  10  17  33  57  81 107 144 188 230 288 342
#     4  10  16  29  55  82 110 141 187 236 280 344
#     4  10  20  30  53  82 115 158 185 228 289 351
#     4  11  16  32  50  81 118 144 186 229 285 341
#     4  10  19  32  55  80 108 145 183 236 289 343
#     4  11  16  30  54  81 110 136 180 235 290 341
#     4  10  18  32  52  84 114 147 190 228 283 351
#
# _framework density 20.543997999999998
#
# number of rings (size 3 to 8) (size 9 to 14) (size 15 to 20)
#    0.000    1.875    7.500    0.000    0.000    0.000 
#    4.500    5.625    0.000    3.000    0.000    0.000 
#    0.000    0.000    0.000    0.000    0.000    0.000 
#
# Total GULP energy -356417.194517 kJ/mol
# GULP energy per Si atom -5569.018664 kJ/mol
# Density = 2.049724 g / cm^3
# Si number density = 20.543998 Si / 1000 Ang^3
#
#
#
# Elastic Constant Matrix: (Units=GPa)
#
#
# Indices 1 2 3 4 5 6 
#
# 1 28.4052 4.7633 17.7356 0.0000 0.0000 4.5048
# 2 4.7633 28.4052 17.7356 0.0000 0.0000 -4.5048
# 3 17.7356 17.7356 64.9838 0.0000 0.0000 0.0000
# 4 0.0000 0.0000 0.0000 15.9778 0.0000 0.0000
# 5 0.0000 0.0000 0.0000 0.0000 15.9778 0.0000
# 6 4.5048 -4.5048 0.0000 0.0000 0.0000 9.8488
#
#
#
# Elastic Compliance Matrix: (Units=1/GPa)
#
#
# Indices 1 2 3 4 5 6 
#
# 1 0.046901 -0.004326 -0.011620 0.000000 0.000000 -0.023431
# 2 -0.004326 0.046901 -0.011620 0.000000 0.000000 0.023431
# 3 -0.011620 -0.011620 0.021731 0.000000 0.000000 0.000000
# 4 0.000000 0.000000 0.000000 0.062587 0.000000 0.000000
# 5 0.000000 0.000000 0.000000 0.000000 0.062587 0.000000
# 6 -0.023431 0.023431 0.000000 0.000000 0.000000 0.122971
#
#
# Mechanical properties :
#
#
# Convention : Reuss Voigt Hill
#
# Bulk Modulus (GPa) = 16.55551 22.47370 19.51461
# Shear Modulus (GPa) = 11.39100 13.79821 12.59460
#
# Velocity S-wave (km/s) = 2.35727 2.59442 2.47868
# Velocity P-wave (km/s) = 3.93510 4.46517 4.20849
#
# Compressibility (1/GPa) = 0.06040286
#
# Stress axis : x y z
#
# Youngs Moduli (GPa) = 21.32133 21.32133 46.01697
#
# Poissons Ratio (x) = 0.09223 0.53471
# Poissons Ratio (y) = 0.09223 0.53471
# Poissons Ratio (z) = 0.24775 0.24775
#
# Static dielectric constant tensor:
#      x y z
#    x 1.754680 0.000000 0.000000 
#    y 0.000000 1.754680 0.000000 
#    z 0.000000 0.000000 1.760220 
# 
# From -- ./inp_files/4088.got.cif
#   From: 2010.05.17/outbox.cif.g08.bks.cpg/sg88_3_cif.got.tgz:4088.got - 2010.06.03 19:11:41.
