data_PCOD9546904
_publ_section_title
;
Structure prediction by ZEFSAII (Michael W. Deem and Ramdas Pophale) SiO2 
 PCOD9546904
Probable space group: P 4 2 2
;
_chemical_formula_sum "Si O2"
_cell_formula_units_Z 40
_cell_length_a 15.245017
_cell_length_b 15.245017
_cell_length_c 9.927130
_cell_angle_alpha 90.000000
_cell_angle_beta 90.000000
_cell_angle_gamma 90.000000
_cell_volume 2307.169677
_symmetry_space_group_name_H-M "P 4 2 2"
_symmetry_group_IT_number 89
_symmetry_cell_setting 'tetragonal'
loop_
_space_group_symop_operation_xyz
x,y,z
-y,x,z
-x,-y,z
y,-x,z
x,-y,-z
-x,y,-z
y,x,-z
-y,-x,-z
loop_
_atom_site_type_symbol
_atom_site_label
_atom_site_fract_x
_atom_site_fract_y
_atom_site_fract_z
Si Si1 0.901318 0.773586 0.036806
Si Si2 0.184360 0.316647 0.789299
Si Si3 0.238394 0.898349 0.531303
Si Si4 0.180541 0.317556 0.276498
Si Si5 0.895088 0.501966 0.163127
O O1 0.879532 0.749633 0.189243
O O2 0.871520 0.871520 0.000000
O O3 0.841106 0.714051 0.939308
O O4 0.000000 0.754296 0.000000
O O5 0.122406 0.265870 0.683362
O O6 0.281140 0.278808 0.753538
O O7 0.157843 0.417839 0.782112
O O8 0.144061 0.855940 0.500000
O O9 0.303662 0.845090 0.431418
O O10 0.242860 0.000000 0.500000
O O11 0.151905 0.411805 0.221894
O O12 0.000000 0.500000 0.197750
O O13 0.890772 0.500000 0.000000
#
# Coordination Sequence:
#
# PCOD9546904 Si02
#       5
#     8   8   8   8   8
#     4  10  18  30  47  67  96 130 166 206 250 302
#     4  10  21  35  51  74 104 136 168 214 270 312
#     4  10  20  34  51  73 106 142 176 214 258 310
#     4  10  21  35  51  74 104 136 168 214 270 312
#     4  11  20  31  55  82 102 131 178 223 260 318
#
# _framework density 17.337261000000002
#
# number of rings (size 3 to 8) (size 9 to 14) (size 15 to 20)
#    0.000    1.800    2.000    3.600    0.000    1.200 
#    0.000    2.000    0.000    7.800    0.000    1.400 
#    0.000    4.800    0.000    0.000    0.000    0.000 
#
# Total GULP energy -222951.357120 kJ/mol
# GULP energy per Si atom -5573.783928 kJ/mol
# Density = 1.729780 g / cm^3
# Si number density = 17.337261 Si / 1000 Ang^3
#
#
#
# Elastic Constant Matrix: (Units=GPa)
#
#
# Indices 1 2 3 4 5 6 
#
# 1 89.0133 66.3471 5.8569 0.0000 0.0000 0.0000
# 2 66.3471 89.0096 5.8562 0.0000 0.0000 0.0000
# 3 5.8569 5.8562 47.8994 0.0000 0.0000 0.0000
# 4 0.0000 0.0000 0.0000 17.1263 0.0000 0.0000
# 5 0.0000 0.0000 0.0000 0.0000 17.1268 0.0000
# 6 0.0000 0.0000 0.0000 0.0000 0.0000 18.3239
#
#
#
# Elastic Compliance Matrix: (Units=1/GPa)
#
#
# Indices 1 2 3 4 5 6 
#
# 1 0.025309 -0.018813 -0.000795 0.000000 0.000000 0.000000
# 2 -0.018813 0.025310 -0.000794 0.000000 0.000000 0.000000
# 3 -0.000795 -0.000794 0.021071 0.000000 0.000000 0.000000
# 4 0.000000 0.000000 0.000000 0.058390 0.000000 0.000000
# 5 0.000000 0.000000 0.000000 0.000000 0.058388 0.000000
# 6 0.000000 0.000000 0.000000 0.000000 0.000000 0.054574
#
#
# Mechanical properties :
#
#
# Convention : Reuss Voigt Hill
#
# Bulk Modulus (GPa) = 32.37581 42.44919 37.41250
# Shear Modulus (GPa) = 16.99871 20.37287 18.68579
#
# Velocity S-wave (km/s) = 3.13465 3.43168 3.28652
# Velocity P-wave (km/s) = 5.64057 6.34346 6.00231
#
# Compressibility (1/GPa) = 0.03088726
#
# Stress axis : x y z
#
# Youngs Moduli (GPa) = 39.51186 39.51027 47.45785
#
# Poissons Ratio (x) = 0.74330 0.03771
# Poissons Ratio (y) = 0.74333 0.03769
# Poissons Ratio (z) = 0.03139 0.03137
#
# Static dielectric constant tensor:
#      x y z
#    x 1.610780 0.000000 0.000000 
#    y 0.000000 1.610780 0.000000 
#    z 0.000000 0.000000 1.580640 
# 
# From -- ./inp_files/983.got.cif
#   From: 2010.05.17/outbox.cif.g08.bks.cpg/sg89_1_cif.got.tgz:983.got - 2010.06.03 19:15:31.
