data_PCOD9546485
_publ_section_title
;
Structure prediction by ZEFSAII (Michael W. Deem and Ramdas Pophale) SiO2 
 PCOD9546485
Probable space group: I 41/A
;
_chemical_formula_sum "Si O2"
_cell_formula_units_Z 96
_cell_length_a 23.350960
_cell_length_b 23.350960
_cell_length_c 7.278645
_cell_angle_alpha 90.000000
_cell_angle_beta 90.000000
_cell_angle_gamma 90.000000
_cell_volume 3968.807346
_symmetry_space_group_name_H-M "I 41/A"
_symmetry_group_IT_number 88
_space_group.IT_coordinate_system_code '2'
_symmetry_cell_setting 'tetragonal'
loop_
_space_group_symop_operation_xyz
x,y,z
3/4-y,1/4+x,1/4+z
-x,1/2-y,z
1/4+y,1/4-x,1/4+z
-x,-y,-z
1/4+y,3/4-x,3/4-z
x,1/2+y,-z
3/4-y,3/4+x,3/4-z
1/2+x,1/2+y,1/2+z
1/4-y,3/4+x,3/4+z
1/2-x,-y,1/2+z
3/4+y,3/4-x,3/4+z
1/2-x,1/2-y,1/2-z
3/4+y,1/4-x,1/4-z
1/2+x,y,1/2-z
1/4-y,1/4+x,1/4-z
loop_
_atom_site_type_symbol
_atom_site_label
_atom_site_fract_x
_atom_site_fract_y
_atom_site_fract_z
Si Si1 0.829096 0.484901 0.224349
Si Si2 0.928637 0.720377 0.484045
Si Si3 0.895160 0.880254 0.752539
Si Si4 0.102277 0.454919 0.471713
Si Si5 0.878335 0.278623 0.996972
Si Si6 0.327559 0.146409 0.918043
O O1 0.780637 0.455584 0.354363
O O2 0.861712 0.430499 0.141773
O O3 0.881481 0.516219 0.333244
O O4 0.940052 0.786266 0.436531
O O5 0.957624 0.691040 0.660680
O O6 0.863130 0.701155 0.486833
O O7 0.888025 0.897120 0.538787
O O8 0.962832 0.880508 0.787745
O O9 0.871564 0.820060 0.828185
O O10 0.048165 0.416304 0.413517
O O11 0.152846 0.408721 0.469574
O O12 0.100451 0.509704 0.339901
#
# Coordination Sequence:
#
# PCOD9546485 Si02
#       6
#    16  16  16  16  16  16
#     4  11  24  44  76 103 140 184 235 284 346 418
#     4  10  21  40  67  97 126 180 236 277 330 412
#     4  11  25  45  64 104 137 183 225 288 350 405
#     4  10  21  42  66  99 127 184 220 281 334 408
#     4  11  26  43  69  99 143 179 230 288 348 404
#     4  10  21  42  66  96 132 172 228 273 343 404
#
# _framework density 24.188628000000001
#
# number of rings (size 3 to 8) (size 9 to 14) (size 15 to 20)
#    0.000    1.500    5.000    0.000    4.667    3.000 
#    3.000    0.833    0.000    0.000    0.000    0.000 
#    0.000    0.000    0.000    0.000    0.000    0.000 
#
# Total GULP energy -267781.982917 kJ/mol
# GULP energy per Si atom -5578.791311 kJ/mol
# Density = 2.413357 g / cm^3
# Si number density = 24.188628 Si / 1000 Ang^3
#
#
#
# Elastic Constant Matrix: (Units=GPa)
#
#
# Indices 1 2 3 4 5 6 
#
# 1 135.7236 55.1421 28.5701 0.0000 0.0000 -14.1990
# 2 55.1421 135.7236 28.5701 0.0000 0.0000 14.1990
# 3 28.5701 28.5701 89.9797 0.0000 0.0000 0.0000
# 4 0.0000 0.0000 0.0000 10.5763 0.0000 0.0000
# 5 0.0000 0.0000 0.0000 0.0000 10.5763 0.0000
# 6 -14.1990 14.1990 0.0000 0.0000 0.0000 -3.1459
#
#
#
# Elastic Compliance Matrix: (Units=1/GPa)
#
#
# Indices 1 2 3 4 5 6 
#
# 1 0.005290 0.000500 -0.001838 0.000000 0.000000 -0.021621
# 2 0.000500 0.005290 -0.001838 0.000000 0.000000 0.021621
# 3 -0.001838 -0.001838 0.012281 0.000000 0.000000 0.000000
# 4 0.000000 0.000000 0.000000 0.094551 0.000000 0.000000
# 5 0.000000 0.000000 0.000000 0.000000 0.094551 0.000000
# 6 -0.021621 0.021621 0.000000 0.000000 0.000000 -0.122702
#
#
# Mechanical properties :
#
#
# Convention : Reuss Voigt Hill
#
# Bulk Modulus (GPa) = 60.58023 65.11017 62.84520
# Shear Modulus (GPa) = 49.44779 20.21099 34.82939
#
# Velocity S-wave (km/s) = 4.52625 2.89374 3.79873
# Velocity P-wave (km/s) = 7.23984 6.17585 6.72890
#
# Compressibility (1/GPa) = 0.01650704
#
# Stress axis : x y z
#
# Youngs Moduli (GPa) = 189.03725 189.03725 81.42657
#
# Poissons Ratio (x) = -0.09445 0.14969
# Poissons Ratio (y) = -0.09445 0.14969
# Poissons Ratio (z) = 0.34751 0.34751
#
# Static dielectric constant tensor:
#      x y z
#    x 1.955020 0.000000 0.000000 
#    y 0.000000 1.955020 0.000000 
#    z 0.000000 0.000000 2.028970 
# 
# From -- ./inp_files/1749.got.cif
#   From: 2010.05.17/outbox.cif.g08.bks.cpg/sg88_1_cif.got.tgz:1749.got - 2010.06.03 19:11:41.
