data_PCOD9546052
_publ_section_title
;
Structure prediction by ZEFSAII (Michael W. Deem and Ramdas Pophale) SiO2 
 PCOD9546052
Probable space group: I 4/M
;
_chemical_formula_sum "Si O2"
_cell_formula_units_Z 108
_cell_length_a 15.313286
_cell_length_b 15.313286
_cell_length_c 25.808519
_cell_angle_alpha 90.000000
_cell_angle_beta 90.000000
_cell_angle_gamma 90.000000
_cell_volume 6052.013263
_symmetry_space_group_name_H-M "I 4/M"
_symmetry_group_IT_number 87
_symmetry_cell_setting 'tetragonal'
loop_
_space_group_symop_operation_xyz
x,y,z
-y,x,z
-x,-y,z
y,-x,z
-x,-y,-z
y,-x,-z
x,y,-z
-y,x,-z
1/2+x,1/2+y,1/2+z
1/2-y,1/2+x,1/2+z
1/2-x,1/2-y,1/2+z
1/2+y,1/2-x,1/2+z
1/2-x,1/2-y,1/2-z
1/2+y,1/2-x,1/2-z
1/2+x,1/2+y,1/2-z
1/2-y,1/2+x,1/2-z
loop_
_atom_site_type_symbol
_atom_site_label
_atom_site_fract_x
_atom_site_fract_y
_atom_site_fract_z
Si Si1 0.271039 0.822087 0.794047
Si Si2 0.365867 0.565084 0.000000
Si Si3 0.000000 0.000000 0.184765
Si Si4 0.008867 0.800134 0.781342
Si Si5 0.419318 0.715254 0.170859
Si Si6 0.901933 0.777488 0.389566
Si Si7 0.264355 0.134416 0.136745
Si Si8 0.136465 0.045780 0.938389
O O1 0.250000 0.750000 0.750000
O O2 0.246293 0.916308 0.773310
O O3 0.368269 0.803587 0.813766
O O4 0.208801 0.801901 0.842761
O O5 0.387361 0.460898 0.000000
O O6 0.312054 0.590609 0.051563
O O7 0.108385 0.000787 0.188738
O O8 0.049489 0.823256 0.725713
O O9 0.069612 0.734001 0.814051
O O10 0.501999 0.729082 0.134537
O O11 0.350660 0.651357 0.143008
O O12 0.849676 0.687026 0.381058
O O13 0.220375 0.079802 0.091082
O O14 0.052340 0.105724 0.925522
O O15 0.148719 0.049566 0.000000
#
# Coordination Sequence:
#
# PCOD9546052 Si02
#       8
#    16   8   4  16  16  16  16  16
#     4  11  21  39  54  86 126 162 196 250 299 368
#     4  11  22  44  64  96 117 148 209 277 332 379
#     4  12  20  32  52  96 117 153 192 248 292 348
#     4  12  22  35  60  88 128 164 205 246 304 371
#     4  11  23  38  59  88 124 157 200 248 311 371
#     4  11  24  40  63  88 122 161 202 260 319 370
#     4  11  22  35  58  86 117 161 200 242 300 371
#     4   9  19  35  55  82 116 148 191 249 301 346
#
# _framework density 17.845300000000002
#
# number of rings (size 3 to 8) (size 9 to 14) (size 15 to 20)
#    0.000    1.111    4.444    4.000    1.037    0.296 
#    0.000    0.741    0.000    0.000    0.000    1.037 
#    0.000    0.000    0.000    0.000    0.000    0.000 
#
# Total GULP energy -300981.583615 kJ/mol
# GULP energy per Si atom -5573.733030 kJ/mol
# Density = 1.780468 g / cm^3
# Si number density = 17.845300 Si / 1000 Ang^3
#
#
#
# Elastic Constant Matrix: (Units=GPa)
#
#
# Indices 1 2 3 4 5 6 
#
# 1 89.2771 50.9020 35.0633 0.0000 0.0000 -3.5570
# 2 50.9020 89.2771 35.0633 0.0000 0.0000 3.5570
# 3 35.0633 35.0633 116.2356 0.0000 0.0000 0.0000
# 4 0.0000 0.0000 0.0000 27.1697 0.0000 0.0000
# 5 0.0000 0.0000 0.0000 0.0000 27.1697 0.0000
# 6 -3.5570 3.5570 0.0000 0.0000 0.0000 25.1126
#
#
#
# Elastic Compliance Matrix: (Units=1/GPa)
#
#
# Indices 1 2 3 4 5 6 
#
# 1 0.017581 -0.009180 -0.002534 0.000000 0.000000 0.003791
# 2 -0.009180 0.017581 -0.002534 0.000000 0.000000 -0.003791
# 3 -0.002534 -0.002534 0.010132 0.000000 0.000000 0.000000
# 4 0.000000 0.000000 0.000000 0.036806 0.000000 0.000000
# 5 0.000000 0.000000 0.000000 0.000000 0.036806 0.000000
# 6 0.003791 -0.003791 0.000000 0.000000 0.000000 0.040894
#
#
# Mechanical properties :
#
#
# Convention : Reuss Voigt Hill
#
# Bulk Modulus (GPa) = 59.53143 59.64967 59.59055
# Shear Modulus (GPa) = 25.78681 27.47447 26.63064
#
# Velocity S-wave (km/s) = 3.80547 3.92802 3.86723
# Velocity P-wave (km/s) = 7.26229 7.35330 7.30794
#
# Compressibility (1/GPa) = 0.01679785
#
# Stress axis : x y z
#
# Youngs Moduli (GPa) = 56.87820 56.87820 98.69465
#
# Poissons Ratio (x) = 0.52213 0.25013
# Poissons Ratio (y) = 0.52213 0.25013
# Poissons Ratio (z) = 0.14415 0.14415
#
# Static dielectric constant tensor:
#      x y z
#    x 1.613090 0.000000 0.000000 
#    y 0.000000 1.613090 0.000000 
#    z 0.000000 0.000000 1.652630 
# 
# From -- ./inp_files/5950.got.cif
#   From: 2010.05.17/outbox.cif.g08.bks.cpg/sg87_3_cif.got.tgz:5950.got - 2010.06.03 19:07:00.
