data_PCOD9546324
_publ_section_title
;
Structure prediction by ZEFSAII (Michael W. Deem and Ramdas Pophale) SiO2 
 PCOD9546324
Probable space group: I 41/A
;
_chemical_formula_sum "Si O2"
_cell_formula_units_Z 64
_cell_length_a 17.795241
_cell_length_b 17.795241
_cell_length_c 7.113465
_cell_angle_alpha 90.000000
_cell_angle_beta 90.000000
_cell_angle_gamma 90.000000
_cell_volume 2252.625246
_symmetry_space_group_name_H-M "I 41/A"
_symmetry_group_IT_number 88
_space_group.IT_coordinate_system_code '2'
_symmetry_cell_setting 'tetragonal'
loop_
_space_group_symop_operation_xyz
x,y,z
3/4-y,1/4+x,1/4+z
-x,1/2-y,z
1/4+y,1/4-x,1/4+z
-x,-y,-z
1/4+y,3/4-x,3/4-z
x,1/2+y,-z
3/4-y,3/4+x,3/4-z
1/2+x,1/2+y,1/2+z
1/4-y,3/4+x,3/4+z
1/2-x,-y,1/2+z
3/4+y,3/4-x,3/4+z
1/2-x,1/2-y,1/2-z
3/4+y,1/4-x,1/4-z
1/2+x,y,1/2-z
1/4-y,1/4+x,1/4-z
loop_
_atom_site_type_symbol
_atom_site_label
_atom_site_fract_x
_atom_site_fract_y
_atom_site_fract_z
Si Si1 0.240864 0.186178 0.005220
Si Si2 0.602365 0.760708 0.507100
Si Si3 0.289102 0.402120 0.121163
Si Si4 0.883002 0.849185 0.292814
O O1 0.192555 0.262935 0.007887
O O2 0.237425 0.146765 0.204199
O O3 0.328452 0.187065 0.964553
O O4 0.190341 0.141893 0.848969
O O5 0.578163 0.693064 0.651766
O O6 0.582114 0.724891 0.304493
O O7 0.225816 0.428551 0.975386
O O8 0.350557 0.356352 0.000536
#
# Coordination Sequence:
#
# PCOD9546324 Si02
#       4
#    16  16  16  16
#     4  10  20  34  55  88 117 157 194 247 298 355
#     4   9  20  41  64  83 116 166 207 246 305 363
#     4  12  18  29  52  86 126 156 193 235 297 362
#     4  10  20  34  55  88 117 157 194 247 298 355
#
# _framework density 28.411294999999999
#
# number of rings (size 3 to 8) (size 9 to 14) (size 15 to 20)
#    1.500    0.250    5.000    1.500    0.000    1.000 
#    0.000    2.500    0.000    9.000    0.000    0.000 
#    0.000    0.000    0.000    0.000    0.000    0.000 
#
# Total GULP energy -179053.599013 kJ/mol
# GULP energy per Si atom -5595.424969 kJ/mol
# Density = 2.834663 g / cm^3
# Si number density = 28.411295 Si / 1000 Ang^3
#
#
#
# Elastic Constant Matrix: (Units=GPa)
#
#
# Indices 1 2 3 4 5 6 
#
# 1 118.2511 19.5988 40.8591 0.0000 0.0000 -19.7298
# 2 19.5988 118.2511 40.8591 0.0000 0.0000 19.7298
# 3 40.8591 40.8591 215.0050 0.0000 0.0000 0.0000
# 4 0.0000 0.0000 0.0000 45.9108 0.0000 0.0000
# 5 0.0000 0.0000 0.0000 0.0000 45.9108 0.0000
# 6 -19.7298 19.7298 0.0000 0.0000 0.0000 45.8729
#
#
#
# Elastic Compliance Matrix: (Units=1/GPa)
#
#
# Indices 1 2 3 4 5 6 
#
# 1 0.010209 -0.002034 -0.001554 0.000000 0.000000 0.005266
# 2 -0.002034 0.010209 -0.001554 0.000000 0.000000 -0.005266
# 3 -0.001554 -0.001554 0.005242 0.000000 0.000000 0.000000
# 4 0.000000 0.000000 0.000000 0.021781 0.000000 0.000000
# 5 0.000000 0.000000 0.000000 0.000000 0.021781 0.000000
# 6 0.005266 -0.005266 0.000000 0.000000 0.000000 0.026329
#
#
# Mechanical properties :
#
#
# Convention : Reuss Voigt Hill
#
# Bulk Modulus (GPa) = 65.02959 72.68238 68.85598
# Shear Modulus (GPa) = 45.06174 50.88492 47.97333
#
# Velocity S-wave (km/s) = 3.98684 4.23662 4.11363
# Velocity P-wave (km/s) = 6.64316 7.04058 6.84475
#
# Compressibility (1/GPa) = 0.01537762
#
# Stress axis : x y z
#
# Youngs Moduli (GPa) = 97.95267 97.95267 190.78345
#
# Poissons Ratio (x) = 0.19921 0.29640
# Poissons Ratio (y) = 0.19921 0.29640
# Poissons Ratio (z) = 0.15218 0.15218
#
# Static dielectric constant tensor:
#      x y z
#    x 2.297290 0.000000 0.000000 
#    y 0.000000 2.297290 0.000000 
#    z 0.000000 0.000000 2.125780 
# 
# From -- ./inp_files/565.got.cif
#   From: 2010.05.17/outbox.cif.g08.bks.cpg/sg88_1_cif.got.tgz:565.got - 2010.06.03 19:11:41.
