data_PCOD9546664
_publ_section_title
;
Structure prediction by ZEFSAII (Michael W. Deem and Ramdas Pophale) SiO2 
 PCOD9546664
Probable space group: I 41/A
;
_chemical_formula_sum "Si O2"
_cell_formula_units_Z 56
_cell_length_a 11.245884
_cell_length_b 11.245884
_cell_length_c 20.801291
_cell_angle_alpha 90.000000
_cell_angle_beta 90.000000
_cell_angle_gamma 90.000000
_cell_volume 2630.737337
_symmetry_space_group_name_H-M "I 41/A"
_symmetry_group_IT_number 88
_space_group.IT_coordinate_system_code '2'
_symmetry_cell_setting 'tetragonal'
loop_
_space_group_symop_operation_xyz
x,y,z
3/4-y,1/4+x,1/4+z
-x,1/2-y,z
1/4+y,1/4-x,1/4+z
-x,-y,-z
1/4+y,3/4-x,3/4-z
x,1/2+y,-z
3/4-y,3/4+x,3/4-z
1/2+x,1/2+y,1/2+z
1/4-y,3/4+x,3/4+z
1/2-x,-y,1/2+z
3/4+y,3/4-x,3/4+z
1/2-x,1/2-y,1/2-z
3/4+y,1/4-x,1/4-z
1/2+x,y,1/2-z
1/4-y,1/4+x,1/4-z
loop_
_atom_site_type_symbol
_atom_site_label
_atom_site_fract_x
_atom_site_fract_y
_atom_site_fract_z
Si Si1 0.468023 0.873594 0.471895
Si Si2 0.090023 0.103744 0.398860
Si Si3 0.220400 0.870681 0.414193
Si Si4 0.000000 0.250000 0.734238
O O1 0.500000 0.750000 0.507452
O O2 0.544914 0.862264 0.405060
O O3 0.326143 0.874386 0.465396
O O4 0.500000 0.000000 0.500000
O O5 0.073379 0.163046 0.468166
O O6 0.190771 0.003783 0.392818
O O7 0.967487 0.030716 0.387012
O O8 0.099725 0.814834 0.442016
#
# Coordination Sequence:
#
# PCOD9546664 Si02
#       4
#    16  16  16   8
#     4  10  24  44  67  97 141 177 224 281 342 417
#     4  11  24  45  65 104 133 175 226 284 335 409
#     4  11  24  41  70  94 136 172 226 278 343 400
#     4  12  24  43  70 102 130 185 228 286 338 408
#
# _framework density 21.286809999999999
#
# number of rings (size 3 to 8) (size 9 to 14) (size 15 to 20)
#    0.000    1.143    4.286    2.571   12.000    0.000 
#    0.000    0.000    0.000    0.000    0.000    0.000 
#    0.000    0.000    0.000    0.000    0.000    0.000 
#
# Total GULP energy -156228.272029 kJ/mol
# GULP energy per Si atom -5579.581144 kJ/mol
# Density = 2.123836 g / cm^3
# Si number density = 21.286810 Si / 1000 Ang^3
#
#
#
# Elastic Constant Matrix: (Units=GPa)
#
#
# Indices 1 2 3 4 5 6 
#
# 1 134.4705 52.8379 23.5096 0.0000 0.0000 -0.8739
# 2 52.8379 134.4705 23.5096 0.0000 0.0000 0.8739
# 3 23.5096 23.5096 47.9885 0.0000 0.0000 0.0000
# 4 0.0000 0.0000 0.0000 5.8826 0.0000 0.0000
# 5 0.0000 0.0000 0.0000 0.0000 5.8826 0.0000
# 6 -0.8739 0.8739 0.0000 0.0000 0.0000 22.7461
#
#
#
# Elastic Compliance Matrix: (Units=1/GPa)
#
#
# Indices 1 2 3 4 5 6 
#
# 1 0.009174 -0.003086 -0.002982 0.000000 0.000000 0.000471
# 2 -0.003086 0.009174 -0.002982 0.000000 0.000000 -0.000471
# 3 -0.002982 -0.002982 0.023760 0.000000 0.000000 0.000000
# 4 0.000000 0.000000 0.000000 0.169993 0.000000 0.000000
# 5 0.000000 0.000000 0.000000 0.000000 0.169993 0.000000
# 6 0.000471 -0.000471 0.000000 0.000000 0.000000 0.044000
#
#
# Mechanical properties :
#
#
# Convention : Reuss Voigt Hill
#
# Bulk Modulus (GPa) = 41.65586 57.40484 49.53035
# Shear Modulus (GPa) = 11.05713 21.37375 16.21544
#
# Velocity S-wave (km/s) = 2.28159 3.17217 2.76299
# Velocity P-wave (km/s) = 5.15288 6.35946 5.78770
#
# Compressibility (1/GPa) = 0.02400623
#
# Stress axis : x y z
#
# Youngs Moduli (GPa) = 109.00670 109.00670 42.08700
#
# Poissons Ratio (x) = 0.33643 0.12551
# Poissons Ratio (y) = 0.33643 0.12551
# Poissons Ratio (z) = 0.32508 0.32508
#
# Static dielectric constant tensor:
#      x y z
#    x 1.730960 0.000000 0.000000 
#    y 0.000000 1.730960 0.000000 
#    z 0.000000 0.000000 1.785470 
# 
# From -- ./inp_files/4306.got.cif
#   From: 2010.05.17/outbox.cif.g08.bks.cpg/sg88_3_cif.got.tgz:4306.got - 2010.06.03 19:11:41.
