data_PCOD9546560
_publ_section_title
;
Structure prediction by ZEFSAII (Michael W. Deem and Ramdas Pophale) SiO2 
 PCOD9546560
Probable space group: I 41/A
;
_chemical_formula_sum "Si O2"
_cell_formula_units_Z 100
_cell_length_a 29.481173
_cell_length_b 29.481173
_cell_length_c 5.361571
_cell_angle_alpha 90.000000
_cell_angle_beta 90.000000
_cell_angle_gamma 90.000000
_cell_volume 4659.953468
_symmetry_space_group_name_H-M "I 41/A"
_symmetry_group_IT_number 88
_space_group.IT_coordinate_system_code '2'
_symmetry_cell_setting 'tetragonal'
loop_
_space_group_symop_operation_xyz
x,y,z
3/4-y,1/4+x,1/4+z
-x,1/2-y,z
1/4+y,1/4-x,1/4+z
-x,-y,-z
1/4+y,3/4-x,3/4-z
x,1/2+y,-z
3/4-y,3/4+x,3/4-z
1/2+x,1/2+y,1/2+z
1/4-y,3/4+x,3/4+z
1/2-x,-y,1/2+z
3/4+y,3/4-x,3/4+z
1/2-x,1/2-y,1/2-z
3/4+y,1/4-x,1/4-z
1/2+x,y,1/2-z
1/4-y,1/4+x,1/4-z
loop_
_atom_site_type_symbol
_atom_site_label
_atom_site_fract_x
_atom_site_fract_y
_atom_site_fract_z
Si Si1 0.838912 0.294401 0.260421
Si Si2 0.442802 0.785169 0.737375
Si Si3 0.505291 0.555105 0.989840
Si Si4 0.702713 0.453898 0.713284
Si Si5 0.500000 0.250000 0.875000
Si Si6 0.893848 0.959589 0.528714
Si Si7 0.619757 0.984007 0.537971
O O1 0.892473 0.302454 0.237831
O O2 0.826182 0.268061 0.515231
O O3 0.810517 0.340506 0.260631
O O4 0.822732 0.266605 0.016453
O O5 0.480126 0.806341 0.551738
O O6 0.470776 0.788667 0.989642
O O7 0.500000 0.500000 0.000000
O O8 0.558819 0.566172 0.987212
O O9 0.698080 0.494290 0.907837
O O10 0.684488 0.403842 0.773126
O O11 0.672941 0.472019 0.481347
O O12 0.890562 0.982044 0.805124
O O13 0.894548 0.995914 0.302985
#
# Coordination Sequence:
#
# PCOD9546560 Si02
#       7
#    16  16  16  16   4  16  16
#     4  12  24  40  70  98 129 168 220 270 320 401
#     4   9  22  42  66  94 132 172 211 269 341 389
#     4  12  23  42  66  93 128 176 210 263 333 389
#     4  10  22  40  64  92 127 172 217 268 319 383
#     4   8  18  44  68  82 136 168 202 268 334 408
#     4  11  23  41  64  89 126 169 218 260 329 385
#     4  11  22  40  63  91 125 168 210 274 320 379
#
# _framework density 21.459441999999999
#
# number of rings (size 3 to 8) (size 9 to 14) (size 15 to 20)
#    0.000    1.440    3.200    2.400    4.480    5.120 
#    0.000    1.600    0.000    0.000    0.000    0.000 
#    0.000    0.000    0.000    0.000    0.000    0.000 
#
# Total GULP energy -278870.734281 kJ/mol
# GULP energy per Si atom -5577.414686 kJ/mol
# Density = 2.141060 g / cm^3
# Si number density = 21.459442 Si / 1000 Ang^3
#
#
#
# Elastic Constant Matrix: (Units=GPa)
#
#
# Indices 1 2 3 4 5 6 
#
# 1 66.8479 -22.2796 14.1462 0.0000 0.0000 7.5557
# 2 -22.2796 66.8479 14.1462 0.0000 0.0000 -7.5557
# 3 14.1462 14.1462 102.4391 0.0000 0.0000 0.0000
# 4 0.0000 0.0000 0.0000 11.7757 0.0000 0.0000
# 5 0.0000 0.0000 0.0000 0.0000 11.7757 0.0000
# 6 7.5557 -7.5557 0.0000 0.0000 0.0000 11.5939
#
#
#
# Elastic Compliance Matrix: (Units=1/GPa)
#
#
# Indices 1 2 3 4 5 6 
#
# 1 0.018603 0.005990 -0.003396 0.000000 0.000000 -0.008220
# 2 0.005990 0.018603 -0.003396 0.000000 0.000000 0.008220
# 3 -0.003396 -0.003396 0.010700 0.000000 0.000000 0.000000
# 4 0.000000 0.000000 0.000000 0.084921 0.000000 0.000000
# 5 0.000000 0.000000 0.000000 0.000000 0.084921 0.000000
# 6 -0.008220 0.008220 0.000000 0.000000 0.000000 0.096967
#
#
# Mechanical properties :
#
#
# Convention : Reuss Voigt Hill
#
# Bulk Modulus (GPa) = 21.59740 27.57340 24.58540
# Shear Modulus (GPa) = 15.07139 22.37052 18.72095
#
# Velocity S-wave (km/s) = 2.65301 3.23221 2.95683
# Velocity P-wave (km/s) = 4.41256 5.17750 4.81026
#
# Compressibility (1/GPa) = 0.04630187
#
# Stress axis : x y z
#
# Youngs Moduli (GPa) = 53.75334 53.75334 93.45900
#
# Poissons Ratio (x) = -0.32198 0.31740
# Poissons Ratio (y) = -0.32198 0.31740
# Poissons Ratio (z) = 0.18256 0.18256
#
# Static dielectric constant tensor:
#      x y z
#    x 1.798230 0.000000 0.000000 
#    y 0.000000 1.798230 0.000000 
#    z 0.000000 0.000000 1.886810 
# 
# From -- ./inp_files/755.got.cif
#   From: 2010.05.17/outbox.cif.g08.bks.cpg/sg88_1_cif.got.tgz:755.got - 2010.06.03 19:11:41.
