data_PCOD9546721
_publ_section_title
;
Structure prediction by ZEFSAII (Michael W. Deem and Ramdas Pophale) SiO2 
 PCOD9546721
Probable space group: I 41/A
;
_chemical_formula_sum "Si O2"
_cell_formula_units_Z 64
_cell_length_a 19.693820
_cell_length_b 19.693820
_cell_length_c 6.646590
_cell_angle_alpha 90.000000
_cell_angle_beta 90.000000
_cell_angle_gamma 90.000000
_cell_volume 2577.856975
_symmetry_space_group_name_H-M "I 41/A"
_symmetry_group_IT_number 88
_space_group.IT_coordinate_system_code '2'
_symmetry_cell_setting 'tetragonal'
loop_
_space_group_symop_operation_xyz
x,y,z
3/4-y,1/4+x,1/4+z
-x,1/2-y,z
1/4+y,1/4-x,1/4+z
-x,-y,-z
1/4+y,3/4-x,3/4-z
x,1/2+y,-z
3/4-y,3/4+x,3/4-z
1/2+x,1/2+y,1/2+z
1/4-y,3/4+x,3/4+z
1/2-x,-y,1/2+z
3/4+y,3/4-x,3/4+z
1/2-x,1/2-y,1/2-z
3/4+y,1/4-x,1/4-z
1/2+x,y,1/2-z
1/4-y,1/4+x,1/4-z
loop_
_atom_site_type_symbol
_atom_site_label
_atom_site_fract_x
_atom_site_fract_y
_atom_site_fract_z
Si Si1 0.742926 0.905948 0.498684
Si Si2 0.429436 0.933431 0.454852
Si Si3 0.409798 0.553577 0.868095
Si Si4 0.508998 0.862121 0.155307
O O1 0.687763 0.960877 0.424826
O O2 0.782439 0.891438 0.295326
O O3 0.718562 0.832931 0.582239
O O4 0.369354 0.877873 0.470074
O O5 0.495285 0.893912 0.375333
O O6 0.419547 0.991630 0.284530
O O7 0.474885 0.581910 0.987668
O O8 0.570659 0.808719 0.154059
#
# Coordination Sequence:
#
# PCOD9546721 Si02
#       4
#    16  16  16  16
#     4  12  22  35  58  94 138 155 188 242 310 382
#     4  11  21  37  62  93 124 161 195 245 307 362
#     4  11  21  37  62  93 124 161 195 245 307 362
#     4   9  21  41  64  85 114 165 217 248 291 346
#
# _framework density 24.826823000000001
#
# number of rings (size 3 to 8) (size 9 to 14) (size 15 to 20)
#    0.000    1.250    5.000    2.250    0.000    1.000 
#    0.000    0.000    0.000    0.000    0.000    0.000 
#    0.000    0.000    0.000    0.000    0.000    0.000 
#
# Total GULP energy -178861.576519 kJ/mol
# GULP energy per Si atom -5589.424266 kJ/mol
# Density = 2.477032 g / cm^3
# Si number density = 24.826823 Si / 1000 Ang^3
#
#
#
# Elastic Constant Matrix: (Units=GPa)
#
#
# Indices 1 2 3 4 5 6 
#
# 1 72.2796 28.1533 13.5685 0.0000 0.0000 -4.2117
# 2 28.1533 72.2796 13.5685 0.0000 0.0000 4.2117
# 3 13.5685 13.5685 36.6965 0.0000 0.0000 0.0000
# 4 0.0000 0.0000 0.0000 37.9753 0.0000 0.0000
# 5 0.0000 0.0000 0.0000 0.0000 37.9753 0.0000
# 6 -4.2117 4.2117 0.0000 0.0000 0.0000 18.0572
#
#
#
# Elastic Compliance Matrix: (Units=1/GPa)
#
#
# Indices 1 2 3 4 5 6 
#
# 1 0.017390 -0.006328 -0.004090 0.000000 0.000000 0.005532
# 2 -0.006328 0.017390 -0.004090 0.000000 0.000000 -0.005532
# 3 -0.004090 -0.004090 0.030275 0.000000 0.000000 0.000000
# 4 0.000000 0.000000 0.000000 0.026333 0.000000 0.000000
# 5 0.000000 0.000000 0.000000 0.000000 0.026333 0.000000
# 6 0.005532 -0.005532 0.000000 0.000000 0.000000 0.057960
#
#
# Mechanical properties :
#
#
# Convention : Reuss Voigt Hill
#
# Bulk Modulus (GPa) = 27.74800 32.42624 30.08712
# Shear Modulus (GPa) = 23.07217 27.19926 25.13572
#
# Velocity S-wave (km/s) = 3.05179 3.31351 3.18534
# Velocity P-wave (km/s) = 4.85992 5.26579 5.06692
#
# Compressibility (1/GPa) = 0.03603863
#
# Stress axis : x y z
#
# Youngs Moduli (GPa) = 57.50380 57.50380 33.03035
#
# Poissons Ratio (x) = 0.36389 0.13510
# Poissons Ratio (y) = 0.36389 0.13510
# Poissons Ratio (z) = 0.23520 0.23520
#
# Static dielectric constant tensor:
#      x y z
#    x 2.016480 0.000000 0.000000 
#    y 0.000000 2.016480 0.000000 
#    z 0.000000 0.000000 1.946890 
# 
# From -- ./inp_files/580.got.cif
#   From: 2010.05.17/outbox.cif.g08.bks.cpg/sg88_1_cif.got.tgz:580.got - 2010.06.03 19:11:41.
