data_PCOD9546869
_publ_section_title
;
Structure prediction by ZEFSAII (Michael W. Deem and Ramdas Pophale) SiO2 
 PCOD9546869
Probable space group: I 41/A
;
_chemical_formula_sum "Si O2"
_cell_formula_units_Z 72
_cell_length_a 14.041214
_cell_length_b 14.041214
_cell_length_c 11.608633
_cell_angle_alpha 90.000000
_cell_angle_beta 90.000000
_cell_angle_gamma 90.000000
_cell_volume 2288.708056
_symmetry_space_group_name_H-M "I 41/A"
_symmetry_group_IT_number 88
_space_group.IT_coordinate_system_code '2'
_symmetry_cell_setting 'tetragonal'
loop_
_space_group_symop_operation_xyz
x,y,z
3/4-y,1/4+x,1/4+z
-x,1/2-y,z
1/4+y,1/4-x,1/4+z
-x,-y,-z
1/4+y,3/4-x,3/4-z
x,1/2+y,-z
3/4-y,3/4+x,3/4-z
1/2+x,1/2+y,1/2+z
1/4-y,3/4+x,3/4+z
1/2-x,-y,1/2+z
3/4+y,3/4-x,3/4+z
1/2-x,1/2-y,1/2-z
3/4+y,1/4-x,1/4-z
1/2+x,y,1/2-z
1/4-y,1/4+x,1/4-z
loop_
_atom_site_type_symbol
_atom_site_label
_atom_site_fract_x
_atom_site_fract_y
_atom_site_fract_z
Si Si1 0.716930 0.078696 0.082488
Si Si2 0.430232 0.398431 0.519087
Si Si3 0.320990 0.715831 0.402897
Si Si4 0.500000 0.250000 0.375000
Si Si5 0.603892 0.575577 0.218876
Si Si6 0.500000 0.750000 0.125000
O O1 0.778239 0.123166 0.188720
O O2 0.774161 0.132089 0.980157
O O3 0.702983 0.964858 0.050591
O O4 0.609582 0.121760 0.070817
O O5 0.387582 0.293967 0.542238
O O6 0.515749 0.352956 0.443367
O O7 0.427368 0.443679 0.647573
O O8 0.235713 0.789508 0.380749
O O9 0.572276 0.683143 0.197159
#
# Coordination Sequence:
#
# PCOD9546869 Si02
#       6
#    16  16  16   4  16   4
#     4  12  30  56  81 131 176 228 298 374 442 540
#     4  12  30  55  88 127 180 237 301 374 457 528
#     4  12  30  50  82 120 180 232 292 366 448 528
#     4  12  26  60  84 138 172 240 314 372 432 558
#     4  12  30  55  88 127 180 237 301 374 457 528
#     4  12  26  60  84 138 172 240 314 372 432 558
#
# _framework density 31.458796
#
# number of rings (size 3 to 8) (size 9 to 14) (size 15 to 20)
#    0.000    0.000    4.444    2.000   18.667    1.778 
#    0.000    0.000    0.000    0.000    0.000    0.000 
#    0.000    0.000    0.000    0.000    0.000    0.000 
#
# Total GULP energy -201095.883248 kJ/mol
# GULP energy per Si atom -5585.996757 kJ/mol
# Density = 3.138719 g / cm^3
# Si number density = 31.458796 Si / 1000 Ang^3
#
#
#
# Elastic Constant Matrix: (Units=GPa)
#
#
# Indices 1 2 3 4 5 6 
#
# 1 221.3360 74.2781 30.1349 0.0000 0.0000 -8.6956
# 2 74.2781 221.3360 30.1349 0.0000 0.0000 8.6956
# 3 30.1349 30.1349 149.5695 0.0000 0.0000 0.0000
# 4 0.0000 0.0000 0.0000 47.3277 0.0000 0.0000
# 5 0.0000 0.0000 0.0000 0.0000 47.3277 0.0000
# 6 -8.6956 8.6956 0.0000 0.0000 0.0000 66.8037
#
#
#
# Elastic Compliance Matrix: (Units=1/GPa)
#
#
# Indices 1 2 3 4 5 6 
#
# 1 0.005217 -0.001689 -0.000711 0.000000 0.000000 0.000899
# 2 -0.001689 0.005217 -0.000711 0.000000 0.000000 -0.000899
# 3 -0.000711 -0.000711 0.006972 0.000000 0.000000 0.000000
# 4 0.000000 0.000000 0.000000 0.021129 0.000000 0.000000
# 5 0.000000 0.000000 0.000000 0.000000 0.021129 0.000000
# 6 0.000899 -0.000899 0.000000 0.000000 0.000000 0.015203
#
#
# Mechanical properties :
#
#
# Convention : Reuss Voigt Hill
#
# Bulk Modulus (GPa) = 89.40834 95.70417 92.55626
# Shear Modulus (GPa) = 58.94974 62.80472 60.87723
#
# Velocity S-wave (km/s) = 4.33352 4.47297 4.40380
# Velocity P-wave (km/s) = 7.31585 7.56074 7.43930
#
# Compressibility (1/GPa) = 0.01118464
#
# Stress axis : x y z
#
# Youngs Moduli (GPa) = 191.68014 191.68014 143.42563
#
# Poissons Ratio (x) = 0.32381 0.10194
# Poissons Ratio (y) = 0.32381 0.10194
# Poissons Ratio (z) = 0.13624 0.13624
#
# Static dielectric constant tensor:
#      x y z
#    x 2.718070 0.000000 0.000000 
#    y 0.000000 2.718070 0.000000 
#    z 0.000000 0.000000 3.317110 
# 
# From -- ./inp_files/2485.got.cif
#   From: 2010.05.17/outbox.cif.g08.bks.cpg/sg88_2_cif.got.tgz:2485.got - 2010.06.03 19:11:41.
