data_PCOD9546513
_publ_section_title
;
Structure prediction by ZEFSAII (Michael W. Deem and Ramdas Pophale) SiO2 
 PCOD9546513
Probable space group: I 41/A
;
_chemical_formula_sum "Si O2"
_cell_formula_units_Z 88
_cell_length_a 10.411659
_cell_length_b 10.411659
_cell_length_c 35.101737
_cell_angle_alpha 90.000000
_cell_angle_beta 90.000000
_cell_angle_gamma 90.000000
_cell_volume 3805.121069
_symmetry_space_group_name_H-M "I 41/A"
_symmetry_group_IT_number 88
_space_group.IT_coordinate_system_code '2'
_symmetry_cell_setting 'tetragonal'
loop_
_space_group_symop_operation_xyz
x,y,z
3/4-y,1/4+x,1/4+z
-x,1/2-y,z
1/4+y,1/4-x,1/4+z
-x,-y,-z
1/4+y,3/4-x,3/4-z
x,1/2+y,-z
3/4-y,3/4+x,3/4-z
1/2+x,1/2+y,1/2+z
1/4-y,3/4+x,3/4+z
1/2-x,-y,1/2+z
3/4+y,3/4-x,3/4+z
1/2-x,1/2-y,1/2-z
3/4+y,1/4-x,1/4-z
1/2+x,y,1/2-z
1/4-y,1/4+x,1/4-z
loop_
_atom_site_type_symbol
_atom_site_label
_atom_site_fract_x
_atom_site_fract_y
_atom_site_fract_z
Si Si1 0.119147 0.577174 0.754930
Si Si2 0.585411 0.994272 0.332742
Si Si3 0.651382 0.589976 0.382400
Si Si4 0.214730 0.245420 0.810573
Si Si5 0.000000 0.250000 0.944704
Si Si6 0.668867 0.376247 0.989278
O O1 0.067643 0.595250 0.798286
O O2 0.103095 0.687497 0.723687
O O3 0.264878 0.530749 0.761074
O O4 0.017991 0.470658 0.738901
O O5 0.470776 0.976523 0.361863
O O6 0.607865 0.855669 0.314121
O O7 0.720342 0.018747 0.352975
O O8 0.724001 0.673492 0.350603
O O9 0.600709 0.680421 0.416510
O O10 0.339129 0.318766 0.794093
O O11 0.163705 0.149518 0.778602
#
# Coordination Sequence:
#
# PCOD9546513 Si02
#       6
#    16  16  16  16   8  16
#     4  11  25  46  67 108 142 192 245 301 362 456
#     4  11  25  44  71  97 144 191 243 287 374 432
#     4  12  25  44  70 106 143 196 232 308 370 434
#     4  10  21  43  70  99 134 183 240 295 363 428
#     4  12  26  42  70 103 154 186 238 309 368 424
#     4  10  23  41  77 102 137 188 249 302 366 445
#
# _framework density 23.126728
#
# number of rings (size 3 to 8) (size 9 to 14) (size 15 to 20)
#    0.000    1.091    3.636    2.182    5.091    6.909 
#    0.000    1.818    0.000    0.000    0.000    0.000 
#    0.000    0.000    0.000    0.000    0.000    0.000 
#
# Total GULP energy -246009.286977 kJ/mol
# GULP energy per Si atom -5591.120159 kJ/mol
# Density = 2.307409 g / cm^3
# Si number density = 23.126728 Si / 1000 Ang^3
#
#
#
# Elastic Constant Matrix: (Units=GPa)
#
#
# Indices 1 2 3 4 5 6 
#
# 1 61.9269 20.6504 31.0952 0.0000 0.0000 12.6368
# 2 20.6504 61.9269 31.0952 0.0000 0.0000 -12.6368
# 3 31.0952 31.0952 150.9579 0.0000 0.0000 0.0000
# 4 0.0000 0.0000 0.0000 42.4768 0.0000 0.0000
# 5 0.0000 0.0000 0.0000 0.0000 42.4768 0.0000
# 6 12.6368 -12.6368 0.0000 0.0000 0.0000 34.8761
#
#
#
# Elastic Compliance Matrix: (Units=1/GPa)
#
#
# Indices 1 2 3 4 5 6 
#
# 1 0.022734 -0.008400 -0.002952 0.000000 0.000000 -0.011281
# 2 -0.008400 0.022734 -0.002952 0.000000 0.000000 0.011281
# 3 -0.002952 -0.002952 0.007841 0.000000 0.000000 0.000000
# 4 0.000000 0.000000 0.000000 0.023542 0.000000 0.000000
# 5 0.000000 0.000000 0.000000 0.000000 0.023542 0.000000
# 6 -0.011281 0.011281 0.000000 0.000000 0.000000 0.036848
#
#
# Mechanical properties :
#
#
# Convention : Reuss Voigt Hill
#
# Bulk Modulus (GPa) = 40.48971 48.94371 44.71671
# Shear Modulus (GPa) = 28.72173 36.76399 32.74286
#
# Velocity S-wave (km/s) = 3.52792 3.99140 3.76680
# Velocity P-wave (km/s) = 5.84301 6.51543 6.18836
#
# Compressibility (1/GPa) = 0.02469763
#
# Stress axis : x y z
#
# Youngs Moduli (GPa) = 43.98727 43.98727 127.53957
#
# Poissons Ratio (x) = 0.36951 0.37656
# Poissons Ratio (y) = 0.36951 0.37656
# Poissons Ratio (z) = 0.12987 0.12987
#
# Static dielectric constant tensor:
#      x y z
#    x 1.902990 0.000000 0.000000 
#    y 0.000000 1.902990 0.000000 
#    z 0.000000 0.000000 1.926680 
# 
# From -- ./inp_files/6420.got.cif
#   From: 2010.05.17/outbox.cif.g08.bks.cpg/sg88_4_cif.got.tgz:6420.got - 2010.06.03 19:11:41.
