data_PCOD9546999
_publ_section_title
;
Structure prediction by ZEFSAII (Michael W. Deem and Ramdas Pophale) SiO2 
 PCOD9546999
Probable space group: P 4 2 2
;
_chemical_formula_sum "Si O2"
_cell_formula_units_Z 40
_cell_length_a 9.756147
_cell_length_b 9.756147
_cell_length_c 23.059812
_cell_angle_alpha 90.000000
_cell_angle_beta 90.000000
_cell_angle_gamma 90.000000
_cell_volume 2194.888349
_symmetry_space_group_name_H-M "P 4 2 2"
_symmetry_group_IT_number 89
_symmetry_cell_setting 'tetragonal'
loop_
_space_group_symop_operation_xyz
x,y,z
-y,x,z
-x,-y,z
y,-x,z
x,-y,-z
-x,y,-z
y,x,-z
-y,-x,-z
loop_
_atom_site_type_symbol
_atom_site_label
_atom_site_fract_x
_atom_site_fract_y
_atom_site_fract_z
Si Si1 0.633573 0.312068 0.846922
Si Si2 0.851287 0.828996 0.931070
Si Si3 0.648912 0.115306 0.320984
Si Si4 0.833217 0.346681 0.276698
Si Si5 0.987350 0.767563 0.435722
O O1 0.683979 0.468934 0.851117
O O2 0.714878 0.229612 0.895820
O O3 0.661279 0.241477 0.784912
O O4 0.013027 0.813579 0.917367
O O5 0.822088 0.822088 0.000000
O O6 0.755162 0.238095 0.316290
O O7 0.499050 0.170100 0.304043
O O8 0.664204 0.041361 0.383233
O O9 0.685774 0.995046 0.275175
O O10 0.122974 0.862241 0.431649
O O11 0.000000 0.704456 0.500000
#
# Coordination Sequence:
#
# PCOD9546999 Si02
#       5
#     8   8   8   8   8
#     4  11  24  41  61  88 126 169 213 260 321 386
#     4   9  21  42  66  94 128 165 211 267 322 374
#     4  11  22  39  61  89 126 162 209 254 320 384
#     4  11  24  38  59  90 125 163 206 259 312 385
#     4   9  17  33  61  87 118 157 205 261 316 364
#
# _framework density 18.224160999999999
#
# number of rings (size 3 to 8) (size 9 to 14) (size 15 to 20)
#    0.000    1.800    4.000    1.200    2.800    2.400 
#    0.000    5.000    0.000    0.000    0.000    0.000 
#    0.000    0.000    0.000    0.000    0.000    0.000 
#
# Total GULP energy -222981.023810 kJ/mol
# GULP energy per Si atom -5574.525595 kJ/mol
# Density = 1.818268 g / cm^3
# Si number density = 18.224161 Si / 1000 Ang^3
#
#
#
# Elastic Constant Matrix: (Units=GPa)
#
#
# Indices 1 2 3 4 5 6 
#
# 1 85.8194 77.9535 59.9263 0.0000 0.0000 0.0000
# 2 77.9535 85.8194 59.9263 0.0000 0.0000 0.0000
# 3 59.9263 59.9263 99.1662 0.0000 0.0000 0.0000
# 4 0.0000 0.0000 0.0000 29.8920 0.0000 0.0000
# 5 0.0000 0.0000 0.0000 0.0000 29.8920 0.0000
# 6 0.0000 0.0000 0.0000 0.0000 0.0000 33.6281
#
#
#
# Elastic Compliance Matrix: (Units=1/GPa)
#
#
# Indices 1 2 3 4 5 6 
#
# 1 0.069039 -0.058092 -0.006616 0.000000 0.000000 0.000000
# 2 -0.058092 0.069039 -0.006616 0.000000 0.000000 0.000000
# 3 -0.006616 -0.006616 0.018080 0.000000 0.000000 0.000000
# 4 0.000000 0.000000 0.000000 0.033454 0.000000 0.000000
# 5 0.000000 0.000000 0.000000 0.000000 0.033454 0.000000
# 6 0.000000 0.000000 0.000000 0.000000 0.000000 0.029737
#
#
# Mechanical properties :
#
#
# Convention : Reuss Voigt Hill
#
# Bulk Modulus (GPa) = 74.00658 74.04635 74.02646
# Shear Modulus (GPa) = 12.50147 23.54901 18.02524
#
# Velocity S-wave (km/s) = 2.62197 3.59860 3.14838
# Velocity P-wave (km/s) = 7.06141 7.61483 7.34333
#
# Compressibility (1/GPa) = 0.01351231
#
# Stress axis : x y z
#
# Youngs Moduli (GPa) = 14.48450 14.48450 55.31091
#
# Poissons Ratio (x) = 0.84143 0.36591
# Poissons Ratio (y) = 0.84143 0.36591
# Poissons Ratio (z) = 0.09582 0.09582
#
# Static dielectric constant tensor:
#      x y z
#    x 1.621350 0.000000 0.000000 
#    y 0.000000 1.621350 0.000000 
#    z 0.000000 0.000000 1.652340 
# 
# From -- ./inp_files/2699.got.cif
#   From: 2010.05.17/outbox.cif.g08.bks.cpg/sg89_2_cif.got.tgz:2699.got - 2010.06.03 19:15:31.
