data_PCOD9546683
_publ_section_title
;
Structure prediction by ZEFSAII (Michael W. Deem and Ramdas Pophale) SiO2 
 PCOD9546683
Probable space group: I 41/A
;
_chemical_formula_sum "Si O2"
_cell_formula_units_Z 96
_cell_length_a 13.959103
_cell_length_b 13.959103
_cell_length_c 20.293092
_cell_angle_alpha 90.000000
_cell_angle_beta 90.000000
_cell_angle_gamma 90.000000
_cell_volume 3954.242029
_symmetry_space_group_name_H-M "I 41/A"
_symmetry_group_IT_number 88
_space_group.IT_coordinate_system_code '2'
_symmetry_cell_setting 'tetragonal'
loop_
_space_group_symop_operation_xyz
x,y,z
3/4-y,1/4+x,1/4+z
-x,1/2-y,z
1/4+y,1/4-x,1/4+z
-x,-y,-z
1/4+y,3/4-x,3/4-z
x,1/2+y,-z
3/4-y,3/4+x,3/4-z
1/2+x,1/2+y,1/2+z
1/4-y,3/4+x,3/4+z
1/2-x,-y,1/2+z
3/4+y,3/4-x,3/4+z
1/2-x,1/2-y,1/2-z
3/4+y,1/4-x,1/4-z
1/2+x,y,1/2-z
1/4-y,1/4+x,1/4-z
loop_
_atom_site_type_symbol
_atom_site_label
_atom_site_fract_x
_atom_site_fract_y
_atom_site_fract_z
Si Si1 0.620103 0.372931 0.972755
Si Si2 0.281605 0.208940 0.858181
Si Si3 0.635313 0.230487 0.411740
Si Si4 0.647022 0.235219 0.083340
Si Si5 0.306268 0.040111 0.758314
Si Si6 0.875609 0.693455 0.055254
O O1 0.644408 0.294096 0.918452
O O2 0.535030 0.436674 0.945774
O O3 0.595781 0.313483 0.037581
O O4 0.708235 0.448746 0.978559
O O5 0.289431 0.107981 0.821635
O O6 0.185787 0.241884 0.894402
O O7 0.574347 0.145867 0.379751
O O8 0.748035 0.219764 0.406759
O O9 0.608513 0.249442 0.487707
O O10 0.598639 0.212068 0.152410
O O11 0.665344 0.135668 0.042227
O O12 0.353571 0.941743 0.782652
#
# Coordination Sequence:
#
# PCOD9546683 Si02
#       6
#    16  16  16  16  16  16
#     4  12  24  42  68 104 140 193 231 285 376 419
#     4  12  22  44  66 101 147 186 231 297 361 428
#     4  10  24  49  71  94 135 184 236 308 364 418
#     4  11  24  44  71 108 139 187 242 294 361 447
#     4  11  23  44  68 103 149 187 236 301 351 432
#     4  11  24  45  71 102 143 182 247 297 352 442
#
# _framework density 24.277726000000001
#
# number of rings (size 3 to 8) (size 9 to 14) (size 15 to 20)
#    0.000    0.833    6.667    0.500    2.333    3.000 
#    6.000    0.000    0.000    0.000    0.000    0.000 
#    0.000    0.000    0.000    0.000    0.000    0.000 
#
# Total GULP energy -268778.378876 kJ/mol
# GULP energy per Si atom -5599.549560 kJ/mol
# Density = 2.422247 g / cm^3
# Si number density = 24.277726 Si / 1000 Ang^3
#
#
#
# Elastic Constant Matrix: (Units=GPa)
#
#
# Indices 1 2 3 4 5 6 
#
# 1 72.0576 4.6191 39.9930 0.0000 0.0000 6.1560
# 2 4.6191 72.0576 39.9930 0.0000 0.0000 -6.1560
# 3 39.9930 39.9930 152.6046 0.0000 0.0000 0.0000
# 4 0.0000 0.0000 0.0000 49.9270 0.0000 0.0000
# 5 0.0000 0.0000 0.0000 0.0000 49.9270 0.0000
# 6 6.1560 -6.1560 0.0000 0.0000 0.0000 27.7387
#
#
#
# Elastic Compliance Matrix: (Units=1/GPa)
#
#
# Indices 1 2 3 4 5 6 
#
# 1 0.016702 0.001247 -0.004704 0.000000 0.000000 -0.003430
# 2 0.001247 0.016702 -0.004704 0.000000 0.000000 0.003430
# 3 -0.004704 -0.004704 0.009018 0.000000 0.000000 0.000000
# 4 0.000000 0.000000 0.000000 0.020029 0.000000 0.000000
# 5 0.000000 0.000000 0.000000 0.000000 0.020029 0.000000
# 6 -0.003430 0.003430 0.000000 0.000000 0.000000 0.037573
#
#
# Mechanical properties :
#
#
# Convention : Reuss Voigt Hill
#
# Bulk Modulus (GPa) = 38.31369 51.77001 45.04185
# Shear Modulus (GPa) = 34.46518 39.65953 37.06235
#
# Velocity S-wave (km/s) = 3.77187 4.04614 3.91141
# Velocity P-wave (km/s) = 5.89789 6.57257 6.24435
#
# Compressibility (1/GPa) = 0.02610033
#
# Stress axis : x y z
#
# Youngs Moduli (GPa) = 59.87480 59.87480 110.88562
#
# Poissons Ratio (x) = -0.07466 0.52158
# Poissons Ratio (y) = -0.07466 0.52158
# Poissons Ratio (z) = 0.28164 0.28164
#
# Static dielectric constant tensor:
#      x y z
#    x 1.955810 0.000000 0.000000 
#    y 0.000000 1.955810 0.000000 
#    z 0.000000 0.000000 1.941630 
# 
# From -- ./inp_files/4696.got.cif
#   From: 2010.05.17/outbox.cif.g08.bks.cpg/sg88_3_cif.got.tgz:4696.got - 2010.06.03 19:11:41.
