data_PCOD9546417
_publ_section_title
;
Structure prediction by ZEFSAII (Michael W. Deem and Ramdas Pophale) SiO2 
 PCOD9546417
Probable space group: I 41/A
;
_chemical_formula_sum "Si O2"
_cell_formula_units_Z 104
_cell_length_a 16.503267
_cell_length_b 16.503267
_cell_length_c 16.179966
_cell_angle_alpha 90.000000
_cell_angle_beta 90.000000
_cell_angle_gamma 90.000000
_cell_volume 4406.740295
_symmetry_space_group_name_H-M "I 41/A"
_symmetry_group_IT_number 88
_space_group.IT_coordinate_system_code '2'
_symmetry_cell_setting 'tetragonal'
loop_
_space_group_symop_operation_xyz
x,y,z
3/4-y,1/4+x,1/4+z
-x,1/2-y,z
1/4+y,1/4-x,1/4+z
-x,-y,-z
1/4+y,3/4-x,3/4-z
x,1/2+y,-z
3/4-y,3/4+x,3/4-z
1/2+x,1/2+y,1/2+z
1/4-y,3/4+x,3/4+z
1/2-x,-y,1/2+z
3/4+y,3/4-x,3/4+z
1/2-x,1/2-y,1/2-z
3/4+y,1/4-x,1/4-z
1/2+x,y,1/2-z
1/4-y,1/4+x,1/4-z
loop_
_atom_site_type_symbol
_atom_site_label
_atom_site_fract_x
_atom_site_fract_y
_atom_site_fract_z
Si Si1 0.682351 0.267460 0.341554
Si Si2 0.229584 0.085232 0.745873
Si Si3 0.753664 0.841152 0.089319
Si Si4 0.956084 0.901999 0.734205
Si Si5 0.788769 0.429511 0.337089
Si Si6 0.500000 0.250000 0.123350
Si Si7 0.846105 0.184233 0.336002
O O1 0.630125 0.267011 0.423562
O O2 0.733951 0.350918 0.344832
O O3 0.751373 0.199111 0.351588
O O4 0.641231 0.270088 0.252361
O O5 0.246284 0.157674 0.810385
O O6 0.295670 0.080032 0.673571
O O7 0.143271 0.069305 0.700646
O O8 0.240269 0.006677 0.804424
O O9 0.768082 0.754272 0.047372
O O10 0.839835 0.886527 0.072383
O O11 0.860978 0.915162 0.727226
O O12 0.980964 0.831487 0.672734
O O13 0.592131 0.276726 0.096477
#
# Coordination Sequence:
#
# PCOD9546417 Si02
#       7
#    16  16  16  16  16   8  16
#     4  11  21  35  54  81 113 153 188 231 284 341
#     4  10  21  37  61  82 111 145 197 238 289 338
#     4  10  21  37  56  85 110 148 187 243 283 340
#     4  11  23  37  57  82 118 151 191 235 286 344
#     4  11  20  37  58  83 110 149 191 243 281 339
#     4  10  22  37  50  82 116 153 184 220 280 345
#     4  10  21  35  55  80 117 151 187 231 284 341
#
# _framework density 23.600211000000002
#
# number of rings (size 3 to 8) (size 9 to 14) (size 15 to 20)
#    0.000    1.538    4.615    0.923    0.000    3.692 
#    0.000    0.000    0.000    0.000    0.000    0.000 
#    0.000    0.000    0.000    0.000    0.000    0.000 
#
# Total GULP energy -290237.301366 kJ/mol
# GULP energy per Si atom -5581.486565 kJ/mol
# Density = 2.354650 g / cm^3
# Si number density = 23.600211 Si / 1000 Ang^3
#
#
#
# Elastic Constant Matrix: (Units=GPa)
#
#
# Indices 1 2 3 4 5 6 
#
# 1 46.1783 -2.0637 -0.6992 0.0000 0.0000 6.6148
# 2 -2.0637 46.1783 -0.6992 0.0000 0.0000 -6.6148
# 3 -0.6992 -0.6992 84.4631 0.0000 0.0000 0.0000
# 4 0.0000 0.0000 0.0000 19.9585 0.0000 0.0000
# 5 0.0000 0.0000 0.0000 0.0000 19.9585 0.0000
# 6 6.6148 -6.6148 0.0000 0.0000 0.0000 20.4587
#
#
#
# Elastic Compliance Matrix: (Units=1/GPa)
#
#
# Indices 1 2 3 4 5 6 
#
# 1 0.022710 -0.000036 0.000188 0.000000 0.000000 -0.007354
# 2 -0.000036 0.022710 0.000188 0.000000 0.000000 0.007354
# 3 0.000188 0.000188 0.011843 0.000000 0.000000 0.000000
# 4 0.000000 0.000000 0.000000 0.050104 0.000000 0.000000
# 5 0.000000 0.000000 0.000000 0.000000 0.050104 0.000000
# 6 -0.007354 0.007354 0.000000 0.000000 0.000000 0.053635
#
#
# Mechanical properties :
#
#
# Convention : Reuss Voigt Hill
#
# Bulk Modulus (GPa) = 17.25871 18.87728 18.06800
# Shear Modulus (GPa) = 21.76378 24.09393 22.92885
#
# Velocity S-wave (km/s) = 3.04005 3.19865 3.12036
# Velocity P-wave (km/s) = 4.43298 4.65381 4.54474
#
# Compressibility (1/GPa) = 0.05794175
#
# Stress axis : x y z
#
# Youngs Moduli (GPa) = 44.03369 44.03369 84.44092
#
# Poissons Ratio (x) = 0.00157 -0.01585
# Poissons Ratio (y) = 0.00157 -0.01585
# Poissons Ratio (z) = -0.00827 -0.00827
#
# Static dielectric constant tensor:
#      x y z
#    x 1.969920 0.000000 0.000000 
#    y 0.000000 1.969920 0.000000 
#    z 0.000000 0.000000 1.973500 
# 
# From -- ./inp_files/3965.got.cif
#   From: 2010.05.17/outbox.cif.g08.bks.cpg/sg88_2_cif.got.tgz:3965.got - 2010.06.03 19:11:41.
