data_PCOD9546843
_publ_section_title
;
Structure prediction by ZEFSAII (Michael W. Deem and Ramdas Pophale) SiO2 
 PCOD9546843
Probable space group: I 41/A
;
_chemical_formula_sum "Si O2"
_cell_formula_units_Z 96
_cell_length_a 15.039440
_cell_length_b 15.039440
_cell_length_c 21.426697
_cell_angle_alpha 90.000000
_cell_angle_beta 90.000000
_cell_angle_gamma 90.000000
_cell_volume 4846.392222
_symmetry_space_group_name_H-M "I 41/A"
_symmetry_group_IT_number 88
_space_group.IT_coordinate_system_code '2'
_symmetry_cell_setting 'tetragonal'
loop_
_space_group_symop_operation_xyz
x,y,z
3/4-y,1/4+x,1/4+z
-x,1/2-y,z
1/4+y,1/4-x,1/4+z
-x,-y,-z
1/4+y,3/4-x,3/4-z
x,1/2+y,-z
3/4-y,3/4+x,3/4-z
1/2+x,1/2+y,1/2+z
1/4-y,3/4+x,3/4+z
1/2-x,-y,1/2+z
3/4+y,3/4-x,3/4+z
1/2-x,1/2-y,1/2-z
3/4+y,1/4-x,1/4-z
1/2+x,y,1/2-z
1/4-y,1/4+x,1/4-z
loop_
_atom_site_type_symbol
_atom_site_label
_atom_site_fract_x
_atom_site_fract_y
_atom_site_fract_z
Si Si1 0.059662 0.378696 0.381867
Si Si2 0.235437 0.942565 0.928931
Si Si3 0.367772 0.319477 0.123593
Si Si4 0.075934 0.882391 0.765846
Si Si5 0.717586 0.958216 0.945634
Si Si6 0.126088 0.685939 0.770961
O O1 0.097108 0.278897 0.389464
O O2 0.079426 0.398499 0.308891
O O3 0.116576 0.435274 0.429766
O O4 0.953921 0.380631 0.390330
O O5 0.283734 0.849174 0.916186
O O6 0.129130 0.935900 0.938310
O O7 0.256284 0.996992 0.866612
O O8 0.271288 0.985570 0.991982
O O9 0.350591 0.324722 0.197885
O O10 0.128096 0.791067 0.783912
O O11 0.974165 0.853012 0.779054
O O12 0.122384 0.967309 0.796328
#
# Coordination Sequence:
#
# PCOD9546843 Si02
#       6
#    16  16  16  16  16  16
#     4   9  19  38  61  82 108 149 194 236 285 338
#     4  12  23  36  55  85 117 150 188 230 285 340
#     4   9  19  38  61  82 108 149 194 236 285 338
#     4   9  19  36  57  83 116 151 188 228 276 340
#     4  12  23  36  55  85 117 150 188 230 285 340
#     4   9  19  36  57  83 116 151 188 228 276 340
#
# _framework density 19.80855
#
# number of rings (size 3 to 8) (size 9 to 14) (size 15 to 20)
#    0.000    2.000    3.333    3.000    0.000    4.000 
#    0.000    1.667    0.000    0.000    0.000    2.333 
#    0.000    0.000    0.000    0.000    0.000    0.000 
#
# Total GULP energy -267950.046032 kJ/mol
# GULP energy per Si atom -5582.292626 kJ/mol
# Density = 1.976347 g / cm^3
# Si number density = 19.808550 Si / 1000 Ang^3
#
#
#
# Elastic Constant Matrix: (Units=GPa)
#
#
# Indices 1 2 3 4 5 6 
#
# 1 40.4400 -7.9820 12.8120 0.0000 0.0000 4.8394
# 2 -7.9820 40.4400 12.8120 0.0000 0.0000 -4.8394
# 3 12.8120 12.8120 79.5404 0.0000 0.0000 0.0000
# 4 0.0000 0.0000 0.0000 21.6406 0.0000 0.0000
# 5 0.0000 0.0000 0.0000 0.0000 21.6406 0.0000
# 6 4.8394 -4.8394 0.0000 0.0000 0.0000 30.1797
#
#
#
# Elastic Compliance Matrix: (Units=1/GPa)
#
#
# Indices 1 2 3 4 5 6 
#
# 1 0.028317 0.006981 -0.005686 0.000000 0.000000 -0.003421
# 2 0.006981 0.028317 -0.005686 0.000000 0.000000 0.003421
# 3 -0.005686 -0.005686 0.014404 0.000000 0.000000 0.000000
# 4 0.000000 0.000000 0.000000 0.046210 0.000000 0.000000
# 5 0.000000 0.000000 0.000000 0.000000 0.046210 0.000000
# 6 -0.003421 0.003421 0.000000 0.000000 0.000000 0.034232
#
#
# Mechanical properties :
#
#
# Convention : Reuss Voigt Hill
#
# Bulk Modulus (GPa) = 16.06256 21.74494 18.90375
# Shear Modulus (GPa) = 22.00504 24.21073 23.10789
#
# Velocity S-wave (km/s) = 3.33661 3.49984 3.41920
# Velocity P-wave (km/s) = 4.79275 5.22812 5.01516
#
# Compressibility (1/GPa) = 0.06225656
#
# Stress axis : x y z
#
# Youngs Moduli (GPa) = 35.31503 35.31503 69.42597
#
# Poissons Ratio (x) = -0.24653 0.39472
# Poissons Ratio (y) = -0.24653 0.39472
# Poissons Ratio (z) = 0.20079 0.20079
#
# Static dielectric constant tensor:
#      x y z
#    x 1.740690 0.000000 0.000000 
#    y 0.000000 1.740690 0.000000 
#    z 0.000000 0.000000 1.676140 
# 
# From -- ./inp_files/4678.got.cif
#   From: 2010.05.17/outbox.cif.g08.bks.cpg/sg88_3_cif.got.tgz:4678.got - 2010.06.03 19:11:41.
