data_PCOD9546708
_publ_section_title
;
Structure prediction by ZEFSAII (Michael W. Deem and Ramdas Pophale) SiO2 
 PCOD9546708
Probable space group: I 41/A
;
_chemical_formula_sum "Si O2"
_cell_formula_units_Z 96
_cell_length_a 20.666249
_cell_length_b 20.666249
_cell_length_c 8.954096
_cell_angle_alpha 90.000000
_cell_angle_beta 90.000000
_cell_angle_gamma 90.000000
_cell_volume 3824.239314
_symmetry_space_group_name_H-M "I 41/A"
_symmetry_group_IT_number 88
_space_group.IT_coordinate_system_code '2'
_symmetry_cell_setting 'tetragonal'
loop_
_space_group_symop_operation_xyz
x,y,z
3/4-y,1/4+x,1/4+z
-x,1/2-y,z
1/4+y,1/4-x,1/4+z
-x,-y,-z
1/4+y,3/4-x,3/4-z
x,1/2+y,-z
3/4-y,3/4+x,3/4-z
1/2+x,1/2+y,1/2+z
1/4-y,3/4+x,3/4+z
1/2-x,-y,1/2+z
3/4+y,3/4-x,3/4+z
1/2-x,1/2-y,1/2-z
3/4+y,1/4-x,1/4-z
1/2+x,y,1/2-z
1/4-y,1/4+x,1/4-z
loop_
_atom_site_type_symbol
_atom_site_label
_atom_site_fract_x
_atom_site_fract_y
_atom_site_fract_z
Si Si1 0.172675 0.325973 0.436578
Si Si2 0.882571 0.479540 0.092744
Si Si3 0.774951 0.052680 0.736143
Si Si4 0.865918 0.303275 0.267181
Si Si5 0.853432 0.179865 0.759559
Si Si6 0.689736 0.735851 0.485035
O O1 0.184611 0.377053 0.302336
O O2 0.145890 0.265037 0.344391
O O3 0.129573 0.330020 0.585830
O O4 0.244154 0.304353 0.496951
O O5 0.820216 0.496715 0.189501
O O6 0.906892 0.549388 0.037038
O O7 0.943404 0.454066 0.189724
O O8 0.800256 0.123069 0.778093
O O9 0.787194 0.043134 0.561271
O O10 0.916758 0.340370 0.369768
O O11 0.867600 0.293438 0.088432
O O12 0.826584 0.249091 0.813397
#
# Coordination Sequence:
#
# PCOD9546708 Si02
#       6
#    16  16  16  16  16  16
#     4   9  18  33  58  79 103 138 187 234 263 315
#     4   8  16  35  53  71 104 150 177 208 267 321
#     4  11  23  35  49  79 125 152 172 211 266 339
#     4   8  18  34  55  76 104 139 180 231 277 317
#     4  11  20  34  57  83 107 142 187 228 273 327
#     4   9  16  35  56  77 103 141 188 223 267 326
#
# _framework density 25.103031000000001
#
# number of rings (size 3 to 8) (size 9 to 14) (size 15 to 20)
#    0.000    2.667    1.667    2.500    2.333    0.000 
#    0.000    3.333    0.000    3.000    0.000    0.000 
#    0.000    0.000    0.000    0.000    0.000    0.000 
#
# Total GULP energy -267821.588350 kJ/mol
# GULP energy per Si atom -5579.616424 kJ/mol
# Density = 2.504589 g / cm^3
# Si number density = 25.103031 Si / 1000 Ang^3
#
#
#
# Elastic Constant Matrix: (Units=GPa)
#
#
# Indices 1 2 3 4 5 6 
#
# 1 37.1650 4.8593 22.3786 0.0000 0.0000 -4.9276
# 2 4.8593 37.1650 22.3786 0.0000 0.0000 4.9276
# 3 22.3786 22.3786 107.8931 0.0000 0.0000 0.0000
# 4 0.0000 0.0000 0.0000 39.8800 0.0000 0.0000
# 5 0.0000 0.0000 0.0000 0.0000 39.8800 0.0000
# 6 -4.9276 4.9276 0.0000 0.0000 0.0000 20.2585
#
#
#
# Elastic Compliance Matrix: (Units=1/GPa)
#
#
# Indices 1 2 3 4 5 6 
#
# 1 0.031989 -0.001446 -0.006335 0.000000 0.000000 0.008133
# 2 -0.001446 0.031989 -0.006335 0.000000 0.000000 -0.008133
# 3 -0.006335 -0.006335 0.011896 0.000000 0.000000 0.000000
# 4 0.000000 0.000000 0.000000 0.025075 0.000000 0.000000
# 5 0.000000 0.000000 0.000000 0.000000 0.025075 0.000000
# 6 0.008133 -0.008133 0.000000 0.000000 0.000000 0.053318
#
#
# Mechanical properties :
#
#
# Convention : Reuss Voigt Hill
#
# Bulk Modulus (GPa) = 20.98993 31.27287 26.13140
# Shear Modulus (GPa) = 22.37573 28.84414 25.60993
#
# Velocity S-wave (km/s) = 2.98880 3.39341 3.19751
# Velocity P-wave (km/s) = 4.50447 5.27622 4.90554
#
# Compressibility (1/GPa) = 0.04764190
#
# Stress axis : x y z
#
# Youngs Moduli (GPa) = 31.26072 31.26072 84.05926
#
# Poissons Ratio (x) = 0.04521 0.53252
# Poissons Ratio (y) = 0.04521 0.53252
# Poissons Ratio (z) = 0.19804 0.19804
#
# Static dielectric constant tensor:
#      x y z
#    x 2.001100 0.000000 0.000000 
#    y 0.000000 2.001100 0.000000 
#    z 0.000000 0.000000 2.108250 
# 
# From -- ./inp_files/1746.got.cif
#   From: 2010.05.17/outbox.cif.g08.bks.cpg/sg88_1_cif.got.tgz:1746.got - 2010.06.03 19:11:41.
