data_PCOD9546611
_publ_section_title
;
Structure prediction by ZEFSAII (Michael W. Deem and Ramdas Pophale) SiO2 
 PCOD9546611
Probable space group: I 41/A
;
_chemical_formula_sum "Si O2"
_cell_formula_units_Z 96
_cell_length_a 14.484779
_cell_length_b 14.484779
_cell_length_c 22.254281
_cell_angle_alpha 90.000000
_cell_angle_beta 90.000000
_cell_angle_gamma 90.000000
_cell_volume 4669.144496
_symmetry_space_group_name_H-M "I 41/A"
_symmetry_group_IT_number 88
_space_group.IT_coordinate_system_code '2'
_symmetry_cell_setting 'tetragonal'
loop_
_space_group_symop_operation_xyz
x,y,z
3/4-y,1/4+x,1/4+z
-x,1/2-y,z
1/4+y,1/4-x,1/4+z
-x,-y,-z
1/4+y,3/4-x,3/4-z
x,1/2+y,-z
3/4-y,3/4+x,3/4-z
1/2+x,1/2+y,1/2+z
1/4-y,3/4+x,3/4+z
1/2-x,-y,1/2+z
3/4+y,3/4-x,3/4+z
1/2-x,1/2-y,1/2-z
3/4+y,1/4-x,1/4-z
1/2+x,y,1/2-z
1/4-y,1/4+x,1/4-z
loop_
_atom_site_type_symbol
_atom_site_label
_atom_site_fract_x
_atom_site_fract_y
_atom_site_fract_z
Si Si1 0.977613 0.485738 0.069501
Si Si2 0.414377 0.633637 0.136397
Si Si3 0.765236 0.765860 0.497497
Si Si4 0.400080 0.704513 0.900834
Si Si5 0.143581 0.469089 0.332249
Si Si6 0.339659 0.600964 0.589123
O O1 0.880244 0.452640 0.096480
O O2 0.999322 0.583419 0.101001
O O3 0.050196 0.408009 0.092242
O O4 0.000000 0.500000 0.000000
O O5 0.390619 0.740672 0.151736
O O6 0.432632 0.564841 0.191690
O O7 0.326124 0.602257 0.099433
O O8 0.848425 0.726070 0.537435
O O9 0.708944 0.679266 0.471417
O O10 0.701968 0.830252 0.539299
O O11 0.500000 0.750000 0.899274
O O12 0.396445 0.596014 0.885254
O O13 0.247569 0.438781 0.320748
#
# Coordination Sequence:
#
# PCOD9546611 Si02
#       6
#    16  16  16  16  16  16
#     4  10  24  43  67  93 127 173 217 274 332 384
#     4   9  20  37  61  89 126 168 214 258 320 390
#     4  10  23  39  66  95 128 175 212 271 327 382
#     4  10  24  41  62  96 133 163 216 270 325 393
#     4  10  23  40  65  93 131 173 216 265 330 388
#     4  10  24  43  64  97 130 164 228 269 325 402
#
# _framework density 20.560510000000001
#
# number of rings (size 3 to 8) (size 9 to 14) (size 15 to 20)
#    0.000    2.167    0.000    0.000   11.667   11.000 
#    0.000    1.667    0.000    0.000    0.000    0.000 
#    0.000    0.000    0.000    0.000    0.000    0.000 
#
# Total GULP energy -267794.148267 kJ/mol
# GULP energy per Si atom -5579.044756 kJ/mol
# Density = 2.051371 g / cm^3
# Si number density = 20.560510 Si / 1000 Ang^3
#
#
#
# Elastic Constant Matrix: (Units=GPa)
#
#
# Indices 1 2 3 4 5 6 
#
# 1 81.0655 33.1602 14.4397 0.0000 0.0000 0.6513
# 2 33.1602 81.0655 14.4397 0.0000 0.0000 -0.6513
# 3 14.4397 14.4397 42.9281 0.0000 0.0000 0.0000
# 4 0.0000 0.0000 0.0000 23.7442 0.0000 0.0000
# 5 0.0000 0.0000 0.0000 0.0000 23.7442 0.0000
# 6 0.6513 -0.6513 0.0000 0.0000 0.0000 26.0664
#
#
#
# Elastic Compliance Matrix: (Units=1/GPa)
#
#
# Indices 1 2 3 4 5 6 
#
# 1 0.015229 -0.005660 -0.003218 0.000000 0.000000 -0.000522
# 2 -0.005660 0.015229 -0.003218 0.000000 0.000000 0.000522
# 3 -0.003218 -0.003218 0.025460 0.000000 0.000000 0.000000
# 4 0.000000 0.000000 0.000000 0.042116 0.000000 0.000000
# 5 0.000000 0.000000 0.000000 0.000000 0.042116 0.000000
# 6 -0.000522 0.000522 0.000000 0.000000 0.000000 0.038390
#
#
# Mechanical properties :
#
#
# Convention : Reuss Voigt Hill
#
# Bulk Modulus (GPa) = 31.52323 36.57094 34.04709
# Shear Modulus (GPa) = 23.44045 24.24558 23.84301
#
# Velocity S-wave (km/s) = 3.38016 3.43772 3.40906
# Velocity P-wave (km/s) = 5.53165 5.79507 5.66489
#
# Compressibility (1/GPa) = 0.03172264
#
# Stress axis : x y z
#
# Youngs Moduli (GPa) = 65.66625 65.66625 39.27733
#
# Poissons Ratio (x) = 0.37168 0.12641
# Poissons Ratio (y) = 0.37168 0.12641
# Poissons Ratio (z) = 0.21135 0.21135
#
# Static dielectric constant tensor:
#      x y z
#    x 1.746010 0.000000 0.000000 
#    y 0.000000 1.746010 0.000000 
#    z 0.000000 0.000000 1.762560 
# 
# From -- ./inp_files/4720.got.cif
#   From: 2010.05.17/outbox.cif.g08.bks.cpg/sg88_3_cif.got.tgz:4720.got - 2010.06.03 19:11:41.
