data_PCOD9546862
_publ_section_title
;
Structure prediction by ZEFSAII (Michael W. Deem and Ramdas Pophale) SiO2 
 PCOD9546862
Probable space group: I 41/A
;
_chemical_formula_sum "Si O2"
_cell_formula_units_Z 64
_cell_length_a 19.375638
_cell_length_b 19.375638
_cell_length_c 7.374734
_cell_angle_alpha 90.000000
_cell_angle_beta 90.000000
_cell_angle_gamma 90.000000
_cell_volume 2768.588330
_symmetry_space_group_name_H-M "I 41/A"
_symmetry_group_IT_number 88
_space_group.IT_coordinate_system_code '2'
_symmetry_cell_setting 'tetragonal'
loop_
_space_group_symop_operation_xyz
x,y,z
3/4-y,1/4+x,1/4+z
-x,1/2-y,z
1/4+y,1/4-x,1/4+z
-x,-y,-z
1/4+y,3/4-x,3/4-z
x,1/2+y,-z
3/4-y,3/4+x,3/4-z
1/2+x,1/2+y,1/2+z
1/4-y,3/4+x,3/4+z
1/2-x,-y,1/2+z
3/4+y,3/4-x,3/4+z
1/2-x,1/2-y,1/2-z
3/4+y,1/4-x,1/4-z
1/2+x,y,1/2-z
1/4-y,1/4+x,1/4-z
loop_
_atom_site_type_symbol
_atom_site_label
_atom_site_fract_x
_atom_site_fract_y
_atom_site_fract_z
Si Si1 0.044048 0.447225 0.770688
Si Si2 0.096633 0.695102 0.825338
Si Si3 0.287587 0.426706 0.841169
Si Si4 0.756233 0.846094 0.890673
O O1 0.095684 0.450169 0.604265
O O2 0.965991 0.470644 0.747982
O O3 0.047290 0.372835 0.868378
O O4 0.074688 0.498505 0.928330
O O5 0.089765 0.772664 0.903287
O O6 0.160953 0.655926 0.918620
O O7 0.209727 0.442294 0.783793
O O8 0.335107 0.468262 0.700078
#
# Coordination Sequence:
#
# PCOD9546862 Si02
#       4
#    16  16  16  16
#     4   9  22  41  63  91 128 160 213 259 315 374
#     4   9  19  37  68  92 117 168 214 248 308 389
#     4  12  26  39  63  96 125 166 213 263 317 376
#     4   9  22  41  67  86 130 168 200 263 320 373
#
# _framework density 23.116475999999999
#
# number of rings (size 3 to 8) (size 9 to 14) (size 15 to 20)
#    1.500    0.750    0.000    1.500    7.000    1.000 
#    0.000    0.000    0.000    0.000    0.000    0.000 
#    0.000    0.000    0.000    0.000    0.000    0.000 
#
# Total GULP energy -178609.594157 kJ/mol
# GULP energy per Si atom -5581.549817 kJ/mol
# Density = 2.306386 g / cm^3
# Si number density = 23.116476 Si / 1000 Ang^3
#
#
#
# Elastic Constant Matrix: (Units=GPa)
#
#
# Indices 1 2 3 4 5 6 
#
# 1 94.4072 7.9686 12.4132 0.0000 0.0000 -6.5609
# 2 7.9686 94.4072 12.4132 0.0000 0.0000 6.5609
# 3 12.4132 12.4132 39.4296 0.0000 0.0000 0.0000
# 4 0.0000 0.0000 0.0000 35.6208 0.0000 0.0000
# 5 0.0000 0.0000 0.0000 0.0000 35.6208 0.0000
# 6 -6.5609 6.5609 0.0000 0.0000 0.0000 32.0454
#
#
#
# Elastic Compliance Matrix: (Units=1/GPa)
#
#
# Indices 1 2 3 4 5 6 
#
# 1 0.011258 -0.000682 -0.003329 0.000000 0.000000 0.002445
# 2 -0.000682 0.011258 -0.003329 0.000000 0.000000 -0.002445
# 3 -0.003329 -0.003329 0.027458 0.000000 0.000000 0.000000
# 4 0.000000 0.000000 0.000000 0.028073 0.000000 0.000000
# 5 0.000000 0.000000 0.000000 0.000000 0.028073 0.000000
# 6 0.002445 -0.002445 0.000000 0.000000 0.000000 0.032207
#
#
# Mechanical properties :
#
#
# Convention : Reuss Voigt Hill
#
# Bulk Modulus (GPa) = 28.33561 32.64823 30.49192
# Shear Modulus (GPa) = 30.34488 33.68736 32.01612
#
# Velocity S-wave (km/s) = 3.62704 3.82159 3.72558
# Velocity P-wave (km/s) = 5.46122 5.79885 5.63257
#
# Compressibility (1/GPa) = 0.03529128
#
# Stress axis : x y z
#
# Youngs Moduli (GPa) = 88.82855 88.82855 36.41939
#
# Poissons Ratio (x) = 0.06061 0.12125
# Poissons Ratio (y) = 0.06061 0.12125
# Poissons Ratio (z) = 0.29574 0.29574
#
# Static dielectric constant tensor:
#      x y z
#    x 1.844910 0.000000 0.000000 
#    y 0.000000 1.844910 0.000000 
#    z 0.000000 0.000000 1.948780 
# 
# From -- ./inp_files/1437.got.cif
#   From: 2010.05.17/outbox.cif.g08.bks.cpg/sg88_1_cif.got.tgz:1437.got - 2010.06.03 19:11:41.
