data_PCOD9546445
_publ_section_title
;
Structure prediction by ZEFSAII (Michael W. Deem and Ramdas Pophale) SiO2 
 PCOD9546445
Probable space group: I 41/A
;
_chemical_formula_sum "Si O2"
_cell_formula_units_Z 112
_cell_length_a 14.512161
_cell_length_b 14.512161
_cell_length_c 26.131819
_cell_angle_alpha 90.000000
_cell_angle_beta 90.000000
_cell_angle_gamma 90.000000
_cell_volume 5503.434692
_symmetry_space_group_name_H-M "I 41/A"
_symmetry_group_IT_number 88
_space_group.IT_coordinate_system_code '2'
_symmetry_cell_setting 'tetragonal'
loop_
_space_group_symop_operation_xyz
x,y,z
3/4-y,1/4+x,1/4+z
-x,1/2-y,z
1/4+y,1/4-x,1/4+z
-x,-y,-z
1/4+y,3/4-x,3/4-z
x,1/2+y,-z
3/4-y,3/4+x,3/4-z
1/2+x,1/2+y,1/2+z
1/4-y,3/4+x,3/4+z
1/2-x,-y,1/2+z
3/4+y,3/4-x,3/4+z
1/2-x,1/2-y,1/2-z
3/4+y,1/4-x,1/4-z
1/2+x,y,1/2-z
1/4-y,1/4+x,1/4-z
loop_
_atom_site_type_symbol
_atom_site_label
_atom_site_fract_x
_atom_site_fract_y
_atom_site_fract_z
Si Si1 0.055143 0.481917 0.379239
Si Si2 0.167674 0.495606 0.163496
Si Si3 0.769879 0.596339 0.468838
Si Si4 0.869503 0.759144 0.892475
Si Si5 0.109148 0.734380 0.303892
Si Si6 0.856412 0.994643 0.826692
Si Si7 0.094773 0.306615 0.804561
O O1 0.152300 0.455304 0.405124
O O2 0.078558 0.476434 0.319518
O O3 0.022526 0.582125 0.398656
O O4 0.981364 0.412220 0.402079
O O5 0.145227 0.488258 0.223038
O O6 0.072478 0.469912 0.134090
O O7 0.239635 0.426240 0.136295
O O8 0.879124 0.613806 0.459515
O O9 0.746053 0.491507 0.452035
O O10 0.915826 0.699516 0.846500
O O11 0.839356 0.677787 0.930500
O O12 0.135073 0.789684 0.252124
O O13 0.000000 0.750000 0.311124
O O14 0.912378 0.085404 0.812614
O O15 0.000000 0.250000 0.806705
#
# Coordination Sequence:
#
# PCOD9546445 Si02
#       7
#    16  16  16  16  16  16  16
#     4  11  22  38  61  88 137 173 219 263 316 395
#     4  10  21  40  60  91 123 164 214 270 330 387
#     4  11  23  38  59  92 134 174 213 268 325 391
#     4   9  19  39  69  90 109 153 218 270 330 396
#     4  11  24  37  59  96 137 187 222 261 315 408
#     4  10  21  37  63  90 121 168 211 269 329 391
#     4  11  21  38  63  91 129 176 224 270 336 395
#
# _framework density 20.350928
#
# number of rings (size 3 to 8) (size 9 to 14) (size 15 to 20)
#    0.000    1.571    2.857    2.143    4.000    0.000 
#    2.571    0.000    6.286   42.857    0.000    0.000 
#    0.000    0.000    0.000    0.000    0.000    0.000 
#
# Total GULP energy -311920.557906 kJ/mol
# GULP energy per Si atom -5570.009963 kJ/mol
# Density = 2.030461 g / cm^3
# Si number density = 20.350928 Si / 1000 Ang^3
#
#
#
# Elastic Constant Matrix: (Units=GPa)
#
#
# Indices 1 2 3 4 5 6 
#
# 1 66.8549 22.2771 3.2500 0.0000 0.0000 1.4690
# 2 22.2771 66.8549 3.2500 0.0000 0.0000 -1.4690
# 3 3.2500 3.2500 91.6239 0.0000 0.0000 0.0000
# 4 0.0000 0.0000 0.0000 18.4800 0.0000 0.0000
# 5 0.0000 0.0000 0.0000 0.0000 18.4800 0.0000
# 6 1.4690 -1.4690 0.0000 0.0000 0.0000 42.9799
#
#
#
# Elastic Compliance Matrix: (Units=1/GPa)
#
#
# Indices 1 2 3 4 5 6 
#
# 1 0.016866 -0.005617 -0.000399 0.000000 0.000000 -0.000768
# 2 -0.005617 0.016866 -0.000399 0.000000 0.000000 0.000768
# 3 -0.000399 -0.000399 0.010942 0.000000 0.000000 0.000000
# 4 0.000000 0.000000 0.000000 0.054113 0.000000 0.000000
# 5 0.000000 0.000000 0.000000 0.000000 0.054113 0.000000
# 6 -0.000768 0.000768 0.000000 0.000000 0.000000 0.023319
#
#
# Mechanical properties :
#
#
# Convention : Reuss Voigt Hill
#
# Bulk Modulus (GPa) = 31.40374 31.43198 31.41786
# Shear Modulus (GPa) = 25.04208 29.09174 27.06691
#
# Velocity S-wave (km/s) = 3.51167 3.78498 3.65088
# Velocity P-wave (km/s) = 5.64863 5.88047 5.76572
#
# Compressibility (1/GPa) = 0.03184335
#
# Stress axis : x y z
#
# Youngs Moduli (GPa) = 59.29128 59.29128 91.38688
#
# Poissons Ratio (x) = 0.33307 0.03646
# Poissons Ratio (y) = 0.33307 0.03646
# Poissons Ratio (z) = 0.02366 0.02366
#
# Static dielectric constant tensor:
#      x y z
#    x 1.770220 0.000000 0.000000 
#    y 0.000000 1.770220 0.000000 
#    z 0.000000 0.000000 1.727760 
# 
# From -- ./inp_files/5866.got.cif
#   From: 2010.05.17/outbox.cif.g08.bks.cpg/sg88_3_cif.got.tgz:5866.got - 2010.06.03 19:11:41.
