data_PCOD9546293
_publ_section_title
;
Structure prediction by ZEFSAII (Michael W. Deem and Ramdas Pophale) SiO2 
 PCOD9546293
Probable space group: I 41/A
;
_chemical_formula_sum "Si O2"
_cell_formula_units_Z 64
_cell_length_a 18.746531
_cell_length_b 18.746531
_cell_length_c 9.836227
_cell_angle_alpha 90.000000
_cell_angle_beta 90.000000
_cell_angle_gamma 90.000000
_cell_volume 3456.769103
_symmetry_space_group_name_H-M "I 41/A"
_symmetry_group_IT_number 88
_space_group.IT_coordinate_system_code '2'
_symmetry_cell_setting 'tetragonal'
loop_
_space_group_symop_operation_xyz
x,y,z
3/4-y,1/4+x,1/4+z
-x,1/2-y,z
1/4+y,1/4-x,1/4+z
-x,-y,-z
1/4+y,3/4-x,3/4-z
x,1/2+y,-z
3/4-y,3/4+x,3/4-z
1/2+x,1/2+y,1/2+z
1/4-y,3/4+x,3/4+z
1/2-x,-y,1/2+z
3/4+y,3/4-x,3/4+z
1/2-x,1/2-y,1/2-z
3/4+y,1/4-x,1/4-z
1/2+x,y,1/2-z
1/4-y,1/4+x,1/4-z
loop_
_atom_site_type_symbol
_atom_site_label
_atom_site_fract_x
_atom_site_fract_y
_atom_site_fract_z
Si Si1 0.776911 0.703063 0.551189
Si Si2 0.084589 0.930908 0.054842
Si Si3 0.201690 0.550334 0.262113
Si Si4 0.779877 0.659868 0.052590
O O1 0.830923 0.755765 0.631723
O O2 0.718198 0.676976 0.660456
O O3 0.812207 0.632880 0.493091
O O4 0.736639 0.755939 0.446912
O O5 0.114064 0.990117 0.162179
O O6 0.138639 0.865516 0.049323
O O7 0.213765 0.484343 0.364340
O O8 0.241474 0.617647 0.327307
#
# Coordination Sequence:
#
# PCOD9546293 Si02
#       4
#    16  16  16  16
#     4   9  22  35  58  94 121 154 197 248 305 353
#     4   9  19  37  59  89 121 153 194 255 289 355
#     4  12  23  36  63  93 120 158 201 252 300 351
#     4  10  19  38  59  88 120 149 199 251 293 346
#
# _framework density 18.514396999999999
#
# number of rings (size 3 to 8) (size 9 to 14) (size 15 to 20)
#    1.500    0.500    2.500    1.500    3.500    1.000 
#    0.000    0.000    0.000    9.000    0.000    0.000 
#    0.000    0.000    0.000    0.000    0.000    0.000 
#
# Total GULP energy -178159.527166 kJ/mol
# GULP energy per Si atom -5567.485224 kJ/mol
# Density = 1.847226 g / cm^3
# Si number density = 18.514397 Si / 1000 Ang^3
#
#
#
# Elastic Constant Matrix: (Units=GPa)
#
#
# Indices 1 2 3 4 5 6 
#
# 1 64.6587 0.5823 18.3069 0.0000 0.0000 1.2555
# 2 0.5823 64.6587 18.3069 0.0000 0.0000 -1.2555
# 3 18.3069 18.3069 30.3687 0.0000 0.0000 0.0000
# 4 0.0000 0.0000 0.0000 23.0211 0.0000 0.0000
# 5 0.0000 0.0000 0.0000 0.0000 23.0211 0.0000
# 6 1.2555 -1.2555 0.0000 0.0000 0.0000 5.9847
#
#
#
# Elastic Compliance Matrix: (Units=1/GPa)
#
#
# Indices 1 2 3 4 5 6 
#
# 1 0.019450 0.003714 -0.013964 0.000000 0.000000 -0.003301
# 2 0.003714 0.019450 -0.013964 0.000000 0.000000 0.003301
# 3 -0.013964 -0.013964 0.049764 0.000000 0.000000 0.000000
# 4 0.000000 0.000000 0.000000 0.043438 0.000000 0.000000
# 5 0.000000 0.000000 0.000000 0.000000 0.043438 0.000000
# 6 -0.003301 0.003301 0.000000 0.000000 0.000000 0.168478
#
#
# Mechanical properties :
#
#
# Convention : Reuss Voigt Hill
#
# Bulk Modulus (GPa) = 24.85270 26.00871 25.43070
# Shear Modulus (GPa) = 12.31952 18.57136 15.44544
#
# Velocity S-wave (km/s) = 2.58234 3.17057 2.89145
# Velocity P-wave (km/s) = 4.72693 5.24230 4.99127
#
# Compressibility (1/GPa) = 0.04023708
#
# Stress axis : x y z
#
# Youngs Moduli (GPa) = 51.41348 51.41348 20.09469
#
# Poissons Ratio (x) = -0.19097 0.28060
# Poissons Ratio (y) = -0.19097 0.28060
# Poissons Ratio (z) = 0.71794 0.71794
#
# Static dielectric constant tensor:
#      x y z
#    x 1.649820 0.000000 0.000000 
#    y 0.000000 1.649820 0.000000 
#    z 0.000000 0.000000 1.687570 
# 
# From -- ./inp_files/2342.got.cif
#   From: 2010.05.17/outbox.cif.g08.bks.cpg/sg88_2_cif.got.tgz:2342.got - 2010.06.03 19:11:41.
