data_PCOD9546252
_publ_section_title
;
Structure prediction by ZEFSAII (Michael W. Deem and Ramdas Pophale) SiO2 
 PCOD9546252
Probable space group: I 41/A
;
_chemical_formula_sum "Si O2"
_cell_formula_units_Z 84
_cell_length_a 15.109946
_cell_length_b 15.109946
_cell_length_c 19.489686
_cell_angle_alpha 90.000000
_cell_angle_beta 90.000000
_cell_angle_gamma 90.000000
_cell_volume 4449.699334
_symmetry_space_group_name_H-M "I 41/A"
_symmetry_group_IT_number 88
_space_group.IT_coordinate_system_code '2'
_symmetry_cell_setting 'tetragonal'
loop_
_space_group_symop_operation_xyz
x,y,z
3/4-y,1/4+x,1/4+z
-x,1/2-y,z
1/4+y,1/4-x,1/4+z
-x,-y,-z
1/4+y,3/4-x,3/4-z
x,1/2+y,-z
3/4-y,3/4+x,3/4-z
1/2+x,1/2+y,1/2+z
1/4-y,3/4+x,3/4+z
1/2-x,-y,1/2+z
3/4+y,3/4-x,3/4+z
1/2-x,1/2-y,1/2-z
3/4+y,1/4-x,1/4-z
1/2+x,y,1/2-z
1/4-y,1/4+x,1/4-z
loop_
_atom_site_type_symbol
_atom_site_label
_atom_site_fract_x
_atom_site_fract_y
_atom_site_fract_z
Si Si1 0.329827 0.928772 0.028015
Si Si2 0.970017 0.879237 0.270894
Si Si3 0.000000 0.750000 0.375000
Si Si4 0.210111 0.175920 0.894596
Si Si5 0.098916 0.773495 0.636937
Si Si6 0.635591 0.077933 0.128974
O O1 0.362914 0.826298 0.031040
O O2 0.233423 0.926956 0.062717
O O3 0.387537 0.992187 0.076871
O O4 0.332605 0.949768 0.947163
O O5 0.955649 0.847703 0.194456
O O6 0.938462 0.806661 0.325248
O O7 0.926559 0.970673 0.292898
O O8 0.119483 0.126463 0.915643
O O9 0.186562 0.279088 0.880268
O O10 0.000000 0.750000 0.661284
O O11 0.847210 0.817674 0.642574
#
# Coordination Sequence:
#
# PCOD9546252 Si02
#       6
#    16  16   4  16  16  16
#     4  10  19  30  46  70  98 127 167 197 239 292
#     4  10  19  27  41  68  98 133 161 192 233 282
#     4  12  16  24  36  60 100 128 156 180 228 282
#     4  10  19  28  47  70  97 131 166 195 232 293
#     4   9  18  32  46  64  99 134 161 197 239 288
#     4   9  20  33  46  70 101 133 160 202 245 287
#
# _framework density 18.877679000000001
#
# number of rings (size 3 to 8) (size 9 to 14) (size 15 to 20)
#    0.000    2.286    2.857    0.571    2.667    0.000 
#    0.000    0.000    0.000    1.143    0.000    0.000 
#    0.000    0.000    0.000    0.000    0.000    0.000 
#
# Total GULP energy -234073.960278 kJ/mol
# GULP energy per Si atom -5573.189530 kJ/mol
# Density = 1.883471 g / cm^3
# Si number density = 18.877679 Si / 1000 Ang^3
#
#
#
# Elastic Constant Matrix: (Units=GPa)
#
#
# Indices 1 2 3 4 5 6 
#
# 1 67.8895 12.4872 1.9420 0.0000 0.0000 2.3051
# 2 12.4872 67.8895 1.9420 0.0000 0.0000 -2.3051
# 3 1.9420 1.9420 26.7670 0.0000 0.0000 0.0000
# 4 0.0000 0.0000 0.0000 13.8729 0.0000 0.0000
# 5 0.0000 0.0000 0.0000 0.0000 13.8729 0.0000
# 6 2.3051 -2.3051 0.0000 0.0000 0.0000 11.1664
#
#
#
# Elastic Compliance Matrix: (Units=1/GPa)
#
#
# Indices 1 2 3 4 5 6 
#
# 1 0.015425 -0.002940 -0.000906 0.000000 0.000000 -0.003791
# 2 -0.002940 0.015425 -0.000906 0.000000 0.000000 0.003791
# 3 -0.000906 -0.000906 0.037491 0.000000 0.000000 0.000000
# 4 0.000000 0.000000 0.000000 0.072083 0.000000 0.000000
# 5 0.000000 0.000000 0.000000 0.000000 0.072083 0.000000
# 6 -0.003791 0.003791 0.000000 0.000000 0.000000 0.091120
#
#
# Mechanical properties :
#
#
# Convention : Reuss Voigt Hill
#
# Bulk Modulus (GPa) = 16.99580 21.69868 19.34724
# Shear Modulus (GPa) = 15.02658 17.52741 16.27699
#
# Velocity S-wave (km/s) = 2.82440 3.05039 2.93957
# Velocity P-wave (km/s) = 4.43385 4.89140 4.66823
#
# Compressibility (1/GPa) = 0.05883807
#
# Stress axis : x y z
#
# Youngs Moduli (GPa) = 64.82887 64.82887 26.67313
#
# Poissons Ratio (x) = 0.19060 0.02416
# Poissons Ratio (y) = 0.19060 0.02416
# Poissons Ratio (z) = 0.05872 0.05872
#
# Static dielectric constant tensor:
#      x y z
#    x 1.698290 0.000000 0.000000 
#    y 0.000000 1.698290 0.000000 
#    z 0.000000 0.000000 1.633000 
# 
# From -- ./inp_files/4799.got.cif
#   From: 2010.05.17/outbox.cif.g08.bks.cpg/sg88_3_cif.got.tgz:4799.got - 2010.06.03 19:11:41.
