data_PCOD9546071
_publ_section_title
;
Structure prediction by ZEFSAII (Michael W. Deem and Ramdas Pophale) SiO2 
 PCOD9546071
Probable space group: I 4/M
;
_chemical_formula_sum "Si O2"
_cell_formula_units_Z 72
_cell_length_a 10.952428
_cell_length_b 10.952428
_cell_length_c 28.547739
_cell_angle_alpha 90.000000
_cell_angle_beta 90.000000
_cell_angle_gamma 90.000000
_cell_volume 3424.463418
_symmetry_space_group_name_H-M "I 4/M"
_symmetry_group_IT_number 87
_symmetry_cell_setting 'tetragonal'
loop_
_space_group_symop_operation_xyz
x,y,z
-y,x,z
-x,-y,z
y,-x,z
-x,-y,-z
y,-x,-z
x,y,-z
-y,x,-z
1/2+x,1/2+y,1/2+z
1/2-y,1/2+x,1/2+z
1/2-x,1/2-y,1/2+z
1/2+y,1/2-x,1/2+z
1/2-x,1/2-y,1/2-z
1/2+y,1/2-x,1/2-z
1/2+x,1/2+y,1/2-z
1/2-y,1/2+x,1/2-z
loop_
_atom_site_type_symbol
_atom_site_label
_atom_site_fract_x
_atom_site_fract_y
_atom_site_fract_z
Si Si1 0.302924 0.441494 0.500000
Si Si2 0.041407 0.299707 0.253581
Si Si3 0.562628 0.122257 0.586320
Si Si4 0.031591 0.195302 0.847025
Si Si5 0.058889 0.194309 0.356711
O O1 0.420418 0.354167 0.500000
O O2 0.220364 0.421952 0.545560
O O3 0.137700 0.408354 0.245018
O O4 0.069001 0.233893 0.302254
O O5 0.042760 0.214591 0.208289
O O6 0.470854 0.178049 0.625669
O O7 0.690021 0.091997 0.611629
O O8 0.500000 0.000000 0.567561
O O9 0.134184 0.098091 0.860007
O O10 0.921018 0.147217 0.364984
#
# Coordination Sequence:
#
# PCOD9546071 Si02
#       5
#     8  16  16  16  16
#     4  11  27  52  82 111 138 172 222 295 361 410
#     4  11  22  37  61  97 137 187 240 292 342 403
#     4  12  26  45  74 106 139 179 228 282 353 417
#     4  11  24  40  65  99 135 183 238 293 345 401
#     4  11  26  44  65  98 143 192 235 283 344 416
#
# _framework density 21.025191
#
# number of rings (size 3 to 8) (size 9 to 14) (size 15 to 20)
#    0.000    0.778    2.222    4.333    9.333    5.333 
#    0.000    0.000    0.000    1.333    0.000    0.000 
#    0.000    0.000    0.000    0.000    0.000    0.000 
#
# Total GULP energy -201647.842944 kJ/mol
# GULP energy per Si atom -5601.328971 kJ/mol
# Density = 2.097734 g / cm^3
# Si number density = 21.025191 Si / 1000 Ang^3
#
#
#
# Elastic Constant Matrix: (Units=GPa)
#
#
# Indices 1 2 3 4 5 6 
#
# 1 89.7024 35.9343 48.0056 0.0000 0.0000 0.4636
# 2 35.9343 89.7024 48.0056 0.0000 0.0000 -0.4636
# 3 48.0056 48.0056 133.5488 0.0000 0.0000 0.0000
# 4 0.0000 0.0000 0.0000 -117.5273 0.0000 0.0000
# 5 0.0000 0.0000 0.0000 0.0000 -117.5273 0.0000
# 6 0.4636 -0.4636 0.0000 0.0000 0.0000 11.7424
#
#
#
# Elastic Compliance Matrix: (Units=1/GPa)
#
#
# Indices 1 2 3 4 5 6 
#
# 1 0.014793 -0.003819 -0.003945 0.000000 0.000000 -0.000735
# 2 -0.003819 0.014793 -0.003945 0.000000 0.000000 0.000735
# 3 -0.003945 -0.003945 0.010324 0.000000 0.000000 0.000000
# 4 0.000000 0.000000 0.000000 -0.008509 0.000000 0.000000
# 5 0.000000 0.000000 0.000000 0.000000 -0.008509 0.000000
# 6 -0.000735 0.000735 0.000000 0.000000 0.000000 0.085219
#
#
# Mechanical properties :
#
#
# Convention : Reuss Voigt Hill
#
# Bulk Modulus (GPa) = 60.63195 64.09383 62.36289
# Shear Modulus (GPa) = 36.48978 -32.59522 1.94728
#
# Velocity S-wave (km/s) = 4.17048 -3.94165 0.96342
# Velocity P-wave (km/s) = 7.21741 3.13608 5.56444
#
# Compressibility (1/GPa) = 0.01649295
#
# Stress axis : x y z
#
# Youngs Moduli (GPa) = 67.60167 67.60167 96.86317
#
# Poissons Ratio (x) = 0.25814 0.38210
# Poissons Ratio (y) = 0.25814 0.38210
# Poissons Ratio (z) = 0.26667 0.26667
#
# Static dielectric constant tensor:
#      x y z
#    x 1.756320 0.000000 0.000000 
#    y 0.000000 1.756320 0.000000 
#    z 0.000000 0.000000 1.719080 
# 
# From -- ./inp_files/6162.got.cif
#   From: 2010.05.17/outbox.cif.g08.bks.cpg/sg87_4_cif.got.tgz:6162.got - 2010.06.03 19:07:00.
