data_PCOD9546678
_publ_section_title
;
Structure prediction by ZEFSAII (Michael W. Deem and Ramdas Pophale) SiO2 
 PCOD9546678
Probable space group: I 41/A
;
_chemical_formula_sum "Si O2"
_cell_formula_units_Z 64
_cell_length_a 18.487155
_cell_length_b 18.487155
_cell_length_c 8.040837
_cell_angle_alpha 90.000000
_cell_angle_beta 90.000000
_cell_angle_gamma 90.000000
_cell_volume 2748.156262
_symmetry_space_group_name_H-M "I 41/A"
_symmetry_group_IT_number 88
_space_group.IT_coordinate_system_code '2'
_symmetry_cell_setting 'tetragonal'
loop_
_space_group_symop_operation_xyz
x,y,z
3/4-y,1/4+x,1/4+z
-x,1/2-y,z
1/4+y,1/4-x,1/4+z
-x,-y,-z
1/4+y,3/4-x,3/4-z
x,1/2+y,-z
3/4-y,3/4+x,3/4-z
1/2+x,1/2+y,1/2+z
1/4-y,3/4+x,3/4+z
1/2-x,-y,1/2+z
3/4+y,3/4-x,3/4+z
1/2-x,1/2-y,1/2-z
3/4+y,1/4-x,1/4-z
1/2+x,y,1/2-z
1/4-y,1/4+x,1/4-z
loop_
_atom_site_type_symbol
_atom_site_label
_atom_site_fract_x
_atom_site_fract_y
_atom_site_fract_z
Si Si1 0.975801 0.584451 0.710173
Si Si2 0.118410 0.776376 0.373534
Si Si3 0.278755 0.923295 0.359938
Si Si4 0.158665 0.821737 0.730247
O O1 0.030168 0.595831 0.557537
O O2 0.912244 0.534111 0.635151
O O3 0.926043 0.654907 0.756813
O O4 0.019953 0.565301 0.874388
O O5 0.053408 0.833723 0.375309
O O6 0.159314 0.786835 0.547262
O O7 0.295437 0.954873 0.180271
O O8 0.198614 0.899785 0.716425
#
# Coordination Sequence:
#
# PCOD9546678 Si02
#       4
#    16  16  16  16
#     4   9  19  36  65  96 129 163 209 262 316 376
#     4   9  16  30  59  96 137 158 192 255 328 379
#     4  10  24  48  63  87 126 178 220 255 322 394
#     4   9  19  36  65  95 132 159 212 261 316 376
#
# _framework density 23.288339000000001
#
# number of rings (size 3 to 8) (size 9 to 14) (size 15 to 20)
#    1.500    1.250    0.000    1.500    0.000    3.500 
#    9.000    1.250    0.000    0.000    0.000    0.000 
#    0.000    0.000    0.000    0.000    0.000    0.000 
#
# Total GULP energy -178329.217148 kJ/mol
# GULP energy per Si atom -5572.788036 kJ/mol
# Density = 2.323533 g / cm^3
# Si number density = 23.288339 Si / 1000 Ang^3
#
#
#
# Elastic Constant Matrix: (Units=GPa)
#
#
# Indices 1 2 3 4 5 6 
#
# 1 53.3092 4.3344 26.8798 0.0000 0.0000 -0.9970
# 2 4.3344 53.3092 26.8798 0.0000 0.0000 0.9970
# 3 26.8798 26.8798 113.3225 0.0000 0.0000 0.0000
# 4 0.0000 0.0000 0.0000 29.0367 0.0000 0.0000
# 5 0.0000 0.0000 0.0000 0.0000 29.0367 0.0000
# 6 -0.9970 0.9970 0.0000 0.0000 0.0000 8.5098
#
#
#
# Elastic Compliance Matrix: (Units=1/GPa)
#
#
# Indices 1 2 3 4 5 6 
#
# 1 0.021396 0.000880 -0.005284 0.000000 0.000000 0.002404
# 2 0.000880 0.021396 -0.005284 0.000000 0.000000 -0.002404
# 3 -0.005284 -0.005284 0.011331 0.000000 0.000000 0.000000
# 4 0.000000 0.000000 0.000000 0.034439 0.000000 0.000000
# 5 0.000000 0.000000 0.000000 0.000000 0.034439 0.000000
# 6 0.002404 -0.002404 0.000000 0.000000 0.000000 0.118075
#
#
# Mechanical properties :
#
#
# Convention : Reuss Voigt Hill
#
# Bulk Modulus (GPa) = 28.77914 37.34765 33.06340
# Shear Modulus (GPa) = 18.38000 24.10644 21.24322
#
# Velocity S-wave (km/s) = 2.81238 3.22083 3.02351
# Velocity P-wave (km/s) = 4.78859 5.46841 5.13975
#
# Compressibility (1/GPa) = 0.03474739
#
# Stress axis : x y z
#
# Youngs Moduli (GPa) = 46.73748 46.73748 88.25394
#
# Poissons Ratio (x) = -0.04111 0.46631
# Poissons Ratio (y) = -0.04111 0.46631
# Poissons Ratio (z) = 0.24695 0.24695
#
# Static dielectric constant tensor:
#      x y z
#    x 1.922470 0.000000 0.000000 
#    y 0.000000 1.922470 0.000000 
#    z 0.000000 0.000000 1.861200 
# 
# From -- ./inp_files/569.got.cif
#   From: 2010.05.17/outbox.cif.g08.bks.cpg/sg88_1_cif.got.tgz:569.got - 2010.06.03 19:11:41.
