data_PCOD9546864
_publ_section_title
;
Structure prediction by ZEFSAII (Michael W. Deem and Ramdas Pophale) SiO2 
 PCOD9546864
Probable space group: I 41/A
;
_chemical_formula_sum "Si O2"
_cell_formula_units_Z 44
_cell_length_a 8.301527
_cell_length_b 8.301527
_cell_length_c 26.285056
_cell_angle_alpha 90.000000
_cell_angle_beta 90.000000
_cell_angle_gamma 90.000000
_cell_volume 1811.443848
_symmetry_space_group_name_H-M "I 41/A"
_symmetry_group_IT_number 88
_space_group.IT_coordinate_system_code '2'
_symmetry_cell_setting 'tetragonal'
loop_
_space_group_symop_operation_xyz
x,y,z
3/4-y,1/4+x,1/4+z
-x,1/2-y,z
1/4+y,1/4-x,1/4+z
-x,-y,-z
1/4+y,3/4-x,3/4-z
x,1/2+y,-z
3/4-y,3/4+x,3/4-z
1/2+x,1/2+y,1/2+z
1/4-y,3/4+x,3/4+z
1/2-x,-y,1/2+z
3/4+y,3/4-x,3/4+z
1/2-x,1/2-y,1/2-z
3/4+y,1/4-x,1/4-z
1/2+x,y,1/2-z
1/4-y,1/4+x,1/4-z
loop_
_atom_site_type_symbol
_atom_site_label
_atom_site_fract_x
_atom_site_fract_y
_atom_site_fract_z
Si Si1 0.192617 0.224856 0.060471
Si Si2 0.734456 0.138894 0.951708
Si Si3 0.000000 0.750000 0.116512
Si Si4 0.500000 0.250000 0.875000
O O1 0.331628 0.263169 0.102339
O O2 0.000000 0.250000 0.069556
O O3 0.194636 0.036622 0.049610
O O4 0.264134 0.308275 0.009788
O O5 0.575891 0.129013 0.916385
O O6 0.847283 0.261580 0.920836
#
# Coordination Sequence:
#
# PCOD9546864 Si02
#       4
#    16  16   8   4
#     4  12  29  50  81 113 162 211 272 337 410 493
#     4  12  28  50  77 118 155 210 274 332 411 488
#     4  12  29  48  78 117 159 210 262 337 410 484
#     4  12  26  48  80 112 168 204 264 342 404 488
#
# _framework density 24.290013999999999
#
# number of rings (size 3 to 8) (size 9 to 14) (size 15 to 20)
#    0.000    0.000    5.455    2.182   10.182    2.909 
#    0.000    0.000    0.000    0.000    0.000    0.000 
#    0.000    0.000    0.000    0.000    0.000    0.000 
#
# Total GULP energy -122841.348815 kJ/mol
# GULP energy per Si atom -5583.697673 kJ/mol
# Density = 2.423473 g / cm^3
# Si number density = 24.290014 Si / 1000 Ang^3
#
#
#
# Elastic Constant Matrix: (Units=GPa)
#
#
# Indices 1 2 3 4 5 6 
#
# 1 62.2992 2.4979 2.3664 0.0000 0.0000 11.1370
# 2 2.4979 62.2992 2.3664 0.0000 0.0000 -11.1370
# 3 2.3664 2.3664 94.7979 0.0000 0.0000 0.0000
# 4 0.0000 0.0000 0.0000 -10.4750 0.0000 0.0000
# 5 0.0000 0.0000 0.0000 0.0000 -10.4750 0.0000
# 6 11.1370 -11.1370 0.0000 0.0000 0.0000 39.2674
#
#
#
# Elastic Compliance Matrix: (Units=1/GPa)
#
#
# Indices 1 2 3 4 5 6 
#
# 1 0.017079 -0.001618 -0.000386 0.000000 0.000000 -0.005303
# 2 -0.001618 0.017079 -0.000386 0.000000 0.000000 0.005303
# 3 -0.000386 -0.000386 0.010568 0.000000 0.000000 0.000000
# 4 0.000000 0.000000 0.000000 -0.095465 0.000000 0.000000
# 5 0.000000 0.000000 0.000000 0.000000 -0.095466 0.000000
# 6 -0.005303 0.005303 0.000000 0.000000 0.000000 0.028474
#
#
# Mechanical properties :
#
#
# Convention : Reuss Voigt Hill
#
# Bulk Modulus (GPa) = 25.03369 25.98421 25.50895
# Shear Modulus (GPa) = -50.18319 17.80785 -16.18767
#
# Velocity S-wave (km/s) = -4.55026 2.71058 -2.58434
# Velocity P-wave (km/s) = 4.15667 4.52958 1.27262
#
# Compressibility (1/GPa) = 0.03994616
#
# Stress axis : x y z
#
# Youngs Moduli (GPa) = 58.55115 58.55113 94.62509
#
# Poissons Ratio (x) = 0.09474 0.03652
# Poissons Ratio (y) = 0.09474 0.03652
# Poissons Ratio (z) = 0.02260 0.02260
#
# Static dielectric constant tensor:
#      x y z
#    x 2.171050 0.000000 0.000000 
#    y 0.000000 2.171050 0.000000 
#    z 0.000000 0.000000 1.942080 
# 
# From -- ./inp_files/5559.got.cif
#   From: 2010.05.17/outbox.cif.g08.bks.cpg/sg88_3_cif.got.tgz:5559.got - 2010.06.03 19:11:41.
