data_PCOD9546540
_publ_section_title
;
Structure prediction by ZEFSAII (Michael W. Deem and Ramdas Pophale) SiO2 
 PCOD9546540
Probable space group: I 41/A
;
_chemical_formula_sum "Si O2"
_cell_formula_units_Z 116
_cell_length_a 17.408697
_cell_length_b 17.408697
_cell_length_c 18.761747
_cell_angle_alpha 90.000000
_cell_angle_beta 90.000000
_cell_angle_gamma 90.000000
_cell_volume 5685.986289
_symmetry_space_group_name_H-M "I 41/A"
_symmetry_group_IT_number 88
_space_group.IT_coordinate_system_code '2'
_symmetry_cell_setting 'tetragonal'
loop_
_space_group_symop_operation_xyz
x,y,z
3/4-y,1/4+x,1/4+z
-x,1/2-y,z
1/4+y,1/4-x,1/4+z
-x,-y,-z
1/4+y,3/4-x,3/4-z
x,1/2+y,-z
3/4-y,3/4+x,3/4-z
1/2+x,1/2+y,1/2+z
1/4-y,3/4+x,3/4+z
1/2-x,-y,1/2+z
3/4+y,3/4-x,3/4+z
1/2-x,1/2-y,1/2-z
3/4+y,1/4-x,1/4-z
1/2+x,y,1/2-z
1/4-y,1/4+x,1/4-z
loop_
_atom_site_type_symbol
_atom_site_label
_atom_site_fract_x
_atom_site_fract_y
_atom_site_fract_z
Si Si1 0.524224 0.596653 0.037678
Si Si2 0.587348 0.978376 0.506636
Si Si3 0.364680 0.548319 0.762057
Si Si4 0.311200 0.598087 0.410337
Si Si5 0.564975 0.362122 0.371447
Si Si6 0.686977 0.019368 0.001796
Si Si7 0.500000 0.250000 0.875000
Si Si8 0.297566 0.259956 0.634215
O O1 0.525585 0.679237 0.074271
O O2 0.482995 0.537744 0.091349
O O3 0.606391 0.552820 0.028218
O O4 0.484292 0.593463 0.959595
O O5 0.615669 0.952470 0.429220
O O6 0.595701 0.908079 0.560574
O O7 0.500000 0.000000 0.500000
O O8 0.640356 0.048466 0.530921
O O9 0.412044 0.587041 0.697396
O O10 0.316689 0.471388 0.738991
O O11 0.418891 0.539621 0.831013
O O12 0.277098 0.570397 0.336050
O O13 0.249999 0.577095 0.470481
O O14 0.332006 0.687110 0.406676
O O15 0.600924 0.276810 0.369686
#
# Coordination Sequence:
#
# PCOD9546540 Si02
#       8
#    16  16  16  16  16  16   4  16
#     4  10  23  43  69  96 144 169 229 281 339 418
#     4  11  24  41  61  95 130 169 226 275 325 407
#     4  11  24  39  70  97 130 179 230 278 341 402
#     4  10  22  38  64  88 135 168 221 276 342 394
#     4  11  24  44  66  96 139 179 217 277 348 411
#     4  10  22  40  65  99 126 180 220 285 330 407
#     4  12  24  48  72 108 140 192 222 288 372 416
#     4  10  22  43  63 101 131 179 224 279 339 405
#
# _framework density 20.401035
#
# number of rings (size 3 to 8) (size 9 to 14) (size 15 to 20)
#    0.000    1.517    1.379    2.483    9.655    3.310 
#    4.966    0.000    0.000    0.000    0.000    0.000 
#    0.000    0.000    0.000    0.000    0.000    0.000 
#
# Total GULP energy -323589.614706 kJ/mol
# GULP energy per Si atom -5579.131288 kJ/mol
# Density = 2.035460 g / cm^3
# Si number density = 20.401035 Si / 1000 Ang^3
#
#
#
# Elastic Constant Matrix: (Units=GPa)
#
#
# Indices 1 2 3 4 5 6 
#
# 1 103.6372 36.3770 52.7666 0.0000 0.0000 -3.1335
# 2 36.3770 103.6372 52.7666 0.0000 0.0000 3.1335
# 3 52.7666 52.7666 91.2769 0.0000 0.0000 0.0000
# 4 0.0000 0.0000 0.0000 33.6948 0.0000 0.0000
# 5 0.0000 0.0000 0.0000 0.0000 33.6948 0.0000
# 6 -3.1335 3.1335 0.0000 0.0000 0.0000 23.7386
#
#
#
# Elastic Compliance Matrix: (Units=1/GPa)
#
#
# Indices 1 2 3 4 5 6 
#
# 1 0.013855 -0.001198 -0.007317 0.000000 0.000000 0.001987
# 2 -0.001198 0.013855 -0.007317 0.000000 0.000000 -0.001987
# 3 -0.007317 -0.007317 0.019416 0.000000 0.000000 0.000000
# 4 0.000000 0.000000 0.000000 0.029678 0.000000 0.000000
# 5 0.000000 0.000000 0.000000 0.000000 0.029678 0.000000
# 6 0.001987 -0.001987 0.000000 0.000000 0.000000 0.042650
#
#
# Mechanical properties :
#
#
# Convention : Reuss Voigt Hill
#
# Bulk Modulus (GPa) = 64.67559 64.70795 64.69177
# Shear Modulus (GPa) = 26.88898 28.66836 27.77867
#
# Velocity S-wave (km/s) = 3.63439 3.75272 3.69403
# Velocity P-wave (km/s) = 7.02728 7.11084 7.06918
#
# Compressibility (1/GPa) = 0.01546178
#
# Stress axis : x y z
#
# Youngs Moduli (GPa) = 72.17604 72.17604 51.50505
#
# Poissons Ratio (x) = 0.08645 0.37687
# Poissons Ratio (y) = 0.08645 0.37687
# Poissons Ratio (z) = 0.52812 0.52812
#
# Static dielectric constant tensor:
#      x y z
#    x 1.768330 0.000000 0.000000 
#    y 0.000000 1.768330 0.000000 
#    z 0.000000 0.000000 1.732320 
# 
# From -- ./inp_files/4021.got.cif
#   From: 2010.05.17/outbox.cif.g08.bks.cpg/sg88_3_cif.got.tgz:4021.got - 2010.06.03 19:11:41.
