data_PCOD9546589
_publ_section_title
;
Structure prediction by ZEFSAII (Michael W. Deem and Ramdas Pophale) SiO2 
 PCOD9546589
Probable space group: I 41/A
;
_chemical_formula_sum "Si O2"
_cell_formula_units_Z 88
_cell_length_a 16.055927
_cell_length_b 16.055927
_cell_length_c 15.279335
_cell_angle_alpha 90.000000
_cell_angle_beta 90.000000
_cell_angle_gamma 90.000000
_cell_volume 3938.902427
_symmetry_space_group_name_H-M "I 41/A"
_symmetry_group_IT_number 88
_space_group.IT_coordinate_system_code '2'
_symmetry_cell_setting 'tetragonal'
loop_
_space_group_symop_operation_xyz
x,y,z
3/4-y,1/4+x,1/4+z
-x,1/2-y,z
1/4+y,1/4-x,1/4+z
-x,-y,-z
1/4+y,3/4-x,3/4-z
x,1/2+y,-z
3/4-y,3/4+x,3/4-z
1/2+x,1/2+y,1/2+z
1/4-y,3/4+x,3/4+z
1/2-x,-y,1/2+z
3/4+y,3/4-x,3/4+z
1/2-x,1/2-y,1/2-z
3/4+y,1/4-x,1/4-z
1/2+x,y,1/2-z
1/4-y,1/4+x,1/4-z
loop_
_atom_site_type_symbol
_atom_site_label
_atom_site_fract_x
_atom_site_fract_y
_atom_site_fract_z
Si Si1 0.343105 0.291621 0.788221
Si Si2 0.400674 0.014854 0.120807
Si Si3 0.500000 0.250000 0.875000
Si Si4 0.836271 0.495566 0.336251
Si Si5 0.432013 0.579413 0.683837
Si Si6 0.738809 0.349191 0.392649
Si Si7 0.500000 0.750000 0.625000
O O1 0.339053 0.311119 0.686315
O O2 0.309962 0.203161 0.824198
O O3 0.437135 0.300664 0.816085
O O4 0.281747 0.355261 0.837687
O O5 0.414471 0.035727 0.222411
O O6 0.305147 0.994414 0.097877
O O7 0.811655 0.399321 0.344428
O O8 0.881982 0.505915 0.244527
O O9 0.500046 0.522758 0.632489
O O10 0.345748 0.603531 0.637163
O O11 0.478458 0.669690 0.684893
#
# Coordination Sequence:
#
# PCOD9546589 Si02
#       7
#    16  16   4  16  16  16   4
#     4  11  24  40  65  94 130 175 220 281 338 398
#     4  11  23  42  65  94 135 175 218 276 348 397
#     4  12  24  42  64  96 128 170 224 276 334 412
#     4  12  22  42  66  97 132 178 223 279 334 404
#     4  10  22  43  67  98 135 181 218 282 342 403
#     4  11  24  41  69  97 136 176 229 278 335 408
#     4   8  20  42  68  96 140 178 228 276 334 416
#
# _framework density 22.341248
#
# number of rings (size 3 to 8) (size 9 to 14) (size 15 to 20)
#    0.000    1.091    5.455    1.091    0.000    1.455 
#    0.000    1.818    0.000    0.000    0.000    0.000 
#    0.000    0.000    0.000    0.000    0.000    0.000 
#
# Total GULP energy -245391.979589 kJ/mol
# GULP energy per Si atom -5577.090445 kJ/mol
# Density = 2.229040 g / cm^3
# Si number density = 22.341248 Si / 1000 Ang^3
#
#
#
# Elastic Constant Matrix: (Units=GPa)
#
#
# Indices 1 2 3 4 5 6 
#
# 1 43.4163 1.7845 7.0258 0.0000 0.0000 2.8668
# 2 1.7845 43.4163 7.0258 0.0000 0.0000 -2.8668
# 3 7.0258 7.0258 73.2743 0.0000 0.0000 0.0000
# 4 0.0000 0.0000 0.0000 -10.3901 0.0000 0.0000
# 5 0.0000 0.0000 0.0000 0.0000 -10.3901 0.0000
# 6 2.8668 -2.8668 0.0000 0.0000 0.0000 16.8253
#
#
#
# Elastic Compliance Matrix: (Units=1/GPa)
#
#
# Indices 1 2 3 4 5 6 
#
# 1 0.023700 -0.000897 -0.002186 0.000000 0.000000 -0.004191
# 2 -0.000897 0.023700 -0.002186 0.000000 0.000000 0.004191
# 3 -0.002186 -0.002186 0.014067 0.000000 0.000000 0.000000
# 4 0.000000 0.000000 0.000000 -0.096245 0.000000 0.000000
# 5 0.000000 0.000000 0.000000 0.000000 -0.096245 0.000000
# 6 -0.004191 0.004191 0.000000 0.000000 0.000000 0.060862
#
#
# Mechanical properties :
#
#
# Convention : Reuss Voigt Hill
#
# Bulk Modulus (GPa) = 19.63589 21.30882 20.47236
# Shear Modulus (GPa) = -117.24673 8.82706 -54.20983
#
# Velocity S-wave (km/s) = -7.25216 1.98987 -4.93124
# Velocity P-wave (km/s) = 7.83052 3.85202 4.82073
#
# Compressibility (1/GPa) = 0.05092715
#
# Stress axis : x y z
#
# Youngs Moduli (GPa) = 42.19367 42.19367 71.09015
#
# Poissons Ratio (x) = 0.03785 0.15544
# Poissons Ratio (y) = 0.03785 0.15544
# Poissons Ratio (z) = 0.09225 0.09225
#
# Static dielectric constant tensor:
#      x y z
#    x 1.911430 0.000000 0.000000 
#    y 0.000000 1.911430 0.000000 
#    z 0.000000 0.000000 1.799920 
# 
# From -- ./inp_files/3258.got.cif
#   From: 2010.05.17/outbox.cif.g08.bks.cpg/sg88_2_cif.got.tgz:3258.got - 2010.06.03 19:11:41.
