data_PCOD9546719
_publ_section_title
;
Structure prediction by ZEFSAII (Michael W. Deem and Ramdas Pophale) SiO2 
 PCOD9546719
Probable space group: I 41/A
;
_chemical_formula_sum "Si O2"
_cell_formula_units_Z 120
_cell_length_a 19.966884
_cell_length_b 19.966884
_cell_length_c 14.717909
_cell_angle_alpha 90.000000
_cell_angle_beta 90.000000
_cell_angle_gamma 90.000000
_cell_volume 5867.683810
_symmetry_space_group_name_H-M "I 41/A"
_symmetry_group_IT_number 88
_space_group.IT_coordinate_system_code '2'
_symmetry_cell_setting 'tetragonal'
loop_
_space_group_symop_operation_xyz
x,y,z
3/4-y,1/4+x,1/4+z
-x,1/2-y,z
1/4+y,1/4-x,1/4+z
-x,-y,-z
1/4+y,3/4-x,3/4-z
x,1/2+y,-z
3/4-y,3/4+x,3/4-z
1/2+x,1/2+y,1/2+z
1/4-y,3/4+x,3/4+z
1/2-x,-y,1/2+z
3/4+y,3/4-x,3/4+z
1/2-x,1/2-y,1/2-z
3/4+y,1/4-x,1/4-z
1/2+x,y,1/2-z
1/4-y,1/4+x,1/4-z
loop_
_atom_site_type_symbol
_atom_site_label
_atom_site_fract_x
_atom_site_fract_y
_atom_site_fract_z
Si Si1 0.312319 0.595508 0.442123
Si Si2 0.958503 0.053730 0.943892
Si Si3 0.141332 0.254426 0.963340
Si Si4 0.262257 0.711068 0.154064
Si Si5 0.000000 0.750000 0.601481
Si Si6 0.476838 0.109528 0.751588
Si Si7 0.837473 0.928941 0.485434
Si Si8 0.105562 0.224522 0.144260
O O1 0.377650 0.547890 0.449314
O O2 0.333780 0.668775 0.477166
O O3 0.242770 0.569000 0.480456
O O4 0.299557 0.606854 0.336256
O O5 0.973396 0.118831 0.004590
O O6 0.979779 0.063925 0.840204
O O7 0.000000 0.000000 0.000000
O O8 0.192343 0.221541 0.894614
O O9 0.066937 0.250687 0.916481
O O10 0.152736 0.214840 0.058067
O O11 0.250000 0.750000 0.250000
O O12 0.277481 0.632892 0.169796
O O13 0.321952 0.738613 0.087129
O O14 0.066590 0.748558 0.536049
O O15 0.397977 0.110954 0.775213
O O16 0.046445 0.173380 0.129657
#
# Coordination Sequence:
#
# PCOD9546719 Si02
#       8
#    16  16  16  16   8  16  16  16
#     4  11  23  45  71  92 144 189 232 286 354 432
#     4  11  23  40  67 104 137 185 233 287 356 427
#     4  12  22  42  69 101 141 180 228 296 354 421
#     4  12  24  43  70  98 135 187 239 296 355 429
#     4  12  22  42  68 110 138 176 234 302 370 418
#     4  11  23  42  68 102 146 179 238 305 355 427
#     4  11  23  45  69  98 132 196 238 276 365 432
#     4  11  21  36  64  98 132 173 219 278 353 417
#
# _framework density 20.450998999999999
#
# number of rings (size 3 to 8) (size 9 to 14) (size 15 to 20)
#    0.000    0.667    6.667    2.400    1.867    3.200 
#    0.000    6.000    0.000    0.000    0.000    0.000 
#    0.000    0.000    0.000    0.000    0.000    0.000 
#
# Total GULP energy -334446.311226 kJ/mol
# GULP energy per Si atom -5574.105187 kJ/mol
# Density = 2.040445 g / cm^3
# Si number density = 20.450999 Si / 1000 Ang^3
#
#
#
# Elastic Constant Matrix: (Units=GPa)
#
#
# Indices 1 2 3 4 5 6 
#
# 1 86.3753 24.8864 25.4010 0.0000 0.0000 3.3096
# 2 24.8864 86.3753 25.4010 0.0000 0.0000 -3.3096
# 3 25.4010 25.4010 95.5414 0.0000 0.0000 0.0000
# 4 0.0000 0.0000 0.0000 34.6240 0.0000 0.0000
# 5 0.0000 0.0000 0.0000 0.0000 34.6240 0.0000
# 6 3.3096 -3.3096 0.0000 0.0000 0.0000 28.4965
#
#
#
# Elastic Compliance Matrix: (Units=1/GPa)
#
#
# Indices 1 2 3 4 5 6 
#
# 1 0.013349 -0.003120 -0.002720 0.000000 0.000000 -0.001913
# 2 -0.003120 0.013349 -0.002720 0.000000 0.000000 0.001913
# 3 -0.002720 -0.002720 0.011913 0.000000 0.000000 0.000000
# 4 0.000000 0.000000 0.000000 0.028882 0.000000 0.000000
# 5 0.000000 0.000000 0.000000 0.000000 0.028882 0.000000
# 6 -0.001913 0.001913 0.000000 0.000000 0.000000 0.035536
#
#
# Mechanical properties :
#
#
# Convention : Reuss Voigt Hill
#
# Bulk Modulus (GPa) = 46.52613 46.62987 46.57800
# Shear Modulus (GPa) = 32.01156 32.38916 32.20036
#
# Velocity S-wave (km/s) = 3.96066 3.98395 3.97232
# Velocity P-wave (km/s) = 6.61174 6.63421 6.62299
#
# Compressibility (1/GPa) = 0.02149330
#
# Stress axis : x y z
#
# Youngs Moduli (GPa) = 74.91023 74.91023 83.94324
#
# Poissons Ratio (x) = 0.23370 0.22830
# Poissons Ratio (y) = 0.23370 0.22830
# Poissons Ratio (z) = 0.20373 0.20373
#
# Static dielectric constant tensor:
#      x y z
#    x 1.808520 0.000000 0.000000 
#    y 0.000000 1.808520 0.000000 
#    z 0.000000 0.000000 1.866560 
# 
# From -- ./inp_files/3366.got.cif
#   From: 2010.05.17/outbox.cif.g08.bks.cpg/sg88_2_cif.got.tgz:3366.got - 2010.06.03 19:11:41.
