data_PCOD9546063
_publ_section_title
;
Structure prediction by ZEFSAII (Michael W. Deem and Ramdas Pophale) SiO2 
 PCOD9546063
Probable space group: I 4/M
;
_chemical_formula_sum "Si O2"
_cell_formula_units_Z 112
_cell_length_a 14.920165
_cell_length_b 14.920165
_cell_length_c 25.362457
_cell_angle_alpha 90.000000
_cell_angle_beta 90.000000
_cell_angle_gamma 90.000000
_cell_volume 5645.970123
_symmetry_space_group_name_H-M "I 4/M"
_symmetry_group_IT_number 87
_symmetry_cell_setting 'tetragonal'
loop_
_space_group_symop_operation_xyz
x,y,z
-y,x,z
-x,-y,z
y,-x,z
-x,-y,-z
y,-x,-z
x,y,-z
-y,x,-z
1/2+x,1/2+y,1/2+z
1/2-y,1/2+x,1/2+z
1/2-x,1/2-y,1/2+z
1/2+y,1/2-x,1/2+z
1/2-x,1/2-y,1/2-z
1/2+y,1/2-x,1/2-z
1/2+x,1/2+y,1/2-z
1/2-y,1/2+x,1/2-z
loop_
_atom_site_type_symbol
_atom_site_label
_atom_site_fract_x
_atom_site_fract_y
_atom_site_fract_z
Si Si1 0.080993 0.128157 0.558740
Si Si2 0.155935 0.175996 0.332202
Si Si3 0.959363 0.858278 0.062868
Si Si4 0.952801 0.711206 0.853474
Si Si5 0.131747 0.646769 0.807040
Si Si6 0.936460 0.329015 0.687360
Si Si7 0.363786 0.556116 0.271458
O O1 0.103051 0.163060 0.500000
O O2 0.118900 0.180462 0.608657
O O3 0.973533 0.118431 0.562325
O O4 0.193928 0.272421 0.314452
O O5 0.231424 0.100139 0.327993
O O6 0.078637 0.153362 0.289659
O O7 0.938113 0.769001 0.094430
O O8 0.059285 0.893512 0.076782
O O9 0.955689 0.846591 0.000000
O O10 0.897727 0.620353 0.847810
O O11 0.922747 0.776975 0.805653
O O12 0.056586 0.686480 0.845143
O O13 0.091918 0.656666 0.748381
O O14 0.151744 0.541683 0.817221
O O15 0.387548 0.453036 0.283560
#
# Coordination Sequence:
#
# PCOD9546063 Si02
#       7
#    16  16  16  16  16  16  16
#     4   9  18  35  60  87 118 156 195 243 311 380
#     4  12  23  38  60  90 121 160 213 268 313 379
#     4   9  20  41  69  99 133 172 214 271 340 393
#     4  12  24  37  64  90 126 168 215 260 308 391
#     4  12  24  42  60  87 128 169 210 253 319 386
#     4  12  25  40  62  87 125 174 213 253 316 391
#     4  11  22  35  56  90 125 155 191 257 331 374
#
# _framework density 19.837157999999999
#
# number of rings (size 3 to 8) (size 9 to 14) (size 15 to 20)
#    0.000    1.000    2.857    6.000    4.000    2.286 
#    0.000    1.429    0.000    3.429    0.000    0.000 
#    0.000    0.000    0.000    0.000    0.000    0.000 
#
# Total GULP energy -313148.085250 kJ/mol
# GULP energy per Si atom -5591.930094 kJ/mol
# Density = 1.979201 g / cm^3
# Si number density = 19.837158 Si / 1000 Ang^3
#
#
#
# Elastic Constant Matrix: (Units=GPa)
#
#
# Indices 1 2 3 4 5 6 
#
# 1 65.6511 -0.6367 18.1280 0.0000 0.0000 4.3841
# 2 -0.6367 65.6511 18.1280 0.0000 0.0000 -4.3841
# 3 18.1280 18.1280 84.1878 0.0000 0.0000 0.0000
# 4 0.0000 0.0000 0.0000 18.3369 0.0000 0.0000
# 5 0.0000 0.0000 0.0000 0.0000 18.3369 0.0000
# 6 4.3841 -4.3841 0.0000 0.0000 0.0000 17.3979
#
#
#
# Elastic Compliance Matrix: (Units=1/GPa)
#
#
# Indices 1 2 3 4 5 6 
#
# 1 0.016543 0.000937 -0.003764 0.000000 0.000000 -0.003933
# 2 0.000937 0.016543 -0.003764 0.000000 0.000000 0.003933
# 3 -0.003764 -0.003764 0.013499 0.000000 0.000000 0.000000
# 4 0.000000 0.000000 0.000000 0.054535 0.000000 0.000000
# 5 0.000000 0.000000 0.000000 0.000000 0.054535 0.000000
# 6 -0.003933 0.003933 0.000000 0.000000 0.000000 0.059460
#
#
# Mechanical properties :
#
#
# Convention : Reuss Voigt Hill
#
# Bulk Modulus (GPa) = 29.93679 31.85872 30.89775
# Shear Modulus (GPa) = 20.88284 22.80574 21.84429
#
# Velocity S-wave (km/s) = 3.24807 3.39432 3.32200
# Velocity P-wave (km/s) = 5.40284 5.60865 5.50670
#
# Compressibility (1/GPa) = 0.03340372
#
# Stress axis : x y z
#
# Youngs Moduli (GPa) = 60.44829 60.44829 74.07857
#
# Poissons Ratio (x) = -0.05665 0.27883
# Poissons Ratio (y) = -0.05665 0.27883
# Poissons Ratio (z) = 0.22753 0.22753
#
# Static dielectric constant tensor:
#      x y z
#    x 1.716460 0.000000 0.000000 
#    y 0.000000 1.716460 0.000000 
#    z 0.000000 0.000000 1.686220 
# 
# From -- ./inp_files/5893.got.cif
#   From: 2010.05.17/outbox.cif.g08.bks.cpg/sg87_3_cif.got.tgz:5893.got - 2010.06.03 19:07:00.
