data_PCOD9546137
_publ_section_title
;
Structure prediction by ZEFSAII (Michael W. Deem and Ramdas Pophale) SiO2 
 PCOD9546137
Probable space group: I 4/M
;
_chemical_formula_sum "Si O2"
_cell_formula_units_Z 72
_cell_length_a 13.503708
_cell_length_b 13.503708
_cell_length_c 16.926159
_cell_angle_alpha 90.000000
_cell_angle_beta 90.000000
_cell_angle_gamma 90.000000
_cell_volume 3086.487290
_symmetry_space_group_name_H-M "I 4/M"
_symmetry_group_IT_number 87
_symmetry_cell_setting 'tetragonal'
loop_
_space_group_symop_operation_xyz
x,y,z
-y,x,z
-x,-y,z
y,-x,z
-x,-y,-z
y,-x,-z
x,y,-z
-y,x,-z
1/2+x,1/2+y,1/2+z
1/2-y,1/2+x,1/2+z
1/2-x,1/2-y,1/2+z
1/2+y,1/2-x,1/2+z
1/2-x,1/2-y,1/2-z
1/2+y,1/2-x,1/2-z
1/2+x,1/2+y,1/2-z
1/2-y,1/2+x,1/2-z
loop_
_atom_site_type_symbol
_atom_site_label
_atom_site_fract_x
_atom_site_fract_y
_atom_site_fract_z
Si Si1 0.346288 0.435518 0.415900
Si Si2 0.969654 0.299964 0.785497
Si Si3 0.319947 0.997087 0.500000
Si Si4 0.500000 0.000000 0.375891
Si Si5 0.696676 0.801549 0.323060
Si Si6 0.218016 0.202906 0.500000
O O1 0.449343 0.378057 0.414574
O O2 0.294465 0.417874 0.500000
O O3 0.276046 0.415795 0.343945
O O4 0.964617 0.409250 0.821777
O O5 0.083850 0.277611 0.800536
O O6 0.918516 0.289399 0.700904
O O7 0.401948 0.014766 0.569979
O O8 0.261952 0.889075 0.500000
O O9 0.234314 0.081861 0.500000
O O10 0.750000 0.750000 0.250000
O O11 0.729163 0.777557 0.413354
#
# Coordination Sequence:
#
# PCOD9546137 Si02
#       6
#    16  16   8   8  16   8
#     4   9  20  39  65 101 140 179 230 295 381 469
#     4  12  24  45  71 105 150 197 256 326 397 468
#     4  11  26  49  80 118 160 209 280 335 410 502
#     4  11  24  47  76 121 155 208 258 342 412 481
#     4  12  28  47  74 116 156 210 270 337 412 494
#     4  12  28  53  82 116 160 219 282 344 422 509
#
# _framework density 23.327487999999999
#
# number of rings (size 3 to 8) (size 9 to 14) (size 15 to 20)
#    0.000    0.889    2.222    4.667    7.778    0.222 
#    2.000    0.000    0.000    0.000    0.000    0.000 
#    0.000    0.000    0.000    0.000    0.000    0.000 
#
# Total GULP energy -200651.641422 kJ/mol
# GULP energy per Si atom -5573.656706 kJ/mol
# Density = 2.327439 g / cm^3
# Si number density = 23.327488 Si / 1000 Ang^3
#
#
#
# Elastic Constant Matrix: (Units=GPa)
#
#
# Indices 1 2 3 4 5 6 
#
# 1 128.1710 18.7367 69.7528 0.0000 0.0000 -8.8675
# 2 18.7367 128.1710 69.7528 0.0000 0.0000 8.8675
# 3 69.7528 69.7528 211.7901 0.0000 0.0000 0.0000
# 4 0.0000 0.0000 0.0000 40.4744 0.0000 0.0000
# 5 0.0000 0.0000 0.0000 0.0000 40.4744 0.0000
# 6 -8.8675 8.8675 0.0000 0.0000 0.0000 30.3048
#
#
#
# Elastic Compliance Matrix: (Units=1/GPa)
#
#
# Indices 1 2 3 4 5 6 
#
# 1 0.009749 0.000156 -0.003262 0.000000 0.000000 0.002807
# 2 0.000156 0.009749 -0.003262 0.000000 0.000000 -0.002807
# 3 -0.003262 -0.003262 0.006870 0.000000 0.000000 0.000000
# 4 0.000000 0.000000 0.000000 0.024707 0.000000 0.000000
# 5 0.000000 0.000000 0.000000 0.000000 0.024707 0.000000
# 6 0.002807 -0.002807 0.000000 0.000000 0.000000 0.034641
#
#
# Mechanical properties :
#
#
# Convention : Reuss Voigt Hill
#
# Bulk Modulus (GPa) = 73.35982 87.17963 80.26973
# Shear Modulus (GPa) = 39.15333 42.91002 41.03168
#
# Velocity S-wave (km/s) = 4.10130 4.29355 4.19852
# Velocity P-wave (km/s) = 7.34463 7.87608 7.61499
#
# Compressibility (1/GPa) = 0.01363144
#
# Stress axis : x y z
#
# Youngs Moduli (GPa) = 102.57693 102.57693 145.55178
#
# Poissons Ratio (x) = -0.01600 0.47481
# Poissons Ratio (y) = -0.01600 0.47481
# Poissons Ratio (z) = 0.33462 0.33462
#
# Static dielectric constant tensor:
#      x y z
#    x 2.164560 0.000000 0.000000 
#    y 0.000000 2.164560 0.000000 
#    z 0.000000 0.000000 1.904290 
# 
# From -- ./inp_files/4298.got.cif
#   From: 2010.05.17/outbox.cif.g08.bks.cpg/sg87_3_cif.got.tgz:4298.got - 2010.06.03 19:07:00.
