data_PCOD9546470
_publ_section_title
;
Structure prediction by ZEFSAII (Michael W. Deem and Ramdas Pophale) SiO2 
 PCOD9546470
Probable space group: I 41/A
;
_chemical_formula_sum "Si O2"
_cell_formula_units_Z 100
_cell_length_a 29.081998
_cell_length_b 29.081998
_cell_length_c 6.526996
_cell_angle_alpha 90.000000
_cell_angle_beta 90.000000
_cell_angle_gamma 90.000000
_cell_volume 5520.289157
_symmetry_space_group_name_H-M "I 41/A"
_symmetry_group_IT_number 88
_space_group.IT_coordinate_system_code '2'
_symmetry_cell_setting 'tetragonal'
loop_
_space_group_symop_operation_xyz
x,y,z
3/4-y,1/4+x,1/4+z
-x,1/2-y,z
1/4+y,1/4-x,1/4+z
-x,-y,-z
1/4+y,3/4-x,3/4-z
x,1/2+y,-z
3/4-y,3/4+x,3/4-z
1/2+x,1/2+y,1/2+z
1/4-y,3/4+x,3/4+z
1/2-x,-y,1/2+z
3/4+y,3/4-x,3/4+z
1/2-x,1/2-y,1/2-z
3/4+y,1/4-x,1/4-z
1/2+x,y,1/2-z
1/4-y,1/4+x,1/4-z
loop_
_atom_site_type_symbol
_atom_site_label
_atom_site_fract_x
_atom_site_fract_y
_atom_site_fract_z
Si Si1 0.582547 0.015921 0.534986
Si Si2 0.715367 0.626404 0.096148
Si Si3 0.000000 0.750000 0.375000
Si Si4 0.805468 0.617262 0.331487
Si Si5 0.967638 0.037008 0.386733
Si Si6 0.056669 0.282700 0.005548
Si Si7 0.340917 0.698222 0.460126
O O1 0.560116 0.056439 0.400062
O O2 0.607484 0.982076 0.376651
O O3 0.547778 0.986355 0.673927
O O4 0.617408 0.039492 0.693916
O O5 0.759610 0.603794 0.206490
O O6 0.704895 0.672157 0.229326
O O7 0.672675 0.592598 0.086700
O O8 0.022202 0.712367 0.527656
O O9 0.825439 0.662035 0.213544
O O10 0.999582 0.081262 0.359932
O O11 0.000000 0.000000 0.500000
O O12 0.059340 0.233743 0.124149
O O13 0.105581 0.307011 0.008302
#
# Coordination Sequence:
#
# PCOD9546470 Si02
#       7
#    16  16   4  16  16  16  16
#     4  10  21  39  63  79 124 154 190 253 307 357
#     4  10  23  40  61  88 123 159 204 253 309 370
#     4   8  18  40  56  66 124 156 178 244 280 330
#     4  10  23  41  57  91 120 154 210 250 301 379
#     4  11  20  39  59  89 117 154 197 246 304 368
#     4   9  21  39  54  83 117 157 202 233 293 359
#     4  11  22  35  61  90 117 154 203 246 305 363
#
# _framework density 18.114993999999999
#
# number of rings (size 3 to 8) (size 9 to 14) (size 15 to 20)
#    0.000    2.080    4.800    0.480    0.000   11.520 
#    2.880    0.000    0.000    0.000    0.000    0.000 
#    0.000    0.000    0.000    0.000    0.000    0.000 
#
# Total GULP energy -278989.277362 kJ/mol
# GULP energy per Si atom -5579.785547 kJ/mol
# Density = 1.807376 g / cm^3
# Si number density = 18.114994 Si / 1000 Ang^3
#
#
#
# Elastic Constant Matrix: (Units=GPa)
#
#
# Indices 1 2 3 4 5 6 
#
# 1 87.8888 50.7855 44.0367 0.0000 0.0000 14.9661
# 2 50.7855 87.8888 44.0367 0.0000 0.0000 -14.9661
# 3 44.0367 44.0367 123.6191 0.0000 0.0000 0.0000
# 4 0.0000 0.0000 0.0000 9.1183 0.0000 0.0000
# 5 0.0000 0.0000 0.0000 0.0000 9.1183 0.0000
# 6 14.9661 -14.9661 0.0000 0.0000 0.0000 39.2349
#
#
#
# Elastic Compliance Matrix: (Units=1/GPa)
#
#
# Indices 1 2 3 4 5 6 
#
# 1 0.024126 -0.014806 -0.003320 0.000000 0.000000 -0.014850
# 2 -0.014806 0.024126 -0.003320 0.000000 0.000000 0.014850
# 3 -0.003320 -0.003320 0.010455 0.000000 0.000000 0.000000
# 4 0.000000 0.000000 0.000000 0.109670 0.000000 0.000000
# 5 0.000000 0.000000 0.000000 0.000000 0.109670 0.000000
# 6 -0.014850 0.014850 0.000000 0.000000 0.000000 0.036817
#
#
# Mechanical properties :
#
#
# Convention : Reuss Voigt Hill
#
# Bulk Modulus (GPa) = 63.23404 64.12384 63.67894
# Shear Modulus (GPa) = 13.77313 22.19683 17.98498
#
# Velocity S-wave (km/s) = 2.76037 3.50427 3.15433
# Velocity P-wave (km/s) = 6.71881 7.20057 6.96386
#
# Compressibility (1/GPa) = 0.01581427
#
# Stress axis : x y z
#
# Youngs Moduli (GPa) = 41.44938 41.44938 95.65094
#
# Poissons Ratio (x) = 0.61371 0.31755
# Poissons Ratio (y) = 0.61371 0.31755
# Poissons Ratio (z) = 0.13761 0.13761
#
# Static dielectric constant tensor:
#      x y z
#    x 1.612190 0.000000 0.000000 
#    y 0.000000 1.612190 0.000000 
#    z 0.000000 0.000000 1.625700 
# 
# From -- ./inp_files/778.got.cif
#   From: 2010.05.17/outbox.cif.g08.bks.cpg/sg88_1_cif.got.tgz:778.got - 2010.06.03 19:11:41.
