data_PCOD9546793
_publ_section_title
;
Structure prediction by ZEFSAII (Michael W. Deem and Ramdas Pophale) SiO2 
 PCOD9546793
Probable space group: I 41/A
;
_chemical_formula_sum "Si O2"
_cell_formula_units_Z 48
_cell_length_a 18.577886
_cell_length_b 18.577886
_cell_length_c 7.075086
_cell_angle_alpha 90.000000
_cell_angle_beta 90.000000
_cell_angle_gamma 90.000000
_cell_volume 2441.879958
_symmetry_space_group_name_H-M "I 41/A"
_symmetry_group_IT_number 88
_space_group.IT_coordinate_system_code '2'
_symmetry_cell_setting 'tetragonal'
loop_
_space_group_symop_operation_xyz
x,y,z
3/4-y,1/4+x,1/4+z
-x,1/2-y,z
1/4+y,1/4-x,1/4+z
-x,-y,-z
1/4+y,3/4-x,3/4-z
x,1/2+y,-z
3/4-y,3/4+x,3/4-z
1/2+x,1/2+y,1/2+z
1/4-y,3/4+x,3/4+z
1/2-x,-y,1/2+z
3/4+y,3/4-x,3/4+z
1/2-x,1/2-y,1/2-z
3/4+y,1/4-x,1/4-z
1/2+x,y,1/2-z
1/4-y,1/4+x,1/4-z
loop_
_atom_site_type_symbol
_atom_site_label
_atom_site_fract_x
_atom_site_fract_y
_atom_site_fract_z
Si Si1 0.577506 0.088043 0.047784
Si Si2 0.669577 0.435497 0.390339
Si Si3 0.083878 0.922211 0.511440
O O1 0.619920 0.110458 0.234495
O O2 0.576672 0.001636 0.075751
O O3 0.495290 0.111700 0.025991
O O4 0.623270 0.114156 0.866513
O O5 0.675635 0.503252 0.533838
O O6 0.615386 0.440441 0.216221
#
# Coordination Sequence:
#
# PCOD9546793 Si02
#       3
#    16  16  16
#     4  11  24  42  65  95 130 169 216 270 325 385
#     4  12  22  38  68  99 124 170 223 270 316 388
#     4  11  24  42  65  95 130 169 216 270 325 385
#
# _framework density 19.656986
#
# number of rings (size 3 to 8) (size 9 to 14) (size 15 to 20)
#    0.000    0.667    6.667    2.000    0.000    4.667 
#    0.000    0.000    0.000    0.000    0.000    0.000 
#    0.000    0.000    0.000    0.000    0.000    0.000 
#
# Total GULP energy -133842.043037 kJ/mol
# GULP energy per Si atom -5576.751793 kJ/mol
# Density = 1.961225 g / cm^3
# Si number density = 19.656986 Si / 1000 Ang^3
#
#
#
# Elastic Constant Matrix: (Units=GPa)
#
#
# Indices 1 2 3 4 5 6 
#
# 1 79.5667 10.3999 17.6690 0.0000 0.0000 9.4383
# 2 10.3999 79.5667 17.6690 0.0000 0.0000 -9.4383
# 3 17.6690 17.6690 90.6878 0.0000 0.0000 0.0000
# 4 0.0000 0.0000 0.0000 14.6332 0.0000 0.0000
# 5 0.0000 0.0000 0.0000 0.0000 14.6332 0.0000
# 6 9.4383 -9.4383 0.0000 0.0000 0.0000 17.6128
#
#
#
# Elastic Compliance Matrix: (Units=1/GPa)
#
#
# Indices 1 2 3 4 5 6 
#
# 1 0.014485 -0.002449 -0.002345 0.000000 0.000000 -0.009075
# 2 -0.002449 0.014485 -0.002345 0.000000 0.000000 0.009075
# 3 -0.002345 -0.002345 0.011941 0.000000 0.000000 0.000000
# 4 0.000000 0.000000 0.000000 0.068338 0.000000 0.000000
# 5 0.000000 0.000000 0.000000 0.000000 0.068338 0.000000
# 6 -0.009075 0.009075 0.000000 0.000000 0.000000 0.066503
#
#
# Mechanical properties :
#
#
# Convention : Reuss Voigt Hill
#
# Bulk Modulus (GPa) = 37.54737 37.92190 37.73463
# Shear Modulus (GPa) = 18.70938 22.98139 20.84538
#
# Velocity S-wave (km/s) = 3.08846 3.42295 3.26000
# Velocity P-wave (km/s) = 5.64454 5.91234 5.78000
#
# Compressibility (1/GPa) = 0.02663303
#
# Stress axis : x y z
#
# Youngs Moduli (GPa) = 69.03499 69.03499 83.74755
#
# Poissons Ratio (x) = 0.16907 0.19640
# Poissons Ratio (y) = 0.16907 0.19640
# Poissons Ratio (z) = 0.16189 0.16189
#
# Static dielectric constant tensor:
#      x y z
#    x 1.727750 0.000000 0.000000 
#    y 0.000000 1.727750 0.000000 
#    z 0.000000 0.000000 1.652730 
# 
# From -- ./inp_files/331.got.cif
#   From: 2010.05.17/outbox.cif.g08.bks.cpg/sg88_1_cif.got.tgz:331.got - 2010.06.03 19:11:41.
