data_PCOD9546416
_publ_section_title
;
Structure prediction by ZEFSAII (Michael W. Deem and Ramdas Pophale) SiO2 
 PCOD9546416
Probable space group: I 41/A
;
_chemical_formula_sum "Si O2"
_cell_formula_units_Z 48
_cell_length_a 13.410893
_cell_length_b 13.410893
_cell_length_c 10.153969
_cell_angle_alpha 90.000000
_cell_angle_beta 90.000000
_cell_angle_gamma 90.000000
_cell_volume 1826.212151
_symmetry_space_group_name_H-M "I 41/A"
_symmetry_group_IT_number 88
_space_group.IT_coordinate_system_code '2'
_symmetry_cell_setting 'tetragonal'
loop_
_space_group_symop_operation_xyz
x,y,z
3/4-y,1/4+x,1/4+z
-x,1/2-y,z
1/4+y,1/4-x,1/4+z
-x,-y,-z
1/4+y,3/4-x,3/4-z
x,1/2+y,-z
3/4-y,3/4+x,3/4-z
1/2+x,1/2+y,1/2+z
1/4-y,3/4+x,3/4+z
1/2-x,-y,1/2+z
3/4+y,3/4-x,3/4+z
1/2-x,1/2-y,1/2-z
3/4+y,1/4-x,1/4-z
1/2+x,y,1/2-z
1/4-y,1/4+x,1/4-z
loop_
_atom_site_type_symbol
_atom_site_label
_atom_site_fract_x
_atom_site_fract_y
_atom_site_fract_z
Si Si1 0.734731 0.771725 0.903390
Si Si2 0.672825 0.052469 0.019312
Si Si3 0.887594 0.782589 0.119744
O O1 0.750000 0.750000 0.750000
O O2 0.715819 0.661302 0.953820
O O3 0.639360 0.841271 0.936740
O O4 0.830635 0.804719 0.984584
O O5 0.553854 0.080243 0.045716
O O6 0.714188 0.974107 0.126859
O O7 0.000000 0.750000 0.090113
#
# Coordination Sequence:
#
# PCOD9546416 Si02
#       3
#    16  16  16
#     4  10  21  32  58  91 128 166 217 281 332 381
#     4   9  19  37  63 100 134 175 222 276 336 396
#     4   9  20  35  58  93 130 166 222 285 334 390
#
# _framework density 26.283909999999999
#
# number of rings (size 3 to 8) (size 9 to 14) (size 15 to 20)
#    0.000    2.667    0.000    0.000   14.000    0.000 
#    0.000    0.000    0.000   14.000    0.000   79.333 
#    0.000    0.000    0.000    0.000    0.000    0.000 
#
# Total GULP energy -134017.639547 kJ/mol
# GULP energy per Si atom -5584.068314 kJ/mol
# Density = 2.622409 g / cm^3
# Si number density = 26.283910 Si / 1000 Ang^3
#
#
#
# Elastic Constant Matrix: (Units=GPa)
#
#
# Indices 1 2 3 4 5 6 
#
# 1 146.5161 80.2190 94.7310 0.0000 0.0000 -29.6572
# 2 80.2190 146.5161 94.7310 0.0000 0.0000 29.6572
# 3 94.7310 94.7310 134.4306 0.0000 0.0000 0.0000
# 4 0.0000 0.0000 0.0000 27.0085 0.0000 0.0000
# 5 0.0000 0.0000 0.0000 0.0000 27.0085 0.0000
# 6 -29.6572 29.6572 0.0000 0.0000 0.0000 57.6185
#
#
#
# Elastic Compliance Matrix: (Units=1/GPa)
#
#
# Indices 1 2 3 4 5 6 
#
# 1 0.019343 -0.008616 -0.007559 0.000000 0.000000 0.014391
# 2 -0.008616 0.019343 -0.007559 0.000000 0.000000 -0.014391
# 3 -0.007559 -0.007559 0.018092 0.000000 0.000000 0.000000
# 4 0.000000 0.000000 0.000000 0.037025 0.000000 0.000000
# 5 0.000000 0.000000 0.000000 0.000000 0.037025 0.000000
# 6 0.014391 -0.014391 0.000000 0.000000 0.000000 0.032170
#
#
# Mechanical properties :
#
#
# Convention : Reuss Voigt Hill
#
# Bulk Modulus (GPa) = 107.41375 107.42496 107.41936
# Shear Modulus (GPa) = 23.41155 32.84588 28.12871
#
# Velocity S-wave (km/s) = 2.98773 3.53888 3.27492
# Velocity P-wave (km/s) = 7.27031 7.59329 7.43355
#
# Compressibility (1/GPa) = 0.00930980
#
# Stress axis : x y z
#
# Youngs Moduli (GPa) = 51.69882 51.69882 55.27258
#
# Poissons Ratio (x) = 0.44544 0.41780
# Poissons Ratio (y) = 0.44544 0.41780
# Poissons Ratio (z) = 0.39079 0.39079
#
# Static dielectric constant tensor:
#      x y z
#    x 2.151530 0.000000 0.000000 
#    y 0.000000 2.151530 0.000000 
#    z 0.000000 0.000000 2.236600 
# 
# From -- ./inp_files/2162.got.cif
#   From: 2010.05.17/outbox.cif.g08.bks.cpg/sg88_2_cif.got.tgz:2162.got - 2010.06.03 19:11:41.
