data_PCOD9546855
_publ_section_title
;
Structure prediction by ZEFSAII (Michael W. Deem and Ramdas Pophale) SiO2 
 PCOD9546855
Probable space group: I 41/A
;
_chemical_formula_sum "Si O2"
_cell_formula_units_Z 72
_cell_length_a 17.003554
_cell_length_b 17.003554
_cell_length_c 11.281480
_cell_angle_alpha 90.000000
_cell_angle_beta 90.000000
_cell_angle_gamma 90.000000
_cell_volume 3261.711071
_symmetry_space_group_name_H-M "I 41/A"
_symmetry_group_IT_number 88
_space_group.IT_coordinate_system_code '2'
_symmetry_cell_setting 'tetragonal'
loop_
_space_group_symop_operation_xyz
x,y,z
3/4-y,1/4+x,1/4+z
-x,1/2-y,z
1/4+y,1/4-x,1/4+z
-x,-y,-z
1/4+y,3/4-x,3/4-z
x,1/2+y,-z
3/4-y,3/4+x,3/4-z
1/2+x,1/2+y,1/2+z
1/4-y,3/4+x,3/4+z
1/2-x,-y,1/2+z
3/4+y,3/4-x,3/4+z
1/2-x,1/2-y,1/2-z
3/4+y,1/4-x,1/4-z
1/2+x,y,1/2-z
1/4-y,1/4+x,1/4-z
loop_
_atom_site_type_symbol
_atom_site_label
_atom_site_fract_x
_atom_site_fract_y
_atom_site_fract_z
Si Si1 0.000000 0.750000 0.658296
Si Si2 0.130551 0.841081 0.514432
Si Si3 0.222472 0.840667 0.749566
Si Si4 0.541596 0.968374 0.117316
Si Si5 0.605718 0.114332 0.263251
O O1 0.948541 0.691692 0.576640
O O2 0.940349 0.805319 0.732292
O O3 0.188893 0.862826 0.621363
O O4 0.166630 0.769308 0.441615
O O5 0.111755 0.912685 0.427388
O O6 0.250000 0.750000 0.750000
O O7 0.303875 0.883742 0.777739
O O8 0.155724 0.853585 0.847631
O O9 0.565762 0.041808 0.196783
O O10 0.500000 0.000000 0.000000
#
# Coordination Sequence:
#
# PCOD9546855 Si02
#       5
#     8  16  16  16  16
#     4  12  24  48  82 108 144 199 259 318 362 458
#     4  12  27  49  76 113 151 197 252 318 379 448
#     4  12  28  48  74 111 156 195 258 314 376 456
#     4  12  27  48  78 112 153 198 251 310 385 454
#     4  12  28  49  75 116 153 205 256 312 385 457
#
# _framework density 22.074304000000001
#
# number of rings (size 3 to 8) (size 9 to 14) (size 15 to 20)
#    0.000    0.000    6.667    1.333    9.333    2.667 
#    0.000    0.000    0.000    0.000    0.000    0.000 
#    0.000    0.000    0.000    0.000    0.000    0.000 
#
# Total GULP energy -201746.943715 kJ/mol
# GULP energy per Si atom -5604.081770 kJ/mol
# Density = 2.202406 g / cm^3
# Si number density = 22.074304 Si / 1000 Ang^3
#
#
#
# Elastic Constant Matrix: (Units=GPa)
#
#
# Indices 1 2 3 4 5 6 
#
# 1 78.6216 16.5786 21.0262 0.0000 0.0000 7.1342
# 2 16.5786 78.6216 21.0262 0.0000 0.0000 -7.1342
# 3 21.0262 21.0262 112.2729 0.0000 0.0000 0.0000
# 4 0.0000 0.0000 0.0000 40.6422 0.0000 0.0000
# 5 0.0000 0.0000 0.0000 0.0000 40.6422 0.0000
# 6 7.1342 -7.1342 0.0000 0.0000 0.0000 32.5313
#
#
#
# Elastic Compliance Matrix: (Units=1/GPa)
#
#
# Indices 1 2 3 4 5 6 
#
# 1 0.014213 -0.002761 -0.002145 0.000000 0.000000 -0.003722
# 2 -0.002761 0.014213 -0.002145 0.000000 0.000000 0.003722
# 3 -0.002145 -0.002145 0.009710 0.000000 0.000000 0.000000
# 4 0.000000 0.000000 0.000000 0.024605 0.000000 0.000000
# 5 0.000000 0.000000 0.000000 0.000000 0.024605 0.000000
# 6 -0.003722 0.003722 0.000000 0.000000 0.000000 0.032372
#
#
# Mechanical properties :
#
#
# Convention : Reuss Voigt Hill
#
# Bulk Modulus (GPa) = 41.60650 42.97536 42.29093
# Shear Modulus (GPa) = 35.25341 36.82213 36.03777
#
# Velocity S-wave (km/s) = 4.00063 4.08867 4.04489
# Velocity P-wave (km/s) = 6.34266 6.46532 6.40428
#
# Compressibility (1/GPa) = 0.02403471
#
# Stress axis : x y z
#
# Youngs Moduli (GPa) = 70.35955 70.35955 102.98503
#
# Poissons Ratio (x) = 0.19428 0.22086
# Poissons Ratio (y) = 0.19428 0.22086
# Poissons Ratio (z) = 0.15089 0.15089
#
# Static dielectric constant tensor:
#      x y z
#    x 1.796370 0.000000 0.000000 
#    y 0.000000 1.796370 0.000000 
#    z 0.000000 0.000000 1.767760 
# 
# From -- ./inp_files/2444.got.cif
#   From: 2010.05.17/outbox.cif.g08.bks.cpg/sg88_2_cif.got.tgz:2444.got - 2010.06.03 19:11:41.
