data_PCOD9546039
_publ_section_title
;
Structure prediction by ZEFSAII (Michael W. Deem and Ramdas Pophale) SiO2 
 PCOD9546039
Probable space group: I 4/M
;
_chemical_formula_sum "Si O2"
_cell_formula_units_Z 72
_cell_length_a 16.983047
_cell_length_b 16.983047
_cell_length_c 12.665975
_cell_angle_alpha 90.000000
_cell_angle_beta 90.000000
_cell_angle_gamma 90.000000
_cell_volume 3653.169722
_symmetry_space_group_name_H-M "I 4/M"
_symmetry_group_IT_number 87
_symmetry_cell_setting 'tetragonal'
loop_
_space_group_symop_operation_xyz
x,y,z
-y,x,z
-x,-y,z
y,-x,z
-x,-y,-z
y,-x,-z
x,y,-z
-y,x,-z
1/2+x,1/2+y,1/2+z
1/2-y,1/2+x,1/2+z
1/2-x,1/2-y,1/2+z
1/2+y,1/2-x,1/2+z
1/2-x,1/2-y,1/2-z
1/2+y,1/2-x,1/2-z
1/2+x,1/2+y,1/2-z
1/2-y,1/2+x,1/2-z
loop_
_atom_site_type_symbol
_atom_site_label
_atom_site_fract_x
_atom_site_fract_y
_atom_site_fract_z
Si Si1 0.491778 0.195450 0.695359
Si Si2 0.257585 0.159188 0.879857
Si Si3 0.100470 0.913471 0.500000
Si Si4 0.367472 0.297428 0.799011
Si Si5 0.454223 0.916512 0.116368
O O1 0.569549 0.213771 0.629756
O O2 0.447157 0.270840 0.740713
O O3 0.517735 0.142755 0.795099
O O4 0.433751 0.138155 0.631041
O O5 0.327470 0.218964 0.848241
O O6 0.190872 0.171066 0.791422
O O7 0.232122 0.175980 0.000000
O O8 0.142504 0.881052 0.394623
O O9 0.008296 0.892528 0.500000
O O10 0.500000 0.000000 0.126287
O O11 0.471021 0.884991 0.000000
#
# Coordination Sequence:
#
# PCOD9546039 Si02
#       5
#    16  16   8  16  16
#     4  12  21  41  61  92 130 169 216 266 326 402
#     4  11  24  43  65  93 135 174 216 270 331 396
#     4  11  24  46  72  98 129 175 231 280 325 381
#     4  11  24  42  64  97 130 174 221 270 331 390
#     4  11  21  34  57  90 128 170 212 264 327 398
#
# _framework density 19.708911000000001
#
# number of rings (size 3 to 8) (size 9 to 14) (size 15 to 20)
#    0.000    0.778    5.556    2.000    1.556    3.556 
#    2.000    0.000    0.000    0.000    0.000    4.667 
#    0.000    0.000    0.000    0.000    0.000    0.000 
#
# Total GULP energy -201341.111400 kJ/mol
# GULP energy per Si atom -5592.808650 kJ/mol
# Density = 1.966405 g / cm^3
# Si number density = 19.708911 Si / 1000 Ang^3
#
#
#
# Elastic Constant Matrix: (Units=GPa)
#
#
# Indices 1 2 3 4 5 6 
#
# 1 51.7027 18.0350 26.3086 0.0000 0.0000 -0.8748
# 2 18.0350 51.7027 26.3086 0.0000 0.0000 0.8748
# 3 26.3086 26.3086 126.9322 0.0000 0.0000 0.0000
# 4 0.0000 0.0000 0.0000 23.8030 0.0000 0.0000
# 5 0.0000 0.0000 0.0000 0.0000 23.8030 0.0000
# 6 -0.8748 0.8748 0.0000 0.0000 0.0000 25.8361
#
#
#
# Elastic Compliance Matrix: (Units=1/GPa)
#
#
# Indices 1 2 3 4 5 6 
#
# 1 0.023376 -0.006378 -0.003523 0.000000 0.000000 0.001007
# 2 -0.006378 0.023376 -0.003523 0.000000 0.000000 -0.001007
# 3 -0.003523 -0.003523 0.009339 0.000000 0.000000 0.000000
# 4 0.000000 0.000000 0.000000 0.042011 0.000000 0.000000
# 5 0.000000 0.000000 0.000000 0.000000 0.042011 0.000000
# 6 0.001007 -0.001007 0.000000 0.000000 0.000000 0.038774
#
#
# Mechanical properties :
#
#
# Convention : Reuss Voigt Hill
#
# Bulk Modulus (GPa) = 34.19770 41.29353 37.74562
# Shear Modulus (GPa) = 23.20365 25.33413 24.26889
#
# Velocity S-wave (km/s) = 3.43493 3.58916 3.51289
# Velocity P-wave (km/s) = 5.75506 6.17845 5.97051
#
# Compressibility (1/GPa) = 0.02924173
#
# Stress axis : x y z
#
# Youngs Moduli (GPa) = 42.77900 42.77900 107.08235
#
# Poissons Ratio (x) = 0.27286 0.37725
# Poissons Ratio (y) = 0.27286 0.37725
# Poissons Ratio (z) = 0.15071 0.15071
#
# Static dielectric constant tensor:
#      x y z
#    x 1.688980 0.000000 0.000000 
#    y 0.000000 1.688980 0.000000 
#    z 0.000000 0.000000 1.678870 
# 
# From -- ./inp_files/2448.got.cif
#   From: 2010.05.17/outbox.cif.g08.bks.cpg/sg87_2_cif.got.tgz:2448.got - 2010.06.03 19:07:00.
