data_PCOD9546506
_publ_section_title
;
Structure prediction by ZEFSAII (Michael W. Deem and Ramdas Pophale) SiO2 
 PCOD9546506
Probable space group: I 41/A
;
_chemical_formula_sum "Si O2"
_cell_formula_units_Z 92
_cell_length_a 13.678377
_cell_length_b 13.678377
_cell_length_c 20.857395
_cell_angle_alpha 90.000000
_cell_angle_beta 90.000000
_cell_angle_gamma 90.000000
_cell_volume 3902.376835
_symmetry_space_group_name_H-M "I 41/A"
_symmetry_group_IT_number 88
_space_group.IT_coordinate_system_code '2'
_symmetry_cell_setting 'tetragonal'
loop_
_space_group_symop_operation_xyz
x,y,z
3/4-y,1/4+x,1/4+z
-x,1/2-y,z
1/4+y,1/4-x,1/4+z
-x,-y,-z
1/4+y,3/4-x,3/4-z
x,1/2+y,-z
3/4-y,3/4+x,3/4-z
1/2+x,1/2+y,1/2+z
1/4-y,3/4+x,3/4+z
1/2-x,-y,1/2+z
3/4+y,3/4-x,3/4+z
1/2-x,1/2-y,1/2-z
3/4+y,1/4-x,1/4-z
1/2+x,y,1/2-z
1/4-y,1/4+x,1/4-z
loop_
_atom_site_type_symbol
_atom_site_label
_atom_site_fract_x
_atom_site_fract_y
_atom_site_fract_z
Si Si1 0.840146 0.289044 0.707727
Si Si2 0.330581 0.913173 0.085624
Si Si3 0.500000 0.750000 0.427992
Si Si4 0.354037 0.146001 0.078273
Si Si5 0.503417 0.958723 0.596597
Si Si6 0.000000 0.750000 0.875000
Si Si7 0.157399 0.615289 0.732683
O O1 0.750000 0.250000 0.750000
O O2 0.880505 0.187514 0.680139
O O3 0.801876 0.358900 0.651200
O O4 0.904765 0.350042 0.757703
O O5 0.248698 0.897786 0.031192
O O6 0.339671 0.030660 0.092396
O O7 0.558491 0.676531 0.381402
O O8 0.578226 0.805844 0.471907
O O9 0.254710 0.206760 0.088049
O O10 0.463724 0.849704 0.594257
O O11 0.596355 0.956417 0.548062
O O12 0.415086 0.024766 0.571428
#
# Coordination Sequence:
#
# PCOD9546506 Si02
#       7
#    16  16   8  16  16   4  16
#     4  10  24  44  67 105 140 189 242 296 361 432
#     4  11  23  43  69  99 141 187 244 303 358 429
#     4  10  21  44  66 102 142 194 245 298 366 448
#     4  10  23  43  68  99 141 189 240 296 370 432
#     4  10  23  40  67  97 137 180 229 296 351 438
#     4  12  22  44  56 104 136 168 238 276 360 422
#     4  10  21  42  69 100 135 186 241 289 366 426
#
# _framework density 23.575375999999999
#
# number of rings (size 3 to 8) (size 9 to 14) (size 15 to 20)
#    0.000    1.739    0.000    3.652    4.870    1.739 
#   15.652    0.000    0.000    0.000    0.000    0.000 
#    0.000    0.000    0.000    0.000    0.000    0.000 
#
# Total GULP energy -257027.804121 kJ/mol
# GULP energy per Si atom -5587.560959 kJ/mol
# Density = 2.352172 g / cm^3
# Si number density = 23.575376 Si / 1000 Ang^3
#
#
#
# Elastic Constant Matrix: (Units=GPa)
#
#
# Indices 1 2 3 4 5 6 
#
# 1 100.4444 13.4252 6.1739 0.0000 0.0000 -8.1516
# 2 13.4252 100.4444 6.1739 0.0000 0.0000 8.1516
# 3 6.1739 6.1739 35.6314 0.0000 0.0000 0.0000
# 4 0.0000 0.0000 0.0000 31.5972 0.0000 0.0000
# 5 0.0000 0.0000 0.0000 0.0000 31.5972 0.0000
# 6 -8.1516 8.1516 0.0000 0.0000 0.0000 24.5441
#
#
#
# Elastic Compliance Matrix: (Units=1/GPa)
#
#
# Indices 1 2 3 4 5 6 
#
# 1 0.010602 -0.001652 -0.001551 0.000000 0.000000 0.004070
# 2 -0.001652 0.010602 -0.001551 0.000000 0.000000 -0.004070
# 3 -0.001551 -0.001551 0.028603 0.000000 0.000000 0.000000
# 4 0.000000 0.000000 0.000000 0.031648 0.000000 0.000000
# 5 0.000000 0.000000 0.000000 0.000000 0.031648 0.000000
# 6 0.004070 -0.004070 0.000000 0.000000 0.000000 0.043446
#
#
# Mechanical properties :
#
#
# Convention : Reuss Voigt Hill
#
# Bulk Modulus (GPa) = 24.81413 32.00734 28.41074
# Shear Modulus (GPa) = 27.85665 31.59753 29.72709
#
# Velocity S-wave (km/s) = 3.44117 3.66495 3.55482
# Velocity P-wave (km/s) = 5.13197 5.61384 5.37831
#
# Compressibility (1/GPa) = 0.04029961
#
# Stress axis : x y z
#
# Youngs Moduli (GPa) = 94.32027 94.32027 34.96196
#
# Poissons Ratio (x) = 0.15582 0.05422
# Poissons Ratio (y) = 0.15582 0.05422
# Poissons Ratio (z) = 0.14627 0.14627
#
# Static dielectric constant tensor:
#      x y z
#    x 1.935570 0.000000 0.000000 
#    y 0.000000 1.935570 0.000000 
#    z 0.000000 0.000000 2.002060 
# 
# From -- ./inp_files/4771.got.cif
#   From: 2010.05.17/outbox.cif.g08.bks.cpg/sg88_3_cif.got.tgz:4771.got - 2010.06.03 19:11:41.
