data_PCOD9546250
_publ_section_title
;
Structure prediction by ZEFSAII (Michael W. Deem and Ramdas Pophale) SiO2 
 PCOD9546250
Probable space group: I 41/A
;
_chemical_formula_sum "Si O2"
_cell_formula_units_Z 56
_cell_length_a 16.618069
_cell_length_b 16.618069
_cell_length_c 7.331155
_cell_angle_alpha 90.000000
_cell_angle_beta 90.000000
_cell_angle_gamma 90.000000
_cell_volume 2024.573358
_symmetry_space_group_name_H-M "I 41/A"
_symmetry_group_IT_number 88
_space_group.IT_coordinate_system_code '2'
_symmetry_cell_setting 'tetragonal'
loop_
_space_group_symop_operation_xyz
x,y,z
3/4-y,1/4+x,1/4+z
-x,1/2-y,z
1/4+y,1/4-x,1/4+z
-x,-y,-z
1/4+y,3/4-x,3/4-z
x,1/2+y,-z
3/4-y,3/4+x,3/4-z
1/2+x,1/2+y,1/2+z
1/4-y,3/4+x,3/4+z
1/2-x,-y,1/2+z
3/4+y,3/4-x,3/4+z
1/2-x,1/2-y,1/2-z
3/4+y,1/4-x,1/4-z
1/2+x,y,1/2-z
1/4-y,1/4+x,1/4-z
loop_
_atom_site_type_symbol
_atom_site_label
_atom_site_fract_x
_atom_site_fract_y
_atom_site_fract_z
Si Si1 0.345641 0.987965 0.681541
Si Si2 0.134854 0.140956 0.889069
Si Si3 0.500000 0.250000 0.598617
Si Si4 0.666178 0.735533 0.041517
O O1 0.293850 0.064971 0.623567
O O2 0.437095 0.016563 0.680280
O O3 0.328331 0.917267 0.537505
O O4 0.175889 0.200303 0.744423
O O5 0.073723 0.202551 0.991964
O O6 0.078774 0.083974 0.759849
O O7 0.536086 0.324567 0.719782
#
# Coordination Sequence:
#
# PCOD9546250 Si02
#       4
#    16  16   8  16
#     4  12  27  44  58  91 142 184 214 262 336 407
#     4  10  18  42  69 100 126 166 228 273 323 379
#     4   8  17  38  69 102 121 162 217 284 317 378
#     4  10  18  42  69 100 126 166 228 273 323 379
#
# _framework density 27.660146999999998
#
# number of rings (size 3 to 8) (size 9 to 14) (size 15 to 20)
#    1.714    0.000    2.857    3.429    0.000    0.000 
#   10.286    4.286    0.000    0.000    0.000    0.000 
#    0.000    0.000    0.000    0.000    0.000    0.000 
#
# Total GULP energy -156401.542388 kJ/mol
# GULP energy per Si atom -5585.769371 kJ/mol
# Density = 2.759719 g / cm^3
# Si number density = 27.660147 Si / 1000 Ang^3
#
#
#
# Elastic Constant Matrix: (Units=GPa)
#
#
# Indices 1 2 3 4 5 6 
#
# 1 85.2748 46.0452 17.2338 0.0000 0.0000 13.7867
# 2 46.0452 85.2748 17.2338 0.0000 0.0000 -13.7867
# 3 17.2338 17.2338 73.9939 0.0000 0.0000 0.0000
# 4 0.0000 0.0000 0.0000 35.0344 0.0000 0.0000
# 5 0.0000 0.0000 0.0000 0.0000 35.0344 0.0000
# 6 13.7867 -13.7867 0.0000 0.0000 0.0000 73.2855
#
#
#
# Elastic Compliance Matrix: (Units=1/GPa)
#
#
# Indices 1 2 3 4 5 6 
#
# 1 0.018743 -0.010632 -0.001889 0.000000 0.000000 -0.005526
# 2 -0.010632 0.018743 -0.001889 0.000000 0.000000 0.005526
# 3 -0.001889 -0.001889 0.014395 0.000000 0.000000 0.000000
# 4 0.000000 0.000000 0.000000 0.028543 0.000000 0.000000
# 5 0.000000 0.000000 0.000000 0.000000 0.028543 0.000000
# 6 -0.005526 0.005526 0.000000 0.000000 0.000000 0.015724
#
#
# Mechanical properties :
#
#
# Convention : Reuss Voigt Hill
#
# Bulk Modulus (GPa) = 43.36531 45.06324 44.21427
# Shear Modulus (GPa) = 31.01759 39.60624 35.31191
#
# Velocity S-wave (km/s) = 3.35234 3.78814 3.57688
# Velocity P-wave (km/s) = 5.54041 5.95486 5.75137
#
# Compressibility (1/GPa) = 0.02305991
#
# Stress axis : x y z
#
# Youngs Moduli (GPa) = 53.35340 53.35340 69.47052
#
# Poissons Ratio (x) = 0.56726 0.13124
# Poissons Ratio (y) = 0.56726 0.13124
# Poissons Ratio (z) = 0.10079 0.10079
#
# Static dielectric constant tensor:
#      x y z
#    x 2.146870 0.000000 0.000000 
#    y 0.000000 2.146870 0.000000 
#    z 0.000000 0.000000 2.250090 
# 
# From -- ./inp_files/1301.got.cif
#   From: 2010.05.17/outbox.cif.g08.bks.cpg/sg88_1_cif.got.tgz:1301.got - 2010.06.03 19:11:41.
