data_PCOD9546863
_publ_section_title
;
Structure prediction by ZEFSAII (Michael W. Deem and Ramdas Pophale) SiO2 
 PCOD9546863
Probable space group: I 41/A
;
_chemical_formula_sum "Si O2"
_cell_formula_units_Z 48
_cell_length_a 7.763011
_cell_length_b 7.763011
_cell_length_c 30.395077
_cell_angle_alpha 90.000000
_cell_angle_beta 90.000000
_cell_angle_gamma 90.000000
_cell_volume 1831.739248
_symmetry_space_group_name_H-M "I 41/A"
_symmetry_group_IT_number 88
_space_group.IT_coordinate_system_code '2'
_symmetry_cell_setting 'tetragonal'
loop_
_space_group_symop_operation_xyz
x,y,z
3/4-y,1/4+x,1/4+z
-x,1/2-y,z
1/4+y,1/4-x,1/4+z
-x,-y,-z
1/4+y,3/4-x,3/4-z
x,1/2+y,-z
3/4-y,3/4+x,3/4-z
1/2+x,1/2+y,1/2+z
1/4-y,3/4+x,3/4+z
1/2-x,-y,1/2+z
3/4+y,3/4-x,3/4+z
1/2-x,1/2-y,1/2-z
3/4+y,1/4-x,1/4-z
1/2+x,y,1/2-z
1/4-y,1/4+x,1/4-z
loop_
_atom_site_type_symbol
_atom_site_label
_atom_site_fract_x
_atom_site_fract_y
_atom_site_fract_z
Si Si1 0.201152 0.433696 0.270774
Si Si2 0.626541 0.589024 0.903829
Si Si3 0.157139 0.443124 0.686688
O O1 0.250000 0.250000 0.250000
O O2 0.338157 0.481149 0.308549
O O3 0.218908 0.557472 0.228832
O O4 0.017247 0.469968 0.293718
O O5 0.500000 0.750000 0.903019
O O6 0.498757 0.430752 0.917104
O O7 0.702639 0.558831 0.855590
#
# Coordination Sequence:
#
# PCOD9546863 Si02
#       3
#    16  16  16
#     4  12  26  48  79 117 161 212 275 348 420 498
#     4  12  26  49  80 119 162 221 281 344 421 510
#     4  12  26  49  81 115 167 215 280 342 418 508
#
# _framework density 26.204605999999998
#
# number of rings (size 3 to 8) (size 9 to 14) (size 15 to 20)
#    0.000    0.000    3.333    7.000    0.000    0.000 
#    0.000    0.000    0.000    0.000    0.000    0.000 
#    0.000    0.000    0.000    0.000    0.000    0.000 
#
# Total GULP energy -134283.394778 kJ/mol
# GULP energy per Si atom -5595.141449 kJ/mol
# Density = 2.614496 g / cm^3
# Si number density = 26.204606 Si / 1000 Ang^3
#
#
#
# Elastic Constant Matrix: (Units=GPa)
#
#
# Indices 1 2 3 4 5 6 
#
# 1 106.8026 7.1902 37.3077 0.0000 0.0000 14.3025
# 2 7.1902 106.8026 37.3077 0.0000 0.0000 -14.3025
# 3 37.3077 37.3077 249.7107 0.0000 0.0000 0.0000
# 4 0.0000 0.0000 0.0000 56.3516 0.0000 0.0000
# 5 0.0000 0.0000 0.0000 0.0000 56.3516 0.0000
# 6 14.3025 -14.3025 0.0000 0.0000 0.0000 35.5738
#
#
#
# Elastic Compliance Matrix: (Units=1/GPa)
#
#
# Indices 1 2 3 4 5 6 
#
# 1 0.010536 -0.000813 -0.001453 0.000000 0.000000 -0.004563
# 2 -0.000813 0.010536 -0.001453 0.000000 0.000000 0.004563
# 3 -0.001453 -0.001453 0.004439 0.000000 0.000000 0.000000
# 4 0.000000 0.000000 0.000000 0.017746 0.000000 0.000000
# 5 0.000000 0.000000 0.000000 0.000000 0.017746 0.000000
# 6 -0.004563 0.004563 0.000000 0.000000 0.000000 0.031780
#
#
# Mechanical properties :
#
#
# Convention : Reuss Voigt Hill
#
# Bulk Modulus (GPa) = 55.32616 69.65856 62.49236
# Shear Modulus (GPa) = 47.06148 55.08944 51.07546
#
# Velocity S-wave (km/s) = 4.24243 4.59004 4.41965
# Velocity P-wave (km/s) = 6.71987 7.39808 7.06711
#
# Compressibility (1/GPa) = 0.01807463
#
# Stress axis : x y z
#
# Youngs Moduli (GPa) = 94.90998 94.90997 225.29052
#
# Poissons Ratio (x) = 0.07715 0.32728
# Poissons Ratio (y) = 0.07715 0.32728
# Poissons Ratio (z) = 0.13788 0.13788
#
# Static dielectric constant tensor:
#      x y z
#    x 2.223700 0.000000 0.000000 
#    y 0.000000 2.223700 0.000000 
#    z 0.000000 0.000000 2.020350 
# 
# From -- ./inp_files/6122.got.cif
#   From: 2010.05.17/outbox.cif.g08.bks.cpg/sg88_4_cif.got.tgz:6122.got - 2010.06.03 19:11:41.
