data_PCOD9546171
_publ_section_title
;
Structure prediction by ZEFSAII (Michael W. Deem and Ramdas Pophale) SiO2 
 PCOD9546171
Probable space group: I 4/M
;
_chemical_formula_sum "Si O2"
_cell_formula_units_Z 88
_cell_length_a 13.741216
_cell_length_b 13.741216
_cell_length_c 24.704609
_cell_angle_alpha 90.000000
_cell_angle_beta 90.000000
_cell_angle_gamma 90.000000
_cell_volume 4664.749400
_symmetry_space_group_name_H-M "I 4/M"
_symmetry_group_IT_number 87
_symmetry_cell_setting 'tetragonal'
loop_
_space_group_symop_operation_xyz
x,y,z
-y,x,z
-x,-y,z
y,-x,z
-x,-y,-z
y,-x,-z
x,y,-z
-y,x,-z
1/2+x,1/2+y,1/2+z
1/2-y,1/2+x,1/2+z
1/2-x,1/2-y,1/2+z
1/2+y,1/2-x,1/2+z
1/2-x,1/2-y,1/2-z
1/2+y,1/2-x,1/2-z
1/2+x,1/2+y,1/2-z
1/2-y,1/2+x,1/2-z
loop_
_atom_site_type_symbol
_atom_site_label
_atom_site_fract_x
_atom_site_fract_y
_atom_site_fract_z
Si Si1 0.132302 0.400807 0.120439
Si Si2 0.365470 0.097978 0.120140
Si Si3 0.857399 0.083731 0.500000
Si Si4 0.903912 0.369997 0.000000
Si Si5 0.910938 0.364908 0.500000
Si Si6 0.227636 0.241552 0.312791
Si Si7 0.415649 0.361310 0.881554
O O1 0.135024 0.520205 0.125204
O O2 0.194636 0.331864 0.159566
O O3 0.018303 0.374380 0.127729
O O4 0.166744 0.375704 0.058904
O O5 0.326248 0.113754 0.058795
O O6 0.291289 0.152858 0.159934
O O7 0.817861 0.110909 0.440717
O O8 0.967278 0.127383 0.500000
O O9 0.849314 0.473510 0.000000
O O10 0.018876 0.394612 0.000000
O O11 0.250000 0.250000 0.250000
O O12 0.125837 0.192159 0.329767
O O13 0.530706 0.371913 0.880284
#
# Coordination Sequence:
#
# PCOD9546171 Si02
#       7
#    16  16   8   8   8  16  16
#     4   9  19  37  59  81 107 138 171 215 271 322
#     4   9  19  37  59  81 107 138 171 215 271 322
#     4   7  12  26  50  80 110 132 150 183 246 334
#     4   7  12  28  55  83 106 128 162 211 267 325
#     4   7  12  28  55  83 106 128 162 211 267 325
#     4  12  25  35  48  74 106 141 190 228 245 288
#     4   9  18  34  55  80 110 136 157 196 262 329
#
# _framework density 18.864892000000001
#
# number of rings (size 3 to 8) (size 9 to 14) (size 15 to 20)
#    0.000    3.000    0.000    4.364    0.000    5.091 
#    0.000    7.273    0.000    0.545    0.000    0.000 
#    0.000    4.364    0.000    0.000    0.000    0.182 
#
# Total GULP energy -244945.860172 kJ/mol
# GULP energy per Si atom -5566.951368 kJ/mol
# Density = 1.882196 g / cm^3
# Si number density = 18.864892 Si / 1000 Ang^3
#
#
#
# Elastic Constant Matrix: (Units=GPa)
#
#
# Indices 1 2 3 4 5 6 
#
# 1 68.8906 35.6204 49.4791 0.0000 0.0000 -0.1848
# 2 35.6204 68.8906 49.4791 0.0000 0.0000 0.1848
# 3 49.4791 49.4791 197.7039 0.0000 0.0000 0.0000
# 4 0.0000 0.0000 0.0000 -243.8183 0.0000 0.0000
# 5 0.0000 0.0000 0.0000 0.0000 -243.8183 0.0000
# 6 -0.1848 0.1848 0.0000 0.0000 0.0000 33.6718
#
#
#
# Elastic Compliance Matrix: (Units=1/GPa)
#
#
# Indices 1 2 3 4 5 6 
#
# 1 0.021299 -0.008759 -0.003138 0.000000 0.000000 0.000165
# 2 -0.008759 0.021299 -0.003138 0.000000 0.000000 -0.000165
# 3 -0.003138 -0.003138 0.006629 0.000000 0.000000 0.000000
# 4 0.000000 0.000000 0.000000 -0.004101 0.000000 0.000000
# 5 0.000000 0.000000 0.000000 0.000000 -0.004101 0.000000
# 6 0.000165 -0.000165 0.000000 0.000000 0.000000 0.029700
#
#
# Mechanical properties :
#
#
# Convention : Reuss Voigt Hill
#
# Bulk Modulus (GPa) = 52.20442 67.18248 59.69345
# Shear Modulus (GPa) = 46.64937 -77.39919 -15.37491
#
# Velocity S-wave (km/s) = 4.97813 -6.41227 -2.85792
# Velocity P-wave (km/s) = 7.79585 4.37415 4.56301
#
# Compressibility (1/GPa) = 0.01915547
#
# Stress axis : x y z
#
# Youngs Moduli (GPa) = 46.94970 46.94970 150.85359
#
# Poissons Ratio (x) = 0.41125 0.47344
# Poissons Ratio (y) = 0.41125 0.47344
# Poissons Ratio (z) = 0.14735 0.14735
#
# Static dielectric constant tensor:
#      x y z
#    x 1.713640 0.000000 0.000000 
#    y 0.000000 1.713640 0.000000 
#    z 0.000000 0.000000 1.637650 
# 
# From -- ./inp_files/5792.got.cif
#   From: 2010.05.17/outbox.cif.g08.bks.cpg/sg87_3_cif.got.tgz:5792.got - 2010.06.03 19:07:00.
