data_PCOD9546663
_publ_section_title
;
Structure prediction by ZEFSAII (Michael W. Deem and Ramdas Pophale) SiO2 
 PCOD9546663
Probable space group: I 41/A
;
_chemical_formula_sum "Si O2"
_cell_formula_units_Z 64
_cell_length_a 13.129837
_cell_length_b 13.129837
_cell_length_c 15.015940
_cell_angle_alpha 90.000000
_cell_angle_beta 90.000000
_cell_angle_gamma 90.000000
_cell_volume 2588.637233
_symmetry_space_group_name_H-M "I 41/A"
_symmetry_group_IT_number 88
_space_group.IT_coordinate_system_code '2'
_symmetry_cell_setting 'tetragonal'
loop_
_space_group_symop_operation_xyz
x,y,z
3/4-y,1/4+x,1/4+z
-x,1/2-y,z
1/4+y,1/4-x,1/4+z
-x,-y,-z
1/4+y,3/4-x,3/4-z
x,1/2+y,-z
3/4-y,3/4+x,3/4-z
1/2+x,1/2+y,1/2+z
1/4-y,3/4+x,3/4+z
1/2-x,-y,1/2+z
3/4+y,3/4-x,3/4+z
1/2-x,1/2-y,1/2-z
3/4+y,1/4-x,1/4-z
1/2+x,y,1/2-z
1/4-y,1/4+x,1/4-z
loop_
_atom_site_type_symbol
_atom_site_label
_atom_site_fract_x
_atom_site_fract_y
_atom_site_fract_z
Si Si1 0.847907 0.048114 0.964644
Si Si2 0.263637 0.749952 0.396447
Si Si3 0.353513 0.585994 0.998498
Si Si4 0.987800 0.402292 0.109901
O O1 0.829589 0.164642 0.942792
O O2 0.907837 0.994168 0.882996
O O3 0.925766 0.050605 0.046487
O O4 0.742885 0.989677 0.985220
O O5 0.200113 0.683148 0.324435
O O6 0.192532 0.808354 0.466823
O O7 0.329041 0.833310 0.342661
O O8 0.911291 0.312382 0.074216
#
# Coordination Sequence:
#
# PCOD9546663 Si02
#       4
#    16  16  16  16
#     4  11  24  48  73 112 155 198 258 323 394 463
#     4  11  25  48  78 111 156 209 251 331 392 460
#     4  11  25  49  76 112 157 203 265 321 386 480
#     4  10  24  43  72 104 150 201 249 319 381 470
#
# _framework density 24.723434000000001
#
# number of rings (size 3 to 8) (size 9 to 14) (size 15 to 20)
#    0.000    1.250    2.500    1.500    7.000    0.500 
#    0.000    5.000    0.000    0.000    0.000    0.000 
#    0.000    0.000    0.000    0.000    0.000    0.000 
#
# Total GULP energy -178682.182040 kJ/mol
# GULP energy per Si atom -5583.818189 kJ/mol
# Density = 2.466716 g / cm^3
# Si number density = 24.723434 Si / 1000 Ang^3
#
#
#
# Elastic Constant Matrix: (Units=GPa)
#
#
# Indices 1 2 3 4 5 6 
#
# 1 152.5036 64.9949 36.0722 0.0000 0.0000 19.9077
# 2 64.9949 152.5036 36.0722 0.0000 0.0000 -19.9077
# 3 36.0722 36.0722 42.2227 0.0000 0.0000 0.0000
# 4 0.0000 0.0000 0.0000 41.1035 0.0000 0.0000
# 5 0.0000 0.0000 0.0000 0.0000 41.1035 0.0000
# 6 19.9077 -19.9077 0.0000 0.0000 0.0000 64.6172
#
#
#
# Elastic Compliance Matrix: (Units=1/GPa)
#
#
# Indices 1 2 3 4 5 6 
#
# 1 0.009853 -0.003437 -0.005481 0.000000 0.000000 -0.004095
# 2 -0.003437 0.009853 -0.005481 0.000000 0.000000 0.004095
# 3 -0.005481 -0.005481 0.033050 0.000000 0.000000 0.000000
# 4 0.000000 0.000000 0.000000 0.024329 0.000000 0.000000
# 5 0.000000 0.000000 0.000000 0.000000 0.024329 0.000000
# 6 -0.004095 0.004095 0.000000 0.000000 0.000000 0.017999
#
#
# Mechanical properties :
#
#
# Convention : Reuss Voigt Hill
#
# Bulk Modulus (GPa) = 41.74280 69.05648 55.39964
# Shear Modulus (GPa) = 32.01076 43.37088 37.69082
#
# Velocity S-wave (km/s) = 3.60217 4.19291 3.90872
# Velocity P-wave (km/s) = 5.84991 7.17167 6.54425
#
# Compressibility (1/GPa) = 0.02395623
#
# Stress axis : x y z
#
# Youngs Moduli (GPa) = 101.49029 101.49029 30.25753
#
# Poissons Ratio (x) = 0.34885 0.16585
# Poissons Ratio (y) = 0.34885 0.16585
# Poissons Ratio (z) = 0.55630 0.55630
#
# Static dielectric constant tensor:
#      x y z
#    x 1.952280 0.000000 0.000000 
#    y 0.000000 1.952280 0.000000 
#    z 0.000000 0.000000 2.124630 
# 
# From -- ./inp_files/4403.got.cif
#   From: 2010.05.17/outbox.cif.g08.bks.cpg/sg88_3_cif.got.tgz:4403.got - 2010.06.03 19:11:41.
