data_PCOD9546618
_publ_section_title
;
Structure prediction by ZEFSAII (Michael W. Deem and Ramdas Pophale) SiO2 
 PCOD9546618
Probable space group: I 41/A
;
_chemical_formula_sum "Si O2"
_cell_formula_units_Z 108
_cell_length_a 14.635943
_cell_length_b 14.635943
_cell_length_c 20.959083
_cell_angle_alpha 90.000000
_cell_angle_beta 90.000000
_cell_angle_gamma 90.000000
_cell_volume 4489.662513
_symmetry_space_group_name_H-M "I 41/A"
_symmetry_group_IT_number 88
_space_group.IT_coordinate_system_code '2'
_symmetry_cell_setting 'tetragonal'
loop_
_space_group_symop_operation_xyz
x,y,z
3/4-y,1/4+x,1/4+z
-x,1/2-y,z
1/4+y,1/4-x,1/4+z
-x,-y,-z
1/4+y,3/4-x,3/4-z
x,1/2+y,-z
3/4-y,3/4+x,3/4-z
1/2+x,1/2+y,1/2+z
1/4-y,3/4+x,3/4+z
1/2-x,-y,1/2+z
3/4+y,3/4-x,3/4+z
1/2-x,1/2-y,1/2-z
3/4+y,1/4-x,1/4-z
1/2+x,y,1/2-z
1/4-y,1/4+x,1/4-z
loop_
_atom_site_type_symbol
_atom_site_label
_atom_site_fract_x
_atom_site_fract_y
_atom_site_fract_z
Si Si1 0.272705 0.333806 0.595201
Si Si2 0.639683 0.112540 0.462954
Si Si3 0.000000 0.250000 0.625000
Si Si4 0.500000 0.750000 0.713765
Si Si5 0.146289 0.189348 0.537754
Si Si6 0.548109 0.153000 0.661625
Si Si7 0.060434 0.419246 0.947263
Si Si8 0.753179 0.960963 0.413353
O O1 0.327647 0.346980 0.529540
O O2 0.212602 0.245396 0.584570
O O3 0.344448 0.329442 0.653288
O O4 0.212612 0.424712 0.606516
O O5 0.581030 0.192535 0.430209
O O6 0.579339 0.020954 0.474936
O O7 0.723483 0.066059 0.426124
O O8 0.947737 0.316764 0.576502
O O9 0.582248 0.704719 0.756318
O O10 0.131904 0.253623 0.476908
O O11 0.193583 0.091166 0.529277
O O12 0.500000 0.250000 0.647632
O O13 0.516813 0.084059 0.606206
O O14 0.156730 0.409254 0.908499
#
# Coordination Sequence:
#
# PCOD9546618 Si02
#       8
#    16  16   4   8  16  16  16  16
#     4  12  24  45  69 102 145 185 239 296 365 430
#     4  10  24  40  71 103 136 197 235 299 366 432
#     4  12  24  50  72 100 144 186 236 288 366 440
#     4  12  18  43  74  95 144 186 248 296 366 438
#     4  12  25  47  70 104 145 185 239 300 363 437
#     4  12  24  43  72 103 137 190 247 290 366 443
#     4  10  23  41  68 104 138 192 242 299 361 437
#     4  10  25  42  65 102 141 183 236 304 350 422
#
# _framework density 24.055261000000002
#
# number of rings (size 3 to 8) (size 9 to 14) (size 15 to 20)
#    0.889    0.000    4.444    3.111    2.074    0.000 
#    0.000    1.481    0.000    0.889    0.000    0.000 
#    0.000    0.000    0.000    0.000    0.000    0.000 
#
# Total GULP energy -301151.110383 kJ/mol
# GULP energy per Si atom -5576.872415 kJ/mol
# Density = 2.400051 g / cm^3
# Si number density = 24.055261 Si / 1000 Ang^3
#
#
#
# Elastic Constant Matrix: (Units=GPa)
#
#
# Indices 1 2 3 4 5 6 
#
# 1 103.5630 19.1838 12.1829 0.0000 0.0000 7.4941
# 2 19.1838 103.5630 12.1829 0.0000 0.0000 -7.4941
# 3 12.1829 12.1829 47.3716 0.0000 0.0000 0.0000
# 4 0.0000 0.0000 0.0000 31.8236 0.0000 0.0000
# 5 0.0000 0.0000 0.0000 0.0000 31.8236 0.0000
# 6 7.4941 -7.4941 0.0000 0.0000 0.0000 44.3098
#
#
#
# Elastic Compliance Matrix: (Units=1/GPa)
#
#
# Indices 1 2 3 4 5 6 
#
# 1 0.010402 -0.001817 -0.002208 0.000000 0.000000 -0.002066
# 2 -0.001817 0.010402 -0.002208 0.000000 0.000000 0.002066
# 3 -0.002208 -0.002208 0.022245 0.000000 0.000000 0.000000
# 4 0.000000 0.000000 0.000000 0.031423 0.000000 0.000000
# 5 0.000000 0.000000 0.000000 0.000000 0.031423 0.000000
# 6 -0.002066 0.002066 0.000000 0.000000 0.000000 0.023267
#
#
# Mechanical properties :
#
#
# Convention : Reuss Voigt Hill
#
# Bulk Modulus (GPa) = 32.69685 37.95521 35.32603
# Shear Modulus (GPa) = 32.93331 35.65462 34.29396
#
# Velocity S-wave (km/s) = 3.70411 3.85411 3.77985
# Velocity P-wave (km/s) = 5.64941 5.96809 5.81093
#
# Compressibility (1/GPa) = 0.03058399
#
# Stress axis : x y z
#
# Youngs Moduli (GPa) = 96.13788 96.13788 44.95328
#
# Poissons Ratio (x) = 0.17464 0.09925
# Poissons Ratio (y) = 0.17464 0.09925
# Poissons Ratio (z) = 0.21226 0.21226
#
# Static dielectric constant tensor:
#      x y z
#    x 2.016700 0.000000 0.000000 
#    y 0.000000 2.016700 0.000000 
#    z 0.000000 0.000000 1.913470 
# 
# From -- ./inp_files/5394.got.cif
#   From: 2010.05.17/outbox.cif.g08.bks.cpg/sg88_3_cif.got.tgz:5394.got - 2010.06.03 19:11:41.
