data_PCOD9546644
_publ_section_title
;
Structure prediction by ZEFSAII (Michael W. Deem and Ramdas Pophale) SiO2 
 PCOD9546644
Probable space group: I 41/A
;
_chemical_formula_sum "Si O2"
_cell_formula_units_Z 64
_cell_length_a 10.210888
_cell_length_b 10.210888
_cell_length_c 24.739108
_cell_angle_alpha 90.000000
_cell_angle_beta 90.000000
_cell_angle_gamma 90.000000
_cell_volume 2579.354661
_symmetry_space_group_name_H-M "I 41/A"
_symmetry_group_IT_number 88
_space_group.IT_coordinate_system_code '2'
_symmetry_cell_setting 'tetragonal'
loop_
_space_group_symop_operation_xyz
x,y,z
3/4-y,1/4+x,1/4+z
-x,1/2-y,z
1/4+y,1/4-x,1/4+z
-x,-y,-z
1/4+y,3/4-x,3/4-z
x,1/2+y,-z
3/4-y,3/4+x,3/4-z
1/2+x,1/2+y,1/2+z
1/4-y,3/4+x,3/4+z
1/2-x,-y,1/2+z
3/4+y,3/4-x,3/4+z
1/2-x,1/2-y,1/2-z
3/4+y,1/4-x,1/4-z
1/2+x,y,1/2-z
1/4-y,1/4+x,1/4-z
loop_
_atom_site_type_symbol
_atom_site_label
_atom_site_fract_x
_atom_site_fract_y
_atom_site_fract_z
Si Si1 0.500000 0.250000 0.754071
Si Si2 0.269801 0.828339 0.880569
Si Si3 0.345553 0.006148 0.962754
Si Si4 0.500000 0.750000 0.807348
Si Si5 0.837208 0.375020 0.037665
O O1 0.404711 0.346455 0.789072
O O2 0.372780 0.189881 0.720788
O O3 0.263972 0.969558 0.909397
O O4 0.402511 0.820308 0.847748
O O5 0.248725 0.725656 0.928238
O O6 0.167429 0.807394 0.831987
O O7 0.253466 0.008353 0.015758
O O8 0.569316 0.848309 0.765887
#
# Coordination Sequence:
#
# PCOD9546644 Si02
#       5
#     8  16  16   8  16
#     4  10  23  44  75  99 159 194 258 324 398 470
#     4  12  25  44  76 108 148 207 260 324 416 482
#     4  11  23  47  72 111 150 207 252 334 390 495
#     4  12  27  47  72 111 149 205 268 343 398 498
#     4  12  25  47  73 107 154 198 262 335 397 487
#
# _framework density 24.812408000000001
#
# number of rings (size 3 to 8) (size 9 to 14) (size 15 to 20)
#    0.000    0.500    2.500    6.000    3.500    0.000 
#    0.000    1.250    0.000    0.000    0.000    0.000 
#    0.000    0.000    0.000    0.000    0.000    0.000 
#
# Total GULP energy -178445.425505 kJ/mol
# GULP energy per Si atom -5576.419547 kJ/mol
# Density = 2.475593 g / cm^3
# Si number density = 24.812408 Si / 1000 Ang^3
#
#
#
# Elastic Constant Matrix: (Units=GPa)
#
#
# Indices 1 2 3 4 5 6 
#
# 1 100.5384 26.3451 49.1805 0.0000 0.0000 -10.9373
# 2 26.3451 100.5384 49.1805 0.0000 0.0000 10.9373
# 3 49.1805 49.1805 169.2031 0.0000 0.0000 0.0000
# 4 0.0000 0.0000 0.0000 63.4038 0.0000 0.0000
# 5 0.0000 0.0000 0.0000 0.0000 63.4038 0.0000
# 6 -10.9373 10.9373 0.0000 0.0000 0.0000 60.0835
#
#
#
# Elastic Compliance Matrix: (Units=1/GPa)
#
#
# Indices 1 2 3 4 5 6 
#
# 1 0.012208 -0.002035 -0.002957 0.000000 0.000000 0.002593
# 2 -0.002035 0.012208 -0.002957 0.000000 0.000000 -0.002593
# 3 -0.002957 -0.002957 0.007629 0.000000 0.000000 0.000000
# 4 0.000000 0.000000 0.000000 0.015772 0.000000 0.000000
# 5 0.000000 0.000000 0.000000 0.000000 0.015772 0.000000
# 6 0.002593 -0.002593 0.000000 0.000000 0.000000 0.017587
#
#
# Mechanical properties :
#
#
# Convention : Reuss Voigt Hill
#
# Bulk Modulus (GPa) = 61.92719 68.85468 65.39093
# Shear Modulus (GPa) = 48.80116 53.74980 51.27548
#
# Velocity S-wave (km/s) = 4.43968 4.65935 4.55084
# Velocity P-wave (km/s) = 7.16194 7.53368 7.35016
#
# Compressibility (1/GPa) = 0.01614800
#
# Stress axis : x y z
#
# Youngs Moduli (GPa) = 81.91257 81.91257 131.07806
#
# Poissons Ratio (x) = 0.16666 0.38760
# Poissons Ratio (y) = 0.16666 0.38760
# Poissons Ratio (z) = 0.24222 0.24222
#
# Static dielectric constant tensor:
#      x y z
#    x 2.200980 0.000000 0.000000 
#    y 0.000000 2.200980 0.000000 
#    z 0.000000 0.000000 1.947280 
# 
# From -- ./inp_files/5167.got.cif
#   From: 2010.05.17/outbox.cif.g08.bks.cpg/sg88_3_cif.got.tgz:5167.got - 2010.06.03 19:11:41.
