data_PCOD9546814
_publ_section_title
;
Structure prediction by ZEFSAII (Michael W. Deem and Ramdas Pophale) SiO2 
 PCOD9546814
Probable space group: I 41/A
;
_chemical_formula_sum "Si O2"
_cell_formula_units_Z 52
_cell_length_a 14.334508
_cell_length_b 14.334508
_cell_length_c 10.367525
_cell_angle_alpha 90.000000
_cell_angle_beta 90.000000
_cell_angle_gamma 90.000000
_cell_volume 2130.299542
_symmetry_space_group_name_H-M "I 41/A"
_symmetry_group_IT_number 88
_space_group.IT_coordinate_system_code '2'
_symmetry_cell_setting 'tetragonal'
loop_
_space_group_symop_operation_xyz
x,y,z
3/4-y,1/4+x,1/4+z
-x,1/2-y,z
1/4+y,1/4-x,1/4+z
-x,-y,-z
1/4+y,3/4-x,3/4-z
x,1/2+y,-z
3/4-y,3/4+x,3/4-z
1/2+x,1/2+y,1/2+z
1/4-y,3/4+x,3/4+z
1/2-x,-y,1/2+z
3/4+y,3/4-x,3/4+z
1/2-x,1/2-y,1/2-z
3/4+y,1/4-x,1/4-z
1/2+x,y,1/2-z
1/4-y,1/4+x,1/4-z
loop_
_atom_site_type_symbol
_atom_site_label
_atom_site_fract_x
_atom_site_fract_y
_atom_site_fract_z
Si Si1 0.000000 0.750000 0.875000
Si Si2 0.496476 0.099442 0.568288
Si Si3 0.103972 0.341807 0.673520
Si Si4 0.315563 0.043702 0.171539
O O1 0.922838 0.793259 0.783058
O O2 0.435973 0.110970 0.696982
O O3 0.607098 0.116945 0.588847
O O4 0.500000 0.000000 0.500000
O O5 0.110168 0.229785 0.678222
O O6 0.203567 0.378764 0.629676
O O7 0.296680 0.021731 0.322166
#
# Coordination Sequence:
#
# PCOD9546814 Si02
#       4
#     4  16  16  16
#     4  12  28  48  78 112 164 204 256 338 404 464
#     4  12  27  52  78 117 161 206 261 333 402 480
#     4  11  25  50  77 113 157 207 270 325 386 474
#     4  12  26  49  80 119 157 212 264 324 405 480
#
# _framework density 24.409713
#
# number of rings (size 3 to 8) (size 9 to 14) (size 15 to 20)
#    0.000    0.308    3.077    5.538    0.000    3.692 
#    0.000    0.000    0.000    0.000    0.000    0.000 
#    0.000    0.000    0.000    0.000    0.000    0.000 
#
# Total GULP energy -145486.105403 kJ/mol
# GULP energy per Si atom -5595.619439 kJ/mol
# Density = 2.435416 g / cm^3
# Si number density = 24.409713 Si / 1000 Ang^3
#
#
#
# Elastic Constant Matrix: (Units=GPa)
#
#
# Indices 1 2 3 4 5 6 
#
# 1 121.4267 16.6308 24.0628 0.0000 0.0000 8.9597
# 2 16.6308 121.4267 24.0628 0.0000 0.0000 -8.9597
# 3 24.0628 24.0628 133.6607 0.0000 0.0000 0.0000
# 4 0.0000 0.0000 0.0000 33.2815 0.0000 0.0000
# 5 0.0000 0.0000 0.0000 0.0000 33.2815 0.0000
# 6 8.9597 -8.9597 0.0000 0.0000 0.0000 30.8418
#
#
#
# Elastic Compliance Matrix: (Units=1/GPa)
#
#
# Indices 1 2 3 4 5 6 
#
# 1 0.008885 -0.001156 -0.001391 0.000000 0.000000 -0.002917
# 2 -0.001156 0.008885 -0.001391 0.000000 0.000000 0.002917
# 3 -0.001391 -0.001391 0.007983 0.000000 0.000000 0.000000
# 4 0.000000 0.000000 0.000000 0.030047 0.000000 0.000000
# 5 0.000000 0.000000 0.000000 0.000000 0.030047 0.000000
# 6 -0.002917 0.002917 0.000000 0.000000 0.000000 0.034118
#
#
# Mechanical properties :
#
#
# Convention : Reuss Voigt Hill
#
# Bulk Modulus (GPa) = 55.94718 56.22520 56.08619
# Shear Modulus (GPa) = 37.36919 40.26479 38.81699
#
# Velocity S-wave (km/s) = 3.91694 4.06586 3.99209
# Velocity P-wave (km/s) = 6.58986 6.71756 6.65402
#
# Compressibility (1/GPa) = 0.01787400
#
# Stress axis : x y z
#
# Youngs Moduli (GPa) = 112.55229 112.55229 125.27257
#
# Poissons Ratio (x) = 0.13015 0.17430
# Poissons Ratio (y) = 0.13015 0.17430
# Poissons Ratio (z) = 0.15660 0.15660
#
# Static dielectric constant tensor:
#      x y z
#    x 1.956060 0.000000 0.000000 
#    y 0.000000 1.956060 0.000000 
#    z 0.000000 0.000000 1.998340 
# 
# From -- ./inp_files/2201.got.cif
#   From: 2010.05.17/outbox.cif.g08.bks.cpg/sg88_2_cif.got.tgz:2201.got - 2010.06.03 19:11:41.
