data_PCOD9546257
_publ_section_title
;
Structure prediction by ZEFSAII (Michael W. Deem and Ramdas Pophale) SiO2 
 PCOD9546257
Probable space group: I 41/A
;
_chemical_formula_sum "Si O2"
_cell_formula_units_Z 84
_cell_length_a 18.780369
_cell_length_b 18.780369
_cell_length_c 13.286899
_cell_angle_alpha 90.000000
_cell_angle_beta 90.000000
_cell_angle_gamma 90.000000
_cell_volume 4686.319303
_symmetry_space_group_name_H-M "I 41/A"
_symmetry_group_IT_number 88
_space_group.IT_coordinate_system_code '2'
_symmetry_cell_setting 'tetragonal'
loop_
_space_group_symop_operation_xyz
x,y,z
3/4-y,1/4+x,1/4+z
-x,1/2-y,z
1/4+y,1/4-x,1/4+z
-x,-y,-z
1/4+y,3/4-x,3/4-z
x,1/2+y,-z
3/4-y,3/4+x,3/4-z
1/2+x,1/2+y,1/2+z
1/4-y,3/4+x,3/4+z
1/2-x,-y,1/2+z
3/4+y,3/4-x,3/4+z
1/2-x,1/2-y,1/2-z
3/4+y,1/4-x,1/4-z
1/2+x,y,1/2-z
1/4-y,1/4+x,1/4-z
loop_
_atom_site_type_symbol
_atom_site_label
_atom_site_fract_x
_atom_site_fract_y
_atom_site_fract_z
Si Si1 0.221378 0.755523 0.137232
Si Si2 0.500000 0.750000 0.125000
Si Si3 0.635823 0.891836 0.898631
Si Si4 0.305489 0.969323 0.154964
Si Si5 0.166315 0.905017 0.186845
Si Si6 0.505098 0.895511 0.261190
O O1 0.250000 0.750000 0.250000
O O2 0.160771 0.696221 0.131185
O O3 0.189916 0.833945 0.129415
O O4 0.287229 0.743278 0.062801
O O5 0.503481 0.821655 0.195162
O O6 0.674581 0.948672 0.826091
O O7 0.666985 0.918924 0.006573
O O8 0.644954 0.807806 0.906533
O O9 0.220369 0.963515 0.142547
O O10 0.343970 0.939219 0.055138
O O11 0.081841 0.908158 0.188719
#
# Coordination Sequence:
#
# PCOD9546257 Si02
#       6
#    16   4  16  16  16  16
#     4  12  18  29  51  74 107 145 175 206 259 321
#     4  12  24  28  44  88 116 152 160 190 272 336
#     4  11  20  33  49  77 104 143 179 213 262 310
#     4  10  19  30  52  73 102 139 178 215 246 318
#     4  11  20  33  49  77 104 143 179 213 262 310
#     4  12  22  34  49  80 115 147 165 215 264 318
#
# _framework density 17.924515
#
# number of rings (size 3 to 8) (size 9 to 14) (size 15 to 20)
#    0.000    0.762    7.619    4.571    0.000    0.000 
#    0.000    0.000    0.000    4.571    0.000    0.000 
#    0.000    0.000    0.000    0.000    0.000    0.000 
#
# Total GULP energy -233942.596473 kJ/mol
# GULP energy per Si atom -5570.061821 kJ/mol
# Density = 1.788372 g / cm^3
# Si number density = 17.924515 Si / 1000 Ang^3
#
#
#
# Elastic Constant Matrix: (Units=GPa)
#
#
# Indices 1 2 3 4 5 6 
#
# 1 92.9803 -15.6034 -7.2244 0.0000 0.0000 3.6003
# 2 -15.6034 92.9803 -7.2244 0.0000 0.0000 -3.6003
# 3 -7.2244 -7.2244 9.4514 0.0000 0.0000 0.0000
# 4 0.0000 0.0000 0.0000 13.6631 0.0000 0.0000
# 5 0.0000 0.0000 0.0000 0.0000 13.6631 0.0000
# 6 3.6003 -3.6003 0.0000 0.0000 0.0000 27.6103
#
#
#
# Elastic Compliance Matrix: (Units=1/GPa)
#
#
# Indices 1 2 3 4 5 6 
#
# 1 0.012183 0.002893 0.011523 0.000000 0.000000 -0.001211
# 2 0.002893 0.012183 0.011523 0.000000 0.000000 0.001211
# 3 0.011523 0.011523 0.123420 0.000000 0.000000 0.000000
# 4 0.000000 0.000000 0.000000 0.073190 0.000000 0.000000
# 5 0.000000 0.000000 0.000000 0.000000 0.073190 0.000000
# 6 -0.001211 0.001211 0.000000 0.000000 0.000000 0.036534
#
#
# Mechanical properties :
#
#
# Convention : Reuss Voigt Hill
#
# Bulk Modulus (GPa) = 5.00840 15.03419 10.02130
# Shear Modulus (GPa) = 14.47699 26.01825 20.24762
#
# Velocity S-wave (km/s) = 2.84503 3.81405 3.36461
# Velocity P-wave (km/s) = 3.68680 5.27273 4.54940
#
# Compressibility (1/GPa) = 0.19966446
#
# Stress axis : x y z
#
# Youngs Moduli (GPa) = 82.08386 82.08386 8.10239
#
# Poissons Ratio (x) = -0.23746 -0.09337
# Poissons Ratio (y) = -0.23746 -0.09337
# Poissons Ratio (z) = -0.94587 -0.94587
#
# Static dielectric constant tensor:
#      x y z
#    x 1.690960 0.000000 0.000000 
#    y 0.000000 1.690960 0.000000 
#    z 0.000000 0.000000 1.622470 
# 
# From -- ./inp_files/3902.got.cif
#   From: 2010.05.17/outbox.cif.g08.bks.cpg/sg88_2_cif.got.tgz:3902.got - 2010.06.03 19:11:41.
