data_PCOD9546131
_publ_section_title
;
Structure prediction by ZEFSAII (Michael W. Deem and Ramdas Pophale) SiO2 
 PCOD9546131
Probable space group: I 4/M
;
_chemical_formula_sum "Si O2"
_cell_formula_units_Z 50
_cell_length_a 13.117106
_cell_length_b 13.117106
_cell_length_c 12.207898
_cell_angle_alpha 90.000000
_cell_angle_beta 90.000000
_cell_angle_gamma 90.000000
_cell_volume 2100.472250
_symmetry_space_group_name_H-M "I 4/M"
_symmetry_group_IT_number 87
_symmetry_cell_setting 'tetragonal'
loop_
_space_group_symop_operation_xyz
x,y,z
-y,x,z
-x,-y,z
y,-x,z
-x,-y,-z
y,-x,-z
x,y,-z
-y,x,-z
1/2+x,1/2+y,1/2+z
1/2-y,1/2+x,1/2+z
1/2-x,1/2-y,1/2+z
1/2+y,1/2-x,1/2+z
1/2-x,1/2-y,1/2-z
1/2+y,1/2-x,1/2-z
1/2+x,1/2+y,1/2-z
1/2-y,1/2+x,1/2-z
loop_
_atom_site_type_symbol
_atom_site_label
_atom_site_fract_x
_atom_site_fract_y
_atom_site_fract_z
Si Si1 0.045837 0.386495 0.500000
Si Si2 0.803683 0.901699 0.500000
Si Si3 0.330160 0.532539 0.622539
Si Si4 0.854397 0.741695 0.684216
Si Si5 0.000000 0.000000 0.500000
O O1 0.114031 0.353265 0.606427
O O2 0.000000 0.500000 0.500000
O O3 0.949261 0.309050 0.500000
O O4 0.829935 0.835181 0.604392
O O5 0.877296 0.997776 0.500000
O O6 0.385175 0.422940 0.629120
O O7 0.284214 0.542480 0.500000
O O8 0.260679 0.556688 0.726501
O O9 0.750000 0.750000 0.750000
#
# Coordination Sequence:
#
# PCOD9546131 Si02
#       5
#     8   8  16  16   2
#     4  11  26  53  72 110 159 212 267 337 434 514
#     4  11  24  45  78 115 144 201 267 349 412 481
#     4   9  19  36  66 105 142 182 239 317 399 468
#     4  11  24  43  72 105 150 202 266 323 397 495
#     4  12  20  44  88 120 142 172 284 356 384 470
#
# _framework density 23.804168000000001
#
# number of rings (size 3 to 8) (size 9 to 14) (size 15 to 20)
#    0.000    1.600    3.200    2.880    4.480    0.000 
#   11.520    0.000    0.000    0.960    0.000    0.000 
#    0.000    0.000    0.000    0.000    0.000    0.000 
#
# Total GULP energy -139408.587253 kJ/mol
# GULP energy per Si atom -5576.343490 kJ/mol
# Density = 2.374999 g / cm^3
# Si number density = 23.804168 Si / 1000 Ang^3
#
#
#
# Elastic Constant Matrix: (Units=GPa)
#
#
# Indices 1 2 3 4 5 6 
#
# 1 128.9498 46.1295 64.3381 0.0000 0.0000 10.1109
# 2 46.1295 128.9498 64.3381 0.0000 0.0000 -10.1109
# 3 64.3381 64.3381 197.6814 0.0000 0.0000 0.0000
# 4 0.0000 0.0000 0.0000 36.4759 0.0000 0.0000
# 5 0.0000 0.0000 0.0000 0.0000 36.4759 0.0000
# 6 10.1109 -10.1109 0.0000 0.0000 0.0000 36.1793
#
#
#
# Elastic Compliance Matrix: (Units=1/GPa)
#
#
# Indices 1 2 3 4 5 6 
#
# 1 0.010233 -0.002726 -0.002443 0.000000 0.000000 -0.003621
# 2 -0.002726 0.010233 -0.002443 0.000000 0.000000 0.003621
# 3 -0.002443 -0.002443 0.006649 0.000000 0.000000 0.000000
# 4 0.000000 0.000000 0.000000 0.027415 0.000000 0.000000
# 5 0.000000 0.000000 0.000000 0.000000 0.027415 0.000000
# 6 -0.003621 0.003621 0.000000 0.000000 0.000000 0.029664
#
#
# Mechanical properties :
#
#
# Convention : Reuss Voigt Hill
#
# Bulk Modulus (GPa) = 84.10092 89.46580 86.78336
# Shear Modulus (GPa) = 38.22677 40.54459 39.38568
#
# Velocity S-wave (km/s) = 4.01170 4.13153 4.07205
# Velocity P-wave (km/s) = 7.54091 7.77336 7.65801
#
# Compressibility (1/GPa) = 0.01189048
#
# Stress axis : x y z
#
# Youngs Moduli (GPa) = 97.72262 97.72262 150.39545
#
# Poissons Ratio (x) = 0.26635 0.36748
# Poissons Ratio (y) = 0.26635 0.36748
# Poissons Ratio (z) = 0.23878 0.23878
#
# Static dielectric constant tensor:
#      x y z
#    x 1.890900 0.000000 0.000000 
#    y 0.000000 1.890900 0.000000 
#    z 0.000000 0.000000 1.972580 
# 
# From -- ./inp_files/2134.got.cif
#   From: 2010.05.17/outbox.cif.g08.bks.cpg/sg87_2_cif.got.tgz:2134.got - 2010.06.03 19:07:00.
