data_PCOD9546186
_publ_section_title
;
Structure prediction by ZEFSAII (Michael W. Deem and Ramdas Pophale) SiO2 
 PCOD9546186
Probable space group: I 4/M
;
_chemical_formula_sum "Si O2"
_cell_formula_units_Z 48
_cell_length_a 24.000000
_cell_length_b 24.000000
_cell_length_c 9.000000
_cell_angle_alpha 90.000000
_cell_angle_beta 90.000000
_cell_angle_gamma 90.000000
_cell_volume 5184.000000
_symmetry_space_group_name_H-M "I 4/M"
_symmetry_group_IT_number 87
_symmetry_cell_setting 'tetragonal'
loop_
_space_group_symop_operation_xyz
x,y,z
-y,x,z
-x,-y,z
y,-x,z
-x,-y,-z
y,-x,-z
x,y,-z
-y,x,-z
1/2+x,1/2+y,1/2+z
1/2-y,1/2+x,1/2+z
1/2-x,1/2-y,1/2+z
1/2+y,1/2-x,1/2+z
1/2-x,1/2-y,1/2-z
1/2+y,1/2-x,1/2-z
1/2+x,1/2+y,1/2-z
1/2-y,1/2+x,1/2-z
loop_
_atom_site_type_symbol
_atom_site_label
_atom_site_fract_x
_atom_site_fract_y
_atom_site_fract_z
Si Si1 0.443458 0.574155 0.163632
Si Si2 0.369078 0.353829 0.328265
Si Si3 0.654890 0.051807 0.175062
Si Si4 0.458304 0.274278 0.176514
Si Si5 0.139316 0.424556 0.324716
Si Si6 0.422999 0.730192 0.321457
O O1 0.425279 0.509768 0.168317
O O2 0.414323 0.603712 0.299839
O O3 0.426169 0.596724 0.000000
O O4 0.370143 0.337255 0.500000
O O5 0.408291 0.312859 0.235967
O O6 0.306002 0.368533 0.280580
O O7 0.711873 0.054129 0.267494
O O8 0.613067 0.099142 0.227720
O O9 0.629368 0.990305 0.198910
O O10 0.668184 0.056223 0.000000
O O11 0.519403 0.288559 0.243485
O O12 0.461308 0.277720 0.000000
O O13 0.131082 0.412449 0.500000
O O14 0.204507 0.415071 0.289204
O O15 0.430696 0.724677 0.500000
#
# Coordination Sequence:
#
# PCOD9546186 Si02
#       6
#    16  16  16  16  16  16
#     4   9  18  31  45  65  96 131 170 222 279 328
#     4  11  21  33  51  74 102 139 184 228 272 324
#     4  10  21  38  60  86 116 146 178 218 265 321
#     4  11  22  36  56  80 109 145 185 229 276 326
#     4   9  19  37  59  84 114 144 177 218 265 320
#     4   9  20  38  57  79 110 147 185 229 278 326
#
# _framework density 9.2592590000000001
#
# number of rings (size 3 to 8) (size 9 to 14) (size 15 to 20)
#    0.000    2.167    0.000    5.000    0.000    8.333 
#    0.000    3.333    0.000    0.000    0.000    0.000 
#    0.000    0.000    0.000    0.000    0.000    0.000 
#
# Total GULP energy -267758.574177 kJ/mol
# GULP energy per Si atom -5578.303629 kJ/mol
# Density = 0.923818 g / cm^3
# Si number density = 9.259259 Si / 1000 Ang^3
#
#
#
# Elastic Constant Matrix: (Units=GPa)
#
#
# Indices 1 2 3 4 5 6 
#
# 1 63.7210 48.5375 39.6526 0.0000 0.0000 2.2181
# 2 48.5375 63.7210 39.6526 0.0000 0.0000 -2.2181
# 3 39.6526 39.6526 64.0577 0.0000 0.0000 0.0000
# 4 0.0000 0.0000 0.0000 30.9151 0.0000 0.0000
# 5 0.0000 0.0000 0.0000 0.0000 30.9151 0.0000
# 6 2.2181 -2.2181 0.0000 0.0000 0.0000 30.4049
#
#
#
# Elastic Compliance Matrix: (Units=1/GPa)
#
#
# Indices 1 2 3 4 5 6 
#
# 1 0.041563 -0.025732 -0.009800 0.000000 0.000000 -0.004909
# 2 -0.025732 0.041563 -0.009800 0.000000 0.000000 0.004909
# 3 -0.009800 -0.009800 0.027743 0.000000 0.000000 0.000000
# 4 0.000000 0.000000 0.000000 0.032347 0.000000 0.000000
# 5 0.000000 0.000000 0.000000 0.000000 0.032347 0.000000
# 6 -0.004909 0.004909 0.000000 0.000000 0.000000 0.033606
#
#
# Mechanical properties :
#
#
# Convention : Reuss Voigt Hill
#
# Bulk Modulus (GPa) = 49.48865 49.68724 49.58795
# Shear Modulus (GPa) = 16.30965 22.69080 19.50023
#
# Velocity S-wave (km/s) = 2.97091 3.50423 3.24854
# Velocity P-wave (km/s) = 6.20889 6.57740 6.39580
#
# Compressibility (1/GPa) = 0.02020665
#
# Stress axis : x y z
#
# Youngs Moduli (GPa) = 24.05975 24.05975 36.04503
#
# Poissons Ratio (x) = 0.61911 0.35323
# Poissons Ratio (y) = 0.61911 0.35323
# Poissons Ratio (z) = 0.23578 0.23578
#
# Static dielectric constant tensor:
#      x y z
#    x 1.652430 0.000000 0.000000 
#    y 0.000000 1.652430 0.000000 
#    z 0.000000 0.000000 1.637710 
# 
# From -- ./inp_files/1330.got.cif
#   From: 2010.05.17/outbox.ucp.g08.bks.cvg/sg87_1_cif.got.tgz:1330.got - 2010.06.11 10:35:24.
