data_PCOD9546193
_publ_section_title
;
Structure prediction by ZEFSAII (Michael W. Deem and Ramdas Pophale) SiO2 
 PCOD9546193
Probable space group: I 41/A
;
_chemical_formula_sum "Si O2"
_cell_formula_units_Z 64
_cell_length_a 18.206756
_cell_length_b 18.206756
_cell_length_c 6.479509
_cell_angle_alpha 90.000000
_cell_angle_beta 90.000000
_cell_angle_gamma 90.000000
_cell_volume 2147.866287
_symmetry_space_group_name_H-M "I 41/A"
_symmetry_group_IT_number 88
_space_group.IT_coordinate_system_code '2'
_symmetry_cell_setting 'tetragonal'
loop_
_space_group_symop_operation_xyz
x,y,z
3/4-y,1/4+x,1/4+z
-x,1/2-y,z
1/4+y,1/4-x,1/4+z
-x,-y,-z
1/4+y,3/4-x,3/4-z
x,1/2+y,-z
3/4-y,3/4+x,3/4-z
1/2+x,1/2+y,1/2+z
1/4-y,3/4+x,3/4+z
1/2-x,-y,1/2+z
3/4+y,3/4-x,3/4+z
1/2-x,1/2-y,1/2-z
3/4+y,1/4-x,1/4-z
1/2+x,y,1/2-z
1/4-y,1/4+x,1/4-z
loop_
_atom_site_type_symbol
_atom_site_label
_atom_site_fract_x
_atom_site_fract_y
_atom_site_fract_z
Si Si1 0.608686 0.366835 0.575212
Si Si2 0.421463 0.287050 0.601893
Si Si3 0.302267 0.231718 0.047507
Si Si4 0.344262 0.526329 0.759871
O O1 0.629721 0.285321 0.652892
O O2 0.551215 0.348218 0.387989
O O3 0.562245 0.413061 0.741885
O O4 0.661085 0.419934 0.442564
O O5 0.500000 0.250000 0.653985
O O6 0.433700 0.372235 0.668020
O O7 0.250000 0.250000 0.250000
O O8 0.246110 0.177147 0.933555
O O9 0.298588 0.557359 0.943497
#
# Coordination Sequence:
#
# PCOD9546193 Si02
#       4
#    16  16  16  16
#     4  10  15  26  47  76 100 123 161 221 270 298
#     4  10  12  23  43  72 104 118 150 218 274 297
#     4   9  17  26  44  74 101 127 161 214 270 302
#     4  11  21  33  47  71 106 144 170 209 255 312
#
# _framework density 29.797013
#
# number of rings (size 3 to 8) (size 9 to 14) (size 15 to 20)
#    0.000    2.000    7.500    0.000    0.000    0.000 
#    0.000    0.000    0.000    1.500    0.000    0.000 
#    0.000    0.000    0.000    0.000    0.000    0.000 
#
# Total GULP energy -178228.367401 kJ/mol
# GULP energy per Si atom -5569.636481 kJ/mol
# Density = 2.972919 g / cm^3
# Si number density = 29.797013 Si / 1000 Ang^3
#
#
#
# Elastic Constant Matrix: (Units=GPa)
#
#
# Indices 1 2 3 4 5 6 
#
# 1 157.6014 65.6968 31.3397 0.0000 0.0000 -9.8142
# 2 65.6968 157.6014 31.3397 0.0000 0.0000 9.8142
# 3 31.3397 31.3397 86.7391 0.0000 0.0000 0.0000
# 4 0.0000 0.0000 0.0000 36.0682 0.0000 0.0000
# 5 0.0000 0.0000 0.0000 0.0000 36.0682 0.0000
# 6 -9.8142 9.8142 0.0000 0.0000 0.0000 86.3599
#
#
#
# Elastic Compliance Matrix: (Units=1/GPa)
#
#
# Indices 1 2 3 4 5 6 
#
# 1 0.008068 -0.003084 -0.001801 0.000000 0.000000 0.001267
# 2 -0.003084 0.008068 -0.001801 0.000000 0.000000 -0.001267
# 3 -0.001801 -0.001801 0.012830 0.000000 0.000000 0.000000
# 4 0.000000 0.000000 0.000000 0.027725 0.000000 0.000000
# 5 0.000000 0.000000 0.000000 0.000000 0.027725 0.000000
# 6 0.001267 -0.001267 0.000000 0.000000 0.000000 0.011867
#
#
# Mechanical properties :
#
#
# Convention : Reuss Voigt Hill
#
# Bulk Modulus (GPa) = 64.12380 73.18825 68.65602
# Shear Modulus (GPa) = 43.53427 49.93698 46.73562
#
# Velocity S-wave (km/s) = 3.82649 4.09822 3.96468
# Velocity P-wave (km/s) = 6.41012 6.85635 6.63698
#
# Compressibility (1/GPa) = 0.01559483
#
# Stress axis : x y z
#
# Youngs Moduli (GPa) = 123.95205 123.95205 77.94205
#
# Poissons Ratio (x) = 0.38225 0.14035
# Poissons Ratio (y) = 0.38225 0.14035
# Poissons Ratio (z) = 0.22320 0.22320
#
# Static dielectric constant tensor:
#      x y z
#    x 2.391250 0.000000 0.000000 
#    y 0.000000 2.391250 0.000000 
#    z 0.000000 0.000000 2.469490 
# 
# From -- ./inp_files/2492.got.cif
#   From: 2010.05.17/outbox.cif.g08.bks.cpg/sg88_2_cif.got.tgz:2492.got - 2010.06.03 19:11:41.
