data_PCOD9546848
_publ_section_title
;
Structure prediction by ZEFSAII (Michael W. Deem and Ramdas Pophale) SiO2 
 PCOD9546848
Probable space group: I 41/A
;
_chemical_formula_sum "Si O2"
_cell_formula_units_Z 96
_cell_length_a 14.256632
_cell_length_b 14.256632
_cell_length_c 21.206078
_cell_angle_alpha 90.000000
_cell_angle_beta 90.000000
_cell_angle_gamma 90.000000
_cell_volume 4310.168350
_symmetry_space_group_name_H-M "I 41/A"
_symmetry_group_IT_number 88
_space_group.IT_coordinate_system_code '2'
_symmetry_cell_setting 'tetragonal'
loop_
_space_group_symop_operation_xyz
x,y,z
3/4-y,1/4+x,1/4+z
-x,1/2-y,z
1/4+y,1/4-x,1/4+z
-x,-y,-z
1/4+y,3/4-x,3/4-z
x,1/2+y,-z
3/4-y,3/4+x,3/4-z
1/2+x,1/2+y,1/2+z
1/4-y,3/4+x,3/4+z
1/2-x,-y,1/2+z
3/4+y,3/4-x,3/4+z
1/2-x,1/2-y,1/2-z
3/4+y,1/4-x,1/4-z
1/2+x,y,1/2-z
1/4-y,1/4+x,1/4-z
loop_
_atom_site_type_symbol
_atom_site_label
_atom_site_fract_x
_atom_site_fract_y
_atom_site_fract_z
Si Si1 0.182979 0.475974 0.961471
Si Si2 0.276727 0.102513 0.145191
Si Si3 0.831540 0.270372 0.698815
Si Si4 0.561960 0.039321 0.819463
Si Si5 0.404035 0.593680 0.249298
Si Si6 0.605926 0.710847 0.866032
O O1 0.205536 0.556476 0.907394
O O2 0.112984 0.398468 0.933076
O O3 0.141338 0.495239 0.031325
O O4 0.285256 0.435780 0.978930
O O5 0.322444 0.201840 0.128086
O O6 0.363585 0.032395 0.154109
O O7 0.750000 0.250000 0.750000
O O8 0.797713 0.259262 0.627708
O O9 0.879570 0.370441 0.703234
O O10 0.906547 0.186669 0.706917
O O11 0.491684 0.024329 0.761488
O O12 0.405613 0.635690 0.318453
O O13 0.500000 0.750000 0.855334
#
# Coordination Sequence:
#
# PCOD9546848 Si02
#       6
#    16  16  16  16  16  16
#     4  12  25  50  76 106 147 198 250 316 382 452
#     4  12  26  48  74 102 146 196 248 313 376 448
#     4  12  25  38  62  99 142 187 232 284 358 456
#     4  12  24  41  63  98 144 185 232 292 367 447
#     4  12  25  42  70 105 146 187 236 300 373 454
#     4  12  28  47  76 110 148 192 255 315 376 450
#
# _framework density 22.272911000000001
#
# number of rings (size 3 to 8) (size 9 to 14) (size 15 to 20)
#    0.000    0.000    5.000    5.000    7.000    0.000 
#    0.000    0.000    0.000    0.000    0.000    0.000 
#    0.000    0.000    0.000    0.000    0.000    0.000 
#
# Total GULP energy -267880.278340 kJ/mol
# GULP energy per Si atom -5580.839132 kJ/mol
# Density = 2.222222 g / cm^3
# Si number density = 22.272911 Si / 1000 Ang^3
#
#
#
# Elastic Constant Matrix: (Units=GPa)
#
#
# Indices 1 2 3 4 5 6 
#
# 1 -154.4011 274.2498 36.5685 0.0000 0.0000 -4.5074
# 2 274.2498 -154.4011 36.5685 0.0000 0.0000 4.5074
# 3 36.5685 36.5685 131.8816 0.0000 0.0000 0.0000
# 4 0.0000 0.0000 0.0000 50.5685 0.0000 0.0000
# 5 0.0000 0.0000 0.0000 0.0000 50.5685 0.0000
# 6 -4.5074 4.5074 0.0000 0.0000 0.0000 40.6538
#
#
#
# Elastic Compliance Matrix: (Units=1/GPa)
#
#
# Indices 1 2 3 4 5 6 
#
# 1 0.003858 0.006185 -0.002785 0.000000 0.000000 -0.000258
# 2 0.006185 0.003858 -0.002785 0.000000 0.000000 0.000258
# 3 -0.002785 -0.002785 0.009127 0.000000 0.000000 0.000000
# 4 0.000000 0.000000 0.000000 0.019775 0.000000 0.000000
# 5 0.000000 0.000000 0.000000 0.000000 0.019775 0.000000
# 6 -0.000258 0.000258 0.000000 0.000000 0.000000 0.024541
#
#
# Mechanical properties :
#
#
# Convention : Reuss Voigt Hill
#
# Bulk Modulus (GPa) = 55.32756 57.53922 56.43339
# Shear Modulus (GPa) = 58.32463 -6.59567 25.86448
#
# Velocity S-wave (km/s) = 5.12281 -1.72271 3.41141
# Velocity P-wave (km/s) = 7.73858 4.68325 6.39603
#
# Compressibility (1/GPa) = 0.01807418
#
# Stress axis : x y z
#
# Youngs Moduli (GPa) = 259.20806 259.20805 109.56586
#
# Poissons Ratio (x) = -1.60330 0.30512
# Poissons Ratio (y) = -1.60330 0.30512
# Poissons Ratio (z) = 0.72185 0.72185
#
# Static dielectric constant tensor:
#      x y z
#    x 1.851830 0.000000 0.000000 
#    y 0.000000 1.851830 0.000000 
#    z 0.000000 0.000000 1.739660 
# 
# From -- ./inp_files/4715.got.cif
#   From: 2010.05.17/outbox.cif.g08.bks.cpg/sg88_3_cif.got.tgz:4715.got - 2010.06.03 19:11:41.
