data_PCOD9546671
_publ_section_title
;
Structure prediction by ZEFSAII (Michael W. Deem and Ramdas Pophale) SiO2 
 PCOD9546671
Probable space group: I 41/A
;
_chemical_formula_sum "Si O2"
_cell_formula_units_Z 112
_cell_length_a 15.512184
_cell_length_b 15.512184
_cell_length_c 23.073255
_cell_angle_alpha 90.000000
_cell_angle_beta 90.000000
_cell_angle_gamma 90.000000
_cell_volume 5552.067800
_symmetry_space_group_name_H-M "I 41/A"
_symmetry_group_IT_number 88
_space_group.IT_coordinate_system_code '2'
_symmetry_cell_setting 'tetragonal'
loop_
_space_group_symop_operation_xyz
x,y,z
3/4-y,1/4+x,1/4+z
-x,1/2-y,z
1/4+y,1/4-x,1/4+z
-x,-y,-z
1/4+y,3/4-x,3/4-z
x,1/2+y,-z
3/4-y,3/4+x,3/4-z
1/2+x,1/2+y,1/2+z
1/4-y,3/4+x,3/4+z
1/2-x,-y,1/2+z
3/4+y,3/4-x,3/4+z
1/2-x,1/2-y,1/2-z
3/4+y,1/4-x,1/4-z
1/2+x,y,1/2-z
1/4-y,1/4+x,1/4-z
loop_
_atom_site_type_symbol
_atom_site_label
_atom_site_fract_x
_atom_site_fract_y
_atom_site_fract_z
Si Si1 0.575698 0.571747 0.995530
Si Si2 0.961647 0.342633 0.381919
Si Si3 0.259563 0.625753 0.536871
Si Si4 0.544374 0.474318 0.593340
Si Si5 0.210752 0.870890 0.726833
Si Si6 0.042202 0.975816 0.702895
Si Si7 0.930722 0.874013 0.376593
O O1 0.538324 0.644016 0.951456
O O2 0.671037 0.568547 0.966459
O O3 0.500000 0.500000 0.000000
O O4 0.599984 0.592487 0.061624
O O5 0.867757 0.341139 0.352010
O O6 0.000000 0.250000 0.368276
O O7 0.013593 0.419852 0.352788
O O8 0.269348 0.677363 0.597278
O O9 0.330559 0.552052 0.529648
O O10 0.260719 0.705460 0.490896
O O11 0.573764 0.529482 0.538392
O O12 0.444967 0.454372 0.577566
O O13 0.123828 0.927109 0.730290
O O14 0.078933 0.064748 0.677948
O O15 0.888892 0.782583 0.364830
#
# Coordination Sequence:
#
# PCOD9546671 Si02
#       7
#    16  16  16  16  16  16  16
#     4  11  24  42  65  95 133 180 221 275 339 396
#     4  11  22  42  67  94 134 175 221 277 336 413
#     4  11  26  45  68 102 139 173 231 289 328 413
#     4  10  24  46  67  97 135 170 225 281 342 398
#     4  11  25  44  72  98 132 180 221 284 344 409
#     4  12  24  43  70 100 131 180 227 274 354 395
#     4  11  25  43  61  94 137 173 218 277 327 403
#
# _framework density 20.172664000000001
#
# number of rings (size 3 to 8) (size 9 to 14) (size 15 to 20)
#    0.000    1.000    5.714    0.000    6.000    1.143 
#    0.000    0.000    0.000    0.000    0.000    0.000 
#    0.000    0.000    0.000    0.000    0.000    0.000 
#
# Total GULP energy -311870.935279 kJ/mol
# GULP energy per Si atom -5569.123844 kJ/mol
# Density = 2.012675 g / cm^3
# Si number density = 20.172664 Si / 1000 Ang^3
#
#
#
# Elastic Constant Matrix: (Units=GPa)
#
#
# Indices 1 2 3 4 5 6 
#
# 1 64.9166 21.4202 13.5757 0.0000 0.0000 -9.8237
# 2 21.4202 64.9166 13.5757 0.0000 0.0000 9.8237
# 3 13.5757 13.5757 60.7350 0.0000 0.0000 0.0000
# 4 0.0000 0.0000 0.0000 28.5999 0.0000 0.0000
# 5 0.0000 0.0000 0.0000 0.0000 28.5999 0.0000
# 6 -9.8237 9.8237 0.0000 0.0000 0.0000 52.6979
#
#
#
# Elastic Compliance Matrix: (Units=1/GPa)
#
#
# Indices 1 2 3 4 5 6 
#
# 1 0.018781 -0.006323 -0.002785 0.000000 0.000000 0.004680
# 2 -0.006323 0.018781 -0.002785 0.000000 0.000000 -0.004680
# 3 -0.002785 -0.002785 0.017710 0.000000 0.000000 0.000000
# 4 0.000000 0.000000 0.000000 0.034965 0.000000 0.000000
# 5 0.000000 0.000000 0.000000 0.000000 0.034965 0.000000
# 6 0.004680 -0.004680 0.000000 0.000000 0.000000 0.020721
#
#
# Mechanical properties :
#
#
# Convention : Reuss Voigt Hill
#
# Bulk Modulus (GPa) = 31.75857 31.96794 31.86326
# Shear Modulus (GPa) = 27.74626 31.44597 29.59612
#
# Velocity S-wave (km/s) = 3.71271 3.95250 3.83448
# Velocity P-wave (km/s) = 5.84436 6.05898 5.95264
#
# Compressibility (1/GPa) = 0.03148756
#
# Stress axis : x y z
#
# Youngs Moduli (GPa) = 53.24445 53.24445 56.46571
#
# Poissons Ratio (x) = 0.33666 0.15724
# Poissons Ratio (y) = 0.33666 0.15724
# Poissons Ratio (z) = 0.14827 0.14827
#
# Static dielectric constant tensor:
#      x y z
#    x 1.730770 0.000000 0.000000 
#    y 0.000000 1.730770 0.000000 
#    z 0.000000 0.000000 1.730160 
# 
# From -- ./inp_files/5362.got.cif
#   From: 2010.05.17/outbox.cif.g08.bks.cpg/sg88_3_cif.got.tgz:5362.got - 2010.06.03 19:11:41.
