data_PCOD9546411
_publ_section_title
;
Structure prediction by ZEFSAII (Michael W. Deem and Ramdas Pophale) SiO2 
 PCOD9546411
Probable space group: I 41/A
;
_chemical_formula_sum "Si O2"
_cell_formula_units_Z 108
_cell_length_a 13.412595
_cell_length_b 13.412595
_cell_length_c 25.812185
_cell_angle_alpha 90.000000
_cell_angle_beta 90.000000
_cell_angle_gamma 90.000000
_cell_volume 4643.552833
_symmetry_space_group_name_H-M "I 41/A"
_symmetry_group_IT_number 88
_space_group.IT_coordinate_system_code '2'
_symmetry_cell_setting 'tetragonal'
loop_
_space_group_symop_operation_xyz
x,y,z
3/4-y,1/4+x,1/4+z
-x,1/2-y,z
1/4+y,1/4-x,1/4+z
-x,-y,-z
1/4+y,3/4-x,3/4-z
x,1/2+y,-z
3/4-y,3/4+x,3/4-z
1/2+x,1/2+y,1/2+z
1/4-y,3/4+x,3/4+z
1/2-x,-y,1/2+z
3/4+y,3/4-x,3/4+z
1/2-x,1/2-y,1/2-z
3/4+y,1/4-x,1/4-z
1/2+x,y,1/2-z
1/4-y,1/4+x,1/4-z
loop_
_atom_site_type_symbol
_atom_site_label
_atom_site_fract_x
_atom_site_fract_y
_atom_site_fract_z
Si Si1 0.000000 0.250000 0.473391
Si Si2 0.855549 0.956651 0.963052
Si Si3 0.433956 0.151009 0.195094
Si Si4 0.149438 0.825880 0.297921
Si Si5 0.955420 0.909190 0.866233
Si Si6 0.406738 0.469511 0.251821
Si Si7 0.139173 0.389470 0.417107
Si Si8 0.000000 0.250000 0.625000
O O1 0.005930 0.345399 0.512274
O O2 0.909130 0.214399 0.437079
O O3 0.919419 0.979945 0.912030
O O4 0.746795 0.916495 0.942623
O O5 0.907920 0.878843 0.001563
O O6 0.844399 0.057539 0.994584
O O7 0.500000 0.250000 0.186280
O O8 0.512122 0.063679 0.209627
O O9 0.367720 0.120659 0.145353
O O10 0.262792 0.823137 0.316713
O O11 0.074647 0.825151 0.346018
O O12 0.130050 0.920822 0.261853
O O13 0.882821 0.814066 0.871723
O O14 0.945944 0.952740 0.809387
#
# Coordination Sequence:
#
# PCOD9546411 Si02
#       8
#     8  16  16  16  16  16  16   4
#     4  11  22  41  66  96 132 179 222 283 340 406
#     4  11  25  43  67  97 137 181 225 288 350 417
#     4  12  24  44  69 100 140 177 234 289 343 413
#     4  10  23  41  68  99 138 183 231 279 346 417
#     4  11  23  42  66  93 133 179 225 280 354 414
#     4  11  24  42  66  99 134 179 233 287 343 420
#     4  11  24  43  67 101 136 178 227 290 347 406
#     4  10  20  44  72 100 144 196 228 282 352 418
#
# _framework density 23.258053
#
# number of rings (size 3 to 8) (size 9 to 14) (size 15 to 20)
#    0.000    1.037    2.222    4.000    0.000    5.926 
#    0.000    4.444    0.000    0.000    0.000    0.000 
#    0.000    0.000    0.000    0.000    0.000    0.000 
#
# Total GULP energy -301447.494940 kJ/mol
# GULP energy per Si atom -5582.361017 kJ/mol
# Density = 2.320512 g / cm^3
# Si number density = 23.258053 Si / 1000 Ang^3
#
#
#
# Elastic Constant Matrix: (Units=GPa)
#
#
# Indices 1 2 3 4 5 6 
#
# 1 66.9798 9.9193 34.9839 0.0000 0.0000 1.7789
# 2 9.9193 66.9798 34.9839 0.0000 0.0000 -1.7789
# 3 34.9839 34.9839 139.2783 0.0000 0.0000 0.0000
# 4 0.0000 0.0000 0.0000 28.1112 0.0000 0.0000
# 5 0.0000 0.0000 0.0000 0.0000 28.1112 0.0000
# 6 1.7789 -1.7789 0.0000 0.0000 0.0000 35.1306
#
#
#
# Elastic Compliance Matrix: (Units=1/GPa)
#
#
# Indices 1 2 3 4 5 6 
#
# 1 0.017219 -0.000362 -0.004234 0.000000 0.000000 -0.000890
# 2 -0.000362 0.017219 -0.004234 0.000000 0.000000 0.000890
# 3 -0.004234 -0.004234 0.009307 0.000000 0.000000 0.000000
# 4 0.000000 0.000000 0.000000 0.035573 0.000000 0.000000
# 5 0.000000 0.000000 0.000000 0.000000 0.035573 0.000000
# 6 -0.000890 0.000890 0.000000 0.000000 0.000000 0.028555
#
#
# Mechanical properties :
#
#
# Convention : Reuss Voigt Hill
#
# Bulk Modulus (GPa) = 38.33810 48.11247 43.22529
# Shear Modulus (GPa) = 29.44637 31.16067 30.30352
#
# Velocity S-wave (km/s) = 3.56205 3.66427 3.61352
# Velocity P-wave (km/s) = 5.78249 6.21561 6.00296
#
# Compressibility (1/GPa) = 0.02608371
#
# Stress axis : x y z
#
# Youngs Moduli (GPa) = 58.07674 58.07674 107.44767
#
# Poissons Ratio (x) = 0.02103 0.45493
# Poissons Ratio (y) = 0.02103 0.45493
# Poissons Ratio (z) = 0.24590 0.24590
#
# Static dielectric constant tensor:
#      x y z
#    x 1.963880 0.000000 0.000000 
#    y 0.000000 1.963880 0.000000 
#    z 0.000000 0.000000 1.883270 
# 
# From -- ./inp_files/5381.got.cif
#   From: 2010.05.17/outbox.cif.g08.bks.cpg/sg88_3_cif.got.tgz:5381.got - 2010.06.03 19:11:41.
