data_PCOD9546828
_publ_section_title
;
Structure prediction by ZEFSAII (Michael W. Deem and Ramdas Pophale) SiO2 
 PCOD9546828
Probable space group: I 41/A
;
_chemical_formula_sum "Si O2"
_cell_formula_units_Z 64
_cell_length_a 11.604980
_cell_length_b 11.604980
_cell_length_c 19.644503
_cell_angle_alpha 90.000000
_cell_angle_beta 90.000000
_cell_angle_gamma 90.000000
_cell_volume 2645.634458
_symmetry_space_group_name_H-M "I 41/A"
_symmetry_group_IT_number 88
_space_group.IT_coordinate_system_code '2'
_symmetry_cell_setting 'tetragonal'
loop_
_space_group_symop_operation_xyz
x,y,z
3/4-y,1/4+x,1/4+z
-x,1/2-y,z
1/4+y,1/4-x,1/4+z
-x,-y,-z
1/4+y,3/4-x,3/4-z
x,1/2+y,-z
3/4-y,3/4+x,3/4-z
1/2+x,1/2+y,1/2+z
1/4-y,3/4+x,3/4+z
1/2-x,-y,1/2+z
3/4+y,3/4-x,3/4+z
1/2-x,1/2-y,1/2-z
3/4+y,1/4-x,1/4-z
1/2+x,y,1/2-z
1/4-y,1/4+x,1/4-z
loop_
_atom_site_type_symbol
_atom_site_label
_atom_site_fract_x
_atom_site_fract_y
_atom_site_fract_z
Si Si1 0.408611 0.555136 0.405304
Si Si2 0.456978 0.878973 0.032196
Si Si3 0.261391 0.589634 0.808946
Si Si4 0.006676 0.495397 0.672389
O O1 0.331901 0.479445 0.353727
O O2 0.381136 0.523628 0.483920
O O3 0.544481 0.538529 0.397607
O O4 0.363762 0.685481 0.398196
O O5 0.500000 0.750000 0.011458
O O6 0.320581 0.851185 0.031515
O O7 0.489586 0.912014 0.108946
O O8 0.500000 0.000000 0.000000
O O9 0.379885 0.518305 0.799431
#
# Coordination Sequence:
#
# PCOD9546828 Si02
#       4
#    16  16  16  16
#     4  11  27  47  76 109 154 204 265 326 407 489
#     4  12  26  45  74 110 153 199 253 326 401 477
#     4  11  27  49  75 111 152 210 262 334 401 493
#     4  12  24  47  70 107 150 190 260 322 388 477
#
# _framework density 24.190795999999999
#
# number of rings (size 3 to 8) (size 9 to 14) (size 15 to 20)
#    0.000    0.500    5.000    0.750   10.500    2.500 
#    0.000    0.000    0.000    0.000    0.000    0.000 
#    0.000    0.000    0.000    0.000    0.000    0.000 
#
# Total GULP energy -178609.770124 kJ/mol
# GULP energy per Si atom -5581.555316 kJ/mol
# Density = 2.413574 g / cm^3
# Si number density = 24.190796 Si / 1000 Ang^3
#
#
#
# Elastic Constant Matrix: (Units=GPa)
#
#
# Indices 1 2 3 4 5 6 
#
# 1 137.4140 26.7465 20.3434 0.0000 0.0000 -10.4493
# 2 26.7465 137.4140 20.3434 0.0000 0.0000 10.4493
# 3 20.3434 20.3434 46.9735 0.0000 0.0000 0.0000
# 4 0.0000 0.0000 0.0000 22.0929 0.0000 0.0000
# 5 0.0000 0.0000 0.0000 0.0000 22.0929 0.0000
# 6 -10.4493 10.4493 0.0000 0.0000 0.0000 40.9345
#
#
#
# Elastic Compliance Matrix: (Units=1/GPa)
#
#
# Indices 1 2 3 4 5 6 
#
# 1 0.008159 -0.001335 -0.002955 0.000000 0.000000 0.002423
# 2 -0.001335 0.008159 -0.002955 0.000000 0.000000 -0.002423
# 3 -0.002955 -0.002955 0.023848 0.000000 0.000000 0.000000
# 4 0.000000 0.000000 0.000000 0.045263 0.000000 0.000000
# 5 0.000000 0.000000 0.000000 0.000000 0.045263 0.000000
# 6 0.002423 -0.002423 0.000000 0.000000 0.000000 0.025667
#
#
# Mechanical properties :
#
#
# Convention : Reuss Voigt Hill
#
# Bulk Modulus (GPa) = 38.94830 50.74092 44.84461
# Shear Modulus (GPa) = 27.86925 33.98194 30.92559
#
# Velocity S-wave (km/s) = 3.39788 3.75206 3.57936
# Velocity P-wave (km/s) = 5.61512 6.30805 5.97164
#
# Compressibility (1/GPa) = 0.02567506
#
# Stress axis : x y z
#
# Youngs Moduli (GPa) = 122.56545 122.56545 41.93138
#
# Poissons Ratio (x) = 0.16360 0.12392
# Poissons Ratio (y) = 0.16360 0.12392
# Poissons Ratio (z) = 0.36223 0.36223
#
# Static dielectric constant tensor:
#      x y z
#    x 2.012310 0.000000 0.000000 
#    y 0.000000 2.012310 0.000000 
#    z 0.000000 0.000000 2.049840 
# 
# From -- ./inp_files/4405.got.cif
#   From: 2010.05.17/outbox.cif.g08.bks.cpg/sg88_3_cif.got.tgz:4405.got - 2010.06.03 19:11:41.
