data_PCOD9546337
_publ_section_title
;
Structure prediction by ZEFSAII (Michael W. Deem and Ramdas Pophale) SiO2 
 PCOD9546337
Probable space group: I 41/A
;
_chemical_formula_sum "Si O2"
_cell_formula_units_Z 88
_cell_length_a 16.080724
_cell_length_b 16.080724
_cell_length_c 14.112514
_cell_angle_alpha 90.000000
_cell_angle_beta 90.000000
_cell_angle_gamma 90.000000
_cell_volume 3649.350541
_symmetry_space_group_name_H-M "I 41/A"
_symmetry_group_IT_number 88
_space_group.IT_coordinate_system_code '2'
_symmetry_cell_setting 'tetragonal'
loop_
_space_group_symop_operation_xyz
x,y,z
3/4-y,1/4+x,1/4+z
-x,1/2-y,z
1/4+y,1/4-x,1/4+z
-x,-y,-z
1/4+y,3/4-x,3/4-z
x,1/2+y,-z
3/4-y,3/4+x,3/4-z
1/2+x,1/2+y,1/2+z
1/4-y,3/4+x,3/4+z
1/2-x,-y,1/2+z
3/4+y,3/4-x,3/4+z
1/2-x,1/2-y,1/2-z
3/4+y,1/4-x,1/4-z
1/2+x,y,1/2-z
1/4-y,1/4+x,1/4-z
loop_
_atom_site_type_symbol
_atom_site_label
_atom_site_fract_x
_atom_site_fract_y
_atom_site_fract_z
Si Si1 0.397015 0.650650 0.471950
Si Si2 0.000000 0.250000 0.125000
Si Si3 0.203508 0.641495 0.238587
Si Si4 0.056741 0.128983 0.484639
Si Si5 0.718058 0.585018 0.454806
Si Si6 0.500000 0.250000 0.875000
Si Si7 0.142991 0.523903 0.872351
O O1 0.462187 0.680321 0.552281
O O2 0.404114 0.701775 0.374674
O O3 0.395221 0.557323 0.424216
O O4 0.309867 0.654717 0.531326
O O5 0.301546 0.629209 0.261480
O O6 0.166215 0.725321 0.276862
O O7 0.149918 0.562572 0.266346
O O8 0.196224 0.647159 0.126640
O O9 0.065439 0.207173 0.552820
O O10 0.652832 0.587102 0.539260
O O11 0.725297 0.491157 0.409970
#
# Coordination Sequence:
#
# PCOD9546337 Si02
#       7
#    16   4  16  16  16   4  16
#     4  11  24  45  66  99 133 182 222 284 328 409
#     4  12  30  44  64  90 148 188 238 264 328 390
#     4  10  20  35  62  95 124 160 215 276 333 388
#     4  11  24  39  63  94 133 178 220 268 338 398
#     4   9  17  36  64  96 123 156 211 280 325 399
#     4  12  26  44  60  90 140 188 218 256 332 410
#     4   9  20  39  71  93 126 166 223 269 343 377
#
# _framework density 24.113879000000001
#
# number of rings (size 3 to 8) (size 9 to 14) (size 15 to 20)
#    0.000    1.818    1.818    1.636    2.545    3.636 
#    0.000    1.818    0.000    0.000    0.000    0.000 
#    0.000    0.000    0.000    0.000    0.000    0.000 
#
# Total GULP energy -244961.620481 kJ/mol
# GULP energy per Si atom -5567.309556 kJ/mol
# Density = 2.405899 g / cm^3
# Si number density = 24.113879 Si / 1000 Ang^3
#
#
#
# Elastic Constant Matrix: (Units=GPa)
#
#
# Indices 1 2 3 4 5 6 
#
# 1 40.4618 23.6306 37.8539 0.0000 0.0000 2.8895
# 2 23.6306 40.4618 37.8539 0.0000 0.0000 -2.8895
# 3 37.8539 37.8539 183.2831 0.0000 0.0000 0.0000
# 4 0.0000 0.0000 0.0000 29.9949 0.0000 0.0000
# 5 0.0000 0.0000 0.0000 0.0000 29.9949 0.0000
# 6 2.8895 -2.8895 0.0000 0.0000 0.0000 14.1443
#
#
#
# Elastic Compliance Matrix: (Units=1/GPa)
#
#
# Indices 1 2 3 4 5 6 
#
# 1 0.042266 -0.021629 -0.004262 0.000000 0.000000 -0.013053
# 2 -0.021629 0.042266 -0.004262 0.000000 0.000000 0.013053
# 3 -0.004262 -0.004262 0.007217 0.000000 0.000000 0.000000
# 4 0.000000 0.000000 0.000000 0.033339 0.000000 0.000000
# 5 0.000000 0.000000 0.000000 0.000000 0.033339 0.000000
# 6 -0.013053 0.013053 0.000000 0.000000 0.000000 0.076033
#
#
# Mechanical properties :
#
#
# Convention : Reuss Voigt Hill
#
# Bulk Modulus (GPa) = 31.80461 51.43149 41.61805
# Shear Modulus (GPa) = 16.38015 25.81805 21.09910
#
# Velocity S-wave (km/s) = 2.60913 3.27566 2.96121
# Velocity P-wave (km/s) = 4.72173 5.97340 5.38406
#
# Compressibility (1/GPa) = 0.03144198
#
# Stress axis : x y z
#
# Youngs Moduli (GPa) = 23.65955 23.65955 138.56904
#
# Poissons Ratio (x) = 0.51173 0.59061
# Poissons Ratio (y) = 0.51173 0.59061
# Poissons Ratio (z) = 0.10084 0.10084
#
# Static dielectric constant tensor:
#      x y z
#    x 2.031550 0.000000 0.000000 
#    y 0.000000 2.031550 0.000000 
#    z 0.000000 0.000000 1.933110 
# 
# From -- ./inp_files/3259.got.cif
#   From: 2010.05.17/outbox.cif.g08.bks.cpg/sg88_2_cif.got.tgz:3259.got - 2010.06.03 19:11:41.
