data_PCOD9546574
_publ_section_title
;
Structure prediction by ZEFSAII (Michael W. Deem and Ramdas Pophale) SiO2 
 PCOD9546574
Probable space group: I 41/A
;
_chemical_formula_sum "Si O2"
_cell_formula_units_Z 116
_cell_length_a 25.663991
_cell_length_b 25.663991
_cell_length_c 8.578727
_cell_angle_alpha 90.000000
_cell_angle_beta 90.000000
_cell_angle_gamma 90.000000
_cell_volume 5650.296475
_symmetry_space_group_name_H-M "I 41/A"
_symmetry_group_IT_number 88
_space_group.IT_coordinate_system_code '2'
_symmetry_cell_setting 'tetragonal'
loop_
_space_group_symop_operation_xyz
x,y,z
3/4-y,1/4+x,1/4+z
-x,1/2-y,z
1/4+y,1/4-x,1/4+z
-x,-y,-z
1/4+y,3/4-x,3/4-z
x,1/2+y,-z
3/4-y,3/4+x,3/4-z
1/2+x,1/2+y,1/2+z
1/4-y,3/4+x,3/4+z
1/2-x,-y,1/2+z
3/4+y,3/4-x,3/4+z
1/2-x,1/2-y,1/2-z
3/4+y,1/4-x,1/4-z
1/2+x,y,1/2-z
1/4-y,1/4+x,1/4-z
loop_
_atom_site_type_symbol
_atom_site_label
_atom_site_fract_x
_atom_site_fract_y
_atom_site_fract_z
Si Si1 0.083484 0.771817 0.129186
Si Si2 0.196310 0.784802 0.090677
Si Si3 0.395507 0.316950 0.880173
Si Si4 0.767911 0.796775 0.860135
Si Si5 0.208794 0.651974 0.558590
Si Si6 0.500000 0.750000 0.625000
Si Si7 0.416448 0.937625 0.159109
Si Si8 0.199295 0.536877 0.442443
O O1 0.135909 0.800342 0.069943
O O2 0.101000 0.724462 0.241857
O O3 0.052052 0.812933 0.235652
O O4 0.049670 0.752148 0.987020
O O5 0.202440 0.790796 0.277275
O O6 0.202142 0.728954 0.006051
O O7 0.238164 0.822620 0.009348
O O8 0.412298 0.375304 0.827539
O O9 0.338886 0.323746 0.958924
O O10 0.750000 0.750000 0.750000
O O11 0.797399 0.834357 0.741079
O O12 0.716025 0.821372 0.931140
O O13 0.210302 0.590225 0.535759
O O14 0.361450 0.959681 0.099783
O O15 0.211117 0.485914 0.541982
#
# Coordination Sequence:
#
# PCOD9546574 Si02
#       8
#    16  16  16  16  16   4  16  16
#     4  11  25  42  68  91 129 176 214 271 325 403
#     4  10  22  41  67  95 126 168 217 278 332 379
#     4  10  24  42  69  89 131 183 215 259 335 414
#     4  10  23  36  66  97 128 160 210 283 325 381
#     4  10  23  43  63  99 131 166 224 276 328 387
#     4  12  28  46  64 100 136 162 224 276 328 398
#     4  10  22  42  64  99 131 174 223 268 338 398
#     4  11  24  42  66  91 135 183 219 269 329 406
#
# _framework density 20.529896000000001
#
# number of rings (size 3 to 8) (size 9 to 14) (size 15 to 20)
#    0.000    1.655    1.379    1.241   13.517    2.207 
#    0.000    1.379    0.000    0.000    0.000    0.000 
#    0.000    0.000    0.000    0.000    0.000    0.000 
#
# Total GULP energy -323943.421015 kJ/mol
# GULP energy per Si atom -5585.231397 kJ/mol
# Density = 2.048317 g / cm^3
# Si number density = 20.529896 Si / 1000 Ang^3
#
#
#
# Elastic Constant Matrix: (Units=GPa)
#
#
# Indices 1 2 3 4 5 6 
#
# 1 73.7724 23.7245 49.0865 0.0000 0.0000 6.2672
# 2 23.7245 73.7724 49.0865 0.0000 0.0000 -6.2672
# 3 49.0865 49.0865 98.0966 0.0000 0.0000 0.0000
# 4 0.0000 0.0000 0.0000 25.9442 0.0000 0.0000
# 5 0.0000 0.0000 0.0000 0.0000 25.9442 0.0000
# 6 6.2672 -6.2672 0.0000 0.0000 0.0000 28.1153
#
#
#
# Elastic Compliance Matrix: (Units=1/GPa)
#
#
# Indices 1 2 3 4 5 6 
#
# 1 0.020918 -0.000245 -0.010345 0.000000 0.000000 -0.004717
# 2 -0.000245 0.020918 -0.010345 0.000000 0.000000 0.004717
# 3 -0.010345 -0.010345 0.020547 0.000000 0.000000 0.000000
# 4 0.000000 0.000000 0.000000 0.038544 0.000000 0.000000
# 5 0.000000 0.000000 0.000000 0.000000 0.038544 0.000000
# 6 -0.004717 0.004717 0.000000 0.000000 0.000000 0.037671
#
#
# Mechanical properties :
#
#
# Convention : Reuss Voigt Hill
#
# Bulk Modulus (GPa) = 48.74611 54.38181 51.56396
# Shear Modulus (GPa) = 22.13888 24.25033 23.19460
#
# Velocity S-wave (km/s) = 3.28742 3.44062 3.36489
# Velocity P-wave (km/s) = 6.18102 6.50618 6.34568
#
# Compressibility (1/GPa) = 0.02051446
#
# Stress axis : x y z
#
# Youngs Moduli (GPa) = 47.80650 47.80650 48.66986
#
# Poissons Ratio (x) = 0.01170 0.50347
# Poissons Ratio (y) = 0.01170 0.50347
# Poissons Ratio (z) = 0.49454 0.49454
#
# Static dielectric constant tensor:
#      x y z
#    x 1.741710 0.000000 0.000000 
#    y 0.000000 1.741710 0.000000 
#    z 0.000000 0.000000 1.717930 
# 
# From -- ./inp_files/1860.got.cif
#   From: 2010.05.17/outbox.cif.g08.bks.cpg/sg88_1_cif.got.tgz:1860.got - 2010.06.03 19:11:41.
