data_PCOD9546014
_publ_section_title
;
Structure prediction by ZEFSAII (Michael W. Deem and Ramdas Pophale) SiO2 
 PCOD9546014
Probable space group: I 4/M
;
_chemical_formula_sum "Si O2"
_cell_formula_units_Z 60
_cell_length_a 13.377037
_cell_length_b 13.377037
_cell_length_c 16.885094
_cell_angle_alpha 90.000000
_cell_angle_beta 90.000000
_cell_angle_gamma 90.000000
_cell_volume 3021.505153
_symmetry_space_group_name_H-M "I 4/M"
_symmetry_group_IT_number 87
_symmetry_cell_setting 'tetragonal'
loop_
_space_group_symop_operation_xyz
x,y,z
-y,x,z
-x,-y,z
y,-x,z
-x,-y,-z
y,-x,-z
x,y,-z
-y,x,-z
1/2+x,1/2+y,1/2+z
1/2-y,1/2+x,1/2+z
1/2-x,1/2-y,1/2+z
1/2+y,1/2-x,1/2+z
1/2-x,1/2-y,1/2-z
1/2+y,1/2-x,1/2-z
1/2+x,1/2+y,1/2-z
1/2-y,1/2+x,1/2-z
loop_
_atom_site_type_symbol
_atom_site_label
_atom_site_fract_x
_atom_site_fract_y
_atom_site_fract_z
Si Si1 0.430281 0.352563 0.405274
Si Si2 0.483450 0.260986 0.830321
Si Si3 0.164421 0.953926 0.500000
Si Si4 0.191313 0.663413 0.294685
Si Si5 0.000000 0.000000 0.708135
O O1 0.545553 0.372549 0.382260
O O2 0.426772 0.344862 0.500000
O O3 0.383481 0.258380 0.363646
O O4 0.441842 0.273727 0.919509
O O5 0.420204 0.188314 0.773643
O O6 0.592403 0.212158 0.829570
O O7 0.486111 0.375765 0.798247
O O8 0.066703 0.882464 0.500000
O O9 0.250000 0.750000 0.250000
#
# Coordination Sequence:
#
# PCOD9546014 Si02
#       5
#    16  16   8  16   4
#     4   9  20  39  66  96 130 175 230 281 323 390
#     4  12  25  40  69  99 137 172 221 284 337 408
#     4  11  18  38  68 101 128 164 228 283 332 383
#     4  12  24  40  63  99 133 177 220 274 341 402
#     4  12  20  45  68  96 125 168 230 284 329 388
#
# _framework density 19.857654
#
# number of rings (size 3 to 8) (size 9 to 14) (size 15 to 20)
#    0.000    0.933    5.333    2.400    1.867    0.533 
#    2.400    0.000    2.933    1.600    0.000    0.000 
#    0.000    0.000    0.000    0.000    0.000    0.000 
#
# Total GULP energy -167129.285997 kJ/mol
# GULP energy per Si atom -5570.976200 kJ/mol
# Density = 1.981246 g / cm^3
# Si number density = 19.857654 Si / 1000 Ang^3
#
#
#
# Elastic Constant Matrix: (Units=GPa)
#
#
# Indices 1 2 3 4 5 6 
#
# 1 66.5935 -13.0187 4.6550 0.0000 0.0000 30.3262
# 2 -13.0187 66.5935 4.6550 0.0000 0.0000 -30.3262
# 3 4.6550 4.6550 85.3574 0.0000 0.0000 0.0000
# 4 0.0000 0.0000 0.0000 20.6947 0.0000 0.0000
# 5 0.0000 0.0000 0.0000 0.0000 20.6947 0.0000
# 6 30.3262 -30.3262 0.0000 0.0000 0.0000 132.4181
#
#
#
# Elastic Compliance Matrix: (Units=1/GPa)
#
#
# Indices 1 2 3 4 5 6 
#
# 1 0.017030 0.001814 -0.001028 0.000000 0.000000 -0.003485
# 2 0.001814 0.017030 -0.001028 0.000000 0.000000 0.003485
# 3 -0.001028 -0.001028 0.011828 0.000000 0.000000 0.000000
# 4 0.000000 0.000000 0.000000 0.048322 0.000000 0.000000
# 5 0.000000 0.000000 0.000000 0.000000 0.048321 0.000000
# 6 -0.003485 0.003485 0.000000 0.000000 0.000000 0.009148
#
#
# Mechanical properties :
#
#
# Convention : Reuss Voigt Hill
#
# Bulk Modulus (GPa) = 22.02399 23.45855 22.74127
# Shear Modulus (GPa) = 29.88724 49.57840 39.73282
#
# Velocity S-wave (km/s) = 3.88374 5.00211 4.47797
# Velocity P-wave (km/s) = 5.58804 6.72313 6.18169
#
# Compressibility (1/GPa) = 0.04540502
#
# Stress axis : x y z
#
# Youngs Moduli (GPa) = 58.72036 58.72036 84.54849
#
# Poissons Ratio (x) = -0.10653 0.08689
# Poissons Ratio (y) = -0.10653 0.08689
# Poissons Ratio (z) = 0.06034 0.06034
#
# Static dielectric constant tensor:
#      x y z
#    x 1.608880 0.000000 0.000000 
#    y 0.000000 1.608880 0.000000 
#    z 0.000000 0.000000 1.762210 
# 
# From -- ./inp_files/5024.got.cif
#   From: 2010.05.17/outbox.cif.g08.bks.cpg/sg87_3_cif.got.tgz:5024.got - 2010.06.03 19:07:00.
