data_PCOD9546549
_publ_section_title
;
Structure prediction by ZEFSAII (Michael W. Deem and Ramdas Pophale) SiO2 
 PCOD9546549
Probable space group: I 41/A
;
_chemical_formula_sum "Si O2"
_cell_formula_units_Z 48
_cell_length_a 10.281662
_cell_length_b 10.281662
_cell_length_c 17.385669
_cell_angle_alpha 90.000000
_cell_angle_beta 90.000000
_cell_angle_gamma 90.000000
_cell_volume 1837.883812
_symmetry_space_group_name_H-M "I 41/A"
_symmetry_group_IT_number 88
_space_group.IT_coordinate_system_code '2'
_symmetry_cell_setting 'tetragonal'
loop_
_space_group_symop_operation_xyz
x,y,z
3/4-y,1/4+x,1/4+z
-x,1/2-y,z
1/4+y,1/4-x,1/4+z
-x,-y,-z
1/4+y,3/4-x,3/4-z
x,1/2+y,-z
3/4-y,3/4+x,3/4-z
1/2+x,1/2+y,1/2+z
1/4-y,3/4+x,3/4+z
1/2-x,-y,1/2+z
3/4+y,3/4-x,3/4+z
1/2-x,1/2-y,1/2-z
3/4+y,1/4-x,1/4-z
1/2+x,y,1/2-z
1/4-y,1/4+x,1/4-z
loop_
_atom_site_type_symbol
_atom_site_label
_atom_site_fract_x
_atom_site_fract_y
_atom_site_fract_z
Si Si1 0.168583 0.539382 0.536448
Si Si2 0.489218 0.561303 0.648437
Si Si3 0.206974 0.669206 0.125770
O O1 0.280944 0.646593 0.541402
O O2 0.109658 0.543571 0.452208
O O3 0.214108 0.391574 0.554569
O O4 0.067718 0.574365 0.605193
O O5 0.380450 0.670507 0.667113
O O6 0.414339 0.429231 0.629917
#
# Coordination Sequence:
#
# PCOD9546549 Si02
#       3
#    16  16  16
#     4  10  22  39  65  95 127 163 209 263 320 380
#     4   9  19  40  62  86 127 161 211 254 303 377
#     4  10  22  39  65  95 127 163 209 263 320 380
#
# _framework density 26.116993000000001
#
# number of rings (size 3 to 8) (size 9 to 14) (size 15 to 20)
#    0.000    2.333    0.000    1.000    4.667    0.667 
#    0.000   41.667    0.000    0.000    0.000    0.000 
#    0.000    0.000    0.000    0.000    0.000    0.000 
#
# Total GULP energy -133773.570373 kJ/mol
# GULP energy per Si atom -5573.898766 kJ/mol
# Density = 2.605755 g / cm^3
# Si number density = 26.116993 Si / 1000 Ang^3
#
#
#
# Elastic Constant Matrix: (Units=GPa)
#
#
# Indices 1 2 3 4 5 6 
#
# 1 99.4405 37.4897 -3.7321 0.0000 0.0000 -14.0207
# 2 37.4897 99.4405 -3.7321 0.0000 0.0000 14.0207
# 3 -3.7321 -3.7321 54.1993 0.0000 0.0000 0.0000
# 4 0.0000 0.0000 0.0000 24.5643 0.0000 0.0000
# 5 0.0000 0.0000 0.0000 0.0000 24.5643 0.0000
# 6 -14.0207 14.0207 0.0000 0.0000 0.0000 58.9528
#
#
#
# Elastic Compliance Matrix: (Units=1/GPa)
#
#
# Indices 1 2 3 4 5 6 
#
# 1 0.012710 -0.005379 0.000505 0.000000 0.000000 0.004302
# 2 -0.005379 0.012710 0.000505 0.000000 0.000000 -0.004302
# 3 0.000505 0.000505 0.018520 0.000000 0.000000 0.000000
# 4 0.000000 0.000000 0.000000 0.040709 0.000000 0.000000
# 5 0.000000 0.000000 0.000000 0.000000 0.040709 0.000000
# 6 0.004302 -0.004302 0.000000 0.000000 0.000000 0.019009
#
#
# Mechanical properties :
#
#
# Convention : Reuss Voigt Hill
#
# Bulk Modulus (GPa) = 28.40906 34.79236 31.60071
# Shear Modulus (GPa) = 30.33238 36.48663 33.40951
#
# Velocity S-wave (km/s) = 3.41163 3.74176 3.58051
# Velocity P-wave (km/s) = 5.14006 5.65848 5.40549
#
# Compressibility (1/GPa) = 0.03520004
#
# Stress axis : x y z
#
# Youngs Moduli (GPa) = 78.67926 78.67926 53.99589
#
# Poissons Ratio (x) = 0.42324 -0.02726
# Poissons Ratio (y) = 0.42324 -0.02726
# Poissons Ratio (z) = -0.03972 -0.03972
#
# Static dielectric constant tensor:
#      x y z
#    x 2.130550 0.000000 0.000000 
#    y 0.000000 2.130550 0.000000 
#    z 0.000000 0.000000 2.100580 
# 
# From -- ./inp_files/3567.got.cif
#   From: 2010.05.17/outbox.cif.g08.bks.cpg/sg88_2_cif.got.tgz:3567.got - 2010.06.03 19:11:41.
