data_PCOD9546841
_publ_section_title
;
Structure prediction by ZEFSAII (Michael W. Deem and Ramdas Pophale) SiO2 
 PCOD9546841
Probable space group: I 41/A
;
_chemical_formula_sum "Si O2"
_cell_formula_units_Z 88
_cell_length_a 17.732339
_cell_length_b 17.732339
_cell_length_c 11.546668
_cell_angle_alpha 90.000000
_cell_angle_beta 90.000000
_cell_angle_gamma 90.000000
_cell_volume 3630.686326
_symmetry_space_group_name_H-M "I 41/A"
_symmetry_group_IT_number 88
_space_group.IT_coordinate_system_code '2'
_symmetry_cell_setting 'tetragonal'
loop_
_space_group_symop_operation_xyz
x,y,z
3/4-y,1/4+x,1/4+z
-x,1/2-y,z
1/4+y,1/4-x,1/4+z
-x,-y,-z
1/4+y,3/4-x,3/4-z
x,1/2+y,-z
3/4-y,3/4+x,3/4-z
1/2+x,1/2+y,1/2+z
1/4-y,3/4+x,3/4+z
1/2-x,-y,1/2+z
3/4+y,3/4-x,3/4+z
1/2-x,1/2-y,1/2-z
3/4+y,1/4-x,1/4-z
1/2+x,y,1/2-z
1/4-y,1/4+x,1/4-z
loop_
_atom_site_type_symbol
_atom_site_label
_atom_site_fract_x
_atom_site_fract_y
_atom_site_fract_z
Si Si1 0.117384 0.633692 0.964883
Si Si2 0.500000 0.750000 0.125000
Si Si3 0.846214 0.276146 0.495089
Si Si4 0.500000 0.250000 0.375000
Si Si5 0.898013 0.544794 0.024177
Si Si6 0.256305 0.641248 0.105412
Si Si7 0.253183 0.396986 0.857810
O O1 0.049602 0.691814 0.949403
O O2 0.095424 0.545488 0.964987
O O3 0.173076 0.649560 0.855328
O O4 0.168671 0.650183 0.076348
O O5 0.524336 0.819355 0.206723
O O6 0.834559 0.292373 0.359984
O O7 0.805755 0.199823 0.534564
O O8 0.800653 0.342358 0.560354
O O9 0.817685 0.570675 0.075495
O O10 0.284615 0.557862 0.071314
O O11 0.269141 0.647670 0.242431
#
# Coordination Sequence:
#
# PCOD9546841 Si02
#       7
#    16   4  16   4  16  16  16
#     4  12  27  49  76 108 148 197 245 306 364 439
#     4  12  24  50  64 116 158 188 234 300 388 450
#     4  12  25  44  70 105 146 192 235 295 375 438
#     4  12  32  54  64 108 162 200 242 288 380 446
#     4  12  24  48  80 105 142 191 254 306 358 432
#     4  12  25  42  74 104 140 189 245 298 366 432
#     4  12  22  45  73 108 138 180 246 313 357 424
#
# _framework density 24.237839999999998
#
# number of rings (size 3 to 8) (size 9 to 14) (size 15 to 20)
#    0.000    0.000    5.455    4.909    0.000    5.091 
#    0.000    0.000    0.000    0.000    0.000    0.000 
#    0.000    0.000    0.000    0.000    0.000    0.000 
#
# Total GULP energy -246957.844594 kJ/mol
# GULP energy per Si atom -5612.678286 kJ/mol
# Density = 2.418267 g / cm^3
# Si number density = 24.237840 Si / 1000 Ang^3
#
#
#
# Elastic Constant Matrix: (Units=GPa)
#
#
# Indices 1 2 3 4 5 6 
#
# 1 124.8218 51.2966 34.5904 0.0000 0.0000 -10.4669
# 2 51.2966 124.8218 34.5904 0.0000 0.0000 10.4669
# 3 34.5904 34.5904 93.6929 0.0000 0.0000 0.0000
# 4 0.0000 0.0000 0.0000 36.1658 0.0000 0.0000
# 5 0.0000 0.0000 0.0000 0.0000 36.1658 0.0000
# 6 -10.4669 10.4669 0.0000 0.0000 0.0000 52.2440
#
#
#
# Elastic Compliance Matrix: (Units=1/GPa)
#
#
# Indices 1 2 3 4 5 6 
#
# 1 0.010532 -0.003891 -0.002452 0.000000 0.000000 0.002890
# 2 -0.003891 0.010532 -0.002452 0.000000 0.000000 -0.002890
# 3 -0.002452 -0.002452 0.012484 0.000000 0.000000 0.000000
# 4 0.000000 0.000000 0.000000 0.027650 0.000000 0.000000
# 5 0.000000 0.000000 0.000000 0.000000 0.027650 0.000000
# 6 0.002890 -0.002890 0.000000 0.000000 0.000000 0.020299
#
#
# Mechanical properties :
#
#
# Convention : Reuss Voigt Hill
#
# Bulk Modulus (GPa) = 62.66274 64.92125 63.79200
# Shear Modulus (GPa) = 37.86242 39.77239 38.81741
#
# Velocity S-wave (km/s) = 3.95665 4.05522 4.00624
# Velocity P-wave (km/s) = 6.83980 6.98353 6.91204
#
# Compressibility (1/GPa) = 0.01595845
#
# Stress axis : x y z
#
# Youngs Moduli (GPa) = 94.94589 94.94589 80.10546
#
# Poissons Ratio (x) = 0.36946 0.19640
# Poissons Ratio (y) = 0.36946 0.19640
# Poissons Ratio (z) = 0.23279 0.23279
#
# Static dielectric constant tensor:
#      x y z
#    x 1.934600 0.000000 0.000000 
#    y 0.000000 1.934600 0.000000 
#    z 0.000000 0.000000 1.921830 
# 
# From -- ./inp_files/3236.got.cif
#   From: 2010.05.17/outbox.cif.g08.bks.cpg/sg88_2_cif.got.tgz:3236.got - 2010.06.03 19:11:41.
