data_PCOD9546104
_publ_section_title
;
Structure prediction by ZEFSAII (Michael W. Deem and Ramdas Pophale) SiO2 
 PCOD9546104
Probable space group: I 4/M
;
_chemical_formula_sum "Si O2"
_cell_formula_units_Z 40
_cell_length_a 13.198987
_cell_length_b 13.198987
_cell_length_c 12.416880
_cell_angle_alpha 90.000000
_cell_angle_beta 90.000000
_cell_angle_gamma 90.000000
_cell_volume 2163.185117
_symmetry_space_group_name_H-M "I 4/M"
_symmetry_group_IT_number 87
_symmetry_cell_setting 'tetragonal'
loop_
_space_group_symop_operation_xyz
x,y,z
-y,x,z
-x,-y,z
y,-x,z
-x,-y,-z
y,-x,-z
x,y,-z
-y,x,-z
1/2+x,1/2+y,1/2+z
1/2-y,1/2+x,1/2+z
1/2-x,1/2-y,1/2+z
1/2+y,1/2-x,1/2+z
1/2-x,1/2-y,1/2-z
1/2+y,1/2-x,1/2-z
1/2+x,1/2+y,1/2-z
1/2-y,1/2+x,1/2-z
loop_
_atom_site_type_symbol
_atom_site_label
_atom_site_fract_x
_atom_site_fract_y
_atom_site_fract_z
Si Si1 0.848601 0.705973 0.307744
Si Si2 0.622697 0.010114 0.118722
Si Si3 0.846307 0.073705 0.500000
O O1 0.750000 0.750000 0.250000
O O2 0.924116 0.671216 0.212686
O O3 0.830740 0.601625 0.371714
O O4 0.895947 0.783948 0.393188
O O5 0.500000 0.000000 0.129076
O O6 0.641450 0.054242 0.000000
O O7 0.953985 0.130981 0.500000
#
# Coordination Sequence:
#
# PCOD9546104 Si02
#       3
#    16  16   8
#     4  12  23  39  67  93 127 170 214 257 328 386
#     4  11  23  40  63  93 130 161 215 279 315 373
#     4  11  26  44  63  93 135 170 213 267 325 393
#
# _framework density 18.491251999999999
#
# number of rings (size 3 to 8) (size 9 to 14) (size 15 to 20)
#    0.000    0.600    6.000    2.400    2.800    0.000 
#    0.000    0.000    0.000    0.000    0.000    8.400 
#    0.000    0.000    0.000    0.000    0.000    0.000 
#
# Total GULP energy -111734.375641 kJ/mol
# GULP energy per Si atom -5586.718782 kJ/mol
# Density = 1.844917 g / cm^3
# Si number density = 18.491252 Si / 1000 Ang^3
#
#
#
# Elastic Constant Matrix: (Units=GPa)
#
#
# Indices 1 2 3 4 5 6 
#
# 1 102.6481 53.0567 68.5211 0.0000 0.0000 -7.6370
# 2 53.0567 102.6481 68.5211 0.0000 0.0000 7.6370
# 3 68.5211 68.5211 202.0704 0.0000 0.0000 0.0000
# 4 0.0000 0.0000 0.0000 29.2637 0.0000 0.0000
# 5 0.0000 0.0000 0.0000 0.0000 29.2637 0.0000
# 6 -7.6370 7.6370 0.0000 0.0000 0.0000 31.9376
#
#
#
# Elastic Compliance Matrix: (Units=1/GPa)
#
#
# Indices 1 2 3 4 5 6 
#
# 1 0.015461 -0.006307 -0.003104 0.000000 0.000000 0.005205
# 2 -0.006307 0.015461 -0.003104 0.000000 0.000000 -0.005205
# 3 -0.003104 -0.003104 0.007054 0.000000 0.000000 0.000000
# 4 0.000000 0.000000 0.000000 0.034172 0.000000 0.000000
# 5 0.000000 0.000000 0.000000 0.000000 0.034172 0.000000
# 6 0.005205 -0.005205 0.000000 0.000000 0.000000 0.033800
#
#
# Mechanical properties :
#
#
# Convention : Reuss Voigt Hill
#
# Bulk Modulus (GPa) = 77.24302 87.50718 82.37510
# Shear Modulus (GPa) = 29.50426 32.57750 31.04088
#
# Velocity S-wave (km/s) = 3.99880 4.20191 4.10161
# Velocity P-wave (km/s) = 7.94884 8.42423 8.18998
#
# Compressibility (1/GPa) = 0.01294615
#
# Stress axis : x y z
#
# Youngs Moduli (GPa) = 64.67763 64.67763 141.76214
#
# Poissons Ratio (x) = 0.40790 0.44007
# Poissons Ratio (y) = 0.40790 0.44007
# Poissons Ratio (z) = 0.20078 0.20078
#
# Static dielectric constant tensor:
#      x y z
#    x 1.630130 0.000000 0.000000 
#    y 0.000000 1.630130 0.000000 
#    z 0.000000 0.000000 1.692770 
# 
# From -- ./inp_files/3128.got.cif
#   From: 2010.05.17/outbox.cif.g08.bks.cpg/sg87_2_cif.got.tgz:3128.got - 2010.06.03 19:07:00.
