data_PCOD9546822
_publ_section_title
;
Structure prediction by ZEFSAII (Michael W. Deem and Ramdas Pophale) SiO2 
 PCOD9546822
Probable space group: I 41/A
;
_chemical_formula_sum "Si O2"
_cell_formula_units_Z 48
_cell_length_a 19.103538
_cell_length_b 19.103538
_cell_length_c 4.908321
_cell_angle_alpha 90.000000
_cell_angle_beta 90.000000
_cell_angle_gamma 90.000000
_cell_volume 1791.268013
_symmetry_space_group_name_H-M "I 41/A"
_symmetry_group_IT_number 88
_space_group.IT_coordinate_system_code '2'
_symmetry_cell_setting 'tetragonal'
loop_
_space_group_symop_operation_xyz
x,y,z
3/4-y,1/4+x,1/4+z
-x,1/2-y,z
1/4+y,1/4-x,1/4+z
-x,-y,-z
1/4+y,3/4-x,3/4-z
x,1/2+y,-z
3/4-y,3/4+x,3/4-z
1/2+x,1/2+y,1/2+z
1/4-y,3/4+x,3/4+z
1/2-x,-y,1/2+z
3/4+y,3/4-x,3/4+z
1/2-x,1/2-y,1/2-z
3/4+y,1/4-x,1/4-z
1/2+x,y,1/2-z
1/4-y,1/4+x,1/4-z
loop_
_atom_site_type_symbol
_atom_site_label
_atom_site_fract_x
_atom_site_fract_y
_atom_site_fract_z
Si Si1 0.351888 0.533443 0.077898
Si Si2 0.110491 0.779909 0.307876
Si Si3 0.909865 0.928905 0.962775
O O1 0.322155 0.459680 0.983523
O O2 0.354578 0.584640 0.812711
O O3 0.404155 0.503882 0.310443
O O4 0.081312 0.702438 0.349061
O O5 0.175222 0.796203 0.507558
O O6 0.129766 0.800079 0.002303
#
# Coordination Sequence:
#
# PCOD9546822 Si02
#       3
#    16  16  16
#     4  12  22  42  71 104 141 182 218 278 362 434
#     4  11  26  49  72  95 136 195 244 287 342 405
#     4  12  24  42  74 107 136 181 236 286 346 426
#
# _framework density 26.796661
#
# number of rings (size 3 to 8) (size 9 to 14) (size 15 to 20)
#    0.000    0.333    6.667    2.000    0.000    2.667 
#    0.000   10.000    0.000    0.000    0.000    0.000 
#    0.000    0.000    0.000    0.000    0.000    0.000 
#
# Total GULP energy -133998.434852 kJ/mol
# GULP energy per Si atom -5583.268119 kJ/mol
# Density = 2.673567 g / cm^3
# Si number density = 26.796661 Si / 1000 Ang^3
#
#
#
# Elastic Constant Matrix: (Units=GPa)
#
#
# Indices 1 2 3 4 5 6 
#
# 1 56.4336 49.9411 25.6197 0.0000 0.0000 12.6667
# 2 49.9411 56.4336 25.6197 0.0000 0.0000 -12.6667
# 3 25.6197 25.6197 161.6092 0.0000 0.0000 0.0000
# 4 0.0000 0.0000 0.0000 15.7303 0.0000 0.0000
# 5 0.0000 0.0000 0.0000 0.0000 15.7303 0.0000
# 6 12.6667 -12.6667 0.0000 0.0000 0.0000 37.4248
#
#
#
# Elastic Compliance Matrix: (Units=1/GPa)
#
#
# Indices 1 2 3 4 5 6 
#
# 1 -0.235079 0.245257 -0.001613 0.000000 0.000000 0.162574
# 2 0.245257 -0.235079 -0.001613 0.000000 0.000000 -0.162574
# 3 -0.001613 -0.001613 0.006699 0.000000 0.000000 0.000000
# 4 0.000000 0.000000 0.000000 0.063571 0.000000 0.000000
# 5 0.000000 0.000000 0.000000 0.000000 0.063571 0.000000
# 6 0.162574 -0.162574 0.000000 0.000000 0.000000 -0.083328
#
#
# Mechanical properties :
#
#
# Convention : Reuss Voigt Hill
#
# Bulk Modulus (GPa) = 48.54082 52.98194 50.76138
# Shear Modulus (GPa) = -5.57514 25.33015 9.87750
#
# Velocity S-wave (km/s) = -1.44397 3.07786 1.92200
# Velocity P-wave (km/s) = 3.92094 5.69612 4.88976
#
# Compressibility (1/GPa) = 0.02060122
#
# Stress axis : x y z
#
# Youngs Moduli (GPa) = -4.25388 -4.25388 149.26854
#
# Poissons Ratio (x) = 1.04330 0.24084
# Poissons Ratio (y) = 1.04330 0.24084
# Poissons Ratio (z) = -0.00686 -0.00686
#
# Static dielectric constant tensor:
#      x y z
#    x 2.134320 0.000000 0.000000 
#    y 0.000000 2.134320 0.000000 
#    z 0.000000 0.000000 2.139950 
# 
# From -- ./inp_files/366.got.cif
#   From: 2010.05.17/outbox.cif.g08.bks.cpg/sg88_1_cif.got.tgz:366.got - 2010.06.03 19:11:41.
