data_PCOD9546538
_publ_section_title
;
Structure prediction by ZEFSAII (Michael W. Deem and Ramdas Pophale) SiO2 
 PCOD9546538
Probable space group: I 41/A
;
_chemical_formula_sum "Si O2"
_cell_formula_units_Z 116
_cell_length_a 17.984609
_cell_length_b 17.984609
_cell_length_c 19.481376
_cell_angle_alpha 90.000000
_cell_angle_beta 90.000000
_cell_angle_gamma 90.000000
_cell_volume 6301.176276
_symmetry_space_group_name_H-M "I 41/A"
_symmetry_group_IT_number 88
_space_group.IT_coordinate_system_code '2'
_symmetry_cell_setting 'tetragonal'
loop_
_space_group_symop_operation_xyz
x,y,z
3/4-y,1/4+x,1/4+z
-x,1/2-y,z
1/4+y,1/4-x,1/4+z
-x,-y,-z
1/4+y,3/4-x,3/4-z
x,1/2+y,-z
3/4-y,3/4+x,3/4-z
1/2+x,1/2+y,1/2+z
1/4-y,3/4+x,3/4+z
1/2-x,-y,1/2+z
3/4+y,3/4-x,3/4+z
1/2-x,1/2-y,1/2-z
3/4+y,1/4-x,1/4-z
1/2+x,y,1/2-z
1/4-y,1/4+x,1/4-z
loop_
_atom_site_type_symbol
_atom_site_label
_atom_site_fract_x
_atom_site_fract_y
_atom_site_fract_z
Si Si1 0.503424 0.832508 0.305590
Si Si2 0.500000 0.250000 0.375000
Si Si3 0.442669 0.955712 0.408664
Si Si4 0.859916 0.670390 0.292023
Si Si5 0.298340 0.541960 0.636772
Si Si6 0.845107 0.700820 0.814115
Si Si7 0.375786 0.836823 0.190931
Si Si8 0.699160 0.498632 0.986788
O O1 0.500000 0.750000 0.338036
O O2 0.479917 0.897228 0.356878
O O3 0.584036 0.839811 0.271595
O O4 0.445794 0.833632 0.241948
O O5 0.426410 0.232508 0.330624
O O6 0.437956 0.918017 0.483294
O O7 0.361910 0.982910 0.384159
O O8 0.492785 0.029835 0.413586
O O9 0.902083 0.650718 0.362644
O O10 0.836625 0.756672 0.299123
O O11 0.794678 0.612743 0.278132
O O12 0.332537 0.623493 0.645960
O O13 0.267728 0.515004 0.709994
O O14 0.234577 0.539404 0.578966
O O15 0.324518 0.906212 0.211053
#
# Coordination Sequence:
#
# PCOD9546538 Si02
#       8
#    16   4  16  16  16  16  16  16
#     4  10  22  38  63  92 127 166 208 258 313 379
#     4  12  24  44  72  96 120 164 218 272 328 404
#     4  11  23  43  64  92 128 163 211 263 320 382
#     4  11  22  39  60  91 129 163 212 253 308 375
#     4  12  23  41  66  90 123 169 202 262 324 376
#     4  11  25  43  67  94 123 163 213 269 327 382
#     4  11  21  37  64  90 122 173 203 249 308 371
#     4  12  24  40  62  92 129 162 212 256 315 375
#
# _framework density 18.409261000000001
#
# number of rings (size 3 to 8) (size 9 to 14) (size 15 to 20)
#    0.000    0.828    6.897    1.241    0.966    0.000 
#    0.000    0.000    0.000    0.000    0.000    0.000 
#    0.000    0.000    0.000    0.000    0.000    0.000 
#
# Total GULP energy -323935.521594 kJ/mol
# GULP energy per Si atom -5585.095200 kJ/mol
# Density = 1.836736 g / cm^3
# Si number density = 18.409261 Si / 1000 Ang^3
#
#
#
# Elastic Constant Matrix: (Units=GPa)
#
#
# Indices 1 2 3 4 5 6 
#
# 1 67.6816 3.5819 22.7505 0.0000 0.0000 2.8658
# 2 3.5819 67.6816 22.7505 0.0000 0.0000 -2.8658
# 3 22.7505 22.7505 75.8928 0.0000 0.0000 0.0000
# 4 0.0000 0.0000 0.0000 21.9940 0.0000 0.0000
# 5 0.0000 0.0000 0.0000 0.0000 21.9940 0.0000
# 6 2.8658 -2.8658 0.0000 0.0000 0.0000 34.6825
#
#
#
# Elastic Compliance Matrix: (Units=1/GPa)
#
#
# Indices 1 2 3 4 5 6 
#
# 1 0.016535 0.000819 -0.005202 0.000000 0.000000 -0.001299
# 2 0.000819 0.016535 -0.005202 0.000000 0.000000 0.001299
# 3 -0.005202 -0.005202 0.016295 0.000000 0.000000 0.000000
# 4 0.000000 0.000000 0.000000 0.045467 0.000000 0.000000
# 5 0.000000 0.000000 0.000000 0.000000 0.045467 0.000000
# 6 -0.001299 0.001299 0.000000 0.000000 0.000000 0.029048
#
#
# Mechanical properties :
#
#
# Convention : Reuss Voigt Hill
#
# Bulk Modulus (GPa) = 33.11862 34.38021 33.74941
# Shear Modulus (GPa) = 25.17824 26.54566 25.86195
#
# Velocity S-wave (km/s) = 3.70225 3.80145 3.75218
# Velocity P-wave (km/s) = 6.02534 6.16312 6.09462
#
# Compressibility (1/GPa) = 0.03019449
#
# Stress axis : x y z
#
# Youngs Moduli (GPa) = 60.47629 60.47628 61.36685
#
# Poissons Ratio (x) = -0.04950 0.31924
# Poissons Ratio (y) = -0.04950 0.31924
# Poissons Ratio (z) = 0.31461 0.31461
#
# Static dielectric constant tensor:
#      x y z
#    x 1.621700 0.000000 0.000000 
#    y 0.000000 1.621700 0.000000 
#    z 0.000000 0.000000 1.598840 
# 
# From -- ./inp_files/4043.got.cif
#   From: 2010.05.17/outbox.cif.g08.bks.cpg/sg88_3_cif.got.tgz:4043.got - 2010.06.03 19:11:41.
