data_PCOD9546622
_publ_section_title
;
Structure prediction by ZEFSAII (Michael W. Deem and Ramdas Pophale) SiO2 
 PCOD9546622
Probable space group: I 41/A
;
_chemical_formula_sum "Si O2"
_cell_formula_units_Z 92
_cell_length_a 14.223739
_cell_length_b 14.223739
_cell_length_c 24.146203
_cell_angle_alpha 90.000000
_cell_angle_beta 90.000000
_cell_angle_gamma 90.000000
_cell_volume 4885.133051
_symmetry_space_group_name_H-M "I 41/A"
_symmetry_group_IT_number 88
_space_group.IT_coordinate_system_code '2'
_symmetry_cell_setting 'tetragonal'
loop_
_space_group_symop_operation_xyz
x,y,z
3/4-y,1/4+x,1/4+z
-x,1/2-y,z
1/4+y,1/4-x,1/4+z
-x,-y,-z
1/4+y,3/4-x,3/4-z
x,1/2+y,-z
3/4-y,3/4+x,3/4-z
1/2+x,1/2+y,1/2+z
1/4-y,3/4+x,3/4+z
1/2-x,-y,1/2+z
3/4+y,3/4-x,3/4+z
1/2-x,1/2-y,1/2-z
3/4+y,1/4-x,1/4-z
1/2+x,y,1/2-z
1/4-y,1/4+x,1/4-z
loop_
_atom_site_type_symbol
_atom_site_label
_atom_site_fract_x
_atom_site_fract_y
_atom_site_fract_z
Si Si1 0.094173 0.136055 0.603470
Si Si2 0.733924 0.469456 0.649653
Si Si3 0.559947 0.088823 0.019412
Si Si4 0.500000 0.750000 0.625000
Si Si5 0.500000 0.250000 0.648934
Si Si6 0.170804 0.686129 0.678006
Si Si7 0.836364 0.833415 0.806206
O O1 0.127417 0.237024 0.626557
O O2 0.162443 0.056429 0.627978
O O3 0.093000 0.139091 0.536976
O O4 0.702374 0.397882 0.697488
O O5 0.662018 0.447948 0.600010
O O6 0.715149 0.572769 0.672882
O O7 0.503732 0.159608 0.060056
O O8 0.500000 0.000000 0.000000
O O9 0.435052 0.682506 0.588431
O O10 0.486685 0.159263 0.609218
O O11 0.140983 0.667090 0.741034
O O12 0.263578 0.749765 0.681330
#
# Coordination Sequence:
#
# PCOD9546622 Si02
#       7
#    16  16  16   4   8  16  16
#     4  11  23  41  66  96 135 176 220 269 333 406
#     4  11  23  41  66  96 134 169 222 277 332 402
#     4  11  23  41  63  97 132 175 217 269 332 406
#     4  12  22  44  72  92 128 174 220 284 322 396
#     4  10  23  42  65  91 134 165 216 270 340 384
#     4  10  23  42  62  94 130 168 214 277 325 401
#     4  11  23  42  66  97 127 171 224 271 338 390
#
# _framework density 18.832649
#
# number of rings (size 3 to 8) (size 9 to 14) (size 15 to 20)
#    0.000    1.217    3.478    2.609    2.435    0.000 
#    0.000    3.478    0.000    0.000    0.000    0.000 
#    0.000    0.000    0.000    0.000    0.000    0.000 
#
# Total GULP energy -256927.260499 kJ/mol
# GULP energy per Si atom -5585.375228 kJ/mol
# Density = 1.878978 g / cm^3
# Si number density = 18.832649 Si / 1000 Ang^3
#
#
#
# Elastic Constant Matrix: (Units=GPa)
#
#
# Indices 1 2 3 4 5 6 
#
# 1 65.0435 35.6726 38.2077 0.0000 0.0000 1.9907
# 2 35.6726 65.0435 38.2077 0.0000 0.0000 -1.9907
# 3 38.2077 38.2077 145.0964 0.0000 0.0000 0.0000
# 4 0.0000 0.0000 0.0000 20.7813 0.0000 0.0000
# 5 0.0000 0.0000 0.0000 0.0000 20.7813 0.0000
# 6 1.9907 -1.9907 0.0000 0.0000 0.0000 24.1478
#
#
#
# Elastic Compliance Matrix: (Units=1/GPa)
#
#
# Indices 1 2 3 4 5 6 
#
# 1 0.023420 -0.011012 -0.003267 0.000000 0.000000 -0.002839
# 2 -0.011012 0.023420 -0.003267 0.000000 0.000000 0.002839
# 3 -0.003267 -0.003267 0.008613 0.000000 0.000000 0.000000
# 4 0.000000 0.000000 0.000000 0.048120 0.000000 0.000000
# 5 0.000000 0.000000 0.000000 0.000000 0.048120 0.000000
# 6 -0.002839 0.002839 0.000000 0.000000 0.000000 0.041880
#
#
# Mechanical properties :
#
#
# Convention : Reuss Voigt Hill
#
# Bulk Modulus (GPa) = 49.11785 55.48437 52.30111
# Shear Modulus (GPa) = 21.23567 24.01509 22.62538
#
# Velocity S-wave (km/s) = 3.36162 3.57485 3.46987
# Velocity P-wave (km/s) = 6.41912 6.82386 6.62459
#
# Compressibility (1/GPa) = 0.02035920
#
# Stress axis : x y z
#
# Youngs Moduli (GPa) = 42.69850 42.69850 116.10748
#
# Poissons Ratio (x) = 0.47020 0.37936
# Poissons Ratio (y) = 0.47020 0.37936
# Poissons Ratio (z) = 0.13951 0.13951
#
# Static dielectric constant tensor:
#      x y z
#    x 1.652920 0.000000 0.000000 
#    y 0.000000 1.652920 0.000000 
#    z 0.000000 0.000000 1.661930 
# 
# From -- ./inp_files/4766.got.cif
#   From: 2010.05.17/outbox.cif.g08.bks.cpg/sg88_3_cif.got.tgz:4766.got - 2010.06.03 19:11:41.
