data_PCOD9546013
_publ_section_title
;
Structure prediction by ZEFSAII (Michael W. Deem and Ramdas Pophale) SiO2 
 PCOD9546013
Probable space group: I 4/M
;
_chemical_formula_sum "Si O2"
_cell_formula_units_Z 84
_cell_length_a 14.500225
_cell_length_b 14.500225
_cell_length_c 22.712179
_cell_angle_alpha 90.000000
_cell_angle_beta 90.000000
_cell_angle_gamma 90.000000
_cell_volume 4775.383833
_symmetry_space_group_name_H-M "I 4/M"
_symmetry_group_IT_number 87
_symmetry_cell_setting 'tetragonal'
loop_
_space_group_symop_operation_xyz
x,y,z
-y,x,z
-x,-y,z
y,-x,z
-x,-y,-z
y,-x,-z
x,y,-z
-y,x,-z
1/2+x,1/2+y,1/2+z
1/2-y,1/2+x,1/2+z
1/2-x,1/2-y,1/2+z
1/2+y,1/2-x,1/2+z
1/2-x,1/2-y,1/2-z
1/2+y,1/2-x,1/2-z
1/2+x,1/2+y,1/2-z
1/2-y,1/2+x,1/2-z
loop_
_atom_site_type_symbol
_atom_site_label
_atom_site_fract_x
_atom_site_fract_y
_atom_site_fract_z
Si Si1 0.007831 0.387341 0.895931
Si Si2 0.500000 0.500000 0.841132
Si Si3 0.712838 0.849500 0.433741
Si Si4 0.498198 0.151581 0.736734
Si Si5 0.150374 0.306639 0.565982
Si Si6 0.003420 0.218244 0.345948
O O1 0.916572 0.352492 0.928376
O O2 0.000000 0.500000 0.887873
O O3 0.103646 0.363901 0.927218
O O4 0.009821 0.336576 0.832881
O O5 0.522870 0.610970 0.842181
O O6 0.739743 0.879843 0.500000
O O7 0.751970 0.745695 0.427242
O O8 0.759225 0.911932 0.383688
O O9 0.588577 0.088998 0.745982
O O10 0.502442 0.236478 0.781278
O O11 0.116231 0.282650 0.500000
O O12 0.083224 0.268119 0.616166
#
# Coordination Sequence:
#
# PCOD9546013 Si02
#       6
#    16   4  16  16  16  16
#     4  12  21  38  65  95 122 152 209 263 307 348
#     4  12  28  44  53  84 132 176 193 240 284 390
#     4  11  23  38  59  91 126 161 202 247 305 365
#     4  11  18  36  63  93 117 144 195 267 308 348
#     4  11  23  38  59  91 126 161 202 247 305 365
#     4  12  22  40  60  87 127 159 210 238 298 361
#
# _framework density 17.590209999999999
#
# number of rings (size 3 to 8) (size 9 to 14) (size 15 to 20)
#    0.000    0.571    9.524    1.143    0.000    0.762 
#    3.429    4.762    0.000    0.571    0.000    2.667 
#    0.000    0.000    0.000    0.000    0.000    0.000 
#
# Total GULP energy -233802.060991 kJ/mol
# GULP energy per Si atom -5566.715738 kJ/mol
# Density = 1.755017 g / cm^3
# Si number density = 17.590210 Si / 1000 Ang^3
#
#
#
# Elastic Constant Matrix: (Units=GPa)
#
#
# Indices 1 2 3 4 5 6 
#
# 1 97.3589 12.6076 16.9340 0.0000 0.0000 -0.8968
# 2 12.6076 97.3589 16.9340 0.0000 0.0000 0.8968
# 3 16.9340 16.9340 93.9239 0.0000 0.0000 0.0000
# 4 0.0000 0.0000 0.0000 15.6390 0.0000 0.0000
# 5 0.0000 0.0000 0.0000 0.0000 15.6390 0.0000
# 6 -0.8968 0.8968 0.0000 0.0000 0.0000 15.7015
#
#
#
# Elastic Compliance Matrix: (Units=1/GPa)
#
#
# Indices 1 2 3 4 5 6 
#
# 1 0.010721 -0.001093 -0.001736 0.000000 0.000000 0.000675
# 2 -0.001093 0.010721 -0.001736 0.000000 0.000000 -0.000675
# 3 -0.001736 -0.001736 0.011273 0.000000 0.000000 0.000000
# 4 0.000000 0.000000 0.000000 0.063943 0.000000 0.000000
# 5 0.000000 0.000000 0.000000 0.000000 0.063943 0.000000
# 6 0.000675 -0.000675 0.000000 0.000000 0.000000 0.063765
#
#
# Mechanical properties :
#
#
# Convention : Reuss Voigt Hill
#
# Bulk Modulus (GPa) = 42.39846 42.39923 42.39885
# Shear Modulus (GPa) = 20.71628 25.54031 23.12830
#
# Velocity S-wave (km/s) = 3.43551 3.81460 3.63001
# Velocity P-wave (km/s) = 6.31607 6.59983 6.45951
#
# Compressibility (1/GPa) = 0.02358576
#
# Stress axis : x y z
#
# Youngs Moduli (GPa) = 93.27564 93.27564 88.70844
#
# Poissons Ratio (x) = 0.10191 0.15399
# Poissons Ratio (y) = 0.10191 0.15399
# Poissons Ratio (z) = 0.16192 0.16192
#
# Static dielectric constant tensor:
#      x y z
#    x 1.589840 0.000000 0.000000 
#    y 0.000000 1.589840 0.000000 
#    z 0.000000 0.000000 1.620750 
# 
# From -- ./inp_files/5153.got.cif
#   From: 2010.05.17/outbox.cif.g08.bks.cpg/sg87_3_cif.got.tgz:5153.got - 2010.06.03 19:07:00.
