data_PCOD9546441
_publ_section_title
;
Structure prediction by ZEFSAII (Michael W. Deem and Ramdas Pophale) SiO2 
 PCOD9546441
Probable space group: I 41/A
;
_chemical_formula_sum "Si O2"
_cell_formula_units_Z 116
_cell_length_a 17.443509
_cell_length_b 17.443509
_cell_length_c 16.596368
_cell_angle_alpha 90.000000
_cell_angle_beta 90.000000
_cell_angle_gamma 90.000000
_cell_volume 5049.876573
_symmetry_space_group_name_H-M "I 41/A"
_symmetry_group_IT_number 88
_space_group.IT_coordinate_system_code '2'
_symmetry_cell_setting 'tetragonal'
loop_
_space_group_symop_operation_xyz
x,y,z
3/4-y,1/4+x,1/4+z
-x,1/2-y,z
1/4+y,1/4-x,1/4+z
-x,-y,-z
1/4+y,3/4-x,3/4-z
x,1/2+y,-z
3/4-y,3/4+x,3/4-z
1/2+x,1/2+y,1/2+z
1/4-y,3/4+x,3/4+z
1/2-x,-y,1/2+z
3/4+y,3/4-x,3/4+z
1/2-x,1/2-y,1/2-z
3/4+y,1/4-x,1/4-z
1/2+x,y,1/2-z
1/4-y,1/4+x,1/4-z
loop_
_atom_site_type_symbol
_atom_site_label
_atom_site_fract_x
_atom_site_fract_y
_atom_site_fract_z
Si Si1 0.249862 0.045079 0.729881
Si Si2 0.500000 0.750000 0.125000
Si Si3 0.640350 0.735809 0.034394
Si Si4 0.655635 0.233237 0.391642
Si Si5 0.613476 0.011323 0.537245
Si Si6 0.426936 0.707355 0.762350
Si Si7 0.119376 0.074877 0.622005
Si Si8 0.712496 0.159754 0.111350
O O1 0.176203 0.087095 0.695772
O O2 0.265838 0.084437 0.815414
O O3 0.325150 0.054012 0.672605
O O4 0.233286 0.954127 0.728129
O O5 0.562957 0.779217 0.060860
O O6 0.697402 0.786712 0.090260
O O7 0.622366 0.651229 0.067823
O O8 0.663802 0.719566 0.942964
O O9 0.713701 0.166654 0.363266
O O10 0.596904 0.243669 0.317442
O O11 0.618787 0.212907 0.475125
O O12 0.700386 0.313137 0.403310
O O13 0.573054 0.094603 0.544032
O O14 0.586370 0.962398 0.457991
O O15 0.500000 0.750000 0.804473
#
# Coordination Sequence:
#
# PCOD9546441 Si02
#       8
#    16   4  16  16  16  16  16  16
#     4  11  22  40  61  94 128 161 210 262 318 372
#     4   8  16  40  68  84 112 160 200 250 320 376
#     4   9  20  39  65  88 118 161 207 255 318 373
#     4  11  21  38  59  83 119 165 206 245 308 375
#     4  11  23  37  61  90 123 170 201 259 311 379
#     4  11  21  38  58  82 112 163 206 247 293 368
#     4  10  22  39  64  94 123 165 209 265 316 378
#     4  10  21  37  59  87 123 159 202 255 311 375
#
# _framework density 22.970858
#
# number of rings (size 3 to 8) (size 9 to 14) (size 15 to 20)
#    0.000    1.655    2.759    3.310    1.931    0.552 
#    0.000    0.000    7.586    0.000    0.000    0.000 
#    0.000    0.000    0.000    0.000    0.000    0.000 
#
# Total GULP energy -322922.005195 kJ/mol
# GULP energy per Si atom -5567.620779 kJ/mol
# Density = 2.291858 g / cm^3
# Si number density = 22.970858 Si / 1000 Ang^3
#
#
#
# Elastic Constant Matrix: (Units=GPa)
#
#
# Indices 1 2 3 4 5 6 
#
# 1 31.3798 2.2422 11.4936 0.0000 0.0000 -2.4870
# 2 2.2422 31.3798 11.4936 0.0000 0.0000 2.4870
# 3 11.4936 11.4936 61.0278 0.0000 0.0000 0.0000
# 4 0.0000 0.0000 0.0000 20.8107 0.0000 0.0000
# 5 0.0000 0.0000 0.0000 0.0000 20.8107 0.0000
# 6 -2.4870 2.4870 0.0000 0.0000 0.0000 26.1833
#
#
#
# Elastic Compliance Matrix: (Units=1/GPa)
#
#
# Indices 1 2 3 4 5 6 
#
# 1 0.034512 -0.000374 -0.006429 0.000000 0.000000 0.003314
# 2 -0.000374 0.034512 -0.006429 0.000000 0.000000 -0.003314
# 3 -0.006429 -0.006429 0.018808 0.000000 0.000000 0.000000
# 4 0.000000 0.000000 0.000000 0.048052 0.000000 0.000000
# 5 0.000000 0.000000 0.000000 0.000000 0.048052 0.000000
# 6 0.003314 -0.003314 0.000000 0.000000 0.000000 0.038822
#
#
# Mechanical properties :
#
#
# Convention : Reuss Voigt Hill
#
# Bulk Modulus (GPa) = 16.29556 19.36071 17.82814
# Shear Modulus (GPa) = 18.54063 20.13147 19.33605
#
# Velocity S-wave (km/s) = 2.84410 2.96360 2.90446
# Velocity P-wave (km/s) = 4.23020 4.48968 4.36187
#
# Compressibility (1/GPa) = 0.06136642
#
# Stress axis : x y z
#
# Youngs Moduli (GPa) = 28.97555 28.97555 53.16960
#
# Poissons Ratio (x) = 0.01083 0.34185
# Poissons Ratio (y) = 0.01083 0.34185
# Poissons Ratio (z) = 0.18629 0.18630
#
# Static dielectric constant tensor:
#      x y z
#    x 2.019360 0.000000 0.000000 
#    y 0.000000 2.019360 0.000000 
#    z 0.000000 0.000000 1.884820 
# 
# From -- ./inp_files/4015.got.cif
#   From: 2010.05.17/outbox.cif.g08.bks.cpg/sg88_3_cif.got.tgz:4015.got - 2010.06.03 19:11:41.
