data_PCOD9546893
_publ_section_title
;
Structure prediction by ZEFSAII (Michael W. Deem and Ramdas Pophale) SiO2 
 PCOD9546893
Probable space group: I 41/A
;
_chemical_formula_sum "Si O2"
_cell_formula_units_Z 48
_cell_length_a 15.000000
_cell_length_b 15.000000
_cell_length_c 21.000000
_cell_angle_alpha 90.000000
_cell_angle_beta 90.000000
_cell_angle_gamma 90.000000
_cell_volume 4725.000000
_symmetry_space_group_name_H-M "I 41/A"
_symmetry_group_IT_number 88
_space_group.IT_coordinate_system_code '2'
_symmetry_cell_setting 'tetragonal'
loop_
_space_group_symop_operation_xyz
x,y,z
3/4-y,1/4+x,1/4+z
-x,1/2-y,z
1/4+y,1/4-x,1/4+z
-x,-y,-z
1/4+y,3/4-x,3/4-z
x,1/2+y,-z
3/4-y,3/4+x,3/4-z
1/2+x,1/2+y,1/2+z
1/4-y,3/4+x,3/4+z
1/2-x,-y,1/2+z
3/4+y,3/4-x,3/4+z
1/2-x,1/2-y,1/2-z
3/4+y,1/4-x,1/4-z
1/2+x,y,1/2-z
1/4-y,1/4+x,1/4-z
loop_
_atom_site_type_symbol
_atom_site_label
_atom_site_fract_x
_atom_site_fract_y
_atom_site_fract_z
Si Si1 0.927717 0.324403 0.887083
Si Si2 0.257579 0.073989 0.386795
Si Si3 0.787572 0.755954 0.535070
Si Si4 0.669101 0.931134 0.759049
Si Si5 0.258552 0.222687 0.823354
Si Si6 0.693002 0.631385 0.091352
O O1 0.967495 0.385435 0.830542
O O2 0.902273 0.381599 0.949868
O O3 0.836678 0.281950 0.858850
O O4 0.000000 0.250000 0.903205
O O5 0.262804 0.171834 0.418953
O O6 0.302921 0.079174 0.315807
O O7 0.285740 0.000578 0.443019
O O8 0.160954 0.036760 0.364760
O O9 0.742557 0.669228 0.501725
O O10 0.811485 0.818684 0.475717
O O11 0.250000 0.250000 0.750000
O O12 0.324339 0.294172 0.855698
O O13 0.300749 0.125756 0.834753
#
# Coordination Sequence:
#
# PCOD9546893 Si02
#       6
#    16  16  16  16  16  16
#     4  12  26  48  72 109 157 195 255 329 385 461
#     4  12  25  48  80 106 152 203 261 325 389 470
#     4  12  26  45  76 109 146 211 256 313 399 466
#     4  12  25  51  76 110 155 201 261 325 394 469
#     4  12  27  42  70 106 151 199 250 319 382 467
#     4  12  23  44  70 105 151 199 256 308 390 464
#
# _framework density 10.15873
#
# number of rings (size 3 to 8) (size 9 to 14) (size 15 to 20)
#    0.000    0.000    6.667    3.000    4.667    1.000 
#    3.000    0.000    0.000    0.000    0.000    0.000 
#    0.000    0.000    0.000    0.000    0.000    0.000 
#
# Total GULP energy -267641.164920 kJ/mol
# GULP energy per Si atom -5575.857603 kJ/mol
# Density = 1.013561 g / cm^3
# Si number density = 10.158730 Si / 1000 Ang^3
#
#
#
# Elastic Constant Matrix: (Units=GPa)
#
#
# Indices 1 2 3 4 5 6 
#
# 1 81.3080 40.1083 45.8399 0.0000 0.0000 -12.2272
# 2 40.1083 81.3080 45.8399 0.0000 0.0000 12.2272
# 3 45.8399 45.8399 170.1841 0.0000 0.0000 0.0000
# 4 0.0000 0.0000 0.0000 39.3144 0.0000 0.0000
# 5 0.0000 0.0000 0.0000 0.0000 39.3144 0.0000
# 6 -12.2272 12.2272 0.0000 0.0000 0.0000 30.8539
#
#
#
# Elastic Compliance Matrix: (Units=1/GPa)
#
#
# Indices 1 2 3 4 5 6 
#
# 1 0.021038 -0.010699 -0.002785 0.000000 0.000000 0.012577
# 2 -0.010699 0.021038 -0.002785 0.000000 0.000000 -0.012577
# 3 -0.002785 -0.002785 0.007376 0.000000 0.000000 0.000000
# 4 0.000000 0.000000 0.000000 0.025436 0.000000 0.000000
# 5 0.000000 0.000000 0.000000 0.000000 0.025436 0.000000
# 6 0.012577 -0.012577 0.000000 0.000000 0.000000 0.042379
#
#
# Mechanical properties :
#
#
# Convention : Reuss Voigt Hill
#
# Bulk Modulus (GPa) = 59.12019 66.26403 62.69211
# Shear Modulus (GPa) = 27.64262 35.29734 31.46998
#
# Velocity S-wave (km/s) = 3.69254 4.17260 3.93989
# Velocity P-wave (km/s) = 6.88050 7.47658 7.18472
#
# Compressibility (1/GPa) = 0.01691470
#
# Stress axis : x y z
#
# Youngs Moduli (GPa) = 47.53265 47.53265 135.57105
#
# Poissons Ratio (x) = 0.50856 0.37754
# Poissons Ratio (y) = 0.50856 0.37754
# Poissons Ratio (z) = 0.13237 0.13237
#
# Static dielectric constant tensor:
#      x y z
#    x 1.776250 0.000000 0.000000 
#    y 0.000000 1.776250 0.000000 
#    z 0.000000 0.000000 1.720490 
# 
# From -- ./inp_files/4684.got.cif
#   From: 2010.05.17/outbox.ucp.g08.bks.cvg/sg88_3_cif.got.tgz:4684.got - 2010.06.11 10:35:41.
