data_PCOD9546803
_publ_section_title
;
Structure prediction by ZEFSAII (Michael W. Deem and Ramdas Pophale) SiO2 
 PCOD9546803
Probable space group: I 41/A
;
_chemical_formula_sum "Si O2"
_cell_formula_units_Z 32
_cell_length_a 16.330240
_cell_length_b 16.330240
_cell_length_c 4.894521
_cell_angle_alpha 90.000000
_cell_angle_beta 90.000000
_cell_angle_gamma 90.000000
_cell_volume 1305.254897
_symmetry_space_group_name_H-M "I 41/A"
_symmetry_group_IT_number 88
_space_group.IT_coordinate_system_code '2'
_symmetry_cell_setting 'tetragonal'
loop_
_space_group_symop_operation_xyz
x,y,z
3/4-y,1/4+x,1/4+z
-x,1/2-y,z
1/4+y,1/4-x,1/4+z
-x,-y,-z
1/4+y,3/4-x,3/4-z
x,1/2+y,-z
3/4-y,3/4+x,3/4-z
1/2+x,1/2+y,1/2+z
1/4-y,3/4+x,3/4+z
1/2-x,-y,1/2+z
3/4+y,3/4-x,3/4+z
1/2-x,1/2-y,1/2-z
3/4+y,1/4-x,1/4-z
1/2+x,y,1/2-z
1/4-y,1/4+x,1/4-z
loop_
_atom_site_type_symbol
_atom_site_label
_atom_site_fract_x
_atom_site_fract_y
_atom_site_fract_z
Si Si1 0.192445 0.113909 0.539335
Si Si2 0.055576 0.371181 0.186510
O O1 0.277953 0.093942 0.684824
O O2 0.194071 0.168857 0.267290
O O3 0.139317 0.161661 0.762876
O O4 0.100745 0.289887 0.073846
#
# Coordination Sequence:
#
# PCOD9546803 Si02
#       2
#    16  16
#     4  12  25  43  67  96 133 173 217 268 322 384
#     4  11  25  44  67  98 133 170 217 269 322 386
#
# _framework density 24.516283000000001
#
# number of rings (size 3 to 8) (size 9 to 14) (size 15 to 20)
#    0.000    0.500    0.000    9.000    0.000   16.000 
#    0.000    0.000    0.000    0.000    0.000    0.000 
#    0.000    0.000    0.000    0.000    0.000    0.000 
#
# Total GULP energy -89736.082755 kJ/mol
# GULP energy per Si atom -5608.505172 kJ/mol
# Density = 2.446048 g / cm^3
# Si number density = 24.516283 Si / 1000 Ang^3
#
#
#
# Elastic Constant Matrix: (Units=GPa)
#
#
# Indices 1 2 3 4 5 6 
#
# 1 30.4929 43.7283 9.8201 0.0000 0.0000 -2.5513
# 2 43.7283 30.4929 9.8201 0.0000 0.0000 2.5513
# 3 9.8201 9.8201 139.6368 0.0000 0.0000 0.0000
# 4 0.0000 0.0000 0.0000 -14.3445 0.0000 0.0000
# 5 0.0000 0.0000 0.0000 0.0000 -14.3445 0.0000
# 6 -2.5513 2.5513 0.0000 0.0000 0.0000 30.7607
#
#
#
# Elastic Compliance Matrix: (Units=1/GPa)
#
#
# Indices 1 2 3 4 5 6 
#
# 1 -0.029743 0.043471 -0.000965 0.000000 0.000000 -0.006072
# 2 0.043471 -0.029743 -0.000965 0.000000 0.000000 0.006072
# 3 -0.000965 -0.000965 0.007297 0.000000 0.000000 0.000000
# 4 0.000000 0.000000 0.000000 -0.069713 0.000000 0.000000
# 5 0.000000 0.000000 0.000000 0.000000 -0.069713 0.000000
# 6 -0.006072 0.006072 0.000000 0.000000 0.000000 0.031502
#
#
# Mechanical properties :
#
#
# Convention : Reuss Voigt Hill
#
# Bulk Modulus (GPa) = 32.37008 36.37329 34.37169
# Shear Modulus (GPa) = -21.46886 9.56461 -5.95212
#
# Velocity S-wave (km/s) = -2.96243 1.97732 -1.55984
# Velocity P-wave (km/s) = 1.23727 4.48126 3.28729
#
# Compressibility (1/GPa) = 0.03089273
#
# Stress axis : x y z
#
# Youngs Moduli (GPa) = -33.62179 -33.62179 137.03824
#
# Poissons Ratio (x) = 1.46158 0.13231
# Poissons Ratio (y) = 1.46158 0.13231
# Poissons Ratio (z) = -0.03246 -0.03246
#
# Static dielectric constant tensor:
#      x y z
#    x 1.954600 0.000000 0.000000 
#    y 0.000000 1.954600 0.000000 
#    z 0.000000 0.000000 1.871680 
# 
# From -- ./inp_files/190.got.cif
#   From: 2010.05.17/outbox.cif.g08.bks.cpg/sg88_1_cif.got.tgz:190.got - 2010.06.03 19:11:41.
