data_PCOD9546591
_publ_section_title
;
Structure prediction by ZEFSAII (Michael W. Deem and Ramdas Pophale) SiO2 
 PCOD9546591
Probable space group: I 41/A
;
_chemical_formula_sum "Si O2"
_cell_formula_units_Z 80
_cell_length_a 15.594834
_cell_length_b 15.594834
_cell_length_c 11.373116
_cell_angle_alpha 90.000000
_cell_angle_beta 90.000000
_cell_angle_gamma 90.000000
_cell_volume 2765.928704
_symmetry_space_group_name_H-M "I 41/A"
_symmetry_group_IT_number 88
_space_group.IT_coordinate_system_code '2'
_symmetry_cell_setting 'tetragonal'
loop_
_space_group_symop_operation_xyz
x,y,z
3/4-y,1/4+x,1/4+z
-x,1/2-y,z
1/4+y,1/4-x,1/4+z
-x,-y,-z
1/4+y,3/4-x,3/4-z
x,1/2+y,-z
3/4-y,3/4+x,3/4-z
1/2+x,1/2+y,1/2+z
1/4-y,3/4+x,3/4+z
1/2-x,-y,1/2+z
3/4+y,3/4-x,3/4+z
1/2-x,1/2-y,1/2-z
3/4+y,1/4-x,1/4-z
1/2+x,y,1/2-z
1/4-y,1/4+x,1/4-z
loop_
_atom_site_type_symbol
_atom_site_label
_atom_site_fract_x
_atom_site_fract_y
_atom_site_fract_z
Si Si1 0.722449 0.443458 0.602556
Si Si2 0.924959 0.810812 0.566733
Si Si3 0.369578 0.271541 0.347193
Si Si4 0.671900 0.688164 0.223165
Si Si5 0.187726 0.325761 0.389177
O O1 0.636687 0.384254 0.622856
O O2 0.532198 0.585774 0.485389
O O3 0.802265 0.380608 0.626058
O O4 0.721859 0.511993 0.714724
O O5 0.853520 0.744189 0.523584
O O6 0.000000 0.750000 0.630145
O O7 0.989433 0.850041 0.473004
O O8 0.445794 0.338694 0.327338
O O9 0.288891 0.320538 0.401434
O O10 0.750000 0.750000 0.250000
O O11 0.655894 0.622010 0.333016
#
# Coordination Sequence:
#
# PCOD9546591 Si02
#       5
#    16  16  16  16  16
#     4  11  26  50  80 124 167 220 276 359 436 517
#     4   9  21  46  73 111 154 219 283 350 417 514
#     4  10  24  41  67 116 161 221 270 352 446 534
#     4   9  21  45  72 106 155 215 272 347 414 504
#     4  10  22  43  70 106 155 214 280 343 425 519
#
# _framework density 28.923378
#
# number of rings (size 3 to 8) (size 9 to 14) (size 15 to 20)
#    0.000    2.200    0.000    0.000    8.400    8.000 
#   25.200    4.000    0.000    0.000    0.000    1.400 
#    0.000    0.000    0.000    0.000    0.000    0.000 
#
# Total GULP energy -223107.536853 kJ/mol
# GULP energy per Si atom -5577.688421 kJ/mol
# Density = 2.885755 g / cm^3
# Si number density = 28.923378 Si / 1000 Ang^3
#
#
#
# Elastic Constant Matrix: (Units=GPa)
#
#
# Indices 1 2 3 4 5 6 
#
# 1 175.0463 82.6574 68.8056 0.0000 0.0000 0.9380
# 2 82.6574 175.0463 68.8056 0.0000 0.0000 -0.9380
# 3 68.8056 68.8056 165.5049 0.0000 0.0000 0.0000
# 4 0.0000 0.0000 0.0000 53.1526 0.0000 0.0000
# 5 0.0000 0.0000 0.0000 0.0000 53.1526 0.0000
# 6 0.9380 -0.9380 0.0000 0.0000 0.0000 61.5547
#
#
#
# Elastic Compliance Matrix: (Units=1/GPa)
#
#
# Indices 1 2 3 4 5 6 
#
# 1 0.007907 -0.002920 -0.002074 0.000000 0.000000 -0.000165
# 2 -0.002920 0.007907 -0.002074 0.000000 0.000000 0.000165
# 3 -0.002074 -0.002074 0.007766 0.000000 0.000000 0.000000
# 4 0.000000 0.000000 0.000000 0.018814 0.000000 0.000000
# 5 0.000000 0.000000 0.000000 0.000000 0.018814 0.000000
# 6 -0.000165 0.000165 0.000000 0.000000 0.000000 0.016251
#
#
# Mechanical properties :
#
#
# Convention : Reuss Voigt Hill
#
# Bulk Modulus (GPa) = 105.84929 106.23721 106.04325
# Shear Modulus (GPa) = 52.77488 53.26056 53.01772
#
# Velocity S-wave (km/s) = 4.27622 4.29585 4.28605
# Velocity P-wave (km/s) = 7.81392 7.83684 7.82539
#
# Compressibility (1/GPa) = 0.00944739
#
# Stress axis : x y z
#
# Youngs Moduli (GPa) = 126.46353 126.46353 128.76340
#
# Poissons Ratio (x) = 0.36924 0.26700
# Poissons Ratio (y) = 0.36924 0.26700
# Poissons Ratio (z) = 0.26223 0.26223
#
# Static dielectric constant tensor:
#      x y z
#    x 2.311460 0.000000 0.000000 
#    y 0.000000 2.311460 0.000000 
#    z 0.000000 0.000000 2.523770 
# 
# From -- ./inp_files/4528.got.cif
#   From: 2010.05.17/outbox.cif.g08.bks.cpg/sg88_3_cif.got.tgz:4528.got - 2010.06.03 19:11:41.
