data_PCOD9546264
_publ_section_title
;
Structure prediction by ZEFSAII (Michael W. Deem and Ramdas Pophale) SiO2 
 PCOD9546264
Probable space group: I 41/A
;
_chemical_formula_sum "Si O2"
_cell_formula_units_Z 48
_cell_length_a 7.497520
_cell_length_b 7.497520
_cell_length_c 35.050551
_cell_angle_alpha 90.000000
_cell_angle_beta 90.000000
_cell_angle_gamma 90.000000
_cell_volume 1970.289829
_symmetry_space_group_name_H-M "I 41/A"
_symmetry_group_IT_number 88
_space_group.IT_coordinate_system_code '2'
_symmetry_cell_setting 'tetragonal'
loop_
_space_group_symop_operation_xyz
x,y,z
3/4-y,1/4+x,1/4+z
-x,1/2-y,z
1/4+y,1/4-x,1/4+z
-x,-y,-z
1/4+y,3/4-x,3/4-z
x,1/2+y,-z
3/4-y,3/4+x,3/4-z
1/2+x,1/2+y,1/2+z
1/4-y,3/4+x,3/4+z
1/2-x,-y,1/2+z
3/4+y,3/4-x,3/4+z
1/2-x,1/2-y,1/2-z
3/4+y,1/4-x,1/4-z
1/2+x,y,1/2-z
1/4-y,1/4+x,1/4-z
loop_
_atom_site_type_symbol
_atom_site_label
_atom_site_fract_x
_atom_site_fract_y
_atom_site_fract_z
Si Si1 0.368810 0.514667 0.373191
Si Si2 0.000000 0.750000 0.556488
Si Si3 0.000000 0.250000 0.010433
Si Si4 0.778419 0.042667 0.955177
O O1 0.576190 0.476204 0.382213
O O2 0.384546 0.623174 0.334483
O O3 0.280758 0.600318 0.410943
O O4 0.114255 0.908100 0.537052
O O5 0.169249 0.300429 0.983889
O O6 0.052632 0.087559 0.037337
#
# Coordination Sequence:
#
# PCOD9546264 Si02
#       4
#    16   8   8  16
#     4   9  17  32  55  78 106 145 190 241 295 355
#     4  10  19  32  58  86 110 141 199 266 297 335
#     4  10  21  36  55  76 114 163 198 234 286 383
#     4  10  20  35  55  82 112 153 200 239 298 357
#
# _framework density 24.361898
#
# number of rings (size 3 to 8) (size 9 to 14) (size 15 to 20)
#    0.000    2.333    0.000    5.000    0.000    1.333 
#    0.000    0.000    0.000   64.000    0.000    0.000 
#    0.000    0.000    0.000    0.000    0.000    0.000 
#
# Total GULP energy -133894.352943 kJ/mol
# GULP energy per Si atom -5578.931373 kJ/mol
# Density = 2.430645 g / cm^3
# Si number density = 24.361898 Si / 1000 Ang^3
#
#
#
# Elastic Constant Matrix: (Units=GPa)
#
#
# Indices 1 2 3 4 5 6 
#
# 1 59.5601 29.2923 27.2490 0.0000 0.0000 4.9249
# 2 29.2923 59.5601 27.2490 0.0000 0.0000 -4.9249
# 3 27.2490 27.2490 80.4776 0.0000 0.0000 0.0000
# 4 0.0000 0.0000 0.0000 18.9611 0.0000 0.0000
# 5 0.0000 0.0000 0.0000 0.0000 18.9611 0.0000
# 6 4.9249 -4.9249 0.0000 0.0000 0.0000 47.5351
#
#
#
# Elastic Compliance Matrix: (Units=1/GPa)
#
#
# Indices 1 2 3 4 5 6 
#
# 1 0.024198 -0.009993 -0.004810 0.000000 0.000000 -0.003542
# 2 -0.009993 0.024198 -0.004810 0.000000 0.000000 0.003542
# 3 -0.004810 -0.004810 0.015683 0.000000 0.000000 0.000000
# 4 0.000000 0.000000 0.000000 0.052740 0.000000 0.000000
# 5 0.000000 0.000000 0.000000 0.000000 0.052740 0.000000
# 6 -0.003542 0.003542 0.000000 0.000000 0.000000 0.021771
#
#
# Mechanical properties :
#
#
# Convention : Reuss Voigt Hill
#
# Bulk Modulus (GPa) = 40.23540 40.79759 40.51649
# Shear Modulus (GPa) = 20.93468 24.81196 22.87332
#
# Velocity S-wave (km/s) = 2.93460 3.19482 3.06747
# Velocity P-wave (km/s) = 5.29472 5.51289 5.40491
#
# Compressibility (1/GPa) = 0.02485374
#
# Stress axis : x y z
#
# Youngs Moduli (GPa) = 41.32592 41.32594 63.76439
#
# Poissons Ratio (x) = 0.41298 0.30668
# Poissons Ratio (y) = 0.41298 0.30668
# Poissons Ratio (z) = 0.19876 0.19876
#
# Static dielectric constant tensor:
#      x y z
#    x 1.980190 0.000000 0.000000 
#    y 0.000000 1.980190 0.000000 
#    z 0.000000 0.000000 2.090970 
# 
# From -- ./inp_files/6133.got.cif
#   From: 2010.05.17/outbox.cif.g08.bks.cpg/sg88_4_cif.got.tgz:6133.got - 2010.06.03 19:11:41.
