data_PCOD9546116
_publ_section_title
;
Structure prediction by ZEFSAII (Michael W. Deem and Ramdas Pophale) SiO2 
 PCOD9546116
Probable space group: I 4/M
;
_chemical_formula_sum "Si O2"
_cell_formula_units_Z 80
_cell_length_a 10.037420
_cell_length_b 10.037420
_cell_length_c 30.810097
_cell_angle_alpha 90.000000
_cell_angle_beta 90.000000
_cell_angle_gamma 90.000000
_cell_volume 3104.111119
_symmetry_space_group_name_H-M "I 4/M"
_symmetry_group_IT_number 87
_symmetry_cell_setting 'tetragonal'
loop_
_space_group_symop_operation_xyz
x,y,z
-y,x,z
-x,-y,z
y,-x,z
-x,-y,-z
y,-x,-z
x,y,-z
-y,x,-z
1/2+x,1/2+y,1/2+z
1/2-y,1/2+x,1/2+z
1/2-x,1/2-y,1/2+z
1/2+y,1/2-x,1/2+z
1/2-x,1/2-y,1/2-z
1/2+y,1/2-x,1/2-z
1/2+x,1/2+y,1/2-z
1/2-y,1/2+x,1/2-z
loop_
_atom_site_type_symbol
_atom_site_label
_atom_site_fract_x
_atom_site_fract_y
_atom_site_fract_z
Si Si1 0.521764 0.161166 0.451963
Si Si2 0.912339 0.791481 0.322918
Si Si3 0.843786 0.519436 0.640047
Si Si4 0.888054 0.822707 0.448202
Si Si5 0.556072 0.715905 0.726664
O O1 0.478988 0.210934 0.500000
O O2 0.469249 0.215125 0.405918
O O3 0.680153 0.178595 0.445679
O O4 0.500000 0.000000 0.453820
O O5 0.842258 0.679591 0.352030
O O6 0.067864 0.834697 0.327925
O O7 0.915185 0.726387 0.274192
O O8 0.795987 0.440406 0.682328
O O9 0.000000 0.500000 0.636723
O O10 0.894262 0.841924 0.500000
O O11 0.041209 0.821373 0.431175
O O12 0.409634 0.653204 0.725994
#
# Coordination Sequence:
#
# PCOD9546116 Si02
#       5
#    16  16  16  16  16
#     4   9  19  37  51  71 111 151 187 231 280 327
#     4   9  21  39  59  87 122 152 178 229 297 351
#     4  11  24  34  58  90 112 150 199 238 280 345
#     4   8  14  27  50  77 100 129 172 220 277 338
#     4   9  21  41  61  82 116 158 191 231 285 337
#
# _framework density 25.772272000000001
#
# number of rings (size 3 to 8) (size 9 to 14) (size 15 to 20)
#    0.000    2.800    0.000    1.800    5.600    3.200 
#    3.600    2.000    0.000    0.000    0.000    1.400 
#    0.000    0.000    0.000    0.000    0.000    0.000 
#
# Total GULP energy -223247.321280 kJ/mol
# GULP energy per Si atom -5581.183032 kJ/mol
# Density = 2.571361 g / cm^3
# Si number density = 25.772272 Si / 1000 Ang^3
#
#
#
# Elastic Constant Matrix: (Units=GPa)
#
#
# Indices 1 2 3 4 5 6 
#
# 1 109.2614 -23.7583 21.0297 0.0000 0.0000 47.5562
# 2 -23.7583 109.2614 21.0297 0.0000 0.0000 -47.5562
# 3 21.0297 21.0297 253.1565 0.0000 0.0000 0.0000
# 4 0.0000 0.0000 0.0000 -11.1592 0.0000 0.0000
# 5 0.0000 0.0000 0.0000 0.0000 -11.1592 0.0000
# 6 47.5562 -47.5562 0.0000 0.0000 0.0000 61.5002
#
#
#
# Elastic Compliance Matrix: (Units=1/GPa)
#
#
# Indices 1 2 3 4 5 6 
#
# 1 0.014504 -0.002310 -0.001013 0.000000 0.000000 -0.013002
# 2 -0.002310 0.014504 -0.001013 0.000000 0.000000 0.013002
# 3 -0.001013 -0.001013 0.004118 0.000000 0.000000 0.000000
# 4 0.000000 0.000000 0.000000 -0.089612 0.000000 0.000000
# 5 0.000000 0.000000 0.000000 0.000000 -0.089612 0.000000
# 6 -0.013002 0.013002 0.000000 0.000000 0.000000 0.036368
#
#
# Mechanical properties :
#
#
# Convention : Reuss Voigt Hill
#
# Bulk Modulus (GPa) = 40.89281 56.47573 48.68427
# Shear Modulus (GPa) = -53.81796 38.06159 -7.87818
#
# Velocity S-wave (km/s) = -4.57465 3.84714 -1.75028
# Velocity P-wave (km/s) = 3.46437 6.45716 3.85312
#
# Compressibility (1/GPa) = 0.02445417
#
# Stress axis : x y z
#
# Youngs Moduli (GPa) = 68.94582 68.94583 242.81183
#
# Poissons Ratio (x) = 0.15929 0.24595
# Poissons Ratio (y) = 0.15929 0.24595
# Poissons Ratio (z) = 0.06984 0.06984
#
# Static dielectric constant tensor:
#      x y z
#    x 2.109970 0.000000 0.000000 
#    y 0.000000 2.109970 0.000000 
#    z 0.000000 0.000000 2.191590 
# 
# From -- ./inp_files/6470.got.cif
#   From: 2010.05.17/outbox.cif.g08.bks.cpg/sg87_4_cif.got.tgz:6470.got - 2010.06.03 19:07:00.
