data_PCOD9546450
_publ_section_title
;
Structure prediction by ZEFSAII (Michael W. Deem and Ramdas Pophale) SiO2 
 PCOD9546450
Probable space group: I 41/A
;
_chemical_formula_sum "Si O2"
_cell_formula_units_Z 112
_cell_length_a 15.853637
_cell_length_b 15.853637
_cell_length_c 20.000586
_cell_angle_alpha 90.000000
_cell_angle_beta 90.000000
_cell_angle_gamma 90.000000
_cell_volume 5026.903407
_symmetry_space_group_name_H-M "I 41/A"
_symmetry_group_IT_number 88
_space_group.IT_coordinate_system_code '2'
_symmetry_cell_setting 'tetragonal'
loop_
_space_group_symop_operation_xyz
x,y,z
3/4-y,1/4+x,1/4+z
-x,1/2-y,z
1/4+y,1/4-x,1/4+z
-x,-y,-z
1/4+y,3/4-x,3/4-z
x,1/2+y,-z
3/4-y,3/4+x,3/4-z
1/2+x,1/2+y,1/2+z
1/4-y,3/4+x,3/4+z
1/2-x,-y,1/2+z
3/4+y,3/4-x,3/4+z
1/2-x,1/2-y,1/2-z
3/4+y,1/4-x,1/4-z
1/2+x,y,1/2-z
1/4-y,1/4+x,1/4-z
loop_
_atom_site_type_symbol
_atom_site_label
_atom_site_fract_x
_atom_site_fract_y
_atom_site_fract_z
Si Si1 0.974479 0.347262 0.514232
Si Si2 0.107821 0.602589 0.623277
Si Si3 0.366440 0.062227 0.036622
Si Si4 0.988284 0.531709 0.074729
Si Si5 0.072997 0.873378 0.673307
Si Si6 0.967160 0.010944 0.214586
Si Si7 0.373358 0.059245 0.801606
O O1 0.912985 0.370493 0.451821
O O2 0.905865 0.355779 0.572591
O O3 0.000000 0.250000 0.507723
O O4 0.050659 0.413155 0.507023
O O5 0.188896 0.644876 0.656527
O O6 0.118772 0.503981 0.635994
O O7 0.025165 0.639733 0.659505
O O8 0.398300 0.062765 0.114174
O O9 0.310457 0.145840 0.029222
O O10 0.315805 0.974817 0.027043
O O11 0.045050 0.615619 0.082540
O O12 0.016396 0.473027 0.136402
O O13 0.000000 0.500000 0.000000
O O14 0.073896 0.911719 0.746558
O O15 0.053536 0.980861 0.252442
#
# Coordination Sequence:
#
# PCOD9546450 Si02
#       7
#    16  16  16  16  16  16  16
#     4  11  19  41  70  91 130 178 222 259 332 416
#     4  10  21  39  65  89 121 168 216 264 325 393
#     4  10  21  37  66  95 128 179 219 266 334 406
#     4  11  22  41  65  96 125 169 222 271 335 399
#     4   9  21  41  64  89 129 166 216 267 331 396
#     4  10  21  43  63  94 135 174 215 275 334 402
#     4  11  22  37  65 100 126 167 224 274 320 397
#
# _framework density 22.280118000000002
#
# number of rings (size 3 to 8) (size 9 to 14) (size 15 to 20)
#    0.000    1.714    2.857    2.571    2.000    1.143 
#    7.714    1.429    0.000    0.000    0.000    0.000 
#    0.000    0.000    0.000    0.000    0.000    0.000 
#
# Total GULP energy -312207.211920 kJ/mol
# GULP energy per Si atom -5575.128784 kJ/mol
# Density = 2.222941 g / cm^3
# Si number density = 22.280118 Si / 1000 Ang^3
#
#
#
# Elastic Constant Matrix: (Units=GPa)
#
#
# Indices 1 2 3 4 5 6 
#
# 1 88.2965 23.6102 25.7174 0.0000 0.0000 -0.4139
# 2 23.6102 88.2965 25.7174 0.0000 0.0000 0.4139
# 3 25.7174 25.7174 66.9361 0.0000 0.0000 0.0000
# 4 0.0000 0.0000 0.0000 23.8156 0.0000 0.0000
# 5 0.0000 0.0000 0.0000 0.0000 23.8156 0.0000
# 6 -0.4139 0.4139 0.0000 0.0000 0.0000 23.5998
#
#
#
# Elastic Compliance Matrix: (Units=1/GPa)
#
#
# Indices 1 2 3 4 5 6 
#
# 1 0.013158 -0.002305 -0.004170 0.000000 0.000000 0.000271
# 2 -0.002305 0.013158 -0.004170 0.000000 0.000000 -0.000271
# 3 -0.004170 -0.004170 0.018144 0.000000 0.000000 0.000000
# 4 0.000000 0.000000 0.000000 0.041989 0.000000 0.000000
# 5 0.000000 0.000000 0.000000 0.000000 0.041989 0.000000
# 6 0.000271 -0.000271 0.000000 0.000000 0.000000 0.042383
#
#
# Mechanical properties :
#
#
# Convention : Reuss Voigt Hill
#
# Bulk Modulus (GPa) = 43.15904 43.73544 43.44724
# Shear Modulus (GPa) = 25.02102 25.47849 25.24975
#
# Velocity S-wave (km/s) = 3.35478 3.38531 3.37008
# Velocity P-wave (km/s) = 5.86679 5.91210 5.88949
#
# Compressibility (1/GPa) = 0.02317012
#
# Stress axis : x y z
#
# Youngs Moduli (GPa) = 76.00182 76.00182 55.11578
#
# Poissons Ratio (x) = 0.17519 0.22981
# Poissons Ratio (y) = 0.17519 0.22981
# Poissons Ratio (z) = 0.31690 0.31690
#
# Static dielectric constant tensor:
#      x y z
#    x 1.879010 0.000000 0.000000 
#    y 0.000000 1.879010 0.000000 
#    z 0.000000 0.000000 1.967930 
# 
# From -- ./inp_files/5341.got.cif
#   From: 2010.05.17/outbox.cif.g08.bks.cpg/sg88_3_cif.got.tgz:5341.got - 2010.06.03 19:11:41.
