data_PCOD9546954
_publ_section_title
;
Structure prediction by ZEFSAII (Michael W. Deem and Ramdas Pophale) SiO2 
 PCOD9546954
Probable space group: P 4 2 2
;
_chemical_formula_sum "Si O2"
_cell_formula_units_Z 40
_cell_length_a 14.649076
_cell_length_b 14.649076
_cell_length_c 8.073634
_cell_angle_alpha 90.000000
_cell_angle_beta 90.000000
_cell_angle_gamma 90.000000
_cell_volume 1732.564941
_symmetry_space_group_name_H-M "P 4 2 2"
_symmetry_group_IT_number 89
_symmetry_cell_setting 'tetragonal'
loop_
_space_group_symop_operation_xyz
x,y,z
-y,x,z
-x,-y,z
y,-x,z
x,-y,-z
-x,y,-z
y,x,-z
-y,-x,-z
loop_
_atom_site_type_symbol
_atom_site_label
_atom_site_fract_x
_atom_site_fract_y
_atom_site_fract_z
Si Si1 0.645097 0.288165 0.324977
Si Si2 0.090550 0.258826 0.793620
Si Si3 0.747330 0.121933 0.186090
Si Si4 0.717117 0.464858 0.172671
Si Si5 0.098266 0.458243 0.680341
O O1 0.687859 0.312141 0.500000
O O2 0.670247 0.185308 0.270845
O O3 0.692582 0.360693 0.202431
O O4 0.538062 0.311951 0.311677
O O5 0.160696 0.176625 0.764016
O O6 0.100647 0.348277 0.679490
O O7 0.983680 0.238094 0.770736
O O8 0.114247 0.276552 0.989173
O O9 0.825666 0.477043 0.183857
O O10 0.680351 0.500000 0.000000
O O11 0.121574 0.500000 0.500000
O O12 0.000000 0.500000 0.723890
#
# Coordination Sequence:
#
# PCOD9546954 Si02
#       5
#     8   8   8   8   8
#     4  12  25  45  69 101 142 187 232 291 360 430
#     4  10  21  41  71 102 143 189 240 300 366 425
#     4  10  22  42  70 103 144 186 243 297 361 440
#     4  12  26  43  69  99 136 183 237 291 354 428
#     4  11  23  41  66 101 142 180 241 294 365 431
#
# _framework density 23.087154999999999
#
# number of rings (size 3 to 8) (size 9 to 14) (size 15 to 20)
#    0.000    1.000    2.000    4.800    2.800    4.400 
#    0.000    4.000    0.000    0.000    0.000    1.400 
#    0.000    0.000    0.000    0.000    0.000    0.000 
#
# Total GULP energy -223343.958760 kJ/mol
# GULP energy per Si atom -5583.598969 kJ/mol
# Density = 2.303461 g / cm^3
# Si number density = 23.087155 Si / 1000 Ang^3
#
#
#
# Elastic Constant Matrix: (Units=GPa)
#
#
# Indices 1 2 3 4 5 6 
#
# 1 118.2663 31.4933 37.1338 0.0000 0.0000 0.0000
# 2 31.4933 118.2681 37.1346 0.0000 0.0000 0.0000
# 3 37.1338 37.1346 71.2581 0.0000 0.0000 0.0000
# 4 0.0000 0.0000 0.0000 35.1456 0.0000 0.0000
# 5 0.0000 0.0000 0.0000 0.0000 35.1456 0.0000
# 6 0.0000 0.0000 0.0000 0.0000 0.0000 27.6388
#
#
#
# Elastic Compliance Matrix: (Units=1/GPa)
#
#
# Indices 1 2 3 4 5 6 
#
# 1 0.010264 -0.001260 -0.004692 0.000000 0.000000 0.000000
# 2 -0.001260 0.010264 -0.004692 0.000000 0.000000 0.000000
# 3 -0.004692 -0.004692 0.018924 0.000000 0.000000 0.000000
# 4 0.000000 0.000000 0.000000 0.028453 0.000000 0.000000
# 5 0.000000 0.000000 0.000000 0.000000 0.028453 0.000000
# 6 0.000000 0.000000 0.000000 0.000000 0.000000 0.036181
#
#
# Mechanical properties :
#
#
# Convention : Reuss Voigt Hill
#
# Bulk Modulus (GPa) = 55.05604 57.70176 56.37890
# Shear Modulus (GPa) = 31.27276 33.05471 32.16373
#
# Velocity S-wave (km/s) = 3.68442 3.78793 3.73653
# Velocity P-wave (km/s) = 6.48064 6.64669 6.56419
#
# Compressibility (1/GPa) = 0.01816331
#
# Stress axis : x y z
#
# Youngs Moduli (GPa) = 97.42483 97.42588 52.84273
#
# Poissons Ratio (x) = 0.12275 0.24796
# Poissons Ratio (y) = 0.12275 0.24796
# Poissons Ratio (z) = 0.45715 0.45716
#
# Static dielectric constant tensor:
#      x y z
#    x 1.898050 0.000000 0.000000 
#    y 0.000000 1.898050 0.000000 
#    z 0.000000 0.000000 1.885980 
# 
# From -- ./inp_files/1007.got.cif
#   From: 2010.05.17/outbox.cif.g08.bks.cpg/sg89_1_cif.got.tgz:1007.got - 2010.06.03 19:15:31.
