data_PCOD9546081
_publ_section_title
;
Structure prediction by ZEFSAII (Michael W. Deem and Ramdas Pophale) SiO2 
 PCOD9546081
Probable space group: I 4/M
;
_chemical_formula_sum "Si O2"
_cell_formula_units_Z 96
_cell_length_a 14.835324
_cell_length_b 14.835324
_cell_length_c 20.048752
_cell_angle_alpha 90.000000
_cell_angle_beta 90.000000
_cell_angle_gamma 90.000000
_cell_volume 4412.466437
_symmetry_space_group_name_H-M "I 4/M"
_symmetry_group_IT_number 87
_symmetry_cell_setting 'tetragonal'
loop_
_space_group_symop_operation_xyz
x,y,z
-y,x,z
-x,-y,z
y,-x,z
-x,-y,-z
y,-x,-z
x,y,-z
-y,x,-z
1/2+x,1/2+y,1/2+z
1/2-y,1/2+x,1/2+z
1/2-x,1/2-y,1/2+z
1/2+y,1/2-x,1/2+z
1/2-x,1/2-y,1/2-z
1/2+y,1/2-x,1/2-z
1/2+x,1/2+y,1/2-z
1/2-y,1/2+x,1/2-z
loop_
_atom_site_type_symbol
_atom_site_label
_atom_site_fract_x
_atom_site_fract_y
_atom_site_fract_z
Si Si1 0.628372 0.418359 0.500000
Si Si2 0.668263 0.931941 0.831859
Si Si3 0.555183 0.635480 0.772723
Si Si4 0.633232 0.143901 0.179118
Si Si5 0.959313 0.852751 0.500000
Si Si6 0.280964 0.954613 0.376654
Si Si7 0.347235 0.328066 0.358107
O O1 0.619676 0.526211 0.500000
O O2 0.674996 0.384116 0.432722
O O3 0.654087 0.903035 0.754544
O O4 0.602705 0.872166 0.877749
O O5 0.768094 0.900693 0.851472
O O6 0.647064 0.037680 0.836174
O O7 0.452364 0.612742 0.791233
O O8 0.578097 0.725624 0.811421
O O9 0.574813 0.646464 0.694672
O O10 0.557610 0.189089 0.133343
O O11 0.730531 0.187643 0.166064
O O12 0.944579 0.788783 0.436509
O O13 0.060703 0.893524 0.500000
#
# Coordination Sequence:
#
# PCOD9546081 Si02
#       7
#     8  16  16  16   8  16  16
#     4  11  24  44  68  96 140 186 225 292 376 440
#     4  12  25  43  73 106 145 191 243 306 371 453
#     4  11  22  39  66 101 137 175 236 311 370 438
#     4  12  24  45  71 106 147 188 236 309 376 439
#     4  11  28  52  77 108 156 206 253 316 386 449
#     4  12  26  43  74 104 144 194 249 303 376 451
#     4  12  25  42  69 104 141 190 248 303 368 454
#
# _framework density 21.756539
#
# number of rings (size 3 to 8) (size 9 to 14) (size 15 to 20)
#    0.000    0.333    3.333    6.000    4.667    4.000 
#    0.000    3.333    0.000    0.000    0.000    0.000 
#    0.000    0.000    0.000    0.000    0.000    0.000 
#
# Total GULP energy -268745.075522 kJ/mol
# GULP energy per Si atom -5598.855740 kJ/mol
# Density = 2.170702 g / cm^3
# Si number density = 21.756539 Si / 1000 Ang^3
#
#
#
# Elastic Constant Matrix: (Units=GPa)
#
#
# Indices 1 2 3 4 5 6 
#
# 1 78.4072 3.6417 19.8754 0.0000 0.0000 8.3645
# 2 3.6417 78.4072 19.8754 0.0000 0.0000 -8.3645
# 3 19.8754 19.8754 98.3291 0.0000 0.0000 0.0000
# 4 0.0000 0.0000 0.0000 27.6620 0.0000 0.0000
# 5 0.0000 0.0000 0.0000 0.0000 27.6620 0.0000
# 6 8.3645 -8.3645 0.0000 0.0000 0.0000 26.7756
#
#
#
# Elastic Compliance Matrix: (Units=1/GPa)
#
#
# Indices 1 2 3 4 5 6 
#
# 1 0.013946 -0.000435 -0.002731 0.000000 0.000000 -0.004492
# 2 -0.000435 0.013946 -0.002731 0.000000 0.000000 0.004492
# 3 -0.002731 -0.002731 0.011274 0.000000 0.000000 0.000000
# 4 0.000000 0.000000 0.000000 0.036151 0.000000 0.000000
# 5 0.000000 0.000000 0.000000 0.000000 0.036151 0.000000
# 6 -0.004492 0.004492 0.000000 0.000000 0.000000 0.040154
#
#
# Mechanical properties :
#
#
# Convention : Reuss Voigt Hill
#
# Bulk Modulus (GPa) = 36.53378 37.99205 37.26291
# Shear Modulus (GPa) = 28.97910 30.53663 29.75786
#
# Velocity S-wave (km/s) = 3.65358 3.75048 3.70234
# Velocity P-wave (km/s) = 5.88445 6.02122 5.95322
#
# Compressibility (1/GPa) = 0.02737193
#
# Stress axis : x y z
#
# Youngs Moduli (GPa) = 71.70700 71.70700 88.69988
#
# Poissons Ratio (x) = 0.03117 0.24224
# Poissons Ratio (y) = 0.03117 0.24224
# Poissons Ratio (z) = 0.19583 0.19583
#
# Static dielectric constant tensor:
#      x y z
#    x 1.802910 0.000000 0.000000 
#    y 0.000000 1.802910 0.000000 
#    z 0.000000 0.000000 1.776980 
# 
# From -- ./inp_files/5363.got.cif
#   From: 2010.05.17/outbox.cif.g08.bks.cpg/sg87_3_cif.got.tgz:5363.got - 2010.06.03 19:07:00.
