data_PCOD9546971
_publ_section_title
;
Structure prediction by ZEFSAII (Michael W. Deem and Ramdas Pophale) SiO2 
 PCOD9546971
Probable space group: P 4 2 2
;
_chemical_formula_sum "Si O2"
_cell_formula_units_Z 48
_cell_length_a 8.680977
_cell_length_b 8.680977
_cell_length_c 31.693317
_cell_angle_alpha 90.000000
_cell_angle_beta 90.000000
_cell_angle_gamma 90.000000
_cell_volume 2388.388138
_symmetry_space_group_name_H-M "P 4 2 2"
_symmetry_group_IT_number 89
_symmetry_cell_setting 'tetragonal'
loop_
_space_group_symop_operation_xyz
x,y,z
-y,x,z
-x,-y,z
y,-x,z
x,-y,-z
-x,y,-z
y,x,-z
-y,-x,-z
loop_
_atom_site_type_symbol
_atom_site_label
_atom_site_fract_x
_atom_site_fract_y
_atom_site_fract_z
Si Si1 0.554839 0.754580 0.145747
Si Si2 0.754518 0.079464 0.689185
Si Si3 0.500000 0.000000 0.926393
Si Si4 0.149456 0.203803 0.549601
Si Si5 0.080837 0.248507 0.785882
Si Si6 0.406618 0.262751 0.380044
Si Si7 0.000000 0.743903 0.000000
O O1 0.387385 0.675222 0.147932
O O2 0.544803 0.857254 0.103624
O O3 0.618031 0.865678 0.182708
O O4 0.699139 0.098033 0.737315
O O5 0.639662 0.134036 0.653461
O O6 0.906125 0.185950 0.684401
O O7 0.641442 0.980540 0.958338
O O8 0.192964 0.192964 0.500000
O O9 0.215266 0.351612 0.573213
O O10 0.968081 0.204859 0.561880
O O11 0.905575 0.186917 0.791828
O O12 0.582042 0.308073 0.373555
O O13 0.147993 0.852008 0.000000
#
# Coordination Sequence:
#
# PCOD9546971 Si02
#       7
#     8   8   4   8   8   8   4
#     4  11  23  37  56  85 120 157 196 240 293 354
#     4   9  19  37  60  83 107 141 189 240 287 340
#     4  11  22  40  62  86 122 160 196 242 300 363
#     4   9  19  37  60  83 105 133 176 230 285 346
#     4   9  19  37  60  85 114 151 196 246 299 353
#     4  11  24  37  50  76 114 150 184 227 282 344
#     4  10  22  40  64  92 118 152 202 254 298 346
#
# _framework density 20.097235999999999
#
# number of rings (size 3 to 8) (size 9 to 14) (size 15 to 20)
#    0.000    2.083    0.000    4.500    0.000    6.000 
#    0.000    9.167    0.000    4.000    0.000    0.000 
#    0.000    0.000    0.000    0.000    0.000    0.000 
#
# Total GULP energy -267767.831879 kJ/mol
# GULP energy per Si atom -5578.496497 kJ/mol
# Density = 2.005149 g / cm^3
# Si number density = 20.097236 Si / 1000 Ang^3
#
#
#
# Elastic Constant Matrix: (Units=GPa)
#
#
# Indices 1 2 3 4 5 6 
#
# 1 46.9032 36.5916 30.0397 0.0000 0.0000 0.0000
# 2 36.5916 46.9036 30.0397 0.0000 0.0000 0.0000
# 3 30.0397 30.0397 64.7676 0.0000 0.0000 0.0000
# 4 0.0000 0.0000 0.0000 176.8841 0.0000 0.0000
# 5 0.0000 0.0000 0.0000 0.0000 176.8321 0.0000
# 6 0.0000 0.0000 0.0000 0.0000 0.0000 38.0752
#
#
#
# Elastic Compliance Matrix: (Units=1/GPa)
#
#
# Indices 1 2 3 4 5 6 
#
# 1 0.057477 -0.039500 -0.008338 0.000000 0.000000 0.000000
# 2 -0.039500 0.057476 -0.008337 0.000000 0.000000 0.000000
# 3 -0.008338 -0.008337 0.023174 0.000000 0.000000 0.000000
# 4 0.000000 0.000000 0.000000 0.005653 0.000000 0.000000
# 5 0.000000 0.000000 0.000000 0.000000 0.005655 0.000000
# 6 0.000000 0.000000 0.000000 0.000000 0.000000 0.026264
#
#
# Mechanical properties :
#
#
# Convention : Reuss Voigt Hill
#
# Bulk Modulus (GPa) = 38.79565 39.10185 38.94875
# Shear Modulus (GPa) = 16.85541 82.48519 49.67030
#
# Velocity S-wave (km/s) = 2.89916 6.41344 4.97681
# Velocity P-wave (km/s) = 5.52745 8.62215 7.24204
#
# Compressibility (1/GPa) = 0.02577609
#
# Stress axis : x y z
#
# Youngs Moduli (GPa) = 17.39840 17.39860 43.15229
#
# Poissons Ratio (x) = 0.68725 0.35979
# Poissons Ratio (y) = 0.68724 0.35977
# Poissons Ratio (z) = 0.14506 0.14506
#
# Static dielectric constant tensor:
#      x y z
#    x 1.710160 0.000000 0.000000 
#    y 0.000000 1.710160 0.000000 
#    z 0.000000 0.000000 1.698490 
# 
# From -- ./inp_files/3034.got.cif
#   From: 2010.05.17/outbox.cif.g08.bks.cpg/sg89_2_cif.got.tgz:3034.got - 2010.06.03 19:15:31.
