data_PCOD9546486
_publ_section_title
;
Structure prediction by ZEFSAII (Michael W. Deem and Ramdas Pophale) SiO2 
 PCOD9546486
Probable space group: I 41/A
;
_chemical_formula_sum "Si O2"
_cell_formula_units_Z 72
_cell_length_a 13.804548
_cell_length_b 13.804548
_cell_length_c 16.210589
_cell_angle_alpha 90.000000
_cell_angle_beta 90.000000
_cell_angle_gamma 90.000000
_cell_volume 3089.179735
_symmetry_space_group_name_H-M "I 41/A"
_symmetry_group_IT_number 88
_space_group.IT_coordinate_system_code '2'
_symmetry_cell_setting 'tetragonal'
loop_
_space_group_symop_operation_xyz
x,y,z
3/4-y,1/4+x,1/4+z
-x,1/2-y,z
1/4+y,1/4-x,1/4+z
-x,-y,-z
1/4+y,3/4-x,3/4-z
x,1/2+y,-z
3/4-y,3/4+x,3/4-z
1/2+x,1/2+y,1/2+z
1/4-y,3/4+x,3/4+z
1/2-x,-y,1/2+z
3/4+y,3/4-x,3/4+z
1/2-x,1/2-y,1/2-z
3/4+y,1/4-x,1/4-z
1/2+x,y,1/2-z
1/4-y,1/4+x,1/4-z
loop_
_atom_site_type_symbol
_atom_site_label
_atom_site_fract_x
_atom_site_fract_y
_atom_site_fract_z
Si Si1 0.439674 0.916511 0.336330
Si Si2 0.905066 0.875745 0.488773
Si Si3 0.830176 0.865833 0.310627
Si Si4 0.133726 0.707445 0.831768
Si Si5 0.500000 0.750000 0.812397
O O1 0.540509 0.898199 0.287832
O O2 0.364836 0.935834 0.262603
O O3 0.426534 0.814259 0.383688
O O4 0.439673 0.004368 0.401059
O O5 0.851650 0.897407 0.402670
O O6 0.016035 0.861755 0.458887
O O7 0.904729 0.968446 0.547084
O O8 0.067949 0.641136 0.891720
O O9 0.081099 0.697115 0.743625
#
# Coordination Sequence:
#
# PCOD9546486 Si02
#       5
#    16  16  16  16   8
#     4  12  22  41  73  96 135 187 229 295 350 412
#     4  11  24  42  70 104 138 179 230 290 354 417
#     4  11  24  42  70 104 138 179 230 290 354 417
#     4   9  23  43  62  94 141 187 235 289 342 416
#     4  10  21  40  67  98 128 188 236 270 351 410
#
# _framework density 23.307158999999999
#
# number of rings (size 3 to 8) (size 9 to 14) (size 15 to 20)
#    0.000    1.556    4.444    0.667    0.000    8.889 
#    0.000    0.000    0.000    0.000    0.000    0.000 
#    0.000    0.000    0.000    0.000    0.000    0.000 
#
# Total GULP energy -201095.714737 kJ/mol
# GULP energy per Si atom -5585.992076 kJ/mol
# Density = 2.325411 g / cm^3
# Si number density = 23.307159 Si / 1000 Ang^3
#
#
#
# Elastic Constant Matrix: (Units=GPa)
#
#
# Indices 1 2 3 4 5 6 
#
# 1 88.2460 3.0383 26.0903 0.0000 0.0000 -0.3097
# 2 3.0383 88.2461 26.0903 0.0000 0.0000 0.3097
# 3 26.0903 26.0903 134.6478 0.0000 0.0000 0.0000
# 4 0.0000 0.0000 0.0000 25.1346 0.0000 0.0000
# 5 0.0000 0.0000 0.0000 0.0000 25.1345 0.0000
# 6 -0.3097 0.3097 0.0000 0.0000 0.0000 10.8775
#
#
#
# Elastic Compliance Matrix: (Units=1/GPa)
#
#
# Indices 1 2 3 4 5 6 
#
# 1 0.012029 0.000290 -0.002387 0.000000 0.000000 0.000334
# 2 0.000290 0.012029 -0.002387 0.000000 0.000000 -0.000334
# 3 -0.002387 -0.002387 0.008352 0.000000 0.000000 0.000000
# 4 0.000000 0.000000 0.000000 0.039786 0.000000 0.000000
# 5 0.000000 0.000000 0.000000 0.000000 0.039786 0.000000
# 6 0.000334 -0.000334 0.000000 0.000000 0.000000 0.091952
#
#
# Mechanical properties :
#
#
# Convention : Reuss Voigt Hill
#
# Bulk Modulus (GPa) = 42.65820 46.84197 44.75008
# Shear Modulus (GPa) = 22.65371 29.29073 25.97222
#
# Velocity S-wave (km/s) = 3.12102 3.54888 3.34180
# Velocity P-wave (km/s) = 5.59732 6.07734 5.84226
#
# Compressibility (1/GPa) = 0.02344215
#
# Stress axis : x y z
#
# Youngs Moduli (GPa) = 83.13332 83.13333 119.73393
#
# Poissons Ratio (x) = -0.02414 0.28581
# Poissons Ratio (y) = -0.02414 0.28581
# Poissons Ratio (z) = 0.19844 0.19844
#
# Static dielectric constant tensor:
#      x y z
#    x 1.881860 0.000000 0.000000 
#    y 0.000000 1.881860 0.000000 
#    z 0.000000 0.000000 1.925780 
# 
# From -- ./inp_files/3821.got.cif
#   From: 2010.05.17/outbox.cif.g08.bks.cpg/sg88_2_cif.got.tgz:3821.got - 2010.06.03 19:11:41.
