data_PCOD9546886
_publ_section_title
;
Structure prediction by ZEFSAII (Michael W. Deem and Ramdas Pophale) SiO2 
 PCOD9546886
Probable space group: I 41/A
;
_chemical_formula_sum "Si O2"
_cell_formula_units_Z 48
_cell_length_a 18.000000
_cell_length_b 18.000000
_cell_length_c 18.000000
_cell_angle_alpha 90.000000
_cell_angle_beta 90.000000
_cell_angle_gamma 90.000000
_cell_volume 5832.000000
_symmetry_space_group_name_H-M "I 41/A"
_symmetry_group_IT_number 88
_space_group.IT_coordinate_system_code '2'
_symmetry_cell_setting 'tetragonal'
loop_
_space_group_symop_operation_xyz
x,y,z
3/4-y,1/4+x,1/4+z
-x,1/2-y,z
1/4+y,1/4-x,1/4+z
-x,-y,-z
1/4+y,3/4-x,3/4-z
x,1/2+y,-z
3/4-y,3/4+x,3/4-z
1/2+x,1/2+y,1/2+z
1/4-y,3/4+x,3/4+z
1/2-x,-y,1/2+z
3/4+y,3/4-x,3/4+z
1/2-x,1/2-y,1/2-z
3/4+y,1/4-x,1/4-z
1/2+x,y,1/2-z
1/4-y,1/4+x,1/4-z
loop_
_atom_site_type_symbol
_atom_site_label
_atom_site_fract_x
_atom_site_fract_y
_atom_site_fract_z
Si Si1 0.678645 0.104130 0.560153
Si Si2 0.268045 0.039683 0.342908
Si Si3 0.812545 0.725421 0.452372
Si Si4 0.935459 0.310360 0.826927
Si Si5 0.288921 0.892164 0.995962
Si Si6 0.463829 0.422224 0.973630
O O1 0.674338 0.069354 0.474467
O O2 0.748250 0.161752 0.552018
O O3 0.611753 0.150080 0.604431
O O4 0.696267 0.033067 0.614638
O O5 0.240484 0.092962 0.411201
O O6 0.196268 0.008419 0.299238
O O7 0.874393 0.709526 0.517312
O O8 0.782352 0.807099 0.475676
O O9 0.840436 0.726378 0.365547
O O10 0.884980 0.258141 0.774957
O O11 0.000000 0.250000 0.851512
O O12 0.375902 0.915787 0.006916
O O13 0.500000 0.500000 0.000000
#
# Coordination Sequence:
#
# PCOD9546886 Si02
#       6
#    16  16  16  16  16  16
#     4  11  22  42  65  89 126 166 210 266 316 380
#     4  10  22  40  65  91 117 169 219 259 311 378
#     4  12  23  37  59  92 132 163 203 256 326 389
#     4  12  25  39  60  93 130 171 208 259 328 393
#     4  11  22  37  59  90 123 161 215 260 311 388
#     4  12  22  35  59  91 131 167 203 257 332 388
#
# _framework density 8.2304530000000007
#
# number of rings (size 3 to 8) (size 9 to 14) (size 15 to 20)
#    0.000    0.667    6.667    2.000    2.333    0.000 
#    0.000    0.833    3.667    0.000    0.000    0.000 
#    0.000    0.000    0.000    0.000    0.000    0.000 
#
# Total GULP energy -267331.298806 kJ/mol
# GULP energy per Si atom -5569.402058 kJ/mol
# Density = 0.821172 g / cm^3
# Si number density = 8.230453 Si / 1000 Ang^3
#
#
#
# Elastic Constant Matrix: (Units=GPa)
#
#
# Indices 1 2 3 4 5 6 
#
# 1 95.5807 30.8819 47.6339 0.0000 0.0000 -0.7147
# 2 30.8819 95.5807 47.6339 0.0000 0.0000 0.7147
# 3 47.6339 47.6339 158.3919 0.0000 0.0000 0.0000
# 4 0.0000 0.0000 0.0000 40.3603 0.0000 0.0000
# 5 0.0000 0.0000 0.0000 0.0000 40.3603 0.0000
# 6 -0.7147 0.7147 0.0000 0.0000 0.0000 31.8829
#
#
#
# Elastic Compliance Matrix: (Units=1/GPa)
#
#
# Indices 1 2 3 4 5 6 
#
# 1 0.012844 -0.002620 -0.003075 0.000000 0.000000 0.000347
# 2 -0.002620 0.012844 -0.003075 0.000000 0.000000 -0.000347
# 3 -0.003075 -0.003075 0.008163 0.000000 0.000000 0.000000
# 4 0.000000 0.000000 0.000000 0.024777 0.000000 0.000000
# 5 0.000000 0.000000 0.000000 0.000000 0.024777 0.000000
# 6 0.000347 -0.000347 0.000000 0.000000 0.000000 0.031380
#
#
# Mechanical properties :
#
#
# Convention : Reuss Voigt Hill
#
# Bulk Modulus (GPa) = 61.30595 66.87252 64.08924
# Shear Modulus (GPa) = 36.29497 37.41428 36.85463
#
# Velocity S-wave (km/s) = 4.70075 4.77268 4.73685
# Velocity P-wave (km/s) = 8.17233 8.43117 8.30276
#
# Compressibility (1/GPa) = 0.01631163
#
# Stress axis : x y z
#
# Youngs Moduli (GPa) = 77.85867 77.85867 122.50800
#
# Poissons Ratio (x) = 0.20400 0.37666
# Poissons Ratio (y) = 0.20400 0.37666
# Poissons Ratio (z) = 0.23938 0.23938
#
# Static dielectric constant tensor:
#      x y z
#    x 1.586420 0.000000 0.000000 
#    y 0.000000 1.586420 0.000000 
#    z 0.000000 0.000000 1.557790 
# 
# From -- ./inp_files/3937.got.cif
#   From: 2010.05.17/outbox.ucp.g08.bks.cvg/sg88_2_cif.got.tgz:3937.got - 2010.06.11 10:35:41.
