data_PCOD9546173
_publ_section_title
;
Structure prediction by ZEFSAII (Michael W. Deem and Ramdas Pophale) SiO2 
 PCOD9546173
Probable space group: I 4/M
;
_chemical_formula_sum "Si O2"
_cell_formula_units_Z 72
_cell_length_a 22.923750
_cell_length_b 22.923750
_cell_length_c 5.742503
_cell_angle_alpha 90.000000
_cell_angle_beta 90.000000
_cell_angle_gamma 90.000000
_cell_volume 3017.675645
_symmetry_space_group_name_H-M "I 4/M"
_symmetry_group_IT_number 87
_symmetry_cell_setting 'tetragonal'
loop_
_space_group_symop_operation_xyz
x,y,z
-y,x,z
-x,-y,z
y,-x,z
-x,-y,-z
y,-x,-z
x,y,-z
-y,x,-z
1/2+x,1/2+y,1/2+z
1/2-y,1/2+x,1/2+z
1/2-x,1/2-y,1/2+z
1/2+y,1/2-x,1/2+z
1/2-x,1/2-y,1/2-z
1/2+y,1/2-x,1/2-z
1/2+x,1/2+y,1/2-z
1/2-y,1/2+x,1/2-z
loop_
_atom_site_type_symbol
_atom_site_label
_atom_site_fract_x
_atom_site_fract_y
_atom_site_fract_z
Si Si1 0.307046 0.960899 0.749663
Si Si2 0.711084 0.808290 0.250144
Si Si3 0.683168 0.393568 0.748627
Si Si4 0.537057 0.590722 0.500000
Si Si5 0.068656 0.774458 0.749010
O O1 0.337197 0.950971 0.500000
O O2 0.281954 0.026804 0.748897
O O3 0.245777 0.924982 0.749538
O O4 0.336928 0.951215 0.000000
O O5 0.678980 0.809378 0.500000
O O6 0.750000 0.750000 0.250000
O O7 0.750925 0.865670 0.250751
O O8 0.679048 0.808820 0.000000
O O9 0.680236 0.360126 0.500000
O O10 0.631905 0.441143 0.713126
O O11 0.676483 0.364254 0.000000
O O12 0.470011 0.572253 0.500000
O O13 0.057380 0.805203 0.500000
O O14 0.057354 0.804141 0.000000
#
# Coordination Sequence:
#
# PCOD9546173 Si02
#       5
#    16  16  16   8  16
#     4   8  12  19  29  38  46  54  65  79  92 104
#     4   8  12  16  20  27  40  55  68  80  92 104
#     4   8  15  25  34  42  50  58  66  77  91 104
#     4   9  18  28  36  44  52  60  68  76  90 116
#     4   8  12  16  23  33  42  53  67  80  92 104
#
# _framework density 23.859424000000001
#
# number of rings (size 3 to 8) (size 9 to 14) (size 15 to 20)
#    0.667    3.222    0.000    0.000    0.000    0.889 
#    0.000    1.111    0.000    0.000    0.000    0.000 
#    0.000    0.000    0.000    0.000    0.000    0.000 
#
# Total GULP energy -200483.933685 kJ/mol
# GULP energy per Si atom -5568.998158 kJ/mol
# Density = 2.380512 g / cm^3
# Si number density = 23.859424 Si / 1000 Ang^3
#
#
#
# Elastic Constant Matrix: (Units=GPa)
#
#
# Indices 1 2 3 4 5 6 
#
# 1 62.8006 3.7242 22.0394 0.0000 0.0000 -1.0900
# 2 3.7242 62.8006 22.0394 0.0000 0.0000 1.0900
# 3 22.0394 22.0394 337.2882 0.0000 0.0000 0.0000
# 4 0.0000 0.0000 0.0000 -4.9880 0.0000 0.0000
# 5 0.0000 0.0000 0.0000 0.0000 -4.9880 0.0000
# 6 -1.0900 1.0900 0.0000 0.0000 0.0000 21.3038
#
#
#
# Elastic Compliance Matrix: (Units=1/GPa)
#
#
# Indices 1 2 3 4 5 6 
#
# 1 0.016336 -0.000623 -0.001027 0.000000 0.000000 0.000868
# 2 -0.000623 0.016336 -0.001027 0.000000 0.000000 -0.000868
# 3 -0.001027 -0.001027 0.003099 0.000000 0.000000 0.000000
# 4 0.000000 0.000000 0.000000 -0.200480 0.000000 0.000000
# 5 0.000000 0.000000 0.000000 0.000000 -0.200480 0.000000
# 6 0.000868 -0.000868 0.000000 0.000000 0.000000 0.047029
#
#
# Mechanical properties :
#
#
# Convention : Reuss Voigt Hill
#
# Bulk Modulus (GPa) = 32.87658 62.05503 47.46580
# Shear Modulus (GPa) = -16.51975 29.93797 6.70911
#
# Velocity S-wave (km/s) = -2.63416 3.54611 1.67870
# Velocity P-wave (km/s) = 2.13482 6.54458 4.86770
#
# Compressibility (1/GPa) = 0.03041679
#
# Stress axis : x y z
#
# Youngs Moduli (GPa) = 61.21538 61.21538 322.68516
#
# Poissons Ratio (x) = 0.03817 0.33130
# Poissons Ratio (y) = 0.03817 0.33130
# Poissons Ratio (z) = 0.06285 0.06285
#
# Static dielectric constant tensor:
#      x y z
#    x 1.871590 0.000000 0.000000 
#    y 0.000000 1.871590 0.000000 
#    z 0.000000 0.000000 2.062660 
# 
# From -- ./inp_files/246.got.cif
#   From: 2010.05.17/outbox.cif.g08.bks.cpg/sg87_1_cif.got.tgz:246.got - 2010.06.03 19:07:00.
