data_PCOD9546397
_publ_section_title
;
Structure prediction by ZEFSAII (Michael W. Deem and Ramdas Pophale) SiO2 
 PCOD9546397
Probable space group: I 41/A
;
_chemical_formula_sum "Si O2"
_cell_formula_units_Z 64
_cell_length_a 14.904562
_cell_length_b 14.904562
_cell_length_c 14.274211
_cell_angle_alpha 90.000000
_cell_angle_beta 90.000000
_cell_angle_gamma 90.000000
_cell_volume 3170.958426
_symmetry_space_group_name_H-M "I 41/A"
_symmetry_group_IT_number 88
_space_group.IT_coordinate_system_code '2'
_symmetry_cell_setting 'tetragonal'
loop_
_space_group_symop_operation_xyz
x,y,z
3/4-y,1/4+x,1/4+z
-x,1/2-y,z
1/4+y,1/4-x,1/4+z
-x,-y,-z
1/4+y,3/4-x,3/4-z
x,1/2+y,-z
3/4-y,3/4+x,3/4-z
1/2+x,1/2+y,1/2+z
1/4-y,3/4+x,3/4+z
1/2-x,-y,1/2+z
3/4+y,3/4-x,3/4+z
1/2-x,1/2-y,1/2-z
3/4+y,1/4-x,1/4-z
1/2+x,y,1/2-z
1/4-y,1/4+x,1/4-z
loop_
_atom_site_type_symbol
_atom_site_label
_atom_site_fract_x
_atom_site_fract_y
_atom_site_fract_z
Si Si1 0.063908 0.334374 0.405386
Si Si2 0.282158 0.790593 0.846973
Si Si3 0.952966 0.610254 0.397930
Si Si4 0.318437 0.681026 0.469059
O O1 0.159900 0.289388 0.393613
O O2 0.060356 0.402983 0.491210
O O3 0.000000 0.250000 0.431806
O O4 0.021112 0.378775 0.313231
O O5 0.250000 0.750000 0.750000
O O6 0.349759 0.870898 0.819344
O O7 0.206310 0.819773 0.921196
O O8 0.890959 0.694982 0.370586
O O9 0.929609 0.525121 0.336284
#
# Coordination Sequence:
#
# PCOD9546397 Si02
#       4
#    16  16  16  16
#     4  10  20  40  68  95 127 177 217 262 340 407
#     4  11  26  47  65  95 135 178 226 278 336 401
#     4  11  18  38  71  99 136 167 212 282 344 402
#     4  11  24  44  67 100 130 174 230 273 336 410
#
# _framework density 20.183171999999999
#
# number of rings (size 3 to 8) (size 9 to 14) (size 15 to 20)
#    0.000    1.250    5.000    2.250    3.500    0.000 
#    9.000    0.000    0.000    0.000    0.000    0.000 
#    0.000    0.000    0.000    0.000    0.000    0.000 
#
# Total GULP energy -178770.111428 kJ/mol
# GULP energy per Si atom -5586.565982 kJ/mol
# Density = 2.013723 g / cm^3
# Si number density = 20.183172 Si / 1000 Ang^3
#
#
#
# Elastic Constant Matrix: (Units=GPa)
#
#
# Indices 1 2 3 4 5 6 
#
# 1 68.2729 26.7799 26.8299 0.0000 0.0000 -4.2982
# 2 26.7799 68.2729 26.8299 0.0000 0.0000 4.2982
# 3 26.8299 26.8299 130.6041 0.0000 0.0000 0.0000
# 4 0.0000 0.0000 0.0000 25.9370 0.0000 0.0000
# 5 0.0000 0.0000 0.0000 0.0000 25.9370 0.0000
# 6 -4.2982 4.2982 0.0000 0.0000 0.0000 18.5454
#
#
#
# Elastic Compliance Matrix: (Units=1/GPa)
#
#
# Indices 1 2 3 4 5 6 
#
# 1 0.018608 -0.006708 -0.002445 0.000000 0.000000 0.005867
# 2 -0.006708 0.018608 -0.002445 0.000000 0.000000 -0.005867
# 3 -0.002445 -0.002445 0.008661 0.000000 0.000000 0.000000
# 4 0.000000 0.000000 0.000000 0.038555 0.000000 0.000000
# 5 0.000000 0.000000 0.000000 0.000000 0.038555 0.000000
# 6 0.005867 -0.005867 0.000000 0.000000 0.000000 0.056641
#
#
# Mechanical properties :
#
#
# Convention : Reuss Voigt Hill
#
# Bulk Modulus (GPa) = 44.08506 47.55881 45.82194
# Shear Modulus (GPa) = 23.76600 26.53123 25.14861
#
# Velocity S-wave (km/s) = 3.43522 3.62957 3.53373
# Velocity P-wave (km/s) = 6.13386 6.41715 6.27710
#
# Compressibility (1/GPa) = 0.02268342
#
# Stress axis : x y z
#
# Youngs Moduli (GPa) = 53.73947 53.73947 115.45792
#
# Poissons Ratio (x) = 0.36047 0.28226
# Poissons Ratio (y) = 0.36047 0.28226
# Poissons Ratio (z) = 0.13138 0.13138
#
# Static dielectric constant tensor:
#      x y z
#    x 1.711260 0.000000 0.000000 
#    y 0.000000 1.711260 0.000000 
#    z 0.000000 0.000000 1.769600 
# 
# From -- ./inp_files/3062.got.cif
#   From: 2010.05.17/outbox.cif.g08.bks.cpg/sg88_2_cif.got.tgz:3062.got - 2010.06.03 19:11:41.
