data_PCOD9546558
_publ_section_title
;
Structure prediction by ZEFSAII (Michael W. Deem and Ramdas Pophale) SiO2 
 PCOD9546558
Probable space group: I 41/A
;
_chemical_formula_sum "Si O2"
_cell_formula_units_Z 96
_cell_length_a 21.823213
_cell_length_b 21.823213
_cell_length_c 8.871380
_cell_angle_alpha 90.000000
_cell_angle_beta 90.000000
_cell_angle_gamma 90.000000
_cell_volume 4225.018018
_symmetry_space_group_name_H-M "I 41/A"
_symmetry_group_IT_number 88
_space_group.IT_coordinate_system_code '2'
_symmetry_cell_setting 'tetragonal'
loop_
_space_group_symop_operation_xyz
x,y,z
3/4-y,1/4+x,1/4+z
-x,1/2-y,z
1/4+y,1/4-x,1/4+z
-x,-y,-z
1/4+y,3/4-x,3/4-z
x,1/2+y,-z
3/4-y,3/4+x,3/4-z
1/2+x,1/2+y,1/2+z
1/4-y,3/4+x,3/4+z
1/2-x,-y,1/2+z
3/4+y,3/4-x,3/4+z
1/2-x,1/2-y,1/2-z
3/4+y,1/4-x,1/4-z
1/2+x,y,1/2-z
1/4-y,1/4+x,1/4-z
loop_
_atom_site_type_symbol
_atom_site_label
_atom_site_fract_x
_atom_site_fract_y
_atom_site_fract_z
Si Si1 0.153249 0.856270 0.114881
Si Si2 0.204407 0.168199 0.200400
Si Si3 0.946991 0.666490 0.371489
Si Si4 0.900856 0.595555 0.638238
Si Si5 0.320632 0.508953 0.034387
Si Si6 0.451517 0.411739 0.439445
O O1 0.102383 0.849829 0.243459
O O2 0.220724 0.867726 0.179661
O O3 0.138489 0.918291 0.020293
O O4 0.150996 0.803592 0.989502
O O5 0.270954 0.175379 0.270891
O O6 0.164595 0.228566 0.240482
O O7 0.203163 0.167074 0.018603
O O8 0.925625 0.733355 0.432321
O O9 0.944917 0.615420 0.502404
O O10 0.840317 0.568875 0.558198
O O11 0.886059 0.657844 0.728370
O O12 0.279603 0.465175 0.931632
#
# Coordination Sequence:
#
# PCOD9546558 Si02
#       6
#    16  16  16  16  16  16
#     4  11  23  42  63  95 130 168 219 271 327 396
#     4  10  22  40  64  91 125 167 213 268 325 391
#     4  11  24  44  68  96 134 176 222 278 338 401
#     4  11  23  42  63  95 130 168 219 271 327 396
#     4  12  26  40  65  92 133 176 212 266 324 396
#     4  10  22  40  64  91 125 167 213 268 325 391
#
# _framework density 22.721796999999999
#
# number of rings (size 3 to 8) (size 9 to 14) (size 15 to 20)
#    0.000    1.167    1.667    4.000    7.000    0.000 
#    0.000    1.667    0.000    8.000    0.000    0.000 
#    0.000    0.000    0.000    0.000    0.000    0.000 
#
# Total GULP energy -268315.198596 kJ/mol
# GULP energy per Si atom -5589.899971 kJ/mol
# Density = 2.267008 g / cm^3
# Si number density = 22.721797 Si / 1000 Ang^3
#
#
#
# Elastic Constant Matrix: (Units=GPa)
#
#
# Indices 1 2 3 4 5 6 
#
# 1 37.6249 -11.4674 13.7107 0.0000 0.0000 6.2768
# 2 -11.4674 37.6249 13.7107 0.0000 0.0000 -6.2768
# 3 13.7107 13.7107 100.4943 0.0000 0.0000 0.0000
# 4 0.0000 0.0000 0.0000 33.3877 0.0000 0.0000
# 5 0.0000 0.0000 0.0000 0.0000 33.3877 0.0000
# 6 6.2768 -6.2768 0.0000 0.0000 0.0000 30.6331
#
#
#
# Elastic Compliance Matrix: (Units=1/GPa)
#
#
# Indices 1 2 3 4 5 6 
#
# 1 0.033053 0.011557 -0.006086 0.000000 0.000000 -0.004405
# 2 0.011557 0.033053 -0.006086 0.000000 0.000000 0.004405
# 3 -0.006086 -0.006086 0.011612 0.000000 0.000000 0.000000
# 4 0.000000 0.000000 0.000000 0.029951 0.000000 0.000000
# 5 0.000000 0.000000 0.000000 0.000000 0.029951 0.000000
# 6 -0.004405 0.004405 0.000000 0.000000 0.000000 0.034449
#
#
# Mechanical properties :
#
#
# Convention : Reuss Voigt Hill
#
# Bulk Modulus (GPa) = 13.07407 23.07243 18.07325
# Shear Modulus (GPa) = 25.15136 30.13440 27.64288
#
# Velocity S-wave (km/s) = 3.33066 3.64570 3.49173
# Velocity P-wave (km/s) = 4.53404 5.28184 4.92216
#
# Compressibility (1/GPa) = 0.07648725
#
# Stress axis : x y z
#
# Youngs Moduli (GPa) = 30.25418 30.25418 86.12109
#
# Poissons Ratio (x) = -0.34965 0.52416
# Poissons Ratio (y) = -0.34965 0.52416
# Poissons Ratio (z) = 0.18414 0.18414
#
# Static dielectric constant tensor:
#      x y z
#    x 1.811180 0.000000 0.000000 
#    y 0.000000 1.811180 0.000000 
#    z 0.000000 0.000000 1.848050 
# 
# From -- ./inp_files/1706.got.cif
#   From: 2010.05.17/outbox.cif.g08.bks.cpg/sg88_1_cif.got.tgz:1706.got - 2010.06.03 19:11:41.
