data_PCOD9546455
_publ_section_title
;
Structure prediction by ZEFSAII (Michael W. Deem and Ramdas Pophale) SiO2 
 PCOD9546455
Probable space group: I 41/A
;
_chemical_formula_sum "Si O2"
_cell_formula_units_Z 88
_cell_length_a 16.258176
_cell_length_b 16.258176
_cell_length_c 16.775229
_cell_angle_alpha 90.000000
_cell_angle_beta 90.000000
_cell_angle_gamma 90.000000
_cell_volume 4434.167543
_symmetry_space_group_name_H-M "I 41/A"
_symmetry_group_IT_number 88
_space_group.IT_coordinate_system_code '2'
_symmetry_cell_setting 'tetragonal'
loop_
_space_group_symop_operation_xyz
x,y,z
3/4-y,1/4+x,1/4+z
-x,1/2-y,z
1/4+y,1/4-x,1/4+z
-x,-y,-z
1/4+y,3/4-x,3/4-z
x,1/2+y,-z
3/4-y,3/4+x,3/4-z
1/2+x,1/2+y,1/2+z
1/4-y,3/4+x,3/4+z
1/2-x,-y,1/2+z
3/4+y,3/4-x,3/4+z
1/2-x,1/2-y,1/2-z
3/4+y,1/4-x,1/4-z
1/2+x,y,1/2-z
1/4-y,1/4+x,1/4-z
loop_
_atom_site_type_symbol
_atom_site_label
_atom_site_fract_x
_atom_site_fract_y
_atom_site_fract_z
Si Si1 0.490009 0.952144 0.628028
Si Si2 0.102775 0.663235 0.999620
Si Si3 0.357802 0.362286 0.057610
Si Si4 0.239064 0.418284 0.322010
Si Si5 0.500000 0.750000 0.363866
Si Si6 0.825980 0.995649 0.678781
O O1 0.511536 0.893738 0.702641
O O2 0.451368 0.892921 0.560705
O O3 0.433054 0.029630 0.649898
O O4 0.577458 0.989396 0.601499
O O5 0.169915 0.599708 0.031408
O O6 0.053607 0.695380 0.075300
O O7 0.437435 0.305317 0.063268
O O8 0.373151 0.444258 0.110964
O O9 0.325888 0.383962 0.968928
O O10 0.306984 0.439456 0.255691
O O11 0.238462 0.487395 0.389192
#
# Coordination Sequence:
#
# PCOD9546455 Si02
#       6
#    16  16  16  16   8  16
#     4  12  21  37  61  88 134 162 205 260 326 393
#     4  12  22  36  58  94 126 169 196 252 333 387
#     4  11  22  40  61  92 124 168 211 265 317 374
#     4  11  19  36  58  88 119 167 210 257 301 377
#     4  12  24  35  56  90 137 154 206 270 326 360
#     4  10  21  38  62  85 121 168 220 246 305 391
#
# _framework density 19.845891000000002
#
# number of rings (size 3 to 8) (size 9 to 14) (size 15 to 20)
#    0.000    0.727    5.455    4.909    0.000    0.000 
#    0.000    0.909    0.000    0.000    0.000    5.091 
#    0.000    0.000    0.000    0.000    0.000    0.000 
#
# Total GULP energy -245817.981572 kJ/mol
# GULP energy per Si atom -5586.772308 kJ/mol
# Density = 1.980072 g / cm^3
# Si number density = 19.845891 Si / 1000 Ang^3
#
#
#
# Elastic Constant Matrix: (Units=GPa)
#
#
# Indices 1 2 3 4 5 6 
#
# 1 84.7927 38.6505 41.7799 0.0000 0.0000 -6.7859
# 2 38.6505 84.7927 41.7799 0.0000 0.0000 6.7859
# 3 41.7799 41.7799 71.5855 0.0000 0.0000 0.0000
# 4 0.0000 0.0000 0.0000 22.6869 0.0000 0.0000
# 5 0.0000 0.0000 0.0000 0.0000 22.6869 0.0000
# 6 -6.7859 6.7859 0.0000 0.0000 0.0000 34.0657
#
#
#
# Elastic Compliance Matrix: (Units=1/GPa)
#
#
# Indices 1 2 3 4 5 6 
#
# 1 0.018206 -0.004815 -0.007816 0.000000 0.000000 0.004586
# 2 -0.004815 0.018206 -0.007816 0.000000 0.000000 -0.004586
# 3 -0.007816 -0.007816 0.023092 0.000000 0.000000 0.000000
# 4 0.000000 0.000000 0.000000 0.044078 0.000000 0.000000
# 5 0.000000 0.000000 0.000000 0.000000 0.044078 0.000000
# 6 0.004586 -0.004586 0.000000 0.000000 0.000000 0.031182
#
#
# Mechanical properties :
#
#
# Convention : Reuss Voigt Hill
#
# Bulk Modulus (GPa) = 53.72778 53.95463 53.84120
# Shear Modulus (GPa) = 22.12977 23.81861 22.97419
#
# Velocity S-wave (km/s) = 3.34290 3.46812 3.40609
# Velocity P-wave (km/s) = 6.48315 6.57898 6.53124
#
# Compressibility (1/GPa) = 0.01861234
#
# Stress axis : x y z
#
# Youngs Moduli (GPa) = 54.92632 54.92632 43.30423
#
# Poissons Ratio (x) = 0.26446 0.33845
# Poissons Ratio (y) = 0.26446 0.33845
# Poissons Ratio (z) = 0.42929 0.42929
#
# Static dielectric constant tensor:
#      x y z
#    x 1.733660 0.000000 0.000000 
#    y 0.000000 1.733660 0.000000 
#    z 0.000000 0.000000 1.719610 
# 
# From -- ./inp_files/3214.got.cif
#   From: 2010.05.17/outbox.cif.g08.bks.cpg/sg88_2_cif.got.tgz:3214.got - 2010.06.03 19:11:41.
