data_PCOD9546102
_publ_section_title
;
Structure prediction by ZEFSAII (Michael W. Deem and Ramdas Pophale) SiO2 
 PCOD9546102
Probable space group: I 4/M
;
_chemical_formula_sum "Si O2"
_cell_formula_units_Z 40
_cell_length_a 8.743599
_cell_length_b 8.743599
_cell_length_c 24.141509
_cell_angle_alpha 90.000000
_cell_angle_beta 90.000000
_cell_angle_gamma 90.000000
_cell_volume 1845.631000
_symmetry_space_group_name_H-M "I 4/M"
_symmetry_group_IT_number 87
_symmetry_cell_setting 'tetragonal'
loop_
_space_group_symop_operation_xyz
x,y,z
-y,x,z
-x,-y,z
y,-x,z
-x,-y,-z
y,-x,-z
x,y,-z
-y,x,-z
1/2+x,1/2+y,1/2+z
1/2-y,1/2+x,1/2+z
1/2-x,1/2-y,1/2+z
1/2+y,1/2-x,1/2+z
1/2-x,1/2-y,1/2-z
1/2+y,1/2-x,1/2-z
1/2+x,1/2+y,1/2-z
1/2-y,1/2+x,1/2-z
loop_
_atom_site_type_symbol
_atom_site_label
_atom_site_fract_x
_atom_site_fract_y
_atom_site_fract_z
Si Si1 0.697799 0.336562 0.500000
Si Si2 0.163867 0.802206 0.388772
Si Si3 0.372352 0.892383 0.208432
O O1 0.707852 0.519582 0.500000
O O2 0.775293 0.270106 0.445079
O O3 0.217750 0.706559 0.335063
O O4 0.979776 0.794193 0.386732
O O5 0.484483 0.795186 0.249867
O O6 0.500000 0.000000 0.178425
#
# Coordination Sequence:
#
# PCOD9546102 Si02
#       3
#     8  16  16
#     4  11  28  45  64  90 121 164 214 259 318 384
#     4  11  23  39  65  99 128 162 210 259 313 369
#     4   6  17  36  58  90 121 171 204 244 297 361
#
# _framework density 21.672803999999999
#
# number of rings (size 3 to 8) (size 9 to 14) (size 15 to 20)
#    2.400    0.600    0.000    1.200    5.600    4.800 
#    0.000    0.000    0.000    4.800    0.000    0.000 
#    0.000    0.000    0.000    0.000    0.000    0.000 
#
# Total GULP energy -111337.005904 kJ/mol
# GULP energy per Si atom -5566.850295 kJ/mol
# Density = 2.162348 g / cm^3
# Si number density = 21.672804 Si / 1000 Ang^3
#
#
#
# Elastic Constant Matrix: (Units=GPa)
#
#
# Indices 1 2 3 4 5 6 
#
# 1 37.0145 17.5048 41.1529 0.0000 0.0000 -7.9949
# 2 17.5048 37.0145 41.1529 0.0000 0.0000 7.9949
# 3 41.1529 41.1529 148.2844 0.0000 0.0000 0.0000
# 4 0.0000 0.0000 0.0000 -9.2365 0.0000 0.0000
# 5 0.0000 0.0000 0.0000 0.0000 -9.2365 0.0000
# 6 -7.9949 7.9949 0.0000 0.0000 0.0000 25.6049
#
#
#
# Elastic Compliance Matrix: (Units=1/GPa)
#
#
# Indices 1 2 3 4 5 6 
#
# 1 0.050226 -0.018658 -0.008761 0.000000 0.000000 0.021508
# 2 -0.018658 0.050226 -0.008761 0.000000 0.000000 -0.021508
# 3 -0.008761 -0.008761 0.011607 0.000000 0.000000 0.000000
# 4 0.000000 0.000000 0.000000 -0.108266 0.000000 0.000000
# 5 0.000000 0.000000 0.000000 0.000000 -0.108266 0.000000
# 6 0.021508 -0.021508 0.000000 0.000000 0.000000 0.052486
#
#
# Mechanical properties :
#
#
# Convention : Reuss Voigt Hill
#
# Bulk Modulus (GPa) = 25.18945 46.88161 36.03553
# Shear Modulus (GPa) = 148.77773 9.59323 79.18548
#
# Velocity S-wave (km/s) = 8.29435 2.10618 6.05113
# Velocity P-wave (km/s) = 10.16741 5.25292 8.09226
#
# Compressibility (1/GPa) = 0.03969915
#
# Stress axis : x y z
#
# Youngs Moduli (GPa) = 19.90993 19.90993 86.15747
#
# Poissons Ratio (x) = 0.37148 0.75483
# Poissons Ratio (y) = 0.37148 0.75483
# Poissons Ratio (z) = 0.17443 0.17443
#
# Static dielectric constant tensor:
#      x y z
#    x 1.796370 0.000000 0.000000 
#    y 0.000000 1.796370 0.000000 
#    z 0.000000 0.000000 1.791590 
# 
# From -- ./inp_files/5585.got.cif
#   From: 2010.05.17/outbox.cif.g08.bks.cpg/sg87_3_cif.got.tgz:5585.got - 2010.06.03 19:07:00.
