data_PCOD9546172
_publ_section_title
;
Structure prediction by ZEFSAII (Michael W. Deem and Ramdas Pophale) SiO2 
 PCOD9546172
Probable space group: I 4/M
;
_chemical_formula_sum "Si O2"
_cell_formula_units_Z 72
_cell_length_a 11.065743
_cell_length_b 11.065743
_cell_length_c 24.698088
_cell_angle_alpha 90.000000
_cell_angle_beta 90.000000
_cell_angle_gamma 90.000000
_cell_volume 3024.297377
_symmetry_space_group_name_H-M "I 4/M"
_symmetry_group_IT_number 87
_symmetry_cell_setting 'tetragonal'
loop_
_space_group_symop_operation_xyz
x,y,z
-y,x,z
-x,-y,z
y,-x,z
-x,-y,-z
y,-x,-z
x,y,-z
-y,x,-z
1/2+x,1/2+y,1/2+z
1/2-y,1/2+x,1/2+z
1/2-x,1/2-y,1/2+z
1/2+y,1/2-x,1/2+z
1/2-x,1/2-y,1/2-z
1/2+y,1/2-x,1/2-z
1/2+x,1/2+y,1/2-z
1/2-y,1/2+x,1/2-z
loop_
_atom_site_type_symbol
_atom_site_label
_atom_site_fract_x
_atom_site_fract_y
_atom_site_fract_z
Si Si1 0.190881 0.923032 0.936743
Si Si2 0.169327 0.593193 0.677125
Si Si3 0.156296 0.870842 0.388052
Si Si4 0.337025 0.625277 0.000000
Si Si5 0.893857 0.679356 0.703563
O O1 0.150949 0.064793 0.932062
O O2 0.277577 0.895346 0.884234
O O3 0.237346 0.909312 0.000000
O O4 0.161849 0.448257 0.687056
O O5 0.228609 0.621621 0.735735
O O6 0.034558 0.649636 0.687384
O O7 0.217197 0.831741 0.444072
O O8 0.222831 0.833373 0.334966
O O9 0.016373 0.840055 0.388425
O O10 0.338924 0.478929 0.000000
#
# Coordination Sequence:
#
# PCOD9546172 Si02
#       5
#    16  16  16   8  16
#     4   9  19  37  58  78 103 136 176 222 264 304
#     4   9  19  37  54  71 102 138 172 212 263 310
#     4   9  17  30  48  72 102 133 165 200 245 304
#     4   7  12  26  44  61  92 130 152 183 236 287
#     4   9  19  35  53  74 103 137 170 212 258 307
#
# _framework density 23.807183999999999
#
# number of rings (size 3 to 8) (size 9 to 14) (size 15 to 20)
#    0.000    3.222    0.000    3.333    0.000    3.556 
#    4.000    7.778    0.000    0.000    0.000    0.000 
#    0.000    0.000    0.000    0.000    0.000    0.000 
#
# Total GULP energy -200496.607550 kJ/mol
# GULP energy per Si atom -5569.350210 kJ/mol
# Density = 2.375300 g / cm^3
# Si number density = 23.807184 Si / 1000 Ang^3
#
#
#
# Elastic Constant Matrix: (Units=GPa)
#
#
# Indices 1 2 3 4 5 6 
#
# 1 72.1204 -5.2870 70.4557 0.0000 0.0000 1.5932
# 2 -5.2870 72.1204 70.4557 0.0000 0.0000 -1.5932
# 3 70.4557 70.4557 320.3798 0.0000 0.0000 0.0000
# 4 0.0000 0.0000 0.0000 47.9925 0.0000 0.0000
# 5 0.0000 0.0000 0.0000 0.0000 47.9925 0.0000
# 6 1.5932 -1.5932 0.0000 0.0000 0.0000 19.2820
#
#
#
# Elastic Compliance Matrix: (Units=1/GPa)
#
#
# Indices 1 2 3 4 5 6 
#
# 1 0.020430 0.007468 -0.006135 0.000000 0.000000 -0.001071
# 2 0.007468 0.020430 -0.006135 0.000000 0.000000 0.001071
# 3 -0.006135 -0.006135 0.005820 0.000000 0.000000 0.000000
# 4 0.000000 0.000000 0.000000 0.020837 0.000000 0.000000
# 5 0.000000 0.000000 0.000000 0.000000 0.020837 0.000000
# 6 -0.001071 0.001071 0.000000 0.000000 0.000000 0.052039
#
#
# Mechanical properties :
#
#
# Convention : Reuss Voigt Hill
#
# Bulk Modulus (GPa) = 26.97244 81.76326 54.36785
# Shear Modulus (GPa) = 30.79657 44.98650 37.89153
#
# Velocity S-wave (km/s) = 3.60054 4.35169 3.99382
# Velocity P-wave (km/s) = 5.35157 7.72451 6.64483
#
# Compressibility (1/GPa) = 0.03707488
#
# Stress axis : x y z
#
# Youngs Moduli (GPa) = 48.94701 48.94701 171.83113
#
# Poissons Ratio (x) = -0.36551 1.05420
# Poissons Ratio (y) = -0.36551 1.05420
# Poissons Ratio (z) = 0.30029 0.30029
#
# Static dielectric constant tensor:
#      x y z
#    x 1.934810 0.000000 0.000000 
#    y 0.000000 1.934810 0.000000 
#    z 0.000000 0.000000 1.986910 
# 
# From -- ./inp_files/4242.got.cif
#   From: 2010.05.17/outbox.cif.g08.bks.cpg/sg87_3_cif.got.tgz:4242.got - 2010.06.03 19:07:00.
