data_PCOD9546587
_publ_section_title
;
Structure prediction by ZEFSAII (Michael W. Deem and Ramdas Pophale) SiO2 
 PCOD9546587
Probable space group: I 41/A
;
_chemical_formula_sum "Si O2"
_cell_formula_units_Z 48
_cell_length_a 11.740155
_cell_length_b 11.740155
_cell_length_c 15.112590
_cell_angle_alpha 90.000000
_cell_angle_beta 90.000000
_cell_angle_gamma 90.000000
_cell_volume 2082.987011
_symmetry_space_group_name_H-M "I 41/A"
_symmetry_group_IT_number 88
_space_group.IT_coordinate_system_code '2'
_symmetry_cell_setting 'tetragonal'
loop_
_space_group_symop_operation_xyz
x,y,z
3/4-y,1/4+x,1/4+z
-x,1/2-y,z
1/4+y,1/4-x,1/4+z
-x,-y,-z
1/4+y,3/4-x,3/4-z
x,1/2+y,-z
3/4-y,3/4+x,3/4-z
1/2+x,1/2+y,1/2+z
1/4-y,3/4+x,3/4+z
1/2-x,-y,1/2+z
3/4+y,3/4-x,3/4+z
1/2-x,1/2-y,1/2-z
3/4+y,1/4-x,1/4-z
1/2+x,y,1/2-z
1/4-y,1/4+x,1/4-z
loop_
_atom_site_type_symbol
_atom_site_label
_atom_site_fract_x
_atom_site_fract_y
_atom_site_fract_z
Si Si1 0.606433 0.166806 0.669931
Si Si2 0.328042 0.758512 0.145347
Si Si3 0.477120 0.065171 0.403277
O O1 0.500000 0.250000 0.663521
O O2 0.669683 0.169636 0.764637
O O3 0.707531 0.218824 0.610336
O O4 0.566610 0.041716 0.651480
O O5 0.400328 0.841241 0.082889
O O6 0.377840 0.161990 0.390226
O O7 0.500000 0.000000 0.500000
#
# Coordination Sequence:
#
# PCOD9546587 Si02
#       3
#    16  16  16
#     4  11  25  40  74 106 142 200 256 319 398 482
#     4  10  22  43  66 105 148 180 248 329 399 452
#     4  11  30  53  79 114 163 217 271 331 412 497
#
# _framework density 23.043831000000001
#
# number of rings (size 3 to 8) (size 9 to 14) (size 15 to 20)
#    0.000    1.333    3.333    0.000   14.000    2.667 
#    0.000    0.000    0.000    0.000    0.000    0.000 
#    0.000    0.000    0.000    0.000    0.000    0.000 
#
# Total GULP energy -133676.333961 kJ/mol
# GULP energy per Si atom -5569.847248 kJ/mol
# Density = 2.299138 g / cm^3
# Si number density = 23.043831 Si / 1000 Ang^3
#
#
#
# Elastic Constant Matrix: (Units=GPa)
#
#
# Indices 1 2 3 4 5 6 
#
# 1 200.7773 106.0553 45.6100 0.0000 0.0000 -3.5874
# 2 106.0553 200.7773 45.6100 0.0000 0.0000 3.5874
# 3 45.6100 45.6100 92.0597 0.0000 0.0000 0.0000
# 4 0.0000 0.0000 0.0000 26.7595 0.0000 0.0000
# 5 0.0000 0.0000 0.0000 0.0000 26.7595 0.0000
# 6 -3.5874 3.5874 0.0000 0.0000 0.0000 39.5028
#
#
#
# Elastic Compliance Matrix: (Units=1/GPa)
#
#
# Indices 1 2 3 4 5 6 
#
# 1 0.007226 -0.003404 -0.001894 0.000000 0.000000 0.000965
# 2 -0.003404 0.007226 -0.001894 0.000000 0.000000 -0.000965
# 3 -0.001894 -0.001894 0.012739 0.000000 0.000000 0.000000
# 4 0.000000 0.000000 0.000000 0.037370 0.000000 0.000000
# 5 0.000000 0.000000 0.000000 0.000000 0.037370 0.000000
# 6 0.000965 -0.000965 0.000000 0.000000 0.000000 0.025490
#
#
# Mechanical properties :
#
#
# Convention : Reuss Voigt Hill
#
# Bulk Modulus (GPa) = 78.07273 98.68500 88.37886
# Shear Modulus (GPa) = 34.22942 38.36030 36.29486
#
# Velocity S-wave (km/s) = 3.85828 4.08446 3.97298
# Velocity P-wave (km/s) = 7.33499 8.07227 7.71245
#
# Compressibility (1/GPa) = 0.01280857
#
# Stress axis : x y z
#
# Youngs Moduli (GPa) = 138.38531 138.38531 78.50004
#
# Poissons Ratio (x) = 0.47108 0.14865
# Poissons Ratio (y) = 0.47108 0.14865
# Poissons Ratio (z) = 0.26205 0.26205
#
# Static dielectric constant tensor:
#      x y z
#    x 1.976830 0.000000 0.000000 
#    y 0.000000 1.976830 0.000000 
#    z 0.000000 0.000000 2.336880 
# 
# From -- ./inp_files/3591.got.cif
#   From: 2010.05.17/outbox.cif.g08.bks.cpg/sg88_2_cif.got.tgz:3591.got - 2010.06.03 19:11:41.
