data_PCOD9546026
_publ_section_title
;
Structure prediction by ZEFSAII (Michael W. Deem and Ramdas Pophale) SiO2 
 PCOD9546026
Probable space group: I 4/M
;
_chemical_formula_sum "Si O2"
_cell_formula_units_Z 96
_cell_length_a 15.249516
_cell_length_b 15.249516
_cell_length_c 21.736751
_cell_angle_alpha 90.000000
_cell_angle_beta 90.000000
_cell_angle_gamma 90.000000
_cell_volume 5054.832282
_symmetry_space_group_name_H-M "I 4/M"
_symmetry_group_IT_number 87
_symmetry_cell_setting 'tetragonal'
loop_
_space_group_symop_operation_xyz
x,y,z
-y,x,z
-x,-y,z
y,-x,z
-x,-y,-z
y,-x,-z
x,y,-z
-y,x,-z
1/2+x,1/2+y,1/2+z
1/2-y,1/2+x,1/2+z
1/2-x,1/2-y,1/2+z
1/2+y,1/2-x,1/2+z
1/2-x,1/2-y,1/2-z
1/2+y,1/2-x,1/2-z
1/2+x,1/2+y,1/2-z
1/2-y,1/2+x,1/2-z
loop_
_atom_site_type_symbol
_atom_site_label
_atom_site_fract_x
_atom_site_fract_y
_atom_site_fract_z
Si Si1 0.851408 0.493174 0.245341
Si Si2 0.491277 0.759201 0.113905
Si Si3 0.683958 0.325049 0.926963
Si Si4 0.028100 0.250245 0.869566
Si Si5 0.935414 0.568379 0.068905
Si Si6 0.344229 0.688921 0.426047
O O1 0.919232 0.411204 0.247874
O O2 0.802103 0.495813 0.180518
O O3 0.778308 0.486197 0.298942
O O4 0.402332 0.704148 0.109474
O O5 0.577360 0.709314 0.092605
O O6 0.474810 0.841190 0.068941
O O7 0.766051 0.259490 0.915652
O O8 0.665396 0.321111 0.000000
O O9 0.065884 0.339710 0.898399
O O10 0.100921 0.178585 0.887844
O O11 0.936121 0.227041 0.901858
O O12 0.000000 0.500000 0.101542
O O13 0.968612 0.584080 0.000000
O O14 0.347607 0.671635 0.500000
#
# Coordination Sequence:
#
# PCOD9546026 Si02
#       6
#    16  16  16  16  16  16
#     4  11  22  40  66  95 132 172 224 279 330 393
#     4  12  24  40  63  95 130 175 218 266 334 394
#     4  11  23  41  65  95 132 172 223 280 336 394
#     4  12  24  40  63  95 130 175 218 266 334 394
#     4  11  20  36  62  91 120 157 219 284 329 367
#     4  11  23  41  65  95 132 172 223 280 336 394
#
# _framework density 18.991727000000001
#
# number of rings (size 3 to 8) (size 9 to 14) (size 15 to 20)
#    0.000    0.667    3.333    6.000    0.000    4.667 
#    0.000    5.000    0.000    2.000    0.000    0.000 
#    0.000    0.000    0.000    0.000    0.000    0.000 
#
# Total GULP energy -268241.982464 kJ/mol
# GULP energy per Si atom -5588.374635 kJ/mol
# Density = 1.894850 g / cm^3
# Si number density = 18.991727 Si / 1000 Ang^3
#
#
#
# Elastic Constant Matrix: (Units=GPa)
#
#
# Indices 1 2 3 4 5 6 
#
# 1 92.7891 27.0668 14.0292 0.0000 0.0000 0.1734
# 2 27.0668 92.7891 14.0292 0.0000 0.0000 -0.1734
# 3 14.0292 14.0292 102.1581 0.0000 0.0000 0.0000
# 4 0.0000 0.0000 0.0000 22.8032 0.0000 0.0000
# 5 0.0000 0.0000 0.0000 0.0000 22.8032 0.0000
# 6 0.1734 -0.1734 0.0000 0.0000 0.0000 38.6620
#
#
#
# Elastic Compliance Matrix: (Units=1/GPa)
#
#
# Indices 1 2 3 4 5 6 
#
# 1 0.011918 -0.003298 -0.001184 0.000000 0.000000 -0.000068
# 2 -0.003298 0.011918 -0.001184 0.000000 0.000000 0.000068
# 3 -0.001184 -0.001184 0.010114 0.000000 0.000000 0.000000
# 4 0.000000 0.000000 0.000000 0.043853 0.000000 0.000000
# 5 0.000000 0.000000 0.000000 0.000000 0.043853 0.000000
# 6 -0.000068 0.000068 0.000000 0.000000 0.000000 0.025866
#
#
# Mechanical properties :
#
#
# Convention : Reuss Voigt Hill
#
# Bulk Modulus (GPa) = 44.20956 44.22072 44.21514
# Shear Modulus (GPa) = 30.04923 32.36110 31.20517
#
# Velocity S-wave (km/s) = 3.98204 4.13238 4.05791
# Velocity P-wave (km/s) = 6.66866 6.78996 6.72958
#
# Compressibility (1/GPa) = 0.02261954
#
# Stress axis : x y z
#
# Youngs Moduli (GPa) = 83.90536 83.90536 98.87384
#
# Poissons Ratio (x) = 0.27669 0.11705
# Poissons Ratio (y) = 0.27669 0.11705
# Poissons Ratio (z) = 0.09933 0.09933
#
# Static dielectric constant tensor:
#      x y z
#    x 1.655700 0.000000 0.000000 
#    y 0.000000 1.655700 0.000000 
#    z 0.000000 0.000000 1.668900 
# 
# From -- ./inp_files/5286.got.cif
#   From: 2010.05.17/outbox.cif.g08.bks.cpg/sg87_3_cif.got.tgz:5286.got - 2010.06.03 19:07:00.
