data_PCOD9546676
_publ_section_title
;
Structure prediction by ZEFSAII (Michael W. Deem and Ramdas Pophale) SiO2 
 PCOD9546676
Probable space group: I 41/A
;
_chemical_formula_sum "Si O2"
_cell_formula_units_Z 52
_cell_length_a 20.889328
_cell_length_b 20.889328
_cell_length_c 4.760786
_cell_angle_alpha 90.000000
_cell_angle_beta 90.000000
_cell_angle_gamma 90.000000
_cell_volume 2077.435738
_symmetry_space_group_name_H-M "I 41/A"
_symmetry_group_IT_number 88
_space_group.IT_coordinate_system_code '2'
_symmetry_cell_setting 'tetragonal'
loop_
_space_group_symop_operation_xyz
x,y,z
3/4-y,1/4+x,1/4+z
-x,1/2-y,z
1/4+y,1/4-x,1/4+z
-x,-y,-z
1/4+y,3/4-x,3/4-z
x,1/2+y,-z
3/4-y,3/4+x,3/4-z
1/2+x,1/2+y,1/2+z
1/4-y,3/4+x,3/4+z
1/2-x,-y,1/2+z
3/4+y,3/4-x,3/4+z
1/2-x,1/2-y,1/2-z
3/4+y,1/4-x,1/4-z
1/2+x,y,1/2-z
1/4-y,1/4+x,1/4-z
loop_
_atom_site_type_symbol
_atom_site_label
_atom_site_fract_x
_atom_site_fract_y
_atom_site_fract_z
Si Si1 0.218875 0.188086 0.906146
Si Si2 0.000000 0.750000 0.375000
Si Si3 0.534897 0.633881 0.699752
Si Si4 0.113329 0.099326 0.700060
O O1 0.250000 0.250000 0.750000
O O2 0.163122 0.223908 0.080525
O O3 0.180157 0.135413 0.727902
O O4 0.276469 0.149259 0.049171
O O5 0.945281 0.727647 0.147672
O O6 0.563002 0.639113 0.390182
O O7 0.590629 0.599541 0.879740
#
# Coordination Sequence:
#
# PCOD9546676 Si02
#       4
#    16   4  16  16
#     4  10  24  47  71 103 144 189 244 294 360 421
#     4  12  24  42  72 114 148 182 240 298 384 446
#     4  11  25  41  70 103 143 181 231 297 365 425
#     4  11  25  44  69  98 141 191 238 291 355 426
#
# _framework density 25.030860000000001
#
# number of rings (size 3 to 8) (size 9 to 14) (size 15 to 20)
#    0.000    1.231    3.077    0.923    4.308    6.154 
#    0.000    6.154    0.000    0.000    0.000    0.000 
#    0.000    0.000    0.000    0.000    0.000    0.000 
#
# Total GULP energy -145097.870036 kJ/mol
# GULP energy per Si atom -5580.687309 kJ/mol
# Density = 2.497389 g / cm^3
# Si number density = 25.030860 Si / 1000 Ang^3
#
#
#
# Elastic Constant Matrix: (Units=GPa)
#
#
# Indices 1 2 3 4 5 6 
#
# 1 148.4130 69.2347 27.4333 0.0000 0.0000 -12.9740
# 2 69.2347 148.4130 27.4333 0.0000 0.0000 12.9740
# 3 27.4333 27.4333 126.7940 0.0000 0.0000 0.0000
# 4 0.0000 0.0000 0.0000 29.0854 0.0000 0.0000
# 5 0.0000 0.0000 0.0000 0.0000 29.0854 0.0000
# 6 -12.9740 12.9740 0.0000 0.0000 0.0000 67.0503
#
#
#
# Elastic Compliance Matrix: (Units=1/GPa)
#
#
# Indices 1 2 3 4 5 6 
#
# 1 0.009172 -0.004313 -0.001051 0.000000 0.000000 0.002609
# 2 -0.004313 0.009172 -0.001051 0.000000 0.000000 -0.002609
# 3 -0.001051 -0.001051 0.008342 0.000000 0.000000 0.000000
# 4 0.000000 0.000000 0.000000 0.034382 0.000000 0.000000
# 5 0.000000 0.000000 0.000000 0.000000 0.034382 0.000000
# 6 0.002609 -0.002609 0.000000 0.000000 0.000000 0.015924
#
#
# Mechanical properties :
#
#
# Convention : Reuss Voigt Hill
#
# Bulk Modulus (GPa) = 72.17445 74.64694 73.41069
# Shear Modulus (GPa) = 38.81308 45.01215 41.91262
#
# Velocity S-wave (km/s) = 3.94205 4.24520 4.09643
# Velocity P-wave (km/s) = 7.04389 7.34273 7.19486
#
# Compressibility (1/GPa) = 0.01385532
#
# Stress axis : x y z
#
# Youngs Moduli (GPa) = 109.02476 109.02476 119.87838
#
# Poissons Ratio (x) = 0.47018 0.12604
# Poissons Ratio (y) = 0.47018 0.12604
# Poissons Ratio (z) = 0.11463 0.11463
#
# Static dielectric constant tensor:
#      x y z
#    x 2.063020 0.000000 0.000000 
#    y 0.000000 2.063020 0.000000 
#    z 0.000000 0.000000 1.969600 
# 
# From -- ./inp_files/447.got.cif
#   From: 2010.05.17/outbox.cif.g08.bks.cpg/sg88_1_cif.got.tgz:447.got - 2010.06.03 19:11:41.
