data_PCOD9546462
_publ_section_title
;
Structure prediction by ZEFSAII (Michael W. Deem and Ramdas Pophale) SiO2 
 PCOD9546462
Probable space group: I 41/A
;
_chemical_formula_sum "Si O2"
_cell_formula_units_Z 88
_cell_length_a 15.438821
_cell_length_b 15.438821
_cell_length_c 15.585423
_cell_angle_alpha 90.000000
_cell_angle_beta 90.000000
_cell_angle_gamma 90.000000
_cell_volume 3714.897692
_symmetry_space_group_name_H-M "I 41/A"
_symmetry_group_IT_number 88
_space_group.IT_coordinate_system_code '2'
_symmetry_cell_setting 'tetragonal'
loop_
_space_group_symop_operation_xyz
x,y,z
3/4-y,1/4+x,1/4+z
-x,1/2-y,z
1/4+y,1/4-x,1/4+z
-x,-y,-z
1/4+y,3/4-x,3/4-z
x,1/2+y,-z
3/4-y,3/4+x,3/4-z
1/2+x,1/2+y,1/2+z
1/4-y,3/4+x,3/4+z
1/2-x,-y,1/2+z
3/4+y,3/4-x,3/4+z
1/2-x,1/2-y,1/2-z
3/4+y,1/4-x,1/4-z
1/2+x,y,1/2-z
1/4-y,1/4+x,1/4-z
loop_
_atom_site_type_symbol
_atom_site_label
_atom_site_fract_x
_atom_site_fract_y
_atom_site_fract_z
Si Si1 0.227143 0.833089 0.954903
Si Si2 0.057600 0.574867 0.136413
Si Si3 0.139168 0.486364 0.987313
Si Si4 0.692144 0.080228 0.775153
Si Si5 0.604332 0.606079 0.046642
Si Si6 0.000000 0.250000 0.463572
O O1 0.239262 0.732453 0.932990
O O2 0.143553 0.884306 0.988132
O O3 0.252112 0.874571 0.862806
O O4 0.304809 0.847720 0.021838
O O5 0.073515 0.545861 0.040159
O O6 0.145204 0.593940 0.185374
O O7 0.007037 0.663936 0.154856
O O8 0.233977 0.518550 0.016789
O O9 0.773571 0.145480 0.767977
O O10 0.624348 0.085613 0.853586
O O11 0.524152 0.668362 0.024724
#
# Coordination Sequence:
#
# PCOD9546462 Si02
#       6
#    16  16  16  16  16   8
#     4  10  21  38  67  91 123 161 218 263 321 387
#     4  11  23  41  61  94 126 169 209 275 325 390
#     4  11  19  42  64  91 121 165 217 265 321 389
#     4  11  20  39  68  93 125 172 229 260 326 406
#     4  10  21  41  64  95 131 174 217 273 330 398
#     4  10  26  43  56  94 139 166 216 272 343 390
#
# _framework density 23.688404999999999
#
# number of rings (size 3 to 8) (size 9 to 14) (size 15 to 20)
#    0.000    1.455    3.636    3.818    0.000    4.364 
#   13.091    0.000    0.000    0.545    0.000    1.273 
#    0.000    0.000    0.000    0.000    0.000    0.000 
#
# Total GULP energy -245339.136097 kJ/mol
# GULP energy per Si atom -5575.889457 kJ/mol
# Density = 2.363449 g / cm^3
# Si number density = 23.688405 Si / 1000 Ang^3
#
#
#
# Elastic Constant Matrix: (Units=GPa)
#
#
# Indices 1 2 3 4 5 6 
#
# 1 64.7697 21.3833 10.0820 0.0000 0.0000 9.7963
# 2 21.3833 64.7697 10.0820 0.0000 0.0000 -9.7963
# 3 10.0820 10.0820 93.8989 0.0000 0.0000 0.0000
# 4 0.0000 0.0000 0.0000 27.2284 0.0000 0.0000
# 5 0.0000 0.0000 0.0000 0.0000 27.2284 0.0000
# 6 9.7963 -9.7963 0.0000 0.0000 0.0000 16.1512
#
#
#
# Elastic Compliance Matrix: (Units=1/GPa)
#
#
# Indices 1 2 3 4 5 6 
#
# 1 0.021825 -0.009918 -0.001278 0.000000 0.000000 -0.019253
# 2 -0.009918 0.021825 -0.001278 0.000000 0.000000 0.019253
# 3 -0.001278 -0.001278 0.010924 0.000000 0.000000 0.000000
# 4 0.000000 0.000000 0.000000 0.036726 0.000000 0.000000
# 5 0.000000 0.000000 0.000000 0.000000 0.036726 0.000000
# 6 -0.019253 0.019253 0.000000 0.000000 0.000000 0.085271
#
#
# Mechanical properties :
#
#
# Convention : Reuss Voigt Hill
#
# Bulk Modulus (GPa) = 33.75689 34.05921 33.90805
# Shear Modulus (GPa) = 20.15134 26.24764 23.19949
#
# Velocity S-wave (km/s) = 2.91981 3.33233 3.13287
# Velocity P-wave (km/s) = 5.06442 5.40510 5.23753
#
# Compressibility (1/GPa) = 0.02962358
#
# Stress axis : x y z
#
# Youngs Moduli (GPa) = 45.81938 45.81938 91.53917
#
# Poissons Ratio (x) = 0.45445 0.11702
# Poissons Ratio (y) = 0.45445 0.11702
# Poissons Ratio (z) = 0.05858 0.05858
#
# Static dielectric constant tensor:
#      x y z
#    x 1.994210 0.000000 0.000000 
#    y 0.000000 1.994210 0.000000 
#    z 0.000000 0.000000 1.853250 
# 
# From -- ./inp_files/3195.got.cif
#   From: 2010.05.17/outbox.cif.g08.bks.cpg/sg88_2_cif.got.tgz:3195.got - 2010.06.03 19:11:41.
