data_PCOD9546290
_publ_section_title
;
Structure prediction by ZEFSAII (Michael W. Deem and Ramdas Pophale) SiO2 
 PCOD9546290
Probable space group: I 41/A
;
_chemical_formula_sum "Si O2"
_cell_formula_units_Z 80
_cell_length_a 17.966043
_cell_length_b 17.966043
_cell_length_c 13.112328
_cell_angle_alpha 90.000000
_cell_angle_beta 90.000000
_cell_angle_gamma 90.000000
_cell_volume 4232.380200
_symmetry_space_group_name_H-M "I 41/A"
_symmetry_group_IT_number 88
_space_group.IT_coordinate_system_code '2'
_symmetry_cell_setting 'tetragonal'
loop_
_space_group_symop_operation_xyz
x,y,z
3/4-y,1/4+x,1/4+z
-x,1/2-y,z
1/4+y,1/4-x,1/4+z
-x,-y,-z
1/4+y,3/4-x,3/4-z
x,1/2+y,-z
3/4-y,3/4+x,3/4-z
1/2+x,1/2+y,1/2+z
1/4-y,3/4+x,3/4+z
1/2-x,-y,1/2+z
3/4+y,3/4-x,3/4+z
1/2-x,1/2-y,1/2-z
3/4+y,1/4-x,1/4-z
1/2+x,y,1/2-z
1/4-y,1/4+x,1/4-z
loop_
_atom_site_type_symbol
_atom_site_label
_atom_site_fract_x
_atom_site_fract_y
_atom_site_fract_z
Si Si1 0.563676 0.469095 0.069304
Si Si2 0.567022 0.573147 0.585597
Si Si3 0.602782 0.452424 0.422728
Si Si4 0.682251 0.367152 0.003037
Si Si5 0.565484 0.310100 0.145141
O O1 0.629671 0.438740 0.997220
O O2 0.592074 0.528322 0.151106
O O3 0.537389 0.394368 0.128419
O O4 0.500000 0.500000 0.000000
O O5 0.597025 0.499073 0.527487
O O6 0.624703 0.603535 0.669064
O O7 0.482179 0.558765 0.615744
O O8 0.559768 0.637575 0.499250
O O9 0.637420 0.506200 0.337651
O O10 0.627851 0.304698 0.054711
O O11 0.500000 0.250000 0.142395
#
# Coordination Sequence:
#
# PCOD9546290 Si02
#       5
#    16  16  16  16  16
#     4  10  21  38  66  84 119 162 199 246 310 351
#     4  10  21  33  65  83 127 154 209 235 321 346
#     4  10  19  37  58  91 114 169 186 261 291 372
#     4   9  19  39  62  82 127 152 200 251 301 353
#     4   9  20  36  60  89 125 154 203 251 298 355
#
# _framework density 18.901893999999999
#
# number of rings (size 3 to 8) (size 9 to 14) (size 15 to 20)
#    1.200    1.200    2.000    0.000    2.800    1.600 
#    0.000    0.000   44.000    0.000    0.000    0.000 
#    0.000    0.000    0.000    0.000    0.000    0.000 
#
# Total GULP energy -222707.726211 kJ/mol
# GULP energy per Si atom -5567.693155 kJ/mol
# Density = 1.885887 g / cm^3
# Si number density = 18.901894 Si / 1000 Ang^3
#
#
#
# Elastic Constant Matrix: (Units=GPa)
#
#
# Indices 1 2 3 4 5 6 
#
# 1 72.9477 52.9911 18.4790 0.0000 0.0000 1.7553
# 2 52.9911 72.9477 18.4790 0.0000 0.0000 -1.7553
# 3 18.4790 18.4790 41.0426 0.0000 0.0000 0.0000
# 4 0.0000 0.0000 0.0000 19.5393 0.0000 0.0000
# 5 0.0000 0.0000 0.0000 0.0000 19.5393 0.0000
# 6 1.7553 -1.7553 0.0000 0.0000 0.0000 53.6055
#
#
#
# Elastic Compliance Matrix: (Units=1/GPa)
#
#
# Indices 1 2 3 4 5 6 
#
# 1 0.029774 -0.020625 -0.004119 0.000000 0.000000 -0.001650
# 2 -0.020625 0.029774 -0.004119 0.000000 0.000000 0.001650
# 3 -0.004119 -0.004119 0.028074 0.000000 0.000000 0.000000
# 4 0.000000 0.000000 0.000000 0.051179 0.000000 0.000000
# 5 0.000000 0.000000 0.000000 0.000000 0.051179 0.000000
# 6 -0.001650 0.001650 0.000000 0.000000 0.000000 0.018763
#
#
# Mechanical properties :
#
#
# Convention : Reuss Voigt Hill
#
# Bulk Modulus (GPa) = 33.44997 40.75957 37.10477
# Shear Modulus (GPa) = 18.08744 25.00278 21.54511
#
# Velocity S-wave (km/s) = 3.09675 3.64093 3.37981
# Velocity P-wave (km/s) = 5.52463 6.26783 5.90793
#
# Compressibility (1/GPa) = 0.02989540
#
# Stress axis : x y z
#
# Youngs Moduli (GPa) = 33.58630 33.58630 35.61980
#
# Poissons Ratio (x) = 0.69271 0.14673
# Poissons Ratio (y) = 0.69271 0.14673
# Poissons Ratio (z) = 0.13835 0.13835
#
# Static dielectric constant tensor:
#      x y z
#    x 1.690420 0.000000 0.000000 
#    y 0.000000 1.690420 0.000000 
#    z 0.000000 0.000000 1.711290 
# 
# From -- ./inp_files/3132.got.cif
#   From: 2010.05.17/outbox.cif.g08.bks.cpg/sg88_2_cif.got.tgz:3132.got - 2010.06.03 19:11:41.
