data_PCOD9546850
_publ_section_title
;
Structure prediction by ZEFSAII (Michael W. Deem and Ramdas Pophale) SiO2 
 PCOD9546850
Probable space group: I 41/A
;
_chemical_formula_sum "Si O2"
_cell_formula_units_Z 44
_cell_length_a 8.183693
_cell_length_b 8.183693
_cell_length_c 25.604199
_cell_angle_alpha 90.000000
_cell_angle_beta 90.000000
_cell_angle_gamma 90.000000
_cell_volume 1714.785696
_symmetry_space_group_name_H-M "I 41/A"
_symmetry_group_IT_number 88
_space_group.IT_coordinate_system_code '2'
_symmetry_cell_setting 'tetragonal'
loop_
_space_group_symop_operation_xyz
x,y,z
3/4-y,1/4+x,1/4+z
-x,1/2-y,z
1/4+y,1/4-x,1/4+z
-x,-y,-z
1/4+y,3/4-x,3/4-z
x,1/2+y,-z
3/4-y,3/4+x,3/4-z
1/2+x,1/2+y,1/2+z
1/4-y,3/4+x,3/4+z
1/2-x,-y,1/2+z
3/4+y,3/4-x,3/4+z
1/2-x,1/2-y,1/2-z
3/4+y,1/4-x,1/4-z
1/2+x,y,1/2-z
1/4-y,1/4+x,1/4-z
loop_
_atom_site_type_symbol
_atom_site_label
_atom_site_fract_x
_atom_site_fract_y
_atom_site_fract_z
Si Si1 0.500000 0.750000 0.470866
Si Si2 0.814918 0.452808 0.353273
Si Si3 0.000000 0.250000 0.625000
Si Si4 0.315160 0.251737 0.045057
O O1 0.542919 0.898328 0.431719
O O2 0.661798 0.745308 0.506382
O O3 0.657735 0.540590 0.330542
O O4 0.804785 0.399727 0.413460
O O5 0.961326 0.581982 0.345773
O O6 0.500000 0.250000 0.022563
#
# Coordination Sequence:
#
# PCOD9546850 Si02
#       4
#     8  16   4  16
#     4  12  28  47  81 122 160 216 287 339 422 508
#     4  12  25  51  76 118 164 215 273 351 412 496
#     4  12  24  44  82 104 164 220 266 332 420 484
#     4  12  26  49  80 113 164 216 276 342 422 493
#
# _framework density 25.659181
#
# number of rings (size 3 to 8) (size 9 to 14) (size 15 to 20)
#    0.000    0.000    5.455    3.273    2.545    4.364 
#    0.000    0.000    0.000    0.000    0.000    0.000 
#    0.000    0.000    0.000    0.000    0.000    0.000 
#
# Total GULP energy -123162.794860 kJ/mol
# GULP energy per Si atom -5598.308857 kJ/mol
# Density = 2.560078 g / cm^3
# Si number density = 25.659181 Si / 1000 Ang^3
#
#
#
# Elastic Constant Matrix: (Units=GPa)
#
#
# Indices 1 2 3 4 5 6 
#
# 1 169.1117 49.7026 60.8349 0.0000 0.0000 -1.9716
# 2 49.7026 169.1117 60.8349 0.0000 0.0000 1.9716
# 3 60.8349 60.8349 118.7270 0.0000 0.0000 0.0000
# 4 0.0000 0.0000 0.0000 11.8177 0.0000 0.0000
# 5 0.0000 0.0000 0.0000 0.0000 11.8176 0.0000
# 6 -1.9716 1.9716 0.0000 0.0000 0.0000 50.9217
#
#
#
# Elastic Compliance Matrix: (Units=1/GPa)
#
#
# Indices 1 2 3 4 5 6 
#
# 1 0.007388 -0.000997 -0.003275 0.000000 0.000000 0.000325
# 2 -0.000997 0.007388 -0.003275 0.000000 0.000000 -0.000325
# 3 -0.003275 -0.003275 0.011779 0.000000 0.000000 0.000000
# 4 0.000000 0.000000 0.000000 0.084619 0.000000 0.000000
# 5 0.000000 0.000000 0.000000 0.000000 0.084619 0.000000
# 6 0.000325 -0.000325 0.000000 0.000000 0.000000 0.019663
#
#
# Mechanical properties :
#
#
# Convention : Reuss Voigt Hill
#
# Bulk Modulus (GPa) = 87.24705 88.85505 88.05105
# Shear Modulus (GPa) = 21.33379 33.94993 27.64186
#
# Velocity S-wave (km/s) = 2.88658 3.64140 3.28574
# Velocity P-wave (km/s) = 6.72204 7.23767 6.98462
#
# Compressibility (1/GPa) = 0.01146171
#
# Stress axis : x y z
#
# Youngs Moduli (GPa) = 135.35247 135.35247 84.90026
#
# Poissons Ratio (x) = 0.13497 0.27802
# Poissons Ratio (y) = 0.13497 0.27802
# Poissons Ratio (z) = 0.44324 0.44324
#
# Static dielectric constant tensor:
#      x y z
#    x 2.034440 0.000000 0.000000 
#    y 0.000000 2.034440 0.000000 
#    z 0.000000 0.000000 2.023670 
# 
# From -- ./inp_files/6048.got.cif
#   From: 2010.05.17/outbox.cif.g08.bks.cpg/sg88_4_cif.got.tgz:6048.got - 2010.06.03 19:11:41.
