data_PCOD9546657
_publ_section_title
;
Structure prediction by ZEFSAII (Michael W. Deem and Ramdas Pophale) SiO2 
 PCOD9546657
Probable space group: I 41/A
;
_chemical_formula_sum "Si O2"
_cell_formula_units_Z 56
_cell_length_a 12.290156
_cell_length_b 12.290156
_cell_length_c 15.241716
_cell_angle_alpha 90.000000
_cell_angle_beta 90.000000
_cell_angle_gamma 90.000000
_cell_volume 2302.229720
_symmetry_space_group_name_H-M "I 41/A"
_symmetry_group_IT_number 88
_space_group.IT_coordinate_system_code '2'
_symmetry_cell_setting 'tetragonal'
loop_
_space_group_symop_operation_xyz
x,y,z
3/4-y,1/4+x,1/4+z
-x,1/2-y,z
1/4+y,1/4-x,1/4+z
-x,-y,-z
1/4+y,3/4-x,3/4-z
x,1/2+y,-z
3/4-y,3/4+x,3/4-z
1/2+x,1/2+y,1/2+z
1/4-y,3/4+x,3/4+z
1/2-x,-y,1/2+z
3/4+y,3/4-x,3/4+z
1/2-x,1/2-y,1/2-z
3/4+y,1/4-x,1/4-z
1/2+x,y,1/2-z
1/4-y,1/4+x,1/4-z
loop_
_atom_site_type_symbol
_atom_site_label
_atom_site_fract_x
_atom_site_fract_y
_atom_site_fract_z
Si Si1 0.638922 0.104149 0.656371
Si Si2 0.000000 0.750000 0.725838
Si Si3 0.756698 0.389796 0.669756
Si Si4 0.725402 0.800036 0.516726
O O1 0.566273 0.169229 0.587620
O O2 0.674719 0.157921 0.749030
O O3 0.750640 0.064743 0.614342
O O4 0.360239 0.059464 0.696255
O O5 0.935666 0.845157 0.777291
O O6 0.746082 0.309387 0.588041
O O7 0.936692 0.494627 0.810993
#
# Coordination Sequence:
#
# PCOD9546657 Si02
#       4
#    16   8  16  16
#     4  11  23  42  65  98 128 167 218 263 322 380
#     4  12  24  40  70  96 128 172 218 260 324 388
#     4  10  24  42  68  92 134 168 210 278 316 372
#     4  11  23  42  65  98 128 167 218 263 322 380
#
# _framework density 24.324245000000001
#
# number of rings (size 3 to 8) (size 9 to 14) (size 15 to 20)
#    0.000    1.143    5.714    0.000    0.000    6.857 
#    0.000    0.000    0.000    0.000    0.000    0.000 
#    0.000    0.000    0.000    0.000    0.000    0.000 
#
# Total GULP energy -156527.861721 kJ/mol
# GULP energy per Si atom -5590.280776 kJ/mol
# Density = 2.426888 g / cm^3
# Si number density = 24.324245 Si / 1000 Ang^3
#
#
#
# Elastic Constant Matrix: (Units=GPa)
#
#
# Indices 1 2 3 4 5 6 
#
# 1 80.5254 26.9822 11.8945 0.0000 0.0000 -4.1396
# 2 26.9822 80.5254 11.8945 0.0000 0.0000 4.1396
# 3 11.8945 11.8945 62.0119 0.0000 0.0000 0.0000
# 4 0.0000 0.0000 0.0000 35.5145 0.0000 0.0000
# 5 0.0000 0.0000 0.0000 0.0000 35.5145 0.0000
# 6 -4.1396 4.1396 0.0000 0.0000 0.0000 52.1715
#
#
#
# Elastic Compliance Matrix: (Units=1/GPa)
#
#
# Indices 1 2 3 4 5 6 
#
# 1 0.014311 -0.004597 -0.001863 0.000000 0.000000 0.001500
# 2 -0.004597 0.014311 -0.001863 0.000000 0.000000 -0.001500
# 3 -0.001863 -0.001863 0.016841 0.000000 0.000000 0.000000
# 4 0.000000 0.000000 0.000000 0.028157 0.000000 0.000000
# 5 0.000000 0.000000 0.000000 0.000000 0.028157 0.000000
# 6 0.001500 -0.001500 0.000000 0.000000 0.000000 0.019406
#
#
# Mechanical properties :
#
#
# Convention : Reuss Voigt Hill
#
# Bulk Modulus (GPa) = 34.70331 36.06723 35.38527
# Shear Modulus (GPa) = 33.91292 36.12622 35.01957
#
# Velocity S-wave (km/s) = 3.73795 3.85800 3.79845
# Velocity P-wave (km/s) = 5.73826 5.89113 5.81520
#
# Compressibility (1/GPa) = 0.02881570
#
# Stress axis : x y z
#
# Youngs Moduli (GPa) = 69.87526 69.87527 59.37992
#
# Poissons Ratio (x) = 0.32123 0.11064
# Poissons Ratio (y) = 0.32123 0.11064
# Poissons Ratio (z) = 0.13019 0.13019
#
# Static dielectric constant tensor:
#      x y z
#    x 1.948690 0.000000 0.000000 
#    y 0.000000 1.948690 0.000000 
#    z 0.000000 0.000000 1.971050 
# 
# From -- ./inp_files/2989.got.cif
#   From: 2010.05.17/outbox.cif.g08.bks.cpg/sg88_2_cif.got.tgz:2989.got - 2010.06.03 19:11:41.
