data_PCOD9546381
_publ_section_title
;
Structure prediction by ZEFSAII (Michael W. Deem and Ramdas Pophale) SiO2 
 PCOD9546381
Probable space group: I 41/A
;
_chemical_formula_sum "Si O2"
_cell_formula_units_Z 116
_cell_length_a 18.077967
_cell_length_b 18.077967
_cell_length_c 17.317523
_cell_angle_alpha 90.000000
_cell_angle_beta 90.000000
_cell_angle_gamma 90.000000
_cell_volume 5659.589754
_symmetry_space_group_name_H-M "I 41/A"
_symmetry_group_IT_number 88
_space_group.IT_coordinate_system_code '2'
_symmetry_cell_setting 'tetragonal'
loop_
_space_group_symop_operation_xyz
x,y,z
3/4-y,1/4+x,1/4+z
-x,1/2-y,z
1/4+y,1/4-x,1/4+z
-x,-y,-z
1/4+y,3/4-x,3/4-z
x,1/2+y,-z
3/4-y,3/4+x,3/4-z
1/2+x,1/2+y,1/2+z
1/4-y,3/4+x,3/4+z
1/2-x,-y,1/2+z
3/4+y,3/4-x,3/4+z
1/2-x,1/2-y,1/2-z
3/4+y,1/4-x,1/4-z
1/2+x,y,1/2-z
1/4-y,1/4+x,1/4-z
loop_
_atom_site_type_symbol
_atom_site_label
_atom_site_fract_x
_atom_site_fract_y
_atom_site_fract_z
Si Si1 0.000000 0.750000 0.375000
Si Si2 0.985171 0.449777 0.382477
Si Si3 0.253948 0.568377 0.601955
Si Si4 0.541267 0.543171 0.566564
Si Si5 0.849487 0.035508 0.682842
Si Si6 0.878527 0.609141 0.709500
Si Si7 0.396062 0.513056 0.646428
Si Si8 0.645894 0.797709 0.198503
O O1 0.998689 0.824086 0.425739
O O2 0.043556 0.402815 0.332770
O O3 0.022763 0.526718 0.410561
O O4 0.914294 0.477991 0.335501
O O5 0.958986 0.407986 0.459656
O O6 0.245383 0.638420 0.656789
O O7 0.221997 0.494082 0.638287
O O8 0.216079 0.581371 0.522130
O O9 0.341832 0.561462 0.592610
O O10 0.500000 0.500000 0.500000
O O11 0.576243 0.615313 0.524085
O O12 0.480011 0.541603 0.634435
O O13 0.868501 0.119765 0.667115
O O14 0.870769 0.535064 0.765607
O O15 0.818372 0.629523 0.641186
#
# Coordination Sequence:
#
# PCOD9546381 Si02
#       8
#     4  16  16  16  16  16  16  16
#     4  12  24  48  68  96 140 192 226 288 360 408
#     4  11  24  43  65  96 133 172 232 279 336 411
#     4  11  22  36  66  91 124 168 219 277 336 397
#     4   9  19  38  60  91 128 164 216 274 341 401
#     4  12  22  41  63  95 130 168 226 280 330 399
#     4  10  21  38  65  98 130 179 223 279 344 410
#     4  10  20  39  63  98 132 174 226 279 345 405
#     4  11  25  44  65  94 134 183 224 281 342 411
#
# _framework density 20.496184
#
# number of rings (size 3 to 8) (size 9 to 14) (size 15 to 20)
#    0.000    1.379    2.759    4.138    0.000    1.103 
#    4.966    0.000    0.000   23.172    0.000    0.000 
#    0.000    0.000    0.000    0.000    0.000    0.000 
#
# Total GULP energy -322964.664116 kJ/mol
# GULP energy per Si atom -5568.356278 kJ/mol
# Density = 2.044953 g / cm^3
# Si number density = 20.496184 Si / 1000 Ang^3
#
#
#
# Elastic Constant Matrix: (Units=GPa)
#
#
# Indices 1 2 3 4 5 6 
#
# 1 91.3846 31.5828 35.5407 0.0000 0.0000 -9.0612
# 2 31.5828 91.3846 35.5407 0.0000 0.0000 9.0612
# 3 35.5407 35.5407 81.9572 0.0000 0.0000 0.0000
# 4 0.0000 0.0000 0.0000 25.2111 0.0000 0.0000
# 5 0.0000 0.0000 0.0000 0.0000 25.2111 0.0000
# 6 -9.0612 9.0612 0.0000 0.0000 0.0000 31.0774
#
#
#
# Elastic Compliance Matrix: (Units=1/GPa)
#
#
# Indices 1 2 3 4 5 6 
#
# 1 0.014598 -0.003745 -0.004706 0.000000 0.000000 0.005348
# 2 -0.003745 0.014598 -0.004706 0.000000 0.000000 -0.005348
# 3 -0.004706 -0.004706 0.016283 0.000000 0.000000 0.000000
# 4 0.000000 0.000000 0.000000 0.039665 0.000000 0.000000
# 5 0.000000 0.000000 0.000000 0.000000 0.039665 0.000000
# 6 0.005348 -0.005348 0.000000 0.000000 0.000000 0.035296
#
#
# Mechanical properties :
#
#
# Convention : Reuss Voigt Hill
#
# Bulk Modulus (GPa) = 52.18238 52.22832 52.20535
# Shear Modulus (GPa) = 25.93253 27.10405 26.51829
#
# Velocity S-wave (km/s) = 3.56088 3.64042 3.60087
# Velocity P-wave (km/s) = 6.51316 6.57324 6.54327
#
# Compressibility (1/GPa) = 0.01916356
#
# Stress axis : x y z
#
# Youngs Moduli (GPa) = 68.50415 68.50415 61.41278
#
# Poissons Ratio (x) = 0.25654 0.28903
# Poissons Ratio (y) = 0.25654 0.28903
# Poissons Ratio (z) = 0.32240 0.32240
#
# Static dielectric constant tensor:
#      x y z
#    x 1.761540 0.000000 0.000000 
#    y 0.000000 1.761540 0.000000 
#    z 0.000000 0.000000 1.760090 
# 
# From -- ./inp_files/4027.got.cif
#   From: 2010.05.17/outbox.cif.g08.bks.cpg/sg88_3_cif.got.tgz:4027.got - 2010.06.03 19:11:41.
