data_PCOD9546334
_publ_section_title
;
Structure prediction by ZEFSAII (Michael W. Deem and Ramdas Pophale) SiO2 
 PCOD9546334
Probable space group: I 41/A
;
_chemical_formula_sum "Si O2"
_cell_formula_units_Z 80
_cell_length_a 15.166811
_cell_length_b 15.166811
_cell_length_c 17.756444
_cell_angle_alpha 90.000000
_cell_angle_beta 90.000000
_cell_angle_gamma 90.000000
_cell_volume 4084.553095
_symmetry_space_group_name_H-M "I 41/A"
_symmetry_group_IT_number 88
_space_group.IT_coordinate_system_code '2'
_symmetry_cell_setting 'tetragonal'
loop_
_space_group_symop_operation_xyz
x,y,z
3/4-y,1/4+x,1/4+z
-x,1/2-y,z
1/4+y,1/4-x,1/4+z
-x,-y,-z
1/4+y,3/4-x,3/4-z
x,1/2+y,-z
3/4-y,3/4+x,3/4-z
1/2+x,1/2+y,1/2+z
1/4-y,3/4+x,3/4+z
1/2-x,-y,1/2+z
3/4+y,3/4-x,3/4+z
1/2-x,1/2-y,1/2-z
3/4+y,1/4-x,1/4-z
1/2+x,y,1/2-z
1/4-y,1/4+x,1/4-z
loop_
_atom_site_type_symbol
_atom_site_label
_atom_site_fract_x
_atom_site_fract_y
_atom_site_fract_z
Si Si1 0.213877 0.492435 0.452465
Si Si2 0.414053 0.704935 0.499658
Si Si3 0.986682 0.942992 0.074741
Si Si4 0.767613 0.618848 0.920303
Si Si5 0.611972 0.452480 0.183638
O O1 0.299643 0.494852 0.397476
O O2 0.219478 0.576059 0.508062
O O3 0.232048 0.407502 0.506066
O O4 0.126718 0.492665 0.399981
O O5 0.500000 0.750000 0.535935
O O6 0.459793 0.648038 0.434489
O O7 0.367963 0.636657 0.555821
O O8 0.341278 0.771878 0.464903
O O9 0.883995 0.923549 0.076809
O O10 0.034875 0.987689 0.144012
O O11 0.000000 0.000000 0.000000
#
# Coordination Sequence:
#
# PCOD9546334 Si02
#       5
#    16  16  16  16  16
#     4  10  20  35  58  79 114 153 199 233 285 351
#     4  10  22  35  52  86 121 148 189 239 292 349
#     4  11  19  36  53  81 116 150 189 236 285 349
#     4  11  19  37  56  81 115 155 190 238 285 347
#     4  10  20  36  53  84 111 154 190 241 292 348
#
# _framework density 19.585986999999999
#
# number of rings (size 3 to 8) (size 9 to 14) (size 15 to 20)
#    0.000    1.600    4.000    2.400    0.000    0.000 
#    3.600    1.000    0.000    0.000    0.000    0.000 
#    0.000    0.000    0.000    0.000    0.000    0.000 
#
# Total GULP energy -222879.318488 kJ/mol
# GULP energy per Si atom -5571.982962 kJ/mol
# Density = 1.954141 g / cm^3
# Si number density = 19.585987 Si / 1000 Ang^3
#
#
#
# Elastic Constant Matrix: (Units=GPa)
#
#
# Indices 1 2 3 4 5 6 
#
# 1 44.5303 4.3835 25.3116 0.0000 0.0000 6.9566
# 2 4.3835 44.5303 25.3116 0.0000 0.0000 -6.9566
# 3 25.3116 25.3116 105.3102 0.0000 0.0000 0.0000
# 4 0.0000 0.0000 0.0000 19.2956 0.0000 0.0000
# 5 0.0000 0.0000 0.0000 0.0000 19.2956 0.0000
# 6 6.9566 -6.9566 0.0000 0.0000 0.0000 33.9308
#
#
#
# Elastic Compliance Matrix: (Units=1/GPa)
#
#
# Indices 1 2 3 4 5 6 
#
# 1 0.027014 0.000200 -0.006541 0.000000 0.000000 -0.005497
# 2 0.000200 0.027014 -0.006541 0.000000 0.000000 0.005497
# 3 -0.006541 -0.006541 0.012640 0.000000 0.000000 0.000000
# 4 0.000000 0.000000 0.000000 0.051825 0.000000 0.000000
# 5 0.000000 0.000000 0.000000 0.000000 0.051825 0.000000
# 6 -0.005497 0.005497 0.000000 0.000000 0.000000 0.031726
#
#
# Mechanical properties :
#
#
# Convention : Reuss Voigt Hill
#
# Bulk Modulus (GPa) = 24.44767 33.82047 29.13407
# Shear Modulus (GPa) = 20.70892 23.79535 22.25213
#
# Velocity S-wave (km/s) = 3.25519 3.48935 3.37430
# Velocity P-wave (km/s) = 5.16117 5.79131 5.48530
#
# Compressibility (1/GPa) = 0.04090370
#
# Stress axis : x y z
#
# Youngs Moduli (GPa) = 37.01830 37.01830 79.11407
#
# Poissons Ratio (x) = -0.00740 0.51747
# Poissons Ratio (y) = -0.00740 0.51747
# Poissons Ratio (z) = 0.24213 0.24213
#
# Static dielectric constant tensor:
#      x y z
#    x 1.791250 0.000000 0.000000 
#    y 0.000000 1.791250 0.000000 
#    z 0.000000 0.000000 1.739870 
# 
# From -- ./inp_files/3128.got.cif
#   From: 2010.05.17/outbox.cif.g08.bks.cpg/sg88_2_cif.got.tgz:3128.got - 2010.06.03 19:11:41.
