data_PCOD9546510
_publ_section_title
;
Structure prediction by ZEFSAII (Michael W. Deem and Ramdas Pophale) SiO2 
 PCOD9546510
Probable space group: I 41/A
;
_chemical_formula_sum "Si O2"
_cell_formula_units_Z 64
_cell_length_a 11.737840
_cell_length_b 11.737840
_cell_length_c 19.193206
_cell_angle_alpha 90.000000
_cell_angle_beta 90.000000
_cell_angle_gamma 90.000000
_cell_volume 2644.380191
_symmetry_space_group_name_H-M "I 41/A"
_symmetry_group_IT_number 88
_space_group.IT_coordinate_system_code '2'
_symmetry_cell_setting 'tetragonal'
loop_
_space_group_symop_operation_xyz
x,y,z
3/4-y,1/4+x,1/4+z
-x,1/2-y,z
1/4+y,1/4-x,1/4+z
-x,-y,-z
1/4+y,3/4-x,3/4-z
x,1/2+y,-z
3/4-y,3/4+x,3/4-z
1/2+x,1/2+y,1/2+z
1/4-y,3/4+x,3/4+z
1/2-x,-y,1/2+z
3/4+y,3/4-x,3/4+z
1/2-x,1/2-y,1/2-z
3/4+y,1/4-x,1/4-z
1/2+x,y,1/2-z
1/4-y,1/4+x,1/4-z
loop_
_atom_site_type_symbol
_atom_site_label
_atom_site_fract_x
_atom_site_fract_y
_atom_site_fract_z
Si Si1 0.749934 0.563101 0.398662
Si Si2 0.406593 0.608426 0.327056
Si Si3 0.857104 0.854929 0.233230
Si Si4 0.980961 0.371172 0.971569
O O1 0.754158 0.429663 0.417793
O O2 0.866995 0.600883 0.435467
O O3 0.737334 0.587920 0.317248
O O4 0.645862 0.621387 0.438772
O O5 0.527097 0.584756 0.292528
O O6 0.363667 0.722574 0.287529
O O7 0.432765 0.640578 0.406554
O O8 0.000000 0.250000 0.011761
O O9 0.000000 0.500000 0.000000
#
# Coordination Sequence:
#
# PCOD9546510 Si02
#       4
#    16  16  16  16
#     4  11  22  38  69  92 131 192 232 299 374 449
#     4  10  21  43  61  95 141 182 231 307 368 438
#     4  10  22  40  63  97 137 176 244 296 370 442
#     4  11  23  43  68 103 145 185 244 311 378 455
#
# _framework density 24.202269999999999
#
# number of rings (size 3 to 8) (size 9 to 14) (size 15 to 20)
#    0.000    1.500    5.000    2.250    3.500    2.000 
#    0.000    0.000    0.000    3.000    0.000    0.000 
#    0.000    0.000    0.000    0.000    0.000    0.000 
#
# Total GULP energy -178479.096532 kJ/mol
# GULP energy per Si atom -5577.471767 kJ/mol
# Density = 2.414718 g / cm^3
# Si number density = 24.202270 Si / 1000 Ang^3
#
#
#
# Elastic Constant Matrix: (Units=GPa)
#
#
# Indices 1 2 3 4 5 6 
#
# 1 112.4872 43.0065 29.4490 0.0000 0.0000 18.1272
# 2 43.0065 112.4872 29.4490 0.0000 0.0000 -18.1272
# 3 29.4490 29.4490 68.4674 0.0000 0.0000 0.0000
# 4 0.0000 0.0000 0.0000 25.6462 0.0000 0.0000
# 5 0.0000 0.0000 0.0000 0.0000 25.6462 0.0000
# 6 18.1272 -18.1272 0.0000 0.0000 0.0000 54.2795
#
#
#
# Elastic Compliance Matrix: (Units=1/GPa)
#
#
# Indices 1 2 3 4 5 6 
#
# 1 0.012556 -0.004873 -0.003305 0.000000 0.000000 -0.005821
# 2 -0.004873 0.012556 -0.003305 0.000000 0.000000 0.005821
# 3 -0.003305 -0.003305 0.017448 0.000000 0.000000 0.000000
# 4 0.000000 0.000000 0.000000 0.038992 0.000000 0.000000
# 5 0.000000 0.000000 0.000000 0.000000 0.038992 0.000000
# 6 -0.005821 0.005821 0.000000 0.000000 0.000000 0.022311
#
#
# Mechanical properties :
#
#
# Convention : Reuss Voigt Hill
#
# Bulk Modulus (GPa) = 51.03152 55.25009 53.14080
# Shear Modulus (GPa) = 29.01026 33.88355 31.44691
#
# Velocity S-wave (km/s) = 3.46592 3.74574 3.60854
# Velocity P-wave (km/s) = 6.09492 6.44868 6.27429
#
# Compressibility (1/GPa) = 0.01959573
#
# Stress axis : x y z
#
# Youngs Moduli (GPa) = 79.64141 79.64141 57.31275
#
# Poissons Ratio (x) = 0.38813 0.18939
# Poissons Ratio (y) = 0.38813 0.18939
# Poissons Ratio (z) = 0.26318 0.26318
#
# Static dielectric constant tensor:
#      x y z
#    x 2.012960 0.000000 0.000000 
#    y 0.000000 2.012960 0.000000 
#    z 0.000000 0.000000 1.918520 
# 
# From -- ./inp_files/4425.got.cif
#   From: 2010.05.17/outbox.cif.g08.bks.cpg/sg88_3_cif.got.tgz:4425.got - 2010.06.03 19:11:41.
