data_PCOD9546165
_publ_section_title
;
Structure prediction by ZEFSAII (Michael W. Deem and Ramdas Pophale) SiO2 
 PCOD9546165
Probable space group: I 4/M
;
_chemical_formula_sum "Si O2"
_cell_formula_units_Z 64
_cell_length_a 15.948473
_cell_length_b 15.948473
_cell_length_c 14.228744
_cell_angle_alpha 90.000000
_cell_angle_beta 90.000000
_cell_angle_gamma 90.000000
_cell_volume 3619.134978
_symmetry_space_group_name_H-M "I 4/M"
_symmetry_group_IT_number 87
_symmetry_cell_setting 'tetragonal'
loop_
_space_group_symop_operation_xyz
x,y,z
-y,x,z
-x,-y,z
y,-x,z
-x,-y,-z
y,-x,-z
x,y,-z
-y,x,-z
1/2+x,1/2+y,1/2+z
1/2-y,1/2+x,1/2+z
1/2-x,1/2-y,1/2+z
1/2+y,1/2-x,1/2+z
1/2-x,1/2-y,1/2-z
1/2+y,1/2-x,1/2-z
1/2+x,1/2+y,1/2-z
1/2-y,1/2+x,1/2-z
loop_
_atom_site_type_symbol
_atom_site_label
_atom_site_fract_x
_atom_site_fract_y
_atom_site_fract_z
Si Si1 0.082113 0.380265 0.388099
Si Si2 0.258915 0.848512 0.236281
Si Si3 0.109673 0.564859 0.611221
Si Si4 0.882171 0.078109 0.107070
O O1 0.094454 0.369011 0.500000
O O2 0.111025 0.299507 0.330224
O O3 0.125873 0.468281 0.357540
O O4 0.984986 0.404348 0.371526
O O5 0.250000 0.750000 0.250000
O O6 0.328487 0.871723 0.159541
O O7 0.174665 0.886160 0.190523
O O8 0.120604 0.563587 0.500000
O O9 0.977200 0.112135 0.113591
O O10 0.851633 0.098419 0.000000
#
# Coordination Sequence:
#
# PCOD9546165 Si02
#       4
#    16  16  16  16
#     4   9  20  38  59  81 114 152 185 228 288 349
#     4  12  24  32  55  91 117 144 186 237 285 328
#     4   9  19  38  60  82 110 150 189 231 290 345
#     4   9  21  42  63  82 110 152 196 236 280 331
#
# _framework density 17.683783999999999
#
# number of rings (size 3 to 8) (size 9 to 14) (size 15 to 20)
#    0.000    2.250    0.000    4.500    7.000    4.000 
#    0.000    0.000    0.000    0.000    0.000    1.750 
#    0.000    0.000    0.000    0.000    0.000    0.000 
#
# Total GULP energy -178425.765515 kJ/mol
# GULP energy per Si atom -5575.805172 kJ/mol
# Density = 1.764354 g / cm^3
# Si number density = 17.683784 Si / 1000 Ang^3
#
#
#
# Elastic Constant Matrix: (Units=GPa)
#
#
# Indices 1 2 3 4 5 6 
#
# 1 75.7404 49.1223 47.1879 0.0000 0.0000 -2.0110
# 2 49.1223 75.7404 47.1879 0.0000 0.0000 2.0110
# 3 47.1879 47.1879 102.7495 0.0000 0.0000 0.0000
# 4 0.0000 0.0000 0.0000 46.5841 0.0000 0.0000
# 5 0.0000 0.0000 0.0000 0.0000 46.5841 0.0000
# 6 -2.0110 2.0110 0.0000 0.0000 0.0000 21.8220
#
#
#
# Elastic Compliance Matrix: (Units=1/GPa)
#
#
# Indices 1 2 3 4 5 6 
#
# 1 0.025183 -0.012916 -0.005634 0.000000 0.000000 0.003511
# 2 -0.012916 0.025183 -0.005634 0.000000 0.000000 -0.003511
# 3 -0.005634 -0.005634 0.014907 0.000000 0.000000 0.000000
# 4 0.000000 0.000000 0.000000 0.021467 0.000000 0.000000
# 5 0.000000 0.000000 0.000000 0.000000 0.021467 0.000000
# 6 0.003511 -0.003511 0.000000 0.000000 0.000000 0.046472
#
#
# Mechanical properties :
#
#
# Convention : Reuss Voigt Hill
#
# Bulk Modulus (GPa) = 59.14963 60.13628 59.64296
# Shear Modulus (GPa) = 23.96012 30.38019 27.17015
#
# Velocity S-wave (km/s) = 3.68492 4.14934 3.92400
# Velocity P-wave (km/s) = 7.18512 7.55224 7.37096
#
# Compressibility (1/GPa) = 0.01690628
#
# Stress axis : x y z
#
# Youngs Moduli (GPa) = 39.70946 39.70946 67.08316
#
# Poissons Ratio (x) = 0.51289 0.37792
# Poissons Ratio (y) = 0.51289 0.37792
# Poissons Ratio (z) = 0.22371 0.22371
#
# Static dielectric constant tensor:
#      x y z
#    x 1.574140 0.000000 0.000000 
#    y 0.000000 1.574140 0.000000 
#    z 0.000000 0.000000 1.630210 
# 
# From -- ./inp_files/3353.got.cif
#   From: 2010.05.17/outbox.cif.g08.bks.cpg/sg87_2_cif.got.tgz:3353.got - 2010.06.03 19:07:00.
