data_PCOD9546787
_publ_section_title
;
Structure prediction by ZEFSAII (Michael W. Deem and Ramdas Pophale) SiO2 
 PCOD9546787
Probable space group: I 41/A
;
_chemical_formula_sum "Si O2"
_cell_formula_units_Z 52
_cell_length_a 16.155896
_cell_length_b 16.155896
_cell_length_c 9.616905
_cell_angle_alpha 90.000000
_cell_angle_beta 90.000000
_cell_angle_gamma 90.000000
_cell_volume 2510.136990
_symmetry_space_group_name_H-M "I 41/A"
_symmetry_group_IT_number 88
_space_group.IT_coordinate_system_code '2'
_symmetry_cell_setting 'tetragonal'
loop_
_space_group_symop_operation_xyz
x,y,z
3/4-y,1/4+x,1/4+z
-x,1/2-y,z
1/4+y,1/4-x,1/4+z
-x,-y,-z
1/4+y,3/4-x,3/4-z
x,1/2+y,-z
3/4-y,3/4+x,3/4-z
1/2+x,1/2+y,1/2+z
1/4-y,3/4+x,3/4+z
1/2-x,-y,1/2+z
3/4+y,3/4-x,3/4+z
1/2-x,1/2-y,1/2-z
3/4+y,1/4-x,1/4-z
1/2+x,y,1/2-z
1/4-y,1/4+x,1/4-z
loop_
_atom_site_type_symbol
_atom_site_label
_atom_site_fract_x
_atom_site_fract_y
_atom_site_fract_z
Si Si1 0.129874 0.202696 0.605779
Si Si2 0.516845 0.087201 0.567954
Si Si3 0.500000 0.250000 0.375000
Si Si4 0.327018 0.553844 0.959355
O O1 0.101729 0.296018 0.639089
O O2 0.157304 0.204537 0.447326
O O3 0.196946 0.165245 0.710852
O O4 0.506994 0.167754 0.470591
O O5 0.609456 0.081674 0.627652
O O6 0.500000 0.000000 0.500000
O O7 0.307496 0.486839 0.839954
#
# Coordination Sequence:
#
# PCOD9546787 Si02
#       4
#    16  16   4  16
#     4   9  20  41  65  89 122 169 222 269 338 420
#     4  11  24  40  67  98 133 178 227 276 352 407
#     4  12  24  44  70 104 152 172 230 304 336 420
#     4  11  25  41  63  93 134 176 224 283 343 409
#
# _framework density 20.716000000000001
#
# number of rings (size 3 to 8) (size 9 to 14) (size 15 to 20)
#    0.000    1.538    0.000    5.538    4.308    7.385 
#    0.000    0.000    0.000    0.000    0.000    0.000 
#    0.000    0.000    0.000    0.000    0.000    0.000 
#
# Total GULP energy -145091.620951 kJ/mol
# GULP energy per Si atom -5580.446960 kJ/mol
# Density = 2.066885 g / cm^3
# Si number density = 20.716000 Si / 1000 Ang^3
#
#
#
# Elastic Constant Matrix: (Units=GPa)
#
#
# Indices 1 2 3 4 5 6 
#
# 1 105.9697 43.0645 78.5170 0.0000 0.0000 -6.9566
# 2 43.0645 105.9697 78.5170 0.0000 0.0000 6.9566
# 3 78.5170 78.5170 175.8736 0.0000 0.0000 0.0000
# 4 0.0000 0.0000 0.0000 43.5436 0.0000 0.0000
# 5 0.0000 0.0000 0.0000 0.0000 43.5436 0.0000
# 6 -6.9566 6.9566 0.0000 0.0000 0.0000 18.1452
#
#
#
# Elastic Compliance Matrix: (Units=1/GPa)
#
#
# Indices 1 2 3 4 5 6 
#
# 1 0.015020 -0.002350 -0.005656 0.000000 0.000000 0.006659
# 2 -0.002350 0.015020 -0.005656 0.000000 0.000000 -0.006659
# 3 -0.005656 -0.005656 0.010736 0.000000 0.000000 0.000000
# 4 0.000000 0.000000 0.000000 0.022966 0.000000 0.000000
# 5 0.000000 0.000000 0.000000 0.000000 0.022966 0.000000
# 6 0.006659 -0.006659 0.000000 0.000000 0.000000 0.060217
#
#
# Mechanical properties :
#
#
# Convention : Reuss Voigt Hill
#
# Bulk Modulus (GPa) = 74.34571 87.55667 80.95119
# Shear Modulus (GPa) = 27.97472 33.56077 30.76775
#
# Velocity S-wave (km/s) = 3.67875 4.02934 3.85803
# Velocity P-wave (km/s) = 7.34917 8.00028 7.68163
#
# Compressibility (1/GPa) = 0.01345067
#
# Stress axis : x y z
#
# Youngs Moduli (GPa) = 66.57877 66.57877 93.14200
#
# Poissons Ratio (x) = 0.15646 0.52684
# Poissons Ratio (y) = 0.15646 0.52684
# Poissons Ratio (z) = 0.37659 0.37659
#
# Static dielectric constant tensor:
#      x y z
#    x 1.716150 0.000000 0.000000 
#    y 0.000000 1.716150 0.000000 
#    z 0.000000 0.000000 1.902190 
# 
# From -- ./inp_files/1203.got.cif
#   From: 2010.05.17/outbox.cif.g08.bks.cpg/sg88_1_cif.got.tgz:1203.got - 2010.06.03 19:11:41.
