data_PCOD9546905
_publ_section_title
;
Structure prediction by ZEFSAII (Michael W. Deem and Ramdas Pophale) SiO2 
 PCOD9546905
Probable space group: P 4 2 2
;
_chemical_formula_sum "Si O2"
_cell_formula_units_Z 48
_cell_length_a 17.450394
_cell_length_b 17.450394
_cell_length_c 7.770693
_cell_angle_alpha 90.000000
_cell_angle_beta 90.000000
_cell_angle_gamma 90.000000
_cell_volume 2366.302298
_symmetry_space_group_name_H-M "P 4 2 2"
_symmetry_group_IT_number 89
_symmetry_cell_setting 'tetragonal'
loop_
_space_group_symop_operation_xyz
x,y,z
-y,x,z
-x,-y,z
y,-x,z
x,-y,-z
-x,y,-z
y,x,-z
-y,-x,-z
loop_
_atom_site_type_symbol
_atom_site_label
_atom_site_fract_x
_atom_site_fract_y
_atom_site_fract_z
Si Si1 0.227961 0.781611 0.806622
Si Si2 0.327407 0.079704 0.214300
Si Si3 0.298122 0.502372 0.194657
Si Si4 0.338025 0.663949 0.688510
Si Si5 0.504828 0.117294 0.803049
Si Si6 0.330403 0.906693 0.204853
O O1 0.264914 0.857931 0.723735
O O2 0.301354 0.725149 0.815848
O O3 0.159540 0.727994 0.733661
O O4 0.200105 0.799896 0.000000
O O5 0.416068 0.086477 0.277715
O O6 0.303831 0.992434 0.247659
O O7 0.332926 0.095532 0.006247
O O8 0.308532 0.419832 0.273697
O O9 0.336422 0.570875 0.297273
O O10 0.207980 0.518541 0.189541
O O11 0.328276 0.500000 0.000000
O O12 0.312144 0.687857 0.500000
O O13 0.418683 0.104552 0.732724
O O14 0.500000 0.087721 0.000000
#
# Coordination Sequence:
#
# PCOD9546905 Si02
#       6
#     8   8   8   8   8   8
#     4  10  18  32  53  76 102 140 182 217 263 323
#     4   9  16  26  45  76 107 133 172 223 265 309
#     4  11  21  37  58  77  99 138 186 224 256 307
#     4  12  24  37  53  78 109 141 176 219 270 313
#     4   9  15  25  47  75 101 126 165 216 264 307
#     4   9  16  26  45  76 107 133 172 223 265 309
#
# _framework density 20.284814999999998
#
# number of rings (size 3 to 8) (size 9 to 14) (size 15 to 20)
#    0.000    2.000    3.333    2.500    0.000    2.333 
#    0.000    1.667    0.000    1.500    0.000    5.833 
#    0.000    0.000    0.000    1.500    0.000    1.667 
#
# Total GULP energy -267575.480514 kJ/mol
# GULP energy per Si atom -5574.489177 kJ/mol
# Density = 2.023865 g / cm^3
# Si number density = 20.284815 Si / 1000 Ang^3
#
#
#
# Elastic Constant Matrix: (Units=GPa)
#
#
# Indices 1 2 3 4 5 6 
#
# 1 119.5436 56.4861 -3.9064 0.0000 0.0000 0.0000
# 2 56.4861 119.5437 -3.9067 0.0000 0.0000 0.0000
# 3 -3.9064 -3.9067 38.9548 0.0000 0.0000 0.0000
# 4 0.0000 0.0000 0.0000 -10.3097 0.0000 0.0000
# 5 0.0000 0.0000 0.0000 0.0000 -10.3094 0.0000
# 6 0.0000 0.0000 0.0000 0.0000 0.0000 36.7869
#
#
#
# Elastic Compliance Matrix: (Units=1/GPa)
#
#
# Indices 1 2 3 4 5 6 
#
# 1 0.010782 -0.005076 0.000572 0.000000 0.000000 0.000000
# 2 -0.005076 0.010782 0.000572 0.000000 0.000000 0.000000
# 3 0.000572 0.000572 0.025786 0.000000 0.000000 0.000000
# 4 0.000000 0.000000 0.000000 -0.096996 0.000000 0.000000
# 5 0.000000 0.000000 0.000000 0.000000 -0.096998 0.000000
# 6 0.000000 0.000000 0.000000 0.000000 0.000000 0.027184
#
#
# Mechanical properties :
#
#
# Convention : Reuss Voigt Hill
#
# Bulk Modulus (GPa) = 25.32475 41.70981 33.51728
# Shear Modulus (GPa) = -50.79517 18.52482 -16.13518
#
# Velocity S-wave (km/s) = -5.00953 3.02526 -2.82340
# Velocity P-wave (km/s) = 4.57698 5.72797 2.43525
#
# Compressibility (1/GPa) = 0.03948706
#
# Stress axis : x y z
#
# Youngs Moduli (GPa) = 92.74380 92.74380 38.78136
#
# Poissons Ratio (x) = 0.47078 -0.02219
# Poissons Ratio (y) = 0.47078 -0.02219
# Poissons Ratio (z) = -0.05307 -0.05308
#
# Static dielectric constant tensor:
#      x y z
#    x 1.713610 0.000000 0.000000 
#    y 0.000000 1.713610 0.000000 
#    z 0.000000 0.000000 1.767040 
# 
# From -- ./inp_files/1202.got.cif
#   From: 2010.05.17/outbox.cif.g08.bks.cpg/sg89_1_cif.got.tgz:1202.got - 2010.06.03 19:15:31.
