data_PCOD9546815
_publ_section_title
;
Structure prediction by ZEFSAII (Michael W. Deem and Ramdas Pophale) SiO2 
 PCOD9546815
Probable space group: I 41/A
;
_chemical_formula_sum "Si O2"
_cell_formula_units_Z 48
_cell_length_a 9.402090
_cell_length_b 9.402090
_cell_length_c 20.231510
_cell_angle_alpha 90.000000
_cell_angle_beta 90.000000
_cell_angle_gamma 90.000000
_cell_volume 1788.451248
_symmetry_space_group_name_H-M "I 41/A"
_symmetry_group_IT_number 88
_space_group.IT_coordinate_system_code '2'
_symmetry_cell_setting 'tetragonal'
loop_
_space_group_symop_operation_xyz
x,y,z
3/4-y,1/4+x,1/4+z
-x,1/2-y,z
1/4+y,1/4-x,1/4+z
-x,-y,-z
1/4+y,3/4-x,3/4-z
x,1/2+y,-z
3/4-y,3/4+x,3/4-z
1/2+x,1/2+y,1/2+z
1/4-y,3/4+x,3/4+z
1/2-x,-y,1/2+z
3/4+y,3/4-x,3/4+z
1/2-x,1/2-y,1/2-z
3/4+y,1/4-x,1/4-z
1/2+x,y,1/2-z
1/4-y,1/4+x,1/4-z
loop_
_atom_site_type_symbol
_atom_site_label
_atom_site_fract_x
_atom_site_fract_y
_atom_site_fract_z
Si Si1 0.661503 0.722376 0.527216
Si Si2 0.592350 0.109828 0.956849
Si Si3 0.372257 0.632786 0.859269
O O1 0.500000 0.750000 0.545269
O O2 0.758159 0.840232 0.488950
O O3 0.359824 0.894344 0.468608
O O4 0.774205 0.646524 0.361133
O O5 0.500000 0.250000 0.954257
O O6 0.752768 0.814414 0.906851
O O7 0.500000 0.000000 0.000000
O O8 0.500000 0.750000 0.866929
#
# Coordination Sequence:
#
# PCOD9546815 Si02
#       3
#    16  16  16
#     4  11  26  47  84 120 170 219 283 356 434 507
#     4  12  23  45  81 112 160 218 284 348 406 518
#     4  11  25  50  81 124 163 222 289 346 426 516
#
# _framework density 26.838864999999998
#
# number of rings (size 3 to 8) (size 9 to 14) (size 15 to 20)
#    0.000    0.667    6.667    0.000    4.667    2.667 
#    0.000    0.000   14.667    0.000    0.000    0.000 
#    0.000    0.000    0.000    0.000    0.000    0.000 
#
# Total GULP energy -134487.028502 kJ/mol
# GULP energy per Si atom -5603.626188 kJ/mol
# Density = 2.677778 g / cm^3
# Si number density = 26.838865 Si / 1000 Ang^3
#
#
#
# Elastic Constant Matrix: (Units=GPa)
#
#
# Indices 1 2 3 4 5 6 
#
# 1 221.3749 102.1408 71.0394 0.0000 0.0000 6.0262
# 2 102.1408 221.3749 71.0394 0.0000 0.0000 -6.0262
# 3 71.0394 71.0394 159.6751 0.0000 0.0000 0.0000
# 4 0.0000 0.0000 0.0000 47.8311 0.0000 0.0000
# 5 0.0000 0.0000 0.0000 0.0000 47.8311 0.0000
# 6 6.0262 -6.0262 0.0000 0.0000 0.0000 29.0366
#
#
#
# Elastic Compliance Matrix: (Units=1/GPa)
#
#
# Indices 1 2 3 4 5 6 
#
# 1 0.006204 -0.002362 -0.001709 0.000000 0.000000 -0.001778
# 2 -0.002362 0.006204 -0.001709 0.000000 0.000000 0.001778
# 3 -0.001709 -0.001709 0.007784 0.000000 0.000000 0.000000
# 4 0.000000 0.000000 0.000000 0.020907 0.000000 0.000000
# 5 0.000000 0.000000 0.000000 0.000000 0.020907 0.000000
# 6 -0.001778 0.001778 0.000000 0.000000 0.000000 0.035177
#
#
# Mechanical properties :
#
#
# Convention : Reuss Voigt Hill
#
# Bulk Modulus (GPa) = 115.87186 121.20711 118.53948
# Shear Modulus (GPa) = 44.79442 48.82013 46.80727
#
# Velocity S-wave (km/s) = 4.08979 4.26961 4.18067
# Velocity P-wave (km/s) = 8.09745 8.34057 8.21991
#
# Compressibility (1/GPa) = 0.00863022
#
# Stress axis : x y z
#
# Youngs Moduli (GPa) = 161.18348 161.18348 128.47664
#
# Poissons Ratio (x) = 0.38079 0.21959
# Poissons Ratio (y) = 0.38079 0.21959
# Poissons Ratio (z) = 0.27549 0.27549
#
# Static dielectric constant tensor:
#      x y z
#    x 2.195120 0.000000 0.000000 
#    y 0.000000 2.195120 0.000000 
#    z 0.000000 0.000000 2.106940 
# 
# From -- ./inp_files/6102.got.cif
#   From: 2010.05.17/outbox.cif.g08.bks.cpg/sg88_4_cif.got.tgz:6102.got - 2010.06.03 19:11:41.
