data_PCOD9546947
_publ_section_title
;
Structure prediction by ZEFSAII (Michael W. Deem and Ramdas Pophale) SiO2 
 PCOD9546947
Probable space group: P 4 2 2
;
_chemical_formula_sum "Si O2"
_cell_formula_units_Z 52
_cell_length_a 17.510509
_cell_length_b 17.510509
_cell_length_c 7.991466
_cell_angle_alpha 90.000000
_cell_angle_beta 90.000000
_cell_angle_gamma 90.000000
_cell_volume 2450.326726
_symmetry_space_group_name_H-M "P 4 2 2"
_symmetry_group_IT_number 89
_symmetry_cell_setting 'tetragonal'
loop_
_space_group_symop_operation_xyz
x,y,z
-y,x,z
-x,-y,z
y,-x,z
x,-y,-z
-x,y,-z
y,x,-z
-y,-x,-z
loop_
_atom_site_type_symbol
_atom_site_label
_atom_site_fract_x
_atom_site_fract_y
_atom_site_fract_z
Si Si1 0.200822 0.567173 0.606253
Si Si2 0.525581 0.920553 0.188350
Si Si3 0.092390 0.907611 0.000000
Si Si4 0.806574 0.152619 0.692453
Si Si5 0.705403 0.301689 0.700626
Si Si6 0.573229 0.598200 0.198465
Si Si7 0.924067 0.660663 0.608640
O O1 0.241985 0.500000 0.500000
O O2 0.144124 0.516418 0.712800
O O3 0.247577 0.620759 0.730277
O O4 0.147976 0.625609 0.495738
O O5 0.614774 0.920264 0.218332
O O6 0.500000 0.000000 0.267864
O O7 0.500000 0.918197 0.000000
O O8 0.131912 0.869617 0.834167
O O9 0.000000 0.895171 0.000000
O O10 0.833510 0.166491 0.500000
O O11 0.754234 0.226668 0.747941
O O12 0.747374 0.084522 0.661371
O O13 0.699811 0.300190 0.500000
O O14 0.621549 0.325038 0.763984
O O15 0.485348 0.603252 0.260285
O O16 0.583570 0.583570 0.000000
O O17 0.000000 0.648867 0.500000
#
# Coordination Sequence:
#
# PCOD9546947 Si02
#       7
#     8   8   4   8   8   8   8
#     4  10  21  37  59  88 129 175 220 273 332 405
#     4  10  21  37  58  93 132 175 229 273 322 404
#     4  11  30  56  80 112 144 175 232 298 358 455
#     4  11  26  47  74 108 144 181 229 290 374 438
#     4  11  23  39  61  95 134 166 225 286 346 407
#     4   9  21  41  62  87 127 185 242 290 346 404
#     4  11  21  40  66  95 133 183 225 273 342 419
#
# _framework density 21.221658999999999
#
# number of rings (size 3 to 8) (size 9 to 14) (size 15 to 20)
#    0.000    1.615    4.615    0.462    5.385    1.231 
#    5.538    1.538    0.000    0.000    0.000    0.000 
#    0.000    0.000    0.000    0.000    0.000    0.000 
#
# Total GULP energy -289539.306684 kJ/mol
# GULP energy per Si atom -5568.063590 kJ/mol
# Density = 2.117336 g / cm^3
# Si number density = 21.221659 Si / 1000 Ang^3
#
#
#
# Elastic Constant Matrix: (Units=GPa)
#
#
# Indices 1 2 3 4 5 6 
#
# 1 87.7182 42.9760 41.7883 0.0000 0.0000 0.0000
# 2 42.9760 87.7185 41.7886 0.0000 0.0000 0.0000
# 3 41.7883 41.7886 79.7294 0.0000 0.0000 0.0000
# 4 0.0000 0.0000 0.0000 25.7238 0.0000 0.0000
# 5 0.0000 0.0000 0.0000 0.0000 25.7243 0.0000
# 6 0.0000 0.0000 0.0000 0.0000 0.0000 33.1004
#
#
#
# Elastic Compliance Matrix: (Units=1/GPa)
#
#
# Indices 1 2 3 4 5 6 
#
# 1 0.016930 -0.005421 -0.006032 0.000000 0.000000 0.000000
# 2 -0.005421 0.016930 -0.006032 0.000000 0.000000 0.000000
# 3 -0.006032 -0.006032 0.018866 0.000000 0.000000 0.000000
# 4 0.000000 0.000000 0.000000 0.038874 0.000000 0.000000
# 5 0.000000 0.000000 0.000000 0.000000 0.038874 0.000000
# 6 0.000000 0.000000 0.000000 0.000000 0.000000 0.030211
#
#
# Mechanical properties :
#
#
# Convention : Reuss Voigt Hill
#
# Bulk Modulus (GPa) = 56.32253 56.47466 56.39859
# Shear Modulus (GPa) = 24.80500 25.48391 25.14446
#
# Velocity S-wave (km/s) = 3.42256 3.46908 3.44590
# Velocity P-wave (km/s) = 6.49740 6.53572 6.51659
#
# Compressibility (1/GPa) = 0.01775489
#
# Stress axis : x y z
#
# Youngs Moduli (GPa) = 59.06829 59.06836 53.00636
#
# Poissons Ratio (x) = 0.32019 0.31974
# Poissons Ratio (y) = 0.32019 0.31974
# Poissons Ratio (z) = 0.35631 0.35631
#
# Static dielectric constant tensor:
#      x y z
#    x 1.854740 0.000000 0.000000 
#    y 0.000000 1.854740 0.000000 
#    z 0.000000 0.000000 1.721650 
# 
# From -- ./inp_files/1242.got.cif
#   From: 2010.05.17/outbox.cif.g08.bks.cpg/sg89_1_cif.got.tgz:1242.got - 2010.06.03 19:15:31.
