data_PCOD9546537
_publ_section_title
;
Structure prediction by ZEFSAII (Michael W. Deem and Ramdas Pophale) SiO2 
 PCOD9546537
Probable space group: I 41/A
;
_chemical_formula_sum "Si O2"
_cell_formula_units_Z 88
_cell_length_a 16.646226
_cell_length_b 16.646226
_cell_length_c 16.245039
_cell_angle_alpha 90.000000
_cell_angle_beta 90.000000
_cell_angle_gamma 90.000000
_cell_volume 4501.448973
_symmetry_space_group_name_H-M "I 41/A"
_symmetry_group_IT_number 88
_space_group.IT_coordinate_system_code '2'
_symmetry_cell_setting 'tetragonal'
loop_
_space_group_symop_operation_xyz
x,y,z
3/4-y,1/4+x,1/4+z
-x,1/2-y,z
1/4+y,1/4-x,1/4+z
-x,-y,-z
1/4+y,3/4-x,3/4-z
x,1/2+y,-z
3/4-y,3/4+x,3/4-z
1/2+x,1/2+y,1/2+z
1/4-y,3/4+x,3/4+z
1/2-x,-y,1/2+z
3/4+y,3/4-x,3/4+z
1/2-x,1/2-y,1/2-z
3/4+y,1/4-x,1/4-z
1/2+x,y,1/2-z
1/4-y,1/4+x,1/4-z
loop_
_atom_site_type_symbol
_atom_site_label
_atom_site_fract_x
_atom_site_fract_y
_atom_site_fract_z
Si Si1 0.069146 0.107361 0.025444
Si Si2 0.254963 0.439482 0.437743
Si Si3 0.500000 0.250000 0.875000
Si Si4 0.721166 0.269818 0.122183
Si Si5 0.000000 0.750000 0.875000
Si Si6 0.333342 0.066569 0.901281
Si Si7 0.174448 0.252727 0.567151
O O1 0.161974 0.081782 0.016918
O O2 0.054731 0.192790 0.068060
O O3 0.021821 0.100831 0.938828
O O4 0.032850 0.040713 0.087350
O O5 0.247543 0.362609 0.379848
O O6 0.180984 0.441681 0.501527
O O7 0.246885 0.522944 0.390338
O O8 0.497476 0.327940 0.818339
O O9 0.704066 0.248274 0.027201
O O10 0.423099 0.052647 0.868260
O O11 0.306532 0.160867 0.890326
#
# Coordination Sequence:
#
# PCOD9546537 Si02
#       7
#    16  16   4  16   4  16  16
#     4  11  23  40  60  91 118 169 204 252 307 366
#     4  11  21  39  62  90 126 166 202 258 313 363
#     4   8  16  38  64  84 124 150 196 244 316 358
#     4  10  22  39  60  85 125 157 207 252 307 365
#     4  12  24  42  64  88 124 162 216 248 300 378
#     4  10  22  38  63  90 125 163 206 253 312 372
#     4   9  20  39  61  90 118 163 198 258 307 365
#
# _framework density 19.549261000000001
#
# number of rings (size 3 to 8) (size 9 to 14) (size 15 to 20)
#    0.000    1.818    3.636    0.000    2.545    1.455 
#    0.000    0.000    0.000    0.000    0.000    0.000 
#    0.000    0.000    0.000    0.000    0.000    0.000 
#
# Total GULP energy -244938.378418 kJ/mol
# GULP energy per Si atom -5566.781328 kJ/mol
# Density = 1.950477 g / cm^3
# Si number density = 19.549261 Si / 1000 Ang^3
#
#
#
# Elastic Constant Matrix: (Units=GPa)
#
#
# Indices 1 2 3 4 5 6 
#
# 1 46.9971 8.4246 9.3286 0.0000 0.0000 -4.5516
# 2 8.4246 46.9971 9.3286 0.0000 0.0000 4.5516
# 3 9.3286 9.3286 49.1536 0.0000 0.0000 0.0000
# 4 0.0000 0.0000 0.0000 19.8608 0.0000 0.0000
# 5 0.0000 0.0000 0.0000 0.0000 19.8608 0.0000
# 6 -4.5516 4.5516 0.0000 0.0000 0.0000 23.6989
#
#
#
# Elastic Compliance Matrix: (Units=1/GPa)
#
#
# Indices 1 2 3 4 5 6 
#
# 1 0.023216 -0.003941 -0.003658 0.000000 0.000000 0.005216
# 2 -0.003941 0.023216 -0.003658 0.000000 0.000000 -0.005216
# 3 -0.003658 -0.003658 0.021733 0.000000 0.000000 0.000000
# 4 0.000000 0.000000 0.000000 0.050350 0.000000 0.000000
# 5 0.000000 0.000000 0.000000 0.000000 0.050350 0.000000
# 6 0.005216 -0.005216 0.000000 0.000000 0.000000 0.044199
#
#
# Mechanical properties :
#
#
# Convention : Reuss Voigt Hill
#
# Bulk Modulus (GPa) = 21.90560 21.92348 21.91454
# Shear Modulus (GPa) = 19.93665 20.42184 20.17924
#
# Velocity S-wave (km/s) = 3.19692 3.23559 3.21631
# Velocity P-wave (km/s) = 4.98565 5.01971 5.00271
#
# Compressibility (1/GPa) = 0.04565043
#
# Stress axis : x y z
#
# Youngs Moduli (GPa) = 43.07462 43.07462 46.01323
#
# Poissons Ratio (x) = 0.16974 0.16832
# Poissons Ratio (y) = 0.16974 0.16832
# Poissons Ratio (z) = 0.15757 0.15757
#
# Static dielectric constant tensor:
#      x y z
#    x 1.706110 0.000000 0.000000 
#    y 0.000000 1.706110 0.000000 
#    z 0.000000 0.000000 1.718350 
# 
# From -- ./inp_files/3232.got.cif
#   From: 2010.05.17/outbox.cif.g08.bks.cpg/sg88_2_cif.got.tgz:3232.got - 2010.06.03 19:11:41.
