data_PCOD9546015
_publ_section_title
;
Structure prediction by ZEFSAII (Michael W. Deem and Ramdas Pophale) SiO2 
 PCOD9546015
Probable space group: I 4/M
;
_chemical_formula_sum "Si O2"
_cell_formula_units_Z 108
_cell_length_a 14.802699
_cell_length_b 14.802699
_cell_length_c 36.639665
_cell_angle_alpha 90.000000
_cell_angle_beta 90.000000
_cell_angle_gamma 90.000000
_cell_volume 8028.479646
_symmetry_space_group_name_H-M "I 4/M"
_symmetry_group_IT_number 87
_symmetry_cell_setting 'tetragonal'
loop_
_space_group_symop_operation_xyz
x,y,z
-y,x,z
-x,-y,z
y,-x,z
-x,-y,-z
y,-x,-z
x,y,-z
-y,x,-z
1/2+x,1/2+y,1/2+z
1/2-y,1/2+x,1/2+z
1/2-x,1/2-y,1/2+z
1/2+y,1/2-x,1/2+z
1/2-x,1/2-y,1/2-z
1/2+y,1/2-x,1/2-z
1/2+x,1/2+y,1/2-z
1/2-y,1/2+x,1/2-z
loop_
_atom_site_type_symbol
_atom_site_label
_atom_site_fract_x
_atom_site_fract_y
_atom_site_fract_z
Si Si1 0.913721 0.234389 0.344560
Si Si2 0.449731 0.645331 0.919706
Si Si3 0.154260 0.869324 0.778368
Si Si4 0.396405 0.138252 0.700404
Si Si5 0.790141 0.097382 0.696803
Si Si6 0.161785 0.404914 0.720323
Si Si7 0.049898 0.855637 0.500000
Si Si8 0.500000 0.500000 0.302825
O O1 0.926041 0.211834 0.386899
O O2 0.898290 0.338104 0.333147
O O3 0.831788 0.176230 0.327910
O O4 0.002881 0.199557 0.323540
O O5 0.389755 0.553547 0.916658
O O6 0.435393 0.686823 0.960202
O O7 0.257180 0.869281 0.792468
O O8 0.160431 0.900099 0.735997
O O9 0.113426 0.769003 0.779912
O O10 0.092898 0.938969 0.799926
O O11 0.504471 0.135610 0.699103
O O12 0.366036 0.086134 0.737213
O O13 0.684996 0.116082 0.704670
O O14 0.946689 0.890362 0.500000
#
# Coordination Sequence:
#
# PCOD9546015 Si02
#       8
#    16  16  16  16  16  16   8   4
#     4  12  20  30  44  67  92 116 149 185 226 261
#     4   9  16  27  43  67  94 122 145 172 216 267
#     4  11  19  33  45  63  81 106 149 196 236 271
#     4  11  21  34  48  58  81 116 152 196 233 266
#     4  11  22  31  44  63  87 114 146 193 229 265
#     4  11  21  35  46  56  81 115 155 188 233 274
#     4   7  12  24  42  62  92 123 145 164 201 268
#     4  12  20  28  52  68  68 100 156 194 236 280
#
# _framework density 13.452111
#
# number of rings (size 3 to 8) (size 9 to 14) (size 15 to 20)
#    0.000    1.407    5.926    4.444    0.000    2.370 
#    0.000    0.000    0.000    0.000    0.000    0.000 
#    0.000    3.556    0.000    0.000    0.000    0.741 
#
# Total GULP energy -300728.171831 kJ/mol
# GULP energy per Si atom -5569.040219 kJ/mol
# Density = 1.342149 g / cm^3
# Si number density = 13.452111 Si / 1000 Ang^3
#
#
#
# Elastic Constant Matrix: (Units=GPa)
#
#
# Indices 1 2 3 4 5 6 
#
# 1 61.3778 7.7320 22.5861 0.0000 0.0000 4.6349
# 2 7.7320 61.3778 22.5861 0.0000 0.0000 -4.6349
# 3 22.5861 22.5861 90.5438 0.0000 0.0000 0.0000
# 4 0.0000 0.0000 0.0000 14.5313 0.0000 0.0000
# 5 0.0000 0.0000 0.0000 0.0000 14.5313 0.0000
# 6 4.6349 -4.6349 0.0000 0.0000 0.0000 22.4290
#
#
#
# Elastic Compliance Matrix: (Units=1/GPa)
#
#
# Indices 1 2 3 4 5 6 
#
# 1 0.018310 -0.001021 -0.004313 0.000000 0.000000 -0.003995
# 2 -0.001021 0.018310 -0.004313 0.000000 0.000000 0.003995
# 3 -0.004313 -0.004313 0.013196 0.000000 0.000000 0.000000
# 4 0.000000 0.000000 0.000000 0.068817 0.000000 0.000000
# 5 0.000000 0.000000 0.000000 0.000000 0.068817 0.000000
# 6 -0.003995 0.003995 0.000000 0.000000 0.000000 0.046236
#
#
# Mechanical properties :
#
#
# Convention : Reuss Voigt Hill
#
# Bulk Modulus (GPa) = 32.76261 35.45644 34.10953
# Shear Modulus (GPa) = 19.00034 20.99132 19.99583
#
# Velocity S-wave (km/s) = 3.76233 3.95454 3.85963
# Velocity P-wave (km/s) = 6.57885 6.87502 6.72857
#
# Compressibility (1/GPa) = 0.03052260
#
# Stress axis : x y z
#
# Youngs Moduli (GPa) = 54.61547 54.61547 75.78080
#
# Poissons Ratio (x) = 0.05577 0.32682
# Poissons Ratio (y) = 0.05577 0.32682
# Poissons Ratio (z) = 0.23554 0.23554
#
# Static dielectric constant tensor:
#      x y z
#    x 1.461770 0.000000 0.000000 
#    y 0.000000 1.461770 0.000000 
#    z 0.000000 0.000000 1.431720 
# 
# From -- ./inp_files/6732.got.cif
#   From: 2010.05.17/outbox.cif.g08.bks.cpg/sg87_4_cif.got.tgz:6732.got - 2010.06.03 19:07:00.
