data_PCOD9546238
_publ_section_title
;
Structure prediction by ZEFSAII (Michael W. Deem and Ramdas Pophale) SiO2 
 PCOD9546238
Probable space group: I 41/A
;
_chemical_formula_sum "Si O2"
_cell_formula_units_Z 72
_cell_length_a 13.632782
_cell_length_b 13.632782
_cell_length_c 18.195480
_cell_angle_alpha 90.000000
_cell_angle_beta 90.000000
_cell_angle_gamma 90.000000
_cell_volume 3381.679906
_symmetry_space_group_name_H-M "I 41/A"
_symmetry_group_IT_number 88
_space_group.IT_coordinate_system_code '2'
_symmetry_cell_setting 'tetragonal'
loop_
_space_group_symop_operation_xyz
x,y,z
3/4-y,1/4+x,1/4+z
-x,1/2-y,z
1/4+y,1/4-x,1/4+z
-x,-y,-z
1/4+y,3/4-x,3/4-z
x,1/2+y,-z
3/4-y,3/4+x,3/4-z
1/2+x,1/2+y,1/2+z
1/4-y,3/4+x,3/4+z
1/2-x,-y,1/2+z
3/4+y,3/4-x,3/4+z
1/2-x,1/2-y,1/2-z
3/4+y,1/4-x,1/4-z
1/2+x,y,1/2-z
1/4-y,1/4+x,1/4-z
loop_
_atom_site_type_symbol
_atom_site_label
_atom_site_fract_x
_atom_site_fract_y
_atom_site_fract_z
Si Si1 0.387136 0.577488 0.814065
Si Si2 0.372446 0.419654 0.059205
Si Si3 0.000000 0.250000 0.859504
Si Si4 0.266968 0.994304 0.563105
Si Si5 0.010004 0.410274 0.627174
O O1 0.439272 0.676515 0.838778
O O2 0.309464 0.553717 0.879405
O O3 0.332928 0.575830 0.736254
O O4 0.464301 0.486715 0.814718
O O5 0.434781 0.320902 0.058588
O O6 0.313700 0.417121 0.136540
O O7 0.441775 0.516179 0.067804
O O8 0.295250 0.443082 0.995859
O O9 0.918020 0.343708 0.603391
#
# Coordination Sequence:
#
# PCOD9546238 Si02
#       5
#    16  16   8  16  16
#     4  10  22  41  58  89 120 163 197 250 293 362
#     4  10  22  41  58  89 120 163 197 250 293 362
#     4  10  24  38  60  92 116 156 220 242 290 358
#     4  10  20  42  62  82 126 160 194 246 312 346
#     4  10  18  35  56  89 130 154 178 235 296 377
#
# _framework density 21.291194000000001
#
# number of rings (size 3 to 8) (size 9 to 14) (size 15 to 20)
#    0.000    2.000    4.444    0.000    0.000    8.000 
#    8.000    0.000    0.000    5.333    0.000    0.000 
#    0.000    0.000    0.000    0.000    0.000    0.000 
#
# Total GULP energy -201145.717714 kJ/mol
# GULP energy per Si atom -5587.381048 kJ/mol
# Density = 2.124273 g / cm^3
# Si number density = 21.291194 Si / 1000 Ang^3
#
#
#
# Elastic Constant Matrix: (Units=GPa)
#
#
# Indices 1 2 3 4 5 6 
#
# 1 104.2147 35.4906 22.0574 0.0000 0.0000 0.6574
# 2 35.4906 104.2147 22.0574 0.0000 0.0000 -0.6574
# 3 22.0574 22.0574 100.8100 0.0000 0.0000 0.0000
# 4 0.0000 0.0000 0.0000 1.9454 0.0000 0.0000
# 5 0.0000 0.0000 0.0000 0.0000 1.9454 0.0000
# 6 0.6574 -0.6574 0.0000 0.0000 0.0000 49.2711
#
#
#
# Elastic Compliance Matrix: (Units=1/GPa)
#
#
# Indices 1 2 3 4 5 6 
#
# 1 0.011122 -0.003433 -0.001682 0.000000 0.000000 -0.000194
# 2 -0.003433 0.011122 -0.001682 0.000000 0.000000 0.000194
# 3 -0.001682 -0.001682 0.010656 0.000000 0.000000 0.000000
# 4 0.000000 0.000000 0.000000 0.514021 0.000000 0.000000
# 5 0.000000 0.000000 0.000000 0.000000 0.514020 0.000000
# 6 -0.000194 0.000194 0.000000 0.000000 0.000000 0.020301
#
#
# Mechanical properties :
#
#
# Convention : Reuss Voigt Hill
#
# Bulk Modulus (GPa) = 51.80109 52.05003 51.92556
# Shear Modulus (GPa) = 4.54020 25.94133 15.24077
#
# Velocity S-wave (km/s) = 1.46187 3.49436 2.67839
# Velocity P-wave (km/s) = 5.21843 6.38596 5.83149
#
# Compressibility (1/GPa) = 0.01930461
#
# Stress axis : x y z
#
# Youngs Moduli (GPa) = 89.91259 89.91259 93.84496
#
# Poissons Ratio (x) = 0.30865 0.15788
# Poissons Ratio (y) = 0.30865 0.15788
# Poissons Ratio (z) = 0.15127 0.15127
#
# Static dielectric constant tensor:
#      x y z
#    x 1.789920 0.000000 0.000000 
#    y 0.000000 1.789920 0.000000 
#    z 0.000000 0.000000 1.813320 
# 
# From -- ./inp_files/3784.got.cif
#   From: 2010.05.17/outbox.cif.g08.bks.cpg/sg88_2_cif.got.tgz:3784.got - 2010.06.03 19:11:41.
