data_PCOD9546672
_publ_section_title
;
Structure prediction by ZEFSAII (Michael W. Deem and Ramdas Pophale) SiO2 
 PCOD9546672
Probable space group: I 41/A
;
_chemical_formula_sum "Si O2"
_cell_formula_units_Z 52
_cell_length_a 20.617471
_cell_length_b 20.617471
_cell_length_c 5.034673
_cell_angle_alpha 90.000000
_cell_angle_beta 90.000000
_cell_angle_gamma 90.000000
_cell_volume 2140.139355
_symmetry_space_group_name_H-M "I 41/A"
_symmetry_group_IT_number 88
_space_group.IT_coordinate_system_code '2'
_symmetry_cell_setting 'tetragonal'
loop_
_space_group_symop_operation_xyz
x,y,z
3/4-y,1/4+x,1/4+z
-x,1/2-y,z
1/4+y,1/4-x,1/4+z
-x,-y,-z
1/4+y,3/4-x,3/4-z
x,1/2+y,-z
3/4-y,3/4+x,3/4-z
1/2+x,1/2+y,1/2+z
1/4-y,3/4+x,3/4+z
1/2-x,-y,1/2+z
3/4+y,3/4-x,3/4+z
1/2-x,1/2-y,1/2-z
3/4+y,1/4-x,1/4-z
1/2+x,y,1/2-z
1/4-y,1/4+x,1/4-z
loop_
_atom_site_type_symbol
_atom_site_label
_atom_site_fract_x
_atom_site_fract_y
_atom_site_fract_z
Si Si1 0.301662 0.084746 0.299928
Si Si2 0.448961 0.373854 0.662268
Si Si3 0.500000 0.250000 0.375000
Si Si4 0.961836 0.946489 0.664906
O O1 0.234833 0.075472 0.143922
O O2 0.356693 0.123906 0.138199
O O3 0.286736 0.136024 0.537020
O O4 0.468706 0.305262 0.555498
O O5 0.484573 0.425254 0.459386
O O6 0.463675 0.385365 0.967461
O O7 0.000000 0.000000 0.500000
#
# Coordination Sequence:
#
# PCOD9546672 Si02
#       4
#    16  16   4  16
#     4  10  26  43  72 107 145 190 244 306 372 443
#     4  10  27  44  72 105 148 189 250 306 368 448
#     4  12  28  50  76 110 148 206 252 310 380 450
#     4  10  24  46  74 103 146 193 247 308 374 438
#
# _framework density 24.297483
#
# number of rings (size 3 to 8) (size 9 to 14) (size 15 to 20)
#    1.846    0.000    0.000    0.923    8.615    6.154 
#    0.000    0.000    0.000    0.000    0.000    0.000 
#    0.000    0.000    0.000    0.000    0.000    0.000 
#
# Total GULP energy -145327.737571 kJ/mol
# GULP energy per Si atom -5589.528368 kJ/mol
# Density = 2.424218 g / cm^3
# Si number density = 24.297483 Si / 1000 Ang^3
#
#
#
# Elastic Constant Matrix: (Units=GPa)
#
#
# Indices 1 2 3 4 5 6 
#
# 1 91.3302 50.2817 5.9030 0.0000 0.0000 18.1071
# 2 50.2817 91.3302 5.9030 0.0000 0.0000 -18.1071
# 3 5.9030 5.9030 92.9687 0.0000 0.0000 0.0000
# 4 0.0000 0.0000 0.0000 15.1459 0.0000 0.0000
# 5 0.0000 0.0000 0.0000 0.0000 15.1459 0.0000
# 6 18.1071 -18.1071 0.0000 0.0000 0.0000 41.0476
#
#
#
# Elastic Compliance Matrix: (Units=1/GPa)
#
#
# Indices 1 2 3 4 5 6 
#
# 1 0.023491 -0.016392 -0.000451 0.000000 0.000000 -0.017593
# 2 -0.016392 0.023491 -0.000451 0.000000 0.000000 0.017593
# 3 -0.000451 -0.000451 0.010814 0.000000 0.000000 0.000000
# 4 0.000000 0.000000 0.000000 0.066024 0.000000 0.000000
# 5 0.000000 0.000000 0.000000 0.000000 0.066024 0.000000
# 6 -0.017593 0.017593 0.000000 0.000000 0.000000 0.039884
#
#
# Mechanical properties :
#
#
# Convention : Reuss Voigt Hill
#
# Bulk Modulus (GPa) = 43.08711 44.42271 43.75491
# Shear Modulus (GPa) = 18.37893 28.50398 23.44146
#
# Velocity S-wave (km/s) = 2.75328 3.42881 3.10944
# Velocity P-wave (km/s) = 5.28006 5.83079 5.56225
#
# Compressibility (1/GPa) = 0.02320880
#
# Stress axis : x y z
#
# Youngs Moduli (GPa) = 42.56968 42.56968 92.47658
#
# Poissons Ratio (x) = 0.69779 0.04168
# Poissons Ratio (y) = 0.69779 0.04168
# Poissons Ratio (z) = 0.01919 0.01919
#
# Static dielectric constant tensor:
#      x y z
#    x 1.971340 0.000000 0.000000 
#    y 0.000000 1.971340 0.000000 
#    z 0.000000 0.000000 1.740040 
# 
# From -- ./inp_files/428.got.cif
#   From: 2010.05.17/outbox.cif.g08.bks.cpg/sg88_1_cif.got.tgz:428.got - 2010.06.03 19:11:41.
