data_PCOD9546572
_publ_section_title
;
Structure prediction by ZEFSAII (Michael W. Deem and Ramdas Pophale) SiO2 
 PCOD9546572
Probable space group: I 41/A
;
_chemical_formula_sum "Si O2"
_cell_formula_units_Z 96
_cell_length_a 15.658746
_cell_length_b 15.658746
_cell_length_c 17.742224
_cell_angle_alpha 90.000000
_cell_angle_beta 90.000000
_cell_angle_gamma 90.000000
_cell_volume 4350.328145
_symmetry_space_group_name_H-M "I 41/A"
_symmetry_group_IT_number 88
_space_group.IT_coordinate_system_code '2'
_symmetry_cell_setting 'tetragonal'
loop_
_space_group_symop_operation_xyz
x,y,z
3/4-y,1/4+x,1/4+z
-x,1/2-y,z
1/4+y,1/4-x,1/4+z
-x,-y,-z
1/4+y,3/4-x,3/4-z
x,1/2+y,-z
3/4-y,3/4+x,3/4-z
1/2+x,1/2+y,1/2+z
1/4-y,3/4+x,3/4+z
1/2-x,-y,1/2+z
3/4+y,3/4-x,3/4+z
1/2-x,1/2-y,1/2-z
3/4+y,1/4-x,1/4-z
1/2+x,y,1/2-z
1/4-y,1/4+x,1/4-z
loop_
_atom_site_type_symbol
_atom_site_label
_atom_site_fract_x
_atom_site_fract_y
_atom_site_fract_z
Si Si1 0.496460 0.439712 0.365057
Si Si2 0.806211 0.398032 0.448654
Si Si3 0.949522 0.016844 0.577077
Si Si4 0.782986 0.583985 0.662817
Si Si5 0.875619 0.928817 0.390496
Si Si6 0.567847 0.683077 0.499754
O O1 0.428811 0.514425 0.348009
O O2 0.589660 0.477992 0.379513
O O3 0.473094 0.376914 0.434242
O O4 0.503803 0.383487 0.290669
O O5 0.886687 0.439138 0.403502
O O6 0.728799 0.467319 0.457263
O O7 0.848834 0.382726 0.530933
O O8 0.882280 0.093438 0.574327
O O9 0.027890 0.046217 0.627266
O O10 0.000000 0.000000 0.500000
O O11 0.824538 0.517284 0.605475
O O12 0.863545 0.629795 0.702189
O O13 0.500000 0.750000 0.464076
#
# Coordination Sequence:
#
# PCOD9546572 Si02
#       6
#    16  16  16  16  16  16
#     4  12  22  42  64  97 137 177 224 277 341 408
#     4  10  22  41  67  93 132 180 217 279 338 400
#     4   9  21  42  65  94 128 166 222 277 327 397
#     4  11  24  39  66  95 132 179 231 269 335 411
#     4  10  22  43  67  95 132 173 228 279 337 403
#     4  12  23  41  63  96 141 175 223 286 332 402
#
# _framework density 22.067302000000002
#
# number of rings (size 3 to 8) (size 9 to 14) (size 15 to 20)
#    0.000    1.333    3.333    1.500    4.667    1.667 
#    0.000    0.000    0.000    0.000    0.000    0.000 
#    0.000    0.000    0.000    0.000    0.000    0.000 
#
# Total GULP energy -267482.887892 kJ/mol
# GULP energy per Si atom -5572.560164 kJ/mol
# Density = 2.201708 g / cm^3
# Si number density = 22.067302 Si / 1000 Ang^3
#
#
#
# Elastic Constant Matrix: (Units=GPa)
#
#
# Indices 1 2 3 4 5 6 
#
# 1 120.2031 69.7477 17.1440 0.0000 0.0000 -2.1452
# 2 69.7477 120.2031 17.1440 -0.0001 0.0000 2.1452
# 3 17.1440 17.1440 25.0359 0.0000 0.0000 0.0000
# 4 0.0000 -0.0001 0.0000 161.5225 0.0000 0.0000
# 5 0.0000 0.0000 0.0000 0.0000 161.5224 0.0000
# 6 -2.1452 2.1452 0.0000 0.0000 0.0000 26.5388
#
#
#
# Elastic Compliance Matrix: (Units=1/GPa)
#
#
# Indices 1 2 3 4 5 6 
#
# 1 0.012982 -0.006975 -0.004113 0.000000 0.000000 0.001613
# 2 -0.006975 0.012982 -0.004113 0.000000 0.000000 -0.001613
# 3 -0.004113 -0.004113 0.045576 0.000000 0.000000 0.000000
# 4 0.000000 0.000000 0.000000 0.006191 0.000000 0.000000
# 5 0.000000 0.000000 0.000000 0.000000 0.006191 0.000000
# 6 0.001613 -0.001613 0.000000 0.000000 0.000000 0.037941
#
#
# Mechanical properties :
#
#
# Convention : Reuss Voigt Hill
#
# Bulk Modulus (GPa) = 24.30934 52.61263 38.46099
# Shear Modulus (GPa) = 30.12423 80.67717 55.40070
#
# Velocity S-wave (km/s) = 3.69874 6.05301 5.01596
# Velocity P-wave (km/s) = 5.41118 8.52910 7.14235
#
# Compressibility (1/GPa) = 0.04113644
#
# Stress axis : x y z
#
# Youngs Moduli (GPa) = 77.03067 77.03067 21.94122
#
# Poissons Ratio (x) = 0.53727 0.09026
# Poissons Ratio (y) = 0.53727 0.09026
# Poissons Ratio (z) = 0.31687 0.31687
#
# Static dielectric constant tensor:
#      x y z
#    x 1.866090 0.000000 0.000000 
#    y 0.000000 1.866090 0.000000 
#    z 0.000000 0.000000 1.896400 
# 
# From -- ./inp_files/4731.got.cif
#   From: 2010.05.17/outbox.cif.g08.bks.cpg/sg88_3_cif.got.tgz:4731.got - 2010.06.03 19:11:41.
