data_PCOD9546757
_publ_section_title
;
Structure prediction by ZEFSAII (Michael W. Deem and Ramdas Pophale) SiO2 
 PCOD9546757
Probable space group: I 41/A
;
_chemical_formula_sum "Si O2"
_cell_formula_units_Z 112
_cell_length_a 23.709838
_cell_length_b 23.709838
_cell_length_c 11.202059
_cell_angle_alpha 90.000000
_cell_angle_beta 90.000000
_cell_angle_gamma 90.000000
_cell_volume 6297.309362
_symmetry_space_group_name_H-M "I 41/A"
_symmetry_group_IT_number 88
_space_group.IT_coordinate_system_code '2'
_symmetry_cell_setting 'tetragonal'
loop_
_space_group_symop_operation_xyz
x,y,z
3/4-y,1/4+x,1/4+z
-x,1/2-y,z
1/4+y,1/4-x,1/4+z
-x,-y,-z
1/4+y,3/4-x,3/4-z
x,1/2+y,-z
3/4-y,3/4+x,3/4-z
1/2+x,1/2+y,1/2+z
1/4-y,3/4+x,3/4+z
1/2-x,-y,1/2+z
3/4+y,3/4-x,3/4+z
1/2-x,1/2-y,1/2-z
3/4+y,1/4-x,1/4-z
1/2+x,y,1/2-z
1/4-y,1/4+x,1/4-z
loop_
_atom_site_type_symbol
_atom_site_label
_atom_site_fract_x
_atom_site_fract_y
_atom_site_fract_z
Si Si1 0.674416 0.798744 0.949814
Si Si2 0.748576 0.877004 0.097005
Si Si3 0.777558 0.404922 0.643351
Si Si4 0.083193 0.406478 0.802421
Si Si5 0.926300 0.694752 0.367697
Si Si6 0.683536 0.079584 0.253605
Si Si7 0.358749 0.938457 0.490844
O O1 0.673728 0.731821 0.931533
O O2 0.674507 0.833554 0.826834
O O3 0.726385 0.821912 0.029326
O O4 0.619527 0.814100 0.029239
O O5 0.701831 0.925838 0.072749
O O6 0.754484 0.873382 0.239849
O O7 0.809181 0.897557 0.053148
O O8 0.804883 0.362526 0.548469
O O9 0.725280 0.435425 0.580220
O O10 0.086185 0.343851 0.746456
O O11 0.118745 0.412473 0.922863
O O12 0.927772 0.761138 0.339257
O O13 0.643677 0.066700 0.366079
O O14 0.747343 0.092622 0.292932
#
# Coordination Sequence:
#
# PCOD9546757 Si02
#       7
#    16  16  16  16  16  16  16
#     4  11  23  38  57  88 123 151 192 246 295 348
#     4  12  20  35  61  89 113 148 195 249 292 350
#     4  12  20  35  61  89 113 148 195 249 292 350
#     4  11  23  38  57  88 123 151 192 246 295 348
#     4   9  18  38  64  84 112 156 196 236 288 344
#     4  12  22  38  59  85 116 159 201 230 293 358
#     4  12  22  38  59  85 116 159 201 230 293 358
#
# _framework density 17.785374000000001
#
# number of rings (size 3 to 8) (size 9 to 14) (size 15 to 20)
#    0.000    0.714    7.143    1.714    0.000    1.143 
#    0.000    2.857    0.000    0.000    0.000    0.000 
#    0.000    0.000    0.000    0.000    0.000    0.000 
#
# Total GULP energy -312834.082919 kJ/mol
# GULP energy per Si atom -5586.322909 kJ/mol
# Density = 1.774489 g / cm^3
# Si number density = 17.785374 Si / 1000 Ang^3
#
#
#
# Elastic Constant Matrix: (Units=GPa)
#
#
# Indices 1 2 3 4 5 6 
#
# 1 57.9694 4.9571 -3.4889 0.0000 0.0000 0.4531
# 2 4.9571 57.9694 -3.4889 0.0000 0.0000 -0.4531
# 3 -3.4889 -3.4889 61.5736 0.0000 0.0000 0.0000
# 4 0.0000 0.0000 0.0000 20.9318 0.0000 0.0000
# 5 0.0000 0.0000 0.0000 0.0000 20.9318 0.0000
# 6 0.4531 -0.4531 0.0000 0.0000 0.0000 25.0248
#
#
#
# Elastic Compliance Matrix: (Units=1/GPa)
#
#
# Indices 1 2 3 4 5 6 
#
# 1 0.017431 -0.001439 0.000906 0.000000 0.000000 -0.000342
# 2 -0.001439 0.017431 0.000906 0.000000 0.000000 0.000342
# 3 0.000906 0.000906 0.016343 0.000000 0.000000 0.000000
# 4 0.000000 0.000000 0.000000 0.047774 0.000000 0.000000
# 5 0.000000 0.000000 0.000000 0.000000 0.047774 0.000000
# 6 -0.000342 0.000342 0.000000 0.000000 0.000000 0.039973
#
#
# Mechanical properties :
#
#
# Convention : Reuss Voigt Hill
#
# Bulk Modulus (GPa) = 19.24851 19.27455 19.26153
# Shear Modulus (GPa) = 24.59464 25.34653 24.97059
#
# Velocity S-wave (km/s) = 3.72271 3.77919 3.75106
# Velocity P-wave (km/s) = 5.41519 5.46844 5.44188
#
# Compressibility (1/GPa) = 0.05195208
#
# Stress axis : x y z
#
# Youngs Moduli (GPa) = 57.37002 57.37002 61.18667
#
# Poissons Ratio (x) = 0.08254 -0.05544
# Poissons Ratio (y) = 0.08254 -0.05544
# Poissons Ratio (z) = -0.05199 -0.05199
#
# Static dielectric constant tensor:
#      x y z
#    x 1.602190 0.000000 0.000000 
#    y 0.000000 1.602190 0.000000 
#    z 0.000000 0.000000 1.627830 
# 
# From -- ./inp_files/2732.got.cif
#   From: 2010.05.17/outbox.cif.g08.bks.cpg/sg88_2_cif.got.tgz:2732.got - 2010.06.03 19:11:41.
