data_PCOD9546318
_publ_section_title
;
Structure prediction by ZEFSAII (Michael W. Deem and Ramdas Pophale) SiO2 
 PCOD9546318
Probable space group: I 41/A
;
_chemical_formula_sum "Si O2"
_cell_formula_units_Z 96
_cell_length_a 20.229030
_cell_length_b 20.229030
_cell_length_c 11.509613
_cell_angle_alpha 90.000000
_cell_angle_beta 90.000000
_cell_angle_gamma 90.000000
_cell_volume 4709.890800
_symmetry_space_group_name_H-M "I 41/A"
_symmetry_group_IT_number 88
_space_group.IT_coordinate_system_code '2'
_symmetry_cell_setting 'tetragonal'
loop_
_space_group_symop_operation_xyz
x,y,z
3/4-y,1/4+x,1/4+z
-x,1/2-y,z
1/4+y,1/4-x,1/4+z
-x,-y,-z
1/4+y,3/4-x,3/4-z
x,1/2+y,-z
3/4-y,3/4+x,3/4-z
1/2+x,1/2+y,1/2+z
1/4-y,3/4+x,3/4+z
1/2-x,-y,1/2+z
3/4+y,3/4-x,3/4+z
1/2-x,1/2-y,1/2-z
3/4+y,1/4-x,1/4-z
1/2+x,y,1/2-z
1/4-y,1/4+x,1/4-z
loop_
_atom_site_type_symbol
_atom_site_label
_atom_site_fract_x
_atom_site_fract_y
_atom_site_fract_z
Si Si1 0.820584 0.418136 0.748890
Si Si2 0.692711 0.275598 0.582601
Si Si3 0.929310 0.453056 0.573983
Si Si4 0.819535 0.952836 0.001139
Si Si5 0.604502 0.722804 0.622710
Si Si6 0.157670 0.111169 0.238677
O O1 0.877503 0.411729 0.651642
O O2 0.763842 0.363113 0.764584
O O3 0.790085 0.491106 0.723593
O O4 0.850315 0.427533 0.878717
O O5 0.667685 0.285044 0.715728
O O6 0.760917 0.235211 0.598015
O O7 0.649435 0.235438 0.489719
O O8 0.686512 0.350315 0.534112
O O9 0.829561 0.903037 0.897191
O O10 0.847155 0.022116 0.956161
O O11 0.543133 0.675625 0.592721
O O12 0.637759 0.687593 0.733754
#
# Coordination Sequence:
#
# PCOD9546318 Si02
#       6
#    16  16  16  16  16  16
#     4   9  18  33  56  77 113 150 179 218 286 337
#     4  10  21  34  53  80 112 143 187 225 272 340
#     4  10  21  35  53  80 113 152 183 223 275 344
#     4   9  18  31  53  87 111 135 178 238 289 340
#     4   9  18  36  56  74 102 145 191 233 279 323
#     4  10  20  33  55  82 108 139 185 236 285 331
#
# _framework density 20.382638
#
# number of rings (size 3 to 8) (size 9 to 14) (size 15 to 20)
#    0.000    2.500    0.000    3.000    7.000    0.000 
#    0.000    9.167    0.000   20.000    0.000    0.000 
#    0.000    0.000    0.000    0.000    0.000    0.000 
#
# Total GULP energy -267221.619456 kJ/mol
# GULP energy per Si atom -5567.117072 kJ/mol
# Density = 2.033625 g / cm^3
# Si number density = 20.382638 Si / 1000 Ang^3
#
#
#
# Elastic Constant Matrix: (Units=GPa)
#
#
# Indices 1 2 3 4 5 6 
#
# 1 32.8868 -10.5835 -0.2336 0.0000 0.0000 -1.4698
# 2 -10.5835 32.8868 -0.2336 0.0000 0.0000 1.4698
# 3 -0.2336 -0.2336 68.5248 0.0000 0.0000 0.0000
# 4 0.0000 0.0000 0.0000 27.6607 0.0000 0.0000
# 5 0.0000 0.0000 0.0000 0.0000 27.6607 0.0000
# 6 -1.4698 1.4698 0.0000 0.0000 0.0000 11.3086
#
#
#
# Elastic Compliance Matrix: (Units=1/GPa)
#
#
# Indices 1 2 3 4 5 6 
#
# 1 0.034024 0.010816 0.000153 0.000000 0.000000 0.003016
# 2 0.010816 0.034024 0.000153 0.000000 0.000000 -0.003016
# 3 0.000153 0.000153 0.014594 0.000000 0.000000 0.000000
# 4 0.000000 0.000000 0.000000 0.036152 0.000000 0.000000
# 5 0.000000 0.000000 0.000000 0.000000 0.036152 0.000000
# 6 0.003016 -0.003016 0.000000 0.000000 0.000000 0.089212
#
#
# Mechanical properties :
#
#
# Convention : Reuss Voigt Hill
#
# Bulk Modulus (GPa) = 9.53425 12.46634 11.00030
# Shear Modulus (GPa) = 19.46450 23.01594 21.24022
#
# Velocity S-wave (km/s) = 3.09359 3.36399 3.23162
# Velocity P-wave (km/s) = 4.17710 4.60630 4.39694
#
# Compressibility (1/GPa) = 0.10488499
#
# Stress axis : x y z
#
# Youngs Moduli (GPa) = 29.39108 29.39108 68.51993
#
# Poissons Ratio (x) = -0.31789 -0.01047
# Poissons Ratio (y) = -0.31789 -0.01047
# Poissons Ratio (z) = -0.00449 -0.00449
#
# Static dielectric constant tensor:
#      x y z
#    x 1.788690 0.000000 0.000000 
#    y 0.000000 1.788690 0.000000 
#    z 0.000000 0.000000 1.756700 
# 
# From -- ./inp_files/2630.got.cif
#   From: 2010.05.17/outbox.cif.g08.bks.cpg/sg88_2_cif.got.tgz:2630.got - 2010.06.03 19:11:41.
