data_PCOD9547414
_publ_section_title
;
Structure prediction by ZEFSAII (Michael W. Deem and Ramdas Pophale) SiO2 
 PCOD9547414
Probable space group: P 4 21 2
;
_chemical_formula_sum "Si O2"
_cell_formula_units_Z 36
_cell_length_a 8.670297
_cell_length_b 8.670297
_cell_length_c 22.120103
_cell_angle_alpha 90.000000
_cell_angle_beta 90.000000
_cell_angle_gamma 90.000000
_cell_volume 1662.857730
_symmetry_space_group_name_H-M "P 4 21 2"
_symmetry_group_IT_number 90
_symmetry_cell_setting 'tetragonal'
loop_
_space_group_symop_operation_xyz
x,y,z
1/2-y,1/2+x,z
-x,-y,z
1/2+y,1/2-x,z
1/2+x,1/2-y,-z
1/2-x,1/2+y,-z
y,x,-z
-y,-x,-z
loop_
_atom_site_type_symbol
_atom_site_label
_atom_site_fract_x
_atom_site_fract_y
_atom_site_fract_z
Si Si1 0.500000 0.000000 0.771274
Si Si2 0.409352 0.758623 0.551982
Si Si3 0.755496 0.962931 0.105653
Si Si4 0.858965 0.899963 0.769490
Si Si5 0.119418 0.277593 0.654642
Si Si6 0.500000 0.500000 0.000000
O O1 0.692156 0.981088 0.771506
O O2 0.585087 0.809245 0.546253
O O3 0.357435 0.642566 0.500000
O O4 0.362801 0.688706 0.616519
O O5 0.625091 0.832186 0.107218
O O6 0.854654 0.918225 0.164090
O O7 0.857359 0.978162 0.045636
O O8 0.852302 0.753519 0.725161
O O9 0.000000 0.000000 0.742449
O O10 0.200140 0.439723 0.639208
#
# Coordination Sequence:
#
# PCOD9547414 Si02
#       6
#     2   8   8   8   8   2
#     4  12  28  44  80 112 152 208 272 324 398 480
#     4  11  26  45  69  99 139 185 243 309 374 455
#     4  11  24  46  71 104 150 199 255 324 394 462
#     4  12  26  47  73 111 151 195 254 323 388 469
#     4  11  25  43  69 103 142 189 243 307 384 459
#     4  12  24  44  72 108 144 204 258 320 378 474
#
# _framework density 21.649478999999999
#
# number of rings (size 3 to 8) (size 9 to 14) (size 15 to 20)
#    0.000    0.667    1.111    6.000    6.222    5.778 
#    0.000    0.000    0.000    0.000    0.000    0.000 
#    0.000    0.000    0.000    0.000    0.000    0.000 
#
# Total GULP energy -200783.238152 kJ/mol
# GULP energy per Si atom -5577.312171 kJ/mol
# Density = 2.160020 g / cm^3
# Si number density = 21.649479 Si / 1000 Ang^3
#
#
#
# Elastic Constant Matrix: (Units=GPa)
#
#
# Indices 1 2 3 4 5 6 
#
# 1 94.4092 42.8315 10.0059 0.0000 0.0000 0.0000
# 2 42.8315 94.4114 10.0072 0.0000 0.0000 0.0000
# 3 10.0059 10.0072 81.3202 0.0000 0.0000 0.0000
# 4 0.0000 0.0000 0.0000 72.3377 0.0000 0.0000
# 5 0.0000 0.0000 0.0000 0.0000 72.3367 0.0000
# 6 0.0000 0.0000 0.0000 0.0000 0.0000 -12.6058
#
#
#
# Elastic Compliance Matrix: (Units=1/GPa)
#
#
# Indices 1 2 3 4 5 6 
#
# 1 0.013404 -0.005984 -0.000913 0.000000 0.000000 0.000000
# 2 -0.005984 0.013404 -0.000913 0.000000 0.000000 0.000000
# 3 -0.000913 -0.000913 0.012522 0.000000 0.000000 0.000000
# 4 0.000000 0.000000 0.000000 0.013824 0.000000 0.000000
# 5 0.000000 0.000000 0.000000 0.000000 0.013824 0.000000
# 6 0.000000 0.000000 0.000000 0.000000 0.000000 -0.079329
#
#
# Mechanical properties :
#
#
# Convention : Reuss Voigt Hill
#
# Bulk Modulus (GPa) = 42.17824 43.98112 43.07968
# Shear Modulus (GPa) = 447.55032 40.23347 243.89189
#
# Velocity S-wave (km/s) = 14.39356 4.31560 10.62541
# Velocity P-wave (km/s) = 17.19759 6.72248 13.05659
#
# Compressibility (1/GPa) = 0.02370891
#
# Stress axis : x y z
#
# Youngs Moduli (GPa) = 74.60558 74.60712 79.86100
#
# Poissons Ratio (x) = 0.44646 0.07290
# Poissons Ratio (y) = 0.44645 0.07292
# Poissons Ratio (z) = 0.06810 0.06812
#
# Static dielectric constant tensor:
#      x y z
#    x 1.195910 0.000000 0.000000 
#    y 0.000000 1.195920 0.000000 
#    z 0.000000 0.000000 1.801570 
# 
# From -- ./inp_files/2772.got.cif
#   From: 2010.05.17/outbox.cif.g08.bks.cpg/sg90_2_cif.got.tgz:2772.got - 2010.06.03 19:17:45.
