data_PCOD9547390
_publ_section_title
;
Structure prediction by ZEFSAII (Michael W. Deem and Ramdas Pophale) SiO2 
 PCOD9547390
Probable space group: P 4 21 2
;
_chemical_formula_sum "Si O2"
_cell_formula_units_Z 44
_cell_length_a 8.609881
_cell_length_b 8.609881
_cell_length_c 30.083920
_cell_angle_alpha 90.000000
_cell_angle_beta 90.000000
_cell_angle_gamma 90.000000
_cell_volume 2230.122519
_symmetry_space_group_name_H-M "P 4 21 2"
_symmetry_group_IT_number 90
_symmetry_cell_setting 'tetragonal'
loop_
_space_group_symop_operation_xyz
x,y,z
1/2-y,1/2+x,z
-x,-y,z
1/2+y,1/2-x,z
1/2+x,1/2-y,-z
1/2-x,1/2+y,-z
y,x,-z
-y,-x,-z
loop_
_atom_site_type_symbol
_atom_site_label
_atom_site_fract_x
_atom_site_fract_y
_atom_site_fract_z
Si Si1 0.575571 0.748379 0.138225
Si Si2 0.241988 0.974438 0.691534
Si Si3 0.742692 0.557680 0.210359
Si Si4 0.258528 0.451487 0.535034
Si Si5 0.924141 0.249622 0.963216
Si Si6 0.000000 0.000000 0.613216
O O1 0.400885 0.814143 0.143631
O O2 0.625957 0.618891 0.173197
O O3 0.593738 0.692034 0.087412
O O4 0.366713 0.837517 0.690524
O O5 0.169169 0.945637 0.740207
O O6 0.140144 0.985697 0.647911
O O7 0.822589 0.388763 0.206471
O O8 0.172781 0.617777 0.530450
O O9 0.384745 0.384745 0.500000
O O10 0.352509 0.474337 0.580971
O O11 0.814114 0.401571 0.968137
O O12 0.872183 0.127818 0.000000
#
# Coordination Sequence:
#
# PCOD9547390 Si02
#       6
#     8   8   8   8   8   4
#     4   9  19  35  53  75 105 140 179 226 282 341
#     4   9  20  37  55  79 113 150 188 235 293 354
#     4   9  19  35  53  76 106 140 182 229 277 336
#     4  11  24  42  64  93 130 170 214 262 311 364
#     4   9  19  35  52  73 104 139 176 223 278 338
#     4  12  21  36  62  90 118 156 203 252 302 354
#
# _framework density 19.729858
#
# number of rings (size 3 to 8) (size 9 to 14) (size 15 to 20)
#    0.000    2.364    0.000    4.636    0.000    5.455 
#    0.000    7.273    0.000    2.182    0.000    0.000 
#    0.000    0.000    0.000    0.000    0.000    0.000 
#
# Total GULP energy -245167.684722 kJ/mol
# GULP energy per Si atom -5571.992835 kJ/mol
# Density = 1.968495 g / cm^3
# Si number density = 19.729858 Si / 1000 Ang^3
#
#
#
# Elastic Constant Matrix: (Units=GPa)
#
#
# Indices 1 2 3 4 5 6 
#
# 1 75.5780 70.9769 87.3984 0.0000 0.0000 0.0000
# 2 70.9769 75.5784 87.3990 0.0000 0.0000 0.0000
# 3 87.3984 87.3990 181.4781 0.0000 0.0000 0.0000
# 4 0.0000 0.0000 0.0000 62.6887 0.0000 0.0000
# 5 0.0000 0.0000 0.0000 0.0000 62.6890 0.0000
# 6 0.0000 0.0000 0.0000 0.0000 0.0000 39.5769
#
#
#
# Elastic Compliance Matrix: (Units=1/GPa)
#
#
# Indices 1 2 3 4 5 6 
#
# 1 0.116683 -0.100651 -0.007721 0.000000 0.000000 0.000000
# 2 -0.100651 0.116683 -0.007722 0.000000 0.000000 0.000000
# 3 -0.007721 -0.007722 0.012947 0.000000 0.000000 0.000000
# 4 0.000000 0.000000 0.000000 0.015952 0.000000 0.000000
# 5 0.000000 0.000000 0.000000 0.000000 0.015952 0.000000
# 6 0.000000 0.000000 0.000000 0.000000 0.000000 0.025267
#
#
# Mechanical properties :
#
#
# Convention : Reuss Voigt Hill
#
# Bulk Modulus (GPa) = 70.78366 91.57588 81.17977
# Shear Modulus (GPa) = 9.25278 38.78158 24.01718
#
# Velocity S-wave (km/s) = 2.16793 4.43835 3.49277
# Velocity P-wave (km/s) = 6.49776 8.53117 7.58293
#
# Compressibility (1/GPa) = 0.01412755
#
# Stress axis : x y z
#
# Youngs Moduli (GPa) = 8.57026 8.57022 77.23703
#
# Poissons Ratio (x) = 0.86260 0.59632
# Poissons Ratio (y) = 0.86260 0.59639
# Poissons Ratio (z) = 0.06617 0.06618
#
# Static dielectric constant tensor:
#      x y z
#    x 1.024590 0.000000 0.000000 
#    y 0.000000 1.024480 0.000000 
#    z 0.000000 0.000000 1.689530 
# 
# From -- ./inp_files/3018.got.cif
#   From: 2010.05.17/outbox.cif.g08.bks.cpg/sg90_2_cif.got.tgz:3018.got - 2010.06.03 19:17:45.
