data_PCOD9547011
_publ_section_title
;
Structure prediction by ZEFSAII (Michael W. Deem and Ramdas Pophale) SiO2 
 PCOD9547011
Probable space group: P 4 2 2
;
_chemical_formula_sum "Si O2"
_cell_formula_units_Z 48
_cell_length_a 8.314733
_cell_length_b 8.314733
_cell_length_c 32.686438
_cell_angle_alpha 90.000000
_cell_angle_beta 90.000000
_cell_angle_gamma 90.000000
_cell_volume 2259.769859
_symmetry_space_group_name_H-M "P 4 2 2"
_symmetry_group_IT_number 89
_symmetry_cell_setting 'tetragonal'
loop_
_space_group_symop_operation_xyz
x,y,z
-y,x,z
-x,-y,z
y,-x,z
x,-y,-z
-x,y,-z
y,x,-z
-y,-x,-z
loop_
_atom_site_type_symbol
_atom_site_label
_atom_site_fract_x
_atom_site_fract_y
_atom_site_fract_z
Si Si1 0.859737 0.235964 0.674548
Si Si2 0.833879 0.788647 0.413775
Si Si3 0.688202 0.688202 0.500000
Si Si4 0.714779 0.666801 0.954138
Si Si5 0.594414 0.751693 0.755271
Si Si6 0.898611 0.755063 0.875154
Si Si7 0.500000 0.000000 0.182748
O O1 0.795531 0.293160 0.629831
O O2 0.810247 0.356587 0.710187
O O3 0.053638 0.211142 0.677959
O O4 0.768865 0.737384 0.457492
O O5 0.025895 0.783536 0.412492
O O6 0.500000 0.719157 0.500000
O O7 0.527126 0.714679 0.948450
O O8 0.847510 0.721625 0.921833
O O9 0.735858 0.735858 0.000000
O O10 0.408946 0.699440 0.760686
O O11 0.614972 0.896092 0.787419
O O12 0.878488 0.600151 0.846437
O O13 0.084202 0.798361 0.867172
#
# Coordination Sequence:
#
# PCOD9547011 Si02
#       7
#     8   8   4   8   8   8   4
#     4   9  19  38  63  89 118 155 199 249 309 375
#     4   9  19  37  61  86 112 148 197 247 297 365
#     4  11  24  37  50  78 120 159 196 245 306 362
#     4   9  19  38  64  92 124 165 207 246 301 378
#     4  11  24  40  61  90 121 158 206 259 312 370
#     4  11  24  40  61  91 123 159 207 263 318 369
#     4  12  24  44  64  85 124 172 211 256 320 388
#
# _framework density 21.241102000000001
#
# number of rings (size 3 to 8) (size 9 to 14) (size 15 to 20)
#    0.000    1.917    0.000    5.000    0.000    4.000 
#    0.000   10.833    0.000    0.000    0.000    0.000 
#    0.000    0.000    0.000    0.000    0.000    0.000 
#
# Total GULP energy -267444.654906 kJ/mol
# GULP energy per Si atom -5571.763644 kJ/mol
# Density = 2.119276 g / cm^3
# Si number density = 21.241102 Si / 1000 Ang^3
#
#
#
# Elastic Constant Matrix: (Units=GPa)
#
#
# Indices 1 2 3 4 5 6 
#
# 1 61.3123 5.3592 59.8275 0.0000 0.0000 0.0000
# 2 5.3592 61.3123 59.8275 0.0000 0.0000 0.0000
# 3 59.8275 59.8275 201.4095 0.0000 0.0000 0.0000
# 4 0.0000 0.0000 0.0000 28.4398 0.0000 0.0000
# 5 0.0000 0.0000 0.0000 0.0000 28.4398 0.0000
# 6 0.0000 0.0000 0.0000 0.0000 0.0000 14.6511
#
#
#
# Elastic Compliance Matrix: (Units=1/GPa)
#
#
# Indices 1 2 3 4 5 6 
#
# 1 0.024998 0.007126 -0.009542 0.000000 0.000000 0.000000
# 2 0.007126 0.024998 -0.009542 0.000000 0.000000 0.000000
# 3 -0.009542 -0.009542 0.010634 0.000000 0.000000 0.000000
# 4 0.000000 0.000000 0.000000 0.035162 0.000000 0.000000
# 5 0.000000 0.000000 0.000000 0.000000 0.035162 0.000000
# 6 0.000000 0.000000 0.000000 0.000000 0.000000 0.068254
#
#
# Mechanical properties :
#
#
# Convention : Reuss Voigt Hill
#
# Bulk Modulus (GPa) = 27.23787 63.78472 45.51130
# Shear Modulus (GPa) = 21.24368 27.57414 24.40891
#
# Velocity S-wave (km/s) = 3.16590 3.60689 3.39357
# Velocity P-wave (km/s) = 5.12005 6.88770 6.06858
#
# Compressibility (1/GPa) = 0.03671359
#
# Stress axis : x y z
#
# Youngs Moduli (GPa) = 40.00262 40.00262 94.03753
#
# Poissons Ratio (x) = -0.28507 0.89735
# Poissons Ratio (y) = -0.28507 0.89735
# Poissons Ratio (z) = 0.38172 0.38172
#
# Static dielectric constant tensor:
#      x y z
#    x 1.795040 0.000000 0.000000 
#    y 0.000000 1.795040 0.000000 
#    z 0.000000 0.000000 1.852830 
# 
# From -- ./inp_files/3030.got.cif
#   From: 2010.05.17/outbox.cif.g08.bks.cpg/sg89_2_cif.got.tgz:3030.got - 2010.06.03 19:15:31.
