data_PCOD9547804
_publ_section_title
;
Structure prediction by ZEFSAII (Michael W. Deem and Ramdas Pophale) SiO2 
 PCOD9547804
Probable space group: P 41 2 2
;
_chemical_formula_sum "Si O2"
_cell_formula_units_Z 44
_cell_length_a 8.211667
_cell_length_b 8.211667
_cell_length_c 31.193853
_cell_angle_alpha 90.000000
_cell_angle_beta 90.000000
_cell_angle_gamma 90.000000
_cell_volume 2103.447516
_symmetry_space_group_name_H-M "P 41 2 2"
_symmetry_group_IT_number 91
_symmetry_cell_setting 'tetragonal'
loop_
_space_group_symop_operation_xyz
x,y,z
-y,x,1/4+z
-x,-y,1/2+z
y,-x,3/4+z
x,-y,1/2-z
-x,y,-z
y,x,3/4-z
-y,-x,1/4-z
loop_
_atom_site_type_symbol
_atom_site_label
_atom_site_fract_x
_atom_site_fract_y
_atom_site_fract_z
Si Si1 0.060992 0.070582 0.325556
Si Si2 0.203506 0.270434 0.716460
Si Si3 0.716470 0.027609 0.054920
Si Si4 0.161731 0.685079 0.945517
Si Si5 0.497031 0.758958 0.391317
Si Si6 0.575321 0.000000 0.250000
O O1 0.094360 0.094360 0.375000
O O2 0.955332 0.904922 0.319311
O O3 0.227047 0.015824 0.303079
O O4 0.966364 0.219058 0.305681
O O5 0.144636 0.316355 0.764366
O O6 0.286821 0.397318 0.684355
O O7 0.312154 0.108938 0.719606
O O8 0.601675 0.084619 0.093319
O O9 0.714574 0.833939 0.043976
O O10 0.199764 0.624289 0.897569
O O11 0.135616 0.531285 0.975400
O O12 0.620316 0.620316 0.375000
#
# Coordination Sequence:
#
# PCOD9547804 Si02
#       6
#     8   8   8   8   8   4
#     4  10  19  40  67  96 121 166 234 270 306 386
#     4  12  22  42  71  99 127 176 221 274 335 395
#     4  10  22  42  68  95 128 171 232 264 318 405
#     4  10  24  39  67  97 129 166 221 276 318 390
#     4  12  26  41  64  96 136 176 214 268 340 403
#     4  12  22  40  70 100 134 162 214 270 340 380
#
# _framework density 20.918042
#
# number of rings (size 3 to 8) (size 9 to 14) (size 15 to 20)
#    1.091    0.000    3.636    3.273    5.091    0.000 
#    0.000    6.364    0.000    0.000    0.000    0.000 
#    0.000    0.000    0.000    0.000    0.000    0.000 
#
# Total GULP energy -245154.346089 kJ/mol
# GULP energy per Si atom -5571.689684 kJ/mol
# Density = 2.087043 g / cm^3
# Si number density = 20.918042 Si / 1000 Ang^3
#
#
#
# Elastic Constant Matrix: (Units=GPa)
#
#
# Indices 1 2 3 4 5 6 
#
# 1 67.6247 15.6242 10.7580 0.0000 0.0000 0.0000
# 2 15.6242 67.6247 10.7580 0.0000 0.0000 0.0000
# 3 10.7580 10.7580 61.5238 0.0000 0.0000 0.0000
# 4 0.0000 0.0000 0.0000 37.5806 0.0000 0.0000
# 5 0.0000 0.0000 0.0000 0.0000 37.5806 0.0000
# 6 0.0000 0.0000 0.0000 0.0000 0.0000 5.4223
#
#
#
# Elastic Compliance Matrix: (Units=1/GPa)
#
#
# Indices 1 2 3 4 5 6 
#
# 1 0.015906 -0.003325 -0.002200 0.000000 0.000000 0.000000
# 2 -0.003325 0.015906 -0.002200 0.000000 0.000000 0.000000
# 3 -0.002200 -0.002200 0.017023 0.000000 0.000000 0.000000
# 4 0.000000 0.000000 0.000000 0.026609 0.000000 0.000000
# 5 0.000000 0.000000 0.000000 0.000000 0.026609 0.000000
# 6 0.000000 0.000000 0.000000 0.000000 0.000000 0.184423
#
#
# Mechanical properties :
#
#
# Convention : Reuss Voigt Hill
#
# Bulk Modulus (GPa) = 29.95336 30.11707 30.03522
# Shear Modulus (GPa) = 15.97169 26.75890 21.36529
#
# Velocity S-wave (km/s) = 2.76621 3.58051 3.19937
# Velocity P-wave (km/s) = 4.95511 5.61447 5.29506
#
# Compressibility (1/GPa) = 0.03338523
#
# Stress axis : x y z
#
# Youngs Moduli (GPa) = 62.87066 62.87066 58.74334
#
# Poissons Ratio (x) = 0.20904 0.12923
# Poissons Ratio (y) = 0.20904 0.12923
# Poissons Ratio (z) = 0.13831 0.13831
#
# Static dielectric constant tensor:
#      x y z
#    x 1.788370 0.000000 0.000000 
#    y 0.000000 1.788370 0.000000 
#    z 0.000000 0.000000 1.772340 
# 
# From -- ./inp_files/18095.got.cif
#   From: 2010.05.17/outbox.cif.g08.bks.cpg/sg91_10_cif.got.tgz:18095.got - 2010.06.03 19:20:03.
