data_PCOD9547314
_publ_section_title
;
Structure prediction by ZEFSAII (Michael W. Deem and Ramdas Pophale) SiO2 
 PCOD9547314
Probable space group: P 4 21 2
;
_chemical_formula_sum "Si O2"
_cell_formula_units_Z 48
_cell_length_a 8.129120
_cell_length_b 8.129120
_cell_length_c 32.866903
_cell_angle_alpha 90.000000
_cell_angle_beta 90.000000
_cell_angle_gamma 90.000000
_cell_volume 2171.930140
_symmetry_space_group_name_H-M "P 4 21 2"
_symmetry_group_IT_number 90
_symmetry_cell_setting 'tetragonal'
loop_
_space_group_symop_operation_xyz
x,y,z
1/2-y,1/2+x,z
-x,-y,z
1/2+y,1/2-x,z
1/2+x,1/2-y,-z
1/2-x,1/2+y,-z
y,x,-z
-y,-x,-z
loop_
_atom_site_type_symbol
_atom_site_label
_atom_site_fract_x
_atom_site_fract_y
_atom_site_fract_z
Si Si1 0.415875 0.735446 0.538725
Si Si2 0.084898 0.235713 0.372167
Si Si3 0.905727 0.762842 0.793563
Si Si4 0.587413 0.264101 0.294262
Si Si5 0.263763 0.582758 0.039076
Si Si6 0.763322 0.906780 0.118002
O O1 0.601522 0.802060 0.537010
O O2 0.371986 0.628015 0.500000
O O3 0.386786 0.657571 0.583283
O O4 0.198295 0.399029 0.370458
O O5 0.129855 0.129136 0.333368
O O6 0.799344 0.594673 0.793557
O O7 0.877752 0.846182 0.749881
O O8 0.875834 0.842895 0.837439
O O9 0.400767 0.199135 0.295704
O O10 0.198532 0.397782 0.037839
O O11 0.357397 0.623926 0.080623
O O12 0.370470 0.629531 0.000000
O O13 0.595154 0.798942 0.115524
#
# Coordination Sequence:
#
# PCOD9547314 Si02
#       6
#     8   8   8   8   8   8
#     4   9  19  35  52  70  94 124 159 199 243 293
#     4   9  19  35  50  66  95 133 165 195 239 293
#     4   7  12  26  48  73 101 130 160 198 242 285
#     4   9  17  30  50  76 102 128 163 206 245 282
#     4  11  24  39  54  75 103 133 166 204 246 293
#     4   9  17  32  56  81 102 129 166 204 244 291
#
# _framework density 22.100158
#
# number of rings (size 3 to 8) (size 9 to 14) (size 15 to 20)
#    0.000    3.000    0.000    4.000    0.000    6.000 
#    0.000    6.667    0.000    8.000    0.000    0.000 
#    0.000    0.000    0.000    0.000    0.000    0.000 
#
# Total GULP energy -268257.683169 kJ/mol
# GULP energy per Si atom -5588.701733 kJ/mol
# Density = 2.204986 g / cm^3
# Si number density = 22.100158 Si / 1000 Ang^3
#
#
#
# Elastic Constant Matrix: (Units=GPa)
#
#
# Indices 1 2 3 4 5 6 
#
# 1 54.4298 37.4664 64.0585 0.0000 0.0000 0.0000
# 2 37.4664 54.4303 64.0593 0.0000 0.0000 0.0000
# 3 64.0585 64.0593 268.4007 0.0000 0.0000 0.0000
# 4 0.0000 0.0000 0.0000 91.2146 0.0000 0.0000
# 5 0.0000 0.0000 0.0000 0.0000 91.2149 0.0000
# 6 0.0000 0.0000 0.0000 0.0000 0.0000 35.4373
#
#
#
# Elastic Compliance Matrix: (Units=1/GPa)
#
#
# Indices 1 2 3 4 5 6 
#
# 1 0.037629 -0.021321 -0.003892 0.000000 0.000000 0.000000
# 2 -0.021321 0.037629 -0.003892 0.000000 0.000000 0.000000
# 3 -0.003892 -0.003892 0.005584 0.000000 0.000000 0.000000
# 4 0.000000 0.000000 0.000000 0.010963 0.000000 0.000000
# 5 0.000000 0.000000 0.000000 0.000000 0.010963 0.000000
# 6 0.000000 0.000000 0.000000 0.000000 0.000000 0.028219
#
#
# Mechanical properties :
#
#
# Convention : Reuss Voigt Hill
#
# Bulk Modulus (GPa) = 44.18701 78.71438 61.45070
# Shear Modulus (GPa) = 25.41418 57.68515 41.54966
#
# Velocity S-wave (km/s) = 3.39478 5.11452 4.34067
# Velocity P-wave (km/s) = 5.95008 8.40073 7.27927
#
# Compressibility (1/GPa) = 0.02263108
#
# Stress axis : x y z
#
# Youngs Moduli (GPa) = 26.57531 26.57537 179.09277
#
# Poissons Ratio (x) = 0.56660 0.69706
# Poissons Ratio (y) = 0.56660 0.69709
# Poissons Ratio (z) = 0.10344 0.10344
#
# Static dielectric constant tensor:
#      x y z
#    x 1.800350 0.000000 0.000000 
#    y 0.000000 1.800350 0.000000 
#    z 0.000000 0.000000 1.829710 
# 
# From -- ./inp_files/3033.got.cif
#   From: 2010.05.17/outbox.cif.g08.bks.cpg/sg90_2_cif.got.tgz:3033.got - 2010.06.03 19:17:45.
