data_PCOD9547713
_publ_section_title
;
Structure prediction by ZEFSAII (Michael W. Deem and Ramdas Pophale) SiO2 
 PCOD9547713
Probable space group: P 41 2 2
;
_chemical_formula_sum "Si O2"
_cell_formula_units_Z 48
_cell_length_a 11.524091
_cell_length_b 11.524091
_cell_length_c 21.025482
_cell_angle_alpha 90.000000
_cell_angle_beta 90.000000
_cell_angle_gamma 90.000000
_cell_volume 2792.282270
_symmetry_space_group_name_H-M "P 41 2 2"
_symmetry_group_IT_number 91
_symmetry_cell_setting 'tetragonal'
loop_
_space_group_symop_operation_xyz
x,y,z
-y,x,1/4+z
-x,-y,1/2+z
y,-x,3/4+z
x,-y,1/2-z
-x,y,-z
y,x,3/4-z
-y,-x,1/4-z
loop_
_atom_site_type_symbol
_atom_site_label
_atom_site_fract_x
_atom_site_fract_y
_atom_site_fract_z
Si Si1 0.374784 0.236110 0.973544
Si Si2 0.112223 0.357726 0.542486
Si Si3 0.809711 0.994268 0.136984
Si Si4 0.856312 0.878809 0.002645
Si Si5 0.761512 0.921552 0.570869
Si Si6 0.384776 0.167519 0.826333
O O1 0.392753 0.197113 0.901128
O O2 0.268996 0.325843 0.965015
O O3 0.500000 0.276153 0.000000
O O4 0.324096 0.135475 0.019209
O O5 0.179916 0.255181 0.506374
O O6 0.085966 0.299627 0.610915
O O7 0.159463 0.484834 0.552410
O O8 0.000000 0.373971 0.500000
O O9 0.903244 0.096757 0.125000
O O10 0.698196 0.053673 0.169743
O O11 0.804887 0.940144 0.065977
O O12 0.854489 0.885372 0.178060
O O13 0.000000 0.886465 0.000000
O O14 0.800108 0.948486 0.945277
#
# Coordination Sequence:
#
# PCOD9547713 Si02
#       6
#     8   8   8   8   8   8
#     4  11  22  38  58  83 111 158 195 249 301 342
#     4  10  24  37  54  85 121 160 190 235 290 358
#     4  11  19  30  55  92 114 144 181 236 300 350
#     4  10  19  33  55  84 124 152 182 222 293 369
#     4  11  21  35  59  86 122 150 189 236 303 372
#     4  11  22  38  58  83 119 150 203 248 290 347
#
# _framework density 17.190239999999999
#
# number of rings (size 3 to 8) (size 9 to 14) (size 15 to 20)
#    0.000    1.333    6.667    0.000    2.333    0.000 
#    0.000    0.000    0.000    9.000    0.000    0.000 
#    0.000    0.000    0.000    0.000    0.000    0.000 
#
# Total GULP energy -267295.066983 kJ/mol
# GULP energy per Si atom -5568.647229 kJ/mol
# Density = 1.715111 g / cm^3
# Si number density = 17.190240 Si / 1000 Ang^3
#
#
#
# Elastic Constant Matrix: (Units=GPa)
#
#
# Indices 1 2 3 4 5 6 
#
# 1 106.5458 54.1672 27.7630 0.0000 0.0000 0.0000
# 2 54.1672 106.5457 27.7629 0.0000 0.0000 0.0000
# 3 27.7630 27.7629 43.2755 0.0000 0.0000 0.0000
# 4 0.0000 0.0000 0.0000 31.0082 0.0000 0.0000
# 5 0.0000 0.0000 0.0000 0.0000 31.0079 0.0000
# 6 0.0000 0.0000 0.0000 0.0000 0.0000 13.2048
#
#
#
# Elastic Compliance Matrix: (Units=1/GPa)
#
#
# Indices 1 2 3 4 5 6 
#
# 1 0.013543 -0.005549 -0.005129 0.000000 0.000000 0.000000
# 2 -0.005549 0.013543 -0.005129 0.000000 0.000000 0.000000
# 3 -0.005129 -0.005129 0.029688 0.000000 0.000000 0.000000
# 4 0.000000 0.000000 0.000000 0.032250 0.000000 0.000000
# 5 0.000000 0.000000 0.000000 0.000000 0.032250 0.000000
# 6 0.000000 0.000000 0.000000 0.000000 0.000000 0.075730
#
#
# Mechanical properties :
#
#
# Convention : Reuss Voigt Hill
#
# Bulk Modulus (GPa) = 39.74222 52.86147 46.30184
# Shear Modulus (GPa) = 21.09681 24.82246 22.95963
#
# Velocity S-wave (km/s) = 3.50702 3.80410 3.65858
# Velocity P-wave (km/s) = 6.29032 7.07902 6.69629
#
# Compressibility (1/GPa) = 0.02516216
#
# Stress axis : x y z
#
# Youngs Moduli (GPa) = 73.83901 73.83902 33.68352
#
# Poissons Ratio (x) = 0.40972 0.17275
# Poissons Ratio (y) = 0.40972 0.17275
# Poissons Ratio (z) = 0.37869 0.37869
#
# Static dielectric constant tensor:
#      x y z
#    x 1.606880 0.000000 0.000000 
#    y 0.000000 1.606880 0.000000 
#    z 0.000000 0.000000 1.616040 
# 
# From -- ./inp_files/6306.got.cif
#   From: 2010.05.17/outbox.cif.g08.bks.cpg/sg91_4_cif.got.tgz:6306.got - 2010.06.03 19:20:03.
