data_PCOD9547887
_publ_section_title
;
Structure prediction by ZEFSAII (Michael W. Deem and Ramdas Pophale) SiO2 
 PCOD9547887
Probable space group: P 41 2 2
;
_chemical_formula_sum "Si O2"
_cell_formula_units_Z 56
_cell_length_a 12.700908
_cell_length_b 12.700908
_cell_length_c 19.312783
_cell_angle_alpha 90.000000
_cell_angle_beta 90.000000
_cell_angle_gamma 90.000000
_cell_volume 3115.404201
_symmetry_space_group_name_H-M "P 41 2 2"
_symmetry_group_IT_number 91
_symmetry_cell_setting 'tetragonal'
loop_
_space_group_symop_operation_xyz
x,y,z
-y,x,1/4+z
-x,-y,1/2+z
y,-x,3/4+z
x,-y,1/2-z
-x,y,-z
y,x,3/4-z
-y,-x,1/4-z
loop_
_atom_site_type_symbol
_atom_site_label
_atom_site_fract_x
_atom_site_fract_y
_atom_site_fract_z
Si Si1 0.894092 0.723689 0.085951
Si Si2 0.280650 0.138418 0.326040
Si Si3 0.458114 0.401500 0.077541
Si Si4 0.110980 0.268339 0.911633
Si Si5 0.227186 0.487071 0.065866
Si Si6 0.131216 0.264330 0.077858
Si Si7 0.500751 0.188304 0.847225
O O1 0.817915 0.789103 0.136673
O O2 0.891258 0.597861 0.097914
O O3 0.017316 0.748345 0.092361
O O4 0.853413 0.739818 0.006890
O O5 0.211789 0.211789 0.375000
O O6 0.402611 0.174210 0.337333
O O7 0.541544 0.458457 0.125000
O O8 0.346997 0.460698 0.086579
O O9 0.460621 0.281584 0.103160
O O10 0.500000 0.406977 0.000000
O O11 0.186045 0.186045 0.875000
O O12 0.140642 0.386505 0.886962
O O13 0.988375 0.246279 0.898397
O O14 0.130970 0.258415 0.994185
O O15 0.162591 0.385634 0.091947
O O16 0.227679 0.489896 0.982018
#
# Coordination Sequence:
#
# PCOD9547887 Si02
#       7
#     8   8   8   8   8   8   8
#     4  10  21  39  63  82 111 153 197 237 287 345
#     4  10  22  40  59  85 112 151 197 242 285 340
#     4  12  22  33  54  89 121 153 188 234 290 346
#     4  10  22  37  59  88 119 150 191 243 294 342
#     4  10  20  38  59  82 118 154 191 234 288 351
#     4  10  21  39  60  86 116 155 195 236 291 351
#     4  10  20  36  58  85 113 150 191 233 287 349
#
# _framework density 17.975196
#
# number of rings (size 3 to 8) (size 9 to 14) (size 15 to 20)
#    0.000    1.714    2.857    1.714    2.000    5.143 
#    0.000    3.571    0.000    3.429    0.000    0.000 
#    0.000    0.000    0.000    0.000    0.000    0.000 
#
# Total GULP energy -312242.580996 kJ/mol
# GULP energy per Si atom -5575.760375 kJ/mol
# Density = 1.793428 g / cm^3
# Si number density = 17.975196 Si / 1000 Ang^3
#
#
#
# Elastic Constant Matrix: (Units=GPa)
#
#
# Indices 1 2 3 4 5 6 
#
# 1 104.5186 48.3291 42.2451 0.0000 0.0000 0.0000
# 2 48.3291 104.5243 42.2447 0.0000 0.0000 0.0000
# 3 42.2451 42.2447 49.1766 0.0000 0.0000 0.0000
# 4 0.0000 0.0000 0.0000 27.7950 0.0000 0.0000
# 5 0.0000 0.0000 0.0000 0.0000 27.7949 0.0000
# 6 0.0000 0.0000 0.0000 0.0000 0.0000 12.8245
#
#
#
# Elastic Compliance Matrix: (Units=1/GPa)
#
#
# Indices 1 2 3 4 5 6 
#
# 1 0.015128 -0.002669 -0.010703 0.000000 0.000000 0.000000
# 2 -0.002669 0.015126 -0.010701 0.000000 0.000000 0.000000
# 3 -0.010703 -0.010701 0.038722 0.000000 0.000000 0.000000
# 4 0.000000 0.000000 0.000000 0.035978 0.000000 0.000000
# 5 0.000000 0.000000 0.000000 0.000000 0.035978 0.000000
# 6 0.000000 0.000000 0.000000 0.000000 0.000000 0.077976
#
#
# Mechanical properties :
#
#
# Convention : Reuss Voigt Hill
#
# Bulk Modulus (GPa) = 48.00788 58.20636 53.10712
# Shear Modulus (GPa) = 18.24843 22.04291 20.14567
#
# Velocity S-wave (km/s) = 3.18968 3.50565 3.35139
# Velocity P-wave (km/s) = 6.35069 6.98841 6.67717
#
# Compressibility (1/GPa) = 0.02082992
#
# Stress axis : x y z
#
# Youngs Moduli (GPa) = 66.10395 66.11009 25.82527
#
# Poissons Ratio (x) = 0.17645 0.27640
# Poissons Ratio (y) = 0.17643 0.27636
# Poissons Ratio (z) = 0.70748 0.70746
#
# Static dielectric constant tensor:
#      x y z
#    x 1.612360 0.000000 0.000000 
#    y 0.000000 1.612360 0.000000 
#    z 0.000000 0.000000 1.611160 
# 
# From -- ./inp_files/6382.got.cif
#   From: 2010.05.17/outbox.cif.g08.bks.cpg/sg91_4_cif.got.tgz:6382.got - 2010.06.03 19:20:03.
