data_PCOD9547067
_publ_section_title
;
Structure prediction by ZEFSAII (Michael W. Deem and Ramdas Pophale) SiO2 
 PCOD9547067
Probable space group: P 4 21 2
;
_chemical_formula_sum "Si O2"
_cell_formula_units_Z 38
_cell_length_a 13.959125
_cell_length_b 13.959125
_cell_length_c 7.900175
_cell_angle_alpha 90.000000
_cell_angle_beta 90.000000
_cell_angle_gamma 90.000000
_cell_volume 1539.405749
_symmetry_space_group_name_H-M "P 4 21 2"
_symmetry_group_IT_number 90
_symmetry_cell_setting 'tetragonal'
loop_
_space_group_symop_operation_xyz
x,y,z
1/2-y,1/2+x,z
-x,-y,z
1/2+y,1/2-x,z
1/2+x,1/2-y,-z
1/2-x,1/2+y,-z
y,x,-z
-y,-x,-z
loop_
_atom_site_type_symbol
_atom_site_label
_atom_site_fract_x
_atom_site_fract_y
_atom_site_fract_z
Si Si1 0.754879 0.754879 0.000000
Si Si2 0.325638 0.477072 0.550641
Si Si3 0.638082 0.401912 0.231918
Si Si4 0.000000 0.000000 0.000000
Si Si5 0.069811 0.637776 0.464199
Si Si6 0.921328 0.364521 0.054550
O O1 0.826423 0.791047 0.147912
O O2 0.643873 0.780925 0.021353
O O3 0.419612 0.419612 0.500000
O O4 0.313406 0.549973 0.393184
O O5 0.345539 0.542602 0.710911
O O6 0.236762 0.405135 0.552393
O O7 0.595707 0.486677 0.113579
O O8 0.958746 0.621989 0.515201
O O9 0.856008 0.577418 0.260110
O O10 0.872946 0.466929 0.007302
#
# Coordination Sequence:
#
# PCOD9547067 Si02
#       6
#     4   8   8   2   8   8
#     4  11  22  39  67 103 128 178 230 278 330 419
#     4  11  20  39  62  94 127 174 212 275 341 395
#     4  10  20  35  60  89 134 166 215 269 328 400
#     4  10  16  34  54  80 124 186 200 258 334 392
#     4   9  19  39  64  87 120 164 214 271 330 393
#     4   9  19  41  66  91 130 177 221 274 338 402
#
# _framework density 24.684850000000001
#
# number of rings (size 3 to 8) (size 9 to 14) (size 15 to 20)
#    0.000    2.105    2.105    4.421    0.000    0.000 
#   11.368    2.105    0.000    2.526    0.000    0.000 
#    0.000    0.000    0.000    0.000    0.000    0.000 
#
# Total GULP energy -212420.397789 kJ/mol
# GULP energy per Si atom -5590.010468 kJ/mol
# Density = 2.462867 g / cm^3
# Si number density = 24.684850 Si / 1000 Ang^3
#
#
#
# Elastic Constant Matrix: (Units=GPa)
#
#
# Indices 1 2 3 4 5 6 
#
# 1 95.8813 50.6698 9.2562 0.0000 0.0000 0.0000
# 2 50.6698 95.8813 9.2562 0.0000 0.0000 0.0000
# 3 9.2562 9.2562 50.6799 0.0000 0.0000 0.0000
# 4 0.0000 0.0000 0.0000 10.8281 0.0000 0.0000
# 5 0.0000 0.0000 0.0000 0.0000 10.8281 0.0000
# 6 0.0000 0.0000 0.0000 0.0000 0.0000 32.5537
#
#
#
# Elastic Compliance Matrix: (Units=1/GPa)
#
#
# Indices 1 2 3 4 5 6 
#
# 1 0.014551 -0.007567 -0.001276 0.000000 0.000000 0.000000
# 2 -0.007567 0.014551 -0.001276 0.000000 0.000000 0.000000
# 3 -0.001276 -0.001276 0.020198 0.000000 0.000000 0.000000
# 4 0.000000 0.000000 0.000000 0.092352 0.000000 0.000000
# 5 0.000000 0.000000 0.000000 0.000000 0.092352 0.000000
# 6 0.000000 0.000000 0.000000 0.000000 0.000000 0.030718
#
#
# Mechanical properties :
#
#
# Convention : Reuss Voigt Hill
#
# Bulk Modulus (GPa) = 34.40644 42.31189 38.35916
# Shear Modulus (GPa) = 16.96941 22.39268 19.68104
#
# Velocity S-wave (km/s) = 2.62476 3.01515 2.82670
# Velocity P-wave (km/s) = 4.81189 5.41290 5.12122
#
# Compressibility (1/GPa) = 0.02906433
#
# Stress axis : x y z
#
# Youngs Moduli (GPa) = 68.72152 68.72152 49.51063
#
# Poissons Ratio (x) = 0.52000 0.06316
# Poissons Ratio (y) = 0.52000 0.06316
# Poissons Ratio (z) = 0.08767 0.08767
#
# Static dielectric constant tensor:
#      x y z
#    x 1.981840 0.000000 0.000000 
#    y 0.000000 1.981840 0.000000 
#    z 0.000000 0.000000 1.983150 
# 
# From -- ./inp_files/1223.got.cif
#   From: 2010.05.17/outbox.cif.g08.bks.cpg/sg90_1_cif.got.tgz:1223.got - 2010.06.03 19:17:45.
