data_PCOD9547324
_publ_section_title
;
Structure prediction by ZEFSAII (Michael W. Deem and Ramdas Pophale) SiO2 
 PCOD9547324
Probable space group: P 4 21 2
;
_chemical_formula_sum "Si O2"
_cell_formula_units_Z 48
_cell_length_a 8.138021
_cell_length_b 8.138021
_cell_length_c 32.836436
_cell_angle_alpha 90.000000
_cell_angle_beta 90.000000
_cell_angle_gamma 90.000000
_cell_volume 2174.671315
_symmetry_space_group_name_H-M "P 4 21 2"
_symmetry_group_IT_number 90
_symmetry_cell_setting 'tetragonal'
loop_
_space_group_symop_operation_xyz
x,y,z
1/2-y,1/2+x,z
-x,-y,z
1/2+y,1/2-x,z
1/2+x,1/2-y,-z
1/2-x,1/2+y,-z
y,x,-z
-y,-x,-z
loop_
_atom_site_type_symbol
_atom_site_label
_atom_site_fract_x
_atom_site_fract_y
_atom_site_fract_z
Si Si1 0.412442 0.736261 0.539115
Si Si2 0.092111 0.236447 0.372902
Si Si3 0.913723 0.763170 0.792776
Si Si4 0.736019 0.413609 0.284986
Si Si5 0.263952 0.581209 0.038922
Si Si6 0.763345 0.909776 0.117184
O O1 0.598978 0.800918 0.537633
O O2 0.369282 0.630719 0.500000
O O3 0.379176 0.653970 0.583325
O O4 0.199660 0.403798 0.372905
O O5 0.120323 0.153539 0.329149
O O6 0.801309 0.599691 0.790792
O O7 0.868976 0.871738 0.754294
O O8 0.884568 0.836988 0.837678
O O9 0.801393 0.599781 0.283619
O O10 0.197672 0.396855 0.037564
O O11 0.357745 0.621056 0.080555
O O12 0.371440 0.628561 0.000000
O O13 0.597022 0.800202 0.114164
#
# Coordination Sequence:
#
# PCOD9547324 Si02
#       6
#     8   8   8   8   8   8
#     4   9  17  30  48  68  91 121 157 196 240 291
#     4   7  12  26  46  65  88 121 158 195 237 285
#     4   9  19  35  52  72 102 137 167 198 242 293
#     4   9  17  30  50  74  96 121 160 207 246 284
#     4  11  24  39  56  81 110 137 168 207 249 293
#     4   9  19  37  58  77 100 134 174 209 242 287
#
# _framework density 22.072301
#
# number of rings (size 3 to 8) (size 9 to 14) (size 15 to 20)
#    0.000    3.000    0.000    4.000    0.000    6.000 
#    0.000    6.667    0.000    8.000    0.000    0.000 
#    0.000    0.000    0.000    0.000    0.000    0.000 
#
# Total GULP energy -268259.461860 kJ/mol
# GULP energy per Si atom -5588.738789 kJ/mol
# Density = 2.202206 g / cm^3
# Si number density = 22.072301 Si / 1000 Ang^3
#
#
#
# Elastic Constant Matrix: (Units=GPa)
#
#
# Indices 1 2 3 4 5 6 
#
# 1 53.7173 37.1922 65.2757 0.0000 0.0000 0.0000
# 2 37.1922 53.7178 65.2764 0.0000 0.0000 0.0000
# 3 65.2757 65.2764 261.7856 0.0000 0.0000 0.0000
# 4 0.0000 0.0000 0.0000 119.2597 0.0000 0.0000
# 5 0.0000 0.0000 0.0000 0.0000 119.2597 0.0000
# 6 0.0000 0.0000 0.0000 0.0000 0.0000 35.4147
#
#
#
# Elastic Compliance Matrix: (Units=1/GPa)
#
#
# Indices 1 2 3 4 5 6 
#
# 1 0.038825 -0.021688 -0.004273 0.000000 0.000000 0.000000
# 2 -0.021688 0.038824 -0.004273 0.000000 0.000000 0.000000
# 3 -0.004273 -0.004273 0.005951 0.000000 0.000000 0.000000
# 4 0.000000 0.000000 0.000000 0.008385 0.000000 0.000000
# 5 0.000000 0.000000 0.000000 0.000000 0.008385 0.000000
# 6 0.000000 0.000000 0.000000 0.000000 0.000000 0.028237
#
#
# Mechanical properties :
#
#
# Convention : Reuss Voigt Hill
#
# Bulk Modulus (GPa) = 43.23129 78.30104 60.76616
# Shear Modulus (GPa) = 25.40835 68.21857 46.81346
#
# Velocity S-wave (km/s) = 3.39653 5.56543 4.61033
# Velocity P-wave (km/s) = 5.91698 8.76644 7.47867
#
# Compressibility (1/GPa) = 0.02313139
#
# Stress axis : x y z
#
# Youngs Moduli (GPa) = 25.75688 25.75698 168.04506
#
# Poissons Ratio (x) = 0.55863 0.71802
# Poissons Ratio (y) = 0.55863 0.71804
# Poissons Ratio (z) = 0.11005 0.11006
#
# Static dielectric constant tensor:
#      x y z
#    x 1.797900 0.000000 0.000000 
#    y 0.000000 1.797900 0.000000 
#    z 0.000000 0.000000 1.827710 
# 
# From -- ./inp_files/3032.got.cif
#   From: 2010.05.17/outbox.cif.g08.bks.cpg/sg90_2_cif.got.tgz:3032.got - 2010.06.03 19:17:45.
