data_PCOD9547860
_publ_section_title
;
Structure prediction by ZEFSAII (Michael W. Deem and Ramdas Pophale) SiO2 
 PCOD9547860
Probable space group: P 41 2 2
;
_chemical_formula_sum "Si O2"
_cell_formula_units_Z 60
_cell_length_a 17.223897
_cell_length_b 17.223897
_cell_length_c 9.685073
_cell_angle_alpha 90.000000
_cell_angle_beta 90.000000
_cell_angle_gamma 90.000000
_cell_volume 2873.199207
_symmetry_space_group_name_H-M "P 41 2 2"
_symmetry_group_IT_number 91
_symmetry_cell_setting 'tetragonal'
loop_
_space_group_symop_operation_xyz
x,y,z
-y,x,1/4+z
-x,-y,1/2+z
y,-x,3/4+z
x,-y,1/2-z
-x,y,-z
y,x,3/4-z
-y,-x,1/4-z
loop_
_atom_site_type_symbol
_atom_site_label
_atom_site_fract_x
_atom_site_fract_y
_atom_site_fract_z
Si Si1 0.599604 0.943442 0.632790
Si Si2 0.570783 0.790940 0.106287
Si Si3 0.465086 0.227231 0.139903
Si Si4 0.343196 0.045919 0.607870
Si Si5 0.102344 0.102344 0.375000
Si Si6 0.878063 0.771374 0.115310
Si Si7 0.995234 0.826459 0.334295
Si Si8 0.721750 0.293328 0.466371
O O1 0.553553 0.864173 0.620142
O O2 0.688243 0.917638 0.666956
O O3 0.567744 0.000000 0.750000
O O4 0.607466 0.994098 0.496726
O O5 0.531342 0.767896 0.247694
O O6 0.618758 0.870554 0.116539
O O7 0.633840 0.727552 0.065795
O O8 0.500000 0.800519 0.000000
O O9 0.384176 0.262914 0.191754
O O10 0.500000 0.260641 0.000000
O O11 0.342980 0.000000 0.750000
O O12 0.252170 0.047114 0.565313
O O13 0.104163 0.172848 0.485782
O O14 0.030017 0.110009 0.270527
O O15 0.913658 0.802935 0.260235
O O16 0.786241 0.753698 0.121217
O O17 0.000000 0.844287 0.500000
O O18 0.732215 0.267785 0.625000
#
# Coordination Sequence:
#
# PCOD9547860 Si02
#       8
#     8   8   8   8   4   8   8   8
#     4  10  20  35  58  92 136 179 213 257 327 404
#     4  12  24  40  68 101 133 177 225 273 337 409
#     4  11  25  42  62  95 140 177 220 282 339 400
#     4  10  21  37  58  94 142 181 214 259 333 410
#     4  12  20  36  66  94 122 172 232 278 344 382
#     4  10  21  38  67  96 128 177 232 280 332 410
#     4  10  23  41  61  97 140 176 226 291 349 411
#     4  11  23  44  72 100 132 179 234 280 339 419
#
# _framework density 20.882646000000001
#
# number of rings (size 3 to 8) (size 9 to 14) (size 15 to 20)
#    0.000    1.333    2.000    4.400    1.867    5.333 
#    0.000    4.000    0.000    8.800    0.000    0.000 
#    0.000    0.000    0.000    0.000    0.000    0.000 
#
# Total GULP energy -335427.088372 kJ/mol
# GULP energy per Si atom -5590.451473 kJ/mol
# Density = 2.083512 g / cm^3
# Si number density = 20.882646 Si / 1000 Ang^3
#
#
#
# Elastic Constant Matrix: (Units=GPa)
#
#
# Indices 1 2 3 4 5 6 
#
# 1 76.2642 45.0631 29.2710 0.0000 0.0000 0.0000
# 2 45.0631 76.2651 29.2713 0.0000 0.0000 0.0000
# 3 29.2710 29.2713 121.1649 0.0000 0.0000 0.0000
# 4 0.0000 0.0000 0.0000 57.1399 0.0000 0.0000
# 5 0.0000 0.0000 0.0000 0.0000 57.1395 0.0000
# 6 0.0000 0.0000 0.0000 0.0000 0.0000 21.2030
#
#
#
# Elastic Compliance Matrix: (Units=1/GPa)
#
#
# Indices 1 2 3 4 5 6 
#
# 1 0.020690 -0.011360 -0.002254 0.000000 0.000000 0.000000
# 2 -0.011360 0.020690 -0.002254 0.000000 0.000000 0.000000
# 3 -0.002254 -0.002254 0.009342 0.000000 0.000000 0.000000
# 4 0.000000 0.000000 0.000000 0.017501 0.000000 0.000000
# 5 0.000000 0.000000 0.000000 0.000000 0.017501 0.000000
# 6 0.000000 0.000000 0.000000 0.000000 0.000000 0.047163
#
#
# Mechanical properties :
#
#
# Convention : Reuss Voigt Hill
#
# Bulk Modulus (GPa) = 52.67029 53.43391 53.05210
# Shear Modulus (GPa) = 29.24816 38.43573 33.84195
#
# Velocity S-wave (km/s) = 3.74651 4.29483 4.03001
# Velocity P-wave (km/s) = 6.63264 7.08783 6.86401
#
# Compressibility (1/GPa) = 0.01898604
#
# Stress axis : x y z
#
# Youngs Moduli (GPa) = 48.33299 48.33353 107.04119
#
# Poissons Ratio (x) = 0.54907 0.24126
# Poissons Ratio (y) = 0.54906 0.24126
# Poissons Ratio (z) = 0.10894 0.10894
#
# Static dielectric constant tensor:
#      x y z
#    x 1.746330 0.000000 0.000000 
#    y 0.000000 1.746330 0.000000 
#    z 0.000000 0.000000 1.698020 
# 
# From -- ./inp_files/15303.got.cif
#   From: 2010.05.17/outbox.cif.g08.bks.cpg/sg91_8_cif.got.tgz:15303.got - 2010.06.03 19:20:03.
