data_PCOD9547816
_publ_section_title
;
Structure prediction by ZEFSAII (Michael W. Deem and Ramdas Pophale) SiO2 
 PCOD9547816
Probable space group: P 41 2 2
;
_chemical_formula_sum "Si O2"
_cell_formula_units_Z 28
_cell_length_a 13.911489
_cell_length_b 13.911489
_cell_length_c 7.060542
_cell_angle_alpha 90.000000
_cell_angle_beta 90.000000
_cell_angle_gamma 90.000000
_cell_volume 1366.423348
_symmetry_space_group_name_H-M "P 41 2 2"
_symmetry_group_IT_number 91
_symmetry_cell_setting 'tetragonal'
loop_
_space_group_symop_operation_xyz
x,y,z
-y,x,1/4+z
-x,-y,1/2+z
y,-x,3/4+z
x,-y,1/2-z
-x,y,-z
y,x,3/4-z
-y,-x,1/4-z
loop_
_atom_site_type_symbol
_atom_site_label
_atom_site_fract_x
_atom_site_fract_y
_atom_site_fract_z
Si Si1 0.867506 0.000000 0.750000
Si Si2 0.230550 0.184752 0.151957
Si Si3 0.112137 0.636232 0.446302
Si Si4 0.423894 0.884480 0.242096
O O1 0.806517 0.924770 0.626482
O O2 0.935005 0.064996 0.625000
O O3 0.207968 0.207968 0.375000
O O4 0.174439 0.266633 0.035530
O O5 0.345107 0.173845 0.138396
O O6 0.138701 0.534043 0.540752
O O7 0.129091 0.605872 0.227149
O O8 0.000000 0.654365 0.500000
O O9 0.415099 0.000000 0.250000
#
# Coordination Sequence:
#
# PCOD9547816 Si02
#       4
#     4   8   8   8
#     4  10  20  30  42  62  96 138 162 192 234 298
#     4   9  17  30  45  66  96 133 161 198 251 291
#     4   9  18  29  47  71  94 125 172 206 232 298
#     4   9  16  31  48  64  96 132 159 205 252 284
#
# _framework density 20.491453
#
# number of rings (size 3 to 8) (size 9 to 14) (size 15 to 20)
#    0.000    2.857    1.429    0.000    2.000    0.000 
#    0.000    1.429    0.000    0.000    0.000    0.000 
#    0.000  114.286    0.000    0.000    0.000    0.000 
#
# Total GULP energy -156046.486246 kJ/mol
# GULP energy per Si atom -5573.088795 kJ/mol
# Density = 2.044481 g / cm^3
# Si number density = 20.491453 Si / 1000 Ang^3
#
#
#
# Elastic Constant Matrix: (Units=GPa)
#
#
# Indices 1 2 3 4 5 6 
#
# 1 166.4702 118.7572 35.1074 0.0000 0.0000 0.0000
# 2 118.7572 166.4701 35.1087 0.0000 0.0000 0.0000
# 3 35.1074 35.1087 51.0571 0.0000 0.0000 0.0000
# 4 0.0000 0.0000 0.0000 31.6798 0.0000 0.0000
# 5 0.0000 0.0000 0.0000 0.0000 31.6802 0.0000
# 6 0.0000 0.0000 0.0000 0.0000 0.0000 196.7047
#
#
#
# Elastic Compliance Matrix: (Units=1/GPa)
#
#
# Indices 1 2 3 4 5 6 
#
# 1 0.012589 -0.008369 -0.002902 0.000000 0.000000 0.000000
# 2 -0.008369 0.012590 -0.002902 0.000000 0.000000 0.000000
# 3 -0.002902 -0.002902 0.023577 0.000000 0.000000 0.000000
# 4 0.000000 0.000000 0.000000 0.031566 0.000000 0.000000
# 5 0.000000 0.000000 0.000000 0.000000 0.031566 0.000000
# 6 0.000000 0.000000 0.000000 0.000000 0.000000 0.005084
#
#
# Mechanical properties :
#
#
# Convention : Reuss Voigt Hill
#
# Bulk Modulus (GPa) = 48.99668 84.66046 66.82857
# Shear Modulus (GPa) = 32.86864 65.01455 48.94160
#
# Velocity S-wave (km/s) = 4.00936 5.63884 4.89242
# Velocity P-wave (km/s) = 6.73766 9.15424 8.03729
#
# Compressibility (1/GPa) = 0.02040955
#
# Stress axis : x y z
#
# Youngs Moduli (GPa) = 79.43157 79.43055 42.41436
#
# Poissons Ratio (x) = 0.66477 0.12307
# Poissons Ratio (y) = 0.66477 0.12310
# Poissons Ratio (z) = 0.23049 0.23054
#
# Static dielectric constant tensor:
#      x y z
#    x 1.748900 0.000000 0.000000 
#    y 0.000000 1.748900 0.000000 
#    z 0.000000 0.000000 2.323810 
# 
# From -- ./inp_files/9429.got.cif
#   From: 2010.05.17/outbox.cif.g08.bks.cpg/sg91_5_cif.got.tgz:9429.got - 2010.06.03 19:20:03.
