data_PCOD9547544
_publ_section_title
;
Structure prediction by ZEFSAII (Michael W. Deem and Ramdas Pophale) SiO2 
 PCOD9547544
Probable space group: P 41 2 2
;
_chemical_formula_sum "Si O2"
_cell_formula_units_Z 48
_cell_length_a 25.170711
_cell_length_b 25.170711
_cell_length_c 4.975200
_cell_angle_alpha 90.000000
_cell_angle_beta 90.000000
_cell_angle_gamma 90.000000
_cell_volume 3152.111057
_symmetry_space_group_name_H-M "P 41 2 2"
_symmetry_group_IT_number 91
_symmetry_cell_setting 'tetragonal'
loop_
_space_group_symop_operation_xyz
x,y,z
-y,x,1/4+z
-x,-y,1/2+z
y,-x,3/4+z
x,-y,1/2-z
-x,y,-z
y,x,3/4-z
-y,-x,1/4-z
loop_
_atom_site_type_symbol
_atom_site_label
_atom_site_fract_x
_atom_site_fract_y
_atom_site_fract_z
Si Si1 0.537449 0.381455 0.235696
Si Si2 0.607601 0.285117 0.089481
Si Si3 0.179253 0.552912 0.604430
Si Si4 0.328521 0.247715 0.416045
Si Si5 0.144846 0.390054 0.401359
Si Si6 0.560949 0.038892 0.501088
O O1 0.500000 0.386852 0.500000
O O2 0.564181 0.435820 0.125000
O O3 0.584527 0.338005 0.229452
O O4 0.500000 0.361345 0.000000
O O5 0.561278 0.241311 0.087904
O O6 0.652262 0.262678 0.287751
O O7 0.633856 0.281287 0.793900
O O8 0.160429 0.500000 0.750000
O O9 0.171987 0.564464 0.290221
O O10 0.148142 0.596547 0.783124
O O11 0.269547 0.269547 0.375000
O O12 0.340837 0.185226 0.381911
O O13 0.085036 0.395766 0.295096
O O14 0.500000 0.061727 0.500000
O O15 0.562572 0.000000 0.750000
O O16 0.568381 0.000000 0.250000
#
# Coordination Sequence:
#
# PCOD9547544 Si02
#       6
#     8   8   8   8   8   8
#     4  12  25  40  55  67  80  98 123 156 196 248
#     4  10  21  34  51  70  86 104 126 156 200 254
#     4  10  18  29  45  65  89 109 131 165 203 249
#     4  10  19  33  51  70  91 111 132 163 207 256
#     4  10  20  30  44  65  87 115 144 173 209 250
#     4  10  19  30  44  61  85 117 150 181 211 245
#
# _framework density 15.227888999999999
#
# number of rings (size 3 to 8) (size 9 to 14) (size 15 to 20)
#    0.000    1.667    0.000    6.000    0.000    4.667 
#    0.000    0.000    0.000    0.000    0.000    0.000 
#    0.000    0.000    0.000    0.000    0.000    0.000 
#
# Total GULP energy -267204.310158 kJ/mol
# GULP energy per Si atom -5566.756462 kJ/mol
# Density = 1.519323 g / cm^3
# Si number density = 15.227889 Si / 1000 Ang^3
#
#
#
# Elastic Constant Matrix: (Units=GPa)
#
#
# Indices 1 2 3 4 5 6 
#
# 1 61.0099 33.4481 9.7173 0.0000 0.0000 0.0000
# 2 33.4481 61.0080 9.7173 0.0000 0.0000 0.0000
# 3 9.7173 9.7173 90.8762 0.0000 0.0000 0.0000
# 4 0.0000 0.0000 0.0000 11.8568 0.0000 0.0000
# 5 0.0000 0.0000 0.0000 0.0000 11.8442 0.0000
# 6 0.0000 0.0000 0.0000 0.0000 0.0000 14.5318
#
#
#
# Elastic Compliance Matrix: (Units=1/GPa)
#
#
# Indices 1 2 3 4 5 6 
#
# 1 0.023554 -0.012729 -0.001157 0.000000 0.000000 0.000000
# 2 -0.012729 0.023555 -0.001158 0.000000 0.000000 0.000000
# 3 -0.001157 -0.001158 0.011252 0.000000 0.000000 0.000000
# 4 0.000000 0.000000 0.000000 0.084340 0.000000 0.000000
# 5 0.000000 0.000000 0.000000 0.000000 0.084429 0.000000
# 6 0.000000 0.000000 0.000000 0.000000 0.000000 0.068815
#
#
# Mechanical properties :
#
#
# Convention : Reuss Voigt Hill
#
# Bulk Modulus (GPa) = 35.37136 35.40661 35.38898
# Shear Modulus (GPa) = 14.90511 18.31400 16.60956
#
# Velocity S-wave (km/s) = 3.13198 3.47170 3.30621
# Velocity P-wave (km/s) = 6.02972 6.27471 6.15343
#
# Compressibility (1/GPa) = 0.02827146
#
# Stress axis : x y z
#
# Youngs Moduli (GPa) = 42.45600 42.45460 88.87687
#
# Poissons Ratio (x) = 0.54041 0.10287
# Poissons Ratio (y) = 0.54043 0.10288
# Poissons Ratio (z) = 0.04914 0.04914
#
# Static dielectric constant tensor:
#      x y z
#    x 1.476850 0.000000 0.000000 
#    y 0.000000 1.477070 0.000000 
#    z 0.000000 0.000000 1.521860 
# 
# From -- ./inp_files/18982.got.cif
#   From: 2010.05.17/outbox.cif.g08.bks.cpg/sg91_10_cif.got.tgz:18982.got - 2010.06.03 19:20:03.
