data_PCOD9547245
_publ_section_title
;
Structure prediction by ZEFSAII (Michael W. Deem and Ramdas Pophale) SiO2 
 PCOD9547245
Probable space group: P 4 21 2
;
_chemical_formula_sum "Si O2"
_cell_formula_units_Z 54
_cell_length_a 15.010524
_cell_length_b 15.010524
_cell_length_c 10.348398
_cell_angle_alpha 90.000000
_cell_angle_beta 90.000000
_cell_angle_gamma 90.000000
_cell_volume 2331.657892
_symmetry_space_group_name_H-M "P 4 21 2"
_symmetry_group_IT_number 90
_symmetry_cell_setting 'tetragonal'
loop_
_space_group_symop_operation_xyz
x,y,z
1/2-y,1/2+x,z
-x,-y,z
1/2+y,1/2-x,z
1/2+x,1/2-y,-z
1/2-x,1/2+y,-z
y,x,-z
-y,-x,-z
loop_
_atom_site_type_symbol
_atom_site_label
_atom_site_fract_x
_atom_site_fract_y
_atom_site_fract_z
Si Si1 0.457644 0.189821 0.024685
Si Si2 0.358835 0.175846 0.276924
Si Si3 0.130946 0.869055 0.000000
Si Si4 0.091692 0.615725 0.434839
Si Si5 0.500087 0.404729 0.769699
Si Si6 0.124678 0.196973 0.879488
Si Si7 0.859547 0.199825 0.358065
Si Si8 0.000000 0.500000 0.080920
O O1 0.422416 0.147549 0.159390
O O2 0.386135 0.263669 0.982864
O O3 0.539419 0.254197 0.059183
O O4 0.480658 0.109102 0.931003
O O5 0.391483 0.138579 0.413497
O O6 0.259389 0.146648 0.241422
O O7 0.349814 0.283104 0.276459
O O8 0.073770 0.910901 0.117409
O O9 0.119934 0.514381 0.408841
O O10 0.142803 0.693088 0.357595
O O11 0.500000 0.500000 0.700494
O O12 0.596429 0.386636 0.829515
O O13 0.458628 0.329586 0.678976
O O14 0.191888 0.191888 0.000000
O O15 0.834092 0.165909 0.500000
#
# Coordination Sequence:
#
# PCOD9547245 Si02
#       8
#     8   8   4   8   8   8   8   2
#     4  12  24  42  69  98 142 185 234 289 353 426
#     4  11  23  40  67  98 135 179 231 293 356 423
#     4  12  23  44  70 100 146 199 234 276 360 453
#     4  10  23  43  70  92 126 182 240 294 355 423
#     4  12  22  41  70 101 143 183 228 279 348 437
#     4  12  24  39  67 106 140 184 232 282 360 431
#     4  10  24  44  64 100 137 174 233 293 357 422
#     4  12  28  44  64 100 144 174 244 312 344 408
#
# _framework density 23.159488
#
# number of rings (size 3 to 8) (size 9 to 14) (size 15 to 20)
#    0.000    0.741    5.926    1.111    3.111    1.481 
#    0.000    0.000    0.000    0.000    0.000    0.000 
#    0.000    0.000    0.000    0.000    0.000    0.000 
#
# Total GULP energy -301174.409796 kJ/mol
# GULP energy per Si atom -5577.303885 kJ/mol
# Density = 2.310678 g / cm^3
# Si number density = 23.159488 Si / 1000 Ang^3
#
#
#
# Elastic Constant Matrix: (Units=GPa)
#
#
# Indices 1 2 3 4 5 6 
#
# 1 125.2537 35.8819 3.7590 0.0000 0.0000 0.0000
# 2 35.8819 125.2531 3.7586 0.0000 0.0000 0.0000
# 3 3.7590 3.7586 7.3016 0.0000 0.0000 0.0000
# 4 0.0000 0.0000 0.0000 22.7865 0.0000 0.0000
# 5 0.0000 0.0000 0.0000 0.0000 22.7865 0.0000
# 6 0.0000 0.0000 0.0000 0.0000 0.0000 23.9001
#
#
#
# Elastic Compliance Matrix: (Units=1/GPa)
#
#
# Indices 1 2 3 4 5 6 
#
# 1 0.008774 -0.002415 -0.003274 0.000000 0.000000 0.000000
# 2 -0.002415 0.008774 -0.003273 0.000000 0.000000 0.000000
# 3 -0.003274 -0.003273 0.140326 0.000000 0.000000 0.000000
# 4 0.000000 0.000000 0.000000 0.043886 0.000000 0.000000
# 5 0.000000 0.000000 0.000000 0.000000 0.043886 0.000000
# 6 0.000000 0.000000 0.000000 0.000000 0.000000 0.041841
#
#
# Mechanical properties :
#
#
# Convention : Reuss Voigt Hill
#
# Bulk Modulus (GPa) = 7.14541 38.28972 22.71756
# Shear Modulus (GPa) = 14.20211 28.18853 21.19532
#
# Velocity S-wave (km/s) = 2.47904 3.49255 3.02849
# Velocity P-wave (km/s) = 3.35949 5.72999 4.69675
#
# Compressibility (1/GPa) = 0.13994998
#
# Stress axis : x y z
#
# Youngs Moduli (GPa) = 113.97369 113.97348 7.12626
#
# Poissons Ratio (x) = 0.27528 0.02333
# Poissons Ratio (y) = 0.27528 0.02333
# Poissons Ratio (z) = 0.37311 0.37305
#
# Static dielectric constant tensor:
#      x y z
#    x 1.907600 0.000000 0.000000 
#    y 0.000000 1.907600 0.000000 
#    z 0.000000 0.000000 1.955410 
# 
# From -- ./inp_files/2299.got.cif
#   From: 2010.05.17/outbox.cif.g08.bks.cpg/sg90_2_cif.got.tgz:2299.got - 2010.06.03 19:17:45.
