data_PCOD9547206
_publ_section_title
;
Structure prediction by ZEFSAII (Michael W. Deem and Ramdas Pophale) SiO2 
 PCOD9547206
Probable space group: P 4 21 2
;
_chemical_formula_sum "Si O2"
_cell_formula_units_Z 60
_cell_length_a 11.721577
_cell_length_b 11.721577
_cell_length_c 21.774864
_cell_angle_alpha 90.000000
_cell_angle_beta 90.000000
_cell_angle_gamma 90.000000
_cell_volume 2991.765439
_symmetry_space_group_name_H-M "P 4 21 2"
_symmetry_group_IT_number 90
_symmetry_cell_setting 'tetragonal'
loop_
_space_group_symop_operation_xyz
x,y,z
1/2-y,1/2+x,z
-x,-y,z
1/2+y,1/2-x,z
1/2+x,1/2-y,-z
1/2-x,1/2+y,-z
y,x,-z
-y,-x,-z
loop_
_atom_site_type_symbol
_atom_site_label
_atom_site_fract_x
_atom_site_fract_y
_atom_site_fract_z
Si Si1 0.863323 0.381758 0.926179
Si Si2 0.961818 0.686611 0.584562
Si Si3 0.965844 0.688204 0.442335
Si Si4 0.502208 0.636286 0.886109
Si Si5 0.265900 0.372486 0.812607
Si Si6 0.084242 0.104387 0.352640
Si Si7 0.133823 0.169104 0.777553
Si Si8 0.349284 0.650717 0.000000
O O1 0.847254 0.511859 0.946411
O O2 0.873662 0.347318 0.855364
O O3 0.752196 0.328006 0.952841
O O4 0.870549 0.585336 0.593188
O O5 0.956246 0.726171 0.513465
O O6 0.936381 0.789348 0.629358
O O7 0.872096 0.588504 0.434138
O O8 0.947896 0.789805 0.395419
O O9 0.500000 0.500000 0.885238
O O10 0.626646 0.663804 0.856580
O O11 0.404002 0.671005 0.837425
O O12 0.461948 0.661344 0.956377
O O13 0.224234 0.272394 0.767184
O O14 0.292928 0.499700 0.787267
O O15 0.086692 0.135391 0.281014
O O16 0.000000 0.000000 0.363652
#
# Coordination Sequence:
#
# PCOD9547206 Si02
#       8
#     8   8   8   8   8   8   8   4
#     4  11  23  39  61  90 123 155 201 253 312 382
#     4   9  21  42  64  97 137 174 214 267 334 392
#     4   9  21  43  69  93 131 178 219 268 326 388
#     4  10  22  40  62  89 122 160 208 255 316 386
#     4  11  21  43  65  84 124 165 208 256 325 385
#     4  12  26  39  65  98 134 171 225 273 324 390
#     4  11  25  42  62  92 123 167 209 268 315 376
#     4  12  23  38  64  95 122 164 204 264 321 380
#
# _framework density 20.055047999999999
#
# number of rings (size 3 to 8) (size 9 to 14) (size 15 to 20)
#    0.000    1.467    2.667    3.400    5.600    2.400 
#    0.000    0.000    0.000    0.400    0.000    0.000 
#    0.000    0.000    0.000    0.000    0.000    0.000 
#
# Total GULP energy -334285.877939 kJ/mol
# GULP energy per Si atom -5571.431299 kJ/mol
# Density = 2.000940 g / cm^3
# Si number density = 20.055048 Si / 1000 Ang^3
#
#
#
# Elastic Constant Matrix: (Units=GPa)
#
#
# Indices 1 2 3 4 5 6 
#
# 1 51.6918 -4.4375 10.3077 0.0000 0.0000 0.0000
# 2 -4.4375 51.6916 10.3077 0.0000 0.0000 0.0000
# 3 10.3077 10.3077 67.0334 0.0000 0.0000 0.0000
# 4 0.0000 0.0000 0.0000 65.1380 0.0000 0.0000
# 5 0.0000 0.0000 0.0000 0.0000 64.9608 0.0000
# 6 0.0000 0.0000 0.0000 0.0000 0.0000 12.6389
#
#
#
# Elastic Compliance Matrix: (Units=1/GPa)
#
#
# Indices 1 2 3 4 5 6 
#
# 1 0.020250 0.002434 -0.003488 0.000000 0.000000 0.000000
# 2 0.002434 0.020250 -0.003488 0.000000 0.000000 0.000000
# 3 -0.003488 -0.003488 0.015991 0.000000 0.000000 0.000000
# 4 0.000000 0.000000 0.000000 0.015352 0.000000 0.000000
# 5 0.000000 0.000000 0.000000 0.000000 0.015394 0.000000
# 6 0.000000 0.000000 0.000000 0.000000 0.000000 0.079121
#
#
# Mechanical properties :
#
#
# Convention : Reuss Voigt Hill
#
# Bulk Modulus (GPa) = 21.09436 22.53030 21.81233
# Shear Modulus (GPa) = 26.14467 38.83014 32.48740
#
# Velocity S-wave (km/s) = 3.61452 4.40498 4.02918
# Velocity P-wave (km/s) = 5.28779 6.09347 5.70487
#
# Compressibility (1/GPa) = 0.04740605
#
# Stress axis : x y z
#
# Youngs Moduli (GPa) = 49.38292 49.38268 62.53649
#
# Poissons Ratio (x) = -0.12019 0.21813
# Poissons Ratio (y) = -0.12019 0.21813
# Poissons Ratio (z) = 0.17225 0.17225
#
# Static dielectric constant tensor:
#      x y z
#    x 1.716380 0.000000 0.000000 
#    y 0.000000 1.716570 0.000000 
#    z 0.000000 0.000000 1.750080 
# 
# From -- ./inp_files/2850.got.cif
#   From: 2010.05.17/outbox.cif.g08.bks.cpg/sg90_2_cif.got.tgz:2850.got - 2010.06.03 19:17:45.
