data_PCOD9547695
_publ_section_title
;
Structure prediction by ZEFSAII (Michael W. Deem and Ramdas Pophale) SiO2 
 PCOD9547695
Probable space group: P 41 2 2
;
_chemical_formula_sum "Si O2"
_cell_formula_units_Z 48
_cell_length_a 11.729635
_cell_length_b 11.729635
_cell_length_c 19.310536
_cell_angle_alpha 90.000000
_cell_angle_beta 90.000000
_cell_angle_gamma 90.000000
_cell_volume 2656.827297
_symmetry_space_group_name_H-M "P 41 2 2"
_symmetry_group_IT_number 91
_symmetry_cell_setting 'tetragonal'
loop_
_space_group_symop_operation_xyz
x,y,z
-y,x,1/4+z
-x,-y,1/2+z
y,-x,3/4+z
x,-y,1/2-z
-x,y,-z
y,x,3/4-z
-y,-x,1/4-z
loop_
_atom_site_type_symbol
_atom_site_label
_atom_site_fract_x
_atom_site_fract_y
_atom_site_fract_z
Si Si1 0.076606 0.413327 0.867929
Si Si2 0.669758 0.912962 0.630811
Si Si3 0.093359 0.500000 0.250000
Si Si4 0.689671 0.836727 0.906128
Si Si5 0.224912 0.121916 0.977762
Si Si6 0.000000 0.276959 0.000000
Si Si7 0.120448 0.129510 0.229218
O O1 0.986610 0.442677 0.807322
O O2 0.126586 0.538219 0.888397
O O3 0.156406 0.318806 0.830087
O O4 0.011769 0.357113 0.932580
O O5 0.710298 0.894063 0.551379
O O6 0.768672 0.863244 0.680031
O O7 0.667500 0.051451 0.640570
O O8 0.167502 0.591137 0.211331
O O9 0.714522 0.714522 0.875000
O O10 0.803588 0.860506 0.949711
O O11 0.114608 0.199694 0.993876
O O12 0.178554 0.998812 0.950679
O O13 0.101386 0.000000 0.250000
#
# Coordination Sequence:
#
# PCOD9547695 Si02
#       7
#     8   8   4   8   8   4   8
#     4  11  21  40  54  79 123 163 199 234 281 358
#     4  10  21  33  57  77 112 158 197 226 278 351
#     4  10  20  38  56  74 114 162 190 232 296 342
#     4  10  19  32  52  80 106 146 183 230 283 332
#     4  11  21  38  53  85 125 155 179 236 310 360
#     4  12  26  32  60  94 122 152 200 242 294 380
#     4  11  19  30  53  85 119 142 184 235 285 347
#
# _framework density 18.066659999999999
#
# number of rings (size 3 to 8) (size 9 to 14) (size 15 to 20)
#    0.000    1.333    7.500    1.500    1.167    0.000 
#    0.000    0.000    0.000    0.000    0.000    7.000 
#    0.000    0.000    0.000    0.000    0.000    0.000 
#
# Total GULP energy -267312.747466 kJ/mol
# GULP energy per Si atom -5569.015572 kJ/mol
# Density = 1.802554 g / cm^3
# Si number density = 18.066660 Si / 1000 Ang^3
#
#
#
# Elastic Constant Matrix: (Units=GPa)
#
#
# Indices 1 2 3 4 5 6 
#
# 1 89.9799 31.9143 24.3617 0.0000 0.0000 0.0000
# 2 31.9143 89.9799 24.3617 0.0000 0.0000 0.0000
# 3 24.3617 24.3617 72.4026 0.0000 0.0000 0.0000
# 4 0.0000 0.0000 0.0000 47.6444 0.0000 0.0000
# 5 0.0000 0.0000 0.0000 0.0000 47.6444 0.0000
# 6 0.0000 0.0000 0.0000 0.0000 0.0000 12.3722
#
#
#
# Elastic Compliance Matrix: (Units=1/GPa)
#
#
# Indices 1 2 3 4 5 6 
#
# 1 0.013350 -0.003872 -0.003189 0.000000 0.000000 0.000000
# 2 -0.003872 0.013350 -0.003189 0.000000 0.000000 0.000000
# 3 -0.003189 -0.003189 0.015958 0.000000 0.000000 0.000000
# 4 0.000000 0.000000 0.000000 0.020989 0.000000 0.000000
# 5 0.000000 0.000000 0.000000 0.000000 0.020989 0.000000
# 6 0.000000 0.000000 0.000000 0.000000 0.000000 0.080826
#
#
# Mechanical properties :
#
#
# Convention : Reuss Voigt Hill
#
# Bulk Modulus (GPa) = 45.13061 45.95976 45.54518
# Shear Modulus (GPa) = 25.85996 32.98050 29.42023
#
# Velocity S-wave (km/s) = 3.78744 4.27721 4.03975
# Velocity P-wave (km/s) = 6.64534 7.06307 6.85739
#
# Compressibility (1/GPa) = 0.02215791
#
# Stress axis : x y z
#
# Youngs Moduli (GPa) = 74.90481 74.90481 62.66472
#
# Poissons Ratio (x) = 0.29000 0.19986
# Poissons Ratio (y) = 0.29000 0.19986
# Poissons Ratio (z) = 0.23890 0.23890
#
# Static dielectric constant tensor:
#      x y z
#    x 1.660970 0.000000 0.000000 
#    y 0.000000 1.660970 0.000000 
#    z 0.000000 0.000000 1.680870 
# 
# From -- ./inp_files/6348.got.cif
#   From: 2010.05.17/outbox.cif.g08.bks.cpg/sg91_4_cif.got.tgz:6348.got - 2010.06.03 19:20:03.
