data_PCOD9547443
_publ_section_title
;
Structure prediction by ZEFSAII (Michael W. Deem and Ramdas Pophale) SiO2 
 PCOD9547443
Probable space group: P 4 21 2
;
_chemical_formula_sum "Si O2"
_cell_formula_units_Z 20
_cell_length_a 7.934748
_cell_length_b 7.934748
_cell_length_c 12.070639
_cell_angle_alpha 90.000000
_cell_angle_beta 90.000000
_cell_angle_gamma 90.000000
_cell_volume 759.970157
_symmetry_space_group_name_H-M "P 4 21 2"
_symmetry_group_IT_number 90
_symmetry_cell_setting 'tetragonal'
loop_
_space_group_symop_operation_xyz
x,y,z
1/2-y,1/2+x,z
-x,-y,z
1/2+y,1/2-x,z
1/2+x,1/2-y,-z
1/2-x,1/2+y,-z
y,x,-z
-y,-x,-z
loop_
_atom_site_type_symbol
_atom_site_label
_atom_site_fract_x
_atom_site_fract_y
_atom_site_fract_z
Si Si1 0.282064 0.717937 0.500000
Si Si2 0.674587 0.777962 0.877073
Si Si3 0.174191 0.918154 0.326855
O O1 0.143794 0.754842 0.404371
O O2 0.443037 0.738496 0.417174
O O3 0.472227 0.773090 0.863643
O O4 0.756522 0.656073 0.784057
O O5 0.720173 0.720173 0.000000
O O6 0.000000 0.000000 0.292560
#
# Coordination Sequence:
#
# PCOD9547443 Si02
#       3
#     4   8   8
#     4  12  24  48  76 116 162 210 270 324 416 470
#     4  11  29  53  84 120 163 215 274 336 413 486
#     4  12  26  49  77 118 164 214 264 342 399 485
#
# _framework density 26.316824
#
# number of rings (size 3 to 8) (size 9 to 14) (size 15 to 20)
#    0.000    0.400    4.000    2.400   11.200    0.800 
#    0.000    0.000    0.000    0.000    0.000    0.000 
#    0.000    0.000    0.000    0.000    0.000    0.000 
#
# Total GULP energy -111468.521569 kJ/mol
# GULP energy per Si atom -5573.426078 kJ/mol
# Density = 2.625693 g / cm^3
# Si number density = 26.316824 Si / 1000 Ang^3
#
#
#
# Elastic Constant Matrix: (Units=GPa)
#
#
# Indices 1 2 3 4 5 6 
#
# 1 107.5949 50.2254 68.1799 0.0000 0.0000 0.0000
# 2 50.2254 107.5954 68.1795 0.0000 0.0000 0.0000
# 3 68.1799 68.1795 264.0941 0.0000 0.0000 0.0000
# 4 0.0000 0.0000 0.0000 53.3723 0.0000 0.0000
# 5 0.0000 0.0000 0.0000 0.0000 53.3723 0.0000
# 6 0.0000 0.0000 0.0000 0.0000 0.0000 38.9065
#
#
#
# Elastic Compliance Matrix: (Units=1/GPa)
#
#
# Indices 1 2 3 4 5 6 
#
# 1 0.012793 -0.004638 -0.002105 0.000000 0.000000 0.000000
# 2 -0.004638 0.012793 -0.002105 0.000000 0.000000 0.000000
# 3 -0.002105 -0.002105 0.004874 0.000000 0.000000 0.000000
# 4 0.000000 0.000000 0.000000 0.018736 0.000000 0.000000
# 5 0.000000 0.000000 0.000000 0.000000 0.018736 0.000000
# 6 0.000000 0.000000 0.000000 0.000000 0.000000 0.025703
#
#
# Mechanical properties :
#
#
# Convention : Reuss Voigt Hill
#
# Bulk Modulus (GPa) = 78.35304 94.71710 86.53507
# Shear Modulus (GPa) = 43.25765 48.64353 45.95059
#
# Velocity S-wave (km/s) = 4.05869 4.30395 4.18311
# Velocity P-wave (km/s) = 7.19733 7.79537 7.50231
#
# Compressibility (1/GPa) = 0.01276275
#
# Stress axis : x y z
#
# Youngs Moduli (GPa) = 78.16669 78.16730 205.18572
#
# Poissons Ratio (x) = 0.36251 0.43201
# Poissons Ratio (y) = 0.36251 0.43200
# Poissons Ratio (z) = 0.16458 0.16458
#
# Static dielectric constant tensor:
#      x y z
#    x 2.503340 0.000000 0.000000 
#    y 0.000000 2.503320 0.000000 
#    z 0.000000 0.000000 1.992650 
# 
# From -- ./inp_files/1784.got.cif
#   From: 2010.05.17/outbox.cif.g08.bks.cpg/sg90_1_cif.got.tgz:1784.got - 2010.06.03 19:17:45.
