data_PCOD9547628
_publ_section_title
;
Structure prediction by ZEFSAII (Michael W. Deem and Ramdas Pophale) SiO2 
 PCOD9547628
Probable space group: P 41 2 2
;
_chemical_formula_sum "Si O2"
_cell_formula_units_Z 36
_cell_length_a 8.746203
_cell_length_b 8.746203
_cell_length_c 18.296085
_cell_angle_alpha 90.000000
_cell_angle_beta 90.000000
_cell_angle_gamma 90.000000
_cell_volume 1399.578542
_symmetry_space_group_name_H-M "P 41 2 2"
_symmetry_group_IT_number 91
_symmetry_cell_setting 'tetragonal'
loop_
_space_group_symop_operation_xyz
x,y,z
-y,x,1/4+z
-x,-y,1/2+z
y,-x,3/4+z
x,-y,1/2-z
-x,y,-z
y,x,3/4-z
-y,-x,1/4-z
loop_
_atom_site_type_symbol
_atom_site_label
_atom_site_fract_x
_atom_site_fract_y
_atom_site_fract_z
Si Si1 0.140534 0.453833 0.127237
Si Si2 0.540377 0.680887 0.586096
Si Si3 0.698329 0.963879 0.665817
Si Si4 0.982140 0.807825 0.313252
Si Si5 0.000000 0.751664 0.500000
O O1 0.313900 0.427485 0.102724
O O2 0.106463 0.632381 0.128700
O O3 0.066751 0.355182 0.193514
O O4 0.042714 0.361573 0.065380
O O5 0.500000 0.700953 0.500000
O O6 0.394802 0.605199 0.625000
O O7 0.596342 0.829834 0.629856
O O8 0.661074 0.000000 0.750000
O O9 0.873904 0.916400 0.669488
O O10 0.856266 0.856266 0.375000
O O11 0.873829 0.141557 0.253068
#
# Coordination Sequence:
#
# PCOD9547628 Si02
#       5
#     8   8   8   8   4
#     4  10  22  36  62  96 122 177 220 277 344 409
#     4  11  26  45  67 100 141 187 236 293 361 426
#     4  11  21  40  65  96 130 178 227 284 351 413
#     4   9  20  35  57  88 126 164 208 275 331 403
#     4  10  18  36  62  90 124 156 222 264 342 402
#
# _framework density 25.722027000000001
#
# number of rings (size 3 to 8) (size 9 to 14) (size 15 to 20)
#    0.000    1.778    2.222    1.333    3.111    1.778 
#    0.000    1.111    0.000    0.000    0.000    0.000 
#    0.000    0.000    0.000    0.000    0.000    0.000 
#
# Total GULP energy -200596.151786 kJ/mol
# GULP energy per Si atom -5572.115327 kJ/mol
# Density = 2.566348 g / cm^3
# Si number density = 25.722027 Si / 1000 Ang^3
#
#
#
# Elastic Constant Matrix: (Units=GPa)
#
#
# Indices 1 2 3 4 5 6 
#
# 1 93.0247 72.0525 17.8698 0.0000 0.0000 0.0000
# 2 72.0525 93.0226 17.8697 0.0000 0.0000 0.0000
# 3 17.8698 17.8697 124.7078 0.0000 0.0000 0.0000
# 4 0.0000 0.0000 0.0000 15.7659 0.0000 0.0000
# 5 0.0000 0.0000 0.0000 0.0000 15.7664 0.0000
# 6 0.0000 0.0000 0.0000 0.0000 0.0000 68.9696
#
#
#
# Elastic Compliance Matrix: (Units=1/GPa)
#
#
# Indices 1 2 3 4 5 6 
#
# 1 0.026968 -0.020716 -0.000896 0.000000 0.000000 0.000000
# 2 -0.020716 0.026968 -0.000896 0.000000 0.000000 0.000000
# 3 -0.000896 -0.000896 0.008275 0.000000 0.000000 0.000000
# 4 0.000000 0.000000 0.000000 0.063428 0.000000 0.000000
# 5 0.000000 0.000000 0.000000 0.000000 0.063426 0.000000
# 6 0.000000 0.000000 0.000000 0.000000 0.000000 0.014499
#
#
# Mechanical properties :
#
#
# Convention : Reuss Voigt Hill
#
# Bulk Modulus (GPa) = 58.15419 58.48212 58.31816
# Shear Modulus (GPa) = 19.66079 33.63125 26.64602
#
# Velocity S-wave (km/s) = 2.76770 3.61984 3.22207
# Velocity P-wave (km/s) = 5.73335 6.34481 6.04681
#
# Compressibility (1/GPa) = 0.01719567
#
# Stress axis : x y z
#
# Youngs Moduli (GPa) = 37.08117 37.08030 120.83895
#
# Poissons Ratio (x) = 0.76817 0.10825
# Poissons Ratio (y) = 0.76819 0.10826
# Poissons Ratio (z) = 0.03322 0.03322
#
# Static dielectric constant tensor:
#      x y z
#    x 2.150750 0.000000 0.000000 
#    y 0.000000 2.150750 0.000000 
#    z 0.000000 0.000000 2.577600 
# 
# From -- ./inp_files/21394.got.cif
#   From: 2010.05.17/outbox.cif.g08.bks.cpg/sg91_11_cif.got.tgz:21394.got - 2010.06.03 19:20:03.
