data_PCOD9547990
_publ_section_title
;
Structure prediction by ZEFSAII (Michael W. Deem and Ramdas Pophale) SiO2 
 PCOD9547990
Probable space group: P 41 2 2
;
_chemical_formula_sum "Si O2"
_cell_formula_units_Z 60
_cell_length_a 18.182181
_cell_length_b 18.182181
_cell_length_c 9.446172
_cell_angle_alpha 90.000000
_cell_angle_beta 90.000000
_cell_angle_gamma 90.000000
_cell_volume 3122.826116
_symmetry_space_group_name_H-M "P 41 2 2"
_symmetry_group_IT_number 91
_symmetry_cell_setting 'tetragonal'
loop_
_space_group_symop_operation_xyz
x,y,z
-y,x,1/4+z
-x,-y,1/2+z
y,-x,3/4+z
x,-y,1/2-z
-x,y,-z
y,x,3/4-z
-y,-x,1/4-z
loop_
_atom_site_type_symbol
_atom_site_label
_atom_site_fract_x
_atom_site_fract_y
_atom_site_fract_z
Si Si1 0.794310 0.147784 0.275181
Si Si2 0.685789 0.720448 0.210554
Si Si3 0.914499 0.328395 0.545813
Si Si4 0.834401 0.086271 0.733792
Si Si5 0.577736 0.058062 0.441998
Si Si6 0.203303 0.604635 0.850550
Si Si7 0.190276 0.554856 0.527534
Si Si8 0.697660 0.000000 0.250000
O O1 0.734788 0.208149 0.324305
O O2 0.863457 0.149502 0.380716
O O3 0.750029 0.071277 0.259239
O O4 0.825192 0.174809 0.125000
O O5 0.700697 0.700697 0.375000
O O6 0.721980 0.651399 0.132678
O O7 0.601720 0.746152 0.199113
O O8 0.893480 0.244899 0.582613
O O9 0.902818 0.383331 0.675630
O O10 0.864020 0.350514 0.415254
O O11 0.000000 0.333213 0.500000
O O12 0.897806 0.102195 0.625000
O O13 0.829973 0.000000 0.750000
O O14 0.500000 0.026183 0.500000
O O15 0.560993 0.116522 0.316787
O O16 0.640330 0.003414 0.381757
O O17 0.184878 0.590424 0.685017
O O18 0.208422 0.528851 0.936081
#
# Coordination Sequence:
#
# PCOD9547990 Si02
#       8
#     8   8   8   8   8   8   8   4
#     4  11  24  42  70  92 120 167 225 270 324 394
#     4   9  18  36  61  92 124 160 209 258 305 377
#     4  11  25  39  63  88 125 164 206 259 329 386
#     4  11  26  47  67  92 125 163 219 278 335 386
#     4  12  26  40  60  94 133 167 206 260 322 399
#     4  10  20  39  62  91 129 163 207 268 314 374
#     4  10  21  39  61  91 128 165 215 257 315 387
#     4  12  28  44  66  92 132 174 216 268 330 390
#
# _framework density 19.213366000000001
#
# number of rings (size 3 to 8) (size 9 to 14) (size 15 to 20)
#    0.000    1.333    4.000    0.800    8.400    0.000 
#    1.200    0.000    0.000    0.000    0.000    0.000 
#   24.000    0.000    0.000    0.000    0.000    0.000 
#
# Total GULP energy -334853.363116 kJ/mol
# GULP energy per Si atom -5580.889385 kJ/mol
# Density = 1.916964 g / cm^3
# Si number density = 19.213366 Si / 1000 Ang^3
#
#
#
# Elastic Constant Matrix: (Units=GPa)
#
#
# Indices 1 2 3 4 5 6 
#
# 1 85.0715 48.5500 20.6308 0.0000 0.0000 0.0000
# 2 48.5500 85.0778 20.6311 0.0000 0.0000 0.0000
# 3 20.6308 20.6311 54.0974 0.0000 0.0000 0.0000
# 4 0.0000 0.0000 0.0000 6.8154 0.0000 0.0000
# 5 0.0000 0.0000 0.0000 0.0000 6.8319 0.0000
# 6 0.0000 0.0000 0.0000 0.0000 0.0000 15.9385
#
#
#
# Elastic Compliance Matrix: (Units=1/GPa)
#
#
# Indices 1 2 3 4 5 6 
#
# 1 0.017931 -0.009448 -0.003235 0.000000 0.000000 0.000000
# 2 -0.009448 0.017930 -0.003235 0.000000 0.000000 0.000000
# 3 -0.003235 -0.003235 0.020953 0.000000 0.000000 0.000000
# 4 0.000000 0.000000 0.000000 0.146726 0.000000 0.000000
# 5 0.000000 0.000000 0.000000 0.000000 0.146373 0.000000
# 6 0.000000 0.000000 0.000000 0.000000 0.000000 0.062741
#
#
# Mechanical properties :
#
#
# Convention : Reuss Voigt Hill
#
# Bulk Modulus (GPa) = 40.03548 44.87452 42.45500
# Shear Modulus (GPa) = 11.04200 14.87947 12.96074
#
# Velocity S-wave (km/s) = 2.39990 2.78588 2.60006
# Velocity P-wave (km/s) = 5.34433 5.80989 5.58197
#
# Compressibility (1/GPa) = 0.02497785
#
# Stress axis : x y z
#
# Youngs Moduli (GPa) = 55.76812 55.77250 47.72682
#
# Poissons Ratio (x) = 0.52695 0.15440
# Poissons Ratio (y) = 0.52690 0.15439
# Poissons Ratio (z) = 0.18042 0.18041
#
# Static dielectric constant tensor:
#      x y z
#    x 1.694880 0.000000 0.000000 
#    y 0.000000 1.694850 0.000000 
#    z 0.000000 0.000000 1.728370 
# 
# From -- ./inp_files/19692.got.cif
#   From: 2010.05.17/outbox.cif.g08.bks.cpg/sg91_10_cif.got.tgz:19692.got - 2010.06.03 19:20:03.
