data_PCOD9547021
_publ_section_title
;
Structure prediction by ZEFSAII (Michael W. Deem and Ramdas Pophale) SiO2 
 PCOD9547021
Probable space group: P 4 2 2
;
_chemical_formula_sum "Si O2"
_cell_formula_units_Z 48
_cell_length_a 8.449302
_cell_length_b 8.449302
_cell_length_c 32.246464
_cell_angle_alpha 90.000000
_cell_angle_beta 90.000000
_cell_angle_gamma 90.000000
_cell_volume 2302.097776
_symmetry_space_group_name_H-M "P 4 2 2"
_symmetry_group_IT_number 89
_symmetry_cell_setting 'tetragonal'
loop_
_space_group_symop_operation_xyz
x,y,z
-y,x,z
-x,-y,z
y,-x,z
x,-y,-z
-x,y,-z
y,x,-z
-y,-x,-z
loop_
_atom_site_type_symbol
_atom_site_label
_atom_site_fract_x
_atom_site_fract_y
_atom_site_fract_z
Si Si1 0.770778 0.871543 0.915959
Si Si2 0.244673 0.414479 0.252292
Si Si3 0.000000 0.500000 0.682918
Si Si4 0.689519 0.689519 0.000000
Si Si5 0.337802 0.711235 0.547260
Si Si6 0.251941 0.406441 0.161008
Si Si7 0.902545 0.242653 0.375509
O O1 0.642893 0.829968 0.881170
O O2 0.942554 0.794512 0.910081
O O3 0.731404 0.801138 0.961057
O O4 0.403240 0.307831 0.255748
O O5 0.111277 0.395970 0.286901
O O6 0.175144 0.382321 0.206196
O O7 0.114959 0.394540 0.653870
O O8 0.500000 0.711590 0.000000
O O9 0.288688 0.527926 0.554556
O O10 0.275571 0.724430 0.500000
O O11 0.279665 0.848541 0.577602
O O12 0.412396 0.304325 0.160621
O O13 0.084845 0.197528 0.367795
#
# Coordination Sequence:
#
# PCOD9547021 Si02
#       7
#     8   8   4   4   8   8   8
#     4  11  24  39  57  86 122 156 194 242 297 362
#     4   9  20  38  60  87 117 154 205 260 307 360
#     4  12  22  38  62  87 120 166 211 256 316 382
#     4  11  24  41  62  88 116 151 198 247 298 356
#     4   9  19  38  64  91 118 153 199 247 298 368
#     4   9  19  37  60  86 115 149 197 251 300 356
#     4  11  24  39  56  85 124 162 202 254 317 376
#
# _framework density 20.850548
#
# number of rings (size 3 to 8) (size 9 to 14) (size 15 to 20)
#    0.000    1.917    0.000    5.000    0.000    8.667 
#    0.000    4.167    0.000    2.000    0.000    0.000 
#    0.000    0.000    0.000    0.000    0.000    0.000 
#
# Total GULP energy -267394.696697 kJ/mol
# GULP energy per Si atom -5570.722848 kJ/mol
# Density = 2.080309 g / cm^3
# Si number density = 20.850548 Si / 1000 Ang^3
#
#
#
# Elastic Constant Matrix: (Units=GPa)
#
#
# Indices 1 2 3 4 5 6 
#
# 1 53.4530 -6.8044 38.4642 0.0000 0.0000 0.0000
# 2 -6.8044 53.4529 38.4642 0.0000 0.0000 0.0000
# 3 38.4642 38.4642 135.6932 0.0000 0.0000 0.0000
# 4 0.0000 0.0000 0.0000 27.8223 0.0000 0.0000
# 5 0.0000 0.0000 0.0000 0.0000 27.8223 0.0000
# 6 0.0000 0.0000 0.0000 0.0000 0.0000 22.3779
#
#
#
# Elastic Compliance Matrix: (Units=1/GPa)
#
#
# Indices 1 2 3 4 5 6 
#
# 1 0.028425 0.011829 -0.011411 0.000000 0.000000 0.000000
# 2 0.011829 0.028425 -0.011411 0.000000 0.000000 0.000000
# 3 -0.011411 -0.011411 0.013839 0.000000 0.000000 0.000000
# 4 0.000000 0.000000 0.000000 0.035942 0.000000 0.000000
# 5 0.000000 0.000000 0.000000 0.000000 0.035942 0.000000
# 6 0.000000 0.000000 0.000000 0.000000 0.000000 0.044687
#
#
# Mechanical properties :
#
#
# Convention : Reuss Voigt Hill
#
# Bulk Modulus (GPa) = 20.53192 42.53856 31.53524
# Shear Modulus (GPa) = 22.17503 27.10286 24.63894
#
# Velocity S-wave (km/s) = 3.26471 3.60927 3.44131
# Velocity P-wave (km/s) = 4.90710 6.14940 5.56304
#
# Compressibility (1/GPa) = 0.04870465
#
# Stress axis : x y z
#
# Youngs Moduli (GPa) = 35.18037 35.18035 72.26147
#
# Poissons Ratio (x) = -0.41616 0.82455
# Poissons Ratio (y) = -0.41617 0.82455
# Poissons Ratio (z) = 0.40143 0.40143
#
# Static dielectric constant tensor:
#      x y z
#    x 1.610250 0.000000 0.000000 
#    y 0.000000 1.610250 0.000000 
#    z 0.000000 0.000000 1.780370 
# 
# From -- ./inp_files/3037.got.cif
#   From: 2010.05.17/outbox.cif.g08.bks.cpg/sg89_2_cif.got.tgz:3037.got - 2010.06.03 19:15:31.
