data_PCOD9547792
_publ_section_title
;
Structure prediction by ZEFSAII (Michael W. Deem and Ramdas Pophale) SiO2 
 PCOD9547792
Probable space group: P 41 2 2
;
_chemical_formula_sum "Si O2"
_cell_formula_units_Z 64
_cell_length_a 11.555956
_cell_length_b 11.555956
_cell_length_c 24.747772
_cell_angle_alpha 90.000000
_cell_angle_beta 90.000000
_cell_angle_gamma 90.000000
_cell_volume 3304.820420
_symmetry_space_group_name_H-M "P 41 2 2"
_symmetry_group_IT_number 91
_symmetry_cell_setting 'tetragonal'
loop_
_space_group_symop_operation_xyz
x,y,z
-y,x,1/4+z
-x,-y,1/2+z
y,-x,3/4+z
x,-y,1/2-z
-x,y,-z
y,x,3/4-z
-y,-x,1/4-z
loop_
_atom_site_type_symbol
_atom_site_label
_atom_site_fract_x
_atom_site_fract_y
_atom_site_fract_z
Si Si1 0.705206 0.073201 0.071383
Si Si2 0.771793 0.303804 0.570567
Si Si3 0.271611 0.030691 0.187075
Si Si4 0.885714 0.464884 0.961573
Si Si5 0.961644 0.523618 0.134524
Si Si6 0.862330 0.207851 0.987755
Si Si7 0.884851 0.925201 0.127394
Si Si8 0.376502 0.891315 0.017161
O O1 0.582195 0.116815 0.094714
O O2 0.782552 0.016856 0.118316
O O3 0.784244 0.157954 0.035720
O O4 0.669736 0.969655 0.031234
O O5 0.694663 0.305338 0.625000
O O6 0.901315 0.264323 0.588175
O O7 0.798865 0.425551 0.540503
O O8 0.713015 0.207169 0.533718
O O9 0.382867 0.087162 0.157921
O O10 0.278138 0.000000 0.250000
O O11 0.162430 0.106491 0.172277
O O12 0.936773 0.463423 0.900780
O O13 0.833163 0.341684 0.976723
O O14 0.000000 0.478682 0.000000
O O15 0.020251 0.591170 0.184159
O O16 0.854167 0.134420 0.932344
O O17 0.000000 0.200937 0.000000
O O18 0.001909 0.998092 0.125000
O O19 0.500000 0.838053 0.000000
#
# Coordination Sequence:
#
# PCOD9547792 Si02
#       8
#     8   8   8   8   8   8   8   8
#     4  11  23  37  59  87 123 165 213 247 311 381
#     4  11  19  34  58  84 115 151 201 252 312 359
#     4  11  23  35  57  91 129 161 194 256 322 379
#     4  10  21  37  59  85 123 167 209 249 307 382
#     4  10  19  39  56  83 118 162 208 248 303 381
#     4  11  23  39  57  86 127 174 211 252 305 381
#     4  12  24  36  56  89 130 162 201 255 316 377
#     4  10  21  35  58  86 118 154 202 255 314 372
#
# _framework density 19.365652000000001
#
# number of rings (size 3 to 8) (size 9 to 14) (size 15 to 20)
#    0.000    1.250    5.000    3.375    3.500    0.000 
#    0.000    0.000    0.000    3.750    0.000    0.000 
#    0.000    0.000    0.000    0.000    0.000    0.000 
#
# Total GULP energy -356829.073289 kJ/mol
# GULP energy per Si atom -5575.454270 kJ/mol
# Density = 1.932158 g / cm^3
# Si number density = 19.365652 Si / 1000 Ang^3
#
#
#
# Elastic Constant Matrix: (Units=GPa)
#
#
# Indices 1 2 3 4 5 6 
#
# 1 65.8836 46.3513 16.9830 0.0000 0.0000 0.0000
# 2 46.3513 65.8825 16.9817 0.0000 0.0000 0.0000
# 3 16.9830 16.9817 86.4781 0.0000 0.0000 0.0000
# 4 0.0000 0.0000 0.0000 30.6355 0.0000 0.0000
# 5 0.0000 0.0000 0.0000 0.0000 30.6351 0.0000
# 6 0.0000 0.0000 0.0000 0.0000 0.0000 13.8420
#
#
#
# Elastic Compliance Matrix: (Units=1/GPa)
#
#
# Indices 1 2 3 4 5 6 
#
# 1 0.030336 -0.020863 -0.001861 0.000000 0.000000 0.000000
# 2 -0.020863 0.030336 -0.001860 0.000000 0.000000 0.000000
# 3 -0.001861 -0.001860 0.012294 0.000000 0.000000 0.000000
# 4 0.000000 0.000000 0.000000 0.032642 0.000000 0.000000
# 5 0.000000 0.000000 0.000000 0.000000 0.032642 0.000000
# 6 0.000000 0.000000 0.000000 0.000000 0.000000 0.072244
#
#
# Mechanical properties :
#
#
# Convention : Reuss Voigt Hill
#
# Bulk Modulus (GPa) = 42.01863 42.09737 42.05800
# Shear Modulus (GPa) = 18.68504 24.21775 21.45139
#
# Velocity S-wave (km/s) = 3.10958 3.54015 3.33183
# Velocity P-wave (km/s) = 5.88534 6.20448 6.04702
#
# Compressibility (1/GPa) = 0.02379897
#
# Stress axis : x y z
#
# Youngs Moduli (GPa) = 32.96446 32.96418 81.33890
#
# Poissons Ratio (x) = 0.68773 0.15134
# Poissons Ratio (y) = 0.68774 0.15128
# Poissons Ratio (z) = 0.06133 0.06131
#
# Static dielectric constant tensor:
#      x y z
#    x 1.701590 0.000000 0.000000 
#    y 0.000000 1.701590 0.000000 
#    z 0.000000 0.000000 1.764920 
# 
# From -- ./inp_files/21854.got.cif
#   From: 2010.05.17/outbox.cif.g08.bks.cpg/sg91_11_cif.got.tgz:21854.got - 2010.06.03 19:20:03.
