data_PCOD9547435
_publ_section_title
;
Structure prediction by ZEFSAII (Michael W. Deem and Ramdas Pophale) SiO2 
 PCOD9547435
Probable space group: P 4 21 2
;
_chemical_formula_sum "Si O2"
_cell_formula_units_Z 42
_cell_length_a 8.660165
_cell_length_b 8.660165
_cell_length_c 26.973113
_cell_angle_alpha 90.000000
_cell_angle_beta 90.000000
_cell_angle_gamma 90.000000
_cell_volume 2022.941878
_symmetry_space_group_name_H-M "P 4 21 2"
_symmetry_group_IT_number 90
_symmetry_cell_setting 'tetragonal'
loop_
_space_group_symop_operation_xyz
x,y,z
1/2-y,1/2+x,z
-x,-y,z
1/2+y,1/2-x,z
1/2+x,1/2-y,-z
1/2-x,1/2+y,-z
y,x,-z
-y,-x,-z
loop_
_atom_site_type_symbol
_atom_site_label
_atom_site_fract_x
_atom_site_fract_y
_atom_site_fract_z
Si Si1 0.886359 0.734054 0.150335
Si Si2 0.415088 0.753777 0.346364
Si Si3 0.917798 0.747652 0.541856
Si Si4 0.404226 0.756782 0.739642
Si Si5 0.830888 0.921591 0.052245
Si Si6 0.000000 0.500000 0.948186
O O1 0.802495 0.568587 0.147463
O O2 0.865643 0.804902 0.205191
O O3 0.831342 0.831024 0.104089
O O4 0.590935 0.811410 0.341898
O O5 0.394953 0.691003 0.402200
O O6 0.359561 0.641193 0.303499
O O7 0.812556 0.593085 0.537095
O O8 0.865918 0.865918 0.500000
O O9 0.582776 0.807967 0.735698
O O10 0.685963 0.036389 0.051730
O O11 0.830899 0.830899 0.000000
O O12 0.000000 0.000000 0.052895
#
# Coordination Sequence:
#
# PCOD9547435 Si02
#       6
#     8   8   8   8   8   2
#     4   9  19  39  66  86 121 170 205 251 319 375
#     4   9  19  37  55  77 112 152 188 238 300 354
#     4   9  19  35  54  77 110 147 188 234 293 356
#     4   9  19  37  58  85 113 151 201 242 292 359
#     4  11  26  44  67 100 134 170 214 264 325 386
#     4  12  28  44  68 104 132 164 224 268 308 390
#
# _framework density 20.761842000000001
#
# number of rings (size 3 to 8) (size 9 to 14) (size 15 to 20)
#    0.000    2.476    0.000    3.429    5.333    2.667 
#   10.286    5.714    0.000    0.000    0.000    0.000 
#    0.000    0.000    0.000    0.000    0.000    0.000 
#
# Total GULP energy -234017.625612 kJ/mol
# GULP energy per Si atom -5571.848229 kJ/mol
# Density = 2.071459 g / cm^3
# Si number density = 20.761842 Si / 1000 Ang^3
#
#
#
# Elastic Constant Matrix: (Units=GPa)
#
#
# Indices 1 2 3 4 5 6 
#
# 1 48.5883 24.8891 47.8132 0.0000 0.0000 0.0000
# 2 24.8891 48.5883 47.8132 0.0000 0.0000 0.0000
# 3 47.8132 47.8132 176.2615 0.0000 0.0000 0.0000
# 4 0.0000 0.0000 0.0000 75.5258 0.0000 0.0000
# 5 0.0000 0.0000 0.0000 0.0000 75.5258 0.0000
# 6 0.0000 0.0000 0.0000 0.0000 0.0000 30.5343
#
#
#
# Elastic Compliance Matrix: (Units=1/GPa)
#
#
# Indices 1 2 3 4 5 6 
#
# 1 0.031616 -0.010580 -0.005706 0.000000 0.000000 0.000000
# 2 -0.010580 0.031616 -0.005706 0.000000 0.000000 0.000000
# 3 -0.005706 -0.005706 0.008769 0.000000 0.000000 0.000000
# 4 0.000000 0.000000 0.000000 0.013241 0.000000 0.000000
# 5 0.000000 0.000000 0.000000 0.000000 0.013241 0.000000
# 6 0.000000 0.000000 0.000000 0.000000 0.000000 0.032750
#
#
# Mechanical properties :
#
#
# Convention : Reuss Voigt Hill
#
# Bulk Modulus (GPa) = 35.69375 57.16323 46.42849
# Shear Modulus (GPa) = 27.09215 46.51202 36.80209
#
# Velocity S-wave (km/s) = 3.61626 4.73828 4.21477
# Velocity P-wave (km/s) = 5.88776 7.58470 6.78946
#
# Compressibility (1/GPa) = 0.02801611
#
# Stress axis : x y z
#
# Youngs Moduli (GPa) = 31.62975 31.62975 114.03538
#
# Poissons Ratio (x) = 0.33463 0.65072
# Poissons Ratio (y) = 0.33463 0.65072
# Poissons Ratio (z) = 0.18049 0.18049
#
# Static dielectric constant tensor:
#      x y z
#    x 1.720560 0.000000 0.000000 
#    y 0.000000 1.720560 0.000000 
#    z 0.000000 0.000000 1.740130 
# 
# From -- ./inp_files/2972.got.cif
#   From: 2010.05.17/outbox.cif.g08.bks.cpg/sg90_2_cif.got.tgz:2972.got - 2010.06.03 19:17:45.
