data_PCOD9547500
_publ_section_title
;
Structure prediction by ZEFSAII (Michael W. Deem and Ramdas Pophale) SiO2 
 PCOD9547500
Probable space group: P 41 2 2
;
_chemical_formula_sum "Si O2"
_cell_formula_units_Z 56
_cell_length_a 10.091251
_cell_length_b 10.091251
_cell_length_c 28.253318
_cell_angle_alpha 90.000000
_cell_angle_beta 90.000000
_cell_angle_gamma 90.000000
_cell_volume 2877.129929
_symmetry_space_group_name_H-M "P 41 2 2"
_symmetry_group_IT_number 91
_symmetry_cell_setting 'tetragonal'
loop_
_space_group_symop_operation_xyz
x,y,z
-y,x,1/4+z
-x,-y,1/2+z
y,-x,3/4+z
x,-y,1/2-z
-x,y,-z
y,x,3/4-z
-y,-x,1/4-z
loop_
_atom_site_type_symbol
_atom_site_label
_atom_site_fract_x
_atom_site_fract_y
_atom_site_fract_z
Si Si1 0.539179 0.269082 0.174371
Si Si2 0.452548 0.692361 0.423088
Si Si3 0.373436 0.982219 0.853163
Si Si4 0.112114 0.817128 0.740466
Si Si5 0.975445 0.460244 0.201601
Si Si6 0.069639 0.056396 0.668414
Si Si7 0.585762 0.205511 0.272264
O O1 0.627954 0.401555 0.179531
O O2 0.432783 0.298920 0.133491
O O3 0.494303 0.228572 0.226792
O O4 0.617642 0.141506 0.153302
O O5 0.454576 0.840848 0.444047
O O6 0.340992 0.607945 0.448930
O O7 0.443808 0.910872 0.808939
O O8 0.447127 0.950022 0.902111
O O9 0.220099 0.936671 0.851915
O O10 0.078368 0.685106 0.713286
O O11 0.071144 0.931793 0.704219
O O12 0.269141 0.828386 0.750360
O O13 0.046914 0.828321 0.792873
O O14 0.047696 0.500000 0.250000
O O15 0.971024 0.028977 0.625000
#
# Coordination Sequence:
#
# PCOD9547500 Si02
#       7
#     8   8   8   8   8   8   8
#     4  10  18  29  46  72 100 133 158 207 258 306
#     4  10  19  27  48  74 105 131 167 202 267 314
#     4  10  20  27  46  71 101 132 168 200 259 316
#     4  10  18  25  42  68  96 130 157 197 252 300
#     4  11  17  29  45  69  96 129 164 211 248 306
#     4  10  17  27  41  65 100 126 156 195 251 304
#     4  11  18  31  44  72 106 136 163 208 256 317
#
# _framework density 19.463842
#
# number of rings (size 3 to 8) (size 9 to 14) (size 15 to 20)
#    0.000    1.714    5.714    0.857    2.000    0.000 
#    0.000    0.000    0.000    3.429    3.714    2.000 
#    0.000    0.000    0.000    0.000    0.000    0.000 
#
# Total GULP energy -312085.651789 kJ/mol
# GULP energy per Si atom -5572.958068 kJ/mol
# Density = 1.941954 g / cm^3
# Si number density = 19.463842 Si / 1000 Ang^3
#
#
#
# Elastic Constant Matrix: (Units=GPa)
#
#
# Indices 1 2 3 4 5 6 
#
# 1 33.2523 1.2768 14.9341 0.0000 0.0000 0.0000
# 2 1.2768 33.2521 14.9341 0.0000 0.0000 0.0000
# 3 14.9341 14.9341 162.0945 0.0000 0.0000 0.0000
# 4 0.0000 0.0000 0.0000 28.0530 0.0000 0.0000
# 5 0.0000 0.0000 0.0000 0.0000 28.0531 0.0000
# 6 0.0000 0.0000 0.0000 0.0000 0.0000 5.9263
#
#
#
# Elastic Compliance Matrix: (Units=1/GPa)
#
#
# Indices 1 2 3 4 5 6 
#
# 1 0.031372 0.000098 -0.002899 0.000000 0.000000 0.000000
# 2 0.000098 0.031372 -0.002899 0.000000 0.000000 0.000000
# 3 -0.002899 -0.002899 0.006703 0.000000 0.000000 0.000000
# 4 0.000000 0.000000 0.000000 0.035647 0.000000 0.000000
# 5 0.000000 0.000000 0.000000 0.000000 0.035647 0.000000
# 6 0.000000 0.000000 0.000000 0.000000 0.000000 0.168741
#
#
# Mechanical properties :
#
#
# Convention : Reuss Voigt Hill
#
# Bulk Modulus (GPa) = 17.22815 32.32097 24.77456
# Shear Modulus (GPa) = 14.69588 25.57005 20.13297
#
# Velocity S-wave (km/s) = 2.75077 3.62846 3.21966
# Velocity P-wave (km/s) = 4.35426 5.84773 5.15536
#
# Compressibility (1/GPa) = 0.05804453
#
# Stress axis : x y z
#
# Youngs Moduli (GPa) = 31.87606 31.87585 149.17621
#
# Poissons Ratio (x) = -0.00311 0.43251
# Poissons Ratio (y) = -0.00311 0.43251
# Poissons Ratio (z) = 0.09242 0.09242
#
# Static dielectric constant tensor:
#      x y z
#    x 1.693720 0.000000 0.000000 
#    y 0.000000 1.693720 0.000000 
#    z 0.000000 0.000000 1.779130 
# 
# From -- ./inp_files/7478.got.cif
#   From: 2010.05.17/outbox.cif.g08.bks.cpg/sg91_4_cif.got.tgz:7478.got - 2010.06.03 19:20:03.
