data_PCOD9547589
_publ_section_title
;
Structure prediction by ZEFSAII (Michael W. Deem and Ramdas Pophale) SiO2 
 PCOD9547589
Probable space group: P 41 2 2
;
_chemical_formula_sum "Si O2"
_cell_formula_units_Z 48
_cell_length_a 13.765513
_cell_length_b 13.765513
_cell_length_c 13.460614
_cell_angle_alpha 90.000000
_cell_angle_beta 90.000000
_cell_angle_gamma 90.000000
_cell_volume 2550.642973
_symmetry_space_group_name_H-M "P 41 2 2"
_symmetry_group_IT_number 91
_symmetry_cell_setting 'tetragonal'
loop_
_space_group_symop_operation_xyz
x,y,z
-y,x,1/4+z
-x,-y,1/2+z
y,-x,3/4+z
x,-y,1/2-z
-x,y,-z
y,x,3/4-z
-y,-x,1/4-z
loop_
_atom_site_type_symbol
_atom_site_label
_atom_site_fract_x
_atom_site_fract_y
_atom_site_fract_z
Si Si1 0.692235 0.303096 0.966077
Si Si2 0.009587 0.615882 0.254808
Si Si3 0.609908 0.165288 0.138864
Si Si4 0.331586 0.175195 0.375508
Si Si5 0.507940 0.661460 0.883591
Si Si6 0.858854 0.621865 0.082241
O O1 0.660755 0.409768 0.929449
O O2 0.681531 0.235597 0.869533
O O3 0.629396 0.244135 0.049728
O O4 0.794971 0.326248 0.019636
O O5 0.021454 0.500000 0.250000
O O6 0.114849 0.656521 0.226895
O O7 0.942818 0.637864 0.350678
O O8 0.939698 0.643597 0.164005
O O9 0.494602 0.162063 0.161450
O O10 0.230851 0.230851 0.375000
O O11 0.415198 0.255699 0.353909
O O12 0.346183 0.111560 0.277171
O O13 0.557763 0.557763 0.875000
O O14 0.500000 0.680957 0.000000
#
# Coordination Sequence:
#
# PCOD9547589 Si02
#       6
#     8   8   8   8   8   8
#     4  10  18  33  52  73 113 149 191 244 274 329
#     4   9  19  35  57  77 103 139 189 240 288 335
#     4   9  19  34  54  79 105 149 199 241 282 333
#     4  11  21  35  52  74 111 144 180 228 291 353
#     4  11  23  34  44  70 109 155 192 223 272 333
#     4  10  19  35  51  79 107 149 191 232 287 334
#
# _framework density 18.818783
#
# number of rings (size 3 to 8) (size 9 to 14) (size 15 to 20)
#    0.000    2.000    1.667    4.500    0.000    1.333 
#    0.000    0.000    0.000    0.000    0.000    0.000 
#   40.000    0.000    0.000    0.000    0.000    0.000 
#
# Total GULP energy -267327.759684 kJ/mol
# GULP energy per Si atom -5569.328327 kJ/mol
# Density = 1.877595 g / cm^3
# Si number density = 18.818783 Si / 1000 Ang^3
#
#
#
# Elastic Constant Matrix: (Units=GPa)
#
#
# Indices 1 2 3 4 5 6 
#
# 1 72.8729 36.2098 14.6960 0.0000 0.0000 0.0000
# 2 36.2098 72.8729 14.6960 0.0000 0.0000 0.0000
# 3 14.6960 14.6960 57.2445 0.0000 0.0000 0.0000
# 4 0.0000 0.0000 0.0000 59.2757 0.0000 0.0000
# 5 0.0000 0.0000 0.0000 0.0000 59.2757 0.0000
# 6 0.0000 0.0000 0.0000 0.0000 0.0000 15.4871
#
#
#
# Elastic Compliance Matrix: (Units=1/GPa)
#
#
# Indices 1 2 3 4 5 6 
#
# 1 0.018562 -0.008713 -0.002528 0.000000 0.000000 0.000000
# 2 -0.008713 0.018562 -0.002528 0.000000 0.000000 0.000000
# 3 -0.002528 -0.002528 0.018767 0.000000 0.000000 0.000000
# 4 0.000000 0.000000 0.000000 0.016870 0.000000 0.000000
# 5 0.000000 0.000000 0.000000 0.000000 0.016870 0.000000
# 6 0.000000 0.000000 0.000000 0.000000 0.000000 0.064570
#
#
# Mechanical properties :
#
#
# Convention : Reuss Voigt Hill
#
# Bulk Modulus (GPa) = 35.27231 37.13267 36.20249
# Shear Modulus (GPa) = 26.15168 35.96691 31.05930
#
# Velocity S-wave (km/s) = 3.73186 4.37650 4.06697
# Velocity P-wave (km/s) = 6.11170 6.73148 6.42906
#
# Compressibility (1/GPa) = 0.02835085
#
# Stress axis : x y z
#
# Youngs Moduli (GPa) = 53.87345 53.87345 53.28468
#
# Poissons Ratio (x) = 0.46942 0.13472
# Poissons Ratio (y) = 0.46942 0.13472
# Poissons Ratio (z) = 0.13621 0.13621
#
# Static dielectric constant tensor:
#      x y z
#    x 1.623220 0.000000 0.000000 
#    y 0.000000 1.623220 0.000000 
#    z 0.000000 0.000000 1.595680 
# 
# From -- ./inp_files/11442.got.cif
#   From: 2010.05.17/outbox.cif.g08.bks.cpg/sg91_6_cif.got.tgz:11442.got - 2010.06.03 19:20:03.
