data_PCOD9547946
_publ_section_title
;
Structure prediction by ZEFSAII (Michael W. Deem and Ramdas Pophale) SiO2 
 PCOD9547946
Probable space group: P 41 2 2
;
_chemical_formula_sum "Si O2"
_cell_formula_units_Z 56
_cell_length_a 14.083226
_cell_length_b 14.083226
_cell_length_c 11.399278
_cell_angle_alpha 90.000000
_cell_angle_beta 90.000000
_cell_angle_gamma 90.000000
_cell_volume 2260.901503
_symmetry_space_group_name_H-M "P 41 2 2"
_symmetry_group_IT_number 91
_symmetry_cell_setting 'tetragonal'
loop_
_space_group_symop_operation_xyz
x,y,z
-y,x,1/4+z
-x,-y,1/2+z
y,-x,3/4+z
x,-y,1/2-z
-x,y,-z
y,x,3/4-z
-y,-x,1/4-z
loop_
_atom_site_type_symbol
_atom_site_label
_atom_site_fract_x
_atom_site_fract_y
_atom_site_fract_z
Si Si1 0.452309 0.292147 0.873304
Si Si2 0.717819 0.055248 0.409670
Si Si3 0.945549 0.496265 0.883846
Si Si4 0.469764 0.271064 0.622241
Si Si5 0.091802 0.768324 0.082638
Si Si6 0.305879 0.845729 0.584285
Si Si7 0.761286 0.258771 0.395268
O O1 0.368008 0.368008 0.875000
O O2 0.501851 0.311500 0.748595
O O3 0.406302 0.186366 0.861459
O O4 0.500000 0.299524 0.000000
O O5 0.616650 0.061650 0.350237
O O6 0.710065 0.068522 0.550381
O O7 0.777842 0.145633 0.369678
O O8 0.741518 0.946203 0.392345
O O9 0.989403 0.500000 0.750000
O O10 0.833698 0.518948 0.871885
O O11 0.000000 0.536086 0.000000
O O12 0.500000 0.318255 0.500000
O O13 0.352588 0.271176 0.616040
O O14 0.127439 0.872562 0.125000
O O15 0.184306 0.727214 0.016869
O O16 0.000000 0.772319 0.000000
O O17 0.231366 0.768635 0.625000
O O18 0.318567 0.821264 0.447346
#
# Coordination Sequence:
#
# PCOD9547946 Si02
#       7
#     8   8   8   8   8   8   8
#     4  11  24  47  73 105 136 174 222 275 341 421
#     4  10  22  36  59  89 126 173 226 285 335 402
#     4  10  22  38  57  89 132 167 211 268 339 409
#     4  10  21  43  66  99 134 168 220 282 338 407
#     4  10  20  38  58  84 126 173 236 292 337 391
#     4  11  21  38  66  90 130 180 224 278 341 407
#     4  10  20  40  62  88 130 177 229 282 335 401
#
# _framework density 24.768882000000001
#
# number of rings (size 3 to 8) (size 9 to 14) (size 15 to 20)
#    0.000    1.714    4.286    0.857    2.000    2.857 
#   12.857    4.286    0.000    0.000    0.000    0.000 
#    0.000    0.000    0.000    0.000    0.000    0.000 
#
# Total GULP energy -312340.161008 kJ/mol
# GULP energy per Si atom -5577.502875 kJ/mol
# Density = 2.471251 g / cm^3
# Si number density = 24.768882 Si / 1000 Ang^3
#
#
#
# Elastic Constant Matrix: (Units=GPa)
#
#
# Indices 1 2 3 4 5 6 
#
# 1 67.6898 23.4440 31.0051 0.0000 0.0000 0.0000
# 2 23.4440 67.6893 31.0045 0.0000 0.0000 0.0000
# 3 31.0051 31.0045 213.6785 0.0000 0.0000 0.0000
# 4 0.0000 0.0000 0.0000 36.0437 0.0000 0.0000
# 5 0.0000 0.0000 0.0000 0.0000 36.0440 0.0000
# 6 0.0000 0.0000 0.0000 0.0000 0.0000 16.9294
#
#
#
# Elastic Compliance Matrix: (Units=1/GPa)
#
#
# Indices 1 2 3 4 5 6 
#
# 1 0.017388 -0.005213 -0.001767 0.000000 0.000000 0.000000
# 2 -0.005213 0.017388 -0.001767 0.000000 0.000000 0.000000
# 3 -0.001767 -0.001767 0.005193 0.000000 0.000000 0.000000
# 4 0.000000 0.000000 0.000000 0.027744 0.000000 0.000000
# 5 0.000000 0.000000 0.000000 0.000000 0.027744 0.000000
# 6 0.000000 0.000000 0.000000 0.000000 0.000000 0.059069
#
#
# Mechanical properties :
#
#
# Convention : Reuss Voigt Hill
#
# Bulk Modulus (GPa) = 44.49168 57.77388 51.13278
# Shear Modulus (GPa) = 27.85361 35.37703 31.61532
#
# Velocity S-wave (km/s) = 3.35705 3.78337 3.57657
# Velocity P-wave (km/s) = 5.74701 6.51621 6.14366
#
# Compressibility (1/GPa) = 0.02247611
#
# Stress axis : x y z
#
# Youngs Moduli (GPa) = 57.51090 57.51066 192.58207
#
# Poissons Ratio (x) = 0.29981 0.34022
# Poissons Ratio (y) = 0.29981 0.34021
# Poissons Ratio (z) = 0.10160 0.10160
#
# Static dielectric constant tensor:
#      x y z
#    x 2.012310 0.000000 0.000000 
#    y 0.000000 2.012310 0.000000 
#    z 0.000000 0.000000 2.294100 
# 
# From -- ./inp_files/10866.got.cif
#   From: 2010.05.17/outbox.cif.g08.bks.cpg/sg91_6_cif.got.tgz:10866.got - 2010.06.03 19:20:03.
