data_PCOD9547835
_publ_section_title
;
Structure prediction by ZEFSAII (Michael W. Deem and Ramdas Pophale) SiO2 
 PCOD9547835
Probable space group: P 41 2 2
;
_chemical_formula_sum "Si O2"
_cell_formula_units_Z 48
_cell_length_a 9.346344
_cell_length_b 9.346344
_cell_length_c 26.421041
_cell_angle_alpha 90.000000
_cell_angle_beta 90.000000
_cell_angle_gamma 90.000000
_cell_volume 2307.987477
_symmetry_space_group_name_H-M "P 41 2 2"
_symmetry_group_IT_number 91
_symmetry_cell_setting 'tetragonal'
loop_
_space_group_symop_operation_xyz
x,y,z
-y,x,1/4+z
-x,-y,1/2+z
y,-x,3/4+z
x,-y,1/2-z
-x,y,-z
y,x,3/4-z
-y,-x,1/4-z
loop_
_atom_site_type_symbol
_atom_site_label
_atom_site_fract_x
_atom_site_fract_y
_atom_site_fract_z
Si Si1 0.500000 0.701785 0.000000
Si Si2 0.384333 0.229480 0.921874
Si Si3 0.290129 0.510978 0.525200
Si Si4 0.527550 0.907123 0.094164
Si Si5 0.766858 0.013637 0.644445
Si Si6 0.671334 0.699464 0.624063
Si Si7 0.000000 0.371172 0.500000
O O1 0.375111 0.589011 0.014081
O O2 0.461676 0.810114 0.955406
O O3 0.289803 0.289803 0.875000
O O4 0.323541 0.321742 0.968897
O O5 0.551768 0.273594 0.917874
O O6 0.392025 0.057374 0.916211
O O7 0.336580 0.433858 0.578391
O O8 0.125438 0.473556 0.519378
O O9 0.365277 0.935778 0.109644
O O10 0.589780 0.798537 0.136449
O O11 0.908755 0.091246 0.625000
O O12 0.757815 0.842758 0.638949
O O13 0.727359 0.046491 0.702747
#
# Coordination Sequence:
#
# PCOD9547835 Si02
#       7
#     4   8   8   8   8   8   4
#     4  10  20  34  54  82 108 140 184 234 284 330
#     4   9  18  34  54  77 105 143 184 221 273 336
#     4   9  18  33  53  76 109 145 179 226 280 338
#     4  10  20  35  56  81 111 145 188 236 280 337
#     4  10  20  35  58  84 112 149 191 237 294 354
#     4   8  18  34  52  77 109 142 179 228 280 331
#     4  10  20  36  56  84 116 146 190 244 298 354
#
# _framework density 20.797339000000001
#
# number of rings (size 3 to 8) (size 9 to 14) (size 15 to 20)
#    0.000    2.667    0.000    2.000    0.000    6.000 
#    0.000    1.667    0.000   10.000    0.000    0.000 
#    0.000    0.000    0.000    0.000    0.000    0.000 
#
# Total GULP energy -267232.895552 kJ/mol
# GULP energy per Si atom -5567.351991 kJ/mol
# Density = 2.075000 g / cm^3
# Si number density = 20.797339 Si / 1000 Ang^3
#
#
#
# Elastic Constant Matrix: (Units=GPa)
#
#
# Indices 1 2 3 4 5 6 
#
# 1 61.8837 15.8520 5.0269 0.0000 0.0000 0.0000
# 2 15.8520 61.8862 5.0273 0.0000 0.0000 0.0000
# 3 5.0269 5.0273 45.0246 0.0000 0.0000 0.0000
# 4 0.0000 0.0000 0.0000 14.5984 0.0000 0.0000
# 5 0.0000 0.0000 0.0000 0.0000 14.5982 0.0000
# 6 0.0000 0.0000 0.0000 0.0000 0.0000 13.1168
#
#
#
# Elastic Compliance Matrix: (Units=1/GPa)
#
#
# Indices 1 2 3 4 5 6 
#
# 1 0.017388 -0.004336 -0.001457 0.000000 0.000000 0.000000
# 2 -0.004336 0.017388 -0.001457 0.000000 0.000000 0.000000
# 3 -0.001457 -0.001457 0.022536 0.000000 0.000000 0.000000
# 4 0.000000 0.000000 0.000000 0.068501 0.000000 0.000000
# 5 0.000000 0.000000 0.000000 0.000000 0.068502 0.000000
# 6 0.000000 0.000000 0.000000 0.000000 0.000000 0.076238
#
#
# Mechanical properties :
#
#
# Convention : Reuss Voigt Hill
#
# Bulk Modulus (GPa) = 23.35852 24.51189 23.93521
# Shear Modulus (GPa) = 16.70436 17.98855 17.34645
#
# Velocity S-wave (km/s) = 2.83715 2.94418 2.89116
# Velocity P-wave (km/s) = 4.68918 4.83418 4.76223
#
# Compressibility (1/GPa) = 0.04281093
#
# Stress axis : x y z
#
# Youngs Moduli (GPa) = 57.50983 57.51216 44.37443
#
# Poissons Ratio (x) = 0.24935 0.06467
# Poissons Ratio (y) = 0.24934 0.06467
# Poissons Ratio (z) = 0.08381 0.08382
#
# Static dielectric constant tensor:
#      x y z
#    x 1.772920 0.000000 0.000000 
#    y 0.000000 1.772920 0.000000 
#    z 0.000000 0.000000 1.910960 
# 
# From -- ./inp_files/8025.got.cif
#   From: 2010.05.17/outbox.cif.g08.bks.cpg/sg91_5_cif.got.tgz:8025.got - 2010.06.03 19:20:03.
