data_PCOD9547536
_publ_section_title
;
Structure prediction by ZEFSAII (Michael W. Deem and Ramdas Pophale) SiO2 
 PCOD9547536
Probable space group: P 41 2 2
;
_chemical_formula_sum "Si O2"
_cell_formula_units_Z 64
_cell_length_a 31.238243
_cell_length_b 31.238243
_cell_length_c 5.047591
_cell_angle_alpha 90.000000
_cell_angle_beta 90.000000
_cell_angle_gamma 90.000000
_cell_volume 4925.579751
_symmetry_space_group_name_H-M "P 41 2 2"
_symmetry_group_IT_number 91
_symmetry_cell_setting 'tetragonal'
loop_
_space_group_symop_operation_xyz
x,y,z
-y,x,1/4+z
-x,-y,1/2+z
y,-x,3/4+z
x,-y,1/2-z
-x,y,-z
y,x,3/4-z
-y,-x,1/4-z
loop_
_atom_site_type_symbol
_atom_site_label
_atom_site_fract_x
_atom_site_fract_y
_atom_site_fract_z
Si Si1 0.548504 0.855136 0.460261
Si Si2 0.647815 0.292164 0.989095
Si Si3 0.390091 0.738731 0.995595
Si Si4 0.884566 0.402761 0.705518
Si Si5 0.451529 0.030908 0.501405
Si Si6 0.672332 0.820739 0.964846
Si Si7 0.216017 0.717012 0.715196
Si Si8 0.767278 0.526339 0.011163
O O1 0.500000 0.872071 0.500000
O O2 0.567577 0.858435 0.166645
O O3 0.545983 0.807248 0.576387
O O4 0.580166 0.879037 0.657819
O O5 0.665543 0.334458 0.125000
O O6 0.612154 0.273221 0.188483
O O7 0.685672 0.256965 0.002372
O O8 0.634620 0.294336 0.685640
O O9 0.364512 0.783507 0.038738
O O10 0.436436 0.741357 0.121135
O O11 0.933408 0.414804 0.770810
O O12 0.864524 0.355169 0.713362
O O13 0.500000 0.050749 0.500000
O O14 0.449937 0.000000 0.750000
O O15 0.447107 0.000000 0.250000
O O16 0.706508 0.810675 0.731652
O O17 0.698411 0.812975 0.231743
O O18 0.237657 0.762344 0.625000
O O19 0.744932 0.500000 0.250000
O O20 0.782733 0.500000 0.750000
#
# Coordination Sequence:
#
# PCOD9547536 Si02
#       8
#     8   8   8   8   8   8   8   8
#     4  11  21  29  42  57  75  94 117 148 189 231
#     4   9  17  27  41  56  69  92 122 146 177 204
#     4  10  18  28  41  52  77  95 114 151 178 209
#     4  12  21  32  46  62  78  91 121 160 196 226
#     4  10  21  36  49  59  74  98 126 156 199 253
#     4  10  19  27  42  60  76  94 121 148 183 213
#     4   9  17  29  41  56  78 101 118 138 169 220
#     4  11  21  30  39  54  77 102 123 140 179 228
#
# _framework density 12.993395
#
# number of rings (size 3 to 8) (size 9 to 14) (size 15 to 20)
#    0.000    1.750    1.250    5.625    3.500    4.000 
#    0.000    0.000    0.000    0.000    0.000    0.000 
#    0.000    0.000    0.000    0.000    0.000    0.000 
#
# Total GULP energy -356373.927236 kJ/mol
# GULP energy per Si atom -5568.342613 kJ/mol
# Density = 1.296382 g / cm^3
# Si number density = 12.993395 Si / 1000 Ang^3
#
#
#
# Elastic Constant Matrix: (Units=GPa)
#
#
# Indices 1 2 3 4 5 6 
#
# 1 29.6130 21.2939 3.2955 0.0000 0.0000 0.0000
# 2 21.2939 29.6122 3.2950 0.0000 0.0000 0.0000
# 3 3.2955 3.2950 60.8559 0.0000 0.0000 0.0000
# 4 0.0000 0.0000 0.0000 6.3021 0.0000 0.0000
# 5 0.0000 0.0000 0.0000 0.0000 6.3025 0.0000
# 6 0.0000 0.0000 0.0000 0.0000 0.0000 12.5255
#
#
#
# Elastic Compliance Matrix: (Units=1/GPa)
#
#
# Indices 1 2 3 4 5 6 
#
# 1 0.069996 -0.050214 -0.001072 0.000000 0.000000 0.000000
# 2 -0.050214 0.069998 -0.001071 0.000000 0.000000 0.000000
# 3 -0.001072 -0.001071 0.016548 0.000000 0.000000 0.000000
# 4 0.000000 0.000000 0.000000 0.158677 0.000000 0.000000
# 5 0.000000 0.000000 0.000000 0.000000 0.158667 0.000000
# 6 0.000000 0.000000 0.000000 0.000000 0.000000 0.079837
#
#
# Mechanical properties :
#
#
# Convention : Reuss Voigt Hill
#
# Bulk Modulus (GPa) = 19.29438 19.53888 19.41663
# Shear Modulus (GPa) = 7.39960 11.17247 9.28604
#
# Velocity S-wave (km/s) = 2.38899 2.93551 2.67624
# Velocity P-wave (km/s) = 4.74250 5.15363 4.95233
#
# Compressibility (1/GPa) = 0.05182857
#
# Stress axis : x y z
#
# Youngs Moduli (GPa) = 14.28656 14.28618 60.42934
#
# Poissons Ratio (x) = 0.71737 0.06476
# Poissons Ratio (y) = 0.71739 0.06470
# Poissons Ratio (z) = 0.01531 0.01530
#
# Static dielectric constant tensor:
#      x y z
#    x 1.446140 0.000000 0.000000 
#    y 0.000000 1.446140 0.000000 
#    z 0.000000 0.000000 1.460900 
# 
# From -- ./inp_files/9209.got.cif
#   From: 2010.05.17/outbox.cif.g08.bks.cpg/sg91_5_cif.got.tgz:9209.got - 2010.06.03 19:20:03.
