data_PCOD9547001
_publ_section_title
;
Structure prediction by ZEFSAII (Michael W. Deem and Ramdas Pophale) SiO2 
 PCOD9547001
Probable space group: P 4 2 2
;
_chemical_formula_sum "Si O2"
_cell_formula_units_Z 60
_cell_length_a 11.662732
_cell_length_b 11.662732
_cell_length_c 21.690766
_cell_angle_alpha 90.000000
_cell_angle_beta 90.000000
_cell_angle_gamma 90.000000
_cell_volume 2950.363192
_symmetry_space_group_name_H-M "P 4 2 2"
_symmetry_group_IT_number 89
_symmetry_cell_setting 'tetragonal'
loop_
_space_group_symop_operation_xyz
x,y,z
-y,x,z
-x,-y,z
y,-x,z
x,-y,-z
-x,y,-z
y,x,-z
-y,-x,-z
loop_
_atom_site_type_symbol
_atom_site_label
_atom_site_fract_x
_atom_site_fract_y
_atom_site_fract_z
Si Si1 0.000000 0.500000 0.680262
Si Si2 0.644485 0.629527 0.931198
Si Si3 0.427020 0.228452 0.732922
Si Si4 0.045715 0.818105 0.231678
Si Si5 0.263882 0.157479 0.560522
Si Si6 0.340981 0.229024 0.192612
Si Si7 0.270265 0.072258 0.368266
Si Si8 0.319533 0.553294 0.595085
O O1 0.094177 0.570780 0.717303
O O2 0.071074 0.405892 0.643118
O O3 0.508755 0.654675 0.926025
O O4 0.720957 0.675014 0.875556
O O5 0.672944 0.672944 0.000000
O O6 0.529957 0.245183 0.781756
O O7 0.308677 0.268084 0.761568
O O8 0.446738 0.295869 0.668820
O O9 0.099968 0.705009 0.200740
O O10 0.042249 0.794123 0.305021
O O11 0.920991 0.866022 0.215385
O O12 0.197503 0.197503 0.500000
O O13 0.196023 0.225712 0.613511
O O14 0.392763 0.206976 0.562976
O O15 0.252323 0.025083 0.579638
O O16 0.362456 0.426124 0.578831
#
# Coordination Sequence:
#
# PCOD9547001 Si02
#       8
#     4   8   8   8   8   8   8   8
#     4  12  24  38  63  90 123 158 190 262 334 378
#     4   9  18  34  56  88 136 185 219 248 293 362
#     4  12  22  35  58  93 127 157 202 251 322 382
#     4  11  23  41  63  89 121 157 201 254 319 383
#     4  12  27  44  63  88 113 154 207 254 311 388
#     4  12  22  34  60  96 129 166 204 256 310 377
#     4  12  23  44  64  87 119 152 197 255 322 380
#     4  11  23  41  61  84 120 159 194 245 314 389
#
# _framework density 20.336479000000001
#
# number of rings (size 3 to 8) (size 9 to 14) (size 15 to 20)
#    0.000    0.667    6.667    3.200    0.000    1.067 
#    0.000    2.000    0.000    0.800    0.000    3.733 
#    0.000    0.000    0.000    0.000    0.000    0.000 
#
# Total GULP energy -335300.434787 kJ/mol
# GULP energy per Si atom -5588.340580 kJ/mol
# Density = 2.029019 g / cm^3
# Si number density = 20.336479 Si / 1000 Ang^3
#
#
#
# Elastic Constant Matrix: (Units=GPa)
#
#
# Indices 1 2 3 4 5 6 
#
# 1 61.3510 9.5599 1.6243 0.0000 0.0000 0.0000
# 2 9.5599 61.3510 1.6243 0.0000 0.0000 0.0000
# 3 1.6243 1.6243 82.4494 0.0000 0.0000 0.0000
# 4 0.0000 0.0000 0.0000 23.4072 0.0000 0.0000
# 5 0.0000 0.0000 0.0000 0.0000 23.4072 0.0000
# 6 0.0000 0.0000 0.0000 0.0000 0.0000 31.3759
#
#
#
# Elastic Compliance Matrix: (Units=1/GPa)
#
#
# Indices 1 2 3 4 5 6 
#
# 1 0.016712 -0.002597 -0.000278 0.000000 0.000000 0.000000
# 2 -0.002597 0.016712 -0.000278 0.000000 0.000000 0.000000
# 3 -0.000278 -0.000278 0.012140 0.000000 0.000000 0.000000
# 4 0.000000 0.000000 0.000000 0.042722 0.000000 0.000000
# 5 0.000000 0.000000 0.000000 0.000000 0.042722 0.000000
# 6 0.000000 0.000000 0.000000 0.000000 0.000000 0.031872
#
#
# Mechanical properties :
#
#
# Convention : Reuss Voigt Hill
#
# Bulk Modulus (GPa) = 25.47300 25.64091 25.55695
# Shear Modulus (GPa) = 27.43188 28.46092 27.94640
#
# Velocity S-wave (km/s) = 3.67672 3.74505 3.71104
# Velocity P-wave (km/s) = 5.52968 5.59788 5.56388
#
# Compressibility (1/GPa) = 0.03925725
#
# Stress axis : x y z
#
# Youngs Moduli (GPa) = 59.83856 59.83856 82.37500
#
# Poissons Ratio (x) = 0.15538 0.02291
# Poissons Ratio (y) = 0.15538 0.02291
# Poissons Ratio (z) = 0.01664 0.01664
#
# Static dielectric constant tensor:
#      x y z
#    x 1.744960 0.000000 0.000000 
#    y 0.000000 1.744960 0.000000 
#    z 0.000000 0.000000 1.730570 
# 
# From -- ./inp_files/2652.got.cif
#   From: 2010.05.17/outbox.cif.g08.bks.cpg/sg89_2_cif.got.tgz:2652.got - 2010.06.03 19:15:31.
