data_PCOD9547777
_publ_section_title
;
Structure prediction by ZEFSAII (Michael W. Deem and Ramdas Pophale) SiO2 
 PCOD9547777
Probable space group: P 41 2 2
;
_chemical_formula_sum "Si O2"
_cell_formula_units_Z 48
_cell_length_a 8.336335
_cell_length_b 8.336335
_cell_length_c 26.227646
_cell_angle_alpha 90.000000
_cell_angle_beta 90.000000
_cell_angle_gamma 90.000000
_cell_volume 1822.676653
_symmetry_space_group_name_H-M "P 41 2 2"
_symmetry_group_IT_number 91
_symmetry_cell_setting 'tetragonal'
loop_
_space_group_symop_operation_xyz
x,y,z
-y,x,1/4+z
-x,-y,1/2+z
y,-x,3/4+z
x,-y,1/2-z
-x,y,-z
y,x,3/4-z
-y,-x,1/4-z
loop_
_atom_site_type_symbol
_atom_site_label
_atom_site_fract_x
_atom_site_fract_y
_atom_site_fract_z
Si Si1 0.318316 0.653945 0.931463
Si Si2 0.684696 0.535082 0.522690
Si Si3 0.184346 0.429008 0.368901
Si Si4 0.898375 0.000000 0.750000
Si Si5 0.800188 0.962774 0.642297
Si Si6 0.312176 0.312176 0.875000
Si Si7 0.876726 0.686271 0.269802
O O1 0.251194 0.605994 0.986222
O O2 0.493711 0.733221 0.929932
O O3 0.226540 0.790191 0.899739
O O4 0.312451 0.485696 0.902242
O O5 0.500000 0.539543 0.500000
O O6 0.739839 0.508407 0.580674
O O7 0.738463 0.714276 0.509495
O O8 0.247432 0.247432 0.375000
O O9 0.002348 0.372854 0.366277
O O10 0.000032 0.167230 0.757858
O O11 0.794071 0.977208 0.799945
O O12 0.971994 0.028007 0.625000
O O13 0.179853 0.308258 0.829618
O O14 0.915356 0.500000 0.250000
#
# Coordination Sequence:
#
# PCOD9547777 Si02
#       7
#     8   8   8   4   8   4   8
#     4  11  21  43  71 102 137 181 241 304 362 450
#     4  10  19  37  69 105 136 173 240 299 352 431
#     4  11  21  42  70 100 135 187 233 295 366 431
#     4  12  28  52  66 104 160 202 250 318 390 468
#     4  11  29  45  65 102 147 186 239 298 374 459
#     4  10  22  42  76 116 140 194 262 318 378 462
#     4  10  24  44  74 108 152 198 249 312 386 462
#
# _framework density 26.334897999999999
#
# number of rings (size 3 to 8) (size 9 to 14) (size 15 to 20)
#    0.000    1.333    2.500    3.000    5.833    4.000 
#    3.000    0.000    0.000    0.000    0.000    0.000 
#    0.000    0.000    0.000    0.000    0.000    0.000 
#
# Total GULP energy -267356.263111 kJ/mol
# GULP energy per Si atom -5569.922148 kJ/mol
# Density = 2.627496 g / cm^3
# Si number density = 26.334898 Si / 1000 Ang^3
#
#
#
# Elastic Constant Matrix: (Units=GPa)
#
#
# Indices 1 2 3 4 5 6 
#
# 1 69.2530 41.5955 12.6472 0.0000 0.0000 0.0000
# 2 41.5955 69.2529 12.6465 0.0000 0.0000 0.0000
# 3 12.6472 12.6465 113.1906 0.0000 0.0000 0.0000
# 4 0.0000 0.0000 0.0000 35.7205 0.0000 0.0000
# 5 0.0000 0.0000 0.0000 0.0000 35.7204 0.0000
# 6 0.0000 0.0000 0.0000 0.0000 0.0000 52.3690
#
#
#
# Elastic Compliance Matrix: (Units=1/GPa)
#
#
# Indices 1 2 3 4 5 6 
#
# 1 0.022707 -0.013450 -0.001034 0.000000 0.000000 0.000000
# 2 -0.013450 0.022707 -0.001034 0.000000 0.000000 0.000000
# 3 -0.001034 -0.001034 0.009066 0.000000 0.000000 0.000000
# 4 0.000000 0.000000 0.000000 0.027995 0.000000 0.000000
# 5 0.000000 0.000000 0.000000 0.000000 0.027995 0.000000
# 6 0.000000 0.000000 0.000000 0.000000 0.000000 0.019095
#
#
# Mechanical properties :
#
#
# Convention : Reuss Voigt Hill
#
# Bulk Modulus (GPa) = 42.65634 42.83052 42.74343
# Shear Modulus (GPa) = 29.68832 37.08247 33.38539
#
# Velocity S-wave (km/s) = 3.36123 3.75655 3.56437
# Velocity P-wave (km/s) = 5.59434 5.92576 5.76243
#
# Compressibility (1/GPa) = 0.02344317
#
# Stress axis : x y z
#
# Youngs Moduli (GPa) = 44.03926 44.03929 110.30477
#
# Poissons Ratio (x) = 0.59231 0.11410
# Poissons Ratio (y) = 0.59231 0.11408
# Poissons Ratio (z) = 0.04556 0.04555
#
# Static dielectric constant tensor:
#      x y z
#    x 2.245230 0.000000 0.000000 
#    y 0.000000 2.245230 0.000000 
#    z 0.000000 0.000000 2.209020 
# 
# From -- ./inp_files/18228.got.cif
#   From: 2010.05.17/outbox.cif.g08.bks.cpg/sg91_10_cif.got.tgz:18228.got - 2010.06.03 19:20:03.
