data_PCOD9547127
_publ_section_title
;
Structure prediction by ZEFSAII (Michael W. Deem and Ramdas Pophale) SiO2 
 PCOD9547127
Probable space group: P 4 21 2
;
_chemical_formula_sum "Si O2"
_cell_formula_units_Z 60
_cell_length_a 12.196041
_cell_length_b 12.196041
_cell_length_c 20.501597
_cell_angle_alpha 90.000000
_cell_angle_beta 90.000000
_cell_angle_gamma 90.000000
_cell_volume 3049.477573
_symmetry_space_group_name_H-M "P 4 21 2"
_symmetry_group_IT_number 90
_symmetry_cell_setting 'tetragonal'
loop_
_space_group_symop_operation_xyz
x,y,z
1/2-y,1/2+x,z
-x,-y,z
1/2+y,1/2-x,z
1/2+x,1/2-y,-z
1/2-x,1/2+y,-z
y,x,-z
-y,-x,-z
loop_
_atom_site_type_symbol
_atom_site_label
_atom_site_fract_x
_atom_site_fract_y
_atom_site_fract_z
Si Si1 0.782101 0.782101 0.500000
Si Si2 0.306809 0.598372 0.205387
Si Si3 0.444842 0.824100 0.408984
Si Si4 0.606918 0.852799 0.595940
Si Si5 0.742872 0.634634 0.265365
Si Si6 0.719466 0.498635 0.728066
Si Si7 0.891086 0.927528 0.072302
Si Si8 0.009609 0.677667 0.868176
O O1 0.766960 0.892249 0.456613
O O2 0.680406 0.778973 0.549439
O O3 0.262529 0.481873 0.229290
O O4 0.223793 0.696957 0.220644
O O5 0.416153 0.625354 0.247195
O O6 0.338865 0.599110 0.129774
O O7 0.568679 0.867782 0.419501
O O8 0.447634 0.779195 0.334894
O O9 0.477207 0.852792 0.584316
O O10 0.625564 0.815239 0.669662
O O11 0.620210 0.672996 0.283971
O O12 0.798484 0.508739 0.790756
O O13 0.790278 0.004764 0.093010
O O14 0.879433 0.879433 0.000000
O O15 0.000000 0.000000 0.073797
O O16 0.899263 0.611229 0.883933
#
# Coordination Sequence:
#
# PCOD9547127 Si02
#       8
#     4   8   8   8   8   8   8   8
#     4  12  24  40  62  90 122 168 222 266 328 400
#     4  11  23  40  65 100 135 173 221 276 331 398
#     4  11  23  40  63  92 124 163 213 269 326 391
#     4  11  24  44  68  92 129 177 222 275 336 410
#     4  12  23  41  69 100 134 172 222 276 338 403
#     4  11  21  38  66 100 128 163 210 276 337 382
#     4  10  22  42  62  92 134 184 224 265 330 399
#     4  10  20  38  64  96 130 164 212 271 330 390
#
# _framework density 19.675502999999999
#
# number of rings (size 3 to 8) (size 9 to 14) (size 15 to 20)
#    0.000    1.067    1.333    7.600    0.000    2.400 
#    4.800    0.000    0.000    1.600    0.000    0.000 
#    0.000    0.000    0.000    0.000    0.000    0.000 
#
# Total GULP energy -335393.792283 kJ/mol
# GULP energy per Si atom -5589.896538 kJ/mol
# Density = 1.963072 g / cm^3
# Si number density = 19.675503 Si / 1000 Ang^3
#
#
#
# Elastic Constant Matrix: (Units=GPa)
#
#
# Indices 1 2 3 4 5 6 
#
# 1 88.1847 46.2503 37.6556 0.0000 0.0000 0.0000
# 2 46.2503 88.1847 37.6556 0.0000 0.0000 0.0000
# 3 37.6556 37.6556 113.4834 0.0000 0.0000 0.0000
# 4 0.0000 0.0000 0.0000 19.2095 0.0000 0.0000
# 5 0.0000 0.0000 0.0000 0.0000 19.2095 0.0000
# 6 0.0000 0.0000 0.0000 0.0000 0.0000 27.7123
#
#
#
# Elastic Compliance Matrix: (Units=1/GPa)
#
#
# Indices 1 2 3 4 5 6 
#
# 1 0.016492 -0.007355 -0.003032 0.000000 0.000000 0.000000
# 2 -0.007355 0.016492 -0.003032 0.000000 0.000000 0.000000
# 3 -0.003032 -0.003032 0.010824 0.000000 0.000000 0.000000
# 4 0.000000 0.000000 0.000000 0.052057 0.000000 0.000000
# 5 0.000000 0.000000 0.000000 0.000000 0.052057 0.000000
# 6 0.000000 0.000000 0.000000 0.000000 0.000000 0.036085
#
#
# Mechanical properties :
#
#
# Convention : Reuss Voigt Hill
#
# Bulk Modulus (GPa) = 58.92537 59.21954 59.07245
# Shear Modulus (GPa) = 23.09454 24.44571 23.77013
#
# Velocity S-wave (km/s) = 3.42975 3.52866 3.47956
# Velocity P-wave (km/s) = 6.76002 6.83852 6.79938
#
# Compressibility (1/GPa) = 0.01697062
#
# Stress axis : x y z
#
# Youngs Moduli (GPa) = 60.63591 60.63591 92.38861
#
# Poissons Ratio (x) = 0.44597 0.28010
# Poissons Ratio (y) = 0.44597 0.28010
# Poissons Ratio (z) = 0.18384 0.18384
#
# Static dielectric constant tensor:
#      x y z
#    x 1.691540 0.000000 0.000000 
#    y 0.000000 1.691540 0.000000 
#    z 0.000000 0.000000 1.686650 
# 
# From -- ./inp_files/2865.got.cif
#   From: 2010.05.17/outbox.cif.g08.bks.cpg/sg90_2_cif.got.tgz:2865.got - 2010.06.03 19:17:45.
