data_PCOD9547311
_publ_section_title
;
Structure prediction by ZEFSAII (Michael W. Deem and Ramdas Pophale) SiO2 
 PCOD9547311
Probable space group: P 4 21 2
;
_chemical_formula_sum "Si O2"
_cell_formula_units_Z 42
_cell_length_a 8.456956
_cell_length_b 8.456956
_cell_length_c 28.650946
_cell_angle_alpha 90.000000
_cell_angle_beta 90.000000
_cell_angle_gamma 90.000000
_cell_volume 2049.118660
_symmetry_space_group_name_H-M "P 4 21 2"
_symmetry_group_IT_number 90
_symmetry_cell_setting 'tetragonal'
loop_
_space_group_symop_operation_xyz
x,y,z
1/2-y,1/2+x,z
-x,-y,z
1/2+y,1/2-x,z
1/2+x,1/2-y,-z
1/2-x,1/2+y,-z
y,x,-z
-y,-x,-z
loop_
_atom_site_type_symbol
_atom_site_label
_atom_site_fract_x
_atom_site_fract_y
_atom_site_fract_z
Si Si1 0.744160 0.421975 0.769275
Si Si2 0.040235 0.239149 0.416207
Si Si3 0.418796 0.746538 0.959166
Si Si4 0.000000 0.000000 0.500000
Si Si5 0.740280 0.429962 0.313152
Si Si6 0.588307 0.253053 0.853489
O O1 0.809617 0.599904 0.768069
O O2 0.632817 0.378121 0.725776
O O3 0.647746 0.377265 0.815733
O O4 0.172655 0.373255 0.416962
O O5 0.071970 0.166114 0.365121
O O6 0.032969 0.137357 0.462455
O O7 0.597183 0.809282 0.963320
O O8 0.394463 0.685679 0.906459
O O9 0.370530 0.629471 0.000000
O O10 0.814553 0.605605 0.308534
O O11 0.407537 0.193219 0.847809
#
# Coordination Sequence:
#
# PCOD9547311 Si02
#       6
#     8   8   8   2   8   8
#     4  11  24  37  51  79 115 144 177 229 287 336
#     4   9  20  37  55  81 114 145 183 226 267 319
#     4   9  19  35  54  78 108 141 180 229 281 335
#     4  12  20  32  60  88 112 148 184 224 274 316
#     4   9  19  37  59  79 103 140 184 225 265 319
#     4   9  19  37  58  78 103 141 189 232 275 336
#
# _framework density 20.496618999999999
#
# number of rings (size 3 to 8) (size 9 to 14) (size 15 to 20)
#    0.000    2.476    0.000    4.000    0.000    9.524 
#    0.000    5.714    0.000    2.286    0.000    0.000 
#    0.000    0.000    0.000    0.000    0.000    0.000 
#
# Total GULP energy -234411.818150 kJ/mol
# GULP energy per Si atom -5581.233765 kJ/mol
# Density = 2.044997 g / cm^3
# Si number density = 20.496619 Si / 1000 Ang^3
#
#
#
# Elastic Constant Matrix: (Units=GPa)
#
#
# Indices 1 2 3 4 5 6 
#
# 1 62.9466 40.4119 74.8496 0.0000 0.0000 0.0000
# 2 40.4119 62.9473 74.8501 0.0000 0.0000 0.0000
# 3 74.8496 74.8501 203.4160 0.0000 0.0000 0.0000
# 4 0.0000 0.0000 0.0000 17.2345 0.0000 0.0000
# 5 0.0000 0.0000 0.0000 0.0000 17.2377 0.0000
# 6 0.0000 0.0000 0.0000 0.0000 0.0000 38.9382
#
#
#
# Elastic Compliance Matrix: (Units=1/GPa)
#
#
# Indices 1 2 3 4 5 6 
#
# 1 0.032545 -0.011830 -0.007622 0.000000 0.000000 0.000000
# 2 -0.011830 0.032545 -0.007622 0.000000 0.000000 0.000000
# 3 -0.007622 -0.007622 0.010525 0.000000 0.000000 0.000000
# 4 0.000000 0.000000 0.000000 0.058023 0.000000 0.000000
# 5 0.000000 0.000000 0.000000 0.000000 0.058013 0.000000
# 6 0.000000 0.000000 0.000000 0.000000 0.000000 0.025682
#
#
# Mechanical properties :
#
#
# Convention : Reuss Voigt Hill
#
# Bulk Modulus (GPa) = 46.58564 78.83702 62.71133
# Shear Modulus (GPa) = 17.94445 23.96198 20.95321
#
# Velocity S-wave (km/s) = 2.96207 3.42288 3.20077
# Velocity P-wave (km/s) = 5.87165 7.35992 6.65750
#
# Compressibility (1/GPa) = 0.02146584
#
# Stress axis : x y z
#
# Youngs Moduli (GPa) = 30.72656 30.72680 95.00739
#
# Poissons Ratio (x) = 0.36351 0.72417
# Poissons Ratio (y) = 0.36350 0.72418
# Poissons Ratio (z) = 0.23421 0.23421
#
# Static dielectric constant tensor:
#      x y z
#    x 1.793380 0.000000 0.000000 
#    y 0.000000 1.793380 0.000000 
#    z 0.000000 0.000000 1.765390 
# 
# From -- ./inp_files/2983.got.cif
#   From: 2010.05.17/outbox.cif.g08.bks.cpg/sg90_2_cif.got.tgz:2983.got - 2010.06.03 19:17:45.
