data_PCOD9547773
_publ_section_title
;
Structure prediction by ZEFSAII (Michael W. Deem and Ramdas Pophale) SiO2 
 PCOD9547773
Probable space group: P 41 2 2
;
_chemical_formula_sum "Si O2"
_cell_formula_units_Z 52
_cell_length_a 17.311272
_cell_length_b 17.311272
_cell_length_c 9.163934
_cell_angle_alpha 90.000000
_cell_angle_beta 90.000000
_cell_angle_gamma 90.000000
_cell_volume 2746.249008
_symmetry_space_group_name_H-M "P 41 2 2"
_symmetry_group_IT_number 91
_symmetry_cell_setting 'tetragonal'
loop_
_space_group_symop_operation_xyz
x,y,z
-y,x,1/4+z
-x,-y,1/2+z
y,-x,3/4+z
x,-y,1/2-z
-x,y,-z
y,x,3/4-z
-y,-x,1/4-z
loop_
_atom_site_type_symbol
_atom_site_label
_atom_site_fract_x
_atom_site_fract_y
_atom_site_fract_z
Si Si1 0.303495 0.811106 0.478575
Si Si2 0.000000 0.203064 0.000000
Si Si3 0.000000 0.529608 0.500000
Si Si4 0.852586 0.852586 0.375000
Si Si5 0.660091 0.053968 0.438006
Si Si6 0.579333 0.700255 0.947977
Si Si7 0.218882 0.657491 0.457194
Si Si8 0.865866 0.594922 0.966384
O O1 0.230594 0.855890 0.545967
O O2 0.258318 0.738352 0.412125
O O3 0.350517 0.779368 0.618715
O O4 0.356594 0.853140 0.363274
O O5 0.015105 0.260640 0.137092
O O6 0.925029 0.150587 0.019705
O O7 0.998085 0.587333 0.639105
O O8 0.922673 0.477723 0.507752
O O9 0.655813 0.129956 0.336683
O O10 0.647278 0.087191 0.598990
O O11 0.641652 0.641652 0.875000
O O12 0.574809 0.780078 0.849281
O O13 0.500000 0.659833 0.000000
O O14 0.601048 0.734998 0.105702
#
# Coordination Sequence:
#
# PCOD9547773 Si02
#       8
#     8   4   4   4   8   8   8   8
#     4  10  19  37  64  93 123 162 219 256 300 405
#     4  11  20  40  64  83 122 164 218 265 322 370
#     4  11  24  36  54  95 142 164 206 253 330 402
#     4  10  22  38  66  90 112 168 216 262 322 380
#     4  10  21  37  60  86 127 175 198 254 312 396
#     4  11  22  41  67  91 123 171 224 273 326 378
#     4   9  18  38  62  90 118 161 212 252 317 379
#     4  11  23  37  62  99 131 169 210 259 321 399
#
# _framework density 18.934918
#
# number of rings (size 3 to 8) (size 9 to 14) (size 15 to 20)
#    0.000    1.846    4.615    2.308    2.154    1.231 
#    0.000    2.308    6.769    0.000    0.000    0.000 
#    0.000    0.000    0.000    0.000    0.000    0.000 
#
# Total GULP energy -289568.336309 kJ/mol
# GULP energy per Si atom -5568.621852 kJ/mol
# Density = 1.889182 g / cm^3
# Si number density = 18.934918 Si / 1000 Ang^3
#
#
#
# Elastic Constant Matrix: (Units=GPa)
#
#
# Indices 1 2 3 4 5 6 
#
# 1 78.8627 47.5451 43.5733 0.0000 0.0000 0.0000
# 2 47.5451 78.8627 43.5733 0.0000 0.0000 0.0000
# 3 43.5733 43.5733 95.8461 0.0000 0.0000 0.0000
# 4 0.0000 0.0000 0.0000 14.5910 0.0000 0.0000
# 5 0.0000 0.0000 0.0000 0.0000 14.5910 0.0000
# 6 0.0000 0.0000 0.0000 0.0000 0.0000 16.0129
#
#
#
# Elastic Compliance Matrix: (Units=1/GPa)
#
#
# Indices 1 2 3 4 5 6 
#
# 1 0.021727 -0.010204 -0.005238 0.000000 0.000000 0.000000
# 2 -0.010204 0.021727 -0.005238 0.000000 0.000000 0.000000
# 3 -0.005238 -0.005238 0.015196 0.000000 0.000000 0.000000
# 4 0.000000 0.000000 0.000000 0.068535 0.000000 0.000000
# 5 0.000000 0.000000 0.000000 0.000000 0.068535 0.000000
# 6 0.000000 0.000000 0.000000 0.000000 0.000000 0.062449
#
#
# Mechanical properties :
#
#
# Convention : Reuss Voigt Hill
#
# Bulk Modulus (GPa) = 57.84450 58.10612 57.97531
# Shear Modulus (GPa) = 16.37769 16.96431 16.67100
#
# Velocity S-wave (km/s) = 2.94419 2.99645 2.97043
# Velocity P-wave (km/s) = 6.49408 6.53648 6.51531
#
# Compressibility (1/GPa) = 0.01728773
#
# Stress axis : x y z
#
# Youngs Moduli (GPa) = 46.02667 46.02667 65.80624
#
# Poissons Ratio (x) = 0.46967 0.34470
# Poissons Ratio (y) = 0.46967 0.34470
# Poissons Ratio (z) = 0.24110 0.24110
#
# Static dielectric constant tensor:
#      x y z
#    x 1.699410 0.000000 0.000000 
#    y 0.000000 1.699410 0.000000 
#    z 0.000000 0.000000 1.735540 
# 
# From -- ./inp_files/15274.got.cif
#   From: 2010.05.17/outbox.cif.g08.bks.cpg/sg91_8_cif.got.tgz:15274.got - 2010.06.03 19:20:03.
