data_PCOD9547924
_publ_section_title
;
Structure prediction by ZEFSAII (Michael W. Deem and Ramdas Pophale) SiO2 
 PCOD9547924
Probable space group: P 41 2 2
;
_chemical_formula_sum "Si O2"
_cell_formula_units_Z 44
_cell_length_a 9.594666
_cell_length_b 9.594666
_cell_length_c 25.357702
_cell_angle_alpha 90.000000
_cell_angle_beta 90.000000
_cell_angle_gamma 90.000000
_cell_volume 2334.369585
_symmetry_space_group_name_H-M "P 41 2 2"
_symmetry_group_IT_number 91
_symmetry_cell_setting 'tetragonal'
loop_
_space_group_symop_operation_xyz
x,y,z
-y,x,1/4+z
-x,-y,1/2+z
y,-x,3/4+z
x,-y,1/2-z
-x,y,-z
y,x,3/4-z
-y,-x,1/4-z
loop_
_atom_site_type_symbol
_atom_site_label
_atom_site_fract_x
_atom_site_fract_y
_atom_site_fract_z
Si Si1 0.294969 0.869779 0.530539
Si Si2 0.500000 0.887271 0.000000
Si Si3 0.916047 0.916047 0.375000
Si Si4 0.645512 0.500000 0.250000
Si Si5 0.233566 0.148816 0.091754
Si Si6 0.143733 0.360822 0.356290
Si Si7 0.655948 0.552300 0.594779
O O1 0.179365 0.875253 0.575141
O O2 0.408905 0.747270 0.537241
O O3 0.230745 0.845844 0.472237
O O4 0.384364 0.012336 0.527014
O O5 0.580232 0.812664 0.951779
O O6 0.078676 0.883597 0.387263
O O7 0.558442 0.396167 0.285209
O O8 0.307269 0.289962 0.111621
O O9 0.332103 0.018694 0.105088
O O10 0.221072 0.221072 0.375000
O O11 0.199292 0.473064 0.397268
O O12 0.537246 0.462755 0.625000
#
# Coordination Sequence:
#
# PCOD9547924 Si02
#       7
#     8   4   4   4   8   8   8
#     4   9  20  35  59  88 123 165 199 248 317 367
#     4   9  18  37  58  82 124 168 202 238 316 392
#     4  12  20  34  66  96 122 160 208 262 310 382
#     4   9  20  41  56  88 128 156 208 270 290 378
#     4  10  21  39  59  93 127 154 206 269 303 370
#     4  10  20  37  60  86 119 166 199 253 315 377
#     4  10  22  38  64  84 117 170 209 247 318 374
#
# _framework density 18.848772
#
# number of rings (size 3 to 8) (size 9 to 14) (size 15 to 20)
#    0.000    2.182    0.909    2.727    1.273    2.909 
#    0.000    0.000    0.000    0.000    0.000    0.000 
#    0.000    0.000    0.000    0.000    0.000    0.000 
#
# Total GULP energy -245188.184241 kJ/mol
# GULP energy per Si atom -5572.458733 kJ/mol
# Density = 1.880587 g / cm^3
# Si number density = 18.848772 Si / 1000 Ang^3
#
#
#
# Elastic Constant Matrix: (Units=GPa)
#
#
# Indices 1 2 3 4 5 6 
#
# 1 114.0287 45.1744 40.5719 0.0000 0.0000 0.0000
# 2 45.1744 114.0290 40.5723 0.0000 0.0000 0.0000
# 3 40.5719 40.5723 62.4324 0.0000 0.0000 0.0000
# 4 0.0000 0.0000 0.0000 26.0280 0.0000 0.0000
# 5 0.0000 0.0000 0.0000 0.0000 26.0280 0.0000
# 6 0.0000 0.0000 0.0000 0.0000 0.0000 24.2494
#
#
#
# Elastic Compliance Matrix: (Units=1/GPa)
#
#
# Indices 1 2 3 4 5 6 
#
# 1 0.011958 -0.002566 -0.006104 0.000000 0.000000 0.000000
# 2 -0.002566 0.011958 -0.006104 0.000000 0.000000 0.000000
# 3 -0.006104 -0.006104 0.023950 0.000000 0.000000 0.000000
# 4 0.000000 0.000000 0.000000 0.038420 0.000000 0.000000
# 5 0.000000 0.000000 0.000000 0.000000 0.038420 0.000000
# 6 0.000000 0.000000 0.000000 0.000000 0.000000 0.041238
#
#
# Mechanical properties :
#
#
# Convention : Reuss Voigt Hill
#
# Bulk Modulus (GPa) = 54.58426 60.34747 57.46586
# Shear Modulus (GPa) = 24.80203 26.20587 25.50395
#
# Velocity S-wave (km/s) = 3.63139 3.73275 3.68242
# Velocity P-wave (km/s) = 6.82676 7.11787 6.97383
#
# Compressibility (1/GPa) = 0.01832030
#
# Stress axis : x y z
#
# Youngs Moduli (GPa) = 83.62755 83.62736 41.75329
#
# Poissons Ratio (x) = 0.21455 0.25484
# Poissons Ratio (y) = 0.21455 0.25485
# Poissons Ratio (z) = 0.51042 0.51043
#
# Static dielectric constant tensor:
#      x y z
#    x 1.672680 0.000000 0.000000 
#    y 0.000000 1.672680 0.000000 
#    z 0.000000 0.000000 1.652980 
# 
# From -- ./inp_files/7896.got.cif
#   From: 2010.05.17/outbox.cif.g08.bks.cpg/sg91_4_cif.got.tgz:7896.got - 2010.06.03 19:20:03.
