data_PCOD9547578
_publ_section_title
;
Structure prediction by ZEFSAII (Michael W. Deem and Ramdas Pophale) SiO2 
 PCOD9547578
Probable space group: P 41 2 2
;
_chemical_formula_sum "Si O2"
_cell_formula_units_Z 64
_cell_length_a 11.666406
_cell_length_b 11.666406
_cell_length_c 23.988052
_cell_angle_alpha 90.000000
_cell_angle_beta 90.000000
_cell_angle_gamma 90.000000
_cell_volume 3264.894512
_symmetry_space_group_name_H-M "P 41 2 2"
_symmetry_group_IT_number 91
_symmetry_cell_setting 'tetragonal'
loop_
_space_group_symop_operation_xyz
x,y,z
-y,x,1/4+z
-x,-y,1/2+z
y,-x,3/4+z
x,-y,1/2-z
-x,y,-z
y,x,3/4-z
-y,-x,1/4-z
loop_
_atom_site_type_symbol
_atom_site_label
_atom_site_fract_x
_atom_site_fract_y
_atom_site_fract_z
Si Si1 0.906507 0.531932 0.338895
Si Si2 0.683402 0.616570 0.785562
Si Si3 0.257165 0.448508 0.035167
Si Si4 0.260278 0.165876 0.551156
Si Si5 0.143249 0.506609 0.137195
Si Si6 0.319275 0.798207 0.673140
Si Si7 0.090892 0.251027 0.767167
Si Si8 0.302706 0.792082 0.405747
O O1 0.902730 0.623163 0.389903
O O2 0.895813 0.614594 0.285809
O O3 0.809466 0.438889 0.348150
O O4 0.020376 0.455194 0.340848
O O5 0.688936 0.500000 0.750000
O O6 0.551841 0.653351 0.788496
O O7 0.755410 0.712563 0.752128
O O8 0.752942 0.584295 0.841238
O O9 0.149034 0.494872 0.070741
O O10 0.290835 0.336593 0.070502
O O11 0.236699 0.403407 0.972998
O O12 0.383010 0.149537 0.582291
O O13 0.191239 0.237443 0.597399
O O14 0.218750 0.038890 0.533543
O O15 0.297518 0.702483 0.625000
O O16 0.192141 0.814769 0.699118
O O17 0.125695 0.248020 0.702807
#
# Coordination Sequence:
#
# PCOD9547578 Si02
#       8
#     8   8   8   8   8   8   8   8
#     4  10  18  32  53  79 106 139 184 233 279 333
#     4  10  19  31  48  74 108 149 183 217 270 334
#     4  10  20  33  48  77 112 143 182 225 278 342
#     4   9  18  33  51  75 108 142 187 231 272 337
#     4   9  19  33  51  74 103 146 190 221 264 328
#     4   9  19  32  49  75 104 136 179 230 289 332
#     4   9  18  33  52  76 108 146 186 229 282 342
#     4  10  19  31  52  82 112 146 182 228 285 338
#
# _framework density 19.602471000000001
#
# number of rings (size 3 to 8) (size 9 to 14) (size 15 to 20)
#    0.000    2.500    0.000    2.250    0.000    5.500 
#    0.000    3.750    0.000    2.250    0.000   40.250 
#    0.000    4.000    0.000    0.000    0.000    0.000 
#
# Total GULP energy -356316.668687 kJ/mol
# GULP energy per Si atom -5567.447948 kJ/mol
# Density = 1.955786 g / cm^3
# Si number density = 19.602471 Si / 1000 Ang^3
#
#
#
# Elastic Constant Matrix: (Units=GPa)
#
#
# Indices 1 2 3 4 5 6 
#
# 1 53.8627 6.2052 18.4811 0.0000 0.0000 0.0000
# 2 6.2052 53.8628 18.4811 0.0000 0.0000 0.0000
# 3 18.4811 18.4811 91.6927 0.0000 0.0000 0.0000
# 4 0.0000 0.0000 0.0000 18.7241 0.0000 0.0000
# 5 0.0000 0.0000 0.0000 0.0000 18.7240 0.0000
# 6 0.0000 0.0000 0.0000 0.0000 0.0000 8.5331
#
#
#
# Elastic Compliance Matrix: (Units=1/GPa)
#
#
# Indices 1 2 3 4 5 6 
#
# 1 0.019994 -0.000989 -0.003831 0.000000 0.000000 0.000000
# 2 -0.000989 0.019994 -0.003831 0.000000 0.000000 0.000000
# 3 -0.003831 -0.003831 0.012450 0.000000 0.000000 0.000000
# 4 0.000000 0.000000 0.000000 0.053407 0.000000 0.000000
# 5 0.000000 0.000000 0.000000 0.000000 0.053407 0.000000
# 6 0.000000 0.000000 0.000000 0.000000 0.000000 0.117190
#
#
# Mechanical properties :
#
#
# Convention : Reuss Voigt Hill
#
# Bulk Modulus (GPa) = 28.45938 31.75033 30.10486
# Shear Modulus (GPa) = 16.36899 19.61296 17.99097
#
# Velocity S-wave (km/s) = 2.89285 3.16655 3.03279
# Velocity P-wave (km/s) = 5.07030 5.44074 5.25878
#
# Compressibility (1/GPa) = 0.03513780
#
# Stress axis : x y z
#
# Youngs Moduli (GPa) = 50.01503 50.01511 80.32046
#
# Poissons Ratio (x) = 0.04947 0.30767
# Poissons Ratio (y) = 0.04947 0.30767
# Poissons Ratio (z) = 0.19158 0.19158
#
# Static dielectric constant tensor:
#      x y z
#    x 1.714630 0.000000 0.000000 
#    y 0.000000 1.714630 0.000000 
#    z 0.000000 0.000000 1.734980 
# 
# From -- ./inp_files/7044.got.cif
#   From: 2010.05.17/outbox.cif.g08.bks.cpg/sg91_4_cif.got.tgz:7044.got - 2010.06.03 19:20:03.
