data_PCOD9547096
_publ_section_title
;
Structure prediction by ZEFSAII (Michael W. Deem and Ramdas Pophale) SiO2 
 PCOD9547096
Probable space group: P 4 21 2
;
_chemical_formula_sum "Si O2"
_cell_formula_units_Z 42
_cell_length_a 13.339928
_cell_length_b 13.339928
_cell_length_c 10.285098
_cell_angle_alpha 90.000000
_cell_angle_beta 90.000000
_cell_angle_gamma 90.000000
_cell_volume 1830.271028
_symmetry_space_group_name_H-M "P 4 21 2"
_symmetry_group_IT_number 90
_symmetry_cell_setting 'tetragonal'
loop_
_space_group_symop_operation_xyz
x,y,z
1/2-y,1/2+x,z
-x,-y,z
1/2+y,1/2-x,z
1/2+x,1/2-y,-z
1/2-x,1/2+y,-z
y,x,-z
-y,-x,-z
loop_
_atom_site_type_symbol
_atom_site_label
_atom_site_fract_x
_atom_site_fract_y
_atom_site_fract_z
Si Si1 0.700320 0.880048 0.540733
Si Si2 0.682345 0.568703 0.394842
Si Si3 0.110925 0.262614 0.021116
Si Si4 0.587403 0.144807 0.262845
Si Si5 0.000000 0.500000 0.421731
Si Si6 0.104766 0.785345 0.113613
O O1 0.648346 0.775713 0.583241
O O2 0.710249 0.874037 0.383261
O O3 0.791509 0.949516 0.593301
O O4 0.613394 0.958590 0.571630
O O5 0.600717 0.600717 0.500000
O O6 0.655385 0.594196 0.246819
O O7 0.192336 0.317475 0.112078
O O8 0.001649 0.263919 0.080378
O O9 0.150543 0.150543 0.000000
O O10 0.110910 0.315789 0.880338
O O11 0.467184 0.132259 0.276985
O O12 0.142687 0.857314 0.000000
#
# Coordination Sequence:
#
# PCOD9547096 Si02
#       6
#     8   8   8   8   2   8
#     4  10  19  35  61  91 128 157 201 266 320 375
#     4  11  24  40  64  95 127 167 209 268 326 382
#     4  11  25  41  67  96 133 175 219 271 327 390
#     4  11  18  35  65 100 127 166 214 268 330 390
#     4   8  12  28  52  88 114 152 188 240 330 364
#     4  11  26  45  65  97 133 174 222 273 329 396
#
# _framework density 22.947420999999999
#
# number of rings (size 3 to 8) (size 9 to 14) (size 15 to 20)
#    0.000    1.333    5.714    1.143    8.000    0.762 
#    0.000    1.905    0.000    0.571    0.000    0.000 
#    0.000    0.000    0.000    0.000    0.000    0.000 
#
# Total GULP energy -233935.095017 kJ/mol
# GULP energy per Si atom -5569.883215 kJ/mol
# Density = 2.289519 g / cm^3
# Si number density = 22.947421 Si / 1000 Ang^3
#
#
#
# Elastic Constant Matrix: (Units=GPa)
#
#
# Indices 1 2 3 4 5 6 
#
# 1 56.1925 -4.4399 -7.1052 0.0000 0.0000 0.0000
# 2 -4.4399 56.1948 -7.1055 0.0000 0.0000 0.0000
# 3 -7.1052 -7.1055 87.7663 0.0000 0.0000 0.0000
# 4 0.0000 0.0000 0.0000 19.2008 0.0000 0.0000
# 5 0.0000 0.0000 0.0000 0.0000 19.2008 0.0000
# 6 0.0000 0.0000 0.0000 0.0000 0.0000 29.7255
#
#
#
# Elastic Compliance Matrix: (Units=1/GPa)
#
#
# Indices 1 2 3 4 5 6 
#
# 1 0.018127 0.001635 0.001600 0.000000 0.000000 0.000000
# 2 0.001635 0.018127 0.001600 0.000000 0.000000 0.000000
# 3 0.001600 0.001600 0.011653 0.000000 0.000000 0.000000
# 4 0.000000 0.000000 0.000000 0.052081 0.000000 0.000000
# 5 0.000000 0.000000 0.000000 0.000000 0.052081 0.000000
# 6 0.000000 0.000000 0.000000 0.000000 0.000000 0.033641
#
#
# Mechanical properties :
#
#
# Convention : Reuss Voigt Hill
#
# Bulk Modulus (GPa) = 17.36850 18.09470 17.73160
# Shear Modulus (GPa) = 25.61033 28.21239 26.91136
#
# Velocity S-wave (km/s) = 3.34435 3.51014 3.42824
# Velocity P-wave (km/s) = 4.74322 4.93259 4.83883
#
# Compressibility (1/GPa) = 0.05757550
#
# Stress axis : x y z
#
# Youngs Moduli (GPa) = 55.16511 55.16728 85.81533
#
# Poissons Ratio (x) = -0.09017 -0.13729
# Poissons Ratio (y) = -0.09017 -0.13729
# Poissons Ratio (z) = -0.08826 -0.08826
#
# Static dielectric constant tensor:
#      x y z
#    x 1.842920 0.000000 0.000000 
#    y 0.000000 1.842920 0.000000 
#    z 0.000000 0.000000 1.901080 
# 
# From -- ./inp_files/1358.got.cif
#   From: 2010.05.17/outbox.cif.g08.bks.cpg/sg90_1_cif.got.tgz:1358.got - 2010.06.03 19:17:45.
