data_PCOD9547805
_publ_section_title
;
Structure prediction by ZEFSAII (Michael W. Deem and Ramdas Pophale) SiO2 
 PCOD9547805
Probable space group: P 41 2 2
;
_chemical_formula_sum "Si O2"
_cell_formula_units_Z 24
_cell_length_a 7.989174
_cell_length_b 7.989174
_cell_length_c 16.444263
_cell_angle_alpha 90.000000
_cell_angle_beta 90.000000
_cell_angle_gamma 90.000000
_cell_volume 1049.586350
_symmetry_space_group_name_H-M "P 41 2 2"
_symmetry_group_IT_number 91
_symmetry_cell_setting 'tetragonal'
loop_
_space_group_symop_operation_xyz
x,y,z
-y,x,1/4+z
-x,-y,1/2+z
y,-x,3/4+z
x,-y,1/2-z
-x,y,-z
y,x,3/4-z
-y,-x,1/4-z
loop_
_atom_site_type_symbol
_atom_site_label
_atom_site_fract_x
_atom_site_fract_y
_atom_site_fract_z
Si Si1 0.694103 0.984161 0.023746
Si Si2 0.806811 0.701285 0.566359
Si Si3 0.694432 0.618021 0.023783
O O1 0.702688 0.959725 0.120608
O O2 0.500000 0.004510 0.000000
O O3 0.748820 0.800920 0.990188
O O4 0.796017 0.135531 0.987839
O O5 0.647330 0.703948 0.629223
O O6 0.794574 0.534061 0.513868
O O7 0.500000 0.596529 0.000000
#
# Coordination Sequence:
#
# PCOD9547805 Si02
#       3
#     8   8   8
#     4   9  21  36  70 106 136 182 238 276 359 405
#     4  10  19  40  68 101 141 182 233 285 348 413
#     4   9  19  34  71 102 138 184 233 278 357 410
#
# _framework density 22.866154000000002
#
# number of rings (size 3 to 8) (size 9 to 14) (size 15 to 20)
#    2.000    0.667    0.000    2.000    0.000    0.000 
#    0.000    1.667   14.667    0.000    8.667    0.000 
#    0.000    0.000    0.000    0.000    0.000    0.000 
#
# Total GULP energy -133997.304213 kJ/mol
# GULP energy per Si atom -5583.221009 kJ/mol
# Density = 2.281411 g / cm^3
# Si number density = 22.866154 Si / 1000 Ang^3
#
#
#
# Elastic Constant Matrix: (Units=GPa)
#
#
# Indices 1 2 3 4 5 6 
#
# 1 117.8201 69.4572 77.0289 0.0000 0.0000 0.0000
# 2 69.4572 117.8201 77.0289 0.0000 0.0000 0.0000
# 3 77.0289 77.0289 130.1738 0.0000 0.0000 0.0000
# 4 0.0000 0.0000 0.0000 47.7443 0.0000 0.0000
# 5 0.0000 0.0000 0.0000 0.0000 47.7443 0.0000
# 6 0.0000 0.0000 0.0000 0.0000 0.0000 -4.7920
#
#
#
# Elastic Compliance Matrix: (Units=1/GPa)
#
#
# Indices 1 2 3 4 5 6 
#
# 1 0.015541 -0.005136 -0.006157 0.000000 0.000000 0.000000
# 2 -0.005136 0.015541 -0.006157 0.000000 0.000000 0.000000
# 3 -0.006157 -0.006157 0.014968 0.000000 0.000000 0.000000
# 4 0.000000 0.000000 0.000000 0.020945 0.000000 0.000000
# 5 0.000000 0.000000 0.000000 0.000000 0.020945 0.000000
# 6 0.000000 0.000000 0.000000 0.000000 0.000000 -0.208682
#
#
# Mechanical properties :
#
#
# Convention : Reuss Voigt Hill
#
# Bulk Modulus (GPa) = 89.68360 90.31601 89.99981
# Shear Modulus (GPa) = -60.88122 27.62593 -16.62764
#
# Velocity S-wave (km/s) = -5.16554 3.47963 -2.69954
# Velocity P-wave (km/s) = 1.93110 7.46506 5.45235
#
# Compressibility (1/GPa) = 0.01115031
#
# Stress axis : x y z
#
# Youngs Moduli (GPa) = 64.34761 64.34761 66.80837
#
# Poissons Ratio (x) = 0.33052 0.41131
# Poissons Ratio (y) = 0.33052 0.41131
# Poissons Ratio (z) = 0.39616 0.39616
#
# Static dielectric constant tensor:
#      x y z
#    x 1.853370 0.000000 0.000000 
#    y 0.000000 1.853370 0.000000 
#    z 0.000000 0.000000 1.860070 
# 
# From -- ./inp_files/17061.got.cif
#   From: 2010.05.17/outbox.cif.g08.bks.cpg/sg91_9_cif.got.tgz:17061.got - 2010.06.03 19:20:03.
