data_PCOD9547347
_publ_section_title
;
Structure prediction by ZEFSAII (Michael W. Deem and Ramdas Pophale) SiO2 
 PCOD9547347
Probable space group: P 4 21 2
;
_chemical_formula_sum "Si O2"
_cell_formula_units_Z 36
_cell_length_a 8.474150
_cell_length_b 8.474150
_cell_length_c 24.473632
_cell_angle_alpha 90.000000
_cell_angle_beta 90.000000
_cell_angle_gamma 90.000000
_cell_volume 1757.481328
_symmetry_space_group_name_H-M "P 4 21 2"
_symmetry_group_IT_number 90
_symmetry_cell_setting 'tetragonal'
loop_
_space_group_symop_operation_xyz
x,y,z
1/2-y,1/2+x,z
-x,-y,z
1/2+y,1/2-x,z
1/2+x,1/2-y,-z
1/2-x,1/2+y,-z
y,x,-z
-y,-x,-z
loop_
_atom_site_type_symbol
_atom_site_label
_atom_site_fract_x
_atom_site_fract_y
_atom_site_fract_z
Si Si1 0.045773 0.761631 0.456456
Si Si2 0.745387 0.576125 0.046916
Si Si3 0.500000 0.500000 0.641466
Si Si4 0.924111 0.243440 0.170932
Si Si5 0.455317 0.260793 0.260750
O O1 0.173517 0.621306 0.462397
O O2 0.111452 0.888549 0.500000
O O3 0.021350 0.851552 0.399076
O O4 0.811616 0.399351 0.041686
O O5 0.684027 0.595536 0.108740
O O6 0.626109 0.626109 0.000000
O O7 0.353363 0.475991 0.682439
O O8 0.811829 0.398537 0.177225
O O9 0.877253 0.111631 0.214351
O O10 0.621797 0.173396 0.256152
#
# Coordination Sequence:
#
# PCOD9547347 Si02
#       5
#     8   8   4   8   8
#     4  11  24  43  70 103 139 179 221 266 316 374
#     4   9  19  35  55  82 116 154 199 251 310 381
#     4  12  23  42  64  90 129 172 216 260 312 384
#     4   9  19  38  61  83 114 160 209 259 323 399
#     4  11  24  39  58  87 121 159 207 266 323 375
#
# _framework density 20.483858999999999
#
# number of rings (size 3 to 8) (size 9 to 14) (size 15 to 20)
#    0.000    1.778    0.000    5.667    0.000    2.222 
#    0.000   11.111    0.000    0.000    0.000    0.000 
#    0.000    0.000    0.000    0.000    0.000    0.000 
#
# Total GULP energy -200726.001703 kJ/mol
# GULP energy per Si atom -5575.722270 kJ/mol
# Density = 2.043724 g / cm^3
# Si number density = 20.483859 Si / 1000 Ang^3
#
#
#
# Elastic Constant Matrix: (Units=GPa)
#
#
# Indices 1 2 3 4 5 6 
#
# 1 -24.8040 223.0659 90.8980 0.0000 0.0000 0.0000
# 2 223.0659 -24.8115 90.9004 0.0000 0.0000 0.0000
# 3 90.8980 90.9004 164.1826 0.0000 0.0000 0.0000
# 4 0.0000 0.0000 0.0000 43.6071 0.0000 0.0000
# 5 0.0000 0.0000 0.0000 0.0000 43.6071 0.0000
# 6 0.0000 0.0000 0.0000 0.0000 0.0000 47.1632
#
#
#
# Elastic Compliance Matrix: (Units=1/GPa)
#
#
# Indices 1 2 3 4 5 6 
#
# 1 0.003106 0.007140 -0.005672 0.000000 0.000000 0.000000
# 2 0.007140 0.003105 -0.005672 0.000000 0.000000 0.000000
# 3 -0.005672 -0.005672 0.012372 0.000000 0.000000 0.000000
# 4 0.000000 0.000000 0.000000 0.022932 0.000000 0.000000
# 5 0.000000 0.000000 0.000000 0.000000 0.022932 0.000000
# 6 0.000000 0.000000 0.000000 0.000000 0.000000 0.021203
#
#
# Mechanical properties :
#
#
# Convention : Reuss Voigt Hill
#
# Bulk Modulus (GPa) = 98.29816 102.69953 100.49884
# Shear Modulus (GPa) = 51.30824 7.52232 29.41528
#
# Velocity S-wave (km/s) = 5.01024 1.91841 3.79360
# Velocity P-wave (km/s) = 9.03118 7.42649 8.26786
#
# Compressibility (1/GPa) = 0.01017313
#
# Stress axis : x y z
#
# Youngs Moduli (GPa) = 321.98951 322.03276 80.82995
#
# Poissons Ratio (x) = -2.29925 0.45850
# Poissons Ratio (y) = -2.29894 0.45848
# Poissons Ratio (z) = 1.82646 1.82661
#
# Static dielectric constant tensor:
#      x y z
#    x 1.771270 0.000000 0.000000 
#    y 0.000000 1.771270 0.000000 
#    z 0.000000 0.000000 1.705100 
# 
# From -- ./inp_files/2751.got.cif
#   From: 2010.05.17/outbox.cif.g08.bks.cpg/sg90_2_cif.got.tgz:2751.got - 2010.06.03 19:17:45.
