data_PCOD9547510
_publ_section_title
;
Structure prediction by ZEFSAII (Michael W. Deem and Ramdas Pophale) SiO2 
 PCOD9547510
Probable space group: P 41 2 2
;
_chemical_formula_sum "Si O2"
_cell_formula_units_Z 64
_cell_length_a 21.648924
_cell_length_b 21.648924
_cell_length_c 8.559469
_cell_angle_alpha 90.000000
_cell_angle_beta 90.000000
_cell_angle_gamma 90.000000
_cell_volume 4011.616926
_symmetry_space_group_name_H-M "P 41 2 2"
_symmetry_group_IT_number 91
_symmetry_cell_setting 'tetragonal'
loop_
_space_group_symop_operation_xyz
x,y,z
-y,x,1/4+z
-x,-y,1/2+z
y,-x,3/4+z
x,-y,1/2-z
-x,y,-z
y,x,3/4-z
-y,-x,1/4-z
loop_
_atom_site_type_symbol
_atom_site_label
_atom_site_fract_x
_atom_site_fract_y
_atom_site_fract_z
Si Si1 0.914742 0.651737 0.227668
Si Si2 0.469935 0.938538 0.332052
Si Si3 0.639888 0.881041 0.178731
Si Si4 0.258991 0.984017 0.917006
Si Si5 0.831868 0.442399 0.660868
Si Si6 0.740792 0.220844 0.299512
Si Si7 0.131230 0.212489 0.286120
Si Si8 0.804258 0.317980 0.500248
O O1 0.949940 0.602017 0.123775
O O2 0.900073 0.622058 0.396550
O O3 0.955946 0.711787 0.256588
O O4 0.852136 0.668787 0.139481
O O5 0.500000 0.927225 0.500000
O O6 0.468585 0.878521 0.220939
O O7 0.495997 0.000000 0.250000
O O8 0.685246 0.935930 0.123485
O O9 0.675773 0.815430 0.196518
O O10 0.589190 0.872926 0.046583
O O11 0.230158 0.000000 0.750000
O O12 0.217212 0.941466 0.023096
O O13 0.799475 0.500000 0.750000
O O14 0.794342 0.384474 0.584456
O O15 0.785118 0.167077 0.370050
O O16 0.749171 0.278548 0.419682
O O17 0.758676 0.241325 0.125000
O O18 0.152813 0.152813 0.375000
O O19 0.160653 0.271427 0.380093
#
# Coordination Sequence:
#
# PCOD9547510 Si02
#       8
#     8   8   8   8   8   8   8   8
#     4  10  20  29  46  66  91 115 160 197 247 301
#     4  11  23  34  44  60  83 123 172 211 243 278
#     4  10  18  33  48  67  91 122 162 198 251 289
#     4   9  17  28  44  65  89 121 153 193 240 292
#     4  11  21  33  48  60  90 125 161 208 247 280
#     4  10  17  30  51  68  89 115 157 201 240 293
#     4   9  18  31  46  65  91 117 158 192 238 289
#     4  10  19  30  46  70  88 121 160 200 244 290
#
# _framework density 15.953666999999999
#
# number of rings (size 3 to 8) (size 9 to 14) (size 15 to 20)
#    0.000    2.000    3.750    1.875    1.750    1.500 
#    0.000    0.000    0.000    0.000    0.000    0.000 
#    0.000    0.000    0.000    0.000  484.500   33.000 
#
# Total GULP energy -356354.354196 kJ/mol
# GULP energy per Si atom -5568.036784 kJ/mol
# Density = 1.591736 g / cm^3
# Si number density = 15.953667 Si / 1000 Ang^3
#
#
#
# Elastic Constant Matrix: (Units=GPa)
#
#
# Indices 1 2 3 4 5 6 
#
# 1 35.5407 15.6744 16.0083 0.0000 0.0000 0.0000
# 2 15.6744 35.5409 16.0081 0.0000 0.0000 0.0000
# 3 16.0083 16.0081 77.4068 0.0000 0.0000 0.0000
# 4 0.0000 0.0000 0.0000 24.9520 0.0000 0.0000
# 5 0.0000 0.0000 0.0000 0.0000 24.9521 0.0000
# 6 0.0000 0.0000 0.0000 0.0000 0.0000 11.8255
#
#
#
# Elastic Compliance Matrix: (Units=1/GPa)
#
#
# Indices 1 2 3 4 5 6 
#
# 1 0.036381 -0.013956 -0.004638 0.000000 0.000000 0.000000
# 2 -0.013956 0.036380 -0.004637 0.000000 0.000000 0.000000
# 3 -0.004638 -0.004637 0.014837 0.000000 0.000000 0.000000
# 4 0.000000 0.000000 0.000000 0.040077 0.000000 0.000000
# 5 0.000000 0.000000 0.000000 0.000000 0.040077 0.000000
# 6 0.000000 0.000000 0.000000 0.000000 0.000000 0.084563
#
#
# Mechanical properties :
#
#
# Convention : Reuss Voigt Hill
#
# Bulk Modulus (GPa) = 24.30969 27.09665 25.70317
# Shear Modulus (GPa) = 16.00060 19.06575 17.53318
#
# Velocity S-wave (km/s) = 3.17036 3.46073 3.31872
# Velocity P-wave (km/s) = 5.35466 5.74372 5.55260
#
# Compressibility (1/GPa) = 0.04113586
#
# Stress axis : x y z
#
# Youngs Moduli (GPa) = 27.48725 27.48742 67.39954
#
# Poissons Ratio (x) = 0.38361 0.31257
# Poissons Ratio (y) = 0.38361 0.31256
# Poissons Ratio (z) = 0.12748 0.12747
#
# Static dielectric constant tensor:
#      x y z
#    x 1.556670 0.000000 0.000000 
#    y 0.000000 1.556670 0.000000 
#    z 0.000000 0.000000 1.594480 
# 
# From -- ./inp_files/2941.got.cif
#   From: 2010.05.17/outbox.cif.g08.bks.cpg/sg91_2_cif.got.tgz:2941.got - 2010.06.03 19:20:03.
