data_PCOD9547283
_publ_section_title
;
Structure prediction by ZEFSAII (Michael W. Deem and Ramdas Pophale) SiO2 
 PCOD9547283
Probable space group: P 4 21 2
;
_chemical_formula_sum "Si O2"
_cell_formula_units_Z 46
_cell_length_a 12.592691
_cell_length_b 12.592691
_cell_length_c 10.792866
_cell_angle_alpha 90.000000
_cell_angle_beta 90.000000
_cell_angle_gamma 90.000000
_cell_volume 1711.488079
_symmetry_space_group_name_H-M "P 4 21 2"
_symmetry_group_IT_number 90
_symmetry_cell_setting 'tetragonal'
loop_
_space_group_symop_operation_xyz
x,y,z
1/2-y,1/2+x,z
-x,-y,z
1/2+y,1/2-x,z
1/2+x,1/2-y,-z
1/2-x,1/2+y,-z
y,x,-z
-y,-x,-z
loop_
_atom_site_type_symbol
_atom_site_label
_atom_site_fract_x
_atom_site_fract_y
_atom_site_fract_z
Si Si1 0.638832 0.407476 0.794627
Si Si2 0.474900 0.334431 0.593437
Si Si3 0.782483 0.782483 0.000000
Si Si4 0.334501 0.933174 0.766813
Si Si5 0.233768 0.442031 0.948415
Si Si6 0.447930 0.825455 0.397854
Si Si7 0.500000 0.000000 0.104643
O O1 0.542995 0.394662 0.698353
O O2 0.661359 0.506737 0.888193
O O3 0.742855 0.416457 0.708431
O O4 0.633377 0.310508 0.892779
O O5 0.910687 0.089314 0.500000
O O6 0.399372 0.254673 0.669564
O O7 0.549023 0.253314 0.515904
O O8 0.679872 0.774740 0.085418
O O9 0.370312 0.056004 0.749957
O O10 0.288115 0.928727 0.904652
O O11 0.129703 0.504178 0.904039
O O12 0.569101 0.874037 0.393065
#
# Coordination Sequence:
#
# PCOD9547283 Si02
#       7
#     8   8   4   8   8   8   2
#     4  12  26  47  77 112 163 207 254 326 403 488
#     4  12  29  50  74 107 161 222 276 324 385 457
#     4  12  26  46  78 130 152 200 256 320 408 498
#     4  11  21  43  83 124 161 199 254 333 408 482
#     4  12  23  43  81 127 168 193 250 322 423 490
#     4  11  27  50  80 114 148 204 276 340 392 457
#     4  12  20  44  84 128 170 200 240 340 404 502
#
# _framework density 26.877195
#
# number of rings (size 3 to 8) (size 9 to 14) (size 15 to 20)
#    0.000    0.348    3.478    4.696    0.000    8.348 
#    0.000    3.478    0.000    1.043    0.000    0.000 
#    0.000    0.000    0.000    0.000    0.000    0.000 
#
# Total GULP energy -256552.260753 kJ/mol
# GULP energy per Si atom -5577.223060 kJ/mol
# Density = 2.681602 g / cm^3
# Si number density = 26.877195 Si / 1000 Ang^3
#
#
#
# Elastic Constant Matrix: (Units=GPa)
#
#
# Indices 1 2 3 4 5 6 
#
# 1 103.8024 40.6553 32.6100 0.0000 0.0000 0.0000
# 2 40.6553 103.8048 32.6114 0.0000 0.0000 0.0000
# 3 32.6100 32.6114 131.8754 0.0000 0.0000 0.0000
# 4 0.0000 0.0000 0.0000 52.8172 0.0000 0.0000
# 5 0.0000 0.0000 0.0000 0.0000 52.8169 0.0000
# 6 0.0000 0.0000 0.0000 0.0000 0.0000 51.1143
#
#
#
# Elastic Compliance Matrix: (Units=1/GPa)
#
#
# Indices 1 2 3 4 5 6 
#
# 1 0.011814 -0.004022 -0.001927 0.000000 0.000000 0.000000
# 2 -0.004022 0.011814 -0.001927 0.000000 0.000000 0.000000
# 3 -0.001927 -0.001927 0.008536 0.000000 0.000000 0.000000
# 4 0.000000 0.000000 0.000000 0.018933 0.000000 0.000000
# 5 0.000000 0.000000 0.000000 0.000000 0.018933 0.000000
# 6 0.000000 0.000000 0.000000 0.000000 0.000000 0.019564
#
#
# Mechanical properties :
#
#
# Convention : Reuss Voigt Hill
#
# Bulk Modulus (GPa) = 60.92755 61.24844 61.08799
# Shear Modulus (GPa) = 45.11959 46.92342 46.02150
#
# Velocity S-wave (km/s) = 4.10168 4.18286 4.14247
# Velocity P-wave (km/s) = 6.71936 6.79457 6.75707
#
# Compressibility (1/GPa) = 0.01641294
#
# Stress axis : x y z
#
# Youngs Moduli (GPa) = 84.64420 84.64568 117.15211
#
# Poissons Ratio (x) = 0.34042 0.22574
# Poissons Ratio (y) = 0.34041 0.22575
# Poissons Ratio (z) = 0.16310 0.16311
#
# Static dielectric constant tensor:
#      x y z
#    x 2.131250 0.000000 0.000000 
#    y 0.000000 2.131260 0.000000 
#    z 0.000000 0.000000 2.160740 
# 
# From -- ./inp_files/2090.got.cif
#   From: 2010.05.17/outbox.cif.g08.bks.cpg/sg90_2_cif.got.tgz:2090.got - 2010.06.03 19:17:45.
