data_PCOD9547403
_publ_section_title
;
Structure prediction by ZEFSAII (Michael W. Deem and Ramdas Pophale) SiO2 
 PCOD9547403
Probable space group: P 4 21 2
;
_chemical_formula_sum "Si O2"
_cell_formula_units_Z 38
_cell_length_a 17.420503
_cell_length_b 17.420503
_cell_length_c 5.072348
_cell_angle_alpha 90.000000
_cell_angle_beta 90.000000
_cell_angle_gamma 90.000000
_cell_volume 1539.325355
_symmetry_space_group_name_H-M "P 4 21 2"
_symmetry_group_IT_number 90
_symmetry_cell_setting 'tetragonal'
loop_
_space_group_symop_operation_xyz
x,y,z
1/2-y,1/2+x,z
-x,-y,z
1/2+y,1/2-x,z
1/2+x,1/2-y,-z
1/2-x,1/2+y,-z
y,x,-z
-y,-x,-z
loop_
_atom_site_type_symbol
_atom_site_label
_atom_site_fract_x
_atom_site_fract_y
_atom_site_fract_z
Si Si1 0.000000 0.000000 0.500000
Si Si2 0.375816 0.040755 0.786104
Si Si3 0.361834 0.478785 0.891949
Si Si4 0.393117 0.792964 0.298387
Si Si5 0.149874 0.774836 0.745973
Si Si6 0.362848 0.637153 0.000000
O O1 0.001366 0.077654 0.669237
O O2 0.453135 0.093706 0.765513
O O3 0.313391 0.060826 0.561758
O O4 0.335145 0.063854 0.058571
O O5 0.283679 0.440897 0.801228
O O6 0.355406 0.548438 0.093419
O O7 0.404629 0.404629 0.000000
O O8 0.310809 0.832336 0.334288
O O9 0.368016 0.705675 0.213149
O O10 0.171106 0.828895 0.500000
O O11 0.202439 0.797562 0.000000
#
# Coordination Sequence:
#
# PCOD9547403 Si02
#       6
#     2   8   8   8   8   4
#     4  12  18  44  68 102 136 192 262 304 348 454
#     4  11  27  52  79 109 146 197 264 321 385 473
#     4  11  24  44  67 102 145 200 250 301 367 466
#     4  12  27  48  75 115 152 201 249 328 394 455
#     4  11  24  46  70 101 148 200 246 301 376 449
#     4  12  27  46  68 114 156 189 256 322 382 460
#
# _framework density 24.686139000000001
#
# number of rings (size 3 to 8) (size 9 to 14) (size 15 to 20)
#    0.000    0.632    4.211    2.526    5.895    3.368 
#    0.000    0.000    0.000    0.000    0.000    0.000 
#    0.000    0.000    0.000    0.000    0.000    0.000 
#
# Total GULP energy -212252.568600 kJ/mol
# GULP energy per Si atom -5585.593911 kJ/mol
# Density = 2.462995 g / cm^3
# Si number density = 24.686139 Si / 1000 Ang^3
#
#
#
# Elastic Constant Matrix: (Units=GPa)
#
#
# Indices 1 2 3 4 5 6 
#
# 1 11.6550 134.8723 3.5129 0.0000 0.0000 0.0000
# 2 134.8723 11.6527 3.5142 0.0000 0.0000 0.0000
# 3 3.5129 3.5142 93.3339 0.0000 0.0000 0.0000
# 4 0.0000 0.0000 0.0000 57.8318 0.0000 0.0000
# 5 0.0000 0.0000 0.0000 0.0000 57.8225 0.0000
# 6 0.0000 0.0000 0.0000 0.0000 0.0000 38.8609
#
#
#
# Elastic Compliance Matrix: (Units=1/GPa)
#
#
# Indices 1 2 3 4 5 6 
#
# 1 -0.000639 0.007476 -0.000257 0.000000 0.000000 0.000000
# 2 0.007476 -0.000639 -0.000257 0.000000 0.000000 0.000000
# 3 -0.000257 -0.000257 0.010734 0.000000 0.000000 0.000000
# 4 0.000000 0.000000 0.000000 0.017292 0.000000 0.000000
# 5 0.000000 0.000000 0.000000 0.000000 0.017294 0.000000
# 6 0.000000 0.000000 0.000000 0.000000 0.000000 0.025733
#
#
# Mechanical properties :
#
#
# Convention : Reuss Voigt Hill
#
# Bulk Modulus (GPa) = 42.77488 44.49337 43.63413
# Shear Modulus (GPa) = 78.56304 29.21919 53.89111
#
# Velocity S-wave (km/s) = 5.64746 3.44412 4.67738
# Velocity P-wave (km/s) = 7.73888 5.82054 6.84722
#
# Compressibility (1/GPa) = 0.02337821
#
# Stress axis : x y z
#
# Youngs Moduli (GPa) = -1564.36301 -1564.04839 93.16539
#
# Poissons Ratio (x) = 11.69340 0.02398
# Poissons Ratio (y) = 11.69575 0.02397
# Poissons Ratio (z) = -0.40273 -0.40246
#
# Static dielectric constant tensor:
#      x y z
#    x 1.543030 0.000000 0.000000 
#    y 0.000000 1.543160 0.000000 
#    z 0.000000 0.000000 0.600850 
# 
# From -- ./inp_files/473.got.cif
#   From: 2010.05.17/outbox.cif.g08.bks.cpg/sg90_1_cif.got.tgz:473.got - 2010.06.03 19:17:45.
