data_PCOD9547653
_publ_section_title
;
Structure prediction by ZEFSAII (Michael W. Deem and Ramdas Pophale) SiO2 
 PCOD9547653
Probable space group: P 41 2 2
;
_chemical_formula_sum "Si O2"
_cell_formula_units_Z 40
_cell_length_a 11.884017
_cell_length_b 11.884017
_cell_length_c 13.023062
_cell_angle_alpha 90.000000
_cell_angle_beta 90.000000
_cell_angle_gamma 90.000000
_cell_volume 1839.245224
_symmetry_space_group_name_H-M "P 41 2 2"
_symmetry_group_IT_number 91
_symmetry_cell_setting 'tetragonal'
loop_
_space_group_symop_operation_xyz
x,y,z
-y,x,1/4+z
-x,-y,1/2+z
y,-x,3/4+z
x,-y,1/2-z
-x,y,-z
y,x,3/4-z
-y,-x,1/4-z
loop_
_atom_site_type_symbol
_atom_site_label
_atom_site_fract_x
_atom_site_fract_y
_atom_site_fract_z
Si Si1 0.263672 0.989398 0.543482
Si Si2 0.078352 0.500000 0.750000
Si Si3 0.243661 0.756340 0.625000
Si Si4 0.806559 0.897459 0.678327
Si Si5 0.631409 0.603156 0.536078
Si Si6 0.582256 0.226056 0.805065
O O1 0.394340 0.000282 0.520271
O O2 0.258496 0.889899 0.627297
O O3 0.212655 0.939850 0.437409
O O4 0.198800 0.100400 0.572857
O O5 0.157050 0.476688 0.649523
O O6 0.295857 0.684910 0.717933
O O7 0.689200 0.848787 0.723901
O O8 0.844465 0.000000 0.750000
O O9 0.500000 0.580086 0.500000
O O10 0.624224 0.656465 0.647032
O O11 0.725008 0.506424 0.525598
#
# Coordination Sequence:
#
# PCOD9547653 Si02
#       6
#     8   4   4   8   8   8
#     4  11  24  43  69  93 127 169 223 274 330 391
#     4  10  18  40  68  88 128 160 206 280 316 374
#     4  12  20  36  70 102 116 158 222 274 328 384
#     4  11  26  47  63  91 135 182 216 276 341 390
#     4  12  18  37  68  98 133 161 209 279 338 391
#     4  11  21  40  64  98 130 174 214 267 342 397
#
# _framework density 21.748049999999999
#
# number of rings (size 3 to 8) (size 9 to 14) (size 15 to 20)
#    0.000    0.800    9.000    0.600    2.800    0.000 
#    9.000    2.000    0.000    0.000    0.000    0.000 
#    0.000    0.000    0.000    0.000    0.000    0.000 
#
# Total GULP energy -223286.403935 kJ/mol
# GULP energy per Si atom -5582.160098 kJ/mol
# Density = 2.169855 g / cm^3
# Si number density = 21.748050 Si / 1000 Ang^3
#
#
#
# Elastic Constant Matrix: (Units=GPa)
#
#
# Indices 1 2 3 4 5 6 
#
# 1 100.5933 45.5508 4.0537 0.0000 0.0000 0.0000
# 2 45.5508 100.5940 4.0536 0.0000 0.0000 0.0000
# 3 4.0537 4.0536 18.6725 0.0000 0.0000 0.0000
# 4 0.0000 0.0000 0.0000 15.8733 0.0000 0.0000
# 5 0.0000 0.0000 0.0000 0.0000 15.8735 0.0000
# 6 0.0000 0.0000 0.0000 0.0000 0.0000 4.2683
#
#
#
# Elastic Compliance Matrix: (Units=1/GPa)
#
#
# Indices 1 2 3 4 5 6 
#
# 1 0.012547 -0.005621 -0.001504 0.000000 0.000000 0.000000
# 2 -0.005621 0.012547 -0.001504 0.000000 0.000000 0.000000
# 3 -0.001504 -0.001504 0.054207 0.000000 0.000000 0.000000
# 4 0.000000 0.000000 0.000000 0.062999 0.000000 0.000000
# 5 0.000000 0.000000 0.000000 0.000000 0.062998 0.000000
# 6 0.000000 0.000000 0.000000 0.000000 0.000000 0.234283
#
#
# Mechanical properties :
#
#
# Convention : Reuss Voigt Hill
#
# Bulk Modulus (GPa) = 16.11733 36.35289 26.23511
# Shear Modulus (GPa) = 10.47078 18.28314 14.37696
#
# Velocity S-wave (km/s) = 2.19660 2.90259 2.57392
# Velocity P-wave (km/s) = 3.72296 5.29010 4.57414
#
# Compressibility (1/GPa) = 0.06204502
#
# Stress axis : x y z
#
# Youngs Moduli (GPa) = 79.70129 79.70189 18.44767
#
# Poissons Ratio (x) = 0.44799 0.02774
# Poissons Ratio (y) = 0.44799 0.02774
# Poissons Ratio (z) = 0.11984 0.11983
#
# Static dielectric constant tensor:
#      x y z
#    x 1.831550 0.000000 0.000000 
#    y 0.000000 1.831550 0.000000 
#    z 0.000000 0.000000 1.857700 
# 
# From -- ./inp_files/16407.got.cif
#   From: 2010.05.17/outbox.cif.g08.bks.cpg/sg91_9_cif.got.tgz:16407.got - 2010.06.03 19:20:03.
