data_PCOD9547181
_publ_section_title
;
Structure prediction by ZEFSAII (Michael W. Deem and Ramdas Pophale) SiO2 
 PCOD9547181
Probable space group: P 4 21 2
;
_chemical_formula_sum "Si O2"
_cell_formula_units_Z 48
_cell_length_a 8.927804
_cell_length_b 8.927804
_cell_length_c 33.786136
_cell_angle_alpha 90.000000
_cell_angle_beta 90.000000
_cell_angle_gamma 90.000000
_cell_volume 2692.947088
_symmetry_space_group_name_H-M "P 4 21 2"
_symmetry_group_IT_number 90
_symmetry_cell_setting 'tetragonal'
loop_
_space_group_symop_operation_xyz
x,y,z
1/2-y,1/2+x,z
-x,-y,z
1/2+y,1/2-x,z
1/2+x,1/2-y,-z
1/2-x,1/2+y,-z
y,x,-z
-y,-x,-z
loop_
_atom_site_type_symbol
_atom_site_label
_atom_site_fract_x
_atom_site_fract_y
_atom_site_fract_z
Si Si1 0.000000 0.000000 0.317003
Si Si2 0.042981 0.252980 0.119184
Si Si3 0.000000 0.000000 0.817003
Si Si4 0.747020 0.042981 0.619184
Si Si5 0.254035 0.064875 0.970978
Si Si6 0.500001 0.251813 0.250000
Si Si7 0.935124 0.254035 0.470978
O O1 0.954151 0.133298 0.346362
O O2 0.140773 0.020307 0.287869
O O3 0.166031 0.382735 0.122798
O O4 0.065467 0.196063 0.074321
O O5 0.045848 0.133299 0.153638
O O6 0.020305 0.859227 0.787869
O O7 0.617264 0.166032 0.622798
O O8 0.803937 0.065468 0.574321
O O9 0.398486 0.175795 0.976277
O O10 0.126447 0.126447 0.000000
O O11 0.355938 0.144063 0.250000
O O12 0.824205 0.398486 0.476277
O O13 0.873553 0.126448 0.500000
#
# Coordination Sequence:
#
# PCOD9547181 Si02
#       7
#     4   8   4   8   8   8   8
#     4  11  20  34  59  80  98 138 179 204 254 321
#     4   9  19  35  53  77 108 137 173 220 259 300
#     4  11  20  34  59  80  98 138 179 204 254 321
#     4   9  19  35  53  77 108 137 173 220 259 300
#     4   9  19  34  51  74 105 139 175 217 261 304
#     4  10  22  38  54  78 110 134 162 212 264 312
#     4   9  19  34  51  74 105 139 175 217 261 304
#
# _framework density 17.824338000000001
#
# number of rings (size 3 to 8) (size 9 to 14) (size 15 to 20)
#    0.000    2.500    0.000    4.000    0.000    6.000 
#    0.000    0.000    0.000   12.000    0.000    0.000 
#    0.000    0.000    0.000    0.000    0.000    0.000 
#
# Total GULP energy -267497.215048 kJ/mol
# GULP energy per Si atom -5572.858647 kJ/mol
# Density = 1.778377 g / cm^3
# Si number density = 17.824338 Si / 1000 Ang^3
#
#
#
# Elastic Constant Matrix: (Units=GPa)
#
#
# Indices 1 2 3 4 5 6 
#
# 1 91.9139 44.3247 84.5320 0.0000 0.0000 0.0000
# 2 44.3247 91.9147 84.5321 0.0000 0.0000 0.0000
# 3 84.5320 84.5321 178.9823 0.0000 0.0000 0.0000
# 4 0.0000 0.0000 0.0000 29.0585 0.0000 0.0000
# 5 0.0000 0.0000 0.0000 0.0000 29.0585 0.0000
# 6 0.0000 0.0000 0.0000 0.0000 0.0000 57.4960
#
#
#
# Elastic Compliance Matrix: (Units=1/GPa)
#
#
# Indices 1 2 3 4 5 6 
#
# 1 0.019373 -0.001640 -0.008375 0.000000 0.000000 0.000000
# 2 -0.001640 0.019373 -0.008375 0.000000 0.000000 0.000000
# 3 -0.008375 -0.008375 0.013498 0.000000 0.000000 0.000000
# 4 0.000000 0.000000 0.000000 0.034413 0.000000 0.000000
# 5 0.000000 0.000000 0.000000 0.000000 0.034413 0.000000
# 6 0.000000 0.000000 0.000000 0.000000 0.000000 0.017393
#
#
# Mechanical properties :
#
#
# Convention : Reuss Voigt Hill
#
# Bulk Modulus (GPa) = 64.66766 87.73204 76.19985
# Shear Modulus (GPa) = 27.71632 33.08409 30.40020
#
# Velocity S-wave (km/s) = 3.94759 4.31294 4.13430
# Velocity P-wave (km/s) = 7.55892 8.60983 8.10143
#
# Compressibility (1/GPa) = 0.01546368
#
# Stress axis : x y z
#
# Youngs Moduli (GPa) = 51.61759 51.61824 74.08328
#
# Poissons Ratio (x) = 0.08465 0.62047
# Poissons Ratio (y) = 0.08465 0.62047
# Poissons Ratio (z) = 0.43231 0.43232
#
# Static dielectric constant tensor:
#      x y z
#    x 1.612000 0.000000 0.000000 
#    y 0.000000 1.612000 0.000000 
#    z 0.000000 0.000000 1.621070 
# 
# From -- ./inp_files/3065.got.cif
#   From: 2010.05.17/outbox.cif.g08.bks.cpg/sg90_2_cif.got.tgz:3065.got - 2010.06.03 19:17:45.
