data_PCOD9547277
_publ_section_title
;
Structure prediction by ZEFSAII (Michael W. Deem and Ramdas Pophale) SiO2 
 PCOD9547277
Probable space group: P 4 21 2
;
_chemical_formula_sum "Si O2"
_cell_formula_units_Z 52
_cell_length_a 20.208333
_cell_length_b 20.208333
_cell_length_c 4.969535
_cell_angle_alpha 90.000000
_cell_angle_beta 90.000000
_cell_angle_gamma 90.000000
_cell_volume 2029.442416
_symmetry_space_group_name_H-M "P 4 21 2"
_symmetry_group_IT_number 90
_symmetry_cell_setting 'tetragonal'
loop_
_space_group_symop_operation_xyz
x,y,z
1/2-y,1/2+x,z
-x,-y,z
1/2+y,1/2-x,z
1/2+x,1/2-y,-z
1/2-x,1/2+y,-z
y,x,-z
-y,-x,-z
loop_
_atom_site_type_symbol
_atom_site_label
_atom_site_fract_x
_atom_site_fract_y
_atom_site_fract_z
Si Si1 0.023609 0.604221 0.923851
Si Si2 0.221275 0.339395 0.815628
Si Si3 0.857662 0.077119 0.246860
Si Si4 0.446209 0.704993 0.442874
Si Si5 0.776456 0.462392 0.068140
Si Si6 0.137792 0.377528 0.320249
Si Si7 0.204237 0.204237 0.500000
O O1 0.074018 0.546960 0.839287
O O2 0.049941 0.611630 0.237385
O O3 0.013575 0.682076 0.883900
O O4 0.289972 0.379135 0.783188
O O5 0.165885 0.369451 0.613895
O O6 0.220781 0.262413 0.717822
O O7 0.195160 0.353403 0.115535
O O8 0.894507 0.105494 0.500000
O O9 0.844287 0.999100 0.300987
O O10 0.904861 0.095140 0.000000
O O11 0.490404 0.730859 0.696126
O O12 0.373714 0.703321 0.589511
O O13 0.423207 0.742082 0.170340
O O14 0.828567 0.420834 0.241530
#
# Coordination Sequence:
#
# PCOD9547277 Si02
#       7
#     8   8   8   8   8   8   4
#     4   9  20  37  62  93 139 198 247 279 331 430
#     4  12  24  42  70 104 141 180 236 300 366 436
#     4  12  26  46  71 101 143 194 238 290 364 455
#     4  12  26  45  71 102 142 183 239 309 377 429
#     4  11  21  41  62  96 138 183 230 296 364 414
#     4  11  21  39  62  98 140 178 231 294 359 412
#     4  12  26  46  75 114 140 183 244 316 366 434
#
# _framework density 25.622800000000002
#
# number of rings (size 3 to 8) (size 9 to 14) (size 15 to 20)
#    0.000    0.769    3.846    3.692    0.000    1.846 
#    0.000    1.923    0.000   12.000    0.000    0.000 
#    0.000    0.000    0.000    0.000    0.000    0.000 
#
# Total GULP energy -289502.490294 kJ/mol
# GULP energy per Si atom -5567.355583 kJ/mol
# Density = 2.556448 g / cm^3
# Si number density = 25.622800 Si / 1000 Ang^3
#
#
#
# Elastic Constant Matrix: (Units=GPa)
#
#
# Indices 1 2 3 4 5 6 
#
# 1 98.6692 -12.1599 12.7715 0.0000 0.0000 0.0000
# 2 -12.1599 98.6707 12.7710 0.0000 0.0000 0.0000
# 3 12.7715 12.7710 101.6584 0.0000 0.0000 0.0000
# 4 0.0000 0.0000 0.0000 38.4370 0.0000 0.0000
# 5 0.0000 0.0000 0.0000 0.0000 38.4357 0.0000
# 6 0.0000 0.0000 0.0000 0.0000 0.0000 23.4854
#
#
#
# Elastic Compliance Matrix: (Units=1/GPa)
#
#
# Indices 1 2 3 4 5 6 
#
# 1 0.010514 0.001491 -0.001508 0.000000 0.000000 0.000000
# 2 0.001491 0.010514 -0.001508 0.000000 0.000000 0.000000
# 3 -0.001508 -0.001508 0.010216 0.000000 0.000000 0.000000
# 4 0.000000 0.000000 0.000000 0.026017 0.000000 0.000000
# 5 0.000000 0.000000 0.000000 0.000000 0.026017 0.000000
# 6 0.000000 0.000000 0.000000 0.000000 0.000000 0.042580
#
#
# Mechanical properties :
#
#
# Convention : Reuss Voigt Hill
#
# Bulk Modulus (GPa) = 35.47036 36.19593 35.83315
# Shear Modulus (GPa) = 36.15195 39.11268 37.63232
#
# Velocity S-wave (km/s) = 3.76031 3.91126 3.83653
# Velocity P-wave (km/s) = 5.72071 5.87830 5.80004
#
# Compressibility (1/GPa) = 0.02819255
#
# Stress axis : x y z
#
# Youngs Moduli (GPa) = 95.11283 95.11443 97.88760
#
# Poissons Ratio (x) = -0.14181 0.14763
# Poissons Ratio (y) = -0.14180 0.14762
# Poissons Ratio (z) = 0.14345 0.14344
#
# Static dielectric constant tensor:
#      x y z
#    x 2.251270 0.000000 0.000000 
#    y 0.000000 2.251270 0.000000 
#    z 0.000000 0.000000 2.096170 
# 
# From -- ./inp_files/659.got.cif
#   From: 2010.05.17/outbox.cif.g08.bks.cpg/sg90_1_cif.got.tgz:659.got - 2010.06.03 19:17:45.
