data_PCOD9547971
_publ_section_title
;
Structure prediction by ZEFSAII (Michael W. Deem and Ramdas Pophale) SiO2 
 PCOD9547971
Probable space group: P 41 2 2
;
_chemical_formula_sum "Si O2"
_cell_formula_units_Z 44
_cell_length_a 7.538439
_cell_length_b 7.538439
_cell_length_c 29.258570
_cell_angle_alpha 90.000000
_cell_angle_beta 90.000000
_cell_angle_gamma 90.000000
_cell_volume 1662.707846
_symmetry_space_group_name_H-M "P 41 2 2"
_symmetry_group_IT_number 91
_symmetry_cell_setting 'tetragonal'
loop_
_space_group_symop_operation_xyz
x,y,z
-y,x,1/4+z
-x,-y,1/2+z
y,-x,3/4+z
x,-y,1/2-z
-x,y,-z
y,x,3/4-z
-y,-x,1/4-z
loop_
_atom_site_type_symbol
_atom_site_label
_atom_site_fract_x
_atom_site_fract_y
_atom_site_fract_z
Si Si1 0.386372 0.940132 0.079011
Si Si2 0.532526 0.873751 0.179944
Si Si3 0.298030 0.445063 0.649356
Si Si4 0.016882 0.077173 0.926412
Si Si5 0.500000 0.677497 0.000000
Si Si6 0.716178 0.829581 0.696641
O O1 0.457453 0.873036 0.127621
O O2 0.492907 0.123731 0.072836
O O3 0.429011 0.801792 0.040689
O O4 0.178942 0.988425 0.076922
O O5 0.717664 0.979151 0.189794
O O6 0.378067 0.982296 0.203232
O O7 0.579919 0.667289 0.183726
O O8 0.398653 0.601348 0.625000
O O9 0.226671 0.323123 0.606638
O O10 0.088623 0.088623 0.875000
O O11 0.137651 0.928516 0.952171
O O12 0.681771 0.613410 0.023785
#
# Coordination Sequence:
#
# PCOD9547971 Si02
#       6
#     8   8   8   8   4   8
#     4  10  22  39  65  97 131 176 224 278 354 406
#     4  10  20  38  66 100 119 171 234 281 322 416
#     4  10  21  39  66 101 126 171 235 285 330 416
#     4  11  19  40  69  99 129 168 238 285 331 415
#     4  12  24  44  60  96 146 180 218 298 360 404
#     4  11  24  39  65  99 131 179 224 279 355 409
#
# _framework density 26.462855000000001
#
# number of rings (size 3 to 8) (size 9 to 14) (size 15 to 20)
#    0.000    1.455    7.273    0.000    2.545    6.545 
#    0.000    3.636    0.000    6.545    0.000    0.000 
#    0.000    0.000    0.000    0.000    0.000    0.000 
#
# Total GULP energy -245841.937014 kJ/mol
# GULP energy per Si atom -5587.316750 kJ/mol
# Density = 2.640262 g / cm^3
# Si number density = 26.462855 Si / 1000 Ang^3
#
#
#
# Elastic Constant Matrix: (Units=GPa)
#
#
# Indices 1 2 3 4 5 6 
#
# 1 98.6241 15.7397 -13.9206 0.0000 0.0000 0.0000
# 2 15.7397 98.6237 -13.9206 0.0000 0.0000 0.0000
# 3 -13.9206 -13.9206 66.5669 0.0000 0.0000 0.0000
# 4 0.0000 0.0000 0.0000 11.6007 0.0000 0.0000
# 5 0.0000 0.0000 0.0000 0.0000 11.6009 0.0000
# 6 0.0000 0.0000 0.0000 0.0000 0.0000 -290.7178
#
#
#
# Elastic Compliance Matrix: (Units=1/GPa)
#
#
# Indices 1 2 3 4 5 6 
#
# 1 0.010639 -0.001426 0.001927 0.000000 0.000000 0.000000
# 2 -0.001426 0.010639 0.001927 0.000000 0.000000 0.000000
# 3 0.001927 0.001927 0.015828 0.000000 0.000000 0.000000
# 4 0.000000 0.000000 0.000000 0.086202 0.000000 0.000000
# 5 0.000000 0.000000 0.000000 0.000000 0.086200 0.000000
# 6 0.000000 0.000000 0.000000 0.000000 0.000000 -0.003440
#
#
# Mechanical properties :
#
#
# Convention : Reuss Voigt Hill
#
# Bulk Modulus (GPa) = 23.83161 26.62353 25.22757
# Shear Modulus (GPa) = 23.23414 -35.10882 -5.93734
#
# Velocity S-wave (km/s) = 2.96631 -3.64637 -1.49951
# Velocity P-wave (km/s) = 4.55601 2.76504 2.56044
#
# Compressibility (1/GPa) = 0.04196107
#
# Stress axis : x y z
#
# Youngs Moduli (GPa) = 93.99354 93.99312 63.17799
#
# Poissons Ratio (x) = 0.13403 -0.12172
# Poissons Ratio (y) = 0.13403 -0.12172
# Poissons Ratio (z) = -0.18109 -0.18109
#
# Static dielectric constant tensor:
#      x y z
#    x 2.169560 0.000000 0.000000 
#    y 0.000000 2.169560 0.000000 
#    z 0.000000 0.000000 2.237000 
# 
# From -- ./inp_files/7816.got.cif
#   From: 2010.05.17/outbox.cif.g08.bks.cpg/sg91_4_cif.got.tgz:7816.got - 2010.06.03 19:20:03.
