data_PCOD9547734
_publ_section_title
;
Structure prediction by ZEFSAII (Michael W. Deem and Ramdas Pophale) SiO2 
 PCOD9547734
Probable space group: P 41 2 2
;
_chemical_formula_sum "Si O2"
_cell_formula_units_Z 64
_cell_length_a 18.109431
_cell_length_b 18.109431
_cell_length_c 11.669453
_cell_angle_alpha 90.000000
_cell_angle_beta 90.000000
_cell_angle_gamma 90.000000
_cell_volume 3827.014512
_symmetry_space_group_name_H-M "P 41 2 2"
_symmetry_group_IT_number 91
_symmetry_cell_setting 'tetragonal'
loop_
_space_group_symop_operation_xyz
x,y,z
-y,x,1/4+z
-x,-y,1/2+z
y,-x,3/4+z
x,-y,1/2-z
-x,y,-z
y,x,3/4-z
-y,-x,1/4-z
loop_
_atom_site_type_symbol
_atom_site_label
_atom_site_fract_x
_atom_site_fract_y
_atom_site_fract_z
Si Si1 0.281586 0.842528 0.116673
Si Si2 0.360847 0.079037 0.184503
Si Si3 0.086481 0.527240 0.531011
Si Si4 0.161664 0.037008 0.373634
Si Si5 0.129903 0.639115 0.357892
Si Si6 0.849162 0.238421 0.031749
Si Si7 0.911958 0.901465 0.505125
Si Si8 0.665022 0.045570 0.074872
O O1 0.228322 0.771679 0.125000
O O2 0.315359 0.863419 0.239552
O O3 0.230060 0.913698 0.087364
O O4 0.344250 0.839174 0.018465
O O5 0.445601 0.106654 0.178945
O O6 0.359760 0.000000 0.250000
O O7 0.329163 0.063791 0.058807
O O8 0.129099 0.559030 0.419438
O O9 0.085900 0.591162 0.626858
O O10 0.000000 0.521373 0.500000
O O11 0.093531 0.093531 0.375000
O O12 0.175573 0.000000 0.250000
O O13 0.132304 0.970528 0.449755
O O14 0.169751 0.694635 0.446606
O O15 0.041549 0.657363 0.350028
O O16 0.787529 0.212472 0.125000
O O17 0.879314 0.174125 0.945763
O O18 0.918918 0.268144 0.104950
O O19 0.890514 0.890514 0.375000
O O20 0.000000 0.911767 0.500000
#
# Coordination Sequence:
#
# PCOD9547734 Si02
#       8
#     8   8   8   8   8   8   8   8
#     4  11  26  35  49  70 101 138 164 205 259 319
#     4  11  20  34  56  77  98 126 165 205 265 316
#     4   8  18  34  56  80  93 120 157 215 266 307
#     4  11  24  37  47  60  85 119 168 222 268 301
#     4  10  20  37  51  68 102 123 165 214 263 311
#     4  10  23  31  50  67  90 131 167 210 256 308
#     4  11  22  32  47  61  75 112 168 217 263 298
#     4  10  19  35  52  74 101 121 161 219 266 307
#
# _framework density 16.723219
#
# number of rings (size 3 to 8) (size 9 to 14) (size 15 to 20)
#    0.000    1.750    1.250    4.125   10.500    0.500 
#    0.000    0.000    0.000    0.000    0.000    0.000 
#    0.000    0.000    0.000    0.000    0.000   20.000 
#
# Total GULP energy -356880.249081 kJ/mol
# GULP energy per Si atom -5576.253892 kJ/mol
# Density = 1.668516 g / cm^3
# Si number density = 16.723219 Si / 1000 Ang^3
#
#
#
# Elastic Constant Matrix: (Units=GPa)
#
#
# Indices 1 2 3 4 5 6 
#
# 1 51.1100 12.3151 5.7529 0.0000 0.0000 0.0000
# 2 12.3151 51.1103 5.7531 0.0000 0.0000 0.0000
# 3 5.7529 5.7531 71.5724 0.0000 0.0000 0.0000
# 4 0.0000 0.0000 0.0000 18.3209 0.0000 0.0000
# 5 0.0000 0.0000 0.0000 0.0000 18.3207 0.0000
# 6 0.0000 0.0000 0.0000 0.0000 0.0000 9.6231
#
#
#
# Elastic Compliance Matrix: (Units=1/GPa)
#
#
# Indices 1 2 3 4 5 6 
#
# 1 0.020888 -0.004888 -0.001286 0.000000 0.000000 0.000000
# 2 -0.004888 0.020888 -0.001286 0.000000 0.000000 0.000000
# 3 -0.001286 -0.001286 0.014179 0.000000 0.000000 0.000000
# 4 0.000000 0.000000 0.000000 0.054582 0.000000 0.000000
# 5 0.000000 0.000000 0.000000 0.000000 0.054583 0.000000
# 6 0.000000 0.000000 0.000000 0.000000 0.000000 0.103917
#
#
# Mechanical properties :
#
#
# Convention : Reuss Voigt Hill
#
# Bulk Modulus (GPa) = 24.36997 24.60388 24.48693
# Shear Modulus (GPa) = 16.79904 19.25104 18.02504
#
# Velocity S-wave (km/s) = 3.17288 3.39655 3.28662
# Velocity P-wave (km/s) = 5.29406 5.48875 5.39228
#
# Compressibility (1/GPa) = 0.04103411
#
# Stress axis : x y z
#
# Youngs Moduli (GPa) = 47.87378 47.87404 70.52870
#
# Poissons Ratio (x) = 0.23402 0.09070
# Poissons Ratio (y) = 0.23402 0.09071
# Poissons Ratio (z) = 0.06157 0.06157
#
# Static dielectric constant tensor:
#      x y z
#    x 1.512190 0.000000 0.000000 
#    y 0.000000 1.512160 0.000000 
#    z 0.000000 0.000000 1.616760 
# 
# From -- ./inp_files/20428.got.cif
#   From: 2010.05.17/outbox.cif.g08.bks.cpg/sg91_11_cif.got.tgz:20428.got - 2010.06.03 19:20:03.
