data_PCOD9547614
_publ_section_title
;
Structure prediction by ZEFSAII (Michael W. Deem and Ramdas Pophale) SiO2 
 PCOD9547614
Probable space group: P 41 2 2
;
_chemical_formula_sum "Si O2"
_cell_formula_units_Z 40
_cell_length_a 15.268789
_cell_length_b 15.268789
_cell_length_c 8.912935
_cell_angle_alpha 90.000000
_cell_angle_beta 90.000000
_cell_angle_gamma 90.000000
_cell_volume 2077.925279
_symmetry_space_group_name_H-M "P 41 2 2"
_symmetry_group_IT_number 91
_symmetry_cell_setting 'tetragonal'
loop_
_space_group_symop_operation_xyz
x,y,z
-y,x,1/4+z
-x,-y,1/2+z
y,-x,3/4+z
x,-y,1/2-z
-x,y,-z
y,x,3/4-z
-y,-x,1/4-z
loop_
_atom_site_type_symbol
_atom_site_label
_atom_site_fract_x
_atom_site_fract_y
_atom_site_fract_z
Si Si1 0.500000 0.999507 0.000000
Si Si2 0.663023 0.078466 0.358596
Si Si3 0.229876 0.417896 0.943672
Si Si4 0.843102 0.601844 0.110812
Si Si5 0.093249 0.763903 0.081308
Si Si6 0.424221 0.575780 0.625000
O O1 0.437302 0.944407 0.896627
O O2 0.565955 0.061417 0.908372
O O3 0.653509 0.173768 0.284389
O O4 0.716780 0.076755 0.510280
O O5 0.694007 0.000000 0.250000
O O6 0.208534 0.394454 0.769079
O O7 0.198632 0.518123 0.972261
O O8 0.332696 0.421726 0.963966
O O9 0.854617 0.692004 0.021315
O O10 0.152221 0.847780 0.125000
O O11 0.000000 0.783161 0.000000
O O12 0.427958 0.500000 0.750000
#
# Coordination Sequence:
#
# PCOD9547614 Si02
#       6
#     4   8   8   8   8   4
#     4  10  18  34  68 100 144 152 200 270 360 408
#     4  12  21  37  67 104 132 170 208 278 369 415
#     4  10  22  39  67  94 133 181 228 283 343 405
#     4  10  19  41  66  96 137 168 215 287 355 398
#     4  12  27  45  66  99 137 176 228 286 345 429
#     4  12  26  50  64  84 142 208 252 284 318 408
#
# _framework density 19.249969
#
# number of rings (size 3 to 8) (size 9 to 14) (size 15 to 20)
#    0.000    1.200    8.000    1.200    2.800    0.000 
#    7.200    1.000    0.000    0.000    0.000    0.000 
#    0.000    0.000    0.000    0.000    0.000    0.000 
#
# Total GULP energy -223103.488336 kJ/mol
# GULP energy per Si atom -5577.587208 kJ/mol
# Density = 1.920616 g / cm^3
# Si number density = 19.249969 Si / 1000 Ang^3
#
#
#
# Elastic Constant Matrix: (Units=GPa)
#
#
# Indices 1 2 3 4 5 6 
#
# 1 129.7646 53.2137 53.5823 0.0000 0.0000 0.0000
# 2 53.2137 129.7647 53.5819 0.0000 0.0000 0.0000
# 3 53.5823 53.5819 90.4487 0.0000 0.0000 0.0000
# 4 0.0000 0.0000 0.0000 16.8017 0.0000 0.0000
# 5 0.0000 0.0000 0.0000 0.0000 16.8032 0.0000
# 6 0.0000 0.0000 0.0000 0.0000 0.0000 18.4865
#
#
#
# Elastic Compliance Matrix: (Units=1/GPa)
#
#
# Indices 1 2 3 4 5 6 
#
# 1 0.010716 -0.002347 -0.004958 0.000000 0.000000 0.000000
# 2 -0.002347 0.010716 -0.004958 0.000000 0.000000 0.000000
# 3 -0.004958 -0.004958 0.016930 0.000000 0.000000 0.000000
# 4 0.000000 0.000000 0.000000 0.059518 0.000000 0.000000
# 5 0.000000 0.000000 0.000000 0.000000 0.059513 0.000000
# 6 0.000000 0.000000 0.000000 0.000000 0.000000 0.054093
#
#
# Mechanical properties :
#
#
# Convention : Reuss Voigt Hill
#
# Bulk Modulus (GPa) = 72.27190 74.52598 73.39894
# Shear Modulus (GPa) = 20.77943 23.05829 21.91886
#
# Velocity S-wave (km/s) = 3.28907 3.46473 3.37804
# Velocity P-wave (km/s) = 7.21452 7.40302 7.30938
#
# Compressibility (1/GPa) = 0.01383664
#
# Stress axis : x y z
#
# Youngs Moduli (GPa) = 93.31893 93.31942 59.06749
#
# Poissons Ratio (x) = 0.21905 0.29284
# Poissons Ratio (y) = 0.21905 0.29283
# Poissons Ratio (z) = 0.46264 0.46264
#
# Static dielectric constant tensor:
#      x y z
#    x 1.722420 0.000000 0.000000 
#    y 0.000000 1.722420 0.000000 
#    z 0.000000 0.000000 1.728910 
# 
# From -- ./inp_files/15026.got.cif
#   From: 2010.05.17/outbox.cif.g08.bks.cpg/sg91_8_cif.got.tgz:15026.got - 2010.06.03 19:20:03.
