data_PCOD9547923
_publ_section_title
;
Structure prediction by ZEFSAII (Michael W. Deem and Ramdas Pophale) SiO2 
 PCOD9547923
Probable space group: P 41 2 2
;
_chemical_formula_sum "Si O2"
_cell_formula_units_Z 48
_cell_length_a 21.340624
_cell_length_b 21.340624
_cell_length_c 5.286779
_cell_angle_alpha 90.000000
_cell_angle_beta 90.000000
_cell_angle_gamma 90.000000
_cell_volume 2407.716696
_symmetry_space_group_name_H-M "P 41 2 2"
_symmetry_group_IT_number 91
_symmetry_cell_setting 'tetragonal'
loop_
_space_group_symop_operation_xyz
x,y,z
-y,x,1/4+z
-x,-y,1/2+z
y,-x,3/4+z
x,-y,1/2-z
-x,y,-z
y,x,3/4-z
-y,-x,1/4-z
loop_
_atom_site_type_symbol
_atom_site_label
_atom_site_fract_x
_atom_site_fract_y
_atom_site_fract_z
Si Si1 0.676249 0.218523 0.670483
Si Si2 0.883399 0.000000 0.250000
Si Si3 0.805012 0.902634 0.499472
Si Si4 0.677315 0.133060 0.166785
Si Si5 0.459807 0.800433 0.242718
Si Si6 0.104839 0.104839 0.375000
Si Si7 0.430928 0.937843 0.396117
O O1 0.726454 0.273547 0.625000
O O2 0.675146 0.172552 0.425081
O O3 0.604334 0.238441 0.722583
O O4 0.689145 0.180316 0.928540
O O5 0.914235 0.056743 0.402865
O O6 0.838825 0.967063 0.445939
O O7 0.844547 0.844547 0.375000
O O8 0.739027 0.907407 0.367486
O O9 0.821711 0.897643 0.795406
O O10 0.616719 0.089845 0.107934
O O11 0.500000 0.792605 0.500000
O O12 0.441308 0.874622 0.231083
O O13 0.500000 0.785187 0.000000
O O14 0.500000 0.954049 0.500000
O O15 0.407452 0.000000 0.250000
#
# Coordination Sequence:
#
# PCOD9547923 Si02
#       7
#     8   4   8   8   8   4   8
#     4  11  22  39  62  94 127 163 212 263 313 373
#     4  10  22  40  64  84 112 144 188 236 320 380
#     4  10  22  40  63  83 114 154 186 248 312 382
#     4  11  25  39  62  94 122 164 208 260 319 373
#     4  10  20  37  59  84 123 168 208 251 311 363
#     4  10  22  40  66  82 116 146 188 244 318 390
#     4  10  21  38  58  84 122 165 210 258 305 368
#
# _framework density 19.9359
#
# number of rings (size 3 to 8) (size 9 to 14) (size 15 to 20)
#    0.000    1.667    0.000    5.500    5.833    2.667 
#    4.500    0.000   66.000    0.000    0.000    0.000 
#    0.000    1.333    0.000    0.333    0.000    0.000 
#
# Total GULP energy -267286.762027 kJ/mol
# GULP energy per Si atom -5568.474209 kJ/mol
# Density = 1.989053 g / cm^3
# Si number density = 19.935900 Si / 1000 Ang^3
#
#
#
# Elastic Constant Matrix: (Units=GPa)
#
#
# Indices 1 2 3 4 5 6 
#
# 1 86.1617 33.1923 32.4543 0.0000 0.0000 0.0000
# 2 33.1923 86.1652 32.4545 0.0000 0.0000 0.0000
# 3 32.4543 32.4545 123.1015 0.0000 0.0000 0.0000
# 4 0.0000 0.0000 0.0000 24.8802 0.0000 0.0000
# 5 0.0000 0.0000 0.0000 0.0000 24.8807 0.0000
# 6 0.0000 0.0000 0.0000 0.0000 0.0000 32.4960
#
#
#
# Elastic Compliance Matrix: (Units=1/GPa)
#
#
# Indices 1 2 3 4 5 6 
#
# 1 0.014330 -0.004549 -0.002579 0.000000 0.000000 0.000000
# 2 -0.004549 0.014329 -0.002578 0.000000 0.000000 0.000000
# 3 -0.002579 -0.002578 0.009483 0.000000 0.000000 0.000000
# 4 0.000000 0.000000 0.000000 0.040193 0.000000 0.000000
# 5 0.000000 0.000000 0.000000 0.000000 0.040192 0.000000
# 6 0.000000 0.000000 0.000000 0.000000 0.000000 0.030773
#
#
# Mechanical properties :
#
#
# Convention : Reuss Voigt Hill
#
# Bulk Modulus (GPa) = 53.39032 54.62563 54.00798
# Shear Modulus (GPa) = 28.57888 29.60653 29.09270
#
# Velocity S-wave (km/s) = 3.79032 3.85786 3.82424
# Velocity P-wave (km/s) = 6.78192 6.87781 6.83003
#
# Compressibility (1/GPa) = 0.01872999
#
# Stress axis : x y z
#
# Youngs Moduli (GPa) = 69.78508 69.78815 105.45185
#
# Poissons Ratio (x) = 0.31745 0.27192
# Poissons Ratio (y) = 0.31744 0.27191
# Poissons Ratio (z) = 0.17995 0.17995
#
# Static dielectric constant tensor:
#      x y z
#    x 1.960390 0.000000 0.000000 
#    y 0.000000 1.960410 0.000000 
#    z 0.000000 0.000000 1.573200 
# 
# From -- ./inp_files/8935.got.cif
#   From: 2010.05.17/outbox.cif.g08.bks.cpg/sg91_5_cif.got.tgz:8935.got - 2010.06.03 19:20:03.
