data_PCOD9547954
_publ_section_title
;
Structure prediction by ZEFSAII (Michael W. Deem and Ramdas Pophale) SiO2 
 PCOD9547954
Probable space group: P 41 2 2
;
_chemical_formula_sum "Si O2"
_cell_formula_units_Z 40
_cell_length_a 18.940439
_cell_length_b 18.940439
_cell_length_c 5.638400
_cell_angle_alpha 90.000000
_cell_angle_beta 90.000000
_cell_angle_gamma 90.000000
_cell_volume 2022.720910
_symmetry_space_group_name_H-M "P 41 2 2"
_symmetry_group_IT_number 91
_symmetry_cell_setting 'tetragonal'
loop_
_space_group_symop_operation_xyz
x,y,z
-y,x,1/4+z
-x,-y,1/2+z
y,-x,3/4+z
x,-y,1/2-z
-x,y,-z
y,x,3/4-z
-y,-x,1/4-z
loop_
_atom_site_type_symbol
_atom_site_label
_atom_site_fract_x
_atom_site_fract_y
_atom_site_fract_z
Si Si1 0.142592 0.038539 0.987812
Si Si2 0.597387 0.919555 0.795094
Si Si3 0.619265 0.808454 0.169431
Si Si4 0.274206 0.725794 0.125000
Si Si5 0.184706 0.500000 0.750000
Si Si6 0.728924 0.140415 0.947615
O O1 0.197445 0.101578 0.031079
O O2 0.133600 0.000000 0.250000
O O3 0.071417 0.071417 0.875000
O O4 0.173193 0.000000 0.750000
O O5 0.552179 0.866756 0.637866
O O6 0.678096 0.909507 0.710346
O O7 0.576131 0.000000 0.750000
O O8 0.591391 0.880965 0.047601
O O9 0.554546 0.777158 0.323005
O O10 0.684748 0.838865 0.320243
O O11 0.651024 0.749005 0.992081
O O12 0.262701 0.785573 0.318917
#
# Coordination Sequence:
#
# PCOD9547954 Si02
#       6
#     8   8   8   4   4   8
#     4  12  28  45  67  86 111 147 192 259 342 418
#     4  10  22  35  55  81 119 157 205 252 314 370
#     4  10  21  37  56  86 114 156 198 266 302 378
#     4  10  20  38  62  82 116 144 206 262 316 362
#     4  10  22  34  52  82 118 160 200 250 310 372
#     4  10  23  38  63  86 111 146 201 266 318 373
#
# _framework density 19.775345000000002
#
# number of rings (size 3 to 8) (size 9 to 14) (size 15 to 20)
#    0.000    1.600    0.000    3.600   14.000    2.400 
#    0.000    0.000    0.000    0.000    0.000    0.000 
#    0.000    0.000    0.000    0.000    0.000    0.000 
#
# Total GULP energy -222699.945589 kJ/mol
# GULP energy per Si atom -5567.498640 kJ/mol
# Density = 1.973034 g / cm^3
# Si number density = 19.775345 Si / 1000 Ang^3
#
#
#
# Elastic Constant Matrix: (Units=GPa)
#
#
# Indices 1 2 3 4 5 6 
#
# 1 70.5030 36.5068 35.4727 0.0000 0.0000 0.0000
# 2 36.5068 70.5030 35.4734 0.0000 0.0000 0.0000
# 3 35.4727 35.4734 106.1020 0.0000 0.0000 0.0000
# 4 0.0000 0.0000 0.0000 -127.0760 0.0000 0.0000
# 5 0.0000 0.0000 0.0000 0.0000 -127.0659 0.0000
# 6 0.0000 0.0000 0.0000 0.0000 0.0000 19.6934
#
#
#
# Elastic Compliance Matrix: (Units=1/GPa)
#
#
# Indices 1 2 3 4 5 6 
#
# 1 0.020711 -0.008704 -0.004014 0.000000 0.000000 0.000000
# 2 -0.008704 0.020711 -0.004014 0.000000 0.000000 0.000000
# 3 -0.004014 -0.004014 0.012109 0.000000 0.000000 0.000000
# 4 0.000000 0.000000 0.000000 -0.007869 0.000000 0.000000
# 5 0.000000 0.000000 0.000000 0.000000 -0.007870 0.000000
# 6 0.000000 0.000000 0.000000 0.000000 0.000000 0.050778
#
#
# Mechanical properties :
#
#
# Convention : Reuss Voigt Hill
#
# Bulk Modulus (GPa) = 49.83761 51.33490 50.58625
# Shear Modulus (GPa) = 38.84321 -37.57936 0.63193
#
# Velocity S-wave (km/s) = 4.43677 -4.36399 0.56590
# Velocity P-wave (km/s) = 7.17657 0.78922 5.10519
#
# Compressibility (1/GPa) = 0.02006517
#
# Stress axis : x y z
#
# Youngs Moduli (GPa) = 48.28463 48.28423 82.58381
#
# Poissons Ratio (x) = 0.42029 0.33148
# Poissons Ratio (y) = 0.42029 0.33150
# Poissons Ratio (z) = 0.19381 0.19382
#
# Static dielectric constant tensor:
#      x y z
#    x 1.854260 0.000000 0.000000 
#    y 0.000000 1.854240 0.000000 
#    z 0.000000 0.000000 1.833120 
# 
# From -- ./inp_files/14054.got.cif
#   From: 2010.05.17/outbox.cif.g08.bks.cpg/sg91_8_cif.got.tgz:14054.got - 2010.06.03 19:20:03.
