data_PCOD9547972
_publ_section_title
;
Structure prediction by ZEFSAII (Michael W. Deem and Ramdas Pophale) SiO2 
 PCOD9547972
Probable space group: P 41 2 2
;
_chemical_formula_sum "Si O2"
_cell_formula_units_Z 44
_cell_length_a 6.922999
_cell_length_b 6.922999
_cell_length_c 29.219025
_cell_angle_alpha 90.000000
_cell_angle_beta 90.000000
_cell_angle_gamma 90.000000
_cell_volume 1400.406951
_symmetry_space_group_name_H-M "P 41 2 2"
_symmetry_group_IT_number 91
_symmetry_cell_setting 'tetragonal'
loop_
_space_group_symop_operation_xyz
x,y,z
-y,x,1/4+z
-x,-y,1/2+z
y,-x,3/4+z
x,-y,1/2-z
-x,y,-z
y,x,3/4-z
-y,-x,1/4-z
loop_
_atom_site_type_symbol
_atom_site_label
_atom_site_fract_x
_atom_site_fract_y
_atom_site_fract_z
Si Si1 0.530477 0.309103 0.692767
Si Si2 0.012148 0.762631 0.300547
Si Si3 0.993766 0.480721 0.872566
Si Si4 0.260312 0.009695 0.446294
Si Si5 0.998786 0.998786 0.875000
Si Si6 0.253067 0.526250 0.959184
O O1 0.470702 0.221851 0.644701
O O2 0.758435 0.285945 0.696917
O O3 0.469468 0.528397 0.697747
O O4 0.464295 0.205446 0.739302
O O5 0.993685 0.761337 0.358267
O O6 0.934212 0.748502 0.248954
O O7 0.242713 0.753510 0.292832
O O8 0.984609 0.014318 0.313899
O O9 0.036684 0.494774 0.815543
O O10 0.127195 0.459845 0.917246
O O11 0.259221 0.990634 0.385164
#
# Coordination Sequence:
#
# PCOD9547972 Si02
#       6
#     8   8   8   8   4   8
#     4  10  20  38  66 101 132 171 235 288 329 411
#     4  11  24  38  62  96 135 169 221 285 347 410
#     4  12  21  39  68  99 133 178 220 277 356 410
#     4  11  20  38  67  96 121 171 229 279 334 409
#     4  12  22  42  66  94 120 178 226 272 332 420
#     4  10  21  38  65 100 134 173 232 288 333 405
#
# _framework density 31.419440999999999
#
# number of rings (size 3 to 8) (size 9 to 14) (size 15 to 20)
#    0.000    1.091    5.455    1.636    0.000    2.909 
#    0.000    5.455    0.000    8.727    0.000    0.000 
#    0.000    0.000    0.000    0.000    0.000    0.000 
#
# Total GULP energy -246154.603654 kJ/mol
# GULP energy per Si atom -5594.422810 kJ/mol
# Density = 3.134793 g / cm^3
# Si number density = 31.419441 Si / 1000 Ang^3
#
#
#
# Elastic Constant Matrix: (Units=GPa)
#
#
# Indices 1 2 3 4 5 6 
#
# 1 226.2935 11.9591 112.9595 0.0000 0.0000 0.0000
# 2 11.9591 226.2935 112.9595 0.0000 0.0000 0.0000
# 3 112.9595 112.9595 378.9000 0.0000 0.0000 0.0000
# 4 0.0000 0.0000 0.0000 11.8712 0.0000 0.0000
# 5 0.0000 0.0000 0.0000 0.0000 11.8712 0.0000
# 6 0.0000 0.0000 0.0000 0.0000 0.0000 13.1576
#
#
#
# Elastic Compliance Matrix: (Units=1/GPa)
#
#
# Indices 1 2 3 4 5 6 
#
# 1 0.005258 0.000593 -0.001744 0.000000 0.000000 0.000000
# 2 0.000593 0.005258 -0.001744 0.000000 0.000000 0.000000
# 3 -0.001744 -0.001744 0.003679 0.000000 0.000000 0.000000
# 4 0.000000 0.000000 0.000000 0.084238 0.000000 0.000000
# 5 0.000000 0.000000 0.000000 0.000000 0.084238 0.000000
# 6 0.000000 0.000000 0.000000 0.000000 0.000000 0.076002
#
#
# Mechanical properties :
#
#
# Convention : Reuss Voigt Hill
#
# Bulk Modulus (GPa) = 118.98653 145.24924 132.11789
# Shear Modulus (GPa) = 18.70792 46.95392 32.83092
#
# Velocity S-wave (km/s) = 2.44278 3.86997 3.23603
# Velocity P-wave (km/s) = 6.77560 8.14238 7.49023
#
# Compressibility (1/GPa) = 0.00840431
#
# Stress axis : x y z
#
# Youngs Moduli (GPa) = 190.16895 190.16895 271.78799
#
# Poissons Ratio (x) = -0.11275 0.47412
# Poissons Ratio (y) = -0.11275 0.47412
# Poissons Ratio (z) = 0.33174 0.33174
#
# Static dielectric constant tensor:
#      x y z
#    x 2.760680 0.000000 0.000000 
#    y 0.000000 2.760680 0.000000 
#    z 0.000000 0.000000 2.310440 
# 
# From -- ./inp_files/7857.got.cif
#   From: 2010.05.17/outbox.cif.g08.bks.cpg/sg91_4_cif.got.tgz:7857.got - 2010.06.03 19:20:03.
