data_PCOD9547028
_publ_section_title
;
Structure prediction by ZEFSAII (Michael W. Deem and Ramdas Pophale) SiO2 
 PCOD9547028
Probable space group: P 4 2 2
;
_chemical_formula_sum "Si O2"
_cell_formula_units_Z 64
_cell_length_a 11.347272
_cell_length_b 11.347272
_cell_length_c 25.796989
_cell_angle_alpha 90.000000
_cell_angle_beta 90.000000
_cell_angle_gamma 90.000000
_cell_volume 3321.635313
_symmetry_space_group_name_H-M "P 4 2 2"
_symmetry_group_IT_number 89
_symmetry_cell_setting 'tetragonal'
loop_
_space_group_symop_operation_xyz
x,y,z
-y,x,z
-x,-y,z
y,-x,z
x,-y,-z
-x,y,-z
y,x,-z
-y,-x,-z
loop_
_atom_site_type_symbol
_atom_site_label
_atom_site_fract_x
_atom_site_fract_y
_atom_site_fract_z
Si Si1 0.310556 0.492523 0.163091
Si Si2 0.112859 0.427117 0.769770
Si Si3 0.697895 0.003976 0.941513
Si Si4 0.870068 0.494647 0.409723
Si Si5 0.511655 0.801934 0.942916
Si Si6 0.190633 0.039844 0.169227
Si Si7 0.548786 0.306618 0.681602
Si Si8 0.125697 0.683187 0.507005
O O1 0.390431 0.382415 0.178973
O O2 0.181431 0.495952 0.186960
O O3 0.292540 0.495914 0.101879
O O4 0.072566 0.305929 0.797284
O O5 0.209740 0.418101 0.724665
O O6 0.000000 0.500000 0.751732
O O7 0.630767 0.878701 0.935210
O O8 0.594986 0.103075 0.940820
O O9 0.777887 0.034350 0.892252
O O10 0.750427 0.000000 0.000000
O O11 0.765939 0.455096 0.372231
O O12 0.876402 0.409128 0.459484
O O13 0.855916 0.620172 0.437817
O O14 0.000000 0.500000 0.384036
O O15 0.500000 0.749698 0.000000
O O16 0.088656 0.135364 0.180411
O O17 0.637421 0.417322 0.686182
O O18 0.230480 0.769521 0.500000
O O19 0.000000 0.744583 0.500000
#
# Coordination Sequence:
#
# PCOD9547028 Si02
#       8
#     8   8   8   8   8   8   8   8
#     4  11  24  39  58  87 117 145 187 240 285 344
#     4  12  26  42  68  85 113 158 195 239 305 366
#     4   9  18  35  60  88 118 150 186 232 290 357
#     4   9  18  35  57  88 125 167 218 258 316 382
#     4   9  18  33  55  84 115 149 184 221 279 349
#     4  11  26  43  62  91 119 148 195 247 293 358
#     4  11  24  41  63  94 125 155 205 269 318 373
#     4   9  17  30  54  86 126 174 217 264 313 372
#
# _framework density 19.267619
#
# number of rings (size 3 to 8) (size 9 to 14) (size 15 to 20)
#    0.000    1.875    1.250    4.125    5.250    2.125 
#    0.000    3.750    0.000    3.000    0.000    0.000 
#    0.000    0.000    0.000    0.000    0.000    0.000 
#
# Total GULP energy -357038.004739 kJ/mol
# GULP energy per Si atom -5578.718824 kJ/mol
# Density = 1.922377 g / cm^3
# Si number density = 19.267619 Si / 1000 Ang^3
#
#
#
# Elastic Constant Matrix: (Units=GPa)
#
#
# Indices 1 2 3 4 5 6 
#
# 1 77.6243 32.2135 25.1445 0.0000 0.0000 0.0000
# 2 32.2135 77.6271 25.1456 0.0000 0.0000 0.0000
# 3 25.1445 25.1456 87.1620 0.0000 0.0000 0.0000
# 4 0.0000 0.0000 0.0000 19.4767 0.0000 0.0000
# 5 0.0000 0.0000 0.0000 0.0000 19.4948 0.0000
# 6 0.0000 0.0000 0.0000 0.0000 0.0000 23.9105
#
#
#
# Elastic Compliance Matrix: (Units=1/GPa)
#
#
# Indices 1 2 3 4 5 6 
#
# 1 0.016255 -0.005765 -0.003026 0.000000 0.000000 0.000000
# 2 -0.005765 0.016255 -0.003026 0.000000 0.000000 0.000000
# 3 -0.003026 -0.003026 0.013219 0.000000 0.000000 0.000000
# 4 0.000000 0.000000 0.000000 0.051343 0.000000 0.000000
# 5 0.000000 0.000000 0.000000 0.000000 0.051296 0.000000
# 6 0.000000 0.000000 0.000000 0.000000 0.000000 0.041823
#
#
# Mechanical properties :
#
#
# Convention : Reuss Voigt Hill
#
# Bulk Modulus (GPa) = 45.26159 45.26896 45.26528
# Shear Modulus (GPa) = 22.60490 23.23704 22.92097
#
# Velocity S-wave (km/s) = 3.42893 3.47654 3.45282
# Velocity P-wave (km/s) = 6.26249 6.29769 6.28011
#
# Compressibility (1/GPa) = 0.02209379
#
# Stress axis : x y z
#
# Youngs Moduli (GPa) = 61.51807 61.51999 75.64925
#
# Poissons Ratio (x) = 0.35469 0.22892
# Poissons Ratio (y) = 0.35468 0.22893
# Poissons Ratio (z) = 0.18616 0.18617
#
# Static dielectric constant tensor:
#      x y z
#    x 1.557910 0.000000 0.000000 
#    y 0.000000 1.557380 0.000000 
#    z 0.000000 0.000000 1.693580 
# 
# From -- ./inp_files/2802.got.cif
#   From: 2010.05.17/outbox.cif.g08.bks.cpg/sg89_2_cif.got.tgz:2802.got - 2010.06.03 19:15:31.
