data_PCOD9547518
_publ_section_title
;
Structure prediction by ZEFSAII (Michael W. Deem and Ramdas Pophale) SiO2 
 PCOD9547518
Probable space group: P 41 2 2
;
_chemical_formula_sum "Si O2"
_cell_formula_units_Z 56
_cell_length_a 14.793311
_cell_length_b 14.793311
_cell_length_c 12.468462
_cell_angle_alpha 90.000000
_cell_angle_beta 90.000000
_cell_angle_gamma 90.000000
_cell_volume 2728.623789
_symmetry_space_group_name_H-M "P 41 2 2"
_symmetry_group_IT_number 91
_symmetry_cell_setting 'tetragonal'
loop_
_space_group_symop_operation_xyz
x,y,z
-y,x,1/4+z
-x,-y,1/2+z
y,-x,3/4+z
x,-y,1/2-z
-x,y,-z
y,x,3/4-z
-y,-x,1/4-z
loop_
_atom_site_type_symbol
_atom_site_label
_atom_site_fract_x
_atom_site_fract_y
_atom_site_fract_z
Si Si1 0.243598 0.816262 0.371383
Si Si2 0.149183 0.999820 0.375085
Si Si3 0.377931 0.790405 0.930140
Si Si4 0.403364 0.403446 0.500427
Si Si5 0.306306 0.877238 0.136204
Si Si6 0.090286 0.497395 0.460413
Si Si7 0.770214 0.446488 0.359448
O O1 0.176857 0.897660 0.408984
O O2 0.203588 0.716391 0.384184
O O3 0.266538 0.832851 0.244206
O O4 0.345131 0.807001 0.417957
O O5 0.172031 0.000000 0.250000
O O6 0.225902 0.066748 0.420739
O O7 0.050662 0.050662 0.375000
O O8 0.417155 0.689754 0.932870
O O9 0.448523 0.859806 0.882519
O O10 0.348250 0.809488 0.051404
O O11 0.500000 0.453719 0.500000
O O12 0.384312 0.384312 0.375000
O O13 0.319075 0.444304 0.564890
O O14 0.395513 0.932498 0.170046
O O15 0.155257 0.489060 0.562442
O O16 0.000000 0.544206 0.500000
O O17 0.755340 0.500000 0.250000
#
# Coordination Sequence:
#
# PCOD9547518 Si02
#       7
#     8   8   8   8   8   8   8
#     4   9  19  35  56  85 118 152 196 247 305 379
#     4  10  19  33  55  85 115 147 193 250 308 362
#     4  11  20  35  59  86 116 152 192 247 313 367
#     4  11  22  39  63  93 126 160 208 269 326 388
#     4  10  17  32  59  86 111 139 185 248 310 360
#     4  11  23  37  56  86 120 157 205 256 306 370
#     4  10  22  41  61  85 124 171 215 263 326 398
#
# _framework density 20.523164999999999
#
# number of rings (size 3 to 8) (size 9 to 14) (size 15 to 20)
#    0.000    1.714    0.000    9.000    0.000    2.857 
#    0.000    6.429    0.000    0.000    0.000    0.000 
#    0.000    0.000    0.000    0.000    0.000    0.000 
#
# Total GULP energy -311897.323489 kJ/mol
# GULP energy per Si atom -5569.595062 kJ/mol
# Density = 2.047645 g / cm^3
# Si number density = 20.523165 Si / 1000 Ang^3
#
#
#
# Elastic Constant Matrix: (Units=GPa)
#
#
# Indices 1 2 3 4 5 6 
#
# 1 109.5911 49.2470 25.7485 0.0000 0.0000 0.0000
# 2 49.2470 109.5911 25.7485 0.0000 0.0000 0.0000
# 3 25.7485 25.7485 58.3213 0.0000 0.0000 0.0000
# 4 0.0000 0.0000 0.0000 19.6391 0.0000 0.0000
# 5 0.0000 0.0000 0.0000 0.0000 19.6391 0.0000
# 6 0.0000 0.0000 0.0000 0.0000 0.0000 0.9605
#
#
#
# Elastic Compliance Matrix: (Units=1/GPa)
#
#
# Indices 1 2 3 4 5 6 
#
# 1 0.011960 -0.004612 -0.003244 0.000000 0.000000 0.000000
# 2 -0.004612 0.011960 -0.003244 0.000000 0.000000 0.000000
# 3 -0.003244 -0.003244 0.020011 0.000000 0.000000 0.000000
# 4 0.000000 0.000000 0.000000 0.050919 0.000000 0.000000
# 5 0.000000 0.000000 0.000000 0.000000 0.050919 0.000000
# 6 0.000000 0.000000 0.000000 0.000000 0.000000 1.041149
#
#
# Mechanical properties :
#
#
# Convention : Reuss Voigt Hill
#
# Bulk Modulus (GPa) = 46.01905 53.22129 49.62017
# Shear Modulus (GPa) = 4.11063 19.83170 11.97116
#
# Velocity S-wave (km/s) = 1.41678 3.11192 2.41778
# Velocity P-wave (km/s) = 5.01478 6.23704 5.65901
#
# Compressibility (1/GPa) = 0.02173013
#
# Stress axis : x y z
#
# Youngs Moduli (GPa) = 83.61537 83.61537 49.97331
#
# Poissons Ratio (x) = 0.38564 0.16211
# Poissons Ratio (y) = 0.38564 0.16211
# Poissons Ratio (z) = 0.27124 0.27124
#
# Static dielectric constant tensor:
#      x y z
#    x 1.842120 0.000000 0.000000 
#    y 0.000000 1.842120 0.000000 
#    z 0.000000 0.000000 3.484880 
# 
# From -- ./inp_files/3919.got.cif
#   From: 2010.05.17/outbox.cif.g08.bks.cpg/sg91_2_cif.got.tgz:3919.got - 2010.06.03 19:20:03.
