data_PCOD9547255
_publ_section_title
;
Structure prediction by ZEFSAII (Michael W. Deem and Ramdas Pophale) SiO2 
 PCOD9547255
Probable space group: P 4 21 2
;
_chemical_formula_sum "Si O2"
_cell_formula_units_Z 56
_cell_length_a 14.479119
_cell_length_b 14.479119
_cell_length_c 14.314420
_cell_angle_alpha 90.000000
_cell_angle_beta 90.000000
_cell_angle_gamma 90.000000
_cell_volume 3000.944964
_symmetry_space_group_name_H-M "P 4 21 2"
_symmetry_group_IT_number 90
_symmetry_cell_setting 'tetragonal'
loop_
_space_group_symop_operation_xyz
x,y,z
1/2-y,1/2+x,z
-x,-y,z
1/2+y,1/2-x,z
1/2+x,1/2-y,-z
1/2-x,1/2+y,-z
y,x,-z
-y,-x,-z
loop_
_atom_site_type_symbol
_atom_site_label
_atom_site_fract_x
_atom_site_fract_y
_atom_site_fract_z
Si Si1 0.648328 0.046019 0.875747
Si Si2 0.894076 0.389212 0.471686
Si Si3 0.248449 0.989800 0.272806
Si Si4 0.918743 0.074597 0.609515
Si Si5 0.346247 0.972274 0.090094
Si Si6 0.678907 0.183416 0.347778
Si Si7 0.762366 0.619427 0.304045
O O1 0.558152 0.110952 0.863251
O O2 0.719180 0.081975 0.798975
O O3 0.682172 0.045236 0.982897
O O4 0.874088 0.496781 0.488643
O O5 0.827993 0.331685 0.540840
O O6 0.881665 0.355138 0.365865
O O7 0.157573 0.955546 0.325857
O O8 0.261895 0.972013 0.162734
O O9 0.327448 0.922680 0.313772
O O10 0.263010 0.094533 0.302360
O O11 0.903775 0.096226 0.500000
O O12 0.816504 0.055174 0.648769
O O13 0.000000 0.000000 0.614040
O O14 0.428348 0.897024 0.104184
O O15 0.775504 0.225544 0.313411
#
# Coordination Sequence:
#
# PCOD9547255 Si02
#       7
#     8   8   8   8   8   8   8
#     4   9  19  37  61  90 120 152 190 247 314 363
#     4  11  22  35  56  86 117 152 193 252 312 356
#     4  11  20  36  62  86 117 149 198 248 299 357
#     4  10  24  44  59  78 116 169 211 239 281 353
#     4   9  17  32  62  95 120 147 181 240 318 363
#     4  11  22  35  53  86 118 152 188 249 299 348
#     4  11  22  38  57  83 120 159 205 241 286 359
#
# _framework density 18.660786999999999
#
# number of rings (size 3 to 8) (size 9 to 14) (size 15 to 20)
#    0.000    1.714    2.857    3.857    0.000    3.714 
#    2.571    2.857    0.000    3.429    0.000    0.000 
#    0.000    0.000    0.000    0.000    0.000    0.000 
#
# Total GULP energy -312006.606671 kJ/mol
# GULP energy per Si atom -5571.546548 kJ/mol
# Density = 1.861831 g / cm^3
# Si number density = 18.660787 Si / 1000 Ang^3
#
#
#
# Elastic Constant Matrix: (Units=GPa)
#
#
# Indices 1 2 3 4 5 6 
#
# 1 51.7043 29.3522 49.2459 0.0000 0.0000 0.0000
# 2 29.3522 51.7046 49.2460 0.0000 0.0000 0.0000
# 3 49.2459 49.2460 163.8630 0.0000 0.0000 0.0000
# 4 0.0000 0.0000 0.0000 14.1870 0.0000 0.0000
# 5 0.0000 0.0000 0.0000 0.0000 14.1865 0.0000
# 6 0.0000 0.0000 0.0000 0.0000 0.0000 21.4923
#
#
#
# Elastic Compliance Matrix: (Units=1/GPa)
#
#
# Indices 1 2 3 4 5 6 
#
# 1 0.032086 -0.012652 -0.005840 0.000000 0.000000 0.000000
# 2 -0.012652 0.032086 -0.005840 0.000000 0.000000 0.000000
# 3 -0.005840 -0.005840 0.009613 0.000000 0.000000 0.000000
# 4 0.000000 0.000000 0.000000 0.070487 0.000000 0.000000
# 5 0.000000 0.000000 0.000000 0.000000 0.070490 0.000000
# 6 0.000000 0.000000 0.000000 0.000000 0.000000 0.046528
#
#
# Mechanical properties :
#
#
# Convention : Reuss Voigt Hill
#
# Bulk Modulus (GPa) = 39.81068 58.10667 48.95868
# Shear Modulus (GPa) = 15.70698 19.26833 17.48766
#
# Velocity S-wave (km/s) = 2.90437 3.21683 3.06459
# Velocity P-wave (km/s) = 5.71204 6.70845 6.23019
#
# Compressibility (1/GPa) = 0.02511889
#
# Stress axis : x y z
#
# Youngs Moduli (GPa) = 31.16609 31.16629 104.02433
#
# Poissons Ratio (x) = 0.39432 0.60755
# Poissons Ratio (y) = 0.39432 0.60755
# Poissons Ratio (z) = 0.18202 0.18203
#
# Static dielectric constant tensor:
#      x y z
#    x 1.666930 0.000000 0.000000 
#    y 0.000000 1.666930 0.000000 
#    z 0.000000 0.000000 1.688420 
# 
# From -- ./inp_files/2539.got.cif
#   From: 2010.05.17/outbox.cif.g08.bks.cpg/sg90_2_cif.got.tgz:2539.got - 2010.06.03 19:17:45.
