data_PCOD9547940
_publ_section_title
;
Structure prediction by ZEFSAII (Michael W. Deem and Ramdas Pophale) SiO2 
 PCOD9547940
Probable space group: P 41 2 2
;
_chemical_formula_sum "Si O2"
_cell_formula_units_Z 56
_cell_length_a 15.437174
_cell_length_b 15.437174
_cell_length_c 12.110889
_cell_angle_alpha 90.000000
_cell_angle_beta 90.000000
_cell_angle_gamma 90.000000
_cell_volume 2886.101645
_symmetry_space_group_name_H-M "P 41 2 2"
_symmetry_group_IT_number 91
_symmetry_cell_setting 'tetragonal'
loop_
_space_group_symop_operation_xyz
x,y,z
-y,x,1/4+z
-x,-y,1/2+z
y,-x,3/4+z
x,-y,1/2-z
-x,y,-z
y,x,3/4-z
-y,-x,1/4-z
loop_
_atom_site_type_symbol
_atom_site_label
_atom_site_fract_x
_atom_site_fract_y
_atom_site_fract_z
Si Si1 0.725870 0.994602 0.984400
Si Si2 0.468939 0.175387 0.264390
Si Si3 0.083221 0.102254 0.751675
Si Si4 0.306605 0.679979 0.999265
Si Si5 0.250269 0.839723 0.868933
Si Si6 0.630798 0.089136 0.181426
Si Si7 0.500000 0.255318 0.500000
Si Si8 0.000000 0.641585 0.000000
O O1 0.829009 0.007765 0.987826
O O2 0.695687 0.008221 0.861276
O O3 0.675140 0.059910 0.067302
O O4 0.709476 0.900221 0.035352
O O5 0.412221 0.259856 0.234550
O O6 0.546647 0.149744 0.182062
O O7 0.499901 0.196446 0.389509
O O8 0.412229 0.088247 0.265206
O O9 0.154385 0.128695 0.661653
O O10 0.062749 0.000000 0.750000
O O11 0.118559 0.118559 0.875000
O O12 0.262283 0.743543 0.911543
O O13 0.411261 0.688364 0.992949
O O14 0.288348 0.711653 0.125000
O O15 0.301596 0.860092 0.757485
O O16 0.610748 0.000000 0.250000
#
# Coordination Sequence:
#
# PCOD9547940 Si02
#       8
#     8   8   8   8   8   8   4   4
#     4  11  24  42  64  91 129 171 220 269 333 384
#     4  11  22  37  60 101 128 168 216 268 342 395
#     4  12  22  42  63  91 123 171 231 264 298 390
#     4  10  21  36  61  96 130 170 218 269 331 408
#     4  11  20  40  66  86 127 168 212 267 328 384
#     4  10  20  37  65  92 120 171 211 267 328 396
#     4  10  20  38  62  90 136 176 216 270 326 406
#     4  12  26  40  60 102 140 162 208 284 342 398
#
# _framework density 19.403335999999999
#
# number of rings (size 3 to 8) (size 9 to 14) (size 15 to 20)
#    0.000    1.143    5.000    3.000    2.000    0.571 
#    1.286    0.714    0.000    0.000   11.143    0.000 
#    0.000    0.000    0.000    0.000    0.000    0.000 
#
# Total GULP energy -312388.617018 kJ/mol
# GULP energy per Si atom -5578.368161 kJ/mol
# Density = 1.935917 g / cm^3
# Si number density = 19.403336 Si / 1000 Ang^3
#
#
#
# Elastic Constant Matrix: (Units=GPa)
#
#
# Indices 1 2 3 4 5 6 
#
# 1 85.4411 39.3685 32.2066 0.0000 0.0000 0.0000
# 2 39.3685 85.4411 32.2066 0.0000 0.0000 0.0000
# 3 32.2066 32.2066 111.5851 0.0000 0.0000 0.0000
# 4 0.0000 0.0000 0.0000 23.4885 0.0000 0.0000
# 5 0.0000 0.0000 0.0000 0.0000 23.4883 0.0000
# 6 0.0000 0.0000 0.0000 0.0000 0.0000 23.4594
#
#
#
# Elastic Compliance Matrix: (Units=1/GPa)
#
#
# Indices 1 2 3 4 5 6 
#
# 1 0.015560 -0.006145 -0.002717 0.000000 0.000000 0.000000
# 2 -0.006145 0.015560 -0.002717 0.000000 0.000000 0.000000
# 3 -0.002717 -0.002717 0.010530 0.000000 0.000000 0.000000
# 4 0.000000 0.000000 0.000000 0.042574 0.000000 0.000000
# 5 0.000000 0.000000 0.000000 0.000000 0.042574 0.000000
# 6 0.000000 0.000000 0.000000 0.000000 0.000000 0.042627
#
#
# Mechanical properties :
#
#
# Convention : Reuss Voigt Hill
#
# Bulk Modulus (GPa) = 54.08247 54.44784 54.26516
# Shear Modulus (GPa) = 25.15748 25.99961 25.57855
#
# Velocity S-wave (km/s) = 3.60468 3.66451 3.63472
# Velocity P-wave (km/s) = 6.72742 6.78431 6.75593
#
# Compressibility (1/GPa) = 0.01849028
#
# Stress axis : x y z
#
# Youngs Moduli (GPa) = 64.26854 64.26848 94.96356
#
# Poissons Ratio (x) = 0.39494 0.25805
# Poissons Ratio (y) = 0.39494 0.25805
# Poissons Ratio (z) = 0.17464 0.17464
#
# Static dielectric constant tensor:
#      x y z
#    x 1.724190 0.000000 0.000000 
#    y 0.000000 1.724180 0.000000 
#    z 0.000000 0.000000 1.700070 
# 
# From -- ./inp_files/16015.got.cif
#   From: 2010.05.17/outbox.cif.g08.bks.cpg/sg91_9_cif.got.tgz:16015.got - 2010.06.03 19:20:03.
