data_PCOD9547083
_publ_section_title
;
Structure prediction by ZEFSAII (Michael W. Deem and Ramdas Pophale) SiO2 
 PCOD9547083
Probable space group: P 4 21 2
;
_chemical_formula_sum "Si O2"
_cell_formula_units_Z 56
_cell_length_a 12.784872
_cell_length_b 12.784872
_cell_length_c 19.423018
_cell_angle_alpha 90.000000
_cell_angle_beta 90.000000
_cell_angle_gamma 90.000000
_cell_volume 3174.749630
_symmetry_space_group_name_H-M "P 4 21 2"
_symmetry_group_IT_number 90
_symmetry_cell_setting 'tetragonal'
loop_
_space_group_symop_operation_xyz
x,y,z
1/2-y,1/2+x,z
-x,-y,z
1/2+y,1/2-x,z
1/2+x,1/2-y,-z
1/2-x,1/2+y,-z
y,x,-z
-y,-x,-z
loop_
_atom_site_type_symbol
_atom_site_label
_atom_site_fract_x
_atom_site_fract_y
_atom_site_fract_z
Si Si1 0.243539 0.267013 0.387081
Si Si2 0.632790 0.386476 0.713696
Si Si3 0.981309 0.889951 0.071573
Si Si4 0.882577 0.198870 0.880062
Si Si5 0.628170 0.280255 0.137670
Si Si6 0.635019 0.113473 0.488147
Si Si7 0.628363 0.610534 0.273810
O O1 0.170280 0.182150 0.349912
O O2 0.332335 0.202035 0.427816
O O3 0.182045 0.338787 0.441530
O O4 0.293216 0.338133 0.327606
O O5 0.707897 0.370183 0.779830
O O6 0.631305 0.510334 0.699930
O O7 0.513807 0.356860 0.732201
O O8 0.890863 0.827910 0.109041
O O9 0.099054 0.848340 0.072935
O O10 0.928823 0.928823 0.000000
O O11 0.000000 0.000000 0.112718
O O12 0.813207 0.301460 0.889801
O O13 0.863731 0.160743 0.801728
O O14 0.006523 0.224628 0.886267
O O15 0.512123 0.142306 0.484312
#
# Coordination Sequence:
#
# PCOD9547083 Si02
#       7
#     8   8   8   8   8   8   8
#     4  11  20  34  56  77 100 142 190 229 285 342
#     4  10  19  32  52  78 109 137 179 230 282 332
#     4   9  18  36  58  81 109 152 201 226 265 339
#     4  10  19  34  57  83 117 148 184 239 284 341
#     4  10  19  34  54  84 115 148 182 232 289 330
#     4  10  22  38  52  72 107 143 181 233 285 350
#     4  10  19  32  52  79 108 139 178 234 282 330
#
# _framework density 17.639185999999999
#
# number of rings (size 3 to 8) (size 9 to 14) (size 15 to 20)
#    0.000    2.000    2.857    1.714    0.000    0.286 
#    5.143    0.000    0.000    7.286    0.000    0.000 
#    0.000    0.000    0.000    0.000    0.000    0.000 
#
# Total GULP energy -312030.871558 kJ/mol
# GULP energy per Si atom -5571.979849 kJ/mol
# Density = 1.759904 g / cm^3
# Si number density = 17.639186 Si / 1000 Ang^3
#
#
#
# Elastic Constant Matrix: (Units=GPa)
#
#
# Indices 1 2 3 4 5 6 
#
# 1 80.5253 48.6343 19.1590 0.0000 0.0000 0.0000
# 2 48.6343 80.5253 19.1590 0.0000 0.0000 0.0000
# 3 19.1590 19.1590 59.4899 0.0000 0.0000 0.0000
# 4 0.0000 0.0000 0.0000 20.3245 0.0000 0.0000
# 5 0.0000 0.0000 0.0000 0.0000 20.3245 0.0000
# 6 0.0000 0.0000 0.0000 0.0000 0.0000 26.4464
#
#
#
# Elastic Compliance Matrix: (Units=1/GPa)
#
#
# Indices 1 2 3 4 5 6 
#
# 1 0.019958 -0.011398 -0.002757 0.000000 0.000000 0.000000
# 2 -0.011398 0.019958 -0.002757 0.000000 0.000000 0.000000
# 3 -0.002757 -0.002757 0.018585 0.000000 0.000000 0.000000
# 4 0.000000 0.000000 0.000000 0.049202 0.000000 0.000000
# 5 0.000000 0.000000 0.000000 0.000000 0.049202 0.000000
# 6 0.000000 0.000000 0.000000 0.000000 0.000000 0.037812
#
#
# Mechanical properties :
#
#
# Convention : Reuss Voigt Hill
#
# Bulk Modulus (GPa) = 40.52140 43.82723 42.17431
# Shear Modulus (GPa) = 21.11769 22.32495 21.72132
#
# Velocity S-wave (km/s) = 3.46382 3.56145 3.51297
# Velocity P-wave (km/s) = 6.24657 6.46625 6.35736
#
# Compressibility (1/GPa) = 0.02467832
#
# Stress axis : x y z
#
# Youngs Moduli (GPa) = 50.10399 50.10399 53.80601
#
# Poissons Ratio (x) = 0.57110 0.14834
# Poissons Ratio (y) = 0.57110 0.14834
# Poissons Ratio (z) = 0.13813 0.13813
#
# Static dielectric constant tensor:
#      x y z
#    x 1.609800 0.000000 0.000000 
#    y 0.000000 1.609800 0.000000 
#    z 0.000000 0.000000 1.630000 
# 
# From -- ./inp_files/2824.got.cif
#   From: 2010.05.17/outbox.cif.g08.bks.cpg/sg90_2_cif.got.tgz:2824.got - 2010.06.03 19:17:45.
