data_PCOD9547781
_publ_section_title
;
Structure prediction by ZEFSAII (Michael W. Deem and Ramdas Pophale) SiO2 
 PCOD9547781
Probable space group: P 41 2 2
;
_chemical_formula_sum "Si O2"
_cell_formula_units_Z 64
_cell_length_a 14.080650
_cell_length_b 14.080650
_cell_length_c 17.812018
_cell_angle_alpha 90.000000
_cell_angle_beta 90.000000
_cell_angle_gamma 90.000000
_cell_volume 3531.494484
_symmetry_space_group_name_H-M "P 41 2 2"
_symmetry_group_IT_number 91
_symmetry_cell_setting 'tetragonal'
loop_
_space_group_symop_operation_xyz
x,y,z
-y,x,1/4+z
-x,-y,1/2+z
y,-x,3/4+z
x,-y,1/2-z
-x,y,-z
y,x,3/4-z
-y,-x,1/4-z
loop_
_atom_site_type_symbol
_atom_site_label
_atom_site_fract_x
_atom_site_fract_y
_atom_site_fract_z
Si Si1 0.695873 0.723648 0.103180
Si Si2 0.723793 0.971673 0.519213
Si Si3 0.192276 0.707801 0.187921
Si Si4 0.021368 0.466318 0.919558
Si Si5 0.500120 0.820162 0.089818
Si Si6 0.564724 0.821788 0.571824
Si Si7 0.752304 0.943309 0.344020
Si Si8 0.861000 0.174979 0.952278
O O1 0.583796 0.747614 0.112919
O O2 0.738542 0.624821 0.136288
O O3 0.751073 0.802019 0.152469
O O4 0.716257 0.745521 0.014652
O O5 0.638122 0.902421 0.542624
O O6 0.741852 0.949418 0.432597
O O7 0.815722 0.927714 0.559328
O O8 0.707072 0.081683 0.536549
O O9 0.213819 0.786182 0.125000
O O10 0.211749 0.607559 0.145538
O O11 0.925214 0.479745 0.871758
O O12 0.116539 0.504263 0.880736
O O13 0.039125 0.355318 0.930885
O O14 0.000000 0.512890 0.000000
O O15 0.500000 0.828231 0.000000
O O16 0.500000 0.791717 0.500000
O O17 0.791373 0.860564 0.289871
O O18 0.818815 0.031952 0.324365
#
# Coordination Sequence:
#
# PCOD9547781 Si02
#       8
#     8   8   8   8   8   8   8   8
#     4  10  21  39  61  88 128 156 195 266 322 376
#     4  11  21  37  56  82 124 157 204 260 305 368
#     4  11  23  39  62  91 122 167 215 255 310 375
#     4  12  20  31  57  91 121 152 204 269 301 361
#     4  10  19  38  62  86 114 161 209 255 314 364
#     4  11  23  36  60  93 127 159 198 259 341 372
#     4  11  18  35  57  80 114 155 213 244 292 371
#     4  10  20  33  55  84 112 159 199 252 309 352
#
# _framework density 18.122640000000001
#
# number of rings (size 3 to 8) (size 9 to 14) (size 15 to 20)
#    0.000    1.250    6.250    1.500    1.750    0.000 
#    0.000    4.375    0.000    2.250    0.000    0.000 
#    0.000    0.000    0.000    0.000    0.000    0.000 
#
# Total GULP energy -356309.718161 kJ/mol
# GULP energy per Si atom -5567.339346 kJ/mol
# Density = 1.808139 g / cm^3
# Si number density = 18.122640 Si / 1000 Ang^3
#
#
#
# Elastic Constant Matrix: (Units=GPa)
#
#
# Indices 1 2 3 4 5 6 
#
# 1 64.4887 65.4976 42.1053 0.0000 0.0000 0.0000
# 2 65.4976 64.4859 42.1056 0.0000 0.0000 0.0000
# 3 42.1053 42.1056 73.9896 0.0000 0.0000 0.0000
# 4 0.0000 0.0000 0.0000 25.2733 0.0000 0.0000
# 5 0.0000 0.0000 0.0000 0.0000 25.2734 0.0000
# 6 0.0000 0.0000 0.0000 0.0000 0.0000 19.1459
#
#
#
# Elastic Compliance Matrix: (Units=1/GPa)
#
#
# Indices 1 2 3 4 5 6 
#
# 1 -0.488778 0.500983 -0.006947 0.000000 0.000000 0.000000
# 2 0.500983 -0.488816 -0.006922 0.000000 0.000000 0.000000
# 3 -0.006947 -0.006922 0.021408 0.000000 0.000000 0.000000
# 4 0.000000 0.000000 0.000000 0.039568 0.000000 0.000000
# 5 0.000000 0.000000 0.000000 0.000000 0.039567 0.000000
# 6 0.000000 0.000000 0.000000 0.000000 0.000000 0.052230
#
#
# Mechanical properties :
#
#
# Convention : Reuss Voigt Hill
#
# Bulk Modulus (GPa) = 55.42875 55.82013 55.62444
# Shear Modulus (GPa) = -2.78857 17.48890 7.35017
#
# Velocity S-wave (km/s) = -1.24180 3.10986 2.01608
# Velocity P-wave (km/s) = 5.34749 6.61538 6.01493
#
# Compressibility (1/GPa) = 0.01804118
#
# Stress axis : x y z
#
# Youngs Moduli (GPa) = -2.04592 -2.04576 46.71157
#
# Poissons Ratio (x) = 1.02489 0.32452
# Poissons Ratio (y) = 1.02497 0.32333
# Poissons Ratio (z) = -0.01421 -0.01416
#
# Static dielectric constant tensor:
#      x y z
#    x 1.670320 0.000000 0.000000 
#    y 0.000000 1.670320 0.000000 
#    z 0.000000 0.000000 1.699850 
# 
# From -- ./inp_files/21237.got.cif
#   From: 2010.05.17/outbox.cif.g08.bks.cpg/sg91_11_cif.got.tgz:21237.got - 2010.06.03 19:20:03.
