data_PCOD9547623
_publ_section_title
;
Structure prediction by ZEFSAII (Michael W. Deem and Ramdas Pophale) SiO2 
 PCOD9547623
Probable space group: P 41 2 2
;
_chemical_formula_sum "Si O2"
_cell_formula_units_Z 44
_cell_length_a 8.616133
_cell_length_b 8.616133
_cell_length_c 23.788514
_cell_angle_alpha 90.000000
_cell_angle_beta 90.000000
_cell_angle_gamma 90.000000
_cell_volume 1766.005705
_symmetry_space_group_name_H-M "P 41 2 2"
_symmetry_group_IT_number 91
_symmetry_cell_setting 'tetragonal'
loop_
_space_group_symop_operation_xyz
x,y,z
-y,x,1/4+z
-x,-y,1/2+z
y,-x,3/4+z
x,-y,1/2-z
-x,y,-z
y,x,3/4-z
-y,-x,1/4-z
loop_
_atom_site_type_symbol
_atom_site_label
_atom_site_fract_x
_atom_site_fract_y
_atom_site_fract_z
Si Si1 0.210172 0.500000 0.250000
Si Si2 0.774181 0.099634 0.826731
Si Si3 0.487860 0.262825 0.860941
Si Si4 0.294504 0.953228 0.555206
Si Si5 0.791992 0.645854 0.953736
Si Si6 0.819078 0.674921 0.506068
O O1 0.306981 0.612790 0.209124
O O2 0.095179 0.598898 0.288021
O O3 0.664468 0.207467 0.865453
O O4 0.711220 0.146539 0.764453
O O5 0.955913 0.141539 0.827335
O O6 0.725842 0.920681 0.835957
O O7 0.438047 0.438047 0.875000
O O8 0.382385 0.150469 0.899336
O O9 0.423187 0.236343 0.798324
O O10 0.264146 0.840056 0.501801
O O11 0.803879 0.459717 0.947564
O O12 0.000000 0.709145 0.500000
#
# Coordination Sequence:
#
# PCOD9547623 Si02
#       6
#     4   8   8   8   8   8
#     4  10  22  36  50  84 128 148 182 232 314 350
#     4   9  17  36  58  77 112 154 188 229 292 347
#     4   9  18  37  56  82 113 149 198 239 281 356
#     4  10  22  35  55  88 120 145 188 257 291 335
#     4   9  17  35  59  78 106 154 192 225 273 362
#     4  10  18  35  64  84 102 147 211 241 272 337
#
# _framework density 24.914984
#
# number of rings (size 3 to 8) (size 9 to 14) (size 15 to 20)
#    0.000    2.545    3.636    0.000    5.091    0.727 
#    3.273   10.000    0.000    0.000    0.000    0.000 
#    0.000    0.000    0.000    0.000    0.000    0.000 
#
# Total GULP energy -245335.223166 kJ/mol
# GULP energy per Si atom -5575.800526 kJ/mol
# Density = 2.485828 g / cm^3
# Si number density = 24.914984 Si / 1000 Ang^3
#
#
#
# Elastic Constant Matrix: (Units=GPa)
#
#
# Indices 1 2 3 4 5 6 
#
# 1 106.1751 88.3276 13.3508 0.0000 0.0000 0.0000
# 2 88.3276 106.1751 13.3508 0.0000 0.0000 0.0000
# 3 13.3508 13.3508 23.4535 0.0000 0.0000 0.0000
# 4 0.0000 0.0000 0.0000 27.1196 0.0000 0.0000
# 5 0.0000 0.0000 0.0000 0.0000 27.1196 0.0000
# 6 0.0000 0.0000 0.0000 0.0000 0.0000 0.8679
#
#
#
# Elastic Compliance Matrix: (Units=1/GPa)
#
#
# Indices 1 2 3 4 5 6 
#
# 1 0.030804 -0.025227 -0.003175 0.000000 0.000000 0.000000
# 2 -0.025227 0.030804 -0.003175 0.000000 0.000000 0.000000
# 3 -0.003175 -0.003175 0.046252 0.000000 0.000000 0.000000
# 4 0.000000 0.000000 0.000000 0.036874 0.000000 0.000000
# 5 0.000000 0.000000 0.000000 0.000000 0.036874 0.000000
# 6 0.000000 0.000000 0.000000 0.000000 0.000000 1.152141
#
#
# Mechanical properties :
#
#
# Convention : Reuss Voigt Hill
#
# Bulk Modulus (GPa) = 22.36775 51.76247 37.06511
# Shear Modulus (GPa) = 3.54157 19.07309 11.30733
#
# Velocity S-wave (km/s) = 1.19354 2.76982 2.13266
# Velocity P-wave (km/s) = 3.30099 5.57225 4.57965
#
# Compressibility (1/GPa) = 0.04470722
#
# Stress axis : x y z
#
# Youngs Moduli (GPa) = 32.46362 32.46362 21.62070
#
# Poissons Ratio (x) = 0.81895 0.06864
# Poissons Ratio (y) = 0.81895 0.06864
# Poissons Ratio (z) = 0.10306 0.10306
#
# Static dielectric constant tensor:
#      x y z
#    x 2.063240 0.000000 0.000000 
#    y 0.000000 2.063240 0.000000 
#    z 0.000000 0.000000 2.109670 
# 
# From -- ./inp_files/13521.got.cif
#   From: 2010.05.17/outbox.cif.g08.bks.cpg/sg91_7_cif.got.tgz:13521.got - 2010.06.03 19:20:03.
