data_PCOD9547072
_publ_section_title
;
Structure prediction by ZEFSAII (Michael W. Deem and Ramdas Pophale) SiO2 
 PCOD9547072
Probable space group: P 4 21 2
;
_chemical_formula_sum "Si O2"
_cell_formula_units_Z 52
_cell_length_a 18.036620
_cell_length_b 18.036620
_cell_length_c 8.891441
_cell_angle_alpha 90.000000
_cell_angle_beta 90.000000
_cell_angle_gamma 90.000000
_cell_volume 2892.560572
_symmetry_space_group_name_H-M "P 4 21 2"
_symmetry_group_IT_number 90
_symmetry_cell_setting 'tetragonal'
loop_
_space_group_symop_operation_xyz
x,y,z
1/2-y,1/2+x,z
-x,-y,z
1/2+y,1/2-x,z
1/2+x,1/2-y,-z
1/2-x,1/2+y,-z
y,x,-z
-y,-x,-z
loop_
_atom_site_type_symbol
_atom_site_label
_atom_site_fract_x
_atom_site_fract_y
_atom_site_fract_z
Si Si1 0.137170 0.977114 0.053830
Si Si2 0.228950 0.222489 0.742349
Si Si3 0.113006 0.781651 0.175104
Si Si4 0.284657 0.958132 0.541879
Si Si5 0.132063 0.932502 0.366594
Si Si6 0.641946 0.358055 0.000000
Si Si7 0.687341 0.869081 0.484447
O O1 0.132405 0.991588 0.232653
O O2 0.061071 0.938930 0.000000
O O3 0.200082 0.921707 0.987335
O O4 0.152345 0.054798 0.977944
O O5 0.303627 0.250950 0.824727
O O6 0.175351 0.182313 0.856932
O O7 0.263630 0.167339 0.617916
O O8 0.177864 0.283552 0.659197
O O9 0.058213 0.733639 0.281747
O O10 0.120534 0.858749 0.267099
O O11 0.210976 0.933794 0.449404
O O12 0.348337 0.898893 0.503739
O O13 0.301016 0.042633 0.495764
O O14 0.071531 0.928469 0.500000
#
# Coordination Sequence:
#
# PCOD9547072 Si02
#       7
#     8   8   8   8   8   4   8
#     4  10  21  35  54  76 111 146 181 217 279 333
#     4  10  21  35  54  81 107 140 188 231 273 315
#     4   9  18  34  55  76 100 146 185 224 261 335
#     4  10  18  32  53  77 111 139 181 225 280 320
#     4   9  17  32  55  78  98 140 187 220 261 325
#     4  12  23  34  52  84 116 139 176 238 280 322
#     4  10  20  35  54  79 110 142 181 233 275 330
#
# _framework density 17.977150999999999
#
# number of rings (size 3 to 8) (size 9 to 14) (size 15 to 20)
#    0.000    2.154    1.538    2.077    3.231    0.308 
#    0.000    0.000    0.000    7.385    0.000    0.000 
#    0.000    7.385    0.000    0.000    0.000    0.000 
#
# Total GULP energy -289508.943679 kJ/mol
# GULP energy per Si atom -5567.479686 kJ/mol
# Density = 1.793623 g / cm^3
# Si number density = 17.977151 Si / 1000 Ang^3
#
#
#
# Elastic Constant Matrix: (Units=GPa)
#
#
# Indices 1 2 3 4 5 6 
#
# 1 92.1282 31.6804 24.2762 0.0000 0.0000 0.0000
# 2 31.6804 92.1288 24.2761 0.0000 0.0000 0.0000
# 3 24.2762 24.2761 92.2047 0.0000 0.0000 0.0000
# 4 0.0000 0.0000 0.0000 8.8943 0.0000 0.0000
# 5 0.0000 0.0000 0.0000 0.0000 8.8950 0.0000
# 6 0.0000 0.0000 0.0000 0.0000 0.0000 18.4640
#
#
#
# Elastic Compliance Matrix: (Units=1/GPa)
#
#
# Indices 1 2 3 4 5 6 
#
# 1 0.012775 -0.003768 -0.002371 0.000000 0.000000 0.000000
# 2 -0.003768 0.012775 -0.002371 0.000000 0.000000 0.000000
# 3 -0.002371 -0.002371 0.012094 0.000000 0.000000 0.000000
# 4 0.000000 0.000000 0.000000 0.112431 0.000000 0.000000
# 5 0.000000 0.000000 0.000000 0.000000 0.112423 0.000000
# 6 0.000000 0.000000 0.000000 0.000000 0.000000 0.054159
#
#
# Mechanical properties :
#
#
# Convention : Reuss Voigt Hill
#
# Bulk Modulus (GPa) = 48.49093 48.54746 48.51919
# Shear Modulus (GPa) = 14.68198 20.33259 17.50729
#
# Velocity S-wave (km/s) = 2.86090 3.36672 3.12406
# Velocity P-wave (km/s) = 6.15997 6.49436 6.32938
#
# Compressibility (1/GPa) = 0.02062241
#
# Stress axis : x y z
#
# Youngs Moduli (GPa) = 78.27751 78.27809 82.68464
#
# Poissons Ratio (x) = 0.29496 0.19608
# Poissons Ratio (y) = 0.29496 0.19608
# Poissons Ratio (z) = 0.18563 0.18563
#
# Static dielectric constant tensor:
#      x y z
#    x 1.626570 0.000000 0.000000 
#    y 0.000000 1.626570 0.000000 
#    z 0.000000 0.000000 1.680800 
# 
# From -- ./inp_files/1573.got.cif
#   From: 2010.05.17/outbox.cif.g08.bks.cpg/sg90_1_cif.got.tgz:1573.got - 2010.06.03 19:17:45.
