data_PCOD9547582
_publ_section_title
;
Structure prediction by ZEFSAII (Michael W. Deem and Ramdas Pophale) SiO2 
 PCOD9547582
Probable space group: P 41 2 2
;
_chemical_formula_sum "Si O2"
_cell_formula_units_Z 56
_cell_length_a 13.108290
_cell_length_b 13.108290
_cell_length_c 18.064590
_cell_angle_alpha 90.000000
_cell_angle_beta 90.000000
_cell_angle_gamma 90.000000
_cell_volume 3103.989124
_symmetry_space_group_name_H-M "P 41 2 2"
_symmetry_group_IT_number 91
_symmetry_cell_setting 'tetragonal'
loop_
_space_group_symop_operation_xyz
x,y,z
-y,x,1/4+z
-x,-y,1/2+z
y,-x,3/4+z
x,-y,1/2-z
-x,y,-z
y,x,3/4-z
-y,-x,1/4-z
loop_
_atom_site_type_symbol
_atom_site_label
_atom_site_fract_x
_atom_site_fract_y
_atom_site_fract_z
Si Si1 0.269558 0.944343 0.920814
Si Si2 0.502501 0.191824 0.911360
Si Si3 0.078350 0.309538 0.682339
Si Si4 0.685794 0.232496 0.319756
Si Si5 0.117872 0.034924 0.167067
Si Si6 0.556757 0.584785 0.579202
Si Si7 0.293157 0.138516 0.837779
O O1 0.318973 0.837698 0.893402
O O2 0.149803 0.922178 0.926664
O O3 0.278598 0.020235 0.851768
O O4 0.308502 0.007587 0.993430
O O5 0.579399 0.097654 0.896065
O O6 0.529732 0.305441 0.883231
O O7 0.390623 0.171145 0.884312
O O8 0.500000 0.197820 0.000000
O O9 0.198860 0.278661 0.690462
O O10 0.034031 0.221996 0.629826
O O11 0.601036 0.321814 0.319636
O O12 0.680898 0.166873 0.245553
O O13 0.137077 0.000000 0.250000
O O14 0.034955 0.965046 0.125000
O O15 0.500000 0.581349 0.500000
O O16 0.509327 0.490674 0.625000
O O17 0.198186 0.198186 0.875000
#
# Coordination Sequence:
#
# PCOD9547582 Si02
#       7
#     8   8   8   8   8   8   8
#     4  11  21  34  55  84 129 159 189 248 312 377
#     4  10  18  32  56  84 112 146 195 248 310 376
#     4  10  20  37  54  82 120 159 199 250 308 365
#     4  10  22  34  53  91 122 151 196 248 319 371
#     4  11  22  35  56  86 118 162 215 250 291 359
#     4  10  19  35  60  89 114 148 195 256 308 354
#     4  12  19  33  56  89 124 152 190 246 318 375
#
# _framework density 18.041298999999999
#
# number of rings (size 3 to 8) (size 9 to 14) (size 15 to 20)
#    0.000    1.429    4.286    3.857    0.000    0.000 
#    0.000    1.429    3.143    0.000    0.000    0.000 
#    0.000    0.000    0.000    0.000    0.000    0.000 
#
# Total GULP energy -311773.702281 kJ/mol
# GULP energy per Si atom -5567.387541 kJ/mol
# Density = 1.800024 g / cm^3
# Si number density = 18.041299 Si / 1000 Ang^3
#
#
#
# Elastic Constant Matrix: (Units=GPa)
#
#
# Indices 1 2 3 4 5 6 
#
# 1 29.2381 -15.6338 -1.8811 0.0000 0.0000 0.0000
# 2 -15.6338 29.2380 -1.8806 0.0000 0.0000 0.0000
# 3 -1.8811 -1.8806 59.5383 0.0000 0.0000 0.0000
# 4 0.0000 0.0000 0.0000 15.8142 0.0000 0.0000
# 5 0.0000 0.0000 0.0000 0.0000 15.8145 0.0000
# 6 0.0000 0.0000 0.0000 0.0000 0.0000 33.1512
#
#
#
# Elastic Compliance Matrix: (Units=1/GPa)
#
#
# Indices 1 2 3 4 5 6 
#
# 1 0.048220 0.025934 0.002343 0.000000 0.000000 0.000000
# 2 0.025934 0.048220 0.002342 0.000000 0.000000 0.000000
# 3 0.002343 0.002342 0.016944 0.000000 0.000000 0.000000
# 4 0.000000 0.000000 0.000000 0.063234 0.000000 0.000000
# 5 0.000000 0.000000 0.000000 0.000000 0.063233 0.000000
# 6 0.000000 0.000000 0.000000 0.000000 0.000000 0.030165
#
#
# Mechanical properties :
#
#
# Convention : Reuss Voigt Hill
#
# Bulk Modulus (GPa) = 5.72665 8.80262 7.26464
# Shear Modulus (GPa) = 18.72765 22.11664 20.42215
#
# Velocity S-wave (km/s) = 3.22536 3.50507 3.36812
# Velocity P-wave (km/s) = 4.12937 4.61199 4.37734
#
# Compressibility (1/GPa) = 0.17462214
#
# Stress axis : x y z
#
# Youngs Moduli (GPa) = 20.73837 20.73832 59.01829
#
# Poissons Ratio (x) = -0.53783 -0.13826
# Poissons Ratio (y) = -0.53783 -0.13825
# Poissons Ratio (z) = -0.04858 -0.04858
#
# Static dielectric constant tensor:
#      x y z
#    x 1.712030 0.000000 0.000000 
#    y 0.000000 1.712040 0.000000 
#    z 0.000000 0.000000 1.646730 
# 
# From -- ./inp_files/6387.got.cif
#   From: 2010.05.17/outbox.cif.g08.bks.cpg/sg91_4_cif.got.tgz:6387.got - 2010.06.03 19:20:03.
