data_PCOD9547758
_publ_section_title
;
Structure prediction by ZEFSAII (Michael W. Deem and Ramdas Pophale) SiO2 
 PCOD9547758
Probable space group: P 41 2 2
;
_chemical_formula_sum "Si O2"
_cell_formula_units_Z 36
_cell_length_a 14.189891
_cell_length_b 14.189891
_cell_length_c 7.784898
_cell_angle_alpha 90.000000
_cell_angle_beta 90.000000
_cell_angle_gamma 90.000000
_cell_volume 1567.512618
_symmetry_space_group_name_H-M "P 41 2 2"
_symmetry_group_IT_number 91
_symmetry_cell_setting 'tetragonal'
loop_
_space_group_symop_operation_xyz
x,y,z
-y,x,1/4+z
-x,-y,1/2+z
y,-x,3/4+z
x,-y,1/2-z
-x,y,-z
y,x,3/4-z
-y,-x,1/4-z
loop_
_atom_site_type_symbol
_atom_site_label
_atom_site_fract_x
_atom_site_fract_y
_atom_site_fract_z
Si Si1 0.708860 0.556592 0.921323
Si Si2 0.910770 0.910770 0.375000
Si Si3 0.776820 0.628099 0.441240
Si Si4 0.293735 0.044580 0.941970
Si Si5 0.155874 0.704541 0.181892
O O1 0.733150 0.500000 0.750000
O O2 0.611564 0.611564 0.875000
O O3 0.786948 0.636547 0.946215
O O4 0.723797 0.472461 0.054287
O O5 0.810822 0.914372 0.472921
O O6 0.000000 0.915050 0.500000
O O7 0.702047 0.702047 0.375000
O O8 0.871017 0.632293 0.325953
O O9 0.808356 0.670374 0.628899
O O10 0.289913 0.000000 0.750000
O O11 0.309443 0.955619 0.064397
O O12 0.192142 0.807859 0.125000
#
# Coordination Sequence:
#
# PCOD9547758 Si02
#       5
#     8   4   8   8   8
#     4   9  19  36  60  86 116 155 203 255 320 375
#     4  10  20  32  50  90 124 162 206 244 292 364
#     4  10  19  36  62  91 121 158 201 260 314 372
#     4   9  18  34  57  87 125 162 203 249 308 363
#     4   9  19  37  60  88 123 163 203 255 311 373
#
# _framework density 22.966321000000001
#
# number of rings (size 3 to 8) (size 9 to 14) (size 15 to 20)
#    0.000    2.667    1.111    0.000    1.556    0.889 
#    0.000   10.000    0.000   66.667    0.000    0.000 
#    0.000    0.000    0.000    0.000    0.000    0.000 
#
# Total GULP energy -200695.236607 kJ/mol
# GULP energy per Si atom -5574.867684 kJ/mol
# Density = 2.291405 g / cm^3
# Si number density = 22.966321 Si / 1000 Ang^3
#
#
#
# Elastic Constant Matrix: (Units=GPa)
#
#
# Indices 1 2 3 4 5 6 
#
# 1 142.4404 65.2972 19.8360 0.0000 0.0000 0.0000
# 2 65.2972 142.4382 19.8364 0.0000 0.0000 0.0000
# 3 19.8360 19.8364 65.7039 0.0000 0.0000 0.0000
# 4 0.0000 0.0000 0.0000 23.4888 0.0000 0.0000
# 5 0.0000 0.0000 0.0000 0.0000 23.4892 0.0000
# 6 0.0000 0.0000 0.0000 0.0000 0.0000 33.9036
#
#
#
# Elastic Compliance Matrix: (Units=1/GPa)
#
#
# Indices 1 2 3 4 5 6 
#
# 1 0.009036 -0.003927 -0.001542 0.000000 0.000000 0.000000
# 2 -0.003927 0.009036 -0.001542 0.000000 0.000000 0.000000
# 3 -0.001542 -0.001542 0.016151 0.000000 0.000000 0.000000
# 4 0.000000 0.000000 0.000000 0.042574 0.000000 0.000000
# 5 0.000000 0.000000 0.000000 0.000000 0.042573 0.000000
# 6 0.000000 0.000000 0.000000 0.000000 0.000000 0.029495
#
#
# Mechanical properties :
#
#
# Convention : Reuss Voigt Hill
#
# Bulk Modulus (GPa) = 49.50796 62.28018 55.89407
# Shear Modulus (GPa) = 29.47755 32.55052 31.01403
#
# Velocity S-wave (km/s) = 3.58650 3.76881 3.67878
# Velocity P-wave (km/s) = 6.22529 6.79084 6.51420
#
# Compressibility (1/GPa) = 0.02019877
#
# Stress axis : x y z
#
# Youngs Moduli (GPa) = 110.67305 110.67112 61.91570
#
# Poissons Ratio (x) = 0.43465 0.09548
# Poissons Ratio (y) = 0.43466 0.09549
# Poissons Ratio (z) = 0.17067 0.17069
#
# Static dielectric constant tensor:
#      x y z
#    x 1.912260 0.000000 0.000000 
#    y 0.000000 1.912260 0.000000 
#    z 0.000000 0.000000 1.982080 
# 
# From -- ./inp_files/19316.got.cif
#   From: 2010.05.17/outbox.cif.g08.bks.cpg/sg91_10_cif.got.tgz:19316.got - 2010.06.03 19:20:03.
