data_PCOD9547441
_publ_section_title
;
Structure prediction by ZEFSAII (Michael W. Deem and Ramdas Pophale) SiO2 
 PCOD9547441
Probable space group: P 4 21 2
;
_chemical_formula_sum "Si O2"
_cell_formula_units_Z 40
_cell_length_a 14.032075
_cell_length_b 14.032075
_cell_length_c 9.190784
_cell_angle_alpha 90.000000
_cell_angle_beta 90.000000
_cell_angle_gamma 90.000000
_cell_volume 1809.657363
_symmetry_space_group_name_H-M "P 4 21 2"
_symmetry_group_IT_number 90
_symmetry_cell_setting 'tetragonal'
loop_
_space_group_symop_operation_xyz
x,y,z
1/2-y,1/2+x,z
-x,-y,z
1/2+y,1/2-x,z
1/2+x,1/2-y,-z
1/2-x,1/2+y,-z
y,x,-z
-y,-x,-z
loop_
_atom_site_type_symbol
_atom_site_label
_atom_site_fract_x
_atom_site_fract_y
_atom_site_fract_z
Si Si1 0.000000 0.000000 0.000000
Si Si2 0.000000 0.500000 0.380334
Si Si3 0.062756 0.643683 0.007829
Si Si4 0.665354 0.570810 0.183388
Si Si5 0.226000 0.534683 0.428779
Si Si6 0.760551 0.579775 0.707753
Si Si7 0.762658 0.762658 0.500000
O O1 0.095868 0.999361 0.903600
O O2 0.116835 0.515752 0.387974
O O3 0.120675 0.547843 0.044999
O O4 0.071756 0.662160 0.835167
O O5 0.093580 0.738913 0.091933
O O6 0.704178 0.530740 0.334749
O O7 0.598598 0.661096 0.212798
O O8 0.237226 0.509394 0.599368
O O9 0.256509 0.642945 0.403485
O O10 0.769809 0.670479 0.601896
#
# Coordination Sequence:
#
# PCOD9547441 Si02
#       7
#     2   2   8   8   8   8   4
#     4  12  28  52  74  96 152 208 244 302 360 428
#     4  12  24  48  76 110 152 188 240 318 384 444
#     4  11  27  45  74 108 149 194 243 305 371 435
#     4  12  27  50  71 106 149 197 250 299 361 447
#     4  12  27  44  79 108 148 192 249 313 377 442
#     4  12  23  50  69 108 147 189 245 310 365 440
#     4  12  26  44  75 113 144 194 240 308 382 432
#
# _framework density 22.103632999999999
#
# number of rings (size 3 to 8) (size 9 to 14) (size 15 to 20)
#    0.000    0.200    6.000    1.200    8.400    1.600 
#    0.000    0.000    0.000    0.000    0.000    0.000 
#    0.000    0.000    0.000    0.000    0.000    0.000 
#
# Total GULP energy -223337.693639 kJ/mol
# GULP energy per Si atom -5583.442341 kJ/mol
# Density = 2.205332 g / cm^3
# Si number density = 22.103633 Si / 1000 Ang^3
#
#
#
# Elastic Constant Matrix: (Units=GPa)
#
#
# Indices 1 2 3 4 5 6 
#
# 1 93.0496 24.4320 8.7620 0.0000 0.0000 0.0000
# 2 24.4320 93.0496 8.7620 0.0000 0.0000 0.0000
# 3 8.7620 8.7620 89.6029 0.0000 0.0000 0.0000
# 4 0.0000 0.0000 0.0000 -206.6608 0.0000 0.0000
# 5 0.0000 0.0000 0.0000 0.0000 -206.6608 0.0000
# 6 0.0000 0.0000 0.0000 0.0000 0.0000 35.7584
#
#
#
# Elastic Compliance Matrix: (Units=1/GPa)
#
#
# Indices 1 2 3 4 5 6 
#
# 1 0.011606 -0.002968 -0.000845 0.000000 0.000000 0.000000
# 2 -0.002968 0.011606 -0.000845 0.000000 0.000000 0.000000
# 3 -0.000845 -0.000845 0.011326 0.000000 0.000000 0.000000
# 4 0.000000 0.000000 0.000000 -0.004839 0.000000 0.000000
# 5 0.000000 0.000000 0.000000 0.000000 -0.004839 0.000000
# 6 0.000000 0.000000 0.000000 0.000000 0.000000 0.027965
#
#
# Mechanical properties :
#
#
# Convention : Reuss Voigt Hill
#
# Bulk Modulus (GPa) = 39.64670 39.95710 39.80190
# Shear Modulus (GPa) = 70.87502 -59.92958 5.47272
#
# Velocity S-wave (km/s) = 5.66873 -5.21266 1.57522
# Velocity P-wave (km/s) = 7.79882 4.25591 4.62109
#
# Compressibility (1/GPa) = 0.02522278
#
# Stress axis : x y z
#
# Youngs Moduli (GPa) = 86.16419 86.16419 88.29589
#
# Poissons Ratio (x) = 0.25572 0.07458
# Poissons Ratio (y) = 0.25572 0.07458
# Poissons Ratio (z) = 0.07278 0.07278
#
# Static dielectric constant tensor:
#      x y z
#    x 1.800650 0.000000 0.000000 
#    y 0.000000 1.800650 0.000000 
#    z 0.000000 0.000000 1.900550 
# 
# From -- ./inp_files/1387.got.cif
#   From: 2010.05.17/outbox.cif.g08.bks.cpg/sg90_1_cif.got.tgz:1387.got - 2010.06.03 19:17:45.
