data_PCOD9547732
_publ_section_title
;
Structure prediction by ZEFSAII (Michael W. Deem and Ramdas Pophale) SiO2 
 PCOD9547732
Probable space group: P 41 2 2
;
_chemical_formula_sum "Si O2"
_cell_formula_units_Z 64
_cell_length_a 19.161106
_cell_length_b 19.161106
_cell_length_c 11.114074
_cell_angle_alpha 90.000000
_cell_angle_beta 90.000000
_cell_angle_gamma 90.000000
_cell_volume 4080.509854
_symmetry_space_group_name_H-M "P 41 2 2"
_symmetry_group_IT_number 91
_symmetry_cell_setting 'tetragonal'
loop_
_space_group_symop_operation_xyz
x,y,z
-y,x,1/4+z
-x,-y,1/2+z
y,-x,3/4+z
x,-y,1/2-z
-x,y,-z
y,x,3/4-z
-y,-x,1/4-z
loop_
_atom_site_type_symbol
_atom_site_label
_atom_site_fract_x
_atom_site_fract_y
_atom_site_fract_z
Si Si1 0.096956 0.422587 0.244967
Si Si2 0.018071 0.178966 0.167055
Si Si3 0.053956 0.110355 0.602745
Si Si4 0.062565 0.422530 0.753231
Si Si5 0.231493 0.838609 0.343630
Si Si6 0.351161 0.074702 0.250546
Si Si7 0.275514 0.113122 0.892656
Si Si8 0.284272 0.855030 0.879376
O O1 0.127937 0.500000 0.250000
O O2 0.088482 0.392334 0.378633
O O3 0.136098 0.363486 0.169722
O O4 0.016921 0.429551 0.199019
O O5 0.051580 0.109843 0.105480
O O6 0.077299 0.239104 0.172528
O O7 0.991364 0.146444 0.292958
O O8 0.951567 0.222223 0.119154
O O9 0.107363 0.170267 0.557230
O O10 0.000000 0.086138 0.500000
O O11 0.095028 0.500000 0.750000
O O12 0.064947 0.400633 0.613748
O O13 0.092370 0.355149 0.822995
O O14 0.299140 0.863033 0.274363
O O15 0.245597 0.850256 0.487021
O O16 0.208680 0.760161 0.318827
O O17 0.310984 0.000000 0.250000
O O18 0.278986 0.150453 0.764868
#
# Coordination Sequence:
#
# PCOD9547732 Si02
#       8
#     8   8   8   8   8   8   8   8
#     4  10  21  32  47  73  96 120 156 197 247 292
#     4  10  21  35  47  67  83 120 154 207 260 296
#     4  10  20  34  50  63  87 112 160 205 258 307
#     4   9  18  31  51  71  90 124 155 196 251 290
#     4   9  20  33  51  69  88 126 158 200 240 287
#     4   9  18  33  49  68  99 121 158 204 242 281
#     4  10  19  35  51  67  95 117 162 204 245 290
#     4  11  21  33  50  70  93 125 159 195 245 293
#
# _framework density 15.684314000000001
#
# number of rings (size 3 to 8) (size 9 to 14) (size 15 to 20)
#    0.000    2.250    1.250    1.500    5.250    0.500 
#    0.000   11.875    0.000    0.000    0.000    0.000 
#    0.000    0.000    0.000    0.000    0.000   20.000 
#
# Total GULP energy -356493.852963 kJ/mol
# GULP energy per Si atom -5570.216453 kJ/mol
# Density = 1.564862 g / cm^3
# Si number density = 15.684314 Si / 1000 Ang^3
#
#
#
# Elastic Constant Matrix: (Units=GPa)
#
#
# Indices 1 2 3 4 5 6 
#
# 1 67.5697 38.6570 17.6250 0.0000 0.0000 0.0000
# 2 38.6570 67.5697 17.6250 0.0000 0.0000 0.0000
# 3 17.6250 17.6250 29.1882 0.0000 0.0000 0.0000
# 4 0.0000 0.0000 0.0000 3.1426 0.0000 0.0000
# 5 0.0000 0.0000 0.0000 0.0000 3.1426 0.0000
# 6 0.0000 0.0000 0.0000 0.0000 0.0000 12.9122
#
#
#
# Elastic Compliance Matrix: (Units=1/GPa)
#
#
# Indices 1 2 3 4 5 6 
#
# 1 0.023180 -0.011407 -0.007109 0.000000 0.000000 0.000000
# 2 -0.011407 0.023180 -0.007109 0.000000 0.000000 0.000000
# 3 -0.007109 -0.007109 0.042846 0.000000 0.000000 0.000000
# 4 0.000000 0.000000 0.000000 0.318212 0.000000 0.000000
# 5 0.000000 0.000000 0.000000 0.000000 0.318212 0.000000
# 6 0.000000 0.000000 0.000000 0.000000 0.000000 0.077446
#
#
# Mechanical properties :
#
#
# Convention : Reuss Voigt Hill
#
# Bulk Modulus (GPa) = 26.34645 34.68239 30.51442
# Shear Modulus (GPa) = 5.76716 9.86750 7.81733
#
# Velocity S-wave (km/s) = 1.91964 2.51097 2.23495
# Velocity P-wave (km/s) = 4.66345 5.52878 5.11445
#
# Compressibility (1/GPa) = 0.03795578
#
# Stress axis : x y z
#
# Youngs Moduli (GPa) = 43.14099 43.14099 23.33955
#
# Poissons Ratio (x) = 0.49211 0.16592
# Poissons Ratio (y) = 0.49211 0.16592
# Poissons Ratio (z) = 0.30669 0.30669
#
# Static dielectric constant tensor:
#      x y z
#    x 1.529410 0.000000 0.000000 
#    y 0.000000 1.529410 0.000000 
#    z 0.000000 0.000000 1.572530 
# 
# From -- ./inp_files/16075.got.cif
#   From: 2010.05.17/outbox.cif.g08.bks.cpg/sg91_9_cif.got.tgz:16075.got - 2010.06.03 19:20:03.
