data_PCOD9547319
_publ_section_title
;
Structure prediction by ZEFSAII (Michael W. Deem and Ramdas Pophale) SiO2 
 PCOD9547319
Probable space group: P 4 21 2
;
_chemical_formula_sum "Si O2"
_cell_formula_units_Z 34
_cell_length_a 8.350742
_cell_length_b 8.350742
_cell_length_c 23.989183
_cell_angle_alpha 90.000000
_cell_angle_beta 90.000000
_cell_angle_gamma 90.000000
_cell_volume 1672.883084
_symmetry_space_group_name_H-M "P 4 21 2"
_symmetry_group_IT_number 90
_symmetry_cell_setting 'tetragonal'
loop_
_space_group_symop_operation_xyz
x,y,z
1/2-y,1/2+x,z
-x,-y,z
1/2+y,1/2-x,z
1/2+x,1/2-y,-z
1/2-x,1/2+y,-z
y,x,-z
-y,-x,-z
loop_
_atom_site_type_symbol
_atom_site_label
_atom_site_fract_x
_atom_site_fract_y
_atom_site_fract_z
Si Si1 0.585551 0.742946 0.052575
Si Si2 0.000000 0.000000 0.500000
Si Si3 0.451867 0.264080 0.601593
Si Si4 0.761400 0.074020 0.721150
Si Si5 0.241538 0.912970 0.842984
O O1 0.403626 0.804735 0.050977
O O2 0.626724 0.645114 0.108272
O O3 0.636076 0.636076 0.000000
O O4 0.136490 0.959624 0.545525
O O5 0.623500 0.177950 0.601409
O O6 0.413311 0.347218 0.661377
O O7 0.605260 0.188638 0.721319
O O8 0.836649 0.105566 0.781467
O O9 0.404344 0.805484 0.847454
#
# Coordination Sequence:
#
# PCOD9547319 Si02
#       5
#     8   2   8   8   8
#     4  11  24  39  54  76 107 140 174 215 264 319
#     4  12  20  28  48  80 104 132 178 220 256 308
#     4   9  18  33  50  70 102 139 173 215 263 309
#     4   7  12  27  50  72  96 129 167 207 252 303
#     4   9  17  32  56  82 103 128 169 217 262 312
#
# _framework density 20.324193999999999
#
# number of rings (size 3 to 8) (size 9 to 14) (size 15 to 20)
#    0.000    2.824    0.000    4.941    0.000    5.176 
#    0.000    7.059    0.000    0.000    0.000    3.294 
#    0.000    0.000    0.000    0.000    0.000    0.000 
#
# Total GULP energy -189314.508421 kJ/mol
# GULP energy per Si atom -5568.073777 kJ/mol
# Density = 2.027794 g / cm^3
# Si number density = 20.324194 Si / 1000 Ang^3
#
#
#
# Elastic Constant Matrix: (Units=GPa)
#
#
# Indices 1 2 3 4 5 6 
#
# 1 44.5073 12.9046 56.8831 0.0000 0.0000 0.0000
# 2 12.9046 44.5073 56.8831 0.0000 0.0000 0.0000
# 3 56.8831 56.8831 254.0956 0.0000 0.0000 0.0000
# 4 0.0000 0.0000 0.0000 68.1032 0.0000 0.0000
# 5 0.0000 0.0000 0.0000 0.0000 68.1032 0.0000
# 6 0.0000 0.0000 0.0000 0.0000 0.0000 23.6758
#
#
#
# Elastic Compliance Matrix: (Units=1/GPa)
#
#
# Indices 1 2 3 4 5 6 
#
# 1 0.031474 -0.000169 -0.007008 0.000000 0.000000 0.000000
# 2 -0.000169 0.031474 -0.007008 0.000000 0.000000 0.000000
# 3 -0.007008 -0.007008 0.007073 0.000000 0.000000 0.000000
# 4 0.000000 0.000000 0.000000 0.014684 0.000000 0.000000
# 5 0.000000 0.000000 0.000000 0.000000 0.014684 0.000000
# 6 0.000000 0.000000 0.000000 0.000000 0.000000 0.042237
#
#
# Mechanical properties :
#
#
# Convention : Reuss Voigt Hill
#
# Bulk Modulus (GPa) = 24.00902 66.27242 45.14072
# Shear Modulus (GPa) = 27.19175 46.40576 36.79875
#
# Velocity S-wave (km/s) = 3.66170 4.78355 4.25972
# Velocity P-wave (km/s) = 5.45124 7.94910 6.81558
#
# Compressibility (1/GPa) = 0.04165102
#
# Stress axis : x y z
#
# Youngs Moduli (GPa) = 31.77231 31.77231 141.37742
#
# Poissons Ratio (x) = 0.00536 0.99079
# Poissons Ratio (y) = 0.00536 0.99079
# Poissons Ratio (z) = 0.22266 0.22266
#
# Static dielectric constant tensor:
#      x y z
#    x 1.750340 0.000000 0.000000 
#    y 0.000000 1.750340 0.000000 
#    z 0.000000 0.000000 1.782140 
# 
# From -- ./inp_files/2745.got.cif
#   From: 2010.05.17/outbox.cif.g08.bks.cpg/sg90_2_cif.got.tgz:2745.got - 2010.06.03 19:17:45.
