data_PCOD9547445
_publ_section_title
;
Structure prediction by ZEFSAII (Michael W. Deem and Ramdas Pophale) SiO2 
 PCOD9547445
Probable space group: P 4 21 2
;
_chemical_formula_sum "Si O2"
_cell_formula_units_Z 44
_cell_length_a 7.753561
_cell_length_b 7.753561
_cell_length_c 31.662299
_cell_angle_alpha 90.000000
_cell_angle_beta 90.000000
_cell_angle_gamma 90.000000
_cell_volume 1903.464852
_symmetry_space_group_name_H-M "P 4 21 2"
_symmetry_group_IT_number 90
_symmetry_cell_setting 'tetragonal'
loop_
_space_group_symop_operation_xyz
x,y,z
1/2-y,1/2+x,z
-x,-y,z
1/2+y,1/2-x,z
1/2+x,1/2-y,-z
1/2-x,1/2+y,-z
y,x,-z
-y,-x,-z
loop_
_atom_site_type_symbol
_atom_site_label
_atom_site_fract_x
_atom_site_fract_y
_atom_site_fract_z
Si Si1 0.399471 0.272039 0.456264
Si Si2 0.500000 0.500000 0.794937
Si Si3 0.610982 0.729590 0.274314
Si Si4 0.392763 0.728342 0.864623
Si Si5 0.229230 0.887489 0.366067
Si Si6 0.598263 0.272103 0.956498
O O1 0.597020 0.212080 0.456294
O O2 0.364749 0.364749 0.500000
O O3 0.355441 0.360689 0.411184
O O4 0.599338 0.632069 0.764156
O O5 0.369132 0.599238 0.826019
O O6 0.408535 0.785120 0.271968
O O7 0.647398 0.647085 0.320491
O O8 0.594305 0.786395 0.862197
O O9 0.362413 0.645110 0.910889
O O10 0.411210 0.785321 0.366028
O O11 0.401450 0.211324 0.956641
O O12 0.633657 0.366344 0.000000
#
# Coordination Sequence:
#
# PCOD9547445 Si02
#       6
#     8   4   8   8   8   8
#     4   9  17  30  48  70  96 127 160 194 238 292
#     4  12  20  30  53  80  97 126 172 210 246 290
#     4   9  18  33  51  72  98 126 163 211 251 287
#     4   9  20  37  52  72 107 141 164 195 247 305
#     4   7  12  27  48  65  88 124 158 191 238 290
#     4   9  19  35  54  76 102 133 168 202 238 285
#
# _framework density 23.115743999999999
#
# number of rings (size 3 to 8) (size 9 to 14) (size 15 to 20)
#    0.000    3.091    0.000    4.364    0.000    3.636 
#    0.000    5.455    0.000    2.182    0.000    2.545 
#    0.000    0.000    0.000    0.000    0.000    0.000 
#
# Total GULP energy -245578.802269 kJ/mol
# GULP energy per Si atom -5581.336415 kJ/mol
# Density = 2.306313 g / cm^3
# Si number density = 23.115744 Si / 1000 Ang^3
#
#
#
# Elastic Constant Matrix: (Units=GPa)
#
#
# Indices 1 2 3 4 5 6 
#
# 1 23.6071 3.3934 29.3040 0.0000 0.0000 0.0000
# 2 3.3934 23.6072 29.3037 0.0000 0.0000 0.0000
# 3 29.3040 29.3037 257.7552 0.0000 0.0000 0.0000
# 4 0.0000 0.0000 0.0000 35.7712 0.0000 0.0000
# 5 0.0000 0.0000 0.0000 0.0000 35.7711 0.0000
# 6 0.0000 0.0000 0.0000 0.0000 0.0000 7.6775
#
#
#
# Elastic Compliance Matrix: (Units=1/GPa)
#
#
# Indices 1 2 3 4 5 6 
#
# 1 0.049321 -0.000151 -0.005590 0.000000 0.000000 0.000000
# 2 -0.000151 0.049321 -0.005590 0.000000 0.000000 0.000000
# 3 -0.005590 -0.005590 0.005151 0.000000 0.000000 0.000000
# 4 0.000000 0.000000 0.000000 0.027955 0.000000 0.000000
# 5 0.000000 0.000000 0.000000 0.000000 0.027956 0.000000
# 6 0.000000 0.000000 0.000000 0.000000 0.000000 0.130251
#
#
# Mechanical properties :
#
#
# Convention : Reuss Voigt Hill
#
# Bulk Modulus (GPa) = 12.32578 47.66354 29.99466
# Shear Modulus (GPa) = 14.72064 32.04185 23.38124
#
# Velocity S-wave (km/s) = 2.52627 3.72714 3.18384
# Velocity P-wave (km/s) = 3.72199 6.25990 5.14974
#
# Compressibility (1/GPa) = 0.08113077
#
# Stress axis : x y z
#
# Youngs Moduli (GPa) = 20.27536 20.27553 194.14779
#
# Poissons Ratio (x) = 0.00305 1.08532
# Poissons Ratio (y) = 0.00305 1.08530
# Poissons Ratio (z) = 0.11334 0.11334
#
# Static dielectric constant tensor:
#      x y z
#    x 1.922100 0.000000 0.000000 
#    y 0.000000 1.922100 0.000000 
#    z 0.000000 0.000000 1.939930 
# 
# From -- ./inp_files/3020.got.cif
#   From: 2010.05.17/outbox.cif.g08.bks.cpg/sg90_2_cif.got.tgz:3020.got - 2010.06.03 19:17:45.
