data_PCOD9547686
_publ_section_title
;
Structure prediction by ZEFSAII (Michael W. Deem and Ramdas Pophale) SiO2 
 PCOD9547686
Probable space group: P 41 2 2
;
_chemical_formula_sum "Si O2"
_cell_formula_units_Z 48
_cell_length_a 8.924542
_cell_length_b 8.924542
_cell_length_c 34.649800
_cell_angle_alpha 90.000000
_cell_angle_beta 90.000000
_cell_angle_gamma 90.000000
_cell_volume 2759.768210
_symmetry_space_group_name_H-M "P 41 2 2"
_symmetry_group_IT_number 91
_symmetry_cell_setting 'tetragonal'
loop_
_space_group_symop_operation_xyz
x,y,z
-y,x,1/4+z
-x,-y,1/2+z
y,-x,3/4+z
x,-y,1/2-z
-x,y,-z
y,x,3/4-z
-y,-x,1/4-z
loop_
_atom_site_type_symbol
_atom_site_label
_atom_site_fract_x
_atom_site_fract_y
_atom_site_fract_z
Si Si1 0.808829 0.991992 0.096540
Si Si2 0.630836 0.558583 0.470183
Si Si3 0.583002 0.612861 0.599462
Si Si4 0.646986 0.833603 0.668265
Si Si5 0.416140 0.928133 0.837131
Si Si6 0.880394 0.210847 0.029736
O O1 0.843260 0.824380 0.083134
O O2 0.658414 0.976368 0.122053
O O3 0.804026 0.094880 0.058875
O O4 0.932863 0.067138 0.125000
O O5 0.500000 0.514491 0.500000
O O6 0.540279 0.629223 0.433856
O O7 0.731240 0.423234 0.452567
O O8 0.748650 0.681414 0.486259
O O9 0.528098 0.471903 0.625000
O O10 0.591982 0.751127 0.629025
O O11 0.749978 0.587877 0.583897
O O12 0.576971 0.998076 0.668244
O O13 0.315782 0.012179 0.805560
O O14 0.000000 0.141296 0.000000
#
# Coordination Sequence:
#
# PCOD9547686 Si02
#       6
#     8   8   8   8   8   8
#     4   9  18  33  52  73  99 128 161 202 243 288
#     4  10  19  32  50  71  98 130 165 202 243 291
#     4   9  17  30  49  73  97 123 160 203 243 285
#     4   9  18  32  51  74  99 127 161 204 249 289
#     4   9  17  31  51  72  94 124 161 197 238 288
#     4  10  19  32  49  69  94 126 164 198 235 285
#
# _framework density 17.392765000000001
#
# number of rings (size 3 to 8) (size 9 to 14) (size 15 to 20)
#    0.000    2.667    0.000    2.000    0.000    4.667 
#    0.000    5.833    0.000    4.000    0.000    0.000 
#    0.000    0.000    0.000    0.000    0.000    0.000 
#
# Total GULP energy -267269.591966 kJ/mol
# GULP energy per Si atom -5568.116499 kJ/mol
# Density = 1.735318 g / cm^3
# Si number density = 17.392765 Si / 1000 Ang^3
#
#
#
# Elastic Constant Matrix: (Units=GPa)
#
#
# Indices 1 2 3 4 5 6 
#
# 1 68.0876 26.7622 9.7162 0.0000 0.0000 0.0000
# 2 26.7622 68.0873 9.7158 0.0000 0.0000 0.0000
# 3 9.7162 9.7158 45.8888 0.0000 0.0000 0.0000
# 4 0.0000 0.0000 0.0000 15.1922 0.0000 0.0000
# 5 0.0000 0.0000 0.0000 0.0000 15.1921 0.0000
# 6 0.0000 0.0000 0.0000 0.0000 0.0000 13.9620
#
#
#
# Elastic Compliance Matrix: (Units=1/GPa)
#
#
# Indices 1 2 3 4 5 6 
#
# 1 0.017610 -0.006589 -0.002334 0.000000 0.000000 0.000000
# 2 -0.006589 0.017610 -0.002333 0.000000 0.000000 0.000000
# 3 -0.002334 -0.002333 0.022780 0.000000 0.000000 0.000000
# 4 0.000000 0.000000 0.000000 0.065823 0.000000 0.000000
# 5 0.000000 0.000000 0.000000 0.000000 0.065824 0.000000
# 6 0.000000 0.000000 0.000000 0.000000 0.000000 0.071623
#
#
# Mechanical properties :
#
#
# Convention : Reuss Voigt Hill
#
# Bulk Modulus (GPa) = 28.17841 30.49467 29.33654
# Shear Modulus (GPa) = 16.91418 17.92722 17.42070
#
# Velocity S-wave (km/s) = 3.12185 3.21398 3.16825
# Velocity P-wave (km/s) = 5.40657 5.59856 5.50340
#
# Compressibility (1/GPa) = 0.03548816
#
# Stress axis : x y z
#
# Youngs Moduli (GPa) = 56.78698 56.78695 43.89824
#
# Poissons Ratio (x) = 0.37415 0.10244
# Poissons Ratio (y) = 0.37415 0.10243
# Poissons Ratio (z) = 0.13252 0.13250
#
# Static dielectric constant tensor:
#      x y z
#    x 1.576140 0.000000 0.000000 
#    y 0.000000 1.576140 0.000000 
#    z 0.000000 0.000000 1.631370 
# 
# From -- ./inp_files/7978.got.cif
#   From: 2010.05.17/outbox.cif.g08.bks.cpg/sg91_4_cif.got.tgz:7978.got - 2010.06.03 19:20:03.
