data_PCOD9547106
_publ_section_title
;
Structure prediction by ZEFSAII (Michael W. Deem and Ramdas Pophale) SiO2 
 PCOD9547106
Probable space group: P 4 21 2
;
_chemical_formula_sum "Si O2"
_cell_formula_units_Z 40
_cell_length_a 12.349063
_cell_length_b 12.349063
_cell_length_c 15.449973
_cell_angle_alpha 90.000000
_cell_angle_beta 90.000000
_cell_angle_gamma 90.000000
_cell_volume 2356.110948
_symmetry_space_group_name_H-M "P 4 21 2"
_symmetry_group_IT_number 90
_symmetry_cell_setting 'tetragonal'
loop_
_space_group_symop_operation_xyz
x,y,z
1/2-y,1/2+x,z
-x,-y,z
1/2+y,1/2-x,z
1/2+x,1/2-y,-z
1/2-x,1/2+y,-z
y,x,-z
-y,-x,-z
loop_
_atom_site_type_symbol
_atom_site_label
_atom_site_fract_x
_atom_site_fract_y
_atom_site_fract_z
Si Si1 0.298338 0.791355 0.867125
Si Si2 0.722017 0.499568 0.239814
Si Si3 0.831899 0.451472 0.416544
Si Si4 0.607944 0.392057 0.500000
Si Si5 0.500000 0.500000 0.654076
Si Si6 0.375414 0.131635 0.056090
O O1 0.400218 0.726337 0.827506
O O2 0.199649 0.709049 0.885626
O O3 0.260280 0.889860 0.805609
O O4 0.337164 0.844409 0.957511
O O5 0.804266 0.461608 0.315050
O O6 0.605583 0.515582 0.286381
O O7 0.871035 0.571512 0.438853
O O8 0.725583 0.413634 0.463984
O O9 0.591932 0.471373 0.582840
O O10 0.503960 0.148190 0.069679
#
# Coordination Sequence:
#
# PCOD9547106 Si02
#       6
#     8   8   8   4   4   8
#     4  11  22  36  59  88 112 151 190 251 288 344
#     4  11  21  37  59  87 117 142 195 242 294 334
#     4  10  20  35  60  90 111 146 192 234 282 339
#     4   9  20  40  56  81 122 154 184 227 292 348
#     4   9  22  38  56  85 114 156 182 233 286 344
#     4  10  22  40  58  79 115 159 194 233 298 356
#
# _framework density 16.977129999999999
#
# number of rings (size 3 to 8) (size 9 to 14) (size 15 to 20)
#    0.000    1.800    4.000    0.000    2.800    3.600 
#    0.000    0.000    0.000    0.000    0.000    0.000 
#    0.000    0.000    0.000    0.000    0.000    0.000 
#
# Total GULP energy -222886.775627 kJ/mol
# GULP energy per Si atom -5572.169391 kJ/mol
# Density = 1.693849 g / cm^3
# Si number density = 16.977130 Si / 1000 Ang^3
#
#
#
# Elastic Constant Matrix: (Units=GPa)
#
#
# Indices 1 2 3 4 5 6 
#
# 1 116.6063 80.6105 56.5117 0.0000 0.0000 0.0000
# 2 80.6105 116.6060 56.5108 0.0000 0.0000 0.0000
# 3 56.5117 56.5108 85.3545 0.0000 0.0000 0.0000
# 4 0.0000 0.0000 0.0000 20.4841 0.0000 0.0000
# 5 0.0000 0.0000 0.0000 0.0000 20.4848 0.0000
# 6 0.0000 0.0000 0.0000 0.0000 0.0000 -46.2838
#
#
#
# Elastic Compliance Matrix: (Units=1/GPa)
#
#
# Indices 1 2 3 4 5 6 
#
# 1 0.017976 -0.009805 -0.005410 0.000000 0.000000 0.000000
# 2 -0.009805 0.017976 -0.005409 0.000000 0.000000 0.000000
# 3 -0.005410 -0.005409 0.018879 0.000000 0.000000 0.000000
# 4 0.000000 0.000000 0.000000 0.048818 0.000000 0.000000
# 5 0.000000 0.000000 0.000000 0.000000 0.048817 0.000000
# 6 0.000000 0.000000 0.000000 0.000000 0.000000 -0.021606
#
#
# Mechanical properties :
#
#
# Convention : Reuss Voigt Hill
#
# Bulk Modulus (GPa) = 73.62729 78.42586 76.02658
# Shear Modulus (GPa) = 28.30671 7.26595 17.78633
#
# Velocity S-wave (km/s) = 4.08774 2.07102 3.24028
# Velocity P-wave (km/s) = 8.10815 7.21208 7.67321
#
# Compressibility (1/GPa) = 0.01358192
#
# Stress axis : x y z
#
# Youngs Moduli (GPa) = 55.62950 55.63016 52.96860
#
# Poissons Ratio (x) = 0.54546 0.28656
# Poissons Ratio (y) = 0.54546 0.28653
# Poissons Ratio (z) = 0.30095 0.30093
#
# Static dielectric constant tensor:
#      x y z
#    x 1.563450 0.000000 0.000000 
#    y 0.000000 1.563450 0.000000 
#    z 0.000000 0.000000 1.571100 
# 
# From -- ./inp_files/2492.got.cif
#   From: 2010.05.17/outbox.cif.g08.bks.cpg/sg90_2_cif.got.tgz:2492.got - 2010.06.03 19:17:45.
