data_PCOD9547846
_publ_section_title
;
Structure prediction by ZEFSAII (Michael W. Deem and Ramdas Pophale) SiO2 
 PCOD9547846
Probable space group: P 41 2 2
;
_chemical_formula_sum "Si O2"
_cell_formula_units_Z 44
_cell_length_a 11.818047
_cell_length_b 11.818047
_cell_length_c 17.195821
_cell_angle_alpha 90.000000
_cell_angle_beta 90.000000
_cell_angle_gamma 90.000000
_cell_volume 2401.675575
_symmetry_space_group_name_H-M "P 41 2 2"
_symmetry_group_IT_number 91
_symmetry_cell_setting 'tetragonal'
loop_
_space_group_symop_operation_xyz
x,y,z
-y,x,1/4+z
-x,-y,1/2+z
y,-x,3/4+z
x,-y,1/2-z
-x,y,-z
y,x,3/4-z
-y,-x,1/4-z
loop_
_atom_site_type_symbol
_atom_site_label
_atom_site_fract_x
_atom_site_fract_y
_atom_site_fract_z
Si Si1 0.860028 0.860028 0.875000
Si Si2 0.000000 0.642435 0.500000
Si Si3 0.294467 0.241033 0.246795
Si Si4 0.882301 0.139784 0.034004
Si Si5 0.922905 0.261960 0.356724
Si Si6 0.740041 0.500000 0.750000
Si Si7 0.542677 0.904043 0.857232
O O1 0.814714 0.785720 0.801766
O O2 0.989924 0.831949 0.890503
O O3 0.898390 0.726196 0.478729
O O4 0.962808 0.565125 0.570400
O O5 0.272582 0.186053 0.162343
O O6 0.319317 0.375702 0.246213
O O7 0.391088 0.167317 0.290403
O O8 0.879520 0.120481 0.125000
O O9 0.778781 0.101289 0.980587
O O10 0.000000 0.089725 0.000000
O O11 0.997009 0.375115 0.362609
O O12 0.818865 0.491683 0.674507
#
# Coordination Sequence:
#
# PCOD9547846 Si02
#       7
#     4   4   8   8   8   4   8
#     4  10  20  34  60  88 130 156 208 258 314 392
#     4  10  22  42  64  84 130 172 210 266 320 398
#     4  11  21  39  58  98 121 166 212 271 317 377
#     4  10  26  40  58  93 130 169 207 254 332 402
#     4  11  22  37  60  88 130 164 211 259 328 388
#     4  12  22  34  64  90 128 158 216 264 328 380
#     4  11  21  40  64  93 125 171 218 269 322 385
#
# _framework density 18.320542
#
# number of rings (size 3 to 8) (size 9 to 14) (size 15 to 20)
#    0.545    0.727    5.455    2.727    6.364    0.000 
#    0.000    0.000    0.000    2.182    0.000    1.273 
#    0.000    0.000    0.000    0.000    0.000    0.000 
#
# Total GULP energy -245316.848134 kJ/mol
# GULP energy per Si atom -5575.382912 kJ/mol
# Density = 1.827884 g / cm^3
# Si number density = 18.320542 Si / 1000 Ang^3
#
#
#
# Elastic Constant Matrix: (Units=GPa)
#
#
# Indices 1 2 3 4 5 6 
#
# 1 90.9945 18.9778 26.0445 0.0000 0.0000 0.0000
# 2 18.9778 90.9946 26.0444 0.0000 0.0000 0.0000
# 3 26.0445 26.0444 117.2118 0.0000 0.0000 0.0000
# 4 0.0000 0.0000 0.0000 31.0319 0.0000 0.0000
# 5 0.0000 0.0000 0.0000 0.0000 31.0316 0.0000
# 6 0.0000 0.0000 0.0000 0.0000 0.0000 5.2094
#
#
#
# Elastic Compliance Matrix: (Units=1/GPa)
#
#
# Indices 1 2 3 4 5 6 
#
# 1 0.012024 -0.001861 -0.002258 0.000000 0.000000 0.000000
# 2 -0.001861 0.012024 -0.002258 0.000000 0.000000 0.000000
# 3 -0.002258 -0.002258 0.009535 0.000000 0.000000 0.000000
# 4 0.000000 0.000000 0.000000 0.032225 0.000000 0.000000
# 5 0.000000 0.000000 0.000000 0.000000 0.032225 0.000000
# 6 0.000000 0.000000 0.000000 0.000000 0.000000 0.191960
#
#
# Mechanical properties :
#
#
# Convention : Reuss Voigt Hill
#
# Bulk Modulus (GPa) = 48.01232 49.03714 48.52473
# Shear Modulus (GPa) = 16.14509 28.66352 22.40431
#
# Velocity S-wave (km/s) = 2.97182 3.95974 3.50080
# Velocity P-wave (km/s) = 6.16760 6.90872 6.54865
#
# Compressibility (1/GPa) = 0.02082799
#
# Stress axis : x y z
#
# Youngs Moduli (GPa) = 83.16535 83.16549 104.87577
#
# Poissons Ratio (x) = 0.15481 0.23683
# Poissons Ratio (y) = 0.15481 0.23683
# Poissons Ratio (z) = 0.18780 0.18780
#
# Static dielectric constant tensor:
#      x y z
#    x 1.650090 0.000000 0.000000 
#    y 0.000000 1.650090 0.000000 
#    z 0.000000 0.000000 1.647530 
# 
# From -- ./inp_files/5549.got.cif
#   From: 2010.05.17/outbox.cif.g08.bks.cpg/sg91_3_cif.got.tgz:5549.got - 2010.06.03 19:20:03.
