data_PCOD9547913
_publ_section_title
;
Structure prediction by ZEFSAII (Michael W. Deem and Ramdas Pophale) SiO2 
 PCOD9547913
Probable space group: P 41 2 2
;
_chemical_formula_sum "Si O2"
_cell_formula_units_Z 32
_cell_length_a 10.987657
_cell_length_b 10.987657
_cell_length_c 14.748065
_cell_angle_alpha 90.000000
_cell_angle_beta 90.000000
_cell_angle_gamma 90.000000
_cell_volume 1780.513334
_symmetry_space_group_name_H-M "P 41 2 2"
_symmetry_group_IT_number 91
_symmetry_cell_setting 'tetragonal'
loop_
_space_group_symop_operation_xyz
x,y,z
-y,x,1/4+z
-x,-y,1/2+z
y,-x,3/4+z
x,-y,1/2-z
-x,y,-z
y,x,3/4-z
-y,-x,1/4-z
loop_
_atom_site_type_symbol
_atom_site_label
_atom_site_fract_x
_atom_site_fract_y
_atom_site_fract_z
Si Si1 0.871976 0.628880 0.195658
Si Si2 0.363639 0.864234 0.039090
Si Si3 0.642601 0.621089 0.480428
Si Si4 0.790189 0.373877 0.503730
O O1 0.866485 0.500000 0.250000
O O2 0.741290 0.688422 0.217586
O O3 0.871017 0.615020 0.086803
O O4 0.999160 0.686692 0.227783
O O5 0.369662 0.851163 0.147882
O O6 0.500000 0.857787 0.000000
O O7 0.287809 0.751015 0.000351
O O8 0.500000 0.602874 0.500000
O O9 0.651737 0.651737 0.375000
O O10 0.708267 0.495548 0.502885
#
# Coordination Sequence:
#
# PCOD9547913 Si02
#       4
#     8   8   8   8
#     4  10  20  37  53  85 120 152 185 235 292 340
#     4  10  22  34  54  85 120 150 191 238 283 342
#     4  11  20  32  55  84 119 147 183 235 291 335
#     4  11  20  35  57  86 110 156 191 238 282 339
#
# _framework density 17.972346000000002
#
# number of rings (size 3 to 8) (size 9 to 14) (size 15 to 20)
#    0.000    1.500    5.000    3.000    3.500    0.000 
#    0.000    0.000    0.000    0.000   19.500    0.000 
#    0.000    0.000    0.000    0.000    0.000    0.000 
#
# Total GULP energy -178236.149288 kJ/mol
# GULP energy per Si atom -5569.879665 kJ/mol
# Density = 1.793144 g / cm^3
# Si number density = 17.972346 Si / 1000 Ang^3
#
#
#
# Elastic Constant Matrix: (Units=GPa)
#
#
# Indices 1 2 3 4 5 6 
#
# 1 100.7278 54.7183 12.0407 0.0000 0.0000 0.0000
# 2 54.7183 100.7278 12.0407 0.0000 0.0000 0.0000
# 3 12.0407 12.0407 96.4385 0.0000 0.0000 0.0000
# 4 0.0000 0.0000 0.0000 2.3798 0.0000 0.0000
# 5 0.0000 0.0000 0.0000 0.0000 2.3798 0.0000
# 6 0.0000 0.0000 0.0000 0.0000 0.0000 -1.2638
#
#
#
# Elastic Compliance Matrix: (Units=1/GPa)
#
#
# Indices 1 2 3 4 5 6 
#
# 1 0.014147 -0.007587 -0.000819 0.000000 0.000000 0.000000
# 2 -0.007587 0.014147 -0.000819 0.000000 0.000000 0.000000
# 3 -0.000819 -0.000819 0.010574 0.000000 0.000000 0.000000
# 4 0.000000 0.000000 0.000000 0.420210 0.000000 0.000000
# 5 0.000000 0.000000 0.000000 0.000000 0.420210 0.000000
# 6 0.000000 0.000000 0.000000 0.000000 0.000000 -0.791270
#
#
# Mechanical properties :
#
#
# Convention : Reuss Voigt Hill
#
# Bulk Modulus (GPa) = 48.97724 50.61036 49.79380
# Shear Modulus (GPa) = 44.14056 15.30544 29.72300
#
# Velocity S-wave (km/s) = 4.96121 2.92140 4.07113
# Velocity P-wave (km/s) = 7.75427 6.29291 7.06150
#
# Compressibility (1/GPa) = 0.02041765
#
# Stress axis : x y z
#
# Youngs Moduli (GPa) = 70.68480 70.68480 94.57315
#
# Poissons Ratio (x) = 0.53631 0.07746
# Poissons Ratio (y) = 0.53631 0.07746
# Poissons Ratio (z) = 0.05789 0.05789
#
# Static dielectric constant tensor:
#      x y z
#    x 1.623660 0.000000 0.000000 
#    y 0.000000 1.623660 0.000000 
#    z 0.000000 0.000000 1.747820 
# 
# From -- ./inp_files/4449.got.cif
#   From: 2010.05.17/outbox.cif.g08.bks.cpg/sg91_3_cif.got.tgz:4449.got - 2010.06.03 19:20:03.
