data_PCOD9547442
_publ_section_title
;
Structure prediction by ZEFSAII (Michael W. Deem and Ramdas Pophale) SiO2 
 PCOD9547442
Probable space group: P 4 21 2
;
_chemical_formula_sum "Si O2"
_cell_formula_units_Z 18
_cell_length_a 8.785827
_cell_length_b 8.785827
_cell_length_c 10.656578
_cell_angle_alpha 90.000000
_cell_angle_beta 90.000000
_cell_angle_gamma 90.000000
_cell_volume 822.589313
_symmetry_space_group_name_H-M "P 4 21 2"
_symmetry_group_IT_number 90
_symmetry_cell_setting 'tetragonal'
loop_
_space_group_symop_operation_xyz
x,y,z
1/2-y,1/2+x,z
-x,-y,z
1/2+y,1/2-x,z
1/2+x,1/2-y,-z
1/2-x,1/2+y,-z
y,x,-z
-y,-x,-z
loop_
_atom_site_type_symbol
_atom_site_label
_atom_site_fract_x
_atom_site_fract_y
_atom_site_fract_z
Si Si1 0.410614 0.661443 0.137004
Si Si2 0.000000 0.500000 0.846776
Si Si3 0.388473 0.772227 0.611954
O O1 0.500000 0.500000 0.140571
O O2 0.296562 0.650172 0.253424
O O3 0.513318 0.811754 0.152396
O O4 0.333158 0.666843 0.000000
O O5 0.566851 0.804209 0.599745
O O6 0.335400 0.664600 0.500000
#
# Coordination Sequence:
#
# PCOD9547442 Si02
#       3
#     8   2   8
#     4  11  28  49  78 119 155 201 259 325 390 471
#     4  12  28  44  84 106 160 200 260 302 408 452
#     4  11  28  48  75 110 154 204 259 321 390 463
#
# _framework density 21.882118999999999
#
# number of rings (size 3 to 8) (size 9 to 14) (size 15 to 20)
#    0.000    0.889    0.000    2.667   24.889    0.000 
#    0.000    0.000    0.000    0.000    0.000    0.000 
#    0.000    0.000    0.000    0.000    0.000    0.000 
#
# Total GULP energy -100261.781388 kJ/mol
# GULP energy per Si atom -5570.098966 kJ/mol
# Density = 2.183231 g / cm^3
# Si number density = 21.882119 Si / 1000 Ang^3
#
#
#
# Elastic Constant Matrix: (Units=GPa)
#
#
# Indices 1 2 3 4 5 6 
#
# 1 112.3502 80.3807 59.4818 0.0000 0.0000 0.0000
# 2 80.3807 112.3500 59.4820 0.0000 0.0000 0.0000
# 3 59.4818 59.4820 159.9150 0.0000 0.0000 0.0000
# 4 0.0000 0.0000 0.0000 81.7607 0.0000 0.0000
# 5 0.0000 0.0000 0.0000 0.0000 81.7616 0.0000
# 6 0.0000 0.0000 0.0000 0.0000 0.0000 10.0520
#
#
#
# Elastic Compliance Matrix: (Units=1/GPa)
#
#
# Indices 1 2 3 4 5 6 
#
# 1 0.019007 -0.012273 -0.002505 0.000000 0.000000 0.000000
# 2 -0.012273 0.019007 -0.002505 0.000000 0.000000 0.000000
# 3 -0.002505 -0.002505 0.008117 0.000000 0.000000 0.000000
# 4 0.000000 0.000000 0.000000 0.012231 0.000000 0.000000
# 5 0.000000 0.000000 0.000000 0.000000 0.012231 0.000000
# 6 0.000000 0.000000 0.000000 0.000000 0.000000 0.099482
#
#
# Mechanical properties :
#
#
# Convention : Reuss Voigt Hill
#
# Bulk Modulus (GPa) = 86.45844 87.03382 86.74613
# Shear Modulus (GPa) = 23.98121 47.06625 35.52373
#
# Velocity S-wave (km/s) = 3.31407 4.64281 4.03353
# Velocity P-wave (km/s) = 7.36484 8.28259 7.83716
#
# Compressibility (1/GPa) = 0.01156625
#
# Stress axis : x y z
#
# Youngs Moduli (GPa) = 52.61121 52.61097 123.19963
#
# Poissons Ratio (x) = 0.64567 0.30862
# Poissons Ratio (y) = 0.64567 0.30863
# Poissons Ratio (z) = 0.13179 0.13180
#
# Static dielectric constant tensor:
#      x y z
#    x 1.975430 0.000000 0.000000 
#    y 0.000000 1.975440 0.000000 
#    z 0.000000 0.000000 1.762210 
# 
# From -- ./inp_files/817.got.cif
#   From: 2010.05.17/outbox.cif.g08.bks.cpg/sg90_1_cif.got.tgz:817.got - 2010.06.03 19:17:45.
