data_PCOD9547720
_publ_section_title
;
Structure prediction by ZEFSAII (Michael W. Deem and Ramdas Pophale) SiO2 
 PCOD9547720
Probable space group: P 41 2 2
;
_chemical_formula_sum "Si O2"
_cell_formula_units_Z 56
_cell_length_a 12.675468
_cell_length_b 12.675468
_cell_length_c 19.684516
_cell_angle_alpha 90.000000
_cell_angle_beta 90.000000
_cell_angle_gamma 90.000000
_cell_volume 3162.661758
_symmetry_space_group_name_H-M "P 41 2 2"
_symmetry_group_IT_number 91
_symmetry_cell_setting 'tetragonal'
loop_
_space_group_symop_operation_xyz
x,y,z
-y,x,1/4+z
-x,-y,1/2+z
y,-x,3/4+z
x,-y,1/2-z
-x,y,-z
y,x,3/4-z
-y,-x,1/4-z
loop_
_atom_site_type_symbol
_atom_site_label
_atom_site_fract_x
_atom_site_fract_y
_atom_site_fract_z
Si Si1 0.468934 0.149664 0.697104
Si Si2 0.306372 0.742772 0.200271
Si Si3 0.798091 0.677957 0.672390
Si Si4 0.971407 0.378092 0.225089
Si Si5 0.942212 0.838136 0.934042
Si Si6 0.885851 0.695624 0.134308
Si Si7 0.097631 0.459634 0.908652
O O1 0.584490 0.196392 0.707177
O O2 0.408862 0.208782 0.636814
O O3 0.417828 0.149641 0.772237
O O4 0.474160 0.027393 0.674283
O O5 0.304845 0.695156 0.125000
O O6 0.279962 0.666896 0.263172
O O7 0.212766 0.829823 0.202778
O O8 0.916462 0.670127 0.702711
O O9 0.769262 0.788051 0.635749
O O10 0.989887 0.500000 0.250000
O O11 0.918386 0.315626 0.286989
O O12 0.898784 0.388101 0.158256
O O13 0.921860 0.921860 0.875000
O O14 0.013952 0.743453 0.905144
O O15 0.000000 0.881932 0.000000
O O16 0.862178 0.576777 0.109354
#
# Coordination Sequence:
#
# PCOD9547720 Si02
#       7
#     8   8   8   8   8   8   8
#     4  10  19  34  54  84 112 140 177 231 280 328
#     4  11  21  32  53  85 113 143 172 225 292 338
#     4  11  22  32  55  85 113 141 184 230 280 336
#     4   9  20  34  57  86 112 144 182 237 280 323
#     4  11  20  32  54  78 112 146 184 224 272 336
#     4  11  19  34  54  82 111 144 186 226 276 338
#     4   9  17  34  57  77 109 141 183 230 277 308
#
# _framework density 17.706605
#
# number of rings (size 3 to 8) (size 9 to 14) (size 15 to 20)
#    0.000    1.714    4.286    1.714    4.000    0.000 
#    0.000    0.714    6.286    0.000   11.143    0.000 
#    0.000    0.000    0.000    0.000    0.000    0.000 
#
# Total GULP energy -312183.613518 kJ/mol
# GULP energy per Si atom -5574.707384 kJ/mol
# Density = 1.766630 g / cm^3
# Si number density = 17.706605 Si / 1000 Ang^3
#
#
#
# Elastic Constant Matrix: (Units=GPa)
#
#
# Indices 1 2 3 4 5 6 
#
# 1 30.6307 12.6944 38.4419 0.0000 0.0000 0.0000
# 2 12.6944 30.6314 38.4421 0.0000 0.0000 0.0000
# 3 38.4419 38.4421 182.3271 0.0000 0.0000 0.0000
# 4 0.0000 0.0000 0.0000 30.7133 0.0000 0.0000
# 5 0.0000 0.0000 0.0000 0.0000 30.7133 0.0000
# 6 0.0000 0.0000 0.0000 0.0000 0.0000 8.0755
#
#
#
# Elastic Compliance Matrix: (Units=1/GPa)
#
#
# Indices 1 2 3 4 5 6 
#
# 1 0.046316 -0.009436 -0.007776 0.000000 0.000000 0.000000
# 2 -0.009436 0.046315 -0.007776 0.000000 0.000000 0.000000
# 3 -0.007776 -0.007776 0.008764 0.000000 0.000000 0.000000
# 4 0.000000 0.000000 0.000000 0.032559 0.000000 0.000000
# 5 0.000000 0.000000 0.000000 0.000000 0.032559 0.000000
# 6 0.000000 0.000000 0.000000 0.000000 0.000000 0.123831
#
#
# Mechanical properties :
#
#
# Convention : Reuss Voigt Hill
#
# Bulk Modulus (GPa) = 19.44767 46.97178 33.20973
# Shear Modulus (GPa) = 13.98761 24.16782 19.07771
#
# Velocity S-wave (km/s) = 2.81368 3.69847 3.28599
# Velocity P-wave (km/s) = 4.64358 6.69505 5.76136
#
# Compressibility (1/GPa) = 0.05142003
#
# Stress axis : x y z
#
# Youngs Moduli (GPa) = 21.59067 21.59118 114.10900
#
# Poissons Ratio (x) = 0.20373 0.88729
# Poissons Ratio (y) = 0.20373 0.88728
# Poissons Ratio (z) = 0.16789 0.16789
#
# Static dielectric constant tensor:
#      x y z
#    x 1.591070 0.000000 0.000000 
#    y 0.000000 1.591070 0.000000 
#    z 0.000000 0.000000 1.677800 
# 
# From -- ./inp_files/6377.got.cif
#   From: 2010.05.17/outbox.cif.g08.bks.cpg/sg91_4_cif.got.tgz:6377.got - 2010.06.03 19:20:03.
