data_PCOD9547103
_publ_section_title
;
Structure prediction by ZEFSAII (Michael W. Deem and Ramdas Pophale) SiO2 
 PCOD9547103
Probable space group: P 4 21 2
;
_chemical_formula_sum "Si O2"
_cell_formula_units_Z 60
_cell_length_a 12.215454
_cell_length_b 12.215454
_cell_length_c 22.605044
_cell_angle_alpha 90.000000
_cell_angle_beta 90.000000
_cell_angle_gamma 90.000000
_cell_volume 3373.064003
_symmetry_space_group_name_H-M "P 4 21 2"
_symmetry_group_IT_number 90
_symmetry_cell_setting 'tetragonal'
loop_
_space_group_symop_operation_xyz
x,y,z
1/2-y,1/2+x,z
-x,-y,z
1/2+y,1/2-x,z
1/2+x,1/2-y,-z
1/2-x,1/2+y,-z
y,x,-z
-y,-x,-z
loop_
_atom_site_type_symbol
_atom_site_label
_atom_site_fract_x
_atom_site_fract_y
_atom_site_fract_z
Si Si1 0.609046 0.353587 0.797202
Si Si2 0.748349 0.748349 0.500000
Si Si3 0.899739 0.656700 0.596665
Si Si4 0.232080 0.733980 0.898538
Si Si5 0.248147 0.252794 0.303389
Si Si6 0.626874 0.871531 0.990870
Si Si7 0.388187 0.359153 0.202632
Si Si8 0.341934 0.903090 0.594953
O O1 0.678807 0.317652 0.854243
O O2 0.653544 0.290487 0.739873
O O3 0.479785 0.336172 0.802926
O O4 0.628760 0.482671 0.790604
O O5 0.851240 0.732160 0.544018
O O6 0.644951 0.764067 0.543446
O O7 0.853885 0.531282 0.593171
O O8 0.846767 0.708195 0.655842
O O9 0.167492 0.655199 0.942970
O O10 0.146247 0.794503 0.856084
O O11 0.297787 0.812216 0.942937
O O12 0.341058 0.297150 0.259562
O O13 0.207200 0.351854 0.345041
O O14 0.499021 0.850771 0.982369
O O15 0.466005 0.854629 0.590575
#
# Coordination Sequence:
#
# PCOD9547103 Si02
#       8
#     8   4   8   8   8   8   8   8
#     4  10  20  34  52  75 104 136 168 205 251 302
#     4  10  20  32  52  76 100 128 164 204 244 288
#     4  10  20  35  55  77 102 134 170 207 249 297
#     4  10  20  34  52  74 100 134 172 208 252 308
#     4  10  20  34  54  78 104 132 168 210 250 294
#     4  10  20  34  52  74 100 130 168 216 262 300
#     4  10  20  34  52  75 104 136 168 205 251 302
#     4  10  20  35  55  77 102 134 170 207 249 297
#
# _framework density 17.787980999999998
#
# number of rings (size 3 to 8) (size 9 to 14) (size 15 to 20)
#    0.000    2.000    0.000    4.000    0.000    1.067 
#    0.000    0.000    0.000   49.600    0.000    0.000 
#    0.000    0.000    0.000    0.000    0.000    0.000 
#
# Total GULP energy -334556.996145 kJ/mol
# GULP energy per Si atom -5575.949936 kJ/mol
# Density = 1.774749 g / cm^3
# Si number density = 17.787981 Si / 1000 Ang^3
#
#
#
# Elastic Constant Matrix: (Units=GPa)
#
#
# Indices 1 2 3 4 5 6 
#
# 1 40.4405 11.4606 11.1103 0.0000 0.0000 0.0000
# 2 11.4606 40.4405 11.1103 0.0000 0.0000 0.0000
# 3 11.1103 11.1103 87.7441 0.0000 0.0000 0.0000
# 4 0.0000 0.0000 0.0000 15.1017 0.0000 0.0000
# 5 0.0000 0.0000 0.0000 0.0000 15.1017 0.0000
# 6 0.0000 0.0000 0.0000 0.0000 0.0000 30.4842
#
#
#
# Elastic Compliance Matrix: (Units=1/GPa)
#
#
# Indices 1 2 3 4 5 6 
#
# 1 0.027439 -0.007067 -0.002580 0.000000 0.000000 0.000000
# 2 -0.007067 0.027439 -0.002580 0.000000 0.000000 0.000000
# 3 -0.002580 -0.002580 0.012050 0.000000 0.000000 0.000000
# 4 0.000000 0.000000 0.000000 0.066218 0.000000 0.000000
# 5 0.000000 0.000000 0.000000 0.000000 0.066218 0.000000
# 6 0.000000 0.000000 0.000000 0.000000 0.000000 0.032804
#
#
# Mechanical properties :
#
#
# Convention : Reuss Voigt Hill
#
# Bulk Modulus (GPa) = 23.54293 26.22083 24.88188
# Shear Modulus (GPa) = 18.46520 21.13376 19.79948
#
# Velocity S-wave (km/s) = 3.22541 3.45061 3.33991
# Velocity P-wave (km/s) = 5.20913 5.53610 5.37510
#
# Compressibility (1/GPa) = 0.04247560
#
# Stress axis : x y z
#
# Youngs Moduli (GPa) = 36.44414 36.44414 82.98738
#
# Poissons Ratio (x) = 0.25757 0.21407
# Poissons Ratio (y) = 0.25757 0.21407
# Poissons Ratio (z) = 0.09401 0.09401
#
# Static dielectric constant tensor:
#      x y z
#    x 1.589770 0.000000 0.000000 
#    y 0.000000 1.589770 0.000000 
#    z 0.000000 0.000000 1.596260 
# 
# From -- ./inp_files/2848.got.cif
#   From: 2010.05.17/outbox.cif.g08.bks.cpg/sg90_2_cif.got.tgz:2848.got - 2010.06.03 19:17:45.
