data_PCOD9547035
_publ_section_title
;
Structure prediction by ZEFSAII (Michael W. Deem and Ramdas Pophale) SiO2 
 PCOD9547035
Probable space group: P 4 2 2
;
_chemical_formula_sum "Si O2"
_cell_formula_units_Z 48
_cell_length_a 8.085290
_cell_length_b 8.085290
_cell_length_c 32.637235
_cell_angle_alpha 90.000000
_cell_angle_beta 90.000000
_cell_angle_gamma 90.000000
_cell_volume 2133.558532
_symmetry_space_group_name_H-M "P 4 2 2"
_symmetry_group_IT_number 89
_symmetry_cell_setting 'tetragonal'
loop_
_space_group_symop_operation_xyz
x,y,z
-y,x,z
-x,-y,z
y,-x,z
x,-y,-z
-x,y,-z
y,x,-z
-y,-x,-z
loop_
_atom_site_type_symbol
_atom_site_label
_atom_site_fract_x
_atom_site_fract_y
_atom_site_fract_z
Si Si1 0.879788 0.244062 0.673109
Si Si2 0.726925 0.666435 0.411694
Si Si3 0.699062 0.699062 0.500000
Si Si4 0.720256 0.673861 0.955040
Si Si5 0.588295 0.758935 0.750675
Si Si6 0.891169 0.751952 0.872223
Si Si7 0.500000 0.000000 0.185610
O O1 0.839777 0.280879 0.625932
O O2 0.815450 0.381823 0.704172
O O3 0.071695 0.213107 0.681451
O O4 0.534100 0.721133 0.409013
O O5 0.777941 0.740290 0.456131
O O6 0.500000 0.722847 0.500000
O O7 0.526121 0.720937 0.951145
O O8 0.845853 0.724722 0.919662
O O9 0.751066 0.751066 0.000000
O O10 0.400398 0.701896 0.757034
O O11 0.620449 0.903683 0.783008
O O12 0.082555 0.790834 0.863535
O O13 0.867821 0.592330 0.843854
#
# Coordination Sequence:
#
# PCOD9547035 Si02
#       7
#     8   8   4   8   8   8   4
#     4  11  24  40  57  81 117 160 203 252 314 375
#     4   9  17  32  57  86 114 148 195 251 308 372
#     4   7  12  26  50  81 114 146 186 243 308 367
#     4   9  19  38  64  92 124 166 213 258 308 371
#     4  11  24  42  66  93 118 154 206 258 308 370
#     4  11  24  40  61  92 128 166 207 255 315 377
#     4  12  24  44  66  91 128 168 205 258 322 382
#
# _framework density 22.497623000000001
#
# number of rings (size 3 to 8) (size 9 to 14) (size 15 to 20)
#    0.000    1.917    0.000    5.500    0.000    4.000 
#    0.000    6.667    0.000    4.000    0.000    0.000 
#    0.000    0.000    0.000    0.000    0.000    0.000 
#
# Total GULP energy -267785.533647 kJ/mol
# GULP energy per Si atom -5578.865284 kJ/mol
# Density = 2.244642 g / cm^3
# Si number density = 22.497623 Si / 1000 Ang^3
#
#
#
# Elastic Constant Matrix: (Units=GPa)
#
#
# Indices 1 2 3 4 5 6 
#
# 1 50.3283 18.7021 38.3747 0.0000 0.0000 0.0000
# 2 18.7021 50.3283 38.3747 0.0000 0.0000 0.0000
# 3 38.3747 38.3747 180.1961 0.0000 0.0000 0.0000
# 4 0.0000 0.0000 0.0000 30.2787 0.0000 0.0000
# 5 0.0000 0.0000 0.0000 0.0000 30.2787 0.0000
# 6 0.0000 0.0000 0.0000 0.0000 0.0000 4.9238
#
#
#
# Elastic Compliance Matrix: (Units=1/GPa)
#
#
# Indices 1 2 3 4 5 6 
#
# 1 0.025300 -0.006319 -0.004042 0.000000 0.000000 0.000000
# 2 -0.006319 0.025300 -0.004042 0.000000 0.000000 0.000000
# 3 -0.004042 -0.004042 0.007271 0.000000 0.000000 0.000000
# 4 0.000000 0.000000 0.000000 0.033027 0.000000 0.000000
# 5 0.000000 0.000000 0.000000 0.000000 0.033027 0.000000
# 6 0.000000 0.000000 0.000000 0.000000 0.000000 0.203097
#
#
# Mechanical properties :
#
#
# Convention : Reuss Voigt Hill
#
# Bulk Modulus (GPa) = 34.40723 52.41729 43.41226
# Shear Modulus (GPa) = 13.67929 25.45630 19.56779
#
# Velocity S-wave (km/s) = 2.46851 3.36744 2.95239
# Velocity P-wave (km/s) = 4.84269 6.20235 5.56421
#
# Compressibility (1/GPa) = 0.02906366
#
# Stress axis : x y z
#
# Youngs Moduli (GPa) = 39.52587 39.52587 137.53035
#
# Poissons Ratio (x) = 0.24978 0.55591
# Poissons Ratio (y) = 0.24978 0.55591
# Poissons Ratio (z) = 0.15977 0.15977
#
# Static dielectric constant tensor:
#      x y z
#    x 1.846390 0.000000 0.000000 
#    y 0.000000 1.846390 0.000000 
#    z 0.000000 0.000000 1.863260 
# 
# From -- ./inp_files/3031.got.cif
#   From: 2010.05.17/outbox.cif.g08.bks.cpg/sg89_2_cif.got.tgz:3031.got - 2010.06.03 19:15:31.
