data_PCOD9547550
_publ_section_title
;
Structure prediction by ZEFSAII (Michael W. Deem and Ramdas Pophale) SiO2 
 PCOD9547550
Probable space group: P 41 2 2
;
_chemical_formula_sum "Si O2"
_cell_formula_units_Z 40
_cell_length_a 21.670884
_cell_length_b 21.670884
_cell_length_c 5.338091
_cell_angle_alpha 90.000000
_cell_angle_beta 90.000000
_cell_angle_gamma 90.000000
_cell_volume 2506.912801
_symmetry_space_group_name_H-M "P 41 2 2"
_symmetry_group_IT_number 91
_symmetry_cell_setting 'tetragonal'
loop_
_space_group_symop_operation_xyz
x,y,z
-y,x,1/4+z
-x,-y,1/2+z
y,-x,3/4+z
x,-y,1/2-z
-x,y,-z
y,x,3/4-z
-y,-x,1/4-z
loop_
_atom_site_type_symbol
_atom_site_label
_atom_site_fract_x
_atom_site_fract_y
_atom_site_fract_z
Si Si1 0.431110 0.958516 0.999005
Si Si2 0.252159 0.273103 0.124567
Si Si3 0.037331 0.872002 0.739518
Si Si4 0.691431 0.113698 0.387030
Si Si5 0.878324 0.239505 0.365354
O O1 0.423834 0.000000 0.250000
O O2 0.500000 0.930032 0.000000
O O3 0.374326 0.912576 0.964195
O O4 0.429406 0.000000 0.750000
O O5 0.287308 0.287308 0.375000
O O6 0.187620 0.307488 0.130221
O O7 0.240639 0.197281 0.119788
O O8 0.287626 0.287626 0.875000
O O9 0.065866 0.934135 0.625000
O O10 0.094077 0.827159 0.810059
O O11 0.000000 0.844739 0.500000
O O12 0.000000 0.880515 0.000000
O O13 0.737896 0.097936 0.614593
O O14 0.716501 0.097407 0.110111
#
# Coordination Sequence:
#
# PCOD9547550 Si02
#       5
#     8   8   8   8   8
#     4  10  21  34  45  61  89 121 150 180 208 241
#     4   8  15  27  44  63  85 102 119 157 210 255
#     4  12  26  41  55  67  83 106 133 168 212 266
#     4  10  18  30  49  68  88 112 136 164 211 265
#     4  10  20  34  51  73  91 103 129 177 228 265
#
# _framework density 15.955882000000001
#
# number of rings (size 3 to 8) (size 9 to 14) (size 15 to 20)
#    0.000    2.000    0.000    4.800    0.000    8.800 
#    0.000    0.000    0.000    0.000    0.000    0.000 
#    0.000    0.000    0.000    0.000    0.000    0.000 
#
# Total GULP energy -222846.480509 kJ/mol
# GULP energy per Si atom -5571.162013 kJ/mol
# Density = 1.591957 g / cm^3
# Si number density = 15.955882 Si / 1000 Ang^3
#
#
#
# Elastic Constant Matrix: (Units=GPa)
#
#
# Indices 1 2 3 4 5 6 
#
# 1 50.9547 30.2374 18.6227 0.0000 0.0000 0.0000
# 2 30.2374 50.9536 18.6225 0.0000 0.0000 0.0000
# 3 18.6227 18.6225 142.1672 0.0000 0.0000 0.0000
# 4 0.0000 0.0000 0.0000 15.8246 0.0000 0.0000
# 5 0.0000 0.0000 0.0000 0.0000 15.8248 0.0000
# 6 0.0000 0.0000 0.0000 0.0000 0.0000 9.9470
#
#
#
# Elastic Compliance Matrix: (Units=1/GPa)
#
#
# Indices 1 2 3 4 5 6 
#
# 1 0.030687 -0.017583 -0.001717 0.000000 0.000000 0.000000
# 2 -0.017583 0.030687 -0.001717 0.000000 0.000000 0.000000
# 3 -0.001717 -0.001717 0.007484 0.000000 0.000000 0.000000
# 4 0.000000 0.000000 0.000000 0.063193 0.000000 0.000000
# 5 0.000000 0.000000 0.000000 0.000000 0.063192 0.000000
# 6 0.000000 0.000000 0.000000 0.000000 0.000000 0.100533
#
#
# Mechanical properties :
#
#
# Convention : Reuss Voigt Hill
#
# Bulk Modulus (GPa) = 37.27783 42.11564 39.69673
# Shear Modulus (GPa) = 14.41961 20.09212 17.25587
#
# Velocity S-wave (km/s) = 3.00945 3.55241 3.29214
# Velocity P-wave (km/s) = 5.95731 6.57864 6.27567
#
# Compressibility (1/GPa) = 0.02682559
#
# Stress axis : x y z
#
# Youngs Moduli (GPa) = 32.58733 32.58663 133.62435
#
# Poissons Ratio (x) = 0.57298 0.22937
# Poissons Ratio (y) = 0.57299 0.22937
# Poissons Ratio (z) = 0.05594 0.05594
#
# Static dielectric constant tensor:
#      x y z
#    x 1.528940 0.000000 0.000000 
#    y 0.000000 1.528940 0.000000 
#    z 0.000000 0.000000 1.640990 
# 
# From -- ./inp_files/1063.got.cif
#   From: 2010.05.17/outbox.cif.g08.bks.cpg/sg91_1_cif.got.tgz:1063.got - 2010.06.03 19:20:03.
