data_PCOD9547757
_publ_section_title
;
Structure prediction by ZEFSAII (Michael W. Deem and Ramdas Pophale) SiO2 
 PCOD9547757
Probable space group: P 41 2 2
;
_chemical_formula_sum "Si O2"
_cell_formula_units_Z 52
_cell_length_a 16.439005
_cell_length_b 16.439005
_cell_length_c 9.234496
_cell_angle_alpha 90.000000
_cell_angle_beta 90.000000
_cell_angle_gamma 90.000000
_cell_volume 2495.538375
_symmetry_space_group_name_H-M "P 41 2 2"
_symmetry_group_IT_number 91
_symmetry_cell_setting 'tetragonal'
loop_
_space_group_symop_operation_xyz
x,y,z
-y,x,1/4+z
-x,-y,1/2+z
y,-x,3/4+z
x,-y,1/2-z
-x,y,-z
y,x,3/4-z
-y,-x,1/4-z
loop_
_atom_site_type_symbol
_atom_site_label
_atom_site_fract_x
_atom_site_fract_y
_atom_site_fract_z
Si Si1 0.757099 0.397175 0.822005
Si Si2 0.721769 0.852768 0.418255
Si Si3 0.641534 0.295293 0.977604
Si Si4 0.068373 0.931628 0.125000
Si Si5 0.628870 0.070258 0.341913
Si Si6 0.327158 0.447152 0.443004
Si Si7 0.008018 0.751623 0.167008
O O1 0.724426 0.313390 0.886805
O O2 0.847918 0.418337 0.866217
O O3 0.694867 0.462013 0.895224
O O4 0.740858 0.398741 0.651348
O O5 0.787623 0.787623 0.375000
O O6 0.645642 0.799159 0.477390
O O7 0.694118 0.901924 0.277947
O O8 0.760145 0.915777 0.528417
O O9 0.571575 0.318122 0.862629
O O10 0.652206 0.347795 0.125000
O O11 0.054585 0.838264 0.178621
O O12 0.056547 0.000000 0.250000
O O13 0.679158 0.043627 0.483591
O O14 0.582881 0.000000 0.250000
O O15 0.410809 0.410809 0.375000
O O16 0.000000 0.728434 0.000000
#
# Coordination Sequence:
#
# PCOD9547757 Si02
#       7
#     8   8   8   4   8   8   8
#     4  10  19  38  63  91 122 164 210 251 317 385
#     4  10  20  36  57  84 114 153 210 259 314 374
#     4  10  19  36  61  94 118 156 215 253 305 377
#     4  10  24  36  48  76 112 158 210 258 330 392
#     4  10  21  38  61  83 121 161 203 268 327 382
#     4   9  21  37  63  92 125 166 202 258 309 383
#     4  10  24  37  54  84 117 157 212 272 320 380
#
# _framework density 20.837188000000001
#
# number of rings (size 3 to 8) (size 9 to 14) (size 15 to 20)
#    0.000    2.154    3.077    0.000    7.538    1.231 
#    1.385    0.000   13.538   13.846    0.000    0.000 
#    0.000    0.000    0.000    0.000    0.000    0.000 
#
# Total GULP energy -289525.623984 kJ/mol
# GULP energy per Si atom -5567.800461 kJ/mol
# Density = 2.078976 g / cm^3
# Si number density = 20.837188 Si / 1000 Ang^3
#
#
#
# Elastic Constant Matrix: (Units=GPa)
#
#
# Indices 1 2 3 4 5 6 
#
# 1 57.9737 19.8930 23.5684 0.0000 0.0000 0.0000
# 2 19.8930 57.9734 23.5685 0.0000 0.0000 0.0000
# 3 23.5684 23.5685 134.4344 0.0000 0.0000 0.0000
# 4 0.0000 0.0000 0.0000 31.0694 0.0000 0.0000
# 5 0.0000 0.0000 0.0000 0.0000 31.0698 0.0000
# 6 0.0000 0.0000 0.0000 0.0000 0.0000 20.6858
#
#
#
# Elastic Compliance Matrix: (Units=1/GPa)
#
#
# Indices 1 2 3 4 5 6 
#
# 1 0.020314 -0.005946 -0.002519 0.000000 0.000000 0.000000
# 2 -0.005946 0.020314 -0.002519 0.000000 0.000000 0.000000
# 3 -0.002519 -0.002519 0.008322 0.000000 0.000000 0.000000
# 4 0.000000 0.000000 0.000000 0.032186 0.000000 0.000000
# 5 0.000000 0.000000 0.000000 0.000000 0.032186 0.000000
# 6 0.000000 0.000000 0.000000 0.000000 0.000000 0.048342
#
#
# Mechanical properties :
#
#
# Convention : Reuss Voigt Hill
#
# Bulk Modulus (GPa) = 37.06306 42.71568 39.88937
# Shear Modulus (GPa) = 25.95717 28.78843 27.37280
#
# Velocity S-wave (km/s) = 3.53330 3.72101 3.62837
# Velocity P-wave (km/s) = 5.87122 6.24543 6.06121
#
# Compressibility (1/GPa) = 0.02698105
#
# Stress axis : x y z
#
# Youngs Moduli (GPa) = 49.22800 49.22770 120.16716
#
# Poissons Ratio (x) = 0.29273 0.30267
# Poissons Ratio (y) = 0.29273 0.30268
# Poissons Ratio (z) = 0.12399 0.12400
#
# Static dielectric constant tensor:
#      x y z
#    x 1.827250 0.000000 0.000000 
#    y 0.000000 1.827250 0.000000 
#    z 0.000000 0.000000 1.927710 
# 
# From -- ./inp_files/10005.got.cif
#   From: 2010.05.17/outbox.cif.g08.bks.cpg/sg91_6_cif.got.tgz:10005.got - 2010.06.03 19:20:03.
