data_PCOD9547039
_publ_section_title
;
Structure prediction by ZEFSAII (Michael W. Deem and Ramdas Pophale) SiO2 
 PCOD9547039
Probable space group: P 4 2 2
;
_chemical_formula_sum "Si O2"
_cell_formula_units_Z 40
_cell_length_a 9.270999
_cell_length_b 9.270999
_cell_length_c 21.079323
_cell_angle_alpha 90.000000
_cell_angle_beta 90.000000
_cell_angle_gamma 90.000000
_cell_volume 1811.797796
_symmetry_space_group_name_H-M "P 4 2 2"
_symmetry_group_IT_number 89
_symmetry_cell_setting 'tetragonal'
loop_
_space_group_symop_operation_xyz
x,y,z
-y,x,z
-x,-y,z
y,-x,z
x,-y,-z
-x,y,-z
y,x,-z
-y,-x,-z
loop_
_atom_site_type_symbol
_atom_site_label
_atom_site_fract_x
_atom_site_fract_y
_atom_site_fract_z
Si Si1 0.589440 0.727917 0.168063
Si Si2 0.089586 0.785243 0.249673
Si Si3 0.722037 0.458118 0.425945
Si Si4 0.220570 0.929077 0.597862
Si Si5 0.842812 0.637201 0.970042
O O1 0.422022 0.680361 0.169185
O O2 0.643582 0.831136 0.224488
O O3 0.624907 0.818590 0.104501
O O4 0.078005 0.784091 0.325736
O O5 0.925269 0.816822 0.228288
O O6 0.662124 0.608876 0.398557
O O7 0.708881 0.500000 0.500000
O O8 0.873236 0.378043 0.419896
O O9 0.089405 0.824075 0.575828
O O10 0.761210 0.500000 0.000000
O O11 0.776991 0.776991 0.000000
O O12 0.000000 0.634026 0.000000
#
# Coordination Sequence:
#
# PCOD9547039 Si02
#       5
#     8   8   8   8   8
#     4  11  24  40  61  90 125 164 207 258 313 371
#     4   9  21  40  63  91 126 164 204 257 313 365
#     4   9  19  37  57  84 123 162 200 248 300 357
#     4   9  19  39  64  92 125 164 208 255 309 367
#     4  11  24  41  62  88 120 162 207 257 315 377
#
# _framework density 22.07752
#
# number of rings (size 3 to 8) (size 9 to 14) (size 15 to 20)
#    0.000    2.200    2.000    1.800    2.800    3.600 
#    0.000   16.000    0.000    4.800    0.000    0.000 
#    0.000    0.000    0.000    0.000    0.000    0.000 
#
# Total GULP energy -222898.816090 kJ/mol
# GULP energy per Si atom -5572.470402 kJ/mol
# Density = 2.202727 g / cm^3
# Si number density = 22.077520 Si / 1000 Ang^3
#
#
#
# Elastic Constant Matrix: (Units=GPa)
#
#
# Indices 1 2 3 4 5 6 
#
# 1 72.9795 61.1685 16.2132 0.0000 0.0000 0.0000
# 2 61.1685 72.9795 16.2132 0.0000 0.0000 0.0000
# 3 16.2132 16.2132 35.9453 0.0000 0.0000 0.0000
# 4 0.0000 0.0000 0.0000 28.9215 0.0000 0.0000
# 5 0.0000 0.0000 0.0000 0.0000 28.9215 0.0000
# 6 0.0000 0.0000 0.0000 0.0000 0.0000 45.8850
#
#
#
# Elastic Compliance Matrix: (Units=1/GPa)
#
#
# Indices 1 2 3 4 5 6 
#
# 1 0.046517 -0.038150 -0.003774 0.000000 0.000000 0.000000
# 2 -0.038150 0.046517 -0.003774 0.000000 0.000000 0.000000
# 3 -0.003774 -0.003774 0.031224 0.000000 0.000000 0.000000
# 4 0.000000 0.000000 0.000000 0.034576 0.000000 0.000000
# 5 0.000000 0.000000 0.000000 0.000000 0.034576 0.000000
# 6 0.000000 0.000000 0.000000 0.000000 0.000000 0.021794
#
#
# Mechanical properties :
#
#
# Convention : Reuss Voigt Hill
#
# Bulk Modulus (GPa) = 30.42980 41.01046 35.72013
# Shear Modulus (GPa) = 15.74535 26.63288 21.18912
#
# Velocity S-wave (km/s) = 2.67345 3.47700 3.10136
# Velocity P-wave (km/s) = 4.83144 5.89367 5.38880
#
# Compressibility (1/GPa) = 0.03286252
#
# Stress axis : x y z
#
# Youngs Moduli (GPa) = 21.49761 21.49761 32.02625
#
# Poissons Ratio (x) = 0.82014 0.12086
# Poissons Ratio (y) = 0.82014 0.12086
# Poissons Ratio (z) = 0.08113 0.08113
#
# Static dielectric constant tensor:
#      x y z
#    x 1.837880 0.000000 0.000000 
#    y 0.000000 1.837880 0.000000 
#    z 0.000000 0.000000 1.819710 
# 
# From -- ./inp_files/2701.got.cif
#   From: 2010.05.17/outbox.cif.g08.bks.cpg/sg89_2_cif.got.tgz:2701.got - 2010.06.03 19:15:31.
