data_PCOD9547506
_publ_section_title
;
Structure prediction by ZEFSAII (Michael W. Deem and Ramdas Pophale) SiO2 
 PCOD9547506
Probable space group: P 41 2 2
;
_chemical_formula_sum "Si O2"
_cell_formula_units_Z 52
_cell_length_a 21.279908
_cell_length_b 21.279908
_cell_length_c 5.483549
_cell_angle_alpha 90.000000
_cell_angle_beta 90.000000
_cell_angle_gamma 90.000000
_cell_volume 2483.140085
_symmetry_space_group_name_H-M "P 41 2 2"
_symmetry_group_IT_number 91
_symmetry_cell_setting 'tetragonal'
loop_
_space_group_symop_operation_xyz
x,y,z
-y,x,1/4+z
-x,-y,1/2+z
y,-x,3/4+z
x,-y,1/2-z
-x,y,-z
y,x,3/4-z
-y,-x,1/4-z
loop_
_atom_site_type_symbol
_atom_site_label
_atom_site_fract_x
_atom_site_fract_y
_atom_site_fract_z
Si Si1 0.743536 0.615919 0.716218
Si Si2 0.632567 0.111964 0.000509
Si Si3 0.229657 0.858964 0.467401
Si Si4 0.425544 0.890627 0.992396
Si Si5 0.248608 0.248608 0.375000
Si Si6 0.573321 0.251236 0.976172
Si Si7 0.871349 0.965201 0.493445
O O1 0.815169 0.588747 0.728036
O O2 0.745263 0.691229 0.701870
O O3 0.712719 0.590412 0.472348
O O4 0.716473 0.592674 0.973905
O O5 0.609770 0.086366 0.737791
O O6 0.612979 0.186087 0.985088
O O7 0.706391 0.110401 0.060099
O O8 0.598373 0.083322 0.234679
O O9 0.194650 0.805351 0.625000
O O10 0.252307 0.820765 0.232704
O O11 0.177957 0.911772 0.427475
O O12 0.500000 0.899277 0.000000
O O13 0.500000 0.234867 0.000000
O O14 0.931834 0.931834 0.375000
O O15 0.844355 0.000000 0.250000
O O16 0.885763 0.000000 0.750000
#
# Coordination Sequence:
#
# PCOD9547506 Si02
#       7
#     8   8   8   8   4   8   8
#     4  10  19  28  43  70 102 148 194 235 277 339
#     4  10  18  30  46  78 106 149 188 234 280 338
#     4  11  24  37  63  87 126 157 188 239 298 373
#     4  10  17  29  45  69 109 151 202 245 272 322
#     4  12  22  34  54  84 124 164 192 234 300 374
#     4  10  17  30  45  66 102 147 202 244 273 322
#     4  11  27  49  75 101 125 157 197 242 300 356
#
# _framework density 20.941226
#
# number of rings (size 3 to 8) (size 9 to 14) (size 15 to 20)
#    0.000    1.538    3.077    6.923    4.308    0.615 
#    0.000    0.000    0.000    0.000    0.000    0.000 
#    0.000   20.923    0.000    0.000    0.000   55.385 
#
# Total GULP energy -289896.551997 kJ/mol
# GULP energy per Si atom -5574.933692 kJ/mol
# Density = 2.089356 g / cm^3
# Si number density = 20.941226 Si / 1000 Ang^3
#
#
#
# Elastic Constant Matrix: (Units=GPa)
#
#
# Indices 1 2 3 4 5 6 
#
# 1 -10.1072 102.5198 25.5516 0.0000 0.0000 0.0000
# 2 102.5198 -10.1260 25.5445 0.0000 0.0000 0.0000
# 3 25.5516 25.5445 181.9467 0.0000 0.0000 0.0000
# 4 0.0000 0.0000 0.0000 3.5481 0.0000 0.0000
# 5 0.0000 0.0000 0.0000 0.0000 3.5480 0.0000
# 6 0.0000 0.0000 0.0000 0.0000 0.0000 7.7377
#
#
#
# Elastic Compliance Matrix: (Units=1/GPa)
#
#
# Indices 1 2 3 4 5 6 
#
# 1 0.001428 0.010306 -0.001647 0.000000 0.000000 0.000000
# 2 0.010306 0.001427 -0.001648 0.000000 0.000000 0.000000
# 3 -0.001647 -0.001648 0.005959 0.000000 0.000000 0.000000
# 4 0.000000 0.000000 0.000000 0.281838 0.000000 0.000000
# 5 0.000000 0.000000 0.000000 0.000000 0.281850 0.000000
# 6 0.000000 0.000000 0.000000 0.000000 0.000000 0.129238
#
#
# Mechanical properties :
#
#
# Convention : Reuss Voigt Hill
#
# Bulk Modulus (GPa) = 43.79231 52.10501 47.94866
# Shear Modulus (GPa) = 7.19082 3.50660 5.34871
#
# Velocity S-wave (km/s) = 1.85507 1.29543 1.59991
# Velocity P-wave (km/s) = 5.05428 5.21278 5.13414
#
# Compressibility (1/GPa) = 0.02283506
#
# Stress axis : x y z
#
# Youngs Moduli (GPa) = 700.08741 700.94895 167.81944
#
# Poissons Ratio (x) = -7.22373 0.27648
# Poissons Ratio (y) = -7.21485 0.27649
# Poissons Ratio (z) = 1.15336 1.15485
#
# Static dielectric constant tensor:
#      x y z
#    x 1.737350 0.000000 0.000000 
#    y 0.000000 1.737350 0.000000 
#    z 0.000000 0.000000 1.979300 
# 
# From -- ./inp_files/8989.got.cif
#   From: 2010.05.17/outbox.cif.g08.bks.cpg/sg91_5_cif.got.tgz:8989.got - 2010.06.03 19:20:03.
