data_PCOD9547064
_publ_section_title
;
Structure prediction by ZEFSAII (Michael W. Deem and Ramdas Pophale) SiO2 
 PCOD9547064
Probable space group: P 4 2 2
;
_chemical_formula_sum "Si O2"
_cell_formula_units_Z 48
_cell_length_a 9.000000
_cell_length_b 9.000000
_cell_length_c 30.000000
_cell_angle_alpha 90.000000
_cell_angle_beta 90.000000
_cell_angle_gamma 90.000000
_cell_volume 2430.000000
_symmetry_space_group_name_H-M "P 4 2 2"
_symmetry_group_IT_number 89
_symmetry_cell_setting 'tetragonal'
loop_
_space_group_symop_operation_xyz
x,y,z
-y,x,z
-x,-y,z
y,-x,z
x,-y,-z
-x,y,-z
y,x,-z
-y,-x,-z
loop_
_atom_site_type_symbol
_atom_site_label
_atom_site_fract_x
_atom_site_fract_y
_atom_site_fract_z
Si Si1 0.401901 0.265827 0.109672
Si Si2 0.952460 0.762578 0.947578
Si Si3 0.161967 0.191271 0.636846
Si Si4 0.651105 0.297993 0.723047
Si Si5 0.317643 0.327543 0.551352
Si Si6 0.784312 0.132622 0.808618
O O1 0.575581 0.313537 0.107294
O O2 0.375722 0.138370 0.071834
O O3 0.332589 0.190442 0.154148
O O4 0.108391 0.834007 0.932564
O O5 0.000000 0.746672 0.000000
O O6 0.237564 0.289283 0.675700
O O7 0.221688 0.246981 0.588987
O O8 0.983344 0.202472 0.641180
O O9 0.701096 0.471250 0.727026
O O10 0.721306 0.194246 0.761621
O O11 0.494347 0.297644 0.556739
O O12 0.283658 0.283658 0.500000
O O13 0.953205 0.197837 0.812645
#
# Coordination Sequence:
#
# PCOD9547064 Si02
#       6
#     8   8   8   8   8   8
#     4  11  24  41  63  95 132 167 207 253 302 360
#     4   9  19  39  63  89 119 154 200 248 294 349
#     4  11  24  39  56  83 120 160 203 252 307 370
#     4  11  24  41  62  90 123 159 203 253 305 365
#     4   9  19  37  60  85 113 149 199 257 314 374
#     4  11  24  41  64  95 128 163 206 252 299 359
#
# _framework density 19.753086
#
# number of rings (size 3 to 8) (size 9 to 14) (size 15 to 20)
#    0.000    1.667    0.000    5.000    0.000   14.667 
#    0.000   10.833    0.000    4.000    0.000    0.000 
#    0.000    0.000    0.000    0.000    0.000    0.000 
#
# Total GULP energy -267850.136261 kJ/mol
# GULP energy per Si atom -5580.211172 kJ/mol
# Density = 1.970813 g / cm^3
# Si number density = 19.753086 Si / 1000 Ang^3
#
#
#
# Elastic Constant Matrix: (Units=GPa)
#
#
# Indices 1 2 3 4 5 6 
#
# 1 72.6634 29.0957 41.1236 0.0000 0.0000 0.0000
# 2 29.0957 72.6634 41.1236 0.0000 0.0000 0.0000
# 3 41.1236 41.1236 104.9064 0.0000 0.0000 0.0000
# 4 0.0000 0.0000 0.0000 38.8612 0.0000 0.0000
# 5 0.0000 0.0000 0.0000 0.0000 38.8612 0.0000
# 6 0.0000 0.0000 0.0000 0.0000 0.0000 44.9433
#
#
#
# Elastic Compliance Matrix: (Units=1/GPa)
#
#
# Indices 1 2 3 4 5 6 
#
# 1 0.018669 -0.004284 -0.005639 0.000000 0.000000 0.000000
# 2 -0.004284 0.018669 -0.005639 0.000000 0.000000 0.000000
# 3 -0.005639 -0.005639 0.013953 0.000000 0.000000 0.000000
# 4 0.000000 0.000000 0.000000 0.025733 0.000000 0.000000
# 5 0.000000 0.000000 0.000000 0.000000 0.025733 0.000000
# 6 0.000000 0.000000 0.000000 0.000000 0.000000 0.022250
#
#
# Mechanical properties :
#
#
# Convention : Reuss Voigt Hill
#
# Bulk Modulus (GPa) = 49.58528 52.54656 51.06592
# Shear Modulus (GPa) = 30.70267 33.79246 32.24756
#
# Velocity S-wave (km/s) = 3.94677 4.14060 4.04484
# Velocity P-wave (km/s) = 6.77690 7.03696 6.90815
#
# Compressibility (1/GPa) = 0.02016728
#
# Stress axis : x y z
#
# Youngs Moduli (GPa) = 53.56534 53.56534 71.66797
#
# Poissons Ratio (x) = 0.22947 0.40413
# Poissons Ratio (y) = 0.22947 0.40413
# Poissons Ratio (z) = 0.30205 0.30205
#
# Static dielectric constant tensor:
#      x y z
#    x 1.697690 0.000000 0.000000 
#    y 0.000000 1.697690 0.000000 
#    z 0.000000 0.000000 1.715230 
# 
# From -- ./inp_files/2961.got.cif
#   From: 2010.05.17/outbox.ucp.g08.bks.cvg/sg89_2_cif.got.tgz:2961.got - 2010.06.11 10:35:57.
