data_PCOD9547490
_publ_section_title
;
Structure prediction by ZEFSAII (Michael W. Deem and Ramdas Pophale) SiO2 
 PCOD9547490
Probable space group: P 41 2 2
;
_chemical_formula_sum "Si O2"
_cell_formula_units_Z 60
_cell_length_a 16.492326
_cell_length_b 16.492326
_cell_length_c 9.220099
_cell_angle_alpha 90.000000
_cell_angle_beta 90.000000
_cell_angle_gamma 90.000000
_cell_volume 2507.837579
_symmetry_space_group_name_H-M "P 41 2 2"
_symmetry_group_IT_number 91
_symmetry_cell_setting 'tetragonal'
loop_
_space_group_symop_operation_xyz
x,y,z
-y,x,1/4+z
-x,-y,1/2+z
y,-x,3/4+z
x,-y,1/2-z
-x,y,-z
y,x,3/4-z
-y,-x,1/4-z
loop_
_atom_site_type_symbol
_atom_site_label
_atom_site_fract_x
_atom_site_fract_y
_atom_site_fract_z
Si Si1 0.314784 0.627350 0.472611
Si Si2 0.864922 0.665980 0.531987
Si Si3 0.342721 0.561251 0.029329
Si Si4 0.183972 0.358741 0.417920
Si Si5 0.875626 0.327625 0.287462
Si Si6 0.136029 0.145669 0.039667
Si Si7 0.833915 0.833915 0.875000
Si Si8 0.412604 0.968388 0.021786
O O1 0.327287 0.672714 0.625000
O O2 0.226927 0.655508 0.412020
O O3 0.317439 0.530758 0.494124
O O4 0.389735 0.645287 0.368019
O O5 0.862936 0.634706 0.368831
O O6 0.888376 0.760477 0.532353
O O7 0.931117 0.619828 0.623309
O O8 0.423186 0.576815 0.125000
O O9 0.270427 0.604659 0.120924
O O10 0.183866 0.358237 0.591304
O O11 0.159701 0.265697 0.374229
O O12 0.111396 0.416650 0.369789
O O13 0.863352 0.232149 0.275858
O O14 0.966834 0.349518 0.331271
O O15 0.128695 0.130402 0.220817
O O16 0.108581 0.108581 0.875000
O O17 0.500000 0.006522 0.000000
#
# Coordination Sequence:
#
# PCOD9547490 Si02
#       8
#     8   8   8   8   8   8   4   8
#     4  12  25  41  62  85 114 154 211 270 331 389
#     4  11  21  42  62  86 115 164 214 261 312 386
#     4  12  25  41  60  85 114 155 209 268 332 391
#     4  11  21  40  61  84 114 158 215 258 311 392
#     4  10  23  37  59  86 121 157 196 260 317 382
#     4   9  18  35  61  88 116 156 210 264 306 363
#     4  10  16  34  62  86 112 154 212 266 312 350
#     4  12  25  39  58  89 130 168 203 257 337 414
#
# _framework density 23.924994000000002
#
# number of rings (size 3 to 8) (size 9 to 14) (size 15 to 20)
#    0.000    1.067    2.000    6.800    0.000    4.800 
#    0.000    0.000    0.000    0.000    0.000    0.000 
#    0.000    0.000   20.400    0.000    0.000    0.000 
#
# Total GULP energy -334808.880771 kJ/mol
# GULP energy per Si atom -5580.148013 kJ/mol
# Density = 2.387054 g / cm^3
# Si number density = 23.924994 Si / 1000 Ang^3
#
#
#
# Elastic Constant Matrix: (Units=GPa)
#
#
# Indices 1 2 3 4 5 6 
#
# 1 0.8340 44.9137 -6.0123 0.0000 0.0000 0.0000
# 2 44.9137 0.8401 -6.0121 0.0000 0.0000 0.0000
# 3 -6.0123 -6.0121 139.3439 0.0000 0.0000 0.0000
# 4 0.0000 0.0000 0.0000 22.6447 0.0000 0.0000
# 5 0.0000 0.0000 0.0000 0.0000 22.6448 0.0000
# 6 0.0000 0.0000 0.0000 0.0000 0.0000 35.2990
#
#
#
# Elastic Compliance Matrix: (Units=1/GPa)
#
#
# Indices 1 2 3 4 5 6 
#
# 1 -0.000291 0.022398 0.000954 0.000000 0.000000 0.000000
# 2 0.022398 -0.000288 0.000954 0.000000 0.000000 0.000000
# 3 0.000954 0.000954 0.007259 0.000000 0.000000 0.000000
# 4 0.000000 0.000000 0.000000 0.044160 0.000000 0.000000
# 5 0.000000 0.000000 0.000000 0.000000 0.044160 0.000000
# 6 0.000000 0.000000 0.000000 0.000000 0.000000 0.028329
#
#
# Mechanical properties :
#
#
# Convention : Reuss Voigt Hill
#
# Bulk Modulus (GPa) = 18.08614 22.97740 20.53177
# Shear Modulus (GPa) = 53.67797 23.32629 38.50213
#
# Velocity S-wave (km/s) = 4.74180 3.12585 4.01594
# Velocity P-wave (km/s) = 6.12825 4.75948 5.48672
#
# Compressibility (1/GPa) = 0.05529095
#
# Stress axis : x y z
#
# Youngs Moduli (GPa) = -3433.34941 -3469.99534 137.76378
#
# Poissons Ratio (x) = 77.72097 -0.13140
# Poissons Ratio (y) = 76.90017 -0.13142
# Poissons Ratio (z) = 3.27476 3.31031
#
# Static dielectric constant tensor:
#      x y z
#    x 1.884070 0.000000 0.000000 
#    y 0.000000 1.884070 0.000000 
#    z 0.000000 0.000000 2.077930 
# 
# From -- ./inp_files/19707.got.cif
#   From: 2010.05.17/outbox.cif.g08.bks.cpg/sg91_10_cif.got.tgz:19707.got - 2010.06.03 19:20:03.
