data_PCOD9547642
_publ_section_title
;
Structure prediction by ZEFSAII (Michael W. Deem and Ramdas Pophale) SiO2 
 PCOD9547642
Probable space group: P 41 2 2
;
_chemical_formula_sum "Si O2"
_cell_formula_units_Z 36
_cell_length_a 8.229610
_cell_length_b 8.229610
_cell_length_c 20.477621
_cell_angle_alpha 90.000000
_cell_angle_beta 90.000000
_cell_angle_gamma 90.000000
_cell_volume 1386.877205
_symmetry_space_group_name_H-M "P 41 2 2"
_symmetry_group_IT_number 91
_symmetry_cell_setting 'tetragonal'
loop_
_space_group_symop_operation_xyz
x,y,z
-y,x,1/4+z
-x,-y,1/2+z
y,-x,3/4+z
x,-y,1/2-z
-x,y,-z
y,x,3/4-z
-y,-x,1/4-z
loop_
_atom_site_type_symbol
_atom_site_label
_atom_site_fract_x
_atom_site_fract_y
_atom_site_fract_z
Si Si1 0.112366 0.057964 0.181867
Si Si2 0.704439 0.392201 0.814221
Si Si3 0.353106 0.770699 0.691169
Si Si4 0.500000 0.860941 0.500000
Si Si5 0.049741 0.462328 0.389039
O O1 0.167453 0.243367 0.187643
O O2 0.283237 0.966006 0.168350
O O3 0.040343 0.000000 0.250000
O O4 0.992626 0.007375 0.125000
O O5 0.715409 0.500000 0.750000
O O6 0.526264 0.319342 0.817151
O O7 0.764260 0.491315 0.877091
O O8 0.255852 0.744149 0.625000
O O9 0.249348 0.663437 0.742060
O O10 0.409951 0.957725 0.685485
O O11 0.530228 0.962534 0.567130
#
# Coordination Sequence:
#
# PCOD9547642 Si02
#       5
#     8   8   8   4   8
#     4  11  26  47  67 100 144 184 232 286 353 424
#     4  11  21  40  67  96 130 179 226 273 347 403
#     4   9  20  36  61  93 125 168 216 280 332 389
#     4  10  18  38  66  94 132 160 226 280 330 394
#     4  10  22  40  64  98 129 176 221 273 337 404
#
# _framework density 25.957595000000001
#
# number of rings (size 3 to 8) (size 9 to 14) (size 15 to 20)
#    0.000    1.778    2.222    1.333    0.000    5.333 
#   12.000    0.000    0.000    0.000    0.000    0.000 
#    0.000    0.000    0.000    0.000    0.000    0.000 
#
# Total GULP energy -201616.058964 kJ/mol
# GULP energy per Si atom -5600.446082 kJ/mol
# Density = 2.589851 g / cm^3
# Si number density = 25.957595 Si / 1000 Ang^3
#
#
#
# Elastic Constant Matrix: (Units=GPa)
#
#
# Indices 1 2 3 4 5 6 
#
# 1 46.4687 12.7845 21.9906 0.0000 0.0000 0.0000
# 2 12.7845 46.4703 21.9899 0.0000 0.0000 0.0000
# 3 21.9906 21.9899 145.0520 0.0000 0.0000 0.0000
# 4 0.0000 0.0000 0.0000 27.9824 0.0000 0.0000
# 5 0.0000 0.0000 0.0000 0.0000 27.9819 0.0000
# 6 0.0000 0.0000 0.0000 0.0000 0.0000 34.8191
#
#
#
# Elastic Compliance Matrix: (Units=1/GPa)
#
#
# Indices 1 2 3 4 5 6 
#
# 1 0.024352 -0.005335 -0.002883 0.000000 0.000000 0.000000
# 2 -0.005335 0.024351 -0.002883 0.000000 0.000000 0.000000
# 3 -0.002883 -0.002883 0.007768 0.000000 0.000000 0.000000
# 4 0.000000 0.000000 0.000000 0.035737 0.000000 0.000000
# 5 0.000000 0.000000 0.000000 0.000000 0.035737 0.000000
# 6 0.000000 0.000000 0.000000 0.000000 0.000000 0.028720
#
#
# Mechanical properties :
#
#
# Convention : Reuss Voigt Hill
#
# Bulk Modulus (GPa) = 29.18079 39.05791 34.11935
# Shear Modulus (GPa) = 26.27561 30.23842 28.25702
#
# Velocity S-wave (km/s) = 3.18504 3.41679 3.30295
# Velocity P-wave (km/s) = 4.97917 5.53583 5.26486
#
# Compressibility (1/GPa) = 0.03426912
#
# Stress axis : x y z
#
# Youngs Moduli (GPa) = 41.06423 41.06598 128.72997
#
# Poissons Ratio (x) = 0.21910 0.37114
# Poissons Ratio (y) = 0.21909 0.37110
# Poissons Ratio (z) = 0.11839 0.11838
#
# Static dielectric constant tensor:
#      x y z
#    x 2.078970 0.000000 0.000000 
#    y 0.000000 2.078970 0.000000 
#    z 0.000000 0.000000 2.020900 
# 
# From -- ./inp_files/21381.got.cif
#   From: 2010.05.17/outbox.cif.g08.bks.cpg/sg91_11_cif.got.tgz:21381.got - 2010.06.03 19:20:03.
