data_PCOD9547364
_publ_section_title
;
Structure prediction by ZEFSAII (Michael W. Deem and Ramdas Pophale) SiO2 
 PCOD9547364
Probable space group: P 4 21 2
;
_chemical_formula_sum "Si O2"
_cell_formula_units_Z 48
_cell_length_a 7.792785
_cell_length_b 7.792785
_cell_length_c 34.828529
_cell_angle_alpha 90.000000
_cell_angle_beta 90.000000
_cell_angle_gamma 90.000000
_cell_volume 2115.049427
_symmetry_space_group_name_H-M "P 4 21 2"
_symmetry_group_IT_number 90
_symmetry_cell_setting 'tetragonal'
loop_
_space_group_symop_operation_xyz
x,y,z
1/2-y,1/2+x,z
-x,-y,z
1/2+y,1/2-x,z
1/2+x,1/2-y,-z
1/2-x,1/2+y,-z
y,x,-z
-y,-x,-z
loop_
_atom_site_type_symbol
_atom_site_label
_atom_site_fract_x
_atom_site_fract_y
_atom_site_fract_z
Si Si1 0.603209 0.731220 0.959453
Si Si2 0.500000 0.500000 0.313899
Si Si3 0.391280 0.731509 0.166189
Si Si4 0.894463 0.229212 0.377052
Si Si5 0.000000 0.000000 0.896181
Si Si6 0.891148 0.768482 0.748372
Si Si7 0.903208 0.228793 0.460746
O O1 0.404249 0.786803 0.957220
O O2 0.628666 0.600967 0.924367
O O3 0.644268 0.644268 0.000000
O O4 0.400530 0.370526 0.342196
O O5 0.368518 0.598451 0.285869
O O6 0.286586 0.908010 0.163512
O O7 0.368863 0.598887 0.131873
O O8 0.360284 0.658848 0.208904
O O9 0.787752 0.405228 0.374744
O O10 0.864877 0.147086 0.419186
O O11 0.786501 0.591923 0.745671
O O12 0.790099 0.401187 0.461041
O O13 0.866997 0.133004 0.500000
#
# Coordination Sequence:
#
# PCOD9547364 Si02
#       7
#     8   4   8   8   4   8   8
#     4  11  24  41  60  84 117 156 196 240 288 337
#     4  12  19  30  55  79  96 135 181 212 253 308
#     4   9  19  35  54  77 108 144 177 216 273 333
#     4   9  20  36  50  72 106 135 164 208 259 309
#     4  12  20  34  58  87 112 139 186 238 280 328
#     4   9  19  35  52  75 107 138 174 220 264 311
#     4   9  19  35  53  73  99 130 165 206 251 301
#
# _framework density 22.694504999999999
#
# number of rings (size 3 to 8) (size 9 to 14) (size 15 to 20)
#    0.000    2.167    0.000    5.750    0.000    3.000 
#    0.000    1.667    0.000    2.000    0.000   14.000 
#    0.000    0.000    0.000    0.000    0.000    0.000 
#
# Total GULP energy -268273.977610 kJ/mol
# GULP energy per Si atom -5589.041200 kJ/mol
# Density = 2.264285 g / cm^3
# Si number density = 22.694505 Si / 1000 Ang^3
#
#
#
# Elastic Constant Matrix: (Units=GPa)
#
#
# Indices 1 2 3 4 5 6 
#
# 1 38.2674 -4.1002 24.5041 0.0000 0.0000 0.0000
# 2 -4.1002 38.2673 24.5043 0.0000 0.0000 0.0000
# 3 24.5041 24.5043 197.3142 0.0000 0.0000 0.0000
# 4 0.0000 0.0000 0.0000 28.3521 0.0000 0.0000
# 5 0.0000 0.0000 0.0000 0.0000 28.3521 0.0000
# 6 0.0000 0.0000 0.0000 0.0000 0.0000 19.7425
#
#
#
# Elastic Compliance Matrix: (Units=1/GPa)
#
#
# Indices 1 2 3 4 5 6 
#
# 1 0.029607 0.006004 -0.004423 0.000000 0.000000 0.000000
# 2 0.006004 0.029607 -0.004423 0.000000 0.000000 0.000000
# 3 -0.004423 -0.004423 0.006167 0.000000 0.000000 0.000000
# 4 0.000000 0.000000 0.000000 0.035271 0.000000 0.000000
# 5 0.000000 0.000000 0.000000 0.000000 0.035271 0.000000
# 6 0.000000 0.000000 0.000000 0.000000 0.000000 0.050652
#
#
# Mechanical properties :
#
#
# Convention : Reuss Voigt Hill
#
# Bulk Modulus (GPa) = 16.75067 40.40727 28.57897
# Shear Modulus (GPa) = 23.56756 30.55205 27.05981
#
# Velocity S-wave (km/s) = 3.22603 3.67308 3.45679
# Velocity P-wave (km/s) = 4.61230 5.98600 5.34348
#
# Compressibility (1/GPa) = 0.05969911
#
# Stress axis : x y z
#
# Youngs Moduli (GPa) = 33.77568 33.77555 162.16620
#
# Poissons Ratio (x) = -0.20279 0.71718
# Poissons Ratio (y) = -0.20280 0.71719
# Poissons Ratio (z) = 0.14937 0.14937
#
# Static dielectric constant tensor:
#      x y z
#    x 1.900480 0.000000 0.000000 
#    y 0.000000 1.900480 0.000000 
#    z 0.000000 0.000000 1.864640 
# 
# From -- ./inp_files/3058.got.cif
#   From: 2010.05.17/outbox.cif.g08.bks.cpg/sg90_2_cif.got.tgz:3058.got - 2010.06.03 19:17:45.
