data_PCOD9547973
_publ_section_title
;
Structure prediction by ZEFSAII (Michael W. Deem and Ramdas Pophale) SiO2 
 PCOD9547973
Probable space group: P 41 2 2
;
_chemical_formula_sum "Si O2"
_cell_formula_units_Z 40
_cell_length_a 14.163830
_cell_length_b 14.163830
_cell_length_c 10.051854
_cell_angle_alpha 90.000000
_cell_angle_beta 90.000000
_cell_angle_gamma 90.000000
_cell_volume 2016.543445
_symmetry_space_group_name_H-M "P 41 2 2"
_symmetry_group_IT_number 91
_symmetry_cell_setting 'tetragonal'
loop_
_space_group_symop_operation_xyz
x,y,z
-y,x,1/4+z
-x,-y,1/2+z
y,-x,3/4+z
x,-y,1/2-z
-x,y,-z
y,x,3/4-z
-y,-x,1/4-z
loop_
_atom_site_type_symbol
_atom_site_label
_atom_site_fract_x
_atom_site_fract_y
_atom_site_fract_z
Si Si1 0.842857 0.287153 0.293495
Si Si2 0.612115 0.650710 0.523361
Si Si3 0.916133 0.457570 0.400523
Si Si4 0.789338 0.448599 0.888265
Si Si5 0.110900 0.267054 0.014121
O O1 0.750021 0.349372 0.326502
O O2 0.919650 0.344653 0.376220
O O3 0.819857 0.176875 0.311172
O O4 0.861198 0.295471 0.136344
O O5 0.500000 0.638131 0.500000
O O6 0.650702 0.650702 0.375000
O O7 0.677132 0.573811 0.598174
O O8 0.919239 0.500000 0.250000
O O9 0.825325 0.493274 0.483722
O O10 0.000000 0.487317 0.500000
O O11 0.807817 0.500000 0.750000
O O12 0.852462 0.353417 0.895780
O O13 0.000000 0.249656 0.000000
#
# Coordination Sequence:
#
# PCOD9547973 Si02
#       5
#     8   8   8   8   8
#     4  10  20  39  62  90 120 168 216 263 325 401
#     4  11  20  38  59  79 124 179 217 255 315 400
#     4  12  23  38  65  98 133 173 214 273 339 397
#     4  11  23  38  60  96 130 164 224 283 325 387
#     4  10  20  38  66  89 122 166 219 267 331 402
#
# _framework density 19.835922
#
# number of rings (size 3 to 8) (size 9 to 14) (size 15 to 20)
#    0.000    1.200    6.000    3.000    2.800    0.800 
#    0.000    8.000    0.000    4.800    0.000    0.000 
#    0.000    0.000    0.000    0.000    0.000    0.000 
#
# Total GULP energy -222669.529189 kJ/mol
# GULP energy per Si atom -5566.738230 kJ/mol
# Density = 1.979077 g / cm^3
# Si number density = 19.835922 Si / 1000 Ang^3
#
#
#
# Elastic Constant Matrix: (Units=GPa)
#
#
# Indices 1 2 3 4 5 6 
#
# 1 116.6797 39.3570 33.6125 0.0000 0.0000 0.0000
# 2 39.3570 116.6797 33.6125 0.0000 0.0000 0.0000
# 3 33.6125 33.6125 100.1674 0.0000 0.0000 0.0000
# 4 0.0000 0.0000 0.0000 18.4180 0.0000 0.0000
# 5 0.0000 0.0000 0.0000 0.0000 18.4180 0.0000
# 6 0.0000 0.0000 0.0000 0.0000 0.0000 11.5432
#
#
#
# Elastic Compliance Matrix: (Units=1/GPa)
#
#
# Indices 1 2 3 4 5 6 
#
# 1 0.010212 -0.002720 -0.002514 0.000000 0.000000 0.000000
# 2 -0.002720 0.010212 -0.002514 0.000000 0.000000 0.000000
# 3 -0.002514 -0.002514 0.011670 0.000000 0.000000 0.000000
# 4 0.000000 0.000000 0.000000 0.054295 0.000000 0.000000
# 5 0.000000 0.000000 0.000000 0.000000 0.054295 0.000000
# 6 0.000000 0.000000 0.000000 0.000000 0.000000 0.086631
#
#
# Mechanical properties :
#
#
# Convention : Reuss Voigt Hill
#
# Bulk Modulus (GPa) = 60.24741 60.74344 60.49542
# Shear Modulus (GPa) = 20.13324 24.80549 22.46936
#
# Velocity S-wave (km/s) = 3.18934 3.54013 3.36930
# Velocity P-wave (km/s) = 6.63335 6.88472 6.76021
#
# Compressibility (1/GPa) = 0.01659823
#
# Stress axis : x y z
#
# Youngs Moduli (GPa) = 97.92090 97.92090 85.68620
#
# Poissons Ratio (x) = 0.26639 0.21541
# Poissons Ratio (y) = 0.26639 0.21541
# Poissons Ratio (z) = 0.24617 0.24617
#
# Static dielectric constant tensor:
#      x y z
#    x 1.845300 0.000000 0.000000 
#    y 0.000000 1.845300 0.000000 
#    z 0.000000 0.000000 1.675660 
# 
# From -- ./inp_files/9711.got.cif
#   From: 2010.05.17/outbox.cif.g08.bks.cpg/sg91_5_cif.got.tgz:9711.got - 2010.06.03 19:20:03.
