data_PCOD9547302
_publ_section_title
;
Structure prediction by ZEFSAII (Michael W. Deem and Ramdas Pophale) SiO2 
 PCOD9547302
Probable space group: P 4 21 2
;
_chemical_formula_sum "Si O2"
_cell_formula_units_Z 28
_cell_length_a 9.134440
_cell_length_b 9.134440
_cell_length_c 16.099120
_cell_angle_alpha 90.000000
_cell_angle_beta 90.000000
_cell_angle_gamma 90.000000
_cell_volume 1343.278280
_symmetry_space_group_name_H-M "P 4 21 2"
_symmetry_group_IT_number 90
_symmetry_cell_setting 'tetragonal'
loop_
_space_group_symop_operation_xyz
x,y,z
1/2-y,1/2+x,z
-x,-y,z
1/2+y,1/2-x,z
1/2+x,1/2-y,-z
1/2-x,1/2+y,-z
y,x,-z
-y,-x,-z
loop_
_atom_site_type_symbol
_atom_site_label
_atom_site_fract_x
_atom_site_fract_y
_atom_site_fract_z
Si Si1 0.163004 0.048244 0.320786
Si Si2 0.997232 0.746331 0.865453
Si Si3 0.500000 0.500000 0.000000
Si Si4 0.210592 0.620354 0.430333
Si Si5 0.500000 0.000000 0.365773
O O1 0.157699 0.220900 0.341384
O O2 0.176686 0.009860 0.224150
O O3 0.316986 0.991571 0.359913
O O4 0.000000 0.000000 0.351664
O O5 0.138788 0.642206 0.868890
O O6 0.998623 0.859906 0.940095
O O7 0.189671 0.448024 0.440689
O O8 0.317832 0.682169 0.500000
#
# Coordination Sequence:
#
# PCOD9547302 Si02
#       5
#     8   8   2   8   2
#     4  12  24  43  74 105 138 192 249 297 370 442
#     4  11  23  43  67  99 138 182 234 290 361 440
#     4  12  24  40  68 104 138 180 232 292 360 444
#     4  11  29  47  69 105 143 185 244 310 368 442
#     4  12  24  44  76 104 144 196 242 308 368 440
#
# _framework density 20.844528
#
# number of rings (size 3 to 8) (size 9 to 14) (size 15 to 20)
#    0.000    0.571    4.286    2.571    8.000    0.000 
#    0.000    0.000    0.000    3.429    0.000    0.000 
#    0.000    0.000    0.000    0.000    0.000    0.000 
#
# Total GULP energy -155979.242329 kJ/mol
# GULP energy per Si atom -5570.687226 kJ/mol
# Density = 2.079709 g / cm^3
# Si number density = 20.844528 Si / 1000 Ang^3
#
#
#
# Elastic Constant Matrix: (Units=GPa)
#
#
# Indices 1 2 3 4 5 6 
#
# 1 160.6758 73.1936 37.8656 0.0000 0.0000 0.0000
# 2 73.1936 160.6769 37.8656 0.0000 0.0000 0.0000
# 3 37.8656 37.8656 83.9056 0.0000 0.0000 0.0000
# 4 0.0000 0.0000 0.0000 17.0788 0.0000 0.0000
# 5 0.0000 0.0000 0.0000 0.0000 17.0785 0.0000
# 6 0.0000 0.0000 0.0000 0.0000 0.0000 -42.6861
#
#
#
# Elastic Compliance Matrix: (Units=1/GPa)
#
#
# Indices 1 2 3 4 5 6 
#
# 1 0.008219 -0.003212 -0.002260 0.000000 0.000000 0.000000
# 2 -0.003212 0.008219 -0.002260 0.000000 0.000000 0.000000
# 3 -0.002260 -0.002260 0.013958 0.000000 0.000000 0.000000
# 4 0.000000 0.000000 0.000000 0.058552 0.000000 0.000000
# 5 0.000000 0.000000 0.000000 0.000000 0.058553 0.000000
# 6 0.000000 0.000000 0.000000 0.000000 0.000000 -0.023427
#
#
# Mechanical properties :
#
#
# Convention : Reuss Voigt Hill
#
# Bulk Modulus (GPa) = 66.96298 78.12310 72.54304
# Shear Modulus (GPa) = 34.59841 15.38316 24.99078
#
# Velocity S-wave (km/s) = 4.07852 2.71955 3.46629
# Velocity P-wave (km/s) = 7.37386 6.88633 7.13426
#
# Compressibility (1/GPa) = 0.01493362
#
# Stress axis : x y z
#
# Youngs Moduli (GPa) = 121.66517 121.66607 71.64410
#
# Poissons Ratio (x) = 0.39074 0.16191
# Poissons Ratio (y) = 0.39074 0.16191
# Poissons Ratio (z) = 0.27495 0.27495
#
# Static dielectric constant tensor:
#      x y z
#    x 1.758410 0.000000 0.000000 
#    y 0.000000 1.758410 0.000000 
#    z 0.000000 0.000000 1.756920 
# 
# From -- ./inp_files/2609.got.cif
#   From: 2010.05.17/outbox.cif.g08.bks.cpg/sg90_2_cif.got.tgz:2609.got - 2010.06.03 19:17:45.
