data_PCOD9547756
_publ_section_title
;
Structure prediction by ZEFSAII (Michael W. Deem and Ramdas Pophale) SiO2 
 PCOD9547756
Probable space group: P 41 2 2
;
_chemical_formula_sum "Si O2"
_cell_formula_units_Z 40
_cell_length_a 8.312293
_cell_length_b 8.312293
_cell_length_c 25.389298
_cell_angle_alpha 90.000000
_cell_angle_beta 90.000000
_cell_angle_gamma 90.000000
_cell_volume 1754.253613
_symmetry_space_group_name_H-M "P 41 2 2"
_symmetry_group_IT_number 91
_symmetry_cell_setting 'tetragonal'
loop_
_space_group_symop_operation_xyz
x,y,z
-y,x,1/4+z
-x,-y,1/2+z
y,-x,3/4+z
x,-y,1/2-z
-x,y,-z
y,x,3/4-z
-y,-x,1/4-z
loop_
_atom_site_type_symbol
_atom_site_label
_atom_site_fract_x
_atom_site_fract_y
_atom_site_fract_z
Si Si1 0.866005 0.611323 0.623415
Si Si2 0.264813 0.860345 0.077665
Si Si3 0.004478 0.680547 0.274412
Si Si4 0.493970 0.328516 0.279504
Si Si5 0.295661 0.128032 0.792215
O O1 0.902867 0.429797 0.642464
O O2 0.717967 0.603835 0.581481
O O3 0.861052 0.699317 0.680036
O O4 0.022304 0.672054 0.592970
O O5 0.139436 0.860565 0.125000
O O6 0.302515 0.684465 0.052416
O O7 0.218126 0.964140 0.028040
O O8 0.006296 0.500000 0.250000
O O9 0.832582 0.729598 0.297184
O O10 0.509297 0.500000 0.250000
O O11 0.545162 0.200966 0.235067
O O12 0.233051 0.000000 0.750000
#
# Coordination Sequence:
#
# PCOD9547756 Si02
#       5
#     8   8   8   8   8
#     4   9  19  36  58  84 121 158 190 245 307 358
#     4   9  19  38  61  87 117 154 201 252 306 361
#     4  10  19  37  59  83 118 158 198 246 301 363
#     4  10  19  36  61  90 118 153 205 254 302 363
#     4  10  21  37  56  84 122 157 196 245 297 357
#
# _framework density 22.801718999999999
#
# number of rings (size 3 to 8) (size 9 to 14) (size 15 to 20)
#    0.000    2.400    0.000    3.000    0.000    0.000 
#    0.000   43.000    0.000    0.000    0.000    0.000 
#    0.000    0.000    0.000    0.000    0.000    0.000 
#
# Total GULP energy -222802.195937 kJ/mol
# GULP energy per Si atom -5570.054898 kJ/mol
# Density = 2.274982 g / cm^3
# Si number density = 22.801719 Si / 1000 Ang^3
#
#
#
# Elastic Constant Matrix: (Units=GPa)
#
#
# Indices 1 2 3 4 5 6 
#
# 1 46.0919 41.2221 50.1845 0.0000 0.0000 0.0000
# 2 41.2221 46.0917 50.1845 0.0000 0.0000 0.0000
# 3 50.1845 50.1845 169.2995 0.0000 0.0000 0.0000
# 4 0.0000 0.0000 0.0000 18.3345 0.0000 0.0000
# 5 0.0000 0.0000 0.0000 0.0000 18.3347 0.0000
# 6 0.0000 0.0000 0.0000 0.0000 0.0000 -2.1872
#
#
#
# Elastic Compliance Matrix: (Units=1/GPa)
#
#
# Indices 1 2 3 4 5 6 
#
# 1 0.111362 -0.093989 -0.005149 0.000000 0.000000 0.000000
# 2 -0.093989 0.111362 -0.005150 0.000000 0.000000 0.000000
# 3 -0.005149 -0.005150 0.008960 0.000000 0.000000 0.000000
# 4 0.000000 0.000000 0.000000 0.054542 0.000000 0.000000
# 5 0.000000 0.000000 0.000000 0.000000 0.054542 0.000000
# 6 0.000000 0.000000 0.000000 0.000000 0.000000 -0.457207
#
#
# Mechanical properties :
#
#
# Convention : Reuss Voigt Hill
#
# Bulk Modulus (GPa) = 43.27847 60.51836 51.89842
# Shear Modulus (GPa) = 50.08010 14.88919 32.48464
#
# Velocity S-wave (km/s) = 4.69159 2.55813 3.77856
# Velocity P-wave (km/s) = 6.95482 5.94341 6.46891
#
# Compressibility (1/GPa) = 0.02310618
#
# Stress axis : x y z
#
# Youngs Moduli (GPa) = 8.97976 8.97969 111.61144
#
# Poissons Ratio (x) = 0.84400 0.57474
# Poissons Ratio (y) = 0.84400 0.57478
# Poissons Ratio (z) = 0.04624 0.04624
#
# Static dielectric constant tensor:
#      x y z
#    x 1.873540 0.000000 0.000000 
#    y 0.000000 1.873540 0.000000 
#    z 0.000000 0.000000 1.906320 
# 
# From -- ./inp_files/12749.got.cif
#   From: 2010.05.17/outbox.cif.g08.bks.cpg/sg91_7_cif.got.tgz:12749.got - 2010.06.03 19:20:03.
