data_PCOD9547388
_publ_section_title
;
Structure prediction by ZEFSAII (Michael W. Deem and Ramdas Pophale) SiO2 
 PCOD9547388
Probable space group: P 4 21 2
;
_chemical_formula_sum "Si O2"
_cell_formula_units_Z 44
_cell_length_a 8.107731
_cell_length_b 8.107731
_cell_length_c 30.882758
_cell_angle_alpha 90.000000
_cell_angle_beta 90.000000
_cell_angle_gamma 90.000000
_cell_volume 2030.087423
_symmetry_space_group_name_H-M "P 4 21 2"
_symmetry_group_IT_number 90
_symmetry_cell_setting 'tetragonal'
loop_
_space_group_symop_operation_xyz
x,y,z
1/2-y,1/2+x,z
-x,-y,z
1/2+y,1/2-x,z
1/2+x,1/2-y,-z
1/2-x,1/2+y,-z
y,x,-z
-y,-x,-z
loop_
_atom_site_type_symbol
_atom_site_label
_atom_site_fract_x
_atom_site_fract_y
_atom_site_fract_z
Si Si1 0.583972 0.734849 0.136031
Si Si2 0.236584 0.909030 0.685484
Si Si3 0.735799 0.586260 0.218793
Si Si4 0.237115 0.092552 0.456490
Si Si5 0.915843 0.234688 0.958616
Si Si6 0.000000 0.000000 0.615042
O O1 0.397978 0.801651 0.137610
O O2 0.627166 0.629477 0.177709
O O3 0.613276 0.655797 0.088729
O O4 0.401031 0.799189 0.682543
O O5 0.161846 0.883833 0.733458
O O6 0.109376 0.887133 0.646790
O O7 0.800817 0.399725 0.216772
O O8 0.402289 0.202788 0.455417
O O9 0.140509 0.140509 0.500000
O O10 0.113767 0.110894 0.416129
O O11 0.801628 0.398067 0.960355
O O12 0.872194 0.127807 0.000000
#
# Coordination Sequence:
#
# PCOD9547388 Si02
#       6
#     8   8   8   8   8   4
#     4   9  19  35  53  74 102 136 174 218 270 326
#     4   9  20  37  55  79 113 150 187 231 284 341
#     4   9  19  35  53  76 106 139 180 225 268 323
#     4  11  24  42  64  92 126 162 204 252 300 354
#     4   9  19  35  52  73 103 135 169 214 267 324
#     4  12  21  36  62  90 118 154 197 242 292 344
#
# _framework density 21.673943999999999
#
# number of rings (size 3 to 8) (size 9 to 14) (size 15 to 20)
#    0.000    2.364    0.000    4.636    0.000    5.455 
#    0.000    7.273    0.000    2.182    0.000    0.000 
#    0.000    0.000    0.000    0.000    0.000    0.000 
#
# Total GULP energy -245973.267755 kJ/mol
# GULP energy per Si atom -5590.301540 kJ/mol
# Density = 2.162461 g / cm^3
# Si number density = 21.673944 Si / 1000 Ang^3
#
#
#
# Elastic Constant Matrix: (Units=GPa)
#
#
# Indices 1 2 3 4 5 6 
#
# 1 48.2198 17.8449 52.7905 0.0000 0.0000 0.0000
# 2 17.8449 48.2196 52.7909 0.0000 0.0000 0.0000
# 3 52.7905 52.7909 223.4529 0.0000 0.0000 0.0000
# 4 0.0000 0.0000 0.0000 46.1483 0.0000 0.0000
# 5 0.0000 0.0000 0.0000 0.0000 46.1483 0.0000
# 6 0.0000 0.0000 0.0000 0.0000 0.0000 33.1937
#
#
#
# Elastic Compliance Matrix: (Units=1/GPa)
#
#
# Indices 1 2 3 4 5 6 
#
# 1 0.028620 -0.004302 -0.005745 0.000000 0.000000 0.000000
# 2 -0.004302 0.028620 -0.005745 0.000000 0.000000 0.000000
# 3 -0.005745 -0.005745 0.007190 0.000000 0.000000 0.000000
# 4 0.000000 0.000000 0.000000 0.021669 0.000000 0.000000
# 5 0.000000 0.000000 0.000000 0.000000 0.021669 0.000000
# 6 0.000000 0.000000 0.000000 0.000000 0.000000 0.030126
#
#
# Mechanical properties :
#
#
# Convention : Reuss Voigt Hill
#
# Bulk Modulus (GPa) = 30.44525 62.97165 46.70845
# Shear Modulus (GPa) = 27.71185 38.19578 32.95382
#
# Velocity S-wave (km/s) = 3.57960 4.20252 3.90351
# Velocity P-wave (km/s) = 5.58231 7.25709 6.47408
#
# Compressibility (1/GPa) = 0.03284585
#
# Stress axis : x y z
#
# Youngs Moduli (GPa) = 34.94043 34.94016 139.08518
#
# Poissons Ratio (x) = 0.15030 0.79907
# Poissons Ratio (y) = 0.15031 0.79908
# Poissons Ratio (z) = 0.20074 0.20074
#
# Static dielectric constant tensor:
#      x y z
#    x 1.798820 0.000000 0.000000 
#    y 0.000000 1.798820 0.000000 
#    z 0.000000 0.000000 1.785830 
# 
# From -- ./inp_files/3011.got.cif
#   From: 2010.05.17/outbox.cif.g08.bks.cpg/sg90_2_cif.got.tgz:3011.got - 2010.06.03 19:17:45.
