data_PCOD9547776
_publ_section_title
;
Structure prediction by ZEFSAII (Michael W. Deem and Ramdas Pophale) SiO2 
 PCOD9547776
Probable space group: P 41 2 2
;
_chemical_formula_sum "Si O2"
_cell_formula_units_Z 40
_cell_length_a 8.186552
_cell_length_b 8.186552
_cell_length_c 24.180366
_cell_angle_alpha 90.000000
_cell_angle_beta 90.000000
_cell_angle_gamma 90.000000
_cell_volume 1620.559271
_symmetry_space_group_name_H-M "P 41 2 2"
_symmetry_group_IT_number 91
_symmetry_cell_setting 'tetragonal'
loop_
_space_group_symop_operation_xyz
x,y,z
-y,x,1/4+z
-x,-y,1/2+z
y,-x,3/4+z
x,-y,1/2-z
-x,y,-z
y,x,3/4-z
-y,-x,1/4-z
loop_
_atom_site_type_symbol
_atom_site_label
_atom_site_fract_x
_atom_site_fract_y
_atom_site_fract_z
Si Si1 0.898095 0.250059 0.551062
Si Si2 0.071717 0.765099 0.581946
Si Si3 0.540575 0.628120 0.934577
Si Si4 0.228014 0.882586 0.475821
Si Si5 0.996984 0.540008 0.852343
O O1 0.733256 0.348660 0.559250
O O2 0.984120 0.297235 0.608704
O O3 0.000000 0.317949 0.500000
O O4 0.848327 0.066092 0.532521
O O5 0.088410 0.911591 0.625000
O O6 0.204862 0.815266 0.536821
O O7 0.892870 0.764641 0.556923
O O8 0.088502 0.594641 0.612033
O O9 0.526684 0.526684 0.875000
O O10 0.482218 0.816988 0.920064
O O11 0.500000 0.582599 0.000000
O O12 0.402722 0.897114 0.449208
#
# Coordination Sequence:
#
# PCOD9547776 Si02
#       5
#     8   8   8   8   8
#     4  10  19  37  67  99 132 174 228 290 343 419
#     4  11  23  38  64 102 130 175 227 281 350 404
#     4   9  20  37  62 103 138 186 235 290 362 427
#     4  10  22  40  63 102 133 171 229 286 339 416
#     4  10  23  37  65 100 143 179 224 289 362 421
#
# _framework density 24.682834
#
# number of rings (size 3 to 8) (size 9 to 14) (size 15 to 20)
#    0.000    2.000    2.000    3.000    8.400    0.000 
#    0.000    0.000    0.000   12.000    5.200    1.400 
#    0.000    0.000    0.000    0.000    0.000    0.000 
#
# Total GULP energy -222842.201033 kJ/mol
# GULP energy per Si atom -5571.055026 kJ/mol
# Density = 2.462666 g / cm^3
# Si number density = 24.682834 Si / 1000 Ang^3
#
#
#
# Elastic Constant Matrix: (Units=GPa)
#
#
# Indices 1 2 3 4 5 6 
#
# 1 50.4519 28.1756 52.9146 0.0000 0.0000 0.0000
# 2 28.1756 50.4511 52.9148 0.0000 0.0000 0.0000
# 3 52.9146 52.9148 203.1604 0.0000 0.0000 0.0000
# 4 0.0000 0.0000 0.0000 13.3941 0.0000 0.0000
# 5 0.0000 0.0000 0.0000 0.0000 13.3920 0.0000
# 6 0.0000 0.0000 0.0000 0.0000 0.0000 1.1892
#
#
#
# Elastic Compliance Matrix: (Units=1/GPa)
#
#
# Indices 1 2 3 4 5 6 
#
# 1 0.032237 -0.012654 -0.005101 0.000000 0.000000 0.000000
# 2 -0.012654 0.032238 -0.005101 0.000000 0.000000 0.000000
# 3 -0.005101 -0.005101 0.007579 0.000000 0.000000 0.000000
# 4 0.000000 0.000000 0.000000 0.074660 0.000000 0.000000
# 5 0.000000 0.000000 0.000000 0.000000 0.074671 0.000000
# 6 0.000000 0.000000 0.000000 0.000000 0.000000 0.840912
#
#
# Mechanical properties :
#
#
# Convention : Reuss Voigt Hill
#
# Bulk Modulus (GPa) = 37.95972 63.56372 50.76172
# Shear Modulus (GPa) = 4.47712 16.93229 10.70470
#
# Velocity S-wave (km/s) = 1.34826 2.62199 2.08478
# Velocity P-wave (km/s) = 4.22328 5.91393 5.13861
#
# Compressibility (1/GPa) = 0.02634372
#
# Stress axis : x y z
#
# Youngs Moduli (GPa) = 31.02013 31.01932 131.93890
#
# Poissons Ratio (x) = 0.39251 0.67297
# Poissons Ratio (y) = 0.39253 0.67300
# Poissons Ratio (z) = 0.15822 0.15823
#
# Static dielectric constant tensor:
#      x y z
#    x 1.982410 0.000000 0.000000 
#    y 0.000000 1.982410 0.000000 
#    z 0.000000 0.000000 2.034330 
# 
# From -- ./inp_files/6766.got.cif
#   From: 2010.05.17/outbox.cif.g08.bks.cpg/sg91_4_cif.got.tgz:6766.got - 2010.06.03 19:20:03.
