data_PCOD9547433
_publ_section_title
;
Structure prediction by ZEFSAII (Michael W. Deem and Ramdas Pophale) SiO2 
 PCOD9547433
Probable space group: P 4 21 2
;
_chemical_formula_sum "Si O2"
_cell_formula_units_Z 36
_cell_length_a 8.769888
_cell_length_b 8.769888
_cell_length_c 22.784534
_cell_angle_alpha 90.000000
_cell_angle_beta 90.000000
_cell_angle_gamma 90.000000
_cell_volume 1752.379826
_symmetry_space_group_name_H-M "P 4 21 2"
_symmetry_group_IT_number 90
_symmetry_cell_setting 'tetragonal'
loop_
_space_group_symop_operation_xyz
x,y,z
1/2-y,1/2+x,z
-x,-y,z
1/2+y,1/2-x,z
1/2+x,1/2-y,-z
1/2-x,1/2+y,-z
y,x,-z
-y,-x,-z
loop_
_atom_site_type_symbol
_atom_site_label
_atom_site_fract_x
_atom_site_fract_y
_atom_site_fract_z
Si Si1 0.845664 0.898550 0.434402
Si Si2 0.000000 0.000000 0.000000
Si Si3 0.500000 0.000000 0.418677
Si Si4 0.411431 0.765137 0.682381
Si Si5 0.444532 0.747840 0.230727
Si Si6 0.473372 0.746066 0.100742
O O1 0.831658 0.831658 0.500000
O O2 0.878689 0.772716 0.385194
O O3 0.690096 0.988821 0.419456
O O4 0.000000 0.000000 0.433709
O O5 0.018566 0.138423 0.954798
O O6 0.584909 0.811172 0.695672
O O7 0.364002 0.618212 0.720148
O O8 0.609051 0.827055 0.236175
O O9 0.447250 0.676287 0.165480
O O10 0.630049 0.839660 0.098490
#
# Coordination Sequence:
#
# PCOD9547433 Si02
#       6
#     8   2   2   8   8   8
#     4  11  28  48  71 105 137 180 237 299 364 440
#     4  12  20  32  64  96 120 168 214 264 336 388
#     4  12  28  44  80 100 136 192 240 284 378 464
#     4  11  26  43  65  98 138 175 221 294 360 414
#     4   9  21  40  64  89 123 172 225 272 324 406
#     4   9  20  39  58  88 129 167 214 269 320 387
#
# _framework density 20.543493000000002
#
# number of rings (size 3 to 8) (size 9 to 14) (size 15 to 20)
#    0.000    1.778    0.000    3.333   12.444    3.556 
#    0.000    0.000    0.000    2.667    0.000    0.000 
#    0.000    0.000    0.000    0.000    0.000    0.000 
#
# Total GULP energy -200412.873998 kJ/mol
# GULP energy per Si atom -5567.024278 kJ/mol
# Density = 2.049674 g / cm^3
# Si number density = 20.543493 Si / 1000 Ang^3
#
#
#
# Elastic Constant Matrix: (Units=GPa)
#
#
# Indices 1 2 3 4 5 6 
#
# 1 89.5086 40.7560 38.5676 0.0000 0.0000 0.0000
# 2 40.7560 89.5086 38.5676 0.0000 0.0000 0.0000
# 3 38.5676 38.5676 111.3656 0.0000 0.0000 0.0000
# 4 0.0000 0.0000 0.0000 29.9145 0.0000 0.0000
# 5 0.0000 0.0000 0.0000 0.0000 29.9145 0.0000
# 6 0.0000 0.0000 0.0000 0.0000 0.0000 25.6093
#
#
#
# Elastic Compliance Matrix: (Units=1/GPa)
#
#
# Indices 1 2 3 4 5 6 
#
# 1 0.015084 -0.005427 -0.003344 0.000000 0.000000 0.000000
# 2 -0.005427 0.015084 -0.003344 0.000000 0.000000 0.000000
# 3 -0.003344 -0.003344 0.011296 0.000000 0.000000 0.000000
# 4 0.000000 0.000000 0.000000 0.033429 0.000000 0.000000
# 5 0.000000 0.000000 0.000000 0.000000 0.033429 0.000000
# 6 0.000000 0.000000 0.000000 0.000000 0.000000 0.039048
#
#
# Mechanical properties :
#
#
# Convention : Reuss Voigt Hill
#
# Bulk Modulus (GPa) = 58.03019 58.46279 58.24649
# Shear Modulus (GPa) = 28.19339 28.58709 28.39024
#
# Velocity S-wave (km/s) = 3.70858 3.73438 3.72150
# Velocity P-wave (km/s) = 6.82985 6.86396 6.84693
#
# Compressibility (1/GPa) = 0.01723241
#
# Stress axis : x y z
#
# Youngs Moduli (GPa) = 66.29375 66.29375 88.52802
#
# Poissons Ratio (x) = 0.35980 0.29607
# Poissons Ratio (y) = 0.35980 0.29607
# Poissons Ratio (z) = 0.22171 0.22171
#
# Static dielectric constant tensor:
#      x y z
#    x 1.736790 0.000000 0.000000 
#    y 0.000000 1.736790 0.000000 
#    z 0.000000 0.000000 1.687290 
# 
# From -- ./inp_files/2792.got.cif
#   From: 2010.05.17/outbox.cif.g08.bks.cpg/sg90_2_cif.got.tgz:2792.got - 2010.06.03 19:17:45.
