data_PCOD9547200
_publ_section_title
;
Structure prediction by ZEFSAII (Michael W. Deem and Ramdas Pophale) SiO2 
 PCOD9547200
Probable space group: P 4 21 2
;
_chemical_formula_sum "Si O2"
_cell_formula_units_Z 48
_cell_length_a 8.340108
_cell_length_b 8.340108
_cell_length_c 33.940879
_cell_angle_alpha 90.000000
_cell_angle_beta 90.000000
_cell_angle_gamma 90.000000
_cell_volume 2360.839346
_symmetry_space_group_name_H-M "P 4 21 2"
_symmetry_group_IT_number 90
_symmetry_cell_setting 'tetragonal'
loop_
_space_group_symop_operation_xyz
x,y,z
1/2-y,1/2+x,z
-x,-y,z
1/2+y,1/2-x,z
1/2+x,1/2-y,-z
1/2-x,1/2+y,-z
y,x,-z
-y,-x,-z
loop_
_atom_site_type_symbol
_atom_site_label
_atom_site_fract_x
_atom_site_fract_y
_atom_site_fract_z
Si Si1 0.264566 0.546380 0.032405
Si Si2 0.745302 0.595199 0.616160
Si Si3 0.000000 0.000000 0.757090
Si Si4 0.500000 0.500000 0.104336
Si Si5 0.747567 0.601395 0.461085
Si Si6 0.241610 0.918018 0.691477
Si Si7 0.237952 0.046770 0.175987
O O1 0.176323 0.376876 0.028210
O O2 0.352490 0.523726 0.074216
O O3 0.390021 0.609980 0.000000
O O4 0.800818 0.410345 0.617119
O O5 0.651664 0.644114 0.576712
O O6 0.635710 0.642524 0.653192
O O7 0.125740 0.908794 0.729121
O O8 0.919091 0.877856 0.787418
O O9 0.468914 0.644980 0.134789
O O10 0.798834 0.415175 0.460560
O O11 0.650761 0.650761 0.500000
O O12 0.399390 0.806269 0.691408
O O13 0.374811 0.178247 0.178694
#
# Coordination Sequence:
#
# PCOD9547200 Si02
#       7
#     8   8   4   4   8   8   8
#     4  11  23  39  61  90 127 172 223 280 338 397
#     4  11  24  41  62  90 123 160 204 253 307 369
#     4  11  22  40  63  88 120 156 197 248 304 369
#     4  11  21  38  61  88 124 164 213 266 325 389
#     4  11  24  41  62  90 123 161 207 257 310 369
#     4  11  23  39  61  89 120 156 198 246 303 367
#     4  10  22  39  61  89 121 159 203 254 313 378
#
# _framework density 20.331752000000002
#
# number of rings (size 3 to 8) (size 9 to 14) (size 15 to 20)
#    0.000    1.167    0.000    6.250    0.000    6.333 
#    0.000    3.333    0.000    8.000    0.000    0.000 
#    0.000    0.000    0.000    0.000    0.000    0.000 
#
# Total GULP energy -268075.316651 kJ/mol
# GULP energy per Si atom -5584.902430 kJ/mol
# Density = 2.028548 g / cm^3
# Si number density = 20.331752 Si / 1000 Ang^3
#
#
#
# Elastic Constant Matrix: (Units=GPa)
#
#
# Indices 1 2 3 4 5 6 
#
# 1 66.0256 35.7751 51.6288 0.0000 0.0000 0.0000
# 2 35.7751 66.0279 51.6278 0.0000 0.0000 0.0000
# 3 51.6288 51.6278 167.2085 0.0000 0.0000 0.0000
# 4 0.0000 0.0000 0.0000 -123.0259 0.0000 0.0000
# 5 0.0000 0.0000 0.0000 0.0000 -122.9953 0.0000
# 6 0.0000 0.0000 0.0000 0.0000 0.0000 25.1835
#
#
#
# Elastic Compliance Matrix: (Units=1/GPa)
#
#
# Indices 1 2 3 4 5 6 
#
# 1 0.023680 -0.009377 -0.004416 0.000000 0.000000 0.000000
# 2 -0.009377 0.023678 -0.004416 0.000000 0.000000 0.000000
# 3 -0.004416 -0.004416 0.008708 0.000000 0.000000 0.000000
# 4 0.000000 0.000000 0.000000 -0.008128 0.000000 0.000000
# 5 0.000000 0.000000 0.000000 0.000000 -0.008130 0.000000
# 6 0.000000 0.000000 0.000000 0.000000 0.000000 0.039709
#
#
# Mechanical properties :
#
#
# Convention : Reuss Voigt Hill
#
# Bulk Modulus (GPa) = 50.89629 64.14726 57.52177
# Shear Modulus (GPa) = 40.82203 -33.48554 3.66824
#
# Velocity S-wave (km/s) = 4.48571 -4.06268 1.34466
# Velocity P-wave (km/s) = 7.20528 3.10027 5.54652
#
# Compressibility (1/GPa) = 0.01964780
#
# Stress axis : x y z
#
# Youngs Moduli (GPa) = 42.23010 42.23256 114.84243
#
# Poissons Ratio (x) = 0.39601 0.50718
# Poissons Ratio (y) = 0.39599 0.50711
# Poissons Ratio (z) = 0.18650 0.18649
#
# Static dielectric constant tensor:
#      x y z
#    x 1.712580 0.000000 0.000000 
#    y 0.000000 1.712590 0.000000 
#    z 0.000000 0.000000 1.673690 
# 
# From -- ./inp_files/3106.got.cif
#   From: 2010.05.17/outbox.cif.g08.bks.cpg/sg90_2_cif.got.tgz:3106.got - 2010.06.03 19:17:45.
