data_PCOD9547974
_publ_section_title
;
Structure prediction by ZEFSAII (Michael W. Deem and Ramdas Pophale) SiO2 
 PCOD9547974
Probable space group: P 41 2 2
;
_chemical_formula_sum "Si O2"
_cell_formula_units_Z 40
_cell_length_a 8.949235
_cell_length_b 8.949235
_cell_length_c 21.951132
_cell_angle_alpha 90.000000
_cell_angle_beta 90.000000
_cell_angle_gamma 90.000000
_cell_volume 1758.039976
_symmetry_space_group_name_H-M "P 41 2 2"
_symmetry_group_IT_number 91
_symmetry_cell_setting 'tetragonal'
loop_
_space_group_symop_operation_xyz
x,y,z
-y,x,1/4+z
-x,-y,1/2+z
y,-x,3/4+z
x,-y,1/2-z
-x,y,-z
y,x,3/4-z
-y,-x,1/4-z
loop_
_atom_site_type_symbol
_atom_site_label
_atom_site_fract_x
_atom_site_fract_y
_atom_site_fract_z
Si Si1 0.258406 0.337798 0.095976
Si Si2 0.607038 0.057549 0.639018
Si Si3 0.105807 0.919067 0.325746
Si Si4 0.573109 0.802715 0.395333
Si Si5 0.921430 0.729761 0.238015
O O1 0.204403 0.507619 0.102419
O O2 0.182271 0.233539 0.147636
O O3 0.437039 0.313920 0.097644
O O4 0.216782 0.240693 0.036198
O O5 0.754669 0.033763 0.678783
O O6 0.487505 0.925851 0.651377
O O7 0.665236 0.013458 0.570426
O O8 0.016495 0.859171 0.268347
O O9 0.992856 0.992856 0.375000
O O10 0.719515 0.719515 0.375000
O O11 0.615628 0.885378 0.457704
#
# Coordination Sequence:
#
# PCOD9547974 Si02
#       5
#     8   8   8   8   8
#     4  10  22  37  66  95 129 175 224 275 332 399
#     4  10  22  39  64  97 133 169 227 281 330 398
#     4  10  21  38  66  94 137 175 222 277 334 414
#     4  10  20  38  66  91 131 170 224 273 333 410
#     4  10  20  39  72  94 133 184 220 274 351 403
#
# _framework density 22.752613
#
# number of rings (size 3 to 8) (size 9 to 14) (size 15 to 20)
#    0.000    2.400    2.000    3.000    0.000    4.000 
#    0.000    0.000   70.400    0.000    0.000    0.000 
#    0.000    0.000    0.000    0.000    0.000    0.000 
#
# Total GULP energy -223100.291481 kJ/mol
# GULP energy per Si atom -5577.507287 kJ/mol
# Density = 2.270083 g / cm^3
# Si number density = 22.752613 Si / 1000 Ang^3
#
#
#
# Elastic Constant Matrix: (Units=GPa)
#
#
# Indices 1 2 3 4 5 6 
#
# 1 75.7106 50.2530 22.2659 0.0000 0.0000 0.0000
# 2 50.2530 75.7106 22.2659 0.0000 0.0000 0.0000
# 3 22.2659 22.2659 50.7493 0.0000 0.0000 0.0000
# 4 0.0000 0.0000 0.0000 30.6996 0.0000 0.0000
# 5 0.0000 0.0000 0.0000 0.0000 30.6996 0.0000
# 6 0.0000 0.0000 0.0000 0.0000 0.0000 68.4340
#
#
#
# Elastic Compliance Matrix: (Units=1/GPa)
#
#
# Indices 1 2 3 4 5 6 
#
# 1 0.024339 -0.014942 -0.004123 0.000000 0.000000 0.000000
# 2 -0.014942 0.024339 -0.004123 0.000000 0.000000 0.000000
# 3 -0.004123 -0.004123 0.023322 0.000000 0.000000 0.000000
# 4 0.000000 0.000000 0.000000 0.032574 0.000000 0.000000
# 5 0.000000 0.000000 0.000000 0.000000 0.032574 0.000000
# 6 0.000000 0.000000 0.000000 0.000000 0.000000 0.014613
#
#
# Mechanical properties :
#
#
# Convention : Reuss Voigt Hill
#
# Bulk Modulus (GPa) = 39.02516 43.52670 41.27593
# Shear Modulus (GPa) = 24.19250 33.12571 28.65911
#
# Velocity S-wave (km/s) = 3.26434 3.81978 3.55293
# Velocity P-wave (km/s) = 5.60331 6.21500 5.91706
#
# Compressibility (1/GPa) = 0.02562449
#
# Stress axis : x y z
#
# Youngs Moduli (GPa) = 41.08702 41.08702 42.87769
#
# Poissons Ratio (x) = 0.61394 0.17676
# Poissons Ratio (y) = 0.61394 0.17676
# Poissons Ratio (z) = 0.16938 0.16938
#
# Static dielectric constant tensor:
#      x y z
#    x 1.886460 0.000000 0.000000 
#    y 0.000000 1.886460 0.000000 
#    z 0.000000 0.000000 1.923900 
# 
# From -- ./inp_files/6764.got.cif
#   From: 2010.05.17/outbox.cif.g08.bks.cpg/sg91_4_cif.got.tgz:6764.got - 2010.06.03 19:20:03.
