data_PCOD9547253
_publ_section_title
;
Structure prediction by ZEFSAII (Michael W. Deem and Ramdas Pophale) SiO2 
 PCOD9547253
Probable space group: P 4 21 2
;
_chemical_formula_sum "Si O2"
_cell_formula_units_Z 50
_cell_length_a 11.349497
_cell_length_b 11.349497
_cell_length_c 17.925291
_cell_angle_alpha 90.000000
_cell_angle_beta 90.000000
_cell_angle_gamma 90.000000
_cell_volume 2308.976132
_symmetry_space_group_name_H-M "P 4 21 2"
_symmetry_group_IT_number 90
_symmetry_cell_setting 'tetragonal'
loop_
_space_group_symop_operation_xyz
x,y,z
1/2-y,1/2+x,z
-x,-y,z
1/2+y,1/2-x,z
1/2+x,1/2-y,-z
1/2-x,1/2+y,-z
y,x,-z
-y,-x,-z
loop_
_atom_site_type_symbol
_atom_site_label
_atom_site_fract_x
_atom_site_fract_y
_atom_site_fract_z
Si Si1 0.696499 0.965127 0.473875
Si Si2 0.430420 0.620919 0.765602
Si Si3 0.500000 0.000000 0.013239
Si Si4 0.192635 0.552073 0.691715
Si Si5 0.393215 0.253321 0.058182
Si Si6 0.978337 0.698465 0.363981
Si Si7 0.337581 0.635095 0.910658
O O1 0.591330 0.869201 0.474465
O O2 0.748751 0.947069 0.392006
O O3 0.758698 0.962478 0.554120
O O4 0.500000 0.500000 0.758818
O O5 0.294348 0.592757 0.746269
O O6 0.473077 0.713711 0.704595
O O7 0.435936 0.668318 0.850842
O O8 0.441902 0.134172 0.019301
O O9 0.138287 0.420634 0.700037
O O10 0.277267 0.214555 0.102193
O O11 0.499569 0.305597 0.104550
O O12 0.349792 0.349792 0.000000
O O13 0.874926 0.600272 0.360488
O O14 0.359868 0.640133 0.000000
#
# Coordination Sequence:
#
# PCOD9547253 Si02
#       7
#     8   8   2   8   8   8   8
#     4   7  12  31  64  92 118 164 216 255 310 383
#     4  12  28  39  62  94 134 170 208 268 325 374
#     4   8  16  36  56 100 120 132 196 252 318 380
#     4   9  20  40  65  95 129 168 213 265 322 382
#     4   9  19  38  68  86 117 156 202 257 313 374
#     4   9  20  42  68  90 125 173 215 260 318 386
#     4  10  24  43  62  92 119 166 209 261 313 385
#
# _framework density 21.654620000000001
#
# number of rings (size 3 to 8) (size 9 to 14) (size 15 to 20)
#    0.000    2.720    0.000    1.920    6.720    0.640 
#    2.880    1.600    0.000    0.000    0.000    0.000 
#    0.000    0.000    0.000    0.000    0.000    0.000 
#
# Total GULP energy -278341.180261 kJ/mol
# GULP energy per Si atom -5566.823605 kJ/mol
# Density = 2.160533 g / cm^3
# Si number density = 21.654620 Si / 1000 Ang^3
#
#
#
# Elastic Constant Matrix: (Units=GPa)
#
#
# Indices 1 2 3 4 5 6 
#
# 1 36.7823 -2.4969 14.2406 0.0000 0.0000 0.0000
# 2 -2.4969 36.7821 14.2406 0.0000 0.0000 0.0000
# 3 14.2406 14.2406 134.8653 0.0000 0.0000 0.0000
# 4 0.0000 0.0000 0.0000 20.8939 0.0000 0.0000
# 5 0.0000 0.0000 0.0000 0.0000 20.8939 0.0000
# 6 0.0000 0.0000 0.0000 0.0000 0.0000 22.7690
#
#
#
# Elastic Compliance Matrix: (Units=1/GPa)
#
#
# Indices 1 2 3 4 5 6 
#
# 1 0.028715 0.003256 -0.003376 0.000000 0.000000 0.000000
# 2 0.003256 0.028715 -0.003376 0.000000 0.000000 0.000000
# 3 -0.003376 -0.003376 0.008128 0.000000 0.000000 0.000000
# 4 0.000000 0.000000 0.000000 0.047861 0.000000 0.000000
# 5 0.000000 0.000000 0.000000 0.000000 0.047861 0.000000
# 6 0.000000 0.000000 0.000000 0.000000 0.000000 0.043919
#
#
# Mechanical properties :
#
#
# Convention : Reuss Voigt Hill
#
# Bulk Modulus (GPa) = 17.07448 28.93316 23.00382
# Shear Modulus (GPa) = 21.57848 25.07439 23.32644
#
# Velocity S-wave (km/s) = 3.16014 3.40652 3.28564
# Velocity P-wave (km/s) = 4.60623 5.37240 5.00400
#
# Compressibility (1/GPa) = 0.05856693
#
# Stress axis : x y z
#
# Youngs Moduli (GPa) = 34.82497 34.82479 123.03548
#
# Poissons Ratio (x) = -0.11340 0.41535
# Poissons Ratio (y) = -0.11340 0.41536
# Poissons Ratio (z) = 0.11757 0.11757
#
# Static dielectric constant tensor:
#      x y z
#    x 1.784820 0.000000 0.000000 
#    y 0.000000 1.784820 0.000000 
#    z 0.000000 0.000000 1.863170 
# 
# From -- ./inp_files/2805.got.cif
#   From: 2010.05.17/outbox.cif.g08.bks.cpg/sg90_2_cif.got.tgz:2805.got - 2010.06.03 19:17:45.
