data_PCOD9547706
_publ_section_title
;
Structure prediction by ZEFSAII (Michael W. Deem and Ramdas Pophale) SiO2 
 PCOD9547706
Probable space group: P 41 2 2
;
_chemical_formula_sum "Si O2"
_cell_formula_units_Z 60
_cell_length_a 11.268575
_cell_length_b 11.268575
_cell_length_c 20.138858
_cell_angle_alpha 90.000000
_cell_angle_beta 90.000000
_cell_angle_gamma 90.000000
_cell_volume 2557.247948
_symmetry_space_group_name_H-M "P 41 2 2"
_symmetry_group_IT_number 91
_symmetry_cell_setting 'tetragonal'
loop_
_space_group_symop_operation_xyz
x,y,z
-y,x,1/4+z
-x,-y,1/2+z
y,-x,3/4+z
x,-y,1/2-z
-x,y,-z
y,x,3/4-z
-y,-x,1/4-z
loop_
_atom_site_type_symbol
_atom_site_label
_atom_site_fract_x
_atom_site_fract_y
_atom_site_fract_z
Si Si1 0.141130 0.282510 0.425012
Si Si2 0.456685 0.222152 0.123483
Si Si3 0.663346 0.023754 0.935200
Si Si4 0.817255 0.696943 0.639075
Si Si5 0.950461 0.135586 0.765598
Si Si6 0.832015 0.500000 0.750000
Si Si7 0.180184 0.456485 0.018199
Si Si8 0.442375 0.533409 0.436390
O O1 0.247963 0.247963 0.375000
O O2 0.141257 0.174003 0.475419
O O3 0.149458 0.411054 0.457297
O O4 0.017996 0.282413 0.384791
O O5 0.441575 0.116913 0.071933
O O6 0.315150 0.246181 0.136478
O O7 0.530110 0.179433 0.188047
O O8 0.499801 0.343917 0.089772
O O9 0.774075 0.046068 0.983033
O O10 0.597448 0.907888 0.961331
O O11 0.909142 0.796395 0.666973
O O12 0.788734 0.585635 0.689496
O O13 0.871850 0.640305 0.570408
O O14 0.989393 0.000000 0.750000
O O15 0.315860 0.434805 0.036588
O O16 0.500000 0.473499 0.500000
O O17 0.446229 0.446229 0.375000
#
# Coordination Sequence:
#
# PCOD9547706 Si02
#       8
#     8   8   8   8   8   4   8   8
#     4  10  19  33  53  88 124 162 203 258 343 408
#     4  11  23  37  60  88 127 171 223 275 339 415
#     4  10  22  37  59  90 125 168 220 283 348 417
#     4  10  21  36  59  91 130 167 212 271 348 422
#     4  10  20  37  64  94 130 169 218 289 350 412
#     4  10  20  38  58  86 128 168 214 282 354 418
#     4  11  21  35  57  88 128 169 202 267 334 418
#     4  11  23  40  59  87 124 171 220 259 322 406
#
# _framework density 23.462720999999998
#
# number of rings (size 3 to 8) (size 9 to 14) (size 15 to 20)
#    0.000    1.600    4.000    1.200    0.933    2.133 
#    0.000    0.000    0.000    3.200    0.000    4.667 
#    0.000    0.000    0.000    0.000    0.000    0.000 
#
# Total GULP energy -334019.872682 kJ/mol
# GULP energy per Si atom -5566.997878 kJ/mol
# Density = 2.340932 g / cm^3
# Si number density = 23.462721 Si / 1000 Ang^3
#
#
#
# Elastic Constant Matrix: (Units=GPa)
#
#
# Indices 1 2 3 4 5 6 
#
# 1 40.4782 11.5784 27.7416 0.0000 0.0000 0.0000
# 2 11.5784 40.4782 27.7416 0.0000 0.0000 0.0000
# 3 27.7416 27.7416 107.4907 0.0000 0.0000 0.0000
# 4 0.0000 0.0000 0.0000 8.4203 0.0000 0.0000
# 5 0.0000 0.0000 0.0000 0.0000 8.4203 0.0000
# 6 0.0000 0.0000 0.0000 0.0000 0.0000 18.9586
#
#
#
# Elastic Compliance Matrix: (Units=1/GPa)
#
#
# Indices 1 2 3 4 5 6 
#
# 1 0.030551 -0.004052 -0.006839 0.000000 0.000000 0.000000
# 2 -0.004052 0.030551 -0.006839 0.000000 0.000000 0.000000
# 3 -0.006839 -0.006839 0.012833 0.000000 0.000000 0.000000
# 4 0.000000 0.000000 0.000000 0.118761 0.000000 0.000000
# 5 0.000000 0.000000 0.000000 0.000000 0.118761 0.000000
# 6 0.000000 0.000000 0.000000 0.000000 0.000000 0.052747
#
#
# Mechanical properties :
#
#
# Convention : Reuss Voigt Hill
#
# Bulk Modulus (GPa) = 25.99070 35.84117 30.91594
# Shear Modulus (GPa) = 12.12160 15.25219 13.68689
#
# Velocity S-wave (km/s) = 2.27542 2.55239 2.41788
# Velocity P-wave (km/s) = 4.24322 4.89849 4.58258
#
# Compressibility (1/GPa) = 0.03847529
#
# Stress axis : x y z
#
# Youngs Moduli (GPa) = 32.73255 32.73255 77.92291
#
# Poissons Ratio (x) = 0.13262 0.53291
# Poissons Ratio (y) = 0.13262 0.53291
# Poissons Ratio (z) = 0.22386 0.22386
#
# Static dielectric constant tensor:
#      x y z
#    x 1.888390 0.000000 0.000000 
#    y 0.000000 1.888390 0.000000 
#    z 0.000000 0.000000 2.321150 
# 
# From -- ./inp_files/6474.got.cif
#   From: 2010.05.17/outbox.cif.g08.bks.cpg/sg91_4_cif.got.tgz:6474.got - 2010.06.03 19:20:03.
