data_PCOD9547430
_publ_section_title
;
Structure prediction by ZEFSAII (Michael W. Deem and Ramdas Pophale) SiO2 
 PCOD9547430
Probable space group: P 4 21 2
;
_chemical_formula_sum "Si O2"
_cell_formula_units_Z 42
_cell_length_a 8.503851
_cell_length_b 8.503851
_cell_length_c 25.899095
_cell_angle_alpha 90.000000
_cell_angle_beta 90.000000
_cell_angle_gamma 90.000000
_cell_volume 1872.905534
_symmetry_space_group_name_H-M "P 4 21 2"
_symmetry_group_IT_number 90
_symmetry_cell_setting 'tetragonal'
loop_
_space_group_symop_operation_xyz
x,y,z
1/2-y,1/2+x,z
-x,-y,z
1/2+y,1/2-x,z
1/2+x,1/2-y,-z
1/2-x,1/2+y,-z
y,x,-z
-y,-x,-z
loop_
_atom_site_type_symbol
_atom_site_label
_atom_site_fract_x
_atom_site_fract_y
_atom_site_fract_z
Si Si1 0.394652 0.656731 0.942554
Si Si2 0.395147 0.765452 0.162097
Si Si3 0.246584 0.078475 0.455459
Si Si4 0.248105 0.077778 0.750532
Si Si5 0.246738 0.080105 0.339000
Si Si6 0.500000 0.000000 0.927819
O O1 0.500000 0.500000 0.942640
O O2 0.267462 0.628722 0.898074
O O3 0.500783 0.806719 0.929137
O O4 0.324746 0.675255 0.000000
O O5 0.575938 0.800628 0.175324
O O6 0.332268 0.620203 0.195275
O O7 0.401507 0.188745 0.460097
O O8 0.128478 0.128478 0.500000
O O9 0.183654 0.100000 0.397270
O O10 0.402050 0.188820 0.747176
O O11 0.133285 0.126495 0.704419
O O12 0.402727 0.189163 0.333730
#
# Coordination Sequence:
#
# PCOD9547430 Si02
#       6
#     8   8   8   8   8   2
#     4  11  28  48  74 111 142 182 232 280 343 411
#     4  11  26  45  70  99 133 174 221 274 333 401
#     4   9  19  35  56  85 120 160 204 259 319 386
#     4  11  26  42  61  91 128 168 215 271 334 396
#     4   9  19  39  63  85 117 161 212 263 323 391
#     4  12  28  44  80 100 144 188 224 288 340 402
#
# _framework density 22.425051
#
# number of rings (size 3 to 8) (size 9 to 14) (size 15 to 20)
#    0.000    1.714    0.000    3.429   10.667    5.714 
#    0.000    5.714    0.000    0.000    0.000    0.000 
#    0.000    0.000    0.000    0.000    0.000    0.000 
#
# Total GULP energy -234687.806028 kJ/mol
# GULP energy per Si atom -5587.804905 kJ/mol
# Density = 2.237401 g / cm^3
# Si number density = 22.425051 Si / 1000 Ang^3
#
#
#
# Elastic Constant Matrix: (Units=GPa)
#
#
# Indices 1 2 3 4 5 6 
#
# 1 74.0199 31.9281 26.3072 0.0000 0.0000 0.0000
# 2 31.9281 74.0198 26.3072 0.0000 0.0000 0.0000
# 3 26.3072 26.3072 111.1452 0.0000 0.0000 0.0000
# 4 0.0000 0.0000 0.0000 48.0684 0.0000 0.0000
# 5 0.0000 0.0000 0.0000 0.0000 48.0688 0.0000
# 6 0.0000 0.0000 0.0000 0.0000 0.0000 8.7410
#
#
#
# Elastic Compliance Matrix: (Units=1/GPa)
#
#
# Indices 1 2 3 4 5 6 
#
# 1 0.017227 -0.006531 -0.002532 0.000000 0.000000 0.000000
# 2 -0.006531 0.017227 -0.002532 0.000000 0.000000 0.000000
# 3 -0.002532 -0.002532 0.010196 0.000000 0.000000 0.000000
# 4 0.000000 0.000000 0.000000 0.020804 0.000000 0.000000
# 5 0.000000 0.000000 0.000000 0.000000 0.020804 0.000000
# 6 0.000000 0.000000 0.000000 0.000000 0.000000 0.114403
#
#
# Mechanical properties :
#
#
# Convention : Reuss Voigt Hill
#
# Bulk Modulus (GPa) = 46.59651 47.58554 47.09103
# Shear Modulus (GPa) = 21.64490 32.61847 27.13169
#
# Velocity S-wave (km/s) = 3.11015 3.81800 3.48211
# Velocity P-wave (km/s) = 5.80700 6.37982 6.10014
#
# Compressibility (1/GPa) = 0.02146083
#
# Stress axis : x y z
#
# Youngs Moduli (GPa) = 58.04940 58.04927 98.08090
#
# Poissons Ratio (x) = 0.37911 0.24830
# Poissons Ratio (y) = 0.37912 0.24830
# Poissons Ratio (z) = 0.14696 0.14696
#
# Static dielectric constant tensor:
#      x y z
#    x 1.887800 0.000000 0.000000 
#    y 0.000000 1.887790 0.000000 
#    z 0.000000 0.000000 1.820490 
# 
# From -- ./inp_files/2969.got.cif
#   From: 2010.05.17/outbox.cif.g08.bks.cpg/sg90_2_cif.got.tgz:2969.got - 2010.06.03 19:17:45.
