data_PCOD9547752
_publ_section_title
;
Structure prediction by ZEFSAII (Michael W. Deem and Ramdas Pophale) SiO2 
 PCOD9547752
Probable space group: P 41 2 2
;
_chemical_formula_sum "Si O2"
_cell_formula_units_Z 44
_cell_length_a 9.214729
_cell_length_b 9.214729
_cell_length_c 27.647795
_cell_angle_alpha 90.000000
_cell_angle_beta 90.000000
_cell_angle_gamma 90.000000
_cell_volume 2347.608295
_symmetry_space_group_name_H-M "P 41 2 2"
_symmetry_group_IT_number 91
_symmetry_cell_setting 'tetragonal'
loop_
_space_group_symop_operation_xyz
x,y,z
-y,x,1/4+z
-x,-y,1/2+z
y,-x,3/4+z
x,-y,1/2-z
-x,y,-z
y,x,3/4-z
-y,-x,1/4-z
loop_
_atom_site_type_symbol
_atom_site_label
_atom_site_fract_x
_atom_site_fract_y
_atom_site_fract_z
Si Si1 0.783946 0.145681 0.531773
Si Si2 0.415604 0.226524 0.337031
Si Si3 0.236153 0.147967 0.576710
Si Si4 0.465130 0.988788 0.413706
Si Si5 0.663319 0.417521 0.365399
Si Si6 0.960018 0.960018 0.875000
O O1 0.768079 0.318244 0.539892
O O2 0.829852 0.129677 0.476707
O O3 0.638151 0.056808 0.545030
O O4 0.884575 0.095840 0.576130
O O5 0.326911 0.326911 0.375000
O O6 0.422247 0.069879 0.362928
O O7 0.569706 0.304574 0.333046
O O8 0.375218 0.045657 0.576960
O O9 0.291868 0.311398 0.589396
O O10 0.125392 0.088013 0.616874
O O11 0.457773 0.816577 0.408294
O O12 0.556955 0.556955 0.375000
#
# Coordination Sequence:
#
# PCOD9547752 Si02
#       6
#     8   8   8   8   8   4
#     4  11  19  40  64  88 113 160 212 251 289 365
#     4   8  16  33  60  81 114 155 199 243 278 341
#     4  11  24  37  63  91 117 161 207 247 310 372
#     4  10  19  36  58  88 122 153 193 242 303 365
#     4  10  20  37  60  87 121 161 191 246 308 355
#     4  12  22  40  64  88 122 156 202 264 302 350
#
# _framework density 18.74248
#
# number of rings (size 3 to 8) (size 9 to 14) (size 15 to 20)
#    0.000    1.818    4.545    2.182    1.273    0.000 
#    0.000    3.636    0.000    0.000    0.000    0.000 
#    0.000    0.000    0.000    0.000    0.000    0.000 
#
# Total GULP energy -244979.639216 kJ/mol
# GULP energy per Si atom -5567.719073 kJ/mol
# Density = 1.869982 g / cm^3
# Si number density = 18.742480 Si / 1000 Ang^3
#
#
#
# Elastic Constant Matrix: (Units=GPa)
#
#
# Indices 1 2 3 4 5 6 
#
# 1 79.9888 59.2981 34.1950 0.0000 0.0000 0.0000
# 2 59.2981 79.9888 34.1950 0.0000 0.0000 0.0000
# 3 34.1950 34.1950 83.0825 0.0000 0.0000 0.0000
# 4 0.0000 0.0000 0.0000 4.5539 0.0000 0.0000
# 5 0.0000 0.0000 0.0000 0.0000 4.5539 0.0000
# 6 0.0000 0.0000 0.0000 0.0000 0.0000 21.5709
#
#
#
# Elastic Compliance Matrix: (Units=1/GPa)
#
#
# Indices 1 2 3 4 5 6 
#
# 1 0.028664 -0.019667 -0.003703 0.000000 0.000000 0.000000
# 2 -0.019667 0.028664 -0.003703 0.000000 0.000000 0.000000
# 3 -0.003703 -0.003703 0.015085 0.000000 0.000000 0.000000
# 4 0.000000 0.000000 0.000000 0.219592 0.000000 0.000000
# 5 0.000000 0.000000 0.000000 0.000000 0.219592 0.000000
# 6 0.000000 0.000000 0.000000 0.000000 0.000000 0.046359
#
#
# Mechanical properties :
#
#
# Convention : Reuss Voigt Hill
#
# Bulk Modulus (GPa) = 54.74361 55.38182 55.06271
# Shear Modulus (GPa) = 8.08810 13.82718 10.95764
#
# Velocity S-wave (km/s) = 2.07960 2.71909 2.42056
# Velocity P-wave (km/s) = 5.91930 6.28259 6.10365
#
# Compressibility (1/GPa) = 0.01826697
#
# Stress axis : x y z
#
# Youngs Moduli (GPa) = 34.88649 34.88649 66.29266
#
# Poissons Ratio (x) = 0.68610 0.24550
# Poissons Ratio (y) = 0.68610 0.24550
# Poissons Ratio (z) = 0.12919 0.12919
#
# Static dielectric constant tensor:
#      x y z
#    x 1.713610 0.000000 0.000000 
#    y 0.000000 1.713610 0.000000 
#    z 0.000000 0.000000 1.647180 
# 
# From -- ./inp_files/7859.got.cif
#   From: 2010.05.17/outbox.cif.g08.bks.cpg/sg91_4_cif.got.tgz:7859.got - 2010.06.03 19:20:03.
