data_PCOD9547238
_publ_section_title
;
Structure prediction by ZEFSAII (Michael W. Deem and Ramdas Pophale) SiO2 
 PCOD9547238
Probable space group: P 4 21 2
;
_chemical_formula_sum "Si O2"
_cell_formula_units_Z 28
_cell_length_a 15.809707
_cell_length_b 15.809707
_cell_length_c 5.259597
_cell_angle_alpha 90.000000
_cell_angle_beta 90.000000
_cell_angle_gamma 90.000000
_cell_volume 1314.619626
_symmetry_space_group_name_H-M "P 4 21 2"
_symmetry_group_IT_number 90
_symmetry_cell_setting 'tetragonal'
loop_
_space_group_symop_operation_xyz
x,y,z
1/2-y,1/2+x,z
-x,-y,z
1/2+y,1/2-x,z
1/2+x,1/2-y,-z
1/2-x,1/2+y,-z
y,x,-z
-y,-x,-z
loop_
_atom_site_type_symbol
_atom_site_label
_atom_site_fract_x
_atom_site_fract_y
_atom_site_fract_z
Si Si1 0.961865 0.249258 0.913343
Si Si2 0.290013 0.152843 0.111986
Si Si3 0.646308 0.519207 0.390348
Si Si4 0.659074 0.340927 0.500000
O O1 0.884618 0.314344 0.908010
O O2 0.970518 0.208306 0.633295
O O3 0.055691 0.284297 0.979591
O O4 0.939300 0.183428 0.137735
O O5 0.253099 0.149515 0.397987
O O6 0.222138 0.222138 0.000000
O O7 0.563275 0.563275 0.500000
O O8 0.639251 0.420052 0.315864
#
# Coordination Sequence:
#
# PCOD9547238 Si02
#       4
#     8   8   8   4
#     4  11  26  39  69  96 132 182 224 276 341 397
#     4  11  23  45  66  95 139 173 234 278 344 406
#     4  11  22  41  62 102 127 174 222 272 346 399
#     4  10  23  40  66  92 136 179 212 292 338 406
#
# _framework density 21.298936000000001
#
# number of rings (size 3 to 8) (size 9 to 14) (size 15 to 20)
#    0.000    1.143    2.857    3.000    6.000    0.571 
#    0.000    2.857    0.000    3.429    0.000    0.000 
#    0.000    0.000    0.000    0.000    0.000    0.000 
#
# Total GULP energy -155920.703918 kJ/mol
# GULP energy per Si atom -5568.596568 kJ/mol
# Density = 2.125046 g / cm^3
# Si number density = 21.298936 Si / 1000 Ang^3
#
#
#
# Elastic Constant Matrix: (Units=GPa)
#
#
# Indices 1 2 3 4 5 6 
#
# 1 136.3764 96.1228 25.8658 0.0000 0.0000 0.0000
# 2 96.1228 136.3759 25.8651 0.0000 0.0000 0.0000
# 3 25.8658 25.8651 82.6721 0.0000 0.0000 0.0000
# 4 0.0000 0.0000 0.0000 22.2191 0.0000 0.0000
# 5 0.0000 0.0000 0.0000 0.0000 22.2196 0.0000
# 6 0.0000 0.0000 0.0000 0.0000 0.0000 41.4887
#
#
#
# Elastic Compliance Matrix: (Units=1/GPa)
#
#
# Indices 1 2 3 4 5 6 
#
# 1 0.014733 -0.010110 -0.001446 0.000000 0.000000 0.000000
# 2 -0.010110 0.014733 -0.001446 0.000000 0.000000 0.000000
# 3 -0.001446 -0.001446 0.013001 0.000000 0.000000 0.000000
# 4 0.000000 0.000000 0.000000 0.045006 0.000000 0.000000
# 5 0.000000 0.000000 0.000000 0.000000 0.045005 0.000000
# 6 0.000000 0.000000 0.000000 0.000000 0.000000 0.024103
#
#
# Mechanical properties :
#
#
# Convention : Reuss Voigt Hill
#
# Bulk Modulus (GPa) = 60.74820 72.34798 66.54809
# Shear Modulus (GPa) = 26.58537 31.02355 28.80446
#
# Velocity S-wave (km/s) = 3.53682 3.82065 3.68147
# Velocity P-wave (km/s) = 6.72774 7.31470 7.02735
#
# Compressibility (1/GPa) = 0.01646139
#
# Stress axis : x y z
#
# Youngs Moduli (GPa) = 67.87592 67.87584 76.91707
#
# Poissons Ratio (x) = 0.68622 0.11126
# Poissons Ratio (y) = 0.68622 0.11124
# Poissons Ratio (z) = 0.09818 0.09817
#
# Static dielectric constant tensor:
#      x y z
#    x 1.788400 0.000000 0.000000 
#    y 0.000000 1.788400 0.000000 
#    z 0.000000 0.000000 1.917720 
# 
# From -- ./inp_files/323.got.cif
#   From: 2010.05.17/outbox.cif.g08.bks.cpg/sg90_1_cif.got.tgz:323.got - 2010.06.03 19:17:45.
