data_PCOD9547317
_publ_section_title
;
Structure prediction by ZEFSAII (Michael W. Deem and Ramdas Pophale) SiO2 
 PCOD9547317
Probable space group: P 4 21 2
;
_chemical_formula_sum "Si O2"
_cell_formula_units_Z 44
_cell_length_a 7.923805
_cell_length_b 7.923805
_cell_length_c 31.118909
_cell_angle_alpha 90.000000
_cell_angle_beta 90.000000
_cell_angle_gamma 90.000000
_cell_volume 1953.853158
_symmetry_space_group_name_H-M "P 4 21 2"
_symmetry_group_IT_number 90
_symmetry_cell_setting 'tetragonal'
loop_
_space_group_symop_operation_xyz
x,y,z
1/2-y,1/2+x,z
-x,-y,z
1/2+y,1/2-x,z
1/2+x,1/2-y,-z
1/2-x,1/2+y,-z
y,x,-z
-y,-x,-z
loop_
_atom_site_type_symbol
_atom_site_label
_atom_site_fract_x
_atom_site_fract_y
_atom_site_fract_z
Si Si1 0.766638 0.895261 0.279146
Si Si2 0.500000 0.500000 0.884546
Si Si3 0.731195 0.403184 0.628132
Si Si4 0.766954 0.897202 0.185696
Si Si5 0.230377 0.082340 0.542280
Si Si6 0.901500 0.233670 0.044483
O O1 0.590961 0.791503 0.279194
O O2 0.851610 0.864950 0.325252
O O3 0.847778 0.863009 0.232762
O O4 0.395385 0.623143 0.853209
O O5 0.378854 0.393259 0.915852
O O6 0.793556 0.596434 0.626367
O O7 0.622654 0.360421 0.586867
O O8 0.594066 0.791418 0.183226
O O9 0.393613 0.202714 0.541123
O O10 0.126206 0.126206 0.500000
O O11 0.791229 0.403252 0.046360
O O12 0.857639 0.142362 0.000000
#
# Coordination Sequence:
#
# PCOD9547317 Si02
#       6
#     8   4   8   8   8   8
#     4   7  12  27  50  75 104 138 178 222 265 313
#     4  12  21  34  56  88 120 150 191 240 294 348
#     4   9  17  32  56  82 106 136 176 222 269 318
#     4   9  18  33  53  78 111 150 189 231 278 333
#     4  11  24  39  54  76 106 137 172 217 269 327
#     4  11  24  42  63  87 119 158 201 250 302 358
#
# _framework density 22.519604000000001
#
# number of rings (size 3 to 8) (size 9 to 14) (size 15 to 20)
#    0.000    2.364    0.000    5.727    0.000    4.000 
#    0.000    7.273    0.000    0.000    0.000    2.545 
#    0.000    0.000    0.000    0.000    0.000    0.000 
#
# Total GULP energy -245965.625034 kJ/mol
# GULP energy per Si atom -5590.127842 kJ/mol
# Density = 2.246835 g / cm^3
# Si number density = 22.519604 Si / 1000 Ang^3
#
#
#
# Elastic Constant Matrix: (Units=GPa)
#
#
# Indices 1 2 3 4 5 6 
#
# 1 50.0000 22.5916 40.7317 0.0000 0.0000 0.0000
# 2 22.5916 50.0002 40.7317 0.0000 0.0000 0.0000
# 3 40.7317 40.7317 230.0332 0.0000 0.0000 0.0000
# 4 0.0000 0.0000 0.0000 31.4664 0.0000 0.0000
# 5 0.0000 0.0000 0.0000 0.0000 31.4664 0.0000
# 6 0.0000 0.0000 0.0000 0.0000 0.0000 26.3290
#
#
#
# Elastic Compliance Matrix: (Units=1/GPa)
#
#
# Indices 1 2 3 4 5 6 
#
# 1 0.026839 -0.009647 -0.003044 0.000000 0.000000 0.000000
# 2 -0.009647 0.026838 -0.003044 0.000000 0.000000 0.000000
# 3 -0.003044 -0.003044 0.005425 0.000000 0.000000 0.000000
# 4 0.000000 0.000000 0.000000 0.031780 0.000000 0.000000
# 5 0.000000 0.000000 0.000000 0.000000 0.031780 0.000000
# 6 0.000000 0.000000 0.000000 0.000000 0.000000 0.037981
#
#
# Mechanical properties :
#
#
# Convention : Reuss Voigt Hill
#
# Bulk Modulus (GPa) = 36.18939 59.79372 47.99156
# Shear Modulus (GPa) = 24.83565 32.91758 28.87662
#
# Velocity S-wave (km/s) = 3.32451 3.82741 3.58479
# Velocity P-wave (km/s) = 5.55352 6.79276 6.20416
#
# Compressibility (1/GPa) = 0.02763240
#
# Stress axis : x y z
#
# Youngs Moduli (GPa) = 37.25990 37.26003 184.32341
#
# Poissons Ratio (x) = 0.35943 0.56111
# Poissons Ratio (y) = 0.35943 0.56111
# Poissons Ratio (z) = 0.11342 0.11342
#
# Static dielectric constant tensor:
#      x y z
#    x 1.825980 0.000000 0.000000 
#    y 0.000000 1.825980 0.000000 
#    z 0.000000 0.000000 1.850750 
# 
# From -- ./inp_files/3012.got.cif
#   From: 2010.05.17/outbox.cif.g08.bks.cpg/sg90_2_cif.got.tgz:3012.got - 2010.06.03 19:17:45.
