data_PCOD9547075
_publ_section_title
;
Structure prediction by ZEFSAII (Michael W. Deem and Ramdas Pophale) SiO2 
 PCOD9547075
Probable space group: P 4 21 2
;
_chemical_formula_sum "Si O2"
_cell_formula_units_Z 28
_cell_length_a 15.078396
_cell_length_b 15.078396
_cell_length_c 5.115062
_cell_angle_alpha 90.000000
_cell_angle_beta 90.000000
_cell_angle_gamma 90.000000
_cell_volume 1162.950399
_symmetry_space_group_name_H-M "P 4 21 2"
_symmetry_group_IT_number 90
_symmetry_cell_setting 'tetragonal'
loop_
_space_group_symop_operation_xyz
x,y,z
1/2-y,1/2+x,z
-x,-y,z
1/2+y,1/2-x,z
1/2+x,1/2-y,-z
1/2-x,1/2+y,-z
y,x,-z
-y,-x,-z
loop_
_atom_site_type_symbol
_atom_site_label
_atom_site_fract_x
_atom_site_fract_y
_atom_site_fract_z
Si Si1 0.268987 0.899675 0.327654
Si Si2 0.316356 0.457010 0.170526
Si Si3 0.081271 0.267852 0.822760
Si Si4 0.585878 0.414123 0.500000
O O1 0.330687 0.822785 0.222269
O O2 0.233353 0.894965 0.620628
O O3 0.316663 0.995619 0.303011
O O4 0.188343 0.916261 0.121235
O O5 0.400820 0.501421 0.308234
O O6 0.254580 0.545848 0.113389
O O7 0.088465 0.173122 0.680739
#
# Coordination Sequence:
#
# PCOD9547075 Si02
#       4
#     8   8   8   4
#     4   9  20  30  49  71 102 137 175 209 252 307
#     4   9  20  32  49  71  98 137 172 214 254 301
#     4   9  20  32  51  71 105 139 175 217 254 309
#     4  10  18  34  52  72  96 148 172 218 264 300
#
# _framework density 24.076691
#
# number of rings (size 3 to 8) (size 9 to 14) (size 15 to 20)
#    1.714    1.143    0.000    0.857    8.000    0.571 
#    0.000    0.000   12.571    0.000    0.000    0.000 
#    0.000   18.286   59.429    0.000    0.000    0.000 
#
# Total GULP energy -155992.417809 kJ/mol
# GULP energy per Si atom -5571.157779 kJ/mol
# Density = 2.402189 g / cm^3
# Si number density = 24.076691 Si / 1000 Ang^3
#
#
#
# Elastic Constant Matrix: (Units=GPa)
#
#
# Indices 1 2 3 4 5 6 
#
# 1 72.5471 29.3968 31.4973 0.0000 0.0000 0.0000
# 2 29.3968 72.5467 31.4973 0.0000 0.0000 0.0000
# 3 31.4973 31.4973 156.5690 0.0000 0.0000 0.0000
# 4 0.0000 0.0000 0.0000 36.0094 0.0000 0.0000
# 5 0.0000 0.0000 0.0000 0.0000 36.0091 0.0000
# 6 0.0000 0.0000 0.0000 0.0000 0.0000 25.9229
#
#
#
# Elastic Compliance Matrix: (Units=1/GPa)
#
#
# Indices 1 2 3 4 5 6 
#
# 1 0.017188 -0.005987 -0.002253 0.000000 0.000000 0.000000
# 2 -0.005987 0.017188 -0.002254 0.000000 0.000000 0.000000
# 3 -0.002253 -0.002254 0.007294 0.000000 0.000000 0.000000
# 4 0.000000 0.000000 0.000000 0.027771 0.000000 0.000000
# 5 0.000000 0.000000 0.000000 0.000000 0.027771 0.000000
# 6 0.000000 0.000000 0.000000 0.000000 0.000000 0.038576
#
#
# Mechanical properties :
#
#
# Convention : Reuss Voigt Hill
#
# Bulk Modulus (GPa) = 48.34806 54.04951 51.19878
# Shear Modulus (GPa) = 30.54946 33.53972 32.04459
#
# Velocity S-wave (km/s) = 3.56594 3.73639 3.65216
# Velocity P-wave (km/s) = 6.08926 6.41185 6.25263
#
# Compressibility (1/GPa) = 0.02068335
#
# Stress axis : x y z
#
# Youngs Moduli (GPa) = 58.17906 58.17864 137.10565
#
# Poissons Ratio (x) = 0.34829 0.30897
# Poissons Ratio (y) = 0.34829 0.30897
# Poissons Ratio (z) = 0.13111 0.13111
#
# Static dielectric constant tensor:
#      x y z
#    x 2.021210 0.000000 0.000000 
#    y 0.000000 2.021210 0.000000 
#    z 0.000000 0.000000 1.920880 
# 
# From -- ./inp_files/331.got.cif
#   From: 2010.05.17/outbox.cif.g08.bks.cpg/sg90_1_cif.got.tgz:331.got - 2010.06.03 19:17:45.
