data_PCOD9547676
_publ_section_title
;
Structure prediction by ZEFSAII (Michael W. Deem and Ramdas Pophale) SiO2 
 PCOD9547676
Probable space group: P 41 2 2
;
_chemical_formula_sum "Si O2"
_cell_formula_units_Z 52
_cell_length_a 17.331847
_cell_length_b 17.331847
_cell_length_c 10.404567
_cell_angle_alpha 90.000000
_cell_angle_beta 90.000000
_cell_angle_gamma 90.000000
_cell_volume 3125.458267
_symmetry_space_group_name_H-M "P 41 2 2"
_symmetry_group_IT_number 91
_symmetry_cell_setting 'tetragonal'
loop_
_space_group_symop_operation_xyz
x,y,z
-y,x,1/4+z
-x,-y,1/2+z
y,-x,3/4+z
x,-y,1/2-z
-x,y,-z
y,x,3/4-z
-y,-x,1/4-z
loop_
_atom_site_type_symbol
_atom_site_label
_atom_site_fract_x
_atom_site_fract_y
_atom_site_fract_z
Si Si1 0.937084 0.504277 0.104826
Si Si2 0.365678 0.171929 0.505687
Si Si3 0.278583 0.278583 0.875000
Si Si4 0.768197 0.730380 0.100408
Si Si5 0.918458 0.330235 0.523859
Si Si6 0.303214 0.592904 0.049181
Si Si7 0.778847 0.560176 0.483955
O O1 0.967084 0.500000 0.250000
O O2 0.920163 0.592056 0.061453
O O3 0.853390 0.463536 0.099143
O O4 0.000000 0.474871 0.000000
O O5 0.281079 0.197147 0.553010
O O6 0.357946 0.095574 0.420406
O O7 0.392760 0.236179 0.403762
O O8 0.420512 0.182065 0.627718
O O9 0.223315 0.266528 0.752920
O O10 0.262196 0.363889 0.929330
O O11 0.846794 0.719833 0.023519
O O12 0.715450 0.655480 0.062045
O O13 0.000000 0.290949 0.500000
O O14 0.381192 0.618809 0.125000
O O15 0.284593 0.507619 0.998919
#
# Coordination Sequence:
#
# PCOD9547676 Si02
#       7
#     8   8   4   8   8   8   8
#     4  11  24  33  49  73 107 139 167 215 260 311
#     4   9  18  31  52  76  93 138 168 211 250 319
#     4  10  22  32  50  72  90 144 174 212 266 310
#     4   9  17  34  48  72  98 133 176 206 257 306
#     4  10  19  31  52  75 107 129 168 209 262 302
#     4   9  17  29  50  72  90 122 171 224 262 298
#     4  11  20  33  53  72 102 128 185 213 267 316
#
# _framework density 16.637561000000002
#
# number of rings (size 3 to 8) (size 9 to 14) (size 15 to 20)
#    0.000    2.154    3.077    2.769    4.308    0.000 
#    0.000    0.000    0.000    0.000   74.000    0.000 
#    0.000    0.000   20.923    0.000    0.000    0.308 
#
# Total GULP energy -289611.258937 kJ/mol
# GULP energy per Si atom -5569.447287 kJ/mol
# Density = 1.659969 g / cm^3
# Si number density = 16.637561 Si / 1000 Ang^3
#
#
#
# Elastic Constant Matrix: (Units=GPa)
#
#
# Indices 1 2 3 4 5 6 
#
# 1 52.2382 18.5210 12.4368 0.0000 0.0000 0.0000
# 2 18.5210 52.2387 12.4366 0.0000 0.0000 0.0000
# 3 12.4368 12.4366 107.3978 0.0000 0.0000 0.0000
# 4 0.0000 0.0000 0.0000 17.2358 0.0000 0.0000
# 5 0.0000 0.0000 0.0000 0.0000 17.2357 0.0000
# 6 0.0000 0.0000 0.0000 0.0000 0.0000 8.7519
#
#
#
# Elastic Compliance Matrix: (Units=1/GPa)
#
#
# Indices 1 2 3 4 5 6 
#
# 1 0.022195 -0.007463 -0.001706 0.000000 0.000000 0.000000
# 2 -0.007463 0.022195 -0.001706 0.000000 0.000000 0.000000
# 3 -0.001706 -0.001706 0.009706 0.000000 0.000000 0.000000
# 4 0.000000 0.000000 0.000000 0.058019 0.000000 0.000000
# 5 0.000000 0.000000 0.000000 0.000000 0.058019 0.000000
# 6 0.000000 0.000000 0.000000 0.000000 0.000000 0.114261
#
#
# Mechanical properties :
#
#
# Convention : Reuss Voigt Hill
#
# Bulk Modulus (GPa) = 30.91521 33.18481 32.05001
# Shear Modulus (GPa) = 15.77649 19.87670 17.82659
#
# Velocity S-wave (km/s) = 3.08270 3.46018 3.27688
# Velocity P-wave (km/s) = 5.59398 5.99606 5.79851
#
# Compressibility (1/GPa) = 0.03234654
#
# Stress axis : x y z
#
# Youngs Moduli (GPa) = 45.05463 45.05516 103.02600
#
# Poissons Ratio (x) = 0.33625 0.17576
# Poissons Ratio (y) = 0.33625 0.17576
# Poissons Ratio (z) = 0.07686 0.07686
#
# Static dielectric constant tensor:
#      x y z
#    x 1.582250 0.000000 0.000000 
#    y 0.000000 1.582250 0.000000 
#    z 0.000000 0.000000 1.615040 
# 
# From -- ./inp_files/19660.got.cif
#   From: 2010.05.17/outbox.cif.g08.bks.cpg/sg91_10_cif.got.tgz:19660.got - 2010.06.03 19:20:03.
