data_PCOD9547976
_publ_section_title
;
Structure prediction by ZEFSAII (Michael W. Deem and Ramdas Pophale) SiO2 
 PCOD9547976
Probable space group: P 41 2 2
;
_chemical_formula_sum "Si O2"
_cell_formula_units_Z 56
_cell_length_a 14.230633
_cell_length_b 14.230633
_cell_length_c 12.525221
_cell_angle_alpha 90.000000
_cell_angle_beta 90.000000
_cell_angle_gamma 90.000000
_cell_volume 2536.493973
_symmetry_space_group_name_H-M "P 41 2 2"
_symmetry_group_IT_number 91
_symmetry_cell_setting 'tetragonal'
loop_
_space_group_symop_operation_xyz
x,y,z
-y,x,1/4+z
-x,-y,1/2+z
y,-x,3/4+z
x,-y,1/2-z
-x,y,-z
y,x,3/4-z
-y,-x,1/4-z
loop_
_atom_site_type_symbol
_atom_site_label
_atom_site_fract_x
_atom_site_fract_y
_atom_site_fract_z
Si Si1 0.414708 0.878830 0.420983
Si Si2 0.305265 0.633321 0.957780
Si Si3 0.052671 0.223988 0.103158
Si Si4 0.464770 0.080619 0.377061
Si Si5 0.788214 0.128920 0.030716
Si Si6 0.837203 0.274247 0.692710
Si Si7 0.523795 0.720250 0.128157
O O1 0.500000 0.858004 0.500000
O O2 0.395856 0.789944 0.348620
O O3 0.315447 0.891993 0.484273
O O4 0.448914 0.969926 0.353251
O O5 0.383382 0.657477 0.869434
O O6 0.292528 0.732943 0.015299
O O7 0.325287 0.554425 0.046066
O O8 0.099559 0.277345 0.201572
O O9 0.965382 0.175279 0.161830
O O10 0.137621 0.161825 0.057622
O O11 0.000000 0.271464 0.000000
O O12 0.500000 0.071933 0.500000
O O13 0.360411 0.125162 0.373387
O O14 0.529582 0.168656 0.337825
O O15 0.792627 0.207374 0.125000
O O16 0.822190 0.177811 0.625000
O O17 0.500000 0.720616 0.000000
#
# Coordination Sequence:
#
# PCOD9547976 Si02
#       7
#     8   8   8   8   8   8   8
#     4  11  25  43  65 102 147 183 237 305 362 437
#     4  12  24  43  72 105 143 191 244 299 378 440
#     4  10  22  42  66  98 138 194 240 289 370 447
#     4  10  20  38  67  97 138 174 233 302 364 429
#     4  10  21  41  70  94 138 187 245 293 357 455
#     4  12  20  38  71 103 139 182 239 304 369 430
#     4  11  22  43  71  99 138 187 240 300 364 443
#
# _framework density 22.077718000000001
#
# number of rings (size 3 to 8) (size 9 to 14) (size 15 to 20)
#    0.000    1.143    7.143    0.429    0.000    1.714 
#    0.000    9.286    0.000    0.000    0.000    0.000 
#    0.000    0.000    0.000    0.000    0.000    0.000 
#
# Total GULP energy -311951.008666 kJ/mol
# GULP energy per Si atom -5570.553726 kJ/mol
# Density = 2.202747 g / cm^3
# Si number density = 22.077718 Si / 1000 Ang^3
#
#
#
# Elastic Constant Matrix: (Units=GPa)
#
#
# Indices 1 2 3 4 5 6 
#
# 1 124.5015 51.5253 47.8054 0.0000 0.0000 0.0000
# 2 51.5253 124.5013 47.8060 0.0000 0.0000 0.0000
# 3 47.8054 47.8060 80.0624 0.0000 0.0000 0.0000
# 4 0.0000 0.0000 0.0000 30.4074 0.0000 0.0000
# 5 0.0000 0.0000 0.0000 0.0000 30.4069 0.0000
# 6 0.0000 0.0000 0.0000 0.0000 0.0000 15.9146
#
#
#
# Elastic Compliance Matrix: (Units=1/GPa)
#
#
# Indices 1 2 3 4 5 6 
#
# 1 0.011055 -0.002648 -0.005020 0.000000 0.000000 0.000000
# 2 -0.002648 0.011056 -0.005020 0.000000 0.000000 0.000000
# 3 -0.005020 -0.005020 0.018486 0.000000 0.000000 0.000000
# 4 0.000000 0.000000 0.000000 0.032887 0.000000 0.000000
# 5 0.000000 0.000000 0.000000 0.000000 0.032887 0.000000
# 6 0.000000 0.000000 0.000000 0.000000 0.000000 0.062835
#
#
# Mechanical properties :
#
#
# Convention : Reuss Voigt Hill
#
# Bulk Modulus (GPa) = 65.70367 69.25982 67.48175
# Shear Modulus (GPa) = 25.04309 27.47436 26.25873
#
# Velocity S-wave (km/s) = 3.37161 3.53149 3.45248
# Velocity P-wave (km/s) = 6.70685 6.93308 6.82090
#
# Compressibility (1/GPa) = 0.01521985
#
# Stress axis : x y z
#
# Youngs Moduli (GPa) = 90.45338 90.45250 54.09606
#
# Poissons Ratio (x) = 0.23948 0.27158
# Poissons Ratio (y) = 0.23949 0.27159
# Poissons Ratio (z) = 0.45410 0.45411
#
# Static dielectric constant tensor:
#      x y z
#    x 1.889630 0.000000 0.000000 
#    y 0.000000 1.889630 0.000000 
#    z 0.000000 0.000000 1.866030 
# 
# From -- ./inp_files/10865.got.cif
#   From: 2010.05.17/outbox.cif.g08.bks.cpg/sg91_6_cif.got.tgz:10865.got - 2010.06.03 19:20:03.
