data_PCOD9547210
_publ_section_title
;
Structure prediction by ZEFSAII (Michael W. Deem and Ramdas Pophale) SiO2 
 PCOD9547210
Probable space group: P 4 21 2
;
_chemical_formula_sum "Si O2"
_cell_formula_units_Z 48
_cell_length_a 8.277567
_cell_length_b 8.277567
_cell_length_c 33.821797
_cell_angle_alpha 90.000000
_cell_angle_beta 90.000000
_cell_angle_gamma 90.000000
_cell_volume 2317.405791
_symmetry_space_group_name_H-M "P 4 21 2"
_symmetry_group_IT_number 90
_symmetry_cell_setting 'tetragonal'
loop_
_space_group_symop_operation_xyz
x,y,z
1/2-y,1/2+x,z
-x,-y,z
1/2+y,1/2-x,z
1/2+x,1/2-y,-z
1/2-x,1/2+y,-z
y,x,-z
-y,-x,-z
loop_
_atom_site_type_symbol
_atom_site_label
_atom_site_fract_x
_atom_site_fract_y
_atom_site_fract_z
Si Si1 0.000000 0.000000 0.818546
Si Si2 0.762328 0.078058 0.462666
Si Si3 0.415443 0.740320 0.884453
Si Si4 0.050154 0.763252 0.751497
Si Si5 0.594577 0.257174 0.038864
Si Si6 0.265329 0.447064 0.393192
Si Si7 0.000000 0.000000 0.679132
O O1 0.913880 0.119324 0.787981
O O2 0.123601 0.095440 0.846704
O O3 0.603254 0.193119 0.463623
O O4 0.869515 0.130486 0.500000
O O5 0.869548 0.108622 0.423892
O O6 0.600003 0.803977 0.884423
O O7 0.362681 0.641131 0.923066
O O8 0.180983 0.624042 0.754543
O O9 0.033688 0.854788 0.709875
O O10 0.408633 0.200142 0.039092
O O11 0.643560 0.356441 0.000000
O O12 0.180171 0.619183 0.398944
O O13 0.350723 0.474870 0.350987
#
# Coordination Sequence:
#
# PCOD9547210 Si02
#       7
#     4   8   8   8   8   8   4
#     4  11  22  40  63  90 124 160 201 252 310 375
#     4  11  24  41  62  90 125 168 219 274 331 388
#     4  11  23  39  61  90 124 164 210 261 320 384
#     4  10  22  40  64  92 122 158 200 248 306 374
#     4  11  24  41  62  90 125 168 219 274 331 388
#     4  11  23  39  61  90 124 164 210 261 320 384
#     4  11  22  40  63  90 124 160 201 252 310 375
#
# _framework density 20.712817999999999
#
# number of rings (size 3 to 8) (size 9 to 14) (size 15 to 20)
#    0.000    1.167    0.000    6.000    0.000    6.000 
#    0.000    3.333    0.000    8.000    0.000    0.000 
#    0.000    0.000    0.000    0.000    0.000    0.000 
#
# Total GULP energy -268036.301761 kJ/mol
# GULP energy per Si atom -5584.089620 kJ/mol
# Density = 2.066567 g / cm^3
# Si number density = 20.712818 Si / 1000 Ang^3
#
#
#
# Elastic Constant Matrix: (Units=GPa)
#
#
# Indices 1 2 3 4 5 6 
#
# 1 82.3010 25.2972 40.1341 0.0000 0.0000 0.0000
# 2 25.2972 82.3012 40.1346 0.0000 0.0000 0.0000
# 3 40.1341 40.1346 133.8462 0.0000 0.0000 0.0000
# 4 0.0000 0.0000 0.0000 120.7185 0.0000 0.0000
# 5 0.0000 0.0000 0.0000 0.0000 120.7181 0.0000
# 6 0.0000 0.0000 0.0000 0.0000 0.0000 35.8487
#
#
#
# Elastic Compliance Matrix: (Units=1/GPa)
#
#
# Indices 1 2 3 4 5 6 
#
# 1 0.014757 -0.002785 -0.003590 0.000000 0.000000 0.000000
# 2 -0.002785 0.014757 -0.003590 0.000000 0.000000 0.000000
# 3 -0.003590 -0.003590 0.009624 0.000000 0.000000 0.000000
# 4 0.000000 0.000000 0.000000 0.008284 0.000000 0.000000
# 5 0.000000 0.000000 0.000000 0.000000 0.008284 0.000000
# 6 0.000000 0.000000 0.000000 0.000000 0.000000 0.027895
#
#
# Mechanical properties :
#
#
# Convention : Reuss Voigt Hill
#
# Bulk Modulus (GPa) = 52.06017 56.62004 54.34010
# Shear Modulus (GPa) = 45.48184 68.31589 56.89886
#
# Velocity S-wave (km/s) = 4.69105 5.74926 5.24690
# Velocity P-wave (km/s) = 7.38445 8.45382 7.93717
#
# Compressibility (1/GPa) = 0.01920854
#
# Stress axis : x y z
#
# Youngs Moduli (GPa) = 67.76340 67.76332 103.90585
#
# Poissons Ratio (x) = 0.18875 0.37300
# Poissons Ratio (y) = 0.18875 0.37301
# Poissons Ratio (z) = 0.24326 0.24326
#
# Static dielectric constant tensor:
#      x y z
#    x 1.688480 0.000000 0.000000 
#    y 0.000000 1.688480 0.000000 
#    z 0.000000 0.000000 1.697630 
# 
# From -- ./inp_files/3083.got.cif
#   From: 2010.05.17/outbox.cif.g08.bks.cpg/sg90_2_cif.got.tgz:3083.got - 2010.06.03 19:17:45.
