data_PCOD9547650
_publ_section_title
;
Structure prediction by ZEFSAII (Michael W. Deem and Ramdas Pophale) SiO2 
 PCOD9547650
Probable space group: P 41 2 2
;
_chemical_formula_sum "Si O2"
_cell_formula_units_Z 48
_cell_length_a 8.602964
_cell_length_b 8.602964
_cell_length_c 28.660265
_cell_angle_alpha 90.000000
_cell_angle_beta 90.000000
_cell_angle_gamma 90.000000
_cell_volume 2121.174574
_symmetry_space_group_name_H-M "P 41 2 2"
_symmetry_group_IT_number 91
_symmetry_cell_setting 'tetragonal'
loop_
_space_group_symop_operation_xyz
x,y,z
-y,x,1/4+z
-x,-y,1/2+z
y,-x,3/4+z
x,-y,1/2-z
-x,y,-z
y,x,3/4-z
-y,-x,1/4-z
loop_
_atom_site_type_symbol
_atom_site_label
_atom_site_fract_x
_atom_site_fract_y
_atom_site_fract_z
Si Si1 0.384695 0.346501 0.771263
Si Si2 0.807511 0.933816 0.302926
Si Si3 0.975270 0.382792 0.707187
Si Si4 0.142430 0.134639 0.221600
Si Si5 0.587324 0.691459 0.077938
Si Si6 0.748988 0.302287 0.924625
O O1 0.306444 0.500000 0.750000
O O2 0.280546 0.231917 0.802920
O O3 0.533252 0.413719 0.798238
O O4 0.403539 0.255032 0.722314
O O5 0.992109 0.915531 0.308495
O O6 0.793864 0.000000 0.250000
O O7 0.734197 0.068582 0.334462
O O8 0.999834 0.500000 0.750000
O O9 0.133603 0.336907 0.680205
O O10 0.926964 0.229196 0.734712
O O11 0.824289 0.457020 0.681500
O O12 0.240549 0.248283 0.190200
O O13 0.230280 0.000000 0.250000
O O14 0.604099 0.671266 0.132927
#
# Coordination Sequence:
#
# PCOD9547650 Si02
#       6
#     8   8   8   8   8   8
#     4  11  23  44  67  97 134 181 227 295 359 409
#     4   9  19  38  67  95 127 181 231 278 354 419
#     4  10  20  42  68  93 134 183 226 287 348 419
#     4  10  18  40  66  93 128 181 227 280 357 414
#     4  11  27  39  67 103 139 185 236 288 368 434
#     4  11  23  43  69  99 139 184 240 293 345 440
#
# _framework density 22.628969999999999
#
# number of rings (size 3 to 8) (size 9 to 14) (size 15 to 20)
#    0.000    1.667    5.000    2.000    4.667    3.333 
#    0.000    1.667    3.667    0.000    0.000    0.000 
#    0.000    0.000    0.000    0.000    0.000    0.000 
#
# Total GULP energy -267424.011767 kJ/mol
# GULP energy per Si atom -5571.333578 kJ/mol
# Density = 2.257746 g / cm^3
# Si number density = 22.628970 Si / 1000 Ang^3
#
#
#
# Elastic Constant Matrix: (Units=GPa)
#
#
# Indices 1 2 3 4 5 6 
#
# 1 84.2682 17.6359 7.0321 0.0000 0.0000 0.0000
# 2 17.6359 84.2682 7.0321 0.0000 0.0000 0.0000
# 3 7.0321 7.0321 68.1785 0.0000 0.0000 0.0000
# 4 0.0000 0.0000 0.0000 24.4906 0.0000 0.0000
# 5 0.0000 0.0000 0.0000 0.0000 24.4906 0.0000
# 6 0.0000 0.0000 0.0000 0.0000 0.0000 10.5195
#
#
#
# Elastic Compliance Matrix: (Units=1/GPa)
#
#
# Indices 1 2 3 4 5 6 
#
# 1 0.012481 -0.002526 -0.001027 0.000000 0.000000 0.000000
# 2 -0.002526 0.012481 -0.001027 0.000000 0.000000 0.000000
# 3 -0.001027 -0.001027 0.014879 0.000000 0.000000 0.000000
# 4 0.000000 0.000000 0.000000 0.040832 0.000000 0.000000
# 5 0.000000 0.000000 0.000000 0.000000 0.040832 0.000000
# 6 0.000000 0.000000 0.000000 0.000000 0.000000 0.095061
#
#
# Mechanical properties :
#
#
# Convention : Reuss Voigt Hill
#
# Bulk Modulus (GPa) = 32.59256 33.34611 32.96933
# Shear Modulus (GPa) = 21.19054 25.56780 23.37917
#
# Velocity S-wave (km/s) = 3.06344 3.36500 3.21776
# Velocity P-wave (km/s) = 5.19107 5.46495 5.32977
#
# Compressibility (1/GPa) = 0.03068185
#
# Stress axis : x y z
#
# Youngs Moduli (GPa) = 80.11987 80.11987 67.20796
#
# Poissons Ratio (x) = 0.20242 0.06901
# Poissons Ratio (y) = 0.20242 0.06901
# Poissons Ratio (z) = 0.08226 0.08226
#
# Static dielectric constant tensor:
#      x y z
#    x 1.809620 0.000000 0.000000 
#    y 0.000000 1.809620 0.000000 
#    z 0.000000 0.000000 1.865000 
# 
# From -- ./inp_files/18147.got.cif
#   From: 2010.05.17/outbox.cif.g08.bks.cpg/sg91_10_cif.got.tgz:18147.got - 2010.06.03 19:20:03.
