data_PCOD9547182
_publ_section_title
;
Structure prediction by ZEFSAII (Michael W. Deem and Ramdas Pophale) SiO2 
 PCOD9547182
Probable space group: P 4 21 2
;
_chemical_formula_sum "Si O2"
_cell_formula_units_Z 48
_cell_length_a 7.678302
_cell_length_b 7.678302
_cell_length_c 35.217986
_cell_angle_alpha 90.000000
_cell_angle_beta 90.000000
_cell_angle_gamma 90.000000
_cell_volume 2076.322909
_symmetry_space_group_name_H-M "P 4 21 2"
_symmetry_group_IT_number 90
_symmetry_cell_setting 'tetragonal'
loop_
_space_group_symop_operation_xyz
x,y,z
1/2-y,1/2+x,z
-x,-y,z
1/2+y,1/2-x,z
1/2+x,1/2-y,-z
1/2-x,1/2+y,-z
y,x,-z
-y,-x,-z
loop_
_atom_site_type_symbol
_atom_site_label
_atom_site_fract_x
_atom_site_fract_y
_atom_site_fract_z
Si Si1 0.000000 0.000000 0.733984
Si Si2 0.727990 0.386410 0.203056
Si Si3 0.115922 0.227372 0.120790
Si Si4 0.000000 0.000000 0.396095
Si Si5 0.105899 0.773674 0.669002
Si Si6 0.773685 0.896766 0.960184
Si Si7 0.771510 0.895357 0.540472
O O1 0.899248 0.866829 0.761623
O O2 0.127237 0.893173 0.706114
O O3 0.782698 0.590976 0.204857
O O4 0.643742 0.348195 0.161701
O O5 0.217412 0.412126 0.120861
O O6 0.148858 0.136438 0.080233
O O7 0.107518 0.873458 0.368219
O O8 0.869431 0.898712 0.424110
O O9 0.216334 0.598218 0.669041
O O10 0.596589 0.785194 0.959954
O O11 0.863613 0.863613 0.000000
O O12 0.596850 0.783785 0.542678
O O13 0.857107 0.857107 0.500000
#
# Coordination Sequence:
#
# PCOD9547182 Si02
#       7
#     4   8   8   4   8   8   8
#     4  11  20  32  53  80 104 128 167 216 264 319
#     4   9  17  31  51  73  97 127 164 206 252 304
#     4   7  12  26  46  65  88 120 157 196 239 289
#     4  11  21  38  61  84 110 148 203 244 273 321
#     4  10  22  38  55  77 109 146 179 219 275 334
#     4   9  17  30  47  67  93 125 160 199 242 289
#     4  11  23  39  61  90 125 161 199 247 296 341
#
# _framework density 23.117788999999998
#
# number of rings (size 3 to 8) (size 9 to 14) (size 15 to 20)
#    0.000    2.500    0.000    5.250    0.000    0.333 
#    0.000    6.667    0.000    8.000    0.000    2.333 
#    0.000    0.000    0.000    0.000    0.000    0.000 
#
# Total GULP energy -268119.781626 kJ/mol
# GULP energy per Si atom -5585.828784 kJ/mol
# Density = 2.306517 g / cm^3
# Si number density = 23.117789 Si / 1000 Ang^3
#
#
#
# Elastic Constant Matrix: (Units=GPa)
#
#
# Indices 1 2 3 4 5 6 
#
# 1 42.5942 -6.5705 21.7677 0.0000 0.0000 0.0000
# 2 -6.5705 42.5942 21.7677 0.0000 0.0000 0.0000
# 3 21.7677 21.7677 212.9321 0.0000 0.0000 0.0000
# 4 0.0000 0.0000 0.0000 28.2552 0.0000 0.0000
# 5 0.0000 0.0000 0.0000 0.0000 28.2552 0.0000
# 6 0.0000 0.0000 0.0000 0.0000 0.0000 15.6122
#
#
#
# Elastic Compliance Matrix: (Units=1/GPa)
#
#
# Indices 1 2 3 4 5 6 
#
# 1 0.026006 0.005666 -0.003238 0.000000 0.000000 0.000000
# 2 0.005666 0.026006 -0.003238 0.000000 0.000000 0.000000
# 3 -0.003238 -0.003238 0.005358 0.000000 0.000000 0.000000
# 4 0.000000 0.000000 0.000000 0.035392 0.000000 0.000000
# 5 0.000000 0.000000 0.000000 0.000000 0.035392 0.000000
# 6 0.000000 0.000000 0.000000 0.000000 0.000000 0.064052
#
#
# Mechanical properties :
#
#
# Convention : Reuss Voigt Hill
#
# Bulk Modulus (GPa) = 17.93656 41.33892 29.63774
# Shear Modulus (GPa) = 23.53948 31.83489 27.68718
#
# Velocity S-wave (km/s) = 3.19445 3.71492 3.46447
# Velocity P-wave (km/s) = 4.62403 6.02673 5.37137
#
# Compressibility (1/GPa) = 0.05575206
#
# Stress axis : x y z
#
# Youngs Moduli (GPa) = 38.45241 38.45241 186.62525
#
# Poissons Ratio (x) = -0.21789 0.60426
# Poissons Ratio (y) = -0.21789 0.60426
# Poissons Ratio (z) = 0.12450 0.12450
#
# Static dielectric constant tensor:
#      x y z
#    x 1.841300 0.000000 0.000000 
#    y 0.000000 1.841300 0.000000 
#    z 0.000000 0.000000 1.907940 
# 
# From -- ./inp_files/3074.got.cif
#   From: 2010.05.17/outbox.cif.g08.bks.cpg/sg90_2_cif.got.tgz:3074.got - 2010.06.03 19:17:45.
