data_PCOD9547042
_publ_section_title
;
Structure prediction by ZEFSAII (Michael W. Deem and Ramdas Pophale) SiO2 
 PCOD9547042
Probable space group: P 4 2 2
;
_chemical_formula_sum "Si O2"
_cell_formula_units_Z 42
_cell_length_a 8.160995
_cell_length_b 8.160995
_cell_length_c 29.605360
_cell_angle_alpha 90.000000
_cell_angle_beta 90.000000
_cell_angle_gamma 90.000000
_cell_volume 1971.771432
_symmetry_space_group_name_H-M "P 4 2 2"
_symmetry_group_IT_number 89
_symmetry_cell_setting 'tetragonal'
loop_
_space_group_symop_operation_xyz
x,y,z
-y,x,z
-x,-y,z
y,-x,z
x,-y,-z
-x,y,-z
y,x,-z
-y,-x,-z
loop_
_atom_site_type_symbol
_atom_site_label
_atom_site_fract_x
_atom_site_fract_y
_atom_site_fract_z
Si Si1 0.269031 0.352424 0.356398
Si Si2 0.259310 0.910744 0.072963
Si Si3 0.823913 0.212418 0.547436
Si Si4 0.254495 0.633122 0.739447
Si Si5 0.500000 0.000000 0.000000
Si Si6 0.615126 0.246389 0.162360
O O1 0.452302 0.282119 0.354700
O O2 0.213022 0.297983 0.405497
O O3 0.179183 0.311674 0.308722
O O4 0.336287 0.869079 0.121321
O O5 0.098059 0.800079 0.068940
O O6 0.388561 0.890283 0.032952
O O7 0.737015 0.262986 0.500000
O O8 0.020614 0.220340 0.547058
O O9 0.287995 0.436909 0.739628
O O10 0.174402 0.661766 0.788182
O O11 0.708124 0.422277 0.159436
#
# Coordination Sequence:
#
# PCOD9547042 Si02
#       6
#     8   8   8   8   2   8
#     4   9  17  30  50  77 105 132 169 219 271 321
#     4  11  24  41  61  87 119 152 186 232 291 342
#     4   9  19  35  50  64  90 132 177 219 268 327
#     4   7  12  26  49  76 107 142 178 218 263 313
#     4  12  24  42  64  82 108 150 192 226 272 344
#     4   9  17  33  59  87 114 150 195 232 266 323
#
# _framework density 21.300640000000001
#
# number of rings (size 3 to 8) (size 9 to 14) (size 15 to 20)
#    0.000    2.857    0.000    4.571    0.000    2.286 
#    0.000    4.762    0.000   10.286    0.000    0.000 
#    0.000    0.000    0.000    0.000    0.000    0.000 
#
# Total GULP energy -233918.473065 kJ/mol
# GULP energy per Si atom -5569.487454 kJ/mol
# Density = 2.125216 g / cm^3
# Si number density = 21.300640 Si / 1000 Ang^3
#
#
#
# Elastic Constant Matrix: (Units=GPa)
#
#
# Indices 1 2 3 4 5 6 
#
# 1 -194.5930 246.3334 51.1849 0.0000 0.0000 0.0000
# 2 246.3334 -194.5885 51.1925 0.0000 0.0000 0.0000
# 3 51.1849 51.1925 265.1470 0.0000 0.0000 0.0000
# 4 0.0000 0.0000 0.0000 -11.8157 0.0000 0.0000
# 5 0.0000 0.0000 0.0000 0.0000 -11.8176 0.0000
# 6 0.0000 0.0000 0.0000 0.0000 0.0000 21.9452
#
#
#
# Elastic Compliance Matrix: (Units=1/GPa)
#
#
# Indices 1 2 3 4 5 6 
#
# 1 0.014502 0.016770 -0.006037 0.000000 0.000000 0.000000
# 2 0.016770 0.014502 -0.006037 0.000000 0.000000 0.000000
# 3 -0.006037 -0.006037 0.006103 0.000000 0.000000 0.000000
# 4 0.000000 0.000000 0.000000 -0.084633 0.000000 0.000000
# 5 0.000000 0.000000 0.000000 0.000000 -0.084619 0.000000
# 6 0.000000 0.000000 0.000000 0.000000 0.000000 0.045568
#
#
# Mechanical properties :
#
#
# Convention : Reuss Voigt Hill
#
# Bulk Modulus (GPa) = 22.47350 63.70968 43.09159
# Shear Modulus (GPa) = -60.14176 -31.85396 -45.99786
#
# Velocity S-wave (km/s) = -5.31940 -3.87130 -4.65204
# Velocity P-wave (km/s) = 5.21100 3.16103 2.92937
#
# Compressibility (1/GPa) = 0.04449685
#
# Stress axis : x y z
#
# Youngs Moduli (GPa) = 68.95715 68.95661 163.86570
#
# Poissons Ratio (x) = -1.15639 0.98930
# Poissons Ratio (y) = -1.15640 0.98929
# Poissons Ratio (z) = 0.41631 0.41631
#
# Static dielectric constant tensor:
#      x y z
#    x 1.784340 0.000000 0.000000 
#    y 0.000000 1.784340 0.000000 
#    z 0.000000 0.000000 1.881280 
# 
# From -- ./inp_files/2848.got.cif
#   From: 2010.05.17/outbox.cif.g08.bks.cpg/sg89_2_cif.got.tgz:2848.got - 2010.06.03 19:15:31.
