data_PCOD9547948
_publ_section_title
;
Structure prediction by ZEFSAII (Michael W. Deem and Ramdas Pophale) SiO2 
 PCOD9547948
Probable space group: P 41 2 2
;
_chemical_formula_sum "Si O2"
_cell_formula_units_Z 48
_cell_length_a 7.799617
_cell_length_b 7.799617
_cell_length_c 29.531792
_cell_angle_alpha 90.000000
_cell_angle_beta 90.000000
_cell_angle_gamma 90.000000
_cell_volume 1796.537783
_symmetry_space_group_name_H-M "P 41 2 2"
_symmetry_group_IT_number 91
_symmetry_cell_setting 'tetragonal'
loop_
_space_group_symop_operation_xyz
x,y,z
-y,x,1/4+z
-x,-y,1/2+z
y,-x,3/4+z
x,-y,1/2-z
-x,y,-z
y,x,3/4-z
-y,-x,1/4-z
loop_
_atom_site_type_symbol
_atom_site_label
_atom_site_fract_x
_atom_site_fract_y
_atom_site_fract_z
Si Si1 0.570839 0.823933 0.889388
Si Si2 0.581137 0.747719 0.449806
Si Si3 0.881183 0.238367 0.342033
Si Si4 0.224293 0.097458 0.565931
Si Si5 0.679218 0.387116 0.485064
Si Si6 0.573786 0.901956 0.202938
O O1 0.645283 0.645283 0.875000
O O2 0.401080 0.813194 0.917496
O O3 0.518296 0.937441 0.844913
O O4 0.712407 0.925119 0.917958
O O5 0.500000 0.777118 0.500000
O O6 0.424810 0.784394 0.414439
O O7 0.659526 0.554232 0.451132
O O8 0.723673 0.899780 0.442829
O O9 0.885068 0.140546 0.389935
O O10 0.773394 0.119962 0.308570
O O11 0.187875 0.234302 0.526451
O O12 0.500000 0.307031 0.500000
O O13 0.727475 0.485805 0.531373
O O14 0.556625 0.000000 0.250000
#
# Coordination Sequence:
#
# PCOD9547948 Si02
#       6
#     8   8   8   8   8   8
#     4  10  22  40  62  90 124 168 216 268 323 407
#     4  10  20  38  60  91 128 160 215 277 319 394
#     4  10  21  42  58  87 132 159 207 269 323 394
#     4  10  22  36  65  90 122 170 210 267 341 383
#     4  11  20  37  63  92 122 162 219 264 331 393
#     4  11  22  40  63  93 128 167 213 272 330 399
#
# _framework density 26.718055
#
# number of rings (size 3 to 8) (size 9 to 14) (size 15 to 20)
#    0.000    1.667    3.333    2.500    2.333    1.333 
#    3.000    0.833    0.000    0.000    0.000    0.000 
#    0.000    0.000    0.000    0.000    0.000    0.000 
#
# Total GULP energy -267657.623988 kJ/mol
# GULP energy per Si atom -5576.200500 kJ/mol
# Density = 2.665724 g / cm^3
# Si number density = 26.718055 Si / 1000 Ang^3
#
#
#
# Elastic Constant Matrix: (Units=GPa)
#
#
# Indices 1 2 3 4 5 6 
#
# 1 83.0717 16.2436 15.3390 0.0000 0.0000 0.0000
# 2 16.2436 83.0717 15.3390 0.0000 0.0000 0.0000
# 3 15.3390 15.3390 87.8885 0.0000 0.0000 0.0000
# 4 0.0000 0.0000 0.0000 32.5693 0.0000 0.0000
# 5 0.0000 0.0000 0.0000 0.0000 32.5693 0.0000
# 6 0.0000 0.0000 0.0000 0.0000 0.0000 20.9577
#
#
#
# Elastic Compliance Matrix: (Units=1/GPa)
#
#
# Indices 1 2 3 4 5 6 
#
# 1 0.012803 -0.002161 -0.001857 0.000000 0.000000 0.000000
# 2 -0.002161 0.012803 -0.001857 0.000000 0.000000 0.000000
# 3 -0.001857 -0.001857 0.012026 0.000000 0.000000 0.000000
# 4 0.000000 0.000000 0.000000 0.030704 0.000000 0.000000
# 5 0.000000 0.000000 0.000000 0.000000 0.030704 0.000000
# 6 0.000000 0.000000 0.000000 0.000000 0.000000 0.047715
#
#
# Mechanical properties :
#
#
# Convention : Reuss Voigt Hill
#
# Bulk Modulus (GPa) = 38.63690 38.65282 38.64486
# Shear Modulus (GPa) = 29.91616 31.02661 30.47138
#
# Velocity S-wave (km/s) = 3.34982 3.41142 3.38076
# Velocity P-wave (km/s) = 5.42716 5.47863 5.45296
#
# Compressibility (1/GPa) = 0.02588199
#
# Stress axis : x y z
#
# Youngs Moduli (GPa) = 78.10522 78.10522 83.15037
#
# Poissons Ratio (x) = 0.16875 0.15445
# Poissons Ratio (y) = 0.16875 0.15445
# Poissons Ratio (z) = 0.14508 0.14508
#
# Static dielectric constant tensor:
#      x y z
#    x 2.215880 0.000000 0.000000 
#    y 0.000000 2.215880 0.000000 
#    z 0.000000 0.000000 2.356720 
# 
# From -- ./inp_files/7914.got.cif
#   From: 2010.05.17/outbox.cif.g08.bks.cpg/sg91_4_cif.got.tgz:7914.got - 2010.06.03 19:20:03.
