data_PCOD9547336
_publ_section_title
;
Structure prediction by ZEFSAII (Michael W. Deem and Ramdas Pophale) SiO2 
 PCOD9547336
Probable space group: P 4 21 2
;
_chemical_formula_sum "Si O2"
_cell_formula_units_Z 40
_cell_length_a 8.132319
_cell_length_b 8.132319
_cell_length_c 26.679647
_cell_angle_alpha 90.000000
_cell_angle_beta 90.000000
_cell_angle_gamma 90.000000
_cell_volume 1764.448111
_symmetry_space_group_name_H-M "P 4 21 2"
_symmetry_group_IT_number 90
_symmetry_cell_setting 'tetragonal'
loop_
_space_group_symop_operation_xyz
x,y,z
1/2-y,1/2+x,z
-x,-y,z
1/2+y,1/2-x,z
1/2+x,1/2-y,-z
1/2-x,1/2+y,-z
y,x,-z
-y,-x,-z
loop_
_atom_site_type_symbol
_atom_site_label
_atom_site_fract_x
_atom_site_fract_y
_atom_site_fract_z
Si Si1 0.914632 0.236950 0.755428
Si Si2 0.088354 0.763141 0.950790
Si Si3 0.736636 0.585944 0.452275
Si Si4 0.091920 0.763049 0.341652
Si Si5 0.263443 0.413441 0.147303
O O1 0.800544 0.399727 0.757838
O O2 0.877446 0.145482 0.703584
O O3 0.862172 0.127421 0.802451
O O4 0.200462 0.598349 0.950948
O O5 0.132718 0.864342 0.901272
O O6 0.135050 0.864950 0.000000
O O7 0.801354 0.400007 0.454478
O O8 0.629136 0.629136 0.500000
O O9 0.116502 0.837706 0.397129
O O10 0.200560 0.595898 0.337998
O O11 0.199728 0.599561 0.146477
#
# Coordination Sequence:
#
# PCOD9547336 Si02
#       5
#     8   8   8   8   8
#     4  11  24  39  56  83 116 147 183 229 280 334
#     4  11  24  41  62  90 122 155 194 237 280 331
#     4   9  19  35  54  78 109 143 181 227 276 328
#     4   9  19  37  58  79 106 143 186 229 275 330
#     4  11  24  41  62  88 116 149 191 235 280 333
#
# _framework density 22.669979999999999
#
# number of rings (size 3 to 8) (size 9 to 14) (size 15 to 20)
#    0.000    1.800    0.000    4.800    0.000   14.400 
#    0.000    6.000    0.000    0.000    0.000    0.000 
#    0.000    0.000    0.000    0.000    0.000    0.000 
#
# Total GULP energy -224248.668317 kJ/mol
# GULP energy per Si atom -5606.216708 kJ/mol
# Density = 2.261838 g / cm^3
# Si number density = 22.669980 Si / 1000 Ang^3
#
#
#
# Elastic Constant Matrix: (Units=GPa)
#
#
# Indices 1 2 3 4 5 6 
#
# 1 87.8015 55.1872 63.4890 0.0000 0.0000 0.0000
# 2 55.1872 87.8009 63.4886 0.0000 0.0000 0.0000
# 3 63.4890 63.4886 220.8318 0.0000 0.0000 0.0000
# 4 0.0000 0.0000 0.0000 349.5052 0.0000 0.0000
# 5 0.0000 0.0000 0.0000 0.0000 349.5014 0.0000
# 6 0.0000 0.0000 0.0000 0.0000 0.0000 47.0804
#
#
#
# Elastic Compliance Matrix: (Units=1/GPa)
#
#
# Indices 1 2 3 4 5 6 
#
# 1 0.020026 -0.010635 -0.002700 0.000000 0.000000 0.000000
# 2 -0.010635 0.020027 -0.002700 0.000000 0.000000 0.000000
# 3 -0.002700 -0.002700 0.006081 0.000000 0.000000 0.000000
# 4 0.000000 0.000000 0.000000 0.002861 0.000000 0.000000
# 5 0.000000 0.000000 0.000000 0.000000 0.002861 0.000000
# 6 0.000000 0.000000 0.000000 0.000000 0.000000 0.021240
#
#
# Mechanical properties :
#
#
# Convention : Reuss Voigt Hill
#
# Bulk Modulus (GPa) = 71.10661 84.52933 77.81797
# Shear Modulus (GPa) = 45.51474 163.50202 104.50838
#
# Velocity S-wave (km/s) = 4.48561 8.50172 6.79706
# Velocity P-wave (km/s) = 7.63293 11.56461 9.79801
#
# Compressibility (1/GPa) = 0.01406339
#
# Stress axis : x y z
#
# Youngs Moduli (GPa) = 49.93408 49.93378 164.45198
#
# Poissons Ratio (x) = 0.53106 0.44402
# Poissons Ratio (y) = 0.53106 0.44401
# Poissons Ratio (z) = 0.13482 0.13482
#
# Static dielectric constant tensor:
#      x y z
#    x 1.817780 0.000000 0.000000 
#    y 0.000000 1.817780 0.000000 
#    z 0.000000 0.000000 1.783120 
# 
# From -- ./inp_files/2964.got.cif
#   From: 2010.05.17/outbox.cif.g08.bks.cpg/sg90_2_cif.got.tgz:2964.got - 2010.06.03 19:17:45.
