data_PCOD9547173
_publ_section_title
;
Structure prediction by ZEFSAII (Michael W. Deem and Ramdas Pophale) SiO2 
 PCOD9547173
Probable space group: P 4 21 2
;
_chemical_formula_sum "Si O2"
_cell_formula_units_Z 24
_cell_length_a 12.731192
_cell_length_b 12.731192
_cell_length_c 5.631329
_cell_angle_alpha 90.000000
_cell_angle_beta 90.000000
_cell_angle_gamma 90.000000
_cell_volume 912.744105
_symmetry_space_group_name_H-M "P 4 21 2"
_symmetry_group_IT_number 90
_symmetry_cell_setting 'tetragonal'
loop_
_space_group_symop_operation_xyz
x,y,z
1/2-y,1/2+x,z
-x,-y,z
1/2+y,1/2-x,z
1/2+x,1/2-y,-z
1/2-x,1/2+y,-z
y,x,-z
-y,-x,-z
loop_
_atom_site_type_symbol
_atom_site_label
_atom_site_fract_x
_atom_site_fract_y
_atom_site_fract_z
Si Si1 0.640028 0.400769 0.247580
Si Si2 0.673617 0.011094 0.547317
Si Si3 0.171517 0.755632 0.752965
O O1 0.584820 0.415181 0.500000
O O2 0.733941 0.483751 0.274576
O O3 0.678842 0.276134 0.247976
O O4 0.584105 0.415896 0.000000
O O5 0.593242 0.105450 0.585805
O O6 0.711428 0.052881 0.286859
O O7 0.185520 0.814481 0.500000
O O8 0.184683 0.815318 0.000000
#
# Coordination Sequence:
#
# PCOD9547173 Si02
#       3
#     8   8   8
#     4  10  21  43  64  99 160 208 234 320 427 472
#     4  11  22  42  76 119 152 201 284 344 390 485
#     4  10  21  43  64  99 160 208 234 320 427 472
#
# _framework density 26.294339000000001
#
# number of rings (size 3 to 8) (size 9 to 14) (size 15 to 20)
#    0.000    1.667    6.667    0.000    0.000    2.667 
#    0.000    0.000    0.000    1.000    0.000    9.333 
#    0.000    0.000    0.000    0.000    0.000    0.000 
#
# Total GULP energy -133605.652648 kJ/mol
# GULP energy per Si atom -5566.902194 kJ/mol
# Density = 2.623449 g / cm^3
# Si number density = 26.294339 Si / 1000 Ang^3
#
#
#
# Elastic Constant Matrix: (Units=GPa)
#
#
# Indices 1 2 3 4 5 6 
#
# 1 134.9272 66.1903 68.7319 0.0000 0.0000 0.0000
# 2 66.1903 134.9347 68.7300 0.0000 0.0000 0.0000
# 3 68.7319 68.7300 236.0370 0.0000 0.0000 0.0000
# 4 0.0000 0.0000 0.0000 5.6252 0.0000 0.0000
# 5 0.0000 0.0000 0.0000 0.0000 5.6252 0.0000
# 6 0.0000 0.0000 0.0000 0.0000 0.0000 39.9427
#
#
#
# Elastic Compliance Matrix: (Units=1/GPa)
#
#
# Indices 1 2 3 4 5 6 
#
# 1 0.010378 -0.004170 -0.001808 0.000000 0.000000 0.000000
# 2 -0.004170 0.010377 -0.001807 0.000000 0.000000 0.000000
# 3 -0.001808 -0.001807 0.005289 0.000000 0.000000 0.000000
# 4 0.000000 0.000000 0.000000 0.177772 0.000000 0.000000
# 5 0.000000 0.000000 0.000000 0.000000 0.177772 0.000000
# 6 0.000000 0.000000 0.000000 0.000000 0.000000 0.025036
#
#
# Mechanical properties :
#
#
# Convention : Reuss Voigt Hill
#
# Bulk Modulus (GPa) = 95.47299 101.46701 98.47000
# Shear Modulus (GPa) = 11.74577 30.38841 21.06709
#
# Velocity S-wave (km/s) = 2.11583 3.40325 2.83362
# Velocity P-wave (km/s) = 6.50824 7.35632 6.94524
#
# Compressibility (1/GPa) = 0.01047417
#
# Stress axis : x y z
#
# Youngs Moduli (GPa) = 96.35881 96.36605 189.06092
#
# Poissons Ratio (x) = 0.40184 0.34177
# Poissons Ratio (y) = 0.40181 0.34171
# Poissons Ratio (z) = 0.17419 0.17417
#
# Static dielectric constant tensor:
#      x y z
#    x 2.229370 0.000000 0.000000 
#    y 0.000000 2.229370 0.000000 
#    z 0.000000 0.000000 2.049500 
# 
# From -- ./inp_files/127.got.cif
#   From: 2010.05.17/outbox.cif.g08.bks.cpg/sg90_1_cif.got.tgz:127.got - 2010.06.03 19:17:45.
