data_PCOD9547006
_publ_section_title
;
Structure prediction by ZEFSAII (Michael W. Deem and Ramdas Pophale) SiO2 
 PCOD9547006
Probable space group: P 4 2 2
;
_chemical_formula_sum "Si O2"
_cell_formula_units_Z 48
_cell_length_a 8.510004
_cell_length_b 8.510004
_cell_length_c 31.889666
_cell_angle_alpha 90.000000
_cell_angle_beta 90.000000
_cell_angle_gamma 90.000000
_cell_volume 2309.454972
_symmetry_space_group_name_H-M "P 4 2 2"
_symmetry_group_IT_number 89
_symmetry_cell_setting 'tetragonal'
loop_
_space_group_symop_operation_xyz
x,y,z
-y,x,z
-x,-y,z
y,-x,z
x,-y,-z
-x,y,-z
y,x,-z
-y,-x,-z
loop_
_atom_site_type_symbol
_atom_site_label
_atom_site_fract_x
_atom_site_fract_y
_atom_site_fract_z
Si Si1 0.256709 0.402037 0.828988
Si Si2 0.748448 0.918493 0.245126
Si Si3 0.149294 0.777429 0.090400
Si Si4 0.744644 0.923301 0.339537
Si Si5 0.764381 0.500000 0.500000
Si Si6 0.762185 0.547937 0.591640
Si Si7 0.811207 0.188794 0.000000
O O1 0.417413 0.303214 0.824575
O O2 0.134645 0.359775 0.792635
O O3 0.195508 0.345488 0.874090
O O4 0.682852 0.899449 0.292116
O O5 0.904227 0.810378 0.241771
O O6 0.223713 0.733862 0.044825
O O7 0.959061 0.792391 0.094226
O O8 0.615157 0.878412 0.373511
O O9 0.899776 0.812165 0.343843
O O10 0.649388 0.649388 0.500000
O O11 0.838445 0.530384 0.545382
O O12 0.618953 0.674137 0.595460
O O13 0.000000 0.211010 0.000000
#
# Coordination Sequence:
#
# PCOD9547006 Si02
#       7
#     8   8   8   8   4   8   4
#     4  11  24  37  48  70 107 144 176 214 262 315
#     4   9  19  37  58  77  99 133 176 217 260 314
#     4   9  17  32  56  81 102 130 172 220 269 320
#     4   9  19  35  54  79 111 140 168 211 266 318
#     4   7  12  26  48  69  94 127 164 203 240 277
#     4   9  17  30  52  77 103 136 174 213 250 293
#     4   7  12  26  50  79 104 124 160 219 272 313
#
# _framework density 20.784127000000002
#
# number of rings (size 3 to 8) (size 9 to 14) (size 15 to 20)
#    0.000    3.000    0.000    4.000    0.000    6.000 
#    0.000    5.833    0.000   25.000    0.000   10.500 
#    0.000    0.000    0.000    0.000    0.000    0.000 
#
# Total GULP energy -267307.426669 kJ/mol
# GULP energy per Si atom -5568.904722 kJ/mol
# Density = 2.073682 g / cm^3
# Si number density = 20.784127 Si / 1000 Ang^3
#
#
#
# Elastic Constant Matrix: (Units=GPa)
#
#
# Indices 1 2 3 4 5 6 
#
# 1 36.0841 37.0560 44.1968 0.0000 0.0000 0.0000
# 2 37.0560 36.0839 44.1969 0.0000 0.0000 0.0000
# 3 44.1968 44.1969 177.1472 0.0000 0.0000 0.0000
# 4 0.0000 0.0000 0.0000 16.0041 0.0000 0.0000
# 5 0.0000 0.0000 0.0000 0.0000 16.0042 0.0000
# 6 0.0000 0.0000 0.0000 0.0000 0.0000 30.4398
#
#
#
# Elastic Compliance Matrix: (Units=1/GPa)
#
#
# Indices 1 2 3 4 5 6 
#
# 1 -0.504596 0.524173 -0.004884 0.000000 0.000000 0.000000
# 2 0.524173 -0.504600 -0.004883 0.000000 0.000000 0.000000
# 3 -0.004884 -0.004883 0.008082 0.000000 0.000000 0.000000
# 4 0.000000 0.000000 0.000000 0.062484 0.000000 0.000000
# 5 0.000000 0.000000 0.000000 0.000000 0.062483 0.000000
# 6 0.000000 0.000000 0.000000 0.000000 0.000000 0.032852
#
#
# Mechanical properties :
#
#
# Convention : Reuss Voigt Hill
#
# Bulk Modulus (GPa) = 36.10584 55.57939 45.84261
# Shear Modulus (GPa) = -2.68403 20.74732 9.03165
#
# Velocity S-wave (km/s) = -1.13762 3.16290 2.08684
# Velocity P-wave (km/s) = 3.96030 6.33545 5.28308
#
# Compressibility (1/GPa) = 0.02769635
#
# Stress axis : x y z
#
# Youngs Moduli (GPa) = -1.98179 -1.98177 123.73283
#
# Poissons Ratio (x) = 1.03879 0.60435
# Poissons Ratio (y) = 1.03880 0.60420
# Poissons Ratio (z) = -0.00968 -0.00968
#
# Static dielectric constant tensor:
#      x y z
#    x 1.749660 0.000000 0.000000 
#    y 0.000000 1.749660 0.000000 
#    z 0.000000 0.000000 1.801170 
# 
# From -- ./inp_files/3026.got.cif
#   From: 2010.05.17/outbox.cif.g08.bks.cpg/sg89_2_cif.got.tgz:3026.got - 2010.06.03 19:15:31.
