data_PCOD9547619
_publ_section_title
;
Structure prediction by ZEFSAII (Michael W. Deem and Ramdas Pophale) SiO2 
 PCOD9547619
Probable space group: P 41 2 2
;
_chemical_formula_sum "Si O2"
_cell_formula_units_Z 40
_cell_length_a 7.709982
_cell_length_b 7.709982
_cell_length_c 25.694079
_cell_angle_alpha 90.000000
_cell_angle_beta 90.000000
_cell_angle_gamma 90.000000
_cell_volume 1527.354270
_symmetry_space_group_name_H-M "P 41 2 2"
_symmetry_group_IT_number 91
_symmetry_cell_setting 'tetragonal'
loop_
_space_group_symop_operation_xyz
x,y,z
-y,x,1/4+z
-x,-y,1/2+z
y,-x,3/4+z
x,-y,1/2-z
-x,y,-z
y,x,3/4-z
-y,-x,1/4-z
loop_
_atom_site_type_symbol
_atom_site_label
_atom_site_fract_x
_atom_site_fract_y
_atom_site_fract_z
Si Si1 0.630737 0.181123 0.278233
Si Si2 0.266036 0.164230 0.535388
Si Si3 0.531246 0.332307 0.178227
Si Si4 0.989019 0.704135 0.380661
Si Si5 0.863251 0.768343 0.933354
O O1 0.644977 0.321123 0.231901
O O2 0.428129 0.174662 0.296256
O O3 0.679568 0.000000 0.250000
O O4 0.726077 0.160139 0.333730
O O5 0.361884 0.341617 0.549702
O O6 0.245814 0.121091 0.475429
O O7 0.066498 0.191345 0.556127
O O8 0.351796 0.026279 0.572496
O O9 0.561259 0.438742 0.125000
O O10 0.564412 0.138294 0.156329
O O11 0.878384 0.878384 0.375000
O O12 0.804913 0.804913 0.875000
#
# Coordination Sequence:
#
# PCOD9547619 Si02
#       5
#     8   8   8   8   8
#     4   9  16  37  60  76 114 161 191 231 298 356
#     4  10  19  37  57  85 120 150 192 245 295 349
#     4   9  18  37  62  81 111 159 193 228 291 356
#     4  10  19  34  59  86 111 148 200 243 286 351
#     4  10  18  35  58  81 113 160 188 230 307 354
#
# _framework density 26.189080000000001
#
# number of rings (size 3 to 8) (size 9 to 14) (size 15 to 20)
#    0.000    2.400    6.000    0.600    0.000    0.000 
#   32.400    3.000    0.000    4.800    0.000    0.000 
#    0.000    0.000    0.000    0.000    0.000    0.000 
#
# Total GULP energy -223116.416745 kJ/mol
# GULP energy per Si atom -5577.910419 kJ/mol
# Density = 2.612947 g / cm^3
# Si number density = 26.189080 Si / 1000 Ang^3
#
#
#
# Elastic Constant Matrix: (Units=GPa)
#
#
# Indices 1 2 3 4 5 6 
#
# 1 98.6597 -49.3166 25.5615 0.0000 0.0000 0.0000
# 2 -49.3166 98.6581 25.5622 0.0000 0.0000 0.0000
# 3 25.5615 25.5622 189.7980 0.0000 0.0000 0.0000
# 4 0.0000 0.0000 0.0000 29.1276 0.0000 0.0000
# 5 0.0000 0.0000 0.0000 0.0000 29.1277 0.0000
# 6 0.0000 0.0000 0.0000 0.0000 0.0000 2.5859
#
#
#
# Elastic Compliance Matrix: (Units=1/GPa)
#
#
# Indices 1 2 3 4 5 6 
#
# 1 0.015155 0.008398 -0.003172 0.000000 0.000000 0.000000
# 2 0.008398 0.015156 -0.003172 0.000000 0.000000 0.000000
# 3 -0.003172 -0.003172 0.006123 0.000000 0.000000 0.000000
# 4 0.000000 0.000000 0.000000 0.034332 0.000000 0.000000
# 5 0.000000 0.000000 0.000000 0.000000 0.034332 0.000000
# 6 0.000000 0.000000 0.000000 0.000000 0.000000 0.386716
#
#
# Mechanical properties :
#
#
# Convention : Reuss Voigt Hill
#
# Bulk Modulus (GPa) = 24.66628 43.41444 34.04036
# Shear Modulus (GPa) = 9.97566 37.85550 23.91558
#
# Velocity S-wave (km/s) = 1.95381 3.80606 3.02518
# Velocity P-wave (km/s) = 3.81167 5.99400 5.02279
#
# Compressibility (1/GPa) = 0.04054117
#
# Stress axis : x y z
#
# Youngs Moduli (GPa) = 65.98298 65.98175 163.31324
#
# Poissons Ratio (x) = -0.55409 0.51805
# Poissons Ratio (y) = -0.55410 0.51806
# Poissons Ratio (z) = 0.20930 0.20931
#
# Static dielectric constant tensor:
#      x y z
#    x 2.133070 0.000000 0.000000 
#    y 0.000000 2.133070 0.000000 
#    z 0.000000 0.000000 2.129400 
# 
# From -- ./inp_files/12717.got.cif
#   From: 2010.05.17/outbox.cif.g08.bks.cpg/sg91_7_cif.got.tgz:12717.got - 2010.06.03 19:20:03.
