data_PCOD9547890
_publ_section_title
;
Structure prediction by ZEFSAII (Michael W. Deem and Ramdas Pophale) SiO2 
 PCOD9547890
Probable space group: P 41 2 2
;
_chemical_formula_sum "Si O2"
_cell_formula_units_Z 52
_cell_length_a 22.461706
_cell_length_b 22.461706
_cell_length_c 5.304203
_cell_angle_alpha 90.000000
_cell_angle_beta 90.000000
_cell_angle_gamma 90.000000
_cell_volume 2676.120185
_symmetry_space_group_name_H-M "P 41 2 2"
_symmetry_group_IT_number 91
_symmetry_cell_setting 'tetragonal'
loop_
_space_group_symop_operation_xyz
x,y,z
-y,x,1/4+z
-x,-y,1/2+z
y,-x,3/4+z
x,-y,1/2-z
-x,y,-z
y,x,3/4-z
-y,-x,1/4-z
loop_
_atom_site_type_symbol
_atom_site_label
_atom_site_fract_x
_atom_site_fract_y
_atom_site_fract_z
Si Si1 0.732319 0.267682 0.125000
Si Si2 0.910473 0.000000 0.750000
Si Si3 0.857835 0.675327 0.487919
Si Si4 0.706543 0.928202 0.751244
Si Si5 0.380948 0.700202 0.279532
Si Si6 0.840930 0.104652 0.882730
Si Si7 0.558849 0.205468 0.408502
Si Si8 0.500000 0.293061 0.000000
O O1 0.719688 0.200641 0.228068
O O2 0.723653 0.324267 0.311499
O O3 0.870662 0.960072 0.567185
O O4 0.953240 0.046761 0.625000
O O5 0.894693 0.673320 0.227787
O O6 0.833002 0.609266 0.530816
O O7 0.899460 0.692285 0.726066
O O8 0.773635 0.910312 0.678382
O O9 0.699128 0.000000 0.750000
O O10 0.440347 0.674982 0.410336
O O11 0.352714 0.647287 0.125000
O O12 0.405732 0.755531 0.116262
O O13 0.867117 0.132884 0.625000
O O14 0.855147 0.144854 0.125000
O O15 0.500000 0.170666 0.500000
O O16 0.528502 0.251809 0.216909
#
# Coordination Sequence:
#
# PCOD9547890 Si02
#       8
#     4   4   8   8   8   8   8   4
#     4  12  24  38  64 110 144 168 230 300 358 406
#     4  10  20  38  64  90 116 158 216 272 316 356
#     4  12  26  43  73 100 141 184 225 296 348 420
#     4  12  28  49  66  96 139 186 226 274 360 442
#     4  11  19  36  59  96 157 180 230 286 353 414
#     4  11  24  42  63  91 124 166 219 268 322 397
#     4  10  22  38  64 100 136 179 231 287 352 408
#     4  10  20  36  58  96 146 192 222 284 364 402
#
# _framework density 19.431114000000001
#
# number of rings (size 3 to 8) (size 9 to 14) (size 15 to 20)
#    0.000    0.923    3.846    2.769    5.385    1.846 
#    0.000    0.000    0.000    1.846    0.000    0.000 
#  260.769    0.000    0.000    0.000    0.000    0.000 
#
# Total GULP energy -289887.348330 kJ/mol
# GULP energy per Si atom -5574.756699 kJ/mol
# Density = 1.938689 g / cm^3
# Si number density = 19.431114 Si / 1000 Ang^3
#
#
#
# Elastic Constant Matrix: (Units=GPa)
#
#
# Indices 1 2 3 4 5 6 
#
# 1 130.2305 38.7937 40.1232 0.0000 0.0000 0.0000
# 2 38.7937 130.2238 40.1251 0.0000 0.0000 0.0000
# 3 40.1232 40.1251 95.0337 0.0000 0.0000 0.0000
# 4 0.0000 0.0000 0.0000 54.2229 0.0000 0.0000
# 5 0.0000 0.0000 0.0000 0.0000 54.3594 0.0000
# 6 0.0000 0.0000 0.0000 0.0000 0.0000 21.7306
#
#
#
# Elastic Compliance Matrix: (Units=1/GPa)
#
#
# Indices 1 2 3 4 5 6 
#
# 1 0.009168 -0.001769 -0.003124 0.000000 0.000000 0.000000
# 2 -0.001769 0.009169 -0.003125 0.000000 0.000000 0.000000
# 3 -0.003124 -0.003125 0.013161 0.000000 0.000000 0.000000
# 4 0.000000 0.000000 0.000000 0.018442 0.000000 0.000000
# 5 0.000000 0.000000 0.000000 0.000000 0.018396 0.000000
# 6 0.000000 0.000000 0.000000 0.000000 0.000000 0.046018
#
#
# Mechanical properties :
#
#
# Convention : Reuss Voigt Hill
#
# Bulk Modulus (GPa) = 64.66929 65.95245 65.31087
# Shear Modulus (GPa) = 36.88877 41.82564 39.35721
#
# Velocity S-wave (km/s) = 4.36183 4.64455 4.50541
# Velocity P-wave (km/s) = 7.66296 7.92324 7.79419
#
# Compressibility (1/GPa) = 0.01546329
#
# Stress axis : x y z
#
# Youngs Moduli (GPa) = 109.07497 109.06695 75.98344
#
# Poissons Ratio (x) = 0.19289 0.23737
# Poissons Ratio (y) = 0.19291 0.23741
# Poissons Ratio (z) = 0.34075 0.34078
#
# Static dielectric constant tensor:
#      x y z
#    x 1.706140 0.000000 0.000000 
#    y 0.000000 1.705990 0.000000 
#    z 0.000000 0.000000 1.785550 
# 
# From -- ./inp_files/9065.got.cif
#   From: 2010.05.17/outbox.cif.g08.bks.cpg/sg91_5_cif.got.tgz:9065.got - 2010.06.03 19:20:03.
