data_PCOD9547198
_publ_section_title
;
Structure prediction by ZEFSAII (Michael W. Deem and Ramdas Pophale) SiO2 
 PCOD9547198
Probable space group: P 4 21 2
;
_chemical_formula_sum "Si O2"
_cell_formula_units_Z 40
_cell_length_a 8.376179
_cell_length_b 8.376179
_cell_length_c 28.467184
_cell_angle_alpha 90.000000
_cell_angle_beta 90.000000
_cell_angle_gamma 90.000000
_cell_volume 1997.268294
_symmetry_space_group_name_H-M "P 4 21 2"
_symmetry_group_IT_number 90
_symmetry_cell_setting 'tetragonal'
loop_
_space_group_symop_operation_xyz
x,y,z
1/2-y,1/2+x,z
-x,-y,z
1/2+y,1/2-x,z
1/2+x,1/2-y,-z
1/2-x,1/2+y,-z
y,x,-z
-y,-x,-z
loop_
_atom_site_type_symbol
_atom_site_label
_atom_site_fract_x
_atom_site_fract_y
_atom_site_fract_z
Si Si1 0.459565 0.261530 0.796169
Si Si2 0.923785 0.759419 0.956566
Si Si3 0.000000 0.000000 0.710829
Si Si4 0.000000 0.000000 0.123122
Si Si5 0.262780 0.445888 0.626112
Si Si6 0.080879 0.759130 0.455746
O O1 0.628687 0.174654 0.798825
O O2 0.475188 0.355205 0.747291
O O3 0.428127 0.373403 0.840687
O O4 0.809161 0.604318 0.958035
O O5 0.918118 0.868480 0.910184
O O6 0.869522 0.869522 0.000000
O O7 0.972793 0.148915 0.675726
O O8 0.178987 0.616912 0.619594
O O9 0.387374 0.368216 0.589700
O O10 0.192530 0.599704 0.456643
O O11 0.134871 0.865130 0.500000
#
# Coordination Sequence:
#
# PCOD9547198 Si02
#       6
#     8   8   4   4   8   8
#     4  10  22  39  61  88 118 155 199 251 311 374
#     4  11  23  39  61  90 127 171 218 269 322 379
#     4  11  22  40  62  86 118 154 196 249 306 370
#     4  11  21  38  61  88 123 160 207 259 316 378
#     4  11  23  39  61  89 120 157 201 250 307 370
#     4  11  24  41  62  90 124 163 207 255 309 369
#
# _framework density 20.027353999999999
#
# number of rings (size 3 to 8) (size 9 to 14) (size 15 to 20)
#    0.000    1.200    0.000    6.300    0.000    3.600 
#    0.000    4.000    0.000    9.600    0.000    0.000 
#    0.000    0.000    0.000    0.000    0.000    0.000 
#
# Total GULP energy -223133.628226 kJ/mol
# GULP energy per Si atom -5578.340706 kJ/mol
# Density = 1.998177 g / cm^3
# Si number density = 20.027354 Si / 1000 Ang^3
#
#
#
# Elastic Constant Matrix: (Units=GPa)
#
#
# Indices 1 2 3 4 5 6 
#
# 1 63.4512 8.5840 28.8240 0.0000 0.0000 0.0000
# 2 8.5840 63.4507 28.8235 0.0000 0.0000 0.0000
# 3 28.8240 28.8235 118.7950 0.0000 0.0000 0.0000
# 4 0.0000 0.0000 0.0000 104.6747 0.0000 0.0000
# 5 0.0000 0.0000 0.0000 0.0000 104.6706 0.0000
# 6 0.0000 0.0000 0.0000 0.0000 0.0000 36.1336
#
#
#
# Elastic Compliance Matrix: (Units=1/GPa)
#
#
# Indices 1 2 3 4 5 6 
#
# 1 0.017727 -0.000499 -0.004180 0.000000 0.000000 0.000000
# 2 -0.000499 0.017727 -0.004180 0.000000 0.000000 0.000000
# 3 -0.004180 -0.004180 0.010446 0.000000 0.000000 0.000000
# 4 0.000000 0.000000 0.000000 0.009553 0.000000 0.000000
# 5 0.000000 0.000000 0.000000 0.000000 0.009554 0.000000
# 6 0.000000 0.000000 0.000000 0.000000 0.000000 0.027675
#
#
# Mechanical properties :
#
#
# Convention : Reuss Voigt Hill
#
# Bulk Modulus (GPa) = 35.48486 42.01775 38.75131
# Shear Modulus (GPa) = 41.73844 61.06014 51.39929
#
# Velocity S-wave (km/s) = 4.57012 5.52762 5.07151
# Velocity P-wave (km/s) = 6.75312 7.85908 7.32700
#
# Compressibility (1/GPa) = 0.02818103
#
# Stress axis : x y z
#
# Youngs Moduli (GPa) = 56.41261 56.41244 95.72818
#
# Poissons Ratio (x) = 0.02817 0.40014
# Poissons Ratio (y) = 0.02817 0.40013
# Poissons Ratio (z) = 0.23580 0.23580
#
# Static dielectric constant tensor:
#      x y z
#    x 1.683700 0.000000 0.000000 
#    y 0.000000 1.683700 0.000000 
#    z 0.000000 0.000000 1.671700 
# 
# From -- ./inp_files/2975.got.cif
#   From: 2010.05.17/outbox.cif.g08.bks.cpg/sg90_2_cif.got.tgz:2975.got - 2010.06.03 19:17:45.
