data_PCOD9547279
_publ_section_title
;
Structure prediction by ZEFSAII (Michael W. Deem and Ramdas Pophale) SiO2 
 PCOD9547279
Probable space group: P 4 21 2
;
_chemical_formula_sum "Si O2"
_cell_formula_units_Z 48
_cell_length_a 11.735549
_cell_length_b 11.735549
_cell_length_c 18.060187
_cell_angle_alpha 90.000000
_cell_angle_beta 90.000000
_cell_angle_gamma 90.000000
_cell_volume 2487.305127
_symmetry_space_group_name_H-M "P 4 21 2"
_symmetry_group_IT_number 90
_symmetry_cell_setting 'tetragonal'
loop_
_space_group_symop_operation_xyz
x,y,z
1/2-y,1/2+x,z
-x,-y,z
1/2+y,1/2-x,z
1/2+x,1/2-y,-z
1/2-x,1/2+y,-z
y,x,-z
-y,-x,-z
loop_
_atom_site_type_symbol
_atom_site_label
_atom_site_fract_x
_atom_site_fract_y
_atom_site_fract_z
Si Si1 0.137414 0.005185 0.811034
Si Si2 0.269261 0.363118 0.869696
Si Si3 0.642678 0.487758 0.365378
Si Si4 0.617018 0.313349 0.076421
Si Si5 0.753571 0.724963 0.412640
Si Si6 0.846118 0.610422 0.711226
O O1 0.173483 0.114270 0.857262
O O2 0.184110 0.894406 0.852365
O O3 0.156935 0.008408 0.723728
O O4 0.000000 0.000000 0.818915
O O5 0.194082 0.297478 0.928640
O O6 0.281072 0.491754 0.897516
O O7 0.208420 0.358569 0.789700
O O8 0.500000 0.500000 0.379859
O O9 0.719842 0.591789 0.397432
O O10 0.707118 0.371491 0.391670
O O11 0.618240 0.381761 0.000000
O O12 0.740630 0.740630 0.500000
O O13 0.660941 0.783741 0.359421
O O14 0.845980 0.474588 0.708730
#
# Coordination Sequence:
#
# PCOD9547279 Si02
#       6
#     8   8   8   8   8   8
#     4   9  21  40  66  92 122 170 220 266 326 406
#     4  11  21  41  67  94 130 167 224 271 337 408
#     4  11  25  47  73  99 140 185 234 285 354 427
#     4  11  25  38  64  97 132 170 214 279 341 400
#     4  12  28  42  70 103 140 184 233 291 362 424
#     4  11  22  41  69 100 131 173 236 299 346 407
#
# _framework density 19.297993999999999
#
# number of rings (size 3 to 8) (size 9 to 14) (size 15 to 20)
#    0.000    1.167    3.333    2.000    9.333    3.000 
#    0.000    0.000    0.000    0.500    0.000    0.000 
#    0.000    0.000    0.000    0.000    0.000    0.000 
#
# Total GULP energy -267450.114077 kJ/mol
# GULP energy per Si atom -5571.877377 kJ/mol
# Density = 1.925407 g / cm^3
# Si number density = 19.297994 Si / 1000 Ang^3
#
#
#
# Elastic Constant Matrix: (Units=GPa)
#
#
# Indices 1 2 3 4 5 6 
#
# 1 94.1928 52.6329 32.7101 0.0000 0.0000 0.0000
# 2 52.6329 94.1924 32.7107 0.0000 0.0000 0.0000
# 3 32.7101 32.7107 95.5375 0.0000 0.0000 0.0000
# 4 0.0000 0.0000 0.0000 20.2256 0.0000 0.0000
# 5 0.0000 0.0000 0.0000 0.0000 20.2290 0.0000
# 6 0.0000 0.0000 0.0000 0.0000 0.0000 32.1322
#
#
#
# Elastic Compliance Matrix: (Units=1/GPa)
#
#
# Indices 1 2 3 4 5 6 
#
# 1 0.016049 -0.008012 -0.002752 0.000000 0.000000 0.000000
# 2 -0.008012 0.016049 -0.002752 0.000000 0.000000 0.000000
# 3 -0.002752 -0.002752 0.012351 0.000000 0.000000 0.000000
# 4 0.000000 0.000000 0.000000 0.049442 0.000000 0.000000
# 5 0.000000 0.000000 0.000000 0.000000 0.049434 0.000000
# 6 0.000000 0.000000 0.000000 0.000000 0.000000 0.031121
#
#
# Mechanical properties :
#
#
# Convention : Reuss Voigt Hill
#
# Bulk Modulus (GPa) = 57.41071 57.78111 57.59591
# Shear Modulus (GPa) = 24.12134 25.57531 24.84833
#
# Velocity S-wave (km/s) = 3.53928 3.64439 3.59222
# Velocity P-wave (km/s) = 6.82028 6.90763 6.86409
#
# Compressibility (1/GPa) = 0.01741835
#
# Stress axis : x y z
#
# Youngs Moduli (GPa) = 62.30824 62.30759 80.96282
#
# Poissons Ratio (x) = 0.49924 0.22278
# Poissons Ratio (y) = 0.49924 0.22279
# Poissons Ratio (z) = 0.17145 0.17146
#
# Static dielectric constant tensor:
#      x y z
#    x 1.709600 0.000000 0.000000 
#    y 0.000000 1.709600 0.000000 
#    z 0.000000 0.000000 1.616110 
# 
# From -- ./inp_files/2651.got.cif
#   From: 2010.05.17/outbox.cif.g08.bks.cpg/sg90_2_cif.got.tgz:2651.got - 2010.06.03 19:17:45.
