data_PCOD9547047
_publ_section_title
;
Structure prediction by ZEFSAII (Michael W. Deem and Ramdas Pophale) SiO2 
 PCOD9547047
Probable space group: P 4 2 2
;
_chemical_formula_sum "Si O2"
_cell_formula_units_Z 34
_cell_length_a 8.375253
_cell_length_b 8.375253
_cell_length_c 23.513020
_cell_angle_alpha 90.000000
_cell_angle_beta 90.000000
_cell_angle_gamma 90.000000
_cell_volume 1649.317562
_symmetry_space_group_name_H-M "P 4 2 2"
_symmetry_group_IT_number 89
_symmetry_cell_setting 'tetragonal'
loop_
_space_group_symop_operation_xyz
x,y,z
-y,x,z
-x,-y,z
y,-x,z
x,-y,-z
-x,y,-z
y,x,-z
-y,-x,-z
loop_
_atom_site_type_symbol
_atom_site_label
_atom_site_fract_x
_atom_site_fract_y
_atom_site_fract_z
Si Si1 0.241254 0.873735 0.801667
Si Si2 0.224651 0.144162 0.322159
Si Si3 0.706916 0.328003 0.439893
Si Si4 0.000000 0.500000 0.000000
Si Si5 0.590224 0.247622 0.912005
O O1 0.304087 0.821373 0.739017
O O2 0.360856 0.822233 0.850966
O O3 0.064480 0.793061 0.806411
O O4 0.287455 0.204417 0.382040
O O5 0.045998 0.211907 0.321099
O O6 0.714536 0.519765 0.439745
O O7 0.754957 0.245044 0.500000
O O8 0.112030 0.607259 0.040481
O O9 0.695715 0.406870 0.918158
#
# Coordination Sequence:
#
# PCOD9547047 Si02
#       5
#     8   8   8   2   8
#     4   9  19  38  61  85 118 159 199 240 294 360
#     4   9  19  35  55  81 113 149 190 237 288 346
#     4   9  19  35  52  73 106 147 191 241 295 350
#     4  12  24  42  64  86 120 158 192 240 300 366
#     4  11  24  41  63  92 123 156 197 247 301 358
#
# _framework density 20.614585999999999
#
# number of rings (size 3 to 8) (size 9 to 14) (size 15 to 20)
#    0.000    2.353    0.000    4.235    0.000    4.706 
#    0.000   10.588    0.000    1.412    0.000    0.000 
#    0.000    0.000    0.000    0.000    0.000    0.000 
#
# Total GULP energy -189479.002911 kJ/mol
# GULP energy per Si atom -5572.911850 kJ/mol
# Density = 2.056767 g / cm^3
# Si number density = 20.614586 Si / 1000 Ang^3
#
#
#
# Elastic Constant Matrix: (Units=GPa)
#
#
# Indices 1 2 3 4 5 6 
#
# 1 2.7809 68.7439 63.6205 0.0000 0.0000 0.0000
# 2 68.7439 2.7795 63.6188 0.0000 0.0000 0.0000
# 3 63.6205 63.6188 237.6536 0.0000 0.0000 0.0000
# 4 0.0000 0.0000 0.0000 38.2121 0.0000 0.0000
# 5 0.0000 0.0000 0.0000 0.0000 38.2120 0.0000
# 6 0.0000 0.0000 0.0000 0.0000 0.0000 34.0741
#
#
#
# Elastic Compliance Matrix: (Units=1/GPa)
#
#
# Indices 1 2 3 4 5 6 
#
# 1 0.005767 0.020927 -0.007146 0.000000 0.000000 0.000000
# 2 0.020927 0.005767 -0.007146 0.000000 0.000000 0.000000
# 3 -0.007146 -0.007146 0.008034 0.000000 0.000000 0.000000
# 4 0.000000 0.000000 0.000000 0.026170 0.000000 0.000000
# 5 0.000000 0.000000 0.000000 0.000000 0.026170 0.000000
# 6 0.000000 0.000000 0.000000 0.000000 0.000000 0.029348
#
#
# Mechanical properties :
#
#
# Convention : Reuss Voigt Hill
#
# Bulk Modulus (GPa) = 30.45308 70.57558 50.51433
# Shear Modulus (GPa) = 50.54058 25.24836 37.89447
#
# Velocity S-wave (km/s) = 4.95683 3.50348 4.29212
# Velocity P-wave (km/s) = 6.89673 7.11870 7.00859
#
# Compressibility (1/GPa) = 0.03283740
#
# Stress axis : x y z
#
# Youngs Moduli (GPa) = 173.40214 173.40825 124.47609
#
# Poissons Ratio (x) = -3.62886 0.88948
# Poissons Ratio (y) = -3.62873 0.88949
# Poissons Ratio (z) = 1.23910 1.23915
#
# Static dielectric constant tensor:
#      x y z
#    x 1.743630 0.000000 0.000000 
#    y 0.000000 1.743630 0.000000 
#    z 0.000000 0.000000 1.811370 
# 
# From -- ./inp_files/2515.got.cif
#   From: 2010.05.17/outbox.cif.g08.bks.cpg/sg89_2_cif.got.tgz:2515.got - 2010.06.03 19:15:31.
