data_PCOD9547008
_publ_section_title
;
Structure prediction by ZEFSAII (Michael W. Deem and Ramdas Pophale) SiO2 
 PCOD9547008
Probable space group: P 4 2 2
;
_chemical_formula_sum "Si O2"
_cell_formula_units_Z 48
_cell_length_a 8.593877
_cell_length_b 8.593877
_cell_length_c 32.726074
_cell_angle_alpha 90.000000
_cell_angle_beta 90.000000
_cell_angle_gamma 90.000000
_cell_volume 2416.975094
_symmetry_space_group_name_H-M "P 4 2 2"
_symmetry_group_IT_number 89
_symmetry_cell_setting 'tetragonal'
loop_
_space_group_symop_operation_xyz
x,y,z
-y,x,z
-x,-y,z
y,-x,z
x,-y,-z
-x,y,-z
y,x,-z
-y,-x,-z
loop_
_atom_site_type_symbol
_atom_site_label
_atom_site_fract_x
_atom_site_fract_y
_atom_site_fract_z
Si Si1 0.728849 0.375086 0.246339
Si Si2 0.742006 0.965155 0.954129
Si Si3 0.000000 0.500000 0.111370
Si Si4 0.215161 0.154811 0.326695
Si Si5 0.753696 0.909512 0.170982
Si Si6 0.682343 0.682343 0.500000
Si Si7 0.170108 0.802139 0.416746
O O1 0.704253 0.559368 0.239906
O O2 0.780356 0.325969 0.291684
O O3 0.857843 0.310226 0.215075
O O4 0.834746 0.126443 0.948454
O O5 0.616190 0.921399 0.920670
O O6 0.681272 0.000000 0.000000
O O7 0.893079 0.389943 0.139638
O O8 0.265229 0.210573 0.372081
O O9 0.033962 0.208514 0.322859
O O10 0.910868 0.808228 0.165798
O O11 0.500000 0.712408 0.500000
O O12 0.738634 0.758209 0.458025
O O13 0.984202 0.789627 0.417336
#
# Coordination Sequence:
#
# PCOD9547008 Si02
#       7
#     8   8   4   8   8   4   8
#     4  11  24  40  58  85 121 156 193 245 306 363
#     4   9  19  37  61  90 124 162 205 250 299 364
#     4  12  21  34  60  92 120 152 200 256 307 352
#     4   9  19  37  61  87 113 145 190 241 294 357
#     4  11  24  41  61  85 115 155 203 250 300 364
#     4  11  24  37  50  76 116 153 186 231 290 356
#     4   9  19  37  60  84 109 142 189 241 289 346
#
# _framework density 19.859535999999999
#
# number of rings (size 3 to 8) (size 9 to 14) (size 15 to 20)
#    0.000    1.917    0.000    5.250    0.000    8.000 
#    0.000    5.000    0.000    4.500    0.000    9.333 
#    0.000    0.000    0.000    0.000    0.000    0.000 
#
# Total GULP energy -267562.739568 kJ/mol
# GULP energy per Si atom -5574.223741 kJ/mol
# Density = 1.981434 g / cm^3
# Si number density = 19.859536 Si / 1000 Ang^3
#
#
#
# Elastic Constant Matrix: (Units=GPa)
#
#
# Indices 1 2 3 4 5 6 
#
# 1 130.2148 -25.1823 61.1240 0.0000 0.0000 0.0000
# 2 -25.1823 130.2148 61.1240 0.0000 0.0000 0.0000
# 3 61.1240 61.1240 168.9860 0.0000 0.0000 0.0000
# 4 0.0000 0.0000 0.0000 31.1231 0.0000 0.0000
# 5 0.0000 0.0000 0.0000 0.0000 31.1231 0.0000
# 6 0.0000 0.0000 0.0000 0.0000 0.0000 22.5636
#
#
#
# Elastic Compliance Matrix: (Units=1/GPa)
#
#
# Indices 1 2 3 4 5 6 
#
# 1 0.011439 0.005004 -0.005948 0.000000 0.000000 0.000000
# 2 0.005004 0.011439 -0.005948 0.000000 0.000000 0.000000
# 3 -0.005948 -0.005948 0.010220 0.000000 0.000000 0.000000
# 4 0.000000 0.000000 0.000000 0.032131 0.000000 0.000000
# 5 0.000000 0.000000 0.000000 0.000000 0.032131 0.000000
# 6 0.000000 0.000000 0.000000 0.000000 0.000000 0.044319
#
#
# Mechanical properties :
#
#
# Convention : Reuss Voigt Hill
#
# Bulk Modulus (GPa) = 51.76974 69.28302 60.52638
# Shear Modulus (GPa) = 30.88309 39.11860 35.00085
#
# Velocity S-wave (km/s) = 3.94772 4.44302 4.20267
# Velocity P-wave (km/s) = 6.84864 7.82833 7.35482
#
# Compressibility (1/GPa) = 0.01931630
#
# Stress axis : x y z
#
# Youngs Moduli (GPa) = 87.41760 87.41760 97.84332
#
# Poissons Ratio (x) = -0.43746 0.58195
# Poissons Ratio (y) = -0.43746 0.58195
# Poissons Ratio (z) = 0.51994 0.51994
#
# Static dielectric constant tensor:
#      x y z
#    x 1.694500 0.000000 0.000000 
#    y 0.000000 1.694500 0.000000 
#    z 0.000000 0.000000 1.753390 
# 
# From -- ./inp_files/3028.got.cif
#   From: 2010.05.17/outbox.cif.g08.bks.cpg/sg89_2_cif.got.tgz:3028.got - 2010.06.03 19:15:31.
