data_PCOD9547927
_publ_section_title
;
Structure prediction by ZEFSAII (Michael W. Deem and Ramdas Pophale) SiO2 
 PCOD9547927
Probable space group: P 41 2 2
;
_chemical_formula_sum "Si O2"
_cell_formula_units_Z 40
_cell_length_a 9.511950
_cell_length_b 9.511950
_cell_length_c 21.622483
_cell_angle_alpha 90.000000
_cell_angle_beta 90.000000
_cell_angle_gamma 90.000000
_cell_volume 1956.341563
_symmetry_space_group_name_H-M "P 41 2 2"
_symmetry_group_IT_number 91
_symmetry_cell_setting 'tetragonal'
loop_
_space_group_symop_operation_xyz
x,y,z
-y,x,1/4+z
-x,-y,1/2+z
y,-x,3/4+z
x,-y,1/2-z
-x,y,-z
y,x,3/4-z
-y,-x,1/4-z
loop_
_atom_site_type_symbol
_atom_site_label
_atom_site_fract_x
_atom_site_fract_y
_atom_site_fract_z
Si Si1 0.256262 0.671752 0.559235
Si Si2 0.333923 0.757818 0.825875
Si Si3 0.839344 0.635598 0.063761
Si Si4 0.890168 0.011408 0.184779
Si Si5 0.837570 0.660365 0.923474
O O1 0.336155 0.663846 0.625000
O O2 0.323014 0.674645 0.490482
O O3 0.159911 0.533200 0.556984
O O4 0.160661 0.810320 0.562379
O O5 0.272405 0.675878 0.884284
O O6 0.495243 0.801036 0.836106
O O7 0.231248 0.893688 0.819675
O O8 0.995305 0.679588 0.083121
O O9 0.803298 0.693149 0.995539
O O10 0.986784 0.013217 0.125000
O O11 0.968377 0.000000 0.250000
O O12 0.751945 0.751945 0.875000
#
# Coordination Sequence:
#
# PCOD9547927 Si02
#       5
#     8   8   8   8   8
#     4   9  18  36  60  85 113 151 197 244 289 344
#     4  10  20  37  61  86 117 160 196 239 299 355
#     4  10  21  40  63  85 119 159 196 243 299 350
#     4   9  17  34  57  82 112 149 192 242 292 345
#     4  10  22  43  62  85 123 160 197 243 298 357
#
# _framework density 20.446328000000001
#
# number of rings (size 3 to 8) (size 9 to 14) (size 15 to 20)
#    0.000    2.400    2.000    0.000    0.000    3.200 
#   14.400    6.000    0.000    0.000    0.000    0.000 
#    0.000    0.000    0.000    0.000    0.000    0.000 
#
# Total GULP energy -222986.758027 kJ/mol
# GULP energy per Si atom -5574.668951 kJ/mol
# Density = 2.039979 g / cm^3
# Si number density = 20.446328 Si / 1000 Ang^3
#
#
#
# Elastic Constant Matrix: (Units=GPa)
#
#
# Indices 1 2 3 4 5 6 
#
# 1 60.7462 24.3103 72.0742 0.0000 0.0000 0.0000
# 2 24.3103 60.7463 72.0745 0.0000 0.0000 0.0000
# 3 72.0742 72.0745 214.8645 0.0000 0.0000 0.0000
# 4 0.0000 0.0000 0.0000 28.5353 0.0000 0.0000
# 5 0.0000 0.0000 0.0000 0.0000 28.5352 0.0000
# 6 0.0000 0.0000 0.0000 0.0000 0.0000 26.1229
#
#
#
# Elastic Compliance Matrix: (Units=1/GPa)
#
#
# Indices 1 2 3 4 5 6 
#
# 1 0.027345 -0.000100 -0.009139 0.000000 0.000000 0.000000
# 2 -0.000100 0.027346 -0.009139 0.000000 0.000000 0.000000
# 3 -0.009139 -0.009139 0.010785 0.000000 0.000000 0.000000
# 4 0.000000 0.000000 0.000000 0.035044 0.000000 0.000000
# 5 0.000000 0.000000 0.000000 0.000000 0.035044 0.000000
# 6 0.000000 0.000000 0.000000 0.000000 0.000000 0.038281
#
#
# Mechanical properties :
#
#
# Convention : Reuss Voigt Hill
#
# Bulk Modulus (GPa) = 34.81954 74.80834 54.81394
# Shear Modulus (GPa) = 22.70910 27.83186 25.27048
#
# Velocity S-wave (km/s) = 3.33629 3.69347 3.51941
# Velocity P-wave (km/s) = 5.64870 7.40649 6.58649
#
# Compressibility (1/GPa) = 0.02871951
#
# Stress axis : x y z
#
# Youngs Moduli (GPa) = 36.56913 36.56903 92.71729
#
# Poissons Ratio (x) = 0.00365 0.84737
# Poissons Ratio (y) = 0.00365 0.84737
# Poissons Ratio (z) = 0.33421 0.33422
#
# Static dielectric constant tensor:
#      x y z
#    x 1.722340 0.000000 0.000000 
#    y 0.000000 1.722340 0.000000 
#    z 0.000000 0.000000 1.798030 
# 
# From -- ./inp_files/12746.got.cif
#   From: 2010.05.17/outbox.cif.g08.bks.cpg/sg91_7_cif.got.tgz:12746.got - 2010.06.03 19:20:03.
