data_PCOD9547483
_publ_section_title
;
Structure prediction by ZEFSAII (Michael W. Deem and Ramdas Pophale) SiO2 
 PCOD9547483
Probable space group: P 41 2 2
;
_chemical_formula_sum "Si O2"
_cell_formula_units_Z 28
_cell_length_a 8.262467
_cell_length_b 8.262467
_cell_length_c 18.365089
_cell_angle_alpha 90.000000
_cell_angle_beta 90.000000
_cell_angle_gamma 90.000000
_cell_volume 1253.754524
_symmetry_space_group_name_H-M "P 41 2 2"
_symmetry_group_IT_number 91
_symmetry_cell_setting 'tetragonal'
loop_
_space_group_symop_operation_xyz
x,y,z
-y,x,1/4+z
-x,-y,1/2+z
y,-x,3/4+z
x,-y,1/2-z
-x,y,-z
y,x,3/4-z
-y,-x,1/4-z
loop_
_atom_site_type_symbol
_atom_site_label
_atom_site_fract_x
_atom_site_fract_y
_atom_site_fract_z
Si Si1 0.500000 0.899122 0.500000
Si Si2 0.891849 0.841559 0.292601
Si Si3 0.818888 0.480389 0.990769
Si Si4 0.344971 0.614398 0.878304
O O1 0.329147 0.977277 0.524512
O O2 0.558074 0.795142 0.571246
O O3 0.894933 0.894933 0.375000
O O4 0.699473 0.812322 0.277003
O O5 0.948436 0.000000 0.250000
O O6 0.714174 0.605105 0.038575
O O7 0.764919 0.437792 0.908796
O O8 0.000000 0.538138 0.000000
O O9 0.473836 0.473836 0.875000
#
# Coordination Sequence:
#
# PCOD9547483 Si02
#       4
#     4   8   8   8
#     4  10  16  30  54  84 118 144 206 246 314 372
#     4  10  18  31  55  86 116 160 209 248 310 385
#     4  10  20  32  58  91 123 155 210 250 311 383
#     4  11  16  32  59  87 114 156 199 258 306 368
#
# _framework density 22.332922
#
# number of rings (size 3 to 8) (size 9 to 14) (size 15 to 20)
#    0.000    1.714    8.571    0.000    0.000    0.000 
#    0.000    0.000    6.286   17.143    0.000    6.000 
#    0.000    0.000    0.000    0.000    0.000    0.000 
#
# Total GULP energy -155928.908206 kJ/mol
# GULP energy per Si atom -5568.889579 kJ/mol
# Density = 2.228209 g / cm^3
# Si number density = 22.332922 Si / 1000 Ang^3
#
#
#
# Elastic Constant Matrix: (Units=GPa)
#
#
# Indices 1 2 3 4 5 6 
#
# 1 80.7892 30.6668 39.2313 0.0000 0.0000 0.0000
# 2 30.6668 80.7892 39.2313 0.0000 0.0000 0.0000
# 3 39.2313 39.2313 82.6551 0.0000 0.0000 0.0000
# 4 0.0000 0.0000 0.0000 10.1620 0.0000 0.0000
# 5 0.0000 0.0000 0.0000 0.0000 10.1620 0.0000
# 6 0.0000 0.0000 0.0000 0.0000 0.0000 1.1096
#
#
#
# Elastic Compliance Matrix: (Units=1/GPa)
#
#
# Indices 1 2 3 4 5 6 
#
# 1 0.016713 -0.003238 -0.006395 0.000000 0.000000 0.000000
# 2 -0.003238 0.016713 -0.006395 0.000000 0.000000 0.000000
# 3 -0.006395 -0.006395 0.018170 0.000000 0.000000 0.000000
# 4 0.000000 0.000000 0.000000 0.098406 0.000000 0.000000
# 5 0.000000 0.000000 0.000000 0.000000 0.098406 0.000000
# 6 0.000000 0.000000 0.000000 0.000000 0.000000 0.901249
#
#
# Mechanical properties :
#
#
# Convention : Reuss Voigt Hill
#
# Bulk Modulus (GPa) = 51.18630 51.38803 51.28717
# Shear Modulus (GPa) = 4.20795 13.29366 8.75081
#
# Velocity S-wave (km/s) = 1.37415 2.44242 1.98163
# Velocity P-wave (km/s) = 5.04848 5.56901 5.31512
#
# Compressibility (1/GPa) = 0.01953648
#
# Stress axis : x y z
#
# Youngs Moduli (GPa) = 59.83443 59.83443 55.03716
#
# Poissons Ratio (x) = 0.19377 0.35199
# Poissons Ratio (y) = 0.19377 0.35199
# Poissons Ratio (z) = 0.38267 0.38267
#
# Static dielectric constant tensor:
#      x y z
#    x 1.860580 0.000000 0.000000 
#    y 0.000000 1.860580 0.000000 
#    z 0.000000 0.000000 0.083440 
# 
# From -- ./inp_files/5266.got.cif
#   From: 2010.05.17/outbox.cif.g08.bks.cpg/sg91_3_cif.got.tgz:5266.got - 2010.06.03 19:20:03.
