data_PCOD9547286
_publ_section_title
;
Structure prediction by ZEFSAII (Michael W. Deem and Ramdas Pophale) SiO2 
 PCOD9547286
Probable space group: P 4 21 2
;
_chemical_formula_sum "Si O2"
_cell_formula_units_Z 56
_cell_length_a 14.991438
_cell_length_b 14.991438
_cell_length_c 14.082731
_cell_angle_alpha 90.000000
_cell_angle_beta 90.000000
_cell_angle_gamma 90.000000
_cell_volume 3164.998217
_symmetry_space_group_name_H-M "P 4 21 2"
_symmetry_group_IT_number 90
_symmetry_cell_setting 'tetragonal'
loop_
_space_group_symop_operation_xyz
x,y,z
1/2-y,1/2+x,z
-x,-y,z
1/2+y,1/2-x,z
1/2+x,1/2-y,-z
1/2-x,1/2+y,-z
y,x,-z
-y,-x,-z
loop_
_atom_site_type_symbol
_atom_site_label
_atom_site_fract_x
_atom_site_fract_y
_atom_site_fract_z
Si Si1 0.829312 0.314711 0.305945
Si Si2 0.513539 0.853610 0.003802
Si Si3 0.570316 0.420065 0.889160
Si Si4 0.752538 0.485612 0.810776
Si Si5 0.893800 0.392858 0.501759
Si Si6 0.681293 0.160747 0.293447
Si Si7 0.734941 0.992850 0.802359
O O1 0.846368 0.344069 0.414169
O O2 0.751351 0.241965 0.295248
O O3 0.803327 0.404281 0.248065
O O4 0.921584 0.274600 0.265114
O O5 0.593134 0.922177 0.018985
O O6 0.514772 0.820455 0.896883
O O7 0.515959 0.778900 0.083245
O O8 0.500000 0.500000 0.892079
O O9 0.652789 0.450147 0.823676
O O10 0.527160 0.333640 0.840819
O O11 0.598016 0.401985 0.000000
O O12 0.770989 0.571405 0.745415
O O13 0.812365 0.403622 0.771816
O O14 0.878564 0.499370 0.495813
O O15 0.858825 0.356006 0.601680
#
# Coordination Sequence:
#
# PCOD9547286 Si02
#       7
#     8   8   8   8   8   8   8
#     4  12  25  42  66  92 129 168 211 266 323 386
#     4  11  22  35  58  93 131 162 206 263 317 378
#     4  11  24  42  62  89 135 178 218 262 303 373
#     4  12  23  40  64  94 125 172 216 256 320 379
#     4  11  23  42  70  96 121 157 210 270 330 388
#     4  12  25  42  66  92 129 168 211 266 323 386
#     4  12  23  40  64  94 125 172 216 256 320 379
#
# _framework density 17.693532999999999
#
# number of rings (size 3 to 8) (size 9 to 14) (size 15 to 20)
#    0.000    0.429    8.571    1.286    0.000    0.571 
#    0.000    1.429    0.000    0.000    0.000    6.000 
#    0.000    0.000    0.000    0.000    0.000    0.000 
#
# Total GULP energy -312834.710935 kJ/mol
# GULP energy per Si atom -5586.334124 kJ/mol
# Density = 1.765326 g / cm^3
# Si number density = 17.693533 Si / 1000 Ang^3
#
#
#
# Elastic Constant Matrix: (Units=GPa)
#
#
# Indices 1 2 3 4 5 6 
#
# 1 64.7351 4.1747 19.9485 0.0000 0.0000 0.0000
# 2 4.1747 64.7355 19.9485 0.0000 0.0000 0.0000
# 3 19.9485 19.9485 102.8050 0.0000 0.0000 0.0000
# 4 0.0000 0.0000 0.0000 33.8753 0.0000 0.0000
# 5 0.0000 0.0000 0.0000 0.0000 33.8739 0.0000
# 6 0.0000 0.0000 0.0000 0.0000 0.0000 41.2659
#
#
#
# Elastic Compliance Matrix: (Units=1/GPa)
#
#
# Indices 1 2 3 4 5 6 
#
# 1 0.016430 -0.000082 -0.003172 0.000000 0.000000 0.000000
# 2 -0.000082 0.016430 -0.003172 0.000000 0.000000 0.000000
# 3 -0.003172 -0.003172 0.010958 0.000000 0.000000 0.000000
# 4 0.000000 0.000000 0.000000 0.029520 0.000000 0.000000
# 5 0.000000 0.000000 0.000000 0.000000 0.029521 0.000000
# 6 0.000000 0.000000 0.000000 0.000000 0.000000 0.024233
#
#
# Mechanical properties :
#
#
# Convention : Reuss Voigt Hill
#
# Bulk Modulus (GPa) = 32.29361 35.60212 33.94786
# Shear Modulus (GPa) = 33.27379 34.34995 33.81187
#
# Velocity S-wave (km/s) = 4.34125 4.41089 4.37621
# Velocity P-wave (km/s) = 6.58937 6.79018 6.69053
#
# Compressibility (1/GPa) = 0.03096588
#
# Stress axis : x y z
#
# Youngs Moduli (GPa) = 60.86271 60.86308 91.25533
#
# Poissons Ratio (x) = 0.00499 0.28949
# Poissons Ratio (y) = 0.00499 0.28949
# Poissons Ratio (z) = 0.19307 0.19307
#
# Static dielectric constant tensor:
#      x y z
#    x 1.584680 0.000000 0.000000 
#    y 0.000000 1.584690 0.000000 
#    z 0.000000 0.000000 1.580270 
# 
# From -- ./inp_files/2231.got.cif
#   From: 2010.05.17/outbox.cif.g08.bks.cpg/sg90_2_cif.got.tgz:2231.got - 2010.06.03 19:17:45.
