data_PCOD9547080
_publ_section_title
;
Structure prediction by ZEFSAII (Michael W. Deem and Ramdas Pophale) SiO2 
 PCOD9547080
Probable space group: P 4 21 2
;
_chemical_formula_sum "Si O2"
_cell_formula_units_Z 40
_cell_length_a 15.831607
_cell_length_b 15.831607
_cell_length_c 6.650140
_cell_angle_alpha 90.000000
_cell_angle_beta 90.000000
_cell_angle_gamma 90.000000
_cell_volume 1666.789628
_symmetry_space_group_name_H-M "P 4 21 2"
_symmetry_group_IT_number 90
_symmetry_cell_setting 'tetragonal'
loop_
_space_group_symop_operation_xyz
x,y,z
1/2-y,1/2+x,z
-x,-y,z
1/2+y,1/2-x,z
1/2+x,1/2-y,-z
1/2-x,1/2+y,-z
y,x,-z
-y,-x,-z
loop_
_atom_site_type_symbol
_atom_site_label
_atom_site_fract_x
_atom_site_fract_y
_atom_site_fract_z
Si Si1 0.235491 0.510394 0.139572
Si Si2 0.228966 0.119612 0.224600
Si Si3 0.451653 0.871752 0.511198
Si Si4 0.638068 0.740809 0.146036
Si Si5 0.348791 0.483099 0.533441
O O1 0.157745 0.551470 0.258884
O O2 0.299593 0.489433 0.320934
O O3 0.274395 0.582370 0.998178
O O4 0.211711 0.430889 0.997433
O O5 0.301828 0.076461 0.357765
O O6 0.273881 0.212136 0.208984
O O7 0.151773 0.072356 0.341442
O O8 0.547642 0.895401 0.474637
O O9 0.585097 0.704113 0.331503
O O10 0.665302 0.665302 0.000000
O O11 0.437640 0.437640 0.500000
#
# Coordination Sequence:
#
# PCOD9547080 Si02
#       5
#     8   8   8   8   8
#     4  10  19  33  53  76 109 148 192 230 286 338
#     4  10  21  32  51  80 111 143 192 236 288 340
#     4  10  19  31  47  72 113 155 185 219 274 346
#     4  11  21  36  57  83 117 151 197 252 288 342
#     4  10  20  37  56  80 112 150 192 235 285 350
#
# _framework density 23.998231000000001
#
# number of rings (size 3 to 8) (size 9 to 14) (size 15 to 20)
#    0.000    1.800    2.000    4.800    0.000    1.600 
#    0.000    2.000    0.000    0.000    0.000    4.200 
#    0.000    0.000    0.000    0.000    0.000    0.000 
#
# Total GULP energy -223098.403257 kJ/mol
# GULP energy per Si atom -5577.460081 kJ/mol
# Density = 2.394361 g / cm^3
# Si number density = 23.998231 Si / 1000 Ang^3
#
#
#
# Elastic Constant Matrix: (Units=GPa)
#
#
# Indices 1 2 3 4 5 6 
#
# 1 29.5296 36.0011 25.6758 0.0000 0.0000 0.0000
# 2 36.0011 29.5296 25.6758 0.0000 0.0000 0.0000
# 3 25.6758 25.6758 128.8762 0.0000 0.0000 0.0000
# 4 0.0000 0.0000 0.0000 37.6061 0.0000 0.0000
# 5 0.0000 0.0000 0.0000 0.0000 37.6061 0.0000
# 6 0.0000 0.0000 0.0000 0.0000 0.0000 66.1924
#
#
#
# Elastic Compliance Matrix: (Units=1/GPa)
#
#
# Indices 1 2 3 4 5 6 
#
# 1 -0.068221 0.086304 -0.003603 0.000000 0.000000 0.000000
# 2 0.086304 -0.068221 -0.003603 0.000000 0.000000 0.000000
# 3 -0.003603 -0.003603 0.009195 0.000000 0.000000 0.000000
# 4 0.000000 0.000000 0.000000 0.026591 0.000000 0.000000
# 5 0.000000 0.000000 0.000000 0.000000 0.026591 0.000000
# 6 0.000000 0.000000 0.000000 0.000000 0.000000 0.015107
#
#
# Mechanical properties :
#
#
# Convention : Reuss Voigt Hill
#
# Bulk Modulus (GPa) = 32.30962 40.29343 36.30152
# Shear Modulus (GPa) = -24.17367 34.98642 5.40637
#
# Velocity S-wave (km/s) = -3.17726 3.82235 1.50257
# Velocity P-wave (km/s) = 0.18055 6.02554 4.26261
#
# Compressibility (1/GPa) = 0.03095054
#
# Stress axis : x y z
#
# Youngs Moduli (GPa) = -14.65829 -14.65829 108.75589
#
# Poissons Ratio (x) = 1.26507 0.39181
# Poissons Ratio (y) = 1.26507 0.39181
# Poissons Ratio (z) = -0.05281 -0.05281
#
# Static dielectric constant tensor:
#      x y z
#    x 2.008820 0.000000 0.000000 
#    y 0.000000 2.008820 0.000000 
#    z 0.000000 0.000000 1.882930 
# 
# From -- ./inp_files/427.got.cif
#   From: 2010.05.17/outbox.cif.g08.bks.cpg/sg90_1_cif.got.tgz:427.got - 2010.06.03 19:17:45.
