data_PCOD9547425
_publ_section_title
;
Structure prediction by ZEFSAII (Michael W. Deem and Ramdas Pophale) SiO2 
 PCOD9547425
Probable space group: P 4 21 2
;
_chemical_formula_sum "Si O2"
_cell_formula_units_Z 50
_cell_length_a 8.450506
_cell_length_b 8.450506
_cell_length_c 31.148862
_cell_angle_alpha 90.000000
_cell_angle_beta 90.000000
_cell_angle_gamma 90.000000
_cell_volume 2224.372993
_symmetry_space_group_name_H-M "P 4 21 2"
_symmetry_group_IT_number 90
_symmetry_cell_setting 'tetragonal'
loop_
_space_group_symop_operation_xyz
x,y,z
1/2-y,1/2+x,z
-x,-y,z
1/2+y,1/2-x,z
1/2+x,1/2-y,-z
1/2-x,1/2+y,-z
y,x,-z
-y,-x,-z
loop_
_atom_site_type_symbol
_atom_site_label
_atom_site_fract_x
_atom_site_fract_y
_atom_site_fract_z
Si Si1 0.000000 0.500000 0.852004
Si Si2 0.902778 0.160877 0.869909
Si Si3 0.244969 0.919250 0.634166
Si Si4 0.244989 0.921213 0.537542
Si Si5 0.239886 0.401953 0.217109
Si Si6 0.254529 0.424209 0.709621
Si Si7 0.646198 0.777551 0.955604
O O1 0.010446 0.305398 0.853666
O O2 0.778437 0.118734 0.832715
O O3 0.821913 0.205002 0.914979
O O4 0.000000 0.000000 0.876857
O O5 0.402146 0.809622 0.638457
O O6 0.180679 0.898920 0.585800
O O7 0.124282 0.866412 0.670423
O O8 0.400778 0.810172 0.533927
O O9 0.127950 0.872051 0.500000
O O10 0.198003 0.582719 0.227486
O O11 0.383364 0.340264 0.245903
O O12 0.188858 0.600407 0.707488
O O13 0.456103 0.788802 0.953644
O O14 0.699496 0.699496 0.000000
#
# Coordination Sequence:
#
# PCOD9547425 Si02
#       7
#     2   8   8   8   8   8   8
#     4  12  28  44  80 108 144 188 244 288 352 432
#     4  12  28  48  76 110 145 191 236 294 360 417
#     4   9  19  39  62  84 117 162 214 265 326 398
#     4   9  19  35  56  84 118 159 206 263 324 392
#     4  11  25  45  70  99 134 176 226 281 343 413
#     4  11  26  41  60  92 130 168 215 272 336 406
#     4  11  27  47  73 108 147 189 241 295 353 426
#
# _framework density 22.478245999999999
#
# number of rings (size 3 to 8) (size 9 to 14) (size 15 to 20)
#    0.000    1.440    0.000    4.800    8.960    6.080 
#    0.000    4.800    0.000    0.000    0.000    0.000 
#    0.000    0.000    0.000    0.000    0.000    0.000 
#
# Total GULP energy -279633.262446 kJ/mol
# GULP energy per Si atom -5592.665249 kJ/mol
# Density = 2.242708 g / cm^3
# Si number density = 22.478246 Si / 1000 Ang^3
#
#
#
# Elastic Constant Matrix: (Units=GPa)
#
#
# Indices 1 2 3 4 5 6 
#
# 1 59.9013 26.4835 18.8870 0.0000 0.0000 0.0000
# 2 26.4835 59.9011 18.8867 0.0000 0.0000 0.0000
# 3 18.8870 18.8867 117.2986 0.0000 0.0000 0.0000
# 4 0.0000 0.0000 0.0000 82.0868 0.0000 0.0000
# 5 0.0000 0.0000 0.0000 0.0000 82.0862 0.0000
# 6 0.0000 0.0000 0.0000 0.0000 0.0000 89.5923
#
#
#
# Elastic Compliance Matrix: (Units=1/GPa)
#
#
# Indices 1 2 3 4 5 6 
#
# 1 0.021189 -0.008736 -0.002005 0.000000 0.000000 0.000000
# 2 -0.008736 0.021189 -0.002005 0.000000 0.000000 0.000000
# 3 -0.002005 -0.002005 0.009171 0.000000 0.000000 0.000000
# 4 0.000000 0.000000 0.000000 0.012182 0.000000 0.000000
# 5 0.000000 0.000000 0.000000 0.000000 0.012182 0.000000
# 6 0.000000 0.000000 0.000000 0.000000 0.000000 0.011162
#
#
# Mechanical properties :
#
#
# Convention : Reuss Voigt Hill
#
# Bulk Modulus (GPa) = 38.37837 40.62392 39.50114
# Shear Modulus (GPa) = 41.23654 62.27598 51.75626
#
# Velocity S-wave (km/s) = 4.28776 5.26926 4.80365
# Velocity P-wave (km/s) = 6.45165 7.42509 6.95542
#
# Compressibility (1/GPa) = 0.02605635
#
# Stress axis : x y z
#
# Youngs Moduli (GPa) = 47.19520 47.19511 109.03987
#
# Poissons Ratio (x) = 0.41228 0.21864
# Poissons Ratio (y) = 0.41228 0.21863
# Poissons Ratio (z) = 0.09463 0.09463
#
# Static dielectric constant tensor:
#      x y z
#    x 1.835580 0.000000 0.000000 
#    y 0.000000 1.835580 0.000000 
#    z 0.000000 0.000000 1.795400 
# 
# From -- ./inp_files/3076.got.cif
#   From: 2010.05.17/outbox.cif.g08.bks.cpg/sg90_2_cif.got.tgz:3076.got - 2010.06.03 19:17:45.
