data_PCOD9547087
_publ_section_title
;
Structure prediction by ZEFSAII (Michael W. Deem and Ramdas Pophale) SiO2 
 PCOD9547087
Probable space group: P 4 21 2
;
_chemical_formula_sum "Si O2"
_cell_formula_units_Z 40
_cell_length_a 15.408021
_cell_length_b 15.408021
_cell_length_c 7.218413
_cell_angle_alpha 90.000000
_cell_angle_beta 90.000000
_cell_angle_gamma 90.000000
_cell_volume 1713.702577
_symmetry_space_group_name_H-M "P 4 21 2"
_symmetry_group_IT_number 90
_symmetry_cell_setting 'tetragonal'
loop_
_space_group_symop_operation_xyz
x,y,z
1/2-y,1/2+x,z
-x,-y,z
1/2+y,1/2-x,z
1/2+x,1/2-y,-z
1/2-x,1/2+y,-z
y,x,-z
-y,-x,-z
loop_
_atom_site_type_symbol
_atom_site_label
_atom_site_fract_x
_atom_site_fract_y
_atom_site_fract_z
Si Si1 0.544040 0.862432 0.322358
Si Si2 0.451856 0.350768 0.758228
Si Si3 0.361183 0.682997 0.813559
Si Si4 0.839888 0.284635 0.373365
Si Si5 0.494524 0.326718 0.317023
O O1 0.446262 0.896038 0.282680
O O2 0.582792 0.836867 0.525520
O O3 0.544472 0.764389 0.243916
O O4 0.539686 0.335844 0.866526
O O5 0.382644 0.274441 0.784369
O O6 0.477528 0.339743 0.538203
O O7 0.405490 0.442754 0.776458
O O8 0.351723 0.768772 0.695298
O O9 0.328695 0.597088 0.710381
O O10 0.306979 0.693022 0.000000
O O11 0.784966 0.215035 0.500000
#
# Coordination Sequence:
#
# PCOD9547087 Si02
#       5
#     8   8   8   8   8
#     4  10  19  33  61  97 125 156 208 281 340 381
#     4  10  20  39  64  95 120 165 221 286 332 376
#     4  12  26  40  59  95 139 183 215 260 341 427
#     4  11  19  40  65  93 120 164 222 282 327 383
#     4  10  20  38  64  93 124 163 226 282 329 387
#
# _framework density 23.341273000000001
#
# number of rings (size 3 to 8) (size 9 to 14) (size 15 to 20)
#    0.000    1.400    4.000    6.000    0.000    3.200 
#    3.600    0.000    0.000    0.000    0.000    2.800 
#    0.000    0.000    0.000    0.000    0.000    0.000 
#
# Total GULP energy -223133.849733 kJ/mol
# GULP energy per Si atom -5578.346243 kJ/mol
# Density = 2.328815 g / cm^3
# Si number density = 23.341273 Si / 1000 Ang^3
#
#
#
# Elastic Constant Matrix: (Units=GPa)
#
#
# Indices 1 2 3 4 5 6 
#
# 1 105.3992 28.6827 10.7078 0.0000 0.0000 0.0000
# 2 28.6827 105.3994 10.7080 0.0000 0.0000 0.0000
# 3 10.7078 10.7080 30.8153 0.0000 0.0000 0.0000
# 4 0.0000 0.0000 0.0000 10.0763 0.0000 0.0000
# 5 0.0000 0.0000 0.0000 0.0000 10.0763 0.0000
# 6 0.0000 0.0000 0.0000 0.0000 0.0000 44.4296
#
#
#
# Elastic Compliance Matrix: (Units=1/GPa)
#
#
# Indices 1 2 3 4 5 6 
#
# 1 0.010466 -0.002569 -0.002744 0.000000 0.000000 0.000000
# 2 -0.002569 0.010466 -0.002744 0.000000 0.000000 0.000000
# 3 -0.002744 -0.002744 0.034358 0.000000 0.000000 0.000000
# 4 0.000000 0.000000 0.000000 0.099243 0.000000 0.000000
# 5 0.000000 0.000000 0.000000 0.000000 0.099243 0.000000
# 6 0.000000 0.000000 0.000000 0.000000 0.000000 0.022508
#
#
# Mechanical properties :
#
#
# Convention : Reuss Voigt Hill
#
# Bulk Modulus (GPa) = 25.52612 37.97899 31.75256
# Shear Modulus (GPa) = 16.36898 25.68413 21.02655
#
# Velocity S-wave (km/s) = 2.65106 3.32079 3.00464
# Velocity P-wave (km/s) = 4.50895 5.56866 5.06659
#
# Compressibility (1/GPa) = 0.03917555
#
# Stress axis : x y z
#
# Youngs Moduli (GPa) = 95.55036 95.55043 29.10503
#
# Poissons Ratio (x) = 0.24550 0.07986
# Poissons Ratio (y) = 0.24550 0.07986
# Poissons Ratio (z) = 0.26217 0.26218
#
# Static dielectric constant tensor:
#      x y z
#    x 1.899860 0.000000 0.000000 
#    y 0.000000 1.899860 0.000000 
#    z 0.000000 0.000000 1.975750 
# 
# From -- ./inp_files/1261.got.cif
#   From: 2010.05.17/outbox.cif.g08.bks.cpg/sg90_1_cif.got.tgz:1261.got - 2010.06.03 19:17:45.
