data_PCOD9547968
_publ_section_title
;
Structure prediction by ZEFSAII (Michael W. Deem and Ramdas Pophale) SiO2 
 PCOD9547968
Probable space group: P 41 2 2
;
_chemical_formula_sum "Si O2"
_cell_formula_units_Z 36
_cell_length_a 8.380708
_cell_length_b 8.380708
_cell_length_c 21.352379
_cell_angle_alpha 90.000000
_cell_angle_beta 90.000000
_cell_angle_gamma 90.000000
_cell_volume 1499.711384
_symmetry_space_group_name_H-M "P 41 2 2"
_symmetry_group_IT_number 91
_symmetry_cell_setting 'tetragonal'
loop_
_space_group_symop_operation_xyz
x,y,z
-y,x,1/4+z
-x,-y,1/2+z
y,-x,3/4+z
x,-y,1/2-z
-x,y,-z
y,x,3/4-z
-y,-x,1/4-z
loop_
_atom_site_type_symbol
_atom_site_label
_atom_site_fract_x
_atom_site_fract_y
_atom_site_fract_z
Si Si1 0.500000 0.706558 0.000000
Si Si2 0.000000 0.787265 0.500000
Si Si3 0.163327 0.163327 0.875000
Si Si4 0.535767 0.736415 0.216189
Si Si5 0.905467 0.340599 0.636959
Si Si6 0.792186 0.480916 0.324099
O O1 0.351289 0.586306 0.986981
O O2 0.433015 0.815247 0.056073
O O3 0.951521 0.872130 0.434627
O O4 0.842813 0.676579 0.506724
O O5 0.157150 0.351471 0.855072
O O6 0.438246 0.856730 0.173951
O O7 0.615606 0.594671 0.174880
O O8 0.830362 0.169639 0.625000
O O9 0.090507 0.348348 0.649018
O O10 0.820986 0.500000 0.250000
#
# Coordination Sequence:
#
# PCOD9547968 Si02
#       6
#     4   4   4   8   8   8
#     4  10  20  38  64  94 126 172 226 286 338 408
#     4  12  24  44  64 102 138 182 236 300 352 440
#     4  12  26  44  70 100 142 184 246 298 364 436
#     4  11  23  38  65  97 128 175 228 285 347 420
#     4  10  23  39  63  93 131 168 222 282 344 413
#     4  12  23  43  67  98 134 181 225 289 353 426
#
# _framework density 24.004617
#
# number of rings (size 3 to 8) (size 9 to 14) (size 15 to 20)
#    0.000    0.889    6.667    0.000    7.778    0.000 
#    2.000    0.000    0.000    2.667    0.000    0.000 
#    0.000    0.000    0.000    0.000    0.000    0.000 
#
# Total GULP energy -201053.338347 kJ/mol
# GULP energy per Si atom -5584.814954 kJ/mol
# Density = 2.394998 g / cm^3
# Si number density = 24.004617 Si / 1000 Ang^3
#
#
#
# Elastic Constant Matrix: (Units=GPa)
#
#
# Indices 1 2 3 4 5 6 
#
# 1 40.2007 30.8349 15.5384 0.0000 0.0000 0.0000
# 2 30.8349 40.1991 15.5379 0.0000 0.0000 0.0000
# 3 15.5384 15.5379 84.3603 0.0000 0.0000 0.0000
# 4 0.0000 0.0000 0.0000 26.1680 0.0000 0.0000
# 5 0.0000 0.0000 0.0000 0.0000 26.1676 0.0000
# 6 0.0000 0.0000 0.0000 0.0000 0.0000 37.0606
#
#
#
# Elastic Compliance Matrix: (Units=1/GPa)
#
#
# Indices 1 2 3 4 5 6 
#
# 1 0.061045 -0.045735 -0.002820 0.000000 0.000000 0.000000
# 2 -0.045735 0.061047 -0.002820 0.000000 0.000000 0.000000
# 3 -0.002820 -0.002820 0.012893 0.000000 0.000000 0.000000
# 4 0.000000 0.000000 0.000000 0.038215 0.000000 0.000000
# 5 0.000000 0.000000 0.000000 0.000000 0.038215 0.000000
# 6 0.000000 0.000000 0.000000 0.000000 0.000000 0.026983
#
#
# Mechanical properties :
#
#
# Convention : Reuss Voigt Hill
#
# Bulk Modulus (GPa) = 31.02231 32.06473 31.54352
# Shear Modulus (GPa) = 14.20885 24.73582 19.47234
#
# Velocity S-wave (km/s) = 2.43558 3.21356 2.85123
# Velocity P-wave (km/s) = 4.56738 5.21115 4.89985
#
# Compressibility (1/GPa) = 0.03223486
#
# Stress axis : x y z
#
# Youngs Moduli (GPa) = 16.38132 16.38071 77.56269
#
# Poissons Ratio (x) = 0.74917 0.21875
# Poissons Ratio (y) = 0.74920 0.21873
# Poissons Ratio (z) = 0.04620 0.04619
#
# Static dielectric constant tensor:
#      x y z
#    x 1.933720 0.000000 0.000000 
#    y 0.000000 1.933720 0.000000 
#    z 0.000000 0.000000 2.021930 
# 
# From -- ./inp_files/7296.got.cif
#   From: 2010.05.17/outbox.cif.g08.bks.cpg/sg91_4_cif.got.tgz:7296.got - 2010.06.03 19:20:03.
