data_PCOD9547155
_publ_section_title
;
Structure prediction by ZEFSAII (Michael W. Deem and Ramdas Pophale) SiO2 
 PCOD9547155
Probable space group: P 4 21 2
;
_chemical_formula_sum "Si O2"
_cell_formula_units_Z 64
_cell_length_a 24.006811
_cell_length_b 24.006811
_cell_length_c 5.574340
_cell_angle_alpha 90.000000
_cell_angle_beta 90.000000
_cell_angle_gamma 90.000000
_cell_volume 3212.642506
_symmetry_space_group_name_H-M "P 4 21 2"
_symmetry_group_IT_number 90
_symmetry_cell_setting 'tetragonal'
loop_
_space_group_symop_operation_xyz
x,y,z
1/2-y,1/2+x,z
-x,-y,z
1/2+y,1/2-x,z
1/2+x,1/2-y,-z
1/2-x,1/2+y,-z
y,x,-z
-y,-x,-z
loop_
_atom_site_type_symbol
_atom_site_label
_atom_site_fract_x
_atom_site_fract_y
_atom_site_fract_z
Si Si1 0.755770 0.152740 0.002785
Si Si2 0.110498 0.794037 0.501197
Si Si3 0.878544 0.398688 0.390143
Si Si4 0.554270 0.186090 0.227766
Si Si5 0.651507 0.219466 0.877046
Si Si6 0.382269 0.662283 0.752866
Si Si7 0.659370 0.014798 0.838316
Si Si8 0.009549 0.225341 0.392265
O O1 0.759815 0.118331 0.249960
O O2 0.811492 0.188509 0.000000
O O3 0.758551 0.124900 0.739109
O O4 0.704371 0.195119 0.012852
O O5 0.152707 0.847294 0.500000
O O6 0.044901 0.807091 0.482342
O O7 0.867750 0.413594 0.665720
O O8 0.824586 0.361343 0.331530
O O9 0.870064 0.459187 0.265961
O O10 0.932109 0.369222 0.279734
O O11 0.539301 0.236467 0.405611
O O12 0.596905 0.213568 0.041690
O O13 0.496781 0.161258 0.121632
O O14 0.655276 0.281798 0.781876
O O15 0.366701 0.633300 0.500000
O O16 0.445131 0.685237 0.726176
O O17 0.371803 0.628198 0.000000
O O18 0.724797 0.011416 0.777961
#
# Coordination Sequence:
#
# PCOD9547155 Si02
#       8
#     8   8   8   8   8   8   8   8
#     4  10  23  38  58  94 131 169 209 260 328 396
#     4  10  24  42  64  96 129 170 221 268 330 401
#     4  10  22  37  59  88 126 171 233 266 329 384
#     4  10  21  39  61  90 130 168 231 268 330 395
#     4  11  22  37  57  91 129 171 212 263 328 397
#     4  12  26  41  64  95 130 169 216 268 335 411
#     4  10  22  38  60  92 125 177 222 278 323 387
#     4  11  23  40  64  92 126 170 220 267 334 400
#
# _framework density 19.921295000000001
#
# number of rings (size 3 to 8) (size 9 to 14) (size 15 to 20)
#    0.000    1.500    3.750    1.875    7.000    4.750 
#    0.000    0.000    0.000    6.375    0.000    2.625 
#    0.000    0.000    0.000    0.000    0.000    0.000 
#
# Total GULP energy -356530.031022 kJ/mol
# GULP energy per Si atom -5570.781735 kJ/mol
# Density = 1.987595 g / cm^3
# Si number density = 19.921295 Si / 1000 Ang^3
#
#
#
# Elastic Constant Matrix: (Units=GPa)
#
#
# Indices 1 2 3 4 5 6 
#
# 1 50.9597 47.0367 32.9046 0.0000 0.0000 0.0000
# 2 47.0367 50.9631 32.9051 0.0000 0.0000 0.0000
# 3 32.9046 32.9051 103.5349 0.0000 0.0000 0.0000
# 4 0.0000 0.0000 0.0000 13.4866 0.0000 0.0000
# 5 0.0000 0.0000 0.0000 0.0000 13.4857 0.0000
# 6 0.0000 0.0000 0.0000 0.0000 0.0000 31.3823
#
#
#
# Elastic Compliance Matrix: (Units=1/GPa)
#
#
# Indices 1 2 3 4 5 6 
#
# 1 0.133890 -0.120912 -0.004124 0.000000 0.000000 0.000000
# 2 -0.120912 0.133879 -0.004122 0.000000 0.000000 0.000000
# 3 -0.004124 -0.004122 0.012279 0.000000 0.000000 0.000000
# 4 0.000000 0.000000 0.000000 0.074147 0.000000 0.000000
# 5 0.000000 0.000000 0.000000 0.000000 0.074153 0.000000
# 6 0.000000 0.000000 0.000000 0.000000 0.000000 0.031865
#
#
# Mechanical properties :
#
#
# Convention : Reuss Voigt Hill
#
# Bulk Modulus (GPa) = 46.01229 47.90559 46.95894
# Shear Modulus (GPa) = 6.88920 17.84501 12.36711
#
# Velocity S-wave (km/s) = 1.86164 2.99620 2.49429
# Velocity P-wave (km/s) = 5.26955 6.00577 5.64966
#
# Compressibility (1/GPa) = 0.02173332
#
# Stress axis : x y z
#
# Youngs Moduli (GPa) = 7.46883 7.46941 81.43806
#
# Poissons Ratio (x) = 0.90314 0.33586
# Poissons Ratio (y) = 0.90307 0.33568
# Poissons Ratio (z) = 0.03080 0.03079
#
# Static dielectric constant tensor:
#      x y z
#    x 1.719380 0.000000 0.000000 
#    y 0.000000 1.719380 0.000000 
#    z 0.000000 0.000000 1.862100 
# 
# From -- ./inp_files/774.got.cif
#   From: 2010.05.17/outbox.cif.g08.bks.cpg/sg90_1_cif.got.tgz:774.got - 2010.06.03 19:17:45.
