data_PCOD9547313
_publ_section_title
;
Structure prediction by ZEFSAII (Michael W. Deem and Ramdas Pophale) SiO2 
 PCOD9547313
Probable space group: P 4 21 2
;
_chemical_formula_sum "Si O2"
_cell_formula_units_Z 42
_cell_length_a 7.671094
_cell_length_b 7.671094
_cell_length_c 29.995273
_cell_angle_alpha 90.000000
_cell_angle_beta 90.000000
_cell_angle_gamma 90.000000
_cell_volume 1765.092331
_symmetry_space_group_name_H-M "P 4 21 2"
_symmetry_group_IT_number 90
_symmetry_cell_setting 'tetragonal'
loop_
_space_group_symop_operation_xyz
x,y,z
1/2-y,1/2+x,z
-x,-y,z
1/2+y,1/2-x,z
1/2+x,1/2-y,-z
1/2-x,1/2+y,-z
y,x,-z
-y,-x,-z
loop_
_atom_site_type_symbol
_atom_site_label
_atom_site_fract_x
_atom_site_fract_y
_atom_site_fract_z
Si Si1 0.723712 0.584960 0.454581
Si Si2 0.775784 0.113101 0.073370
Si Si3 0.000000 0.000000 0.000000
Si Si4 0.729800 0.620132 0.828352
Si Si5 0.772666 0.117796 0.266740
Si Si6 0.602467 0.724725 0.362240
O O1 0.790243 0.390244 0.455467
O O2 0.625044 0.625044 0.500000
O O3 0.637089 0.624016 0.407385
O O4 0.716008 0.908103 0.068293
O O5 0.848390 0.151403 0.123026
O O6 0.926751 0.139748 0.037161
O O7 0.780594 0.415428 0.828157
O O8 0.639279 0.658814 0.780893
O O9 0.586737 0.218184 0.266736
O O10 0.862350 0.148728 0.314478
O O11 0.402641 0.786062 0.362863
#
# Coordination Sequence:
#
# PCOD9547313 Si02
#       6
#     8   8   2   8   8   8
#     4  11  24  39  54  73  98 130 167 203 241 288
#     4   9  18  31  46  65  91 125 162 200 246 296
#     4  12  20  28  44  68  96 124 160 208 250 288
#     4   7  10  20  40  63  87 117 152 189 232 280
#     4   7  10  19  40  69  95 118 147 187 232 277
#     4   9  17  30  51  79 105 126 154 194 241 291
#
# _framework density 23.794786999999999
#
# number of rings (size 3 to 8) (size 9 to 14) (size 15 to 20)
#    0.000    3.238    0.000    5.143    0.000    4.190 
#    0.000    0.000    0.000    9.143    0.000    0.000 
#    0.000    3.048    0.000    0.000    0.000    0.000 
#
# Total GULP energy -233976.256596 kJ/mol
# GULP energy per Si atom -5570.863252 kJ/mol
# Density = 2.374063 g / cm^3
# Si number density = 23.794787 Si / 1000 Ang^3
#
#
#
# Elastic Constant Matrix: (Units=GPa)
#
#
# Indices 1 2 3 4 5 6 
#
# 1 82.9815 -22.8065 31.4003 0.0000 0.0000 0.0000
# 2 -22.8065 82.9815 31.4003 0.0000 0.0000 0.0000
# 3 31.4003 31.4003 266.4967 0.0000 0.0000 0.0000
# 4 0.0000 0.0000 0.0000 12.2717 0.0000 0.0000
# 5 0.0000 0.0000 0.0000 0.0000 12.2717 0.0000
# 6 0.0000 0.0000 0.0000 0.0000 0.0000 65.3915
#
#
#
# Elastic Compliance Matrix: (Units=1/GPa)
#
#
# Indices 1 2 3 4 5 6 
#
# 1 0.014201 0.004748 -0.002233 0.000000 0.000000 0.000000
# 2 0.004748 0.014201 -0.002233 0.000000 0.000000 0.000000
# 3 -0.002233 -0.002233 0.004279 0.000000 0.000000 0.000000
# 4 0.000000 0.000000 0.000000 0.081488 0.000000 0.000000
# 5 0.000000 0.000000 0.000000 0.000000 0.081488 0.000000
# 6 0.000000 0.000000 0.000000 0.000000 0.000000 0.015293
#
#
# Mechanical properties :
#
#
# Convention : Reuss Voigt Hill
#
# Bulk Modulus (GPa) = 30.08009 56.93863 43.50936
# Shear Modulus (GPa) = 22.57694 44.15136 33.36415
#
# Velocity S-wave (km/s) = 3.08363 4.31223 3.74861
# Velocity P-wave (km/s) = 5.03461 6.98389 6.08778
#
# Compressibility (1/GPa) = 0.03324458
#
# Stress axis : x y z
#
# Youngs Moduli (GPa) = 70.41982 70.41982 233.72638
#
# Poissons Ratio (x) = -0.33433 0.52182
# Poissons Ratio (y) = -0.33433 0.52182
# Poissons Ratio (z) = 0.15722 0.15722
#
# Static dielectric constant tensor:
#      x y z
#    x 1.917620 0.000000 0.000000 
#    y 0.000000 1.917620 0.000000 
#    z 0.000000 0.000000 1.982730 
# 
# From -- ./inp_files/3005.got.cif
#   From: 2010.05.17/outbox.cif.g08.bks.cpg/sg90_2_cif.got.tgz:3005.got - 2010.06.03 19:17:45.
