data_PCOD9547526
_publ_section_title
;
Structure prediction by ZEFSAII (Michael W. Deem and Ramdas Pophale) SiO2 
 PCOD9547526
Probable space group: P 41 2 2
;
_chemical_formula_sum "Si O2"
_cell_formula_units_Z 44
_cell_length_a 15.513751
_cell_length_b 15.513751
_cell_length_c 7.817947
_cell_angle_alpha 90.000000
_cell_angle_beta 90.000000
_cell_angle_gamma 90.000000
_cell_volume 1881.595887
_symmetry_space_group_name_H-M "P 41 2 2"
_symmetry_group_IT_number 91
_symmetry_cell_setting 'tetragonal'
loop_
_space_group_symop_operation_xyz
x,y,z
-y,x,1/4+z
-x,-y,1/2+z
y,-x,3/4+z
x,-y,1/2-z
-x,y,-z
y,x,3/4-z
-y,-x,1/4-z
loop_
_atom_site_type_symbol
_atom_site_label
_atom_site_fract_x
_atom_site_fract_y
_atom_site_fract_z
Si Si1 0.520982 0.908931 0.301015
Si Si2 0.163824 0.230792 0.610435
Si Si3 0.298652 0.629312 0.885451
Si Si4 0.094820 0.275543 0.985356
Si Si5 0.275512 0.544723 0.506098
Si Si6 0.000000 0.117314 0.500000
O O1 0.500000 0.899890 0.500000
O O2 0.622270 0.913546 0.258507
O O3 0.502469 0.817473 0.217027
O O4 0.479401 0.000000 0.250000
O O5 0.216768 0.314936 0.547436
O O6 0.135603 0.255345 0.802617
O O7 0.235389 0.155793 0.622172
O O8 0.078042 0.184696 0.541633
O O9 0.273972 0.592798 0.693438
O O10 0.329464 0.542573 0.979222
O O11 0.380432 0.691807 0.865382
O O12 0.000000 0.235698 0.000000
O O13 0.050001 0.050001 0.375000
#
# Coordination Sequence:
#
# PCOD9547526 Si02
#       6
#     8   8   8   8   8   4
#     4  11  20  35  57  91 129 165 215 272 330 398
#     4  11  20  39  61  91 125 175 220 269 339 397
#     4  10  18  33  62  94 127 167 218 273 335 397
#     4  10  19  33  60  85 118 169 213 260 330 403
#     4  10  17  35  58  99 126 165 217 270 331 404
#     4  12  30  46  66 100 134 174 234 286 338 410
#
# _framework density 23.384404
#
# number of rings (size 3 to 8) (size 9 to 14) (size 15 to 20)
#    0.000    1.455    5.455    2.182    3.818    0.000 
#    6.545    0.000    0.000    0.000   37.818    0.000 
#    0.000    0.000    0.000    0.000    0.000    0.000 
#
# Total GULP energy -245077.003763 kJ/mol
# GULP energy per Si atom -5569.931904 kJ/mol
# Density = 2.333118 g / cm^3
# Si number density = 23.384404 Si / 1000 Ang^3
#
#
#
# Elastic Constant Matrix: (Units=GPa)
#
#
# Indices 1 2 3 4 5 6 
#
# 1 142.4533 50.7751 12.9021 0.0000 0.0000 0.0000
# 2 50.7751 142.4533 12.9021 0.0000 0.0000 0.0000
# 3 12.9021 12.9021 21.5869 0.0000 0.0000 0.0000
# 4 0.0000 0.0000 0.0000 19.2814 0.0000 0.0000
# 5 0.0000 0.0000 0.0000 0.0000 19.2814 0.0000
# 6 0.0000 0.0000 0.0000 0.0000 0.0000 46.4725
#
#
#
# Elastic Compliance Matrix: (Units=1/GPa)
#
#
# Indices 1 2 3 4 5 6 
#
# 1 0.008266 -0.002642 -0.003361 0.000000 0.000000 0.000000
# 2 -0.002642 0.008266 -0.003361 0.000000 0.000000 0.000000
# 3 -0.003361 -0.003361 0.050342 0.000000 0.000000 0.000000
# 4 0.000000 0.000000 0.000000 0.051863 0.000000 0.000000
# 5 0.000000 0.000000 0.000000 0.000000 0.051863 0.000000
# 6 0.000000 0.000000 0.000000 0.000000 0.000000 0.021518
#
#
# Mechanical properties :
#
#
# Convention : Reuss Voigt Hill
#
# Bulk Modulus (GPa) = 20.77060 51.07245 35.92152
# Shear Modulus (GPa) = 22.03646 32.33469 27.18558
#
# Velocity S-wave (km/s) = 3.07311 3.72256 3.41332
# Velocity P-wave (km/s) = 4.63612 6.35330 5.56139
#
# Compressibility (1/GPa) = 0.04814498
#
# Stress axis : x y z
#
# Youngs Moduli (GPa) = 120.97872 120.97872 19.86397
#
# Poissons Ratio (x) = 0.31960 0.06677
# Poissons Ratio (y) = 0.31960 0.06677
# Poissons Ratio (z) = 0.40666 0.40666
#
# Static dielectric constant tensor:
#      x y z
#    x 1.906260 0.000000 0.000000 
#    y 0.000000 1.906260 0.000000 
#    z 0.000000 0.000000 1.912370 
# 
# From -- ./inp_files/15811.got.cif
#   From: 2010.05.17/outbox.cif.g08.bks.cpg/sg91_8_cif.got.tgz:15811.got - 2010.06.03 19:20:03.
