data_PCOD9547648
_publ_section_title
;
Structure prediction by ZEFSAII (Michael W. Deem and Ramdas Pophale) SiO2 
 PCOD9547648
Probable space group: P 41 2 2
;
_chemical_formula_sum "Si O2"
_cell_formula_units_Z 32
_cell_length_a 8.273906
_cell_length_b 8.273906
_cell_length_c 20.120008
_cell_angle_alpha 90.000000
_cell_angle_beta 90.000000
_cell_angle_gamma 90.000000
_cell_volume 1377.365860
_symmetry_space_group_name_H-M "P 41 2 2"
_symmetry_group_IT_number 91
_symmetry_cell_setting 'tetragonal'
loop_
_space_group_symop_operation_xyz
x,y,z
-y,x,1/4+z
-x,-y,1/2+z
y,-x,3/4+z
x,-y,1/2-z
-x,y,-z
y,x,3/4-z
-y,-x,1/4-z
loop_
_atom_site_type_symbol
_atom_site_label
_atom_site_fract_x
_atom_site_fract_y
_atom_site_fract_z
Si Si1 0.338089 0.270889 0.043162
Si Si2 0.640511 0.251627 0.696021
Si Si3 0.741654 0.000000 0.250000
Si Si4 0.500000 0.129545 0.500000
Si Si5 0.947255 0.527953 0.109414
O O1 0.286777 0.456108 0.035981
O O2 0.172260 0.177225 0.021172
O O3 0.392164 0.219135 0.117125
O O4 0.500000 0.252383 0.000000
O O5 0.666175 0.333825 0.625000
O O6 0.761025 0.340043 0.744941
O O7 0.651830 0.061779 0.680549
O O8 0.631443 0.051647 0.185973
O O9 0.504784 0.033169 0.430532
#
# Coordination Sequence:
#
# PCOD9547648 Si02
#       5
#     8   8   4   4   8
#     4  11  22  40  69  97 133 183 216 289 345 399
#     4   9  20  35  67  97 122 169 236 269 337 416
#     4  10  26  40  64 108 132 170 256 272 334 436
#     4  10  18  40  64  96 126 176 226 284 340 418
#     4  10  22  39  64  98 140 167 219 300 337 404
#
# _framework density 23.232755000000001
#
# number of rings (size 3 to 8) (size 9 to 14) (size 15 to 20)
#    0.000    2.000    2.500    0.000    3.500    6.000 
#    0.000    0.000   33.000    6.000    0.000    0.000 
#    0.000    0.000    0.000    0.000    0.000    0.000 
#
# Total GULP energy -178338.595795 kJ/mol
# GULP energy per Si atom -5573.081119 kJ/mol
# Density = 2.317988 g / cm^3
# Si number density = 23.232755 Si / 1000 Ang^3
#
#
#
# Elastic Constant Matrix: (Units=GPa)
#
#
# Indices 1 2 3 4 5 6 
#
# 1 50.4064 -0.7413 30.9583 0.0000 0.0000 0.0000
# 2 -0.7413 50.4063 30.9585 0.0000 0.0000 0.0000
# 3 30.9583 30.9585 139.5819 0.0000 0.0000 0.0000
# 4 0.0000 0.0000 0.0000 29.5035 0.0000 0.0000
# 5 0.0000 0.0000 0.0000 0.0000 29.5034 0.0000
# 6 0.0000 0.0000 0.0000 0.0000 0.0000 -418.9908
#
#
#
# Elastic Compliance Matrix: (Units=1/GPa)
#
#
# Indices 1 2 3 4 5 6 
#
# 1 0.023691 0.004139 -0.006173 0.000000 0.000000 0.000000
# 2 0.004139 0.023691 -0.006173 0.000000 0.000000 0.000000
# 3 -0.006173 -0.006173 0.009902 0.000000 0.000000 0.000000
# 4 0.000000 0.000000 0.000000 0.033894 0.000000 0.000000
# 5 0.000000 0.000000 0.000000 0.000000 0.033894 0.000000
# 6 0.000000 0.000000 0.000000 0.000000 0.000000 -0.002387
#
#
# Mechanical properties :
#
#
# Convention : Reuss Voigt Hill
#
# Bulk Modulus (GPa) = 24.46639 40.30505 32.38572
# Shear Modulus (GPa) = 32.73940 -60.04886 -13.65473
#
# Velocity S-wave (km/s) = 3.75799 -5.08947 -2.42696
# Velocity P-wave (km/s) = 5.42069 4.14137 2.47315
#
# Compressibility (1/GPa) = 0.04087239
#
# Stress axis : x y z
#
# Youngs Moduli (GPa) = 42.21078 42.21059 100.98650
#
# Poissons Ratio (x) = -0.17473 0.62334
# Poissons Ratio (y) = -0.17473 0.62335
# Poissons Ratio (z) = 0.26055 0.26055
#
# Static dielectric constant tensor:
#      x y z
#    x 1.954600 0.000000 0.000000 
#    y 0.000000 1.954600 0.000000 
#    z 0.000000 0.000000 1.884280 
# 
# From -- ./inp_files/6062.got.cif
#   From: 2010.05.17/outbox.cif.g08.bks.cpg/sg91_4_cif.got.tgz:6062.got - 2010.06.03 19:20:03.
