data_PCOD9547543
_publ_section_title
;
Structure prediction by ZEFSAII (Michael W. Deem and Ramdas Pophale) SiO2 
 PCOD9547543
Probable space group: P 41 2 2
;
_chemical_formula_sum "Si O2"
_cell_formula_units_Z 48
_cell_length_a 24.294885
_cell_length_b 24.294885
_cell_length_c 5.433141
_cell_angle_alpha 90.000000
_cell_angle_beta 90.000000
_cell_angle_gamma 90.000000
_cell_volume 3206.864952
_symmetry_space_group_name_H-M "P 41 2 2"
_symmetry_group_IT_number 91
_symmetry_cell_setting 'tetragonal'
loop_
_space_group_symop_operation_xyz
x,y,z
-y,x,1/4+z
-x,-y,1/2+z
y,-x,3/4+z
x,-y,1/2-z
-x,y,-z
y,x,3/4-z
-y,-x,1/4-z
loop_
_atom_site_type_symbol
_atom_site_label
_atom_site_fract_x
_atom_site_fract_y
_atom_site_fract_z
Si Si1 0.707173 0.606214 0.120605
Si Si2 0.233621 0.594903 0.381408
Si Si3 0.610122 0.531105 0.989245
Si Si4 0.740537 0.719694 0.624757
Si Si5 0.562214 0.065710 0.753453
Si Si6 0.888331 0.436958 0.991547
O O1 0.725660 0.584565 0.388324
O O2 0.709122 0.673164 0.122443
O O3 0.744783 0.583746 0.894733
O O4 0.647502 0.583154 0.062928
O O5 0.228896 0.661457 0.381074
O O6 0.176681 0.566283 0.450738
O O7 0.636052 0.500000 0.750000
O O8 0.554335 0.554335 0.875000
O O9 0.603039 0.500000 0.250000
O O10 0.751368 0.751368 0.375000
O O11 0.751270 0.751270 0.875000
O O12 0.499993 0.090126 0.748202
O O13 0.589579 0.085115 0.500776
O O14 0.558581 0.000000 0.750000
O O15 0.587791 0.090819 0.001173
#
# Coordination Sequence:
#
# PCOD9547543 Si02
#       6
#     8   8   8   8   8   8
#     4  10  20  37  52  68  89 114 128 143 191 273
#     4  10  18  30  48  69  92 105 126 163 197 223
#     4  12  26  44  60  74  84 102 131 158 191 237
#     4   8  15  27  47  61  77 107 126 136 171 240
#     4  10  19  33  45  56  81 123 153 159 187 241
#     4  10  18  29  43  64  82 105 135 178 194 208
#
# _framework density 14.967890000000001
#
# number of rings (size 3 to 8) (size 9 to 14) (size 15 to 20)
#    0.000    2.000    0.000    6.500    0.000    3.333 
#   18.000    0.000    0.000    0.000    0.000    0.000 
#    0.000    0.000    0.000    0.000    0.000    0.000 
#
# Total GULP energy -267389.571437 kJ/mol
# GULP energy per Si atom -5570.616072 kJ/mol
# Density = 1.493382 g / cm^3
# Si number density = 14.967890 Si / 1000 Ang^3
#
#
#
# Elastic Constant Matrix: (Units=GPa)
#
#
# Indices 1 2 3 4 5 6 
#
# 1 32.5571 11.2859 12.0098 0.0000 0.0000 0.0000
# 2 11.2859 32.5571 12.0098 0.0000 0.0000 0.0000
# 3 12.0098 12.0098 152.7161 0.0000 0.0000 0.0000
# 4 0.0000 0.0000 0.0000 16.5416 0.0000 0.0000
# 5 0.0000 0.0000 0.0000 0.0000 16.5416 0.0000
# 6 0.0000 0.0000 0.0000 0.0000 0.0000 1.7445
#
#
#
# Elastic Compliance Matrix: (Units=1/GPa)
#
#
# Indices 1 2 3 4 5 6 
#
# 1 0.035424 -0.011588 -0.001874 0.000000 0.000000 0.000000
# 2 -0.011588 0.035424 -0.001874 0.000000 0.000000 0.000000
# 3 -0.001874 -0.001874 0.006843 0.000000 0.000000 0.000000
# 4 0.000000 0.000000 0.000000 0.060454 0.000000 0.000000
# 5 0.000000 0.000000 0.000000 0.000000 0.060454 0.000000
# 6 0.000000 0.000000 0.000000 0.000000 0.000000 0.573232
#
#
# Mechanical properties :
#
#
# Convention : Reuss Voigt Hill
#
# Bulk Modulus (GPa) = 21.26926 32.04906 26.65916
# Shear Modulus (GPa) = 6.11116 19.13385 12.62250
#
# Velocity S-wave (km/s) = 2.02280 3.57925 2.90712
# Velocity P-wave (km/s) = 4.43806 6.20804 5.39611
#
# Compressibility (1/GPa) = 0.04701621
#
# Stress axis : x y z
#
# Youngs Moduli (GPa) = 28.22965 28.22965 146.13643
#
# Poissons Ratio (x) = 0.32713 0.27393
# Poissons Ratio (y) = 0.32713 0.27393
# Poissons Ratio (z) = 0.05292 0.05292
#
# Static dielectric constant tensor:
#      x y z
#    x 1.485790 0.000000 0.000000 
#    y 0.000000 1.485790 0.000000 
#    z 0.000000 0.000000 1.677850 
# 
# From -- ./inp_files/1263.got.cif
#   From: 2010.05.17/outbox.cif.g08.bks.cpg/sg91_1_cif.got.tgz:1263.got - 2010.06.03 19:20:03.
