data_PCOD9547058
_publ_section_title
;
Structure prediction by ZEFSAII (Michael W. Deem and Ramdas Pophale) SiO2 
 PCOD9547058
Probable space group: P 4 2 2
;
_chemical_formula_sum "Si O2"
_cell_formula_units_Z 48
_cell_length_a 9.363443
_cell_length_b 9.363443
_cell_length_c 27.462068
_cell_angle_alpha 90.000000
_cell_angle_beta 90.000000
_cell_angle_gamma 90.000000
_cell_volume 2407.711130
_symmetry_space_group_name_H-M "P 4 2 2"
_symmetry_group_IT_number 89
_symmetry_cell_setting 'tetragonal'
loop_
_space_group_symop_operation_xyz
x,y,z
-y,x,z
-x,-y,z
y,-x,z
x,-y,-z
-x,y,-z
y,x,-z
-y,-x,-z
loop_
_atom_site_type_symbol
_atom_site_label
_atom_site_fract_x
_atom_site_fract_y
_atom_site_fract_z
Si Si1 0.412644 0.712239 0.807833
Si Si2 0.131531 0.200552 0.636895
Si Si3 0.215563 0.894640 0.747209
Si Si4 0.718913 0.426560 0.074992
Si Si5 0.683815 0.655496 0.554288
Si Si6 0.219377 0.044619 0.056655
O O1 0.319467 0.574338 0.792366
O O2 0.335313 0.846107 0.784703
O O3 0.420089 0.717515 0.866306
O O4 0.148047 0.258084 0.692003
O O5 0.213402 0.285586 0.595603
O O6 0.960971 0.189451 0.632196
O O7 0.062204 0.817353 0.753334
O O8 0.675525 0.586504 0.058672
O O9 0.873674 0.368449 0.060654
O O10 0.516003 0.692198 0.558577
O O11 0.715129 0.715129 0.500000
O O12 0.105815 0.162216 0.077794
O O13 0.206620 0.000000 0.000000
#
# Coordination Sequence:
#
# PCOD9547058 Si02
#       6
#     8   8   8   8   8   8
#     4   9  19  35  54  79 111 142 174 216 262 310
#     4   9  19  35  52  72 102 138 175 218 267 318
#     4   9  19  35  52  74 107 143 178 217 262 314
#     4   9  19  37  59  83 111 142 178 219 262 310
#     4   9  19  35  52  72 100 133 172 220 272 325
#     4   9  19  37  55  77 109 140 172 212 256 303
#
# _framework density 19.935945
#
# number of rings (size 3 to 8) (size 9 to 14) (size 15 to 20)
#    0.000    3.000    0.000    3.000    0.000    5.333 
#    0.000   20.833    0.000    4.000    0.000    0.000 
#    0.000    0.000    0.000    0.000    0.000    0.000 
#
# Total GULP energy -267289.132271 kJ/mol
# GULP energy per Si atom -5568.523589 kJ/mol
# Density = 1.989057 g / cm^3
# Si number density = 19.935945 Si / 1000 Ang^3
#
#
#
# Elastic Constant Matrix: (Units=GPa)
#
#
# Indices 1 2 3 4 5 6 
#
# 1 -72.2534 120.7621 14.3451 0.0000 0.0000 0.0000
# 2 120.7621 -72.2534 14.3451 0.0000 0.0000 0.0000
# 3 14.3451 14.3451 30.8980 0.0000 0.0000 0.0000
# 4 0.0000 0.0000 0.0000 23.8058 0.0000 0.0000
# 5 0.0000 0.0000 0.0000 0.0000 23.8058 0.0000
# 6 0.0000 0.0000 0.0000 0.0000 0.0000 48.7619
#
#
#
# Elastic Compliance Matrix: (Units=1/GPa)
#
#
# Indices 1 2 3 4 5 6 
#
# 1 0.011619 0.016800 -0.013194 0.000000 0.000000 0.000000
# 2 0.016800 0.011619 -0.013194 0.000000 0.000000 0.000000
# 3 -0.013194 -0.013194 0.044616 0.000000 0.000000 0.000000
# 4 0.000000 0.000000 0.000000 0.042007 0.000000 0.000000
# 5 0.000000 0.000000 0.000000 0.000000 0.042007 0.000000
# 6 0.000000 0.000000 0.000000 0.000000 0.000000 0.020508
#
#
# Mechanical properties :
#
#
# Convention : Reuss Voigt Hill
#
# Bulk Modulus (GPa) = 20.54364 20.58842 20.56603
# Shear Modulus (GPa) = 24.06444 1.73729 12.90087
#
# Velocity S-wave (km/s) = 3.47809 0.93452 2.54661
# Velocity P-wave (km/s) = 5.14360 3.39325 4.35722
#
# Compressibility (1/GPa) = 0.04867686
#
# Stress axis : x y z
#
# Youngs Moduli (GPa) = 86.06860 86.06860 22.41372
#
# Poissons Ratio (x) = -1.44592 0.29572
# Poissons Ratio (y) = -1.44592 0.29572
# Poissons Ratio (z) = 1.13557 1.13557
#
# Static dielectric constant tensor:
#      x y z
#    x 1.725300 0.000000 0.000000 
#    y 0.000000 1.725300 0.000000 
#    z 0.000000 0.000000 1.715890 
# 
# From -- ./inp_files/2951.got.cif
#   From: 2010.05.17/outbox.cif.g08.bks.cpg/sg89_2_cif.got.tgz:2951.got - 2010.06.03 19:15:31.
