data_PCOD9547372
_publ_section_title
;
Structure prediction by ZEFSAII (Michael W. Deem and Ramdas Pophale) SiO2 
 PCOD9547372
Probable space group: P 4 21 2
;
_chemical_formula_sum "Si O2"
_cell_formula_units_Z 34
_cell_length_a 8.615565
_cell_length_b 8.615565
_cell_length_c 21.518772
_cell_angle_alpha 90.000000
_cell_angle_beta 90.000000
_cell_angle_gamma 90.000000
_cell_volume 1597.294553
_symmetry_space_group_name_H-M "P 4 21 2"
_symmetry_group_IT_number 90
_symmetry_cell_setting 'tetragonal'
loop_
_space_group_symop_operation_xyz
x,y,z
1/2-y,1/2+x,z
-x,-y,z
1/2+y,1/2-x,z
1/2+x,1/2-y,-z
1/2-x,1/2+y,-z
y,x,-z
-y,-x,-z
loop_
_atom_site_type_symbol
_atom_site_label
_atom_site_fract_x
_atom_site_fract_y
_atom_site_fract_z
Si Si1 0.262609 0.886224 0.172384
Si Si2 0.922119 0.170436 0.434364
Si Si3 0.268939 0.878397 0.312000
Si Si4 0.902287 0.257197 0.057042
Si Si5 0.000000 0.500000 0.436721
O O1 0.430482 0.801209 0.165602
O O2 0.205587 0.852052 0.242445
O O3 0.145012 0.827592 0.120612
O O4 0.832133 0.167868 0.500000
O O5 0.831681 0.175905 0.369207
O O6 0.039607 0.314183 0.436646
O O7 0.000000 0.000000 0.432258
O O8 0.437421 0.799172 0.316395
O O9 0.805215 0.418192 0.053803
O O10 0.849872 0.150129 0.000000
#
# Coordination Sequence:
#
# PCOD9547372 Si02
#       5
#     8   8   8   8   2
#     4   9  19  39  64  94 124 165 217 262 318 392
#     4  11  26  44  67 102 138 178 232 284 350 418
#     4   9  19  39  68  92 129 180 223 273 339 406
#     4  11  24  41  61  91 126 164 207 264 324 388
#     4  12  28  44  68 104 132 176 224 290 348 396
#
# _framework density 21.285990999999999
#
# number of rings (size 3 to 8) (size 9 to 14) (size 15 to 20)
#    0.000    1.882    0.000    4.235    6.588    5.176 
#   12.706    0.000    0.000    0.000    0.000    0.000 
#    0.000    0.000    0.000    0.000    0.000    0.000 
#
# Total GULP energy -189520.139784 kJ/mol
# GULP energy per Si atom -5574.121758 kJ/mol
# Density = 2.123754 g / cm^3
# Si number density = 21.285991 Si / 1000 Ang^3
#
#
#
# Elastic Constant Matrix: (Units=GPa)
#
#
# Indices 1 2 3 4 5 6 
#
# 1 55.7787 17.5646 36.9996 0.0000 0.0000 0.0000
# 2 17.5646 55.7801 37.0005 0.0000 0.0000 0.0000
# 3 36.9996 37.0005 161.2551 0.0000 0.0000 0.0000
# 4 0.0000 0.0000 0.0000 104.1478 0.0000 0.0000
# 5 0.0000 0.0000 0.0000 0.0000 104.0951 0.0000
# 6 0.0000 0.0000 0.0000 0.0000 0.0000 107.3717
#
#
#
# Elastic Compliance Matrix: (Units=1/GPa)
#
#
# Indices 1 2 3 4 5 6 
#
# 1 0.021955 -0.004213 -0.004071 0.000000 0.000000 0.000000
# 2 -0.004213 0.021955 -0.004071 0.000000 0.000000 0.000000
# 3 -0.004071 -0.004071 0.008069 0.000000 0.000000 0.000000
# 4 0.000000 0.000000 0.000000 0.009602 0.000000 0.000000
# 5 0.000000 0.000000 0.000000 0.000000 0.009607 0.000000
# 6 0.000000 0.000000 0.000000 0.000000 0.000000 0.009313
#
#
# Mechanical properties :
#
#
# Convention : Reuss Voigt Hill
#
# Bulk Modulus (GPa) = 36.67112 50.66037 43.66575
# Shear Modulus (GPa) = 43.74446 75.20619 59.47532
#
# Velocity S-wave (km/s) = 4.53822 5.95046 5.29167
# Velocity P-wave (km/s) = 6.68773 8.42984 7.60881
#
# Compressibility (1/GPa) = 0.02726941
#
# Stress axis : x y z
#
# Youngs Moduli (GPa) = 45.54771 45.54865 123.92394
#
# Poissons Ratio (x) = 0.19190 0.50447
# Poissons Ratio (y) = 0.19190 0.50448
# Poissons Ratio (z) = 0.18542 0.18542
#
# Static dielectric constant tensor:
#      x y z
#    x 1.293860 0.000000 0.000000 
#    y 0.000000 1.294190 0.000000 
#    z 0.000000 0.000000 1.745830 
# 
# From -- ./inp_files/2720.got.cif
#   From: 2010.05.17/outbox.cif.g08.bks.cpg/sg90_2_cif.got.tgz:2720.got - 2010.06.03 19:17:45.
