data_PCOD9547765
_publ_section_title
;
Structure prediction by ZEFSAII (Michael W. Deem and Ramdas Pophale) SiO2 
 PCOD9547765
Probable space group: P 41 2 2
;
_chemical_formula_sum "Si O2"
_cell_formula_units_Z 60
_cell_length_a 18.701887
_cell_length_b 18.701887
_cell_length_c 9.561967
_cell_angle_alpha 90.000000
_cell_angle_beta 90.000000
_cell_angle_gamma 90.000000
_cell_volume 3344.399099
_symmetry_space_group_name_H-M "P 41 2 2"
_symmetry_group_IT_number 91
_symmetry_cell_setting 'tetragonal'
loop_
_space_group_symop_operation_xyz
x,y,z
-y,x,1/4+z
-x,-y,1/2+z
y,-x,3/4+z
x,-y,1/2-z
-x,y,-z
y,x,3/4-z
-y,-x,1/4-z
loop_
_atom_site_type_symbol
_atom_site_label
_atom_site_fract_x
_atom_site_fract_y
_atom_site_fract_z
Si Si1 0.729162 0.422129 0.513085
Si Si2 0.335769 0.066275 0.154604
Si Si3 0.129756 0.489628 0.583493
Si Si4 0.620977 0.385489 0.961857
Si Si5 0.312665 0.232972 0.748478
Si Si6 0.358381 0.071681 0.825865
Si Si7 0.792223 0.734833 0.003474
Si Si8 0.360170 0.500000 0.250000
O O1 0.792925 0.478075 0.485508
O O2 0.683188 0.412344 0.369136
O O3 0.761414 0.343351 0.540795
O O4 0.684886 0.447993 0.647201
O O5 0.415991 0.089554 0.197260
O O6 0.282190 0.130986 0.184540
O O7 0.314977 0.000000 0.250000
O O8 0.342911 0.057012 0.988669
O O9 0.141522 0.500000 0.750000
O O10 0.083221 0.557611 0.541474
O O11 0.708010 0.374282 0.963523
O O12 0.599892 0.450409 0.861261
O O13 0.603149 0.396851 0.125000
O O14 0.330948 0.151704 0.787961
O O15 0.260324 0.233958 0.618370
O O16 0.270889 0.270889 0.875000
O O17 0.331882 0.000000 0.750000
O O18 0.788253 0.788253 0.875000
#
# Coordination Sequence:
#
# PCOD9547765 Si02
#       8
#     8   8   8   8   8   8   8   4
#     4  10  21  37  57  85 112 145 196 249 294 345
#     4  10  21  37  51  79 119 161 187 234 288 344
#     4   9  20  35  57  79 116 159 197 231 285 355
#     4  10  23  37  62  86 109 146 197 251 305 359
#     4  10  19  37  58  83 114 152 201 244 288 337
#     4  11  22  36  57  86 120 156 193 235 288 356
#     4  10  20  35  57  81 111 149 197 244 281 335
#     4  12  22  36  56  86 116 132 180 246 312 352
#
# _framework density 17.940442999999998
#
# number of rings (size 3 to 8) (size 9 to 14) (size 15 to 20)
#    0.000    1.867    1.333    3.200    9.333    0.000 
#    2.400    0.000    1.467    6.400    0.000    0.000 
#    0.000    3.200    0.000    0.000    0.000    0.000 
#
# Total GULP energy -334609.071800 kJ/mol
# GULP energy per Si atom -5576.817863 kJ/mol
# Density = 1.789961 g / cm^3
# Si number density = 17.940443 Si / 1000 Ang^3
#
#
#
# Elastic Constant Matrix: (Units=GPa)
#
#
# Indices 1 2 3 4 5 6 
#
# 1 52.9139 27.4377 27.3481 0.0000 0.0000 0.0000
# 2 27.4377 52.9139 27.3481 0.0000 0.0000 0.0000
# 3 27.3481 27.3481 90.5986 0.0000 0.0000 0.0000
# 4 0.0000 0.0000 0.0000 34.4669 0.0000 0.0000
# 5 0.0000 0.0000 0.0000 0.0000 34.4669 0.0000
# 6 0.0000 0.0000 0.0000 0.0000 0.0000 -104.5664
#
#
#
# Elastic Compliance Matrix: (Units=1/GPa)
#
#
# Indices 1 2 3 4 5 6 
#
# 1 0.027458 -0.011794 -0.004728 0.000000 0.000000 0.000000
# 2 -0.011794 0.027458 -0.004728 0.000000 0.000000 0.000000
# 3 -0.004728 -0.004728 0.013892 0.000000 0.000000 0.000000
# 4 0.000000 0.000000 0.000000 0.029013 0.000000 0.000000
# 5 0.000000 0.000000 0.000000 0.000000 0.029013 0.000000
# 6 0.000000 0.000000 0.000000 0.000000 0.000000 -0.009563
#
#
# Mechanical properties :
#
#
# Convention : Reuss Voigt Hill
#
# Bulk Modulus (GPa) = 38.01289 40.07713 39.04501
# Shear Modulus (GPa) = 29.66604 0.49296 15.07950
#
# Velocity S-wave (km/s) = 4.07084 0.52476 2.90234
# Velocity P-wave (km/s) = 6.58256 4.77018 5.74825
#
# Compressibility (1/GPa) = 0.02630686
#
# Stress axis : x y z
#
# Youngs Moduli (GPa) = 36.41901 36.41901 71.98241
#
# Poissons Ratio (x) = 0.42954 0.34036
# Poissons Ratio (y) = 0.42954 0.34036
# Poissons Ratio (z) = 0.17220 0.17220
#
# Static dielectric constant tensor:
#      x y z
#    x 1.632290 0.000000 0.000000 
#    y 0.000000 1.632290 0.000000 
#    z 0.000000 0.000000 1.594170 
# 
# From -- ./inp_files/15306.got.cif
#   From: 2010.05.17/outbox.cif.g08.bks.cpg/sg91_8_cif.got.tgz:15306.got - 2010.06.03 19:20:03.
