data_PCOD9547209
_publ_section_title
;
Structure prediction by ZEFSAII (Michael W. Deem and Ramdas Pophale) SiO2 
 PCOD9547209
Probable space group: P 4 21 2
;
_chemical_formula_sum "Si O2"
_cell_formula_units_Z 48
_cell_length_a 8.282587
_cell_length_b 8.282587
_cell_length_c 33.983476
_cell_angle_alpha 90.000000
_cell_angle_beta 90.000000
_cell_angle_gamma 90.000000
_cell_volume 2331.308845
_symmetry_space_group_name_H-M "P 4 21 2"
_symmetry_group_IT_number 90
_symmetry_cell_setting 'tetragonal'
loop_
_space_group_symop_operation_xyz
x,y,z
1/2-y,1/2+x,z
-x,-y,z
1/2+y,1/2-x,z
1/2+x,1/2-y,-z
1/2-x,1/2+y,-z
y,x,-z
-y,-x,-z
loop_
_atom_site_type_symbol
_atom_site_label
_atom_site_fract_x
_atom_site_fract_y
_atom_site_fract_z
Si Si1 0.000000 0.000000 0.257370
Si Si2 0.234146 0.046268 0.532722
Si Si3 0.000000 0.000000 0.394914
Si Si4 0.446658 0.736782 0.323111
Si Si5 0.911290 0.241666 0.805973
Si Si6 0.900384 0.245364 0.117123
Si Si7 0.246417 0.897801 0.039113
O O1 0.885125 0.908018 0.287861
O O2 0.886071 0.106382 0.229251
O O3 0.375875 0.177324 0.528532
O O4 0.109215 0.109215 0.500000
O O5 0.147455 0.023763 0.574688
O O6 0.146364 0.034410 0.364648
O O7 0.318571 0.878668 0.319181
O O8 0.802804 0.403117 0.803767
O O9 0.864895 0.153350 0.846372
O O10 0.798002 0.412676 0.118634
O O11 0.855800 0.153871 0.077046
O O12 0.414859 0.797412 0.039679
O O13 0.150020 0.849981 0.000000
#
# Coordination Sequence:
#
# PCOD9547209 Si02
#       7
#     4   8   4   8   8   8   8
#     4  11  22  38  63  90 120 154 197 252 304 365
#     4  11  23  39  61  91 131 178 230 288 346 406
#     4  11  21  38  63  92 126 166 217 276 335 393
#     4  10  22  40  63  91 123 162 207 257 319 392
#     4  11  23  40  64  92 122 160 205 253 309 375
#     4  11  24  41  62  92 128 164 205 255 312 376
#     4  11  24  41  62  90 123 163 212 263 316 375
#
# _framework density 20.589292
#
# number of rings (size 3 to 8) (size 9 to 14) (size 15 to 20)
#    0.000    1.167    0.000    6.250    0.000    7.667 
#    0.000    1.667    0.000   18.500    0.000    0.000 
#    0.000    0.000    0.000    0.000    0.000    0.000 
#
# Total GULP energy -268064.188751 kJ/mol
# GULP energy per Si atom -5584.670599 kJ/mol
# Density = 2.054243 g / cm^3
# Si number density = 20.589292 Si / 1000 Ang^3
#
#
#
# Elastic Constant Matrix: (Units=GPa)
#
#
# Indices 1 2 3 4 5 6 
#
# 1 97.8681 50.0621 67.9183 0.0000 0.0000 0.0000
# 2 50.0621 97.8673 67.9182 0.0000 0.0000 0.0000
# 3 67.9183 67.9182 177.5484 0.0000 0.0000 0.0000
# 4 0.0000 0.0000 0.0000 21.7599 0.0000 0.0000
# 5 0.0000 0.0000 0.0000 0.0000 21.7601 0.0000
# 6 0.0000 0.0000 0.0000 0.0000 0.0000 23.7015
#
#
#
# Elastic Compliance Matrix: (Units=1/GPa)
#
#
# Indices 1 2 3 4 5 6 
#
# 1 0.015669 -0.005249 -0.003986 0.000000 0.000000 0.000000
# 2 -0.005249 0.015669 -0.003986 0.000000 0.000000 0.000000
# 3 -0.003986 -0.003986 0.008682 0.000000 0.000000 0.000000
# 4 0.000000 0.000000 0.000000 0.045956 0.000000 0.000000
# 5 0.000000 0.000000 0.000000 0.000000 0.045956 0.000000
# 6 0.000000 0.000000 0.000000 0.000000 0.000000 0.042191
#
#
# Mechanical properties :
#
#
# Convention : Reuss Voigt Hill
#
# Bulk Modulus (GPa) = 73.64882 82.78678 78.21780
# Shear Modulus (GPa) = 24.37938 25.93665 25.15801
#
# Velocity S-wave (km/s) = 3.44478 3.55310 3.49936
# Velocity P-wave (km/s) = 7.18819 7.55835 7.37559
#
# Compressibility (1/GPa) = 0.01357795
#
# Stress axis : x y z
#
# Youngs Moduli (GPa) = 63.82013 63.81953 115.18247
#
# Poissons Ratio (x) = 0.33498 0.45912
# Poissons Ratio (y) = 0.33499 0.45913
# Poissons Ratio (z) = 0.25439 0.25439
#
# Static dielectric constant tensor:
#      x y z
#    x 1.943690 0.000000 0.000000 
#    y 0.000000 1.943680 0.000000 
#    z 0.000000 0.000000 1.701250 
# 
# From -- ./inp_files/3126.got.cif
#   From: 2010.05.17/outbox.cif.g08.bks.cpg/sg90_2_cif.got.tgz:3126.got - 2010.06.03 19:17:45.
