data_PCOD9547056
_publ_section_title
;
Structure prediction by ZEFSAII (Michael W. Deem and Ramdas Pophale) SiO2 
 PCOD9547056
Probable space group: P 4 2 2
;
_chemical_formula_sum "Si O2"
_cell_formula_units_Z 44
_cell_length_a 9.514204
_cell_length_b 9.514204
_cell_length_c 30.981624
_cell_angle_alpha 90.000000
_cell_angle_beta 90.000000
_cell_angle_gamma 90.000000
_cell_volume 2804.459013
_symmetry_space_group_name_H-M "P 4 2 2"
_symmetry_group_IT_number 89
_symmetry_cell_setting 'tetragonal'
loop_
_space_group_symop_operation_xyz
x,y,z
-y,x,z
-x,-y,z
y,-x,z
x,-y,-z
-x,y,-z
y,x,-z
-y,-x,-z
loop_
_atom_site_type_symbol
_atom_site_label
_atom_site_fract_x
_atom_site_fract_y
_atom_site_fract_z
Si Si1 0.000000 0.500000 0.839719
Si Si2 0.735591 0.500000 0.676376
Si Si3 1.000000 0.235568 0.449878
Si Si4 0.000000 0.762712 0.000000
Si Si5 0.500000 0.000000 0.613243
Si Si6 0.760892 0.000000 0.904523
Si Si7 0.264419 0.500000 0.776598
O O1 0.000000 0.361096 0.869439
O O2 0.863480 0.500000 0.809324
O O3 0.635319 0.635319 0.670186
O O4 0.782438 0.500000 0.726488
O O5 0.863663 0.500000 0.643701
O O6 1.000000 0.363678 0.417220
O O7 0.135320 0.135320 0.443672
O O8 0.000000 0.282296 0.500000
O O9 0.134369 0.865631 0.000000
O O10 0.000000 0.693839 0.952899
O O11 0.864734 0.864734 0.900692
O O12 0.364683 0.364683 0.782777
#
# Coordination Sequence:
#
# PCOD9547056 Si02
#       7
#     4   8   8   4   4   8   8
#     4  12  19  27  48  75  91 110 151 197 226 254
#     4   9  19  34  49  67  93 122 151 186 229 274
#     4   9  19  34  48  66  97 131 155 179 221 276
#     4   7  12  27  46  60  84 122 150 172 216 274
#     4  12  18  28  52  79  91 110 156 204 230 250
#     4   9  18  31  46  66  92 119 148 184 225 267
#     4   9  19  35  49  63  91 127 153 177 222 282
#
# _framework density 15.689302
#
# number of rings (size 3 to 8) (size 9 to 14) (size 15 to 20)
#    0.000    2.636    0.000    5.727    0.000    0.364 
#    0.000    0.000    0.000    0.000    0.000   22.909 
#    0.000   11.636    0.000    0.000    0.000    0.000 
#
# Total GULP energy -245202.829395 kJ/mol
# GULP energy per Si atom -5572.791577 kJ/mol
# Density = 1.565359 g / cm^3
# Si number density = 15.689302 Si / 1000 Ang^3
#
#
#
# Elastic Constant Matrix: (Units=GPa)
#
#
# Indices 1 2 3 4 5 6 
#
# 1 104.6619 47.8585 98.9908 0.0000 0.0000 0.0000
# 2 47.8585 104.6619 98.9908 0.0000 0.0000 0.0000
# 3 98.9908 98.9908 175.6133 0.0000 0.0000 0.0000
# 4 0.0000 0.0000 0.0000 3.2831 0.0000 0.0000
# 5 0.0000 0.0000 0.0000 0.0000 3.2831 0.0000
# 6 0.0000 0.0000 0.0000 0.0000 0.0000 6.0839
#
#
#
# Elastic Compliance Matrix: (Units=1/GPa)
#
#
# Indices 1 2 3 4 5 6 
#
# 1 0.021021 0.003416 -0.013775 0.000000 0.000000 0.000000
# 2 0.003416 0.021021 -0.013775 0.000000 0.000000 0.000000
# 3 -0.013775 -0.013775 0.021224 0.000000 0.000000 0.000000
# 4 0.000000 0.000000 0.000000 0.304589 0.000000 0.000000
# 5 0.000000 0.000000 0.000000 0.000000 0.304589 0.000000
# 6 0.000000 0.000000 0.000000 0.000000 0.000000 0.164367
#
#
# Mechanical properties :
#
#
# Convention : Reuss Voigt Hill
#
# Bulk Modulus (GPa) = 66.67295 97.40192 82.03743
# Shear Modulus (GPa) = 5.61749 11.80317 8.71033
#
# Velocity S-wave (km/s) = 1.89426 2.74580 2.35877
# Velocity P-wave (km/s) = 6.88276 8.50112 7.73438
#
# Compressibility (1/GPa) = 0.01499859
#
# Stress axis : x y z
#
# Youngs Moduli (GPa) = 47.57160 47.57160 47.11683
#
# Poissons Ratio (x) = -0.16252 0.64903
# Poissons Ratio (y) = -0.16252 0.64903
# Poissons Ratio (z) = 0.65530 0.65530
#
# Static dielectric constant tensor:
#      x y z
#    x 1.495540 0.000000 0.000000 
#    y 0.000000 1.495540 0.000000 
#    z 0.000000 0.000000 1.522910 
# 
# From -- ./inp_files/2948.got.cif
#   From: 2010.05.17/outbox.cif.g08.bks.cpg/sg89_2_cif.got.tgz:2948.got - 2010.06.03 19:15:31.
