data_PCOD9547444
_publ_section_title
;
Structure prediction by ZEFSAII (Michael W. Deem and Ramdas Pophale) SiO2 
 PCOD9547444
Probable space group: P 4 21 2
;
_chemical_formula_sum "Si O2"
_cell_formula_units_Z 60
_cell_length_a 12.901543
_cell_length_b 12.901543
_cell_length_c 21.154694
_cell_angle_alpha 90.000000
_cell_angle_beta 90.000000
_cell_angle_gamma 90.000000
_cell_volume 3521.194835
_symmetry_space_group_name_H-M "P 4 21 2"
_symmetry_group_IT_number 90
_symmetry_cell_setting 'tetragonal'
loop_
_space_group_symop_operation_xyz
x,y,z
1/2-y,1/2+x,z
-x,-y,z
1/2+y,1/2-x,z
1/2+x,1/2-y,-z
1/2-x,1/2+y,-z
y,x,-z
-y,-x,-z
loop_
_atom_site_type_symbol
_atom_site_label
_atom_site_fract_x
_atom_site_fract_y
_atom_site_fract_z
Si Si1 0.368639 0.385671 0.428489
Si Si2 0.596930 0.142782 0.764608
Si Si3 0.591003 0.149152 0.912646
Si Si4 0.750000 0.250000 0.329468
Si Si5 0.631362 0.385672 0.571511
Si Si6 0.149152 0.408997 0.912646
Si Si7 0.250000 0.750001 0.000000
Si Si8 0.403070 0.142783 0.235392
O O1 0.347051 0.347051 0.500000
O O2 0.296494 0.335704 0.376137
O O3 0.359891 0.509526 0.421904
O O4 0.490474 0.359886 0.421904
O O5 0.473854 0.138638 0.754740
O O6 0.610071 0.170725 0.838509
O O7 0.657916 0.213610 0.716285
O O8 0.467285 0.137458 0.924351
O O9 0.650533 0.234067 0.954412
O O10 0.664298 0.296495 0.376137
O O11 0.713611 0.157915 0.283715
O O12 0.652949 0.347052 0.500000
O O13 0.137458 0.532715 0.924350
O O14 0.170725 0.389929 0.838509
O O15 0.234067 0.349467 0.954412
O O16 0.526146 0.138638 0.245260
#
# Coordination Sequence:
#
# PCOD9547444 Si02
#       8
#     8   8   8   8   8   8   4   8
#     4   9  19  34  48  66  97 133 164 195 236 288
#     4   9  19  34  49  69  99 128 154 191 240 290
#     4   9  19  35  51  69  97 130 159 189 232 288
#     4  12  18  28  52  80  94 116 162 210 244 272
#     4   9  19  34  48  66  97 133 164 195 236 288
#     4   9  19  35  51  69  97 130 159 189 232 288
#     4  12  18  26  52  80  88 110 162 206 220 252
#     4   9  19  34  49  69  99 128 154 191 240 290
#
# _framework density 17.039670000000001
#
# number of rings (size 3 to 8) (size 9 to 14) (size 15 to 20)
#    0.000    2.400    0.000    6.000    0.000    1.067 
#    0.000    0.000    0.000    6.400    0.000   33.600 
#    0.000    0.000    0.000    0.000    0.000    0.000 
#
# Total GULP energy -334307.756767 kJ/mol
# GULP energy per Si atom -5571.795946 kJ/mol
# Density = 1.700089 g / cm^3
# Si number density = 17.039670 Si / 1000 Ang^3
#
#
#
# Elastic Constant Matrix: (Units=GPa)
#
#
# Indices 1 2 3 4 5 6 
#
# 1 29.3421 25.5612 29.4998 0.0000 0.0000 0.0000
# 2 25.5612 29.3421 29.4998 0.0000 0.0000 0.0000
# 3 29.4998 29.4998 87.7903 0.0000 0.0000 0.0000
# 4 0.0000 0.0000 0.0000 30.8210 0.0000 0.0000
# 5 0.0000 0.0000 0.0000 0.0000 30.8209 0.0000
# 6 0.0000 0.0000 0.0000 0.0000 0.0000 29.7168
#
#
#
# Elastic Compliance Matrix: (Units=1/GPa)
#
#
# Indices 1 2 3 4 5 6 
#
# 1 0.146497 -0.117989 -0.009579 0.000000 0.000000 0.000000
# 2 -0.117989 0.146496 -0.009579 0.000000 0.000000 0.000000
# 3 -0.009579 -0.009579 0.017829 0.000000 0.000000 0.000000
# 4 0.000000 0.000000 0.000000 0.032445 0.000000 0.000000
# 5 0.000000 0.000000 0.000000 0.000000 0.032446 0.000000
# 6 0.000000 0.000000 0.000000 0.000000 0.000000 0.033651
#
#
# Mechanical properties :
#
#
# Convention : Reuss Voigt Hill
#
# Bulk Modulus (GPa) = 27.37706 35.06622 31.22164
# Shear Modulus (GPa) = 7.18562 22.39931 14.79247
#
# Velocity S-wave (km/s) = 2.05576 3.62959 2.94958
# Velocity P-wave (km/s) = 4.66223 6.17973 5.47382
#
# Compressibility (1/GPa) = 0.03652693
#
# Stress axis : x y z
#
# Youngs Moduli (GPa) = 6.82610 6.82611 56.08964
#
# Poissons Ratio (x) = 0.80540 0.53731
# Poissons Ratio (y) = 0.80540 0.53730
# Poissons Ratio (z) = 0.06539 0.06539
#
# Static dielectric constant tensor:
#      x y z
#    x 1.560340 0.000000 0.000000 
#    y 0.000000 1.560340 0.000000 
#    z 0.000000 0.000000 1.598720 
# 
# From -- ./inp_files/2849.got.cif
#   From: 2010.05.17/outbox.cif.g08.bks.cpg/sg90_2_cif.got.tgz:2849.got - 2010.06.03 19:17:45.
