data_PCOD9547140
_publ_section_title
;
Structure prediction by ZEFSAII (Michael W. Deem and Ramdas Pophale) SiO2 
 PCOD9547140
Probable space group: P 4 21 2
;
_chemical_formula_sum "Si O2"
_cell_formula_units_Z 64
_cell_length_a 16.382732
_cell_length_b 16.382732
_cell_length_c 14.054429
_cell_angle_alpha 90.000000
_cell_angle_beta 90.000000
_cell_angle_gamma 90.000000
_cell_volume 3772.123121
_symmetry_space_group_name_H-M "P 4 21 2"
_symmetry_group_IT_number 90
_symmetry_cell_setting 'tetragonal'
loop_
_space_group_symop_operation_xyz
x,y,z
1/2-y,1/2+x,z
-x,-y,z
1/2+y,1/2-x,z
1/2+x,1/2-y,-z
1/2-x,1/2+y,-z
y,x,-z
-y,-x,-z
loop_
_atom_site_type_symbol
_atom_site_label
_atom_site_fract_x
_atom_site_fract_y
_atom_site_fract_z
Si Si1 0.666779 0.632381 0.107609
Si Si2 0.866169 0.469619 0.364291
Si Si3 0.372206 0.961794 0.975263
Si Si4 0.949113 0.628277 0.583838
Si Si5 0.435838 0.225730 0.152457
Si Si6 0.294137 0.114442 0.234647
Si Si7 0.190794 0.232005 0.107062
Si Si8 0.512748 0.232546 0.817348
O O1 0.600132 0.684533 0.166137
O O2 0.746628 0.691664 0.107653
O O3 0.693163 0.548136 0.157279
O O4 0.630933 0.630933 0.000000
O O5 0.906322 0.559213 0.349906
O O6 0.843795 0.451995 0.474040
O O7 0.792181 0.466704 0.290190
O O8 0.447333 0.903415 0.997693
O O9 0.344946 0.967381 0.866504
O O10 0.297293 0.935981 0.040682
O O11 0.898498 0.543766 0.599852
O O12 0.909025 0.693932 0.654639
O O13 0.376306 0.160892 0.202083
O O14 0.526918 0.214295 0.186140
O O15 0.223440 0.170831 0.189282
O O16 0.098377 0.255541 0.129263
O O17 0.196469 0.196469 0.000000
#
# Coordination Sequence:
#
# PCOD9547140 Si02
#       8
#     8   8   8   8   8   8   8   8
#     4  10  21  35  53  75 109 150 187 228 280 325
#     4   9  18  32  54  85 114 141 180 234 289 345
#     4  11  20  27  46  80 106 131 175 223 271 345
#     4   9  17  31  54  87 118 141 173 228 296 354
#     4  11  20  31  51  81 111 141 177 226 277 342
#     4  11  20  33  55  79 113 144 178 226 289 343
#     4  10  23  37  52  80 114 146 185 237 282 328
#     4  12  21  36  55  68 106 160 194 221 276 341
#
# _framework density 16.966571999999999
#
# number of rings (size 3 to 8) (size 9 to 14) (size 15 to 20)
#    0.000    1.625    3.750    3.750    1.750    1.250 
#    0.000    1.250    0.000    0.750    0.000    0.000 
#    0.000    2.000    0.000    0.000    0.000    0.000 
#
# Total GULP energy -356534.417292 kJ/mol
# GULP energy per Si atom -5570.850270 kJ/mol
# Density = 1.692796 g / cm^3
# Si number density = 16.966572 Si / 1000 Ang^3
#
#
#
# Elastic Constant Matrix: (Units=GPa)
#
#
# Indices 1 2 3 4 5 6 
#
# 1 54.7448 12.9702 28.0352 0.0000 0.0000 0.0000
# 2 12.9702 54.7448 28.0352 0.0000 0.0000 0.0000
# 3 28.0352 28.0352 120.5443 0.0000 0.0000 0.0000
# 4 0.0000 0.0000 0.0000 23.1864 0.0000 0.0000
# 5 0.0000 0.0000 0.0000 0.0000 23.1864 0.0000
# 6 0.0000 0.0000 0.0000 0.0000 0.0000 15.7801
#
#
#
# Elastic Compliance Matrix: (Units=1/GPa)
#
#
# Indices 1 2 3 4 5 6 
#
# 1 0.021114 -0.002824 -0.004254 0.000000 0.000000 0.000000
# 2 -0.002824 0.021114 -0.004254 0.000000 0.000000 0.000000
# 3 -0.004254 -0.004254 0.010274 0.000000 0.000000 0.000000
# 4 0.000000 0.000000 0.000000 0.043129 0.000000 0.000000
# 5 0.000000 0.000000 0.000000 0.000000 0.043129 0.000000
# 6 0.000000 0.000000 0.000000 0.000000 0.000000 0.063371
#
#
# Mechanical properties :
#
#
# Convention : Reuss Voigt Hill
#
# Bulk Modulus (GPa) = 33.51273 40.90166 37.20720
# Shear Modulus (GPa) = 21.30015 23.16347 22.23181
#
# Velocity S-wave (km/s) = 3.54703 3.69893 3.62378
# Velocity P-wave (km/s) = 6.04734 6.51170 6.28381
#
# Compressibility (1/GPa) = 0.02983940
#
# Stress axis : x y z
#
# Youngs Moduli (GPa) = 47.36193 47.36193 97.33015
#
# Poissons Ratio (x) = 0.13375 0.41402
# Poissons Ratio (y) = 0.13375 0.41402
# Poissons Ratio (z) = 0.20147 0.20147
#
# Static dielectric constant tensor:
#      x y z
#    x 1.578580 0.000000 0.000000 
#    y 0.000000 1.578580 0.000000 
#    z 0.000000 0.000000 1.608760 
# 
# From -- ./inp_files/2353.got.cif
#   From: 2010.05.17/outbox.cif.g08.bks.cpg/sg90_2_cif.got.tgz:2353.got - 2010.06.03 19:17:45.
