data_PCOD9547857
_publ_section_title
;
Structure prediction by ZEFSAII (Michael W. Deem and Ramdas Pophale) SiO2 
 PCOD9547857
Probable space group: P 41 2 2
;
_chemical_formula_sum "Si O2"
_cell_formula_units_Z 48
_cell_length_a 14.967872
_cell_length_b 14.967872
_cell_length_c 11.370321
_cell_angle_alpha 90.000000
_cell_angle_beta 90.000000
_cell_angle_gamma 90.000000
_cell_volume 2547.374791
_symmetry_space_group_name_H-M "P 41 2 2"
_symmetry_group_IT_number 91
_symmetry_cell_setting 'tetragonal'
loop_
_space_group_symop_operation_xyz
x,y,z
-y,x,1/4+z
-x,-y,1/2+z
y,-x,3/4+z
x,-y,1/2-z
-x,y,-z
y,x,3/4-z
-y,-x,1/4-z
loop_
_atom_site_type_symbol
_atom_site_label
_atom_site_fract_x
_atom_site_fract_y
_atom_site_fract_z
Si Si1 0.802076 0.065834 0.353060
Si Si2 0.186864 0.105008 0.257984
Si Si3 0.844543 0.468068 0.880802
Si Si4 0.030351 0.370701 0.814185
Si Si5 0.315399 0.799256 0.716084
Si Si6 0.381092 0.901691 0.304714
O O1 0.881910 0.100705 0.427715
O O2 0.763074 0.154069 0.289904
O O3 0.826424 0.000000 0.250000
O O4 0.726908 0.017915 0.434122
O O5 0.157782 0.157782 0.375000
O O6 0.283025 0.140644 0.213159
O O7 0.201323 0.000000 0.250000
O O8 0.817523 0.500000 0.750000
O O9 0.947382 0.430903 0.860096
O O10 0.780748 0.391430 0.936101
O O11 0.848987 0.546530 0.977492
O O12 0.115389 0.359190 0.898569
O O13 0.075063 0.397911 0.691230
O O14 0.273528 0.726473 0.625000
O O15 0.382451 0.000000 0.250000
#
# Coordination Sequence:
#
# PCOD9547857 Si02
#       6
#     8   8   8   8   8   8
#     4   9  19  38  57  74 107 155 209 250 295 341
#     4  11  24  36  51  76 110 155 207 258 308 345
#     4  11  22  34  57  83 113 153 202 251 314 386
#     4  10  20  35  57  83 110 150 203 250 309 364
#     4  10  21  35  55  82 111 152 201 249 305 368
#     4  11  20  34  52  78 110 143 193 260 307 365
#
# _framework density 18.842927
#
# number of rings (size 3 to 8) (size 9 to 14) (size 15 to 20)
#    0.000    1.667    1.667    5.500    2.333    2.000 
#    0.000    0.833    0.000    0.000    0.000    0.000 
#    0.000    0.000    0.000   48.000    6.000    0.667 
#
# Total GULP energy -267212.934187 kJ/mol
# GULP energy per Si atom -5566.936129 kJ/mol
# Density = 1.880004 g / cm^3
# Si number density = 18.842927 Si / 1000 Ang^3
#
#
#
# Elastic Constant Matrix: (Units=GPa)
#
#
# Indices 1 2 3 4 5 6 
#
# 1 47.5057 33.8569 30.6658 0.0000 0.0000 0.0000
# 2 33.8569 47.5059 30.6657 0.0000 0.0000 0.0000
# 3 30.6658 30.6657 99.0328 0.0000 0.0000 0.0000
# 4 0.0000 0.0000 0.0000 2.5280 0.0000 0.0000
# 5 0.0000 0.0000 0.0000 0.0000 2.5278 0.0000
# 6 0.0000 0.0000 0.0000 0.0000 0.0000 16.0641
#
#
#
# Elastic Compliance Matrix: (Units=1/GPa)
#
#
# Indices 1 2 3 4 5 6 
#
# 1 0.044650 -0.028617 -0.004965 0.000000 0.000000 0.000000
# 2 -0.028617 0.044649 -0.004965 0.000000 0.000000 0.000000
# 3 -0.004965 -0.004965 0.013172 0.000000 0.000000 0.000000
# 4 0.000000 0.000000 0.000000 0.395566 0.000000 0.000000
# 5 0.000000 0.000000 0.000000 0.000000 0.395594 0.000000
# 6 0.000000 0.000000 0.000000 0.000000 0.000000 0.062251
#
#
# Mechanical properties :
#
#
# Convention : Reuss Voigt Hill
#
# Bulk Modulus (GPa) = 39.40160 42.71349 41.05754
# Shear Modulus (GPa) = 4.80107 10.81439 7.80773
#
# Velocity S-wave (km/s) = 1.59796 2.39827 2.03779
# Velocity P-wave (km/s) = 4.93564 5.51238 5.23196
#
# Compressibility (1/GPa) = 0.02537968
#
# Stress axis : x y z
#
# Youngs Moduli (GPa) = 22.39656 22.39674 75.91684
#
# Poissons Ratio (x) = 0.64092 0.37691
# Poissons Ratio (y) = 0.64091 0.37689
# Poissons Ratio (z) = 0.11119 0.11119
#
# Static dielectric constant tensor:
#      x y z
#    x 1.704440 0.000000 0.000000 
#    y 0.000000 1.704440 0.000000 
#    z 0.000000 0.000000 2.280510 
# 
# From -- ./inp_files/10745.got.cif
#   From: 2010.05.17/outbox.cif.g08.bks.cpg/sg91_6_cif.got.tgz:10745.got - 2010.06.03 19:20:03.
