data_PCOD9547904
_publ_section_title
;
Structure prediction by ZEFSAII (Michael W. Deem and Ramdas Pophale) SiO2 
 PCOD9547904
Probable space group: P 41 2 2
;
_chemical_formula_sum "Si O2"
_cell_formula_units_Z 56
_cell_length_a 14.573106
_cell_length_b 14.573106
_cell_length_c 11.817709
_cell_angle_alpha 90.000000
_cell_angle_beta 90.000000
_cell_angle_gamma 90.000000
_cell_volume 2509.790894
_symmetry_space_group_name_H-M "P 41 2 2"
_symmetry_group_IT_number 91
_symmetry_cell_setting 'tetragonal'
loop_
_space_group_symop_operation_xyz
x,y,z
-y,x,1/4+z
-x,-y,1/2+z
y,-x,3/4+z
x,-y,1/2-z
-x,y,-z
y,x,3/4-z
-y,-x,1/4-z
loop_
_atom_site_type_symbol
_atom_site_label
_atom_site_fract_x
_atom_site_fract_y
_atom_site_fract_z
Si Si1 0.546144 0.300196 0.623095
Si Si2 0.058075 0.143694 0.101205
Si Si3 0.316372 0.831874 0.834831
Si Si4 0.647770 0.210314 0.955967
Si Si5 0.307283 0.845787 0.099824
Si Si6 0.539824 0.226649 0.180673
Si Si7 0.966772 0.227837 0.325553
O O1 0.500000 0.295686 0.500000
O O2 0.618306 0.381695 0.625000
O O3 0.603422 0.206306 0.645107
O O4 0.479106 0.308379 0.730104
O O5 0.106693 0.232062 0.042490
O O6 0.142238 0.079800 0.139631
O O7 0.002798 0.181863 0.208154
O O8 0.000000 0.098902 0.000000
O O9 0.281687 0.726280 0.831331
O O10 0.407797 0.845161 0.762654
O O11 0.327106 0.853347 0.966230
O O12 0.556894 0.206504 0.879145
O O13 0.698281 0.112030 0.951871
O O14 0.611758 0.238381 0.079439
O O15 0.222683 0.777318 0.125000
O O16 0.276599 0.946913 0.134779
#
# Coordination Sequence:
#
# PCOD9547904 Si02
#       7
#     8   8   8   8   8   8   8
#     4  11  23  44  69  94 132 174 224 277 344 417
#     4  10  20  36  62  90 127 171 217 271 335 398
#     4  10  20  40  63  86 123 174 213 263 340 406
#     4  10  22  41  61  93 134 165 221 279 335 403
#     4  10  21  40  64  90 128 174 223 259 329 406
#     4  11  22  38  65  92 120 174 214 274 338 402
#     4  10  22  40  61  92 133 175 223 278 331 398
#
# _framework density 22.312615999999998
#
# number of rings (size 3 to 8) (size 9 to 14) (size 15 to 20)
#    0.000    1.714    1.429    3.429    0.000    3.429 
#    2.571   16.429    0.000    0.000    0.000    0.000 
#    0.000    0.000    0.000    0.000    0.000    0.000 
#
# Total GULP energy -312668.820771 kJ/mol
# GULP energy per Si atom -5583.371799 kJ/mol
# Density = 2.226183 g / cm^3
# Si number density = 22.312616 Si / 1000 Ang^3
#
#
#
# Elastic Constant Matrix: (Units=GPa)
#
#
# Indices 1 2 3 4 5 6 
#
# 1 110.1077 33.1582 17.4142 0.0000 0.0000 0.0000
# 2 33.1582 110.1067 17.4127 0.0000 0.0000 0.0000
# 3 17.4142 17.4127 94.9858 0.0000 0.0000 0.0000
# 4 0.0000 0.0000 0.0000 22.9753 0.0000 0.0000
# 5 0.0000 0.0000 0.0000 0.0000 22.9748 0.0000
# 6 0.0000 0.0000 0.0000 0.0000 0.0000 16.5415
#
#
#
# Elastic Compliance Matrix: (Units=1/GPa)
#
#
# Indices 1 2 3 4 5 6 
#
# 1 0.010151 -0.002845 -0.001339 0.000000 0.000000 0.000000
# 2 -0.002845 0.010151 -0.001339 0.000000 0.000000 0.000000
# 3 -0.001339 -0.001339 0.011019 0.000000 0.000000 0.000000
# 4 0.000000 0.000000 0.000000 0.043525 0.000000 0.000000
# 5 0.000000 0.000000 0.000000 0.000000 0.043526 0.000000
# 6 0.000000 0.000000 0.000000 0.000000 0.000000 0.060454
#
#
# Mechanical properties :
#
#
# Convention : Reuss Voigt Hill
#
# Bulk Modulus (GPa) = 49.32683 50.13005 49.72844
# Shear Modulus (GPa) = 25.42848 28.97934 27.20391
#
# Velocity S-wave (km/s) = 3.37953 3.60778 3.49552
# Velocity P-wave (km/s) = 6.11420 6.31432 6.21506
#
# Compressibility (1/GPa) = 0.02027294
#
# Stress axis : x y z
#
# Youngs Moduli (GPa) = 98.51633 98.51584 90.75272
#
# Poissons Ratio (x) = 0.28028 0.12156
# Poissons Ratio (y) = 0.28028 0.12154
# Poissons Ratio (z) = 0.13195 0.13193
#
# Static dielectric constant tensor:
#      x y z
#    x 1.850400 0.000000 0.000000 
#    y 0.000000 1.850400 0.000000 
#    z 0.000000 0.000000 1.850590 
# 
# From -- ./inp_files/20324.got.cif
#   From: 2010.05.17/outbox.cif.g08.bks.cpg/sg91_11_cif.got.tgz:20324.got - 2010.06.03 19:20:03.
