data_PCOD9547187
_publ_section_title
;
Structure prediction by ZEFSAII (Michael W. Deem and Ramdas Pophale) SiO2 
 PCOD9547187
Probable space group: P 4 21 2
;
_chemical_formula_sum "Si O2"
_cell_formula_units_Z 52
_cell_length_a 19.361765
_cell_length_b 19.361765
_cell_length_c 6.419209
_cell_angle_alpha 90.000000
_cell_angle_beta 90.000000
_cell_angle_gamma 90.000000
_cell_volume 2406.419871
_symmetry_space_group_name_H-M "P 4 21 2"
_symmetry_group_IT_number 90
_symmetry_cell_setting 'tetragonal'
loop_
_space_group_symop_operation_xyz
x,y,z
1/2-y,1/2+x,z
-x,-y,z
1/2+y,1/2-x,z
1/2+x,1/2-y,-z
1/2-x,1/2+y,-z
y,x,-z
-y,-x,-z
loop_
_atom_site_type_symbol
_atom_site_label
_atom_site_fract_x
_atom_site_fract_y
_atom_site_fract_z
Si Si1 0.345890 0.101982 0.866728
Si Si2 0.702837 0.398012 0.878105
Si Si3 0.913009 0.254219 0.216139
Si Si4 0.888500 0.491035 0.797429
Si Si5 0.851536 0.148465 0.500000
Si Si6 0.356921 0.450351 0.887374
Si Si7 0.770288 0.454159 0.503150
O O1 0.392403 0.170156 0.862176
O O2 0.321348 0.091474 0.633040
O O3 0.277862 0.108747 0.011493
O O4 0.379829 0.032217 0.961002
O O5 0.661444 0.469794 0.905859
O O6 0.717878 0.404735 0.628853
O O7 0.658825 0.341176 0.000000
O O8 0.858312 0.219208 0.372495
O O9 0.986191 0.247732 0.340370
O O10 0.915123 0.204544 0.017866
O O11 0.928230 0.560292 0.736878
O O12 0.815727 0.491006 0.681708
O O13 0.916158 0.143477 0.659560
O O14 0.427274 0.427274 0.000000
#
# Coordination Sequence:
#
# PCOD9547187 Si02
#       7
#     8   8   8   8   4   8   8
#     4  11  24  39  62  94 133 179 218 277 345 406
#     4  11  25  43  65  95 137 174 219 289 350 407
#     4  11  22  39  68  95 131 175 226 278 341 413
#     4  10  22  38  59  90 129 175 231 279 325 398
#     4  10  22  40  70  97 126 172 222 285 326 430
#     4  10  22  43  69  96 130 171 226 274 345 410
#     4  11  22  40  63  93 131 180 222 273 343 406
#
# _framework density 21.608864000000001
#
# number of rings (size 3 to 8) (size 9 to 14) (size 15 to 20)
#    0.000    1.385    3.077    1.846    2.154    6.462 
#    0.000    1.538    0.000    0.923    0.000    0.000 
#    0.000    0.000    0.000    0.000    0.000    0.000 
#
# Total GULP energy -289780.142757 kJ/mol
# GULP energy per Si atom -5572.695053 kJ/mol
# Density = 2.155968 g / cm^3
# Si number density = 21.608864 Si / 1000 Ang^3
#
#
#
# Elastic Constant Matrix: (Units=GPa)
#
#
# Indices 1 2 3 4 5 6 
#
# 1 60.8284 20.2928 24.5611 0.0000 0.0000 0.0000
# 2 20.2928 60.8311 24.5640 0.0000 0.0000 0.0000
# 3 24.5611 24.5640 100.4469 0.0000 0.0000 0.0000
# 4 0.0000 0.0000 0.0000 33.3083 0.0000 0.0000
# 5 0.0000 0.0000 0.0000 0.0000 33.3087 0.0000
# 6 0.0000 0.0000 0.0000 0.0000 0.0000 21.8991
#
#
#
# Elastic Compliance Matrix: (Units=1/GPa)
#
#
# Indices 1 2 3 4 5 6 
#
# 1 0.019569 -0.005100 -0.003538 0.000000 0.000000 0.000000
# 2 -0.005100 0.019569 -0.003539 0.000000 0.000000 0.000000
# 3 -0.003538 -0.003539 0.011686 0.000000 0.000000 0.000000
# 4 0.000000 0.000000 0.000000 0.030023 0.000000 0.000000
# 5 0.000000 0.000000 0.000000 0.000000 0.030022 0.000000
# 6 0.000000 0.000000 0.000000 0.000000 0.000000 0.045664
#
#
# Mechanical properties :
#
#
# Convention : Reuss Voigt Hill
#
# Bulk Modulus (GPa) = 37.77557 40.10469 38.94013
# Shear Modulus (GPa) = 26.35605 27.88245 27.11925
#
# Velocity S-wave (km/s) = 3.49619 3.59601 3.54645
# Velocity P-wave (km/s) = 5.81526 5.98676 5.90164
#
# Compressibility (1/GPa) = 0.02647214
#
# Stress axis : x y z
#
# Youngs Moduli (GPa) = 51.09993 51.10107 85.57267
#
# Poissons Ratio (x) = 0.26059 0.30276
# Poissons Ratio (y) = 0.26059 0.30281
# Poissons Ratio (z) = 0.18079 0.18083
#
# Static dielectric constant tensor:
#      x y z
#    x 1.827290 0.000000 0.000000 
#    y 0.000000 1.827280 0.000000 
#    z 0.000000 0.000000 1.832720 
# 
# From -- ./inp_files/671.got.cif
#   From: 2010.05.17/outbox.cif.g08.bks.cpg/sg90_1_cif.got.tgz:671.got - 2010.06.03 19:17:45.
