data_PCOD9547607
_publ_section_title
;
Structure prediction by ZEFSAII (Michael W. Deem and Ramdas Pophale) SiO2 
 PCOD9547607
Probable space group: P 41 2 2
;
_chemical_formula_sum "Si O2"
_cell_formula_units_Z 48
_cell_length_a 9.183371
_cell_length_b 9.183371
_cell_length_c 27.232887
_cell_angle_alpha 90.000000
_cell_angle_beta 90.000000
_cell_angle_gamma 90.000000
_cell_volume 2296.666542
_symmetry_space_group_name_H-M "P 41 2 2"
_symmetry_group_IT_number 91
_symmetry_cell_setting 'tetragonal'
loop_
_space_group_symop_operation_xyz
x,y,z
-y,x,1/4+z
-x,-y,1/2+z
y,-x,3/4+z
x,-y,1/2-z
-x,y,-z
y,x,3/4-z
-y,-x,1/4-z
loop_
_atom_site_type_symbol
_atom_site_label
_atom_site_fract_x
_atom_site_fract_y
_atom_site_fract_z
Si Si1 0.773764 0.043558 0.036746
Si Si2 0.518038 0.270503 0.601769
Si Si3 0.789333 0.152776 0.370694
Si Si4 0.877065 0.500000 0.750000
Si Si5 0.834636 0.000000 0.750000
Si Si6 0.987506 0.628330 0.095033
Si Si7 0.338919 0.070064 0.799192
O O1 0.809212 0.215236 0.038767
O O2 0.818399 0.972935 0.089111
O O3 0.612857 0.987573 0.025669
O O4 0.867116 0.948006 0.998476
O O5 0.581736 0.418265 0.625000
O O6 0.345295 0.248247 0.608454
O O7 0.552749 0.228018 0.544980
O O8 0.585387 0.145708 0.636593
O O9 0.916436 0.267864 0.364428
O O10 0.746928 0.064980 0.323003
O O11 0.729638 0.009878 0.796890
O O12 0.900637 0.478050 0.083808
O O13 0.403170 0.000000 0.750000
#
# Coordination Sequence:
#
# PCOD9547607 Si02
#       7
#     8   8   8   4   4   8   8
#     4  10  20  36  60  86 126 153 205 248 313 359
#     4  10  21  39  62  88 120 160 205 253 307 371
#     4   9  22  39  57  86 120 156 197 249 304 362
#     4  10  22  38  58  94 126 162 204 266 316 374
#     4  10  18  34  58  92 112 162 200 260 296 360
#     4  10  21  37  61  87 124 156 204 249 306 363
#     4  11  21  36  61  91 119 158 202 254 298 368
#
# _framework density 20.899854000000001
#
# number of rings (size 3 to 8) (size 9 to 14) (size 15 to 20)
#    0.000    2.000    1.667    1.500    2.333    2.667 
#    0.000    5.000    0.000    2.000    0.000    0.000 
#    0.000    0.000    0.000    0.000    0.000    0.000 
#
# Total GULP energy -267532.786587 kJ/mol
# GULP energy per Si atom -5573.599721 kJ/mol
# Density = 2.085229 g / cm^3
# Si number density = 20.899854 Si / 1000 Ang^3
#
#
#
# Elastic Constant Matrix: (Units=GPa)
#
#
# Indices 1 2 3 4 5 6 
#
# 1 37.7126 6.3647 7.2164 0.0000 0.0000 0.0000
# 2 6.3647 37.7105 7.2162 0.0000 0.0000 0.0000
# 3 7.2164 7.2162 51.5787 0.0000 0.0000 0.0000
# 4 0.0000 0.0000 0.0000 22.3411 0.0000 0.0000
# 5 0.0000 0.0000 0.0000 0.0000 22.3412 0.0000
# 6 0.0000 0.0000 0.0000 0.0000 0.0000 13.1602
#
#
#
# Elastic Compliance Matrix: (Units=1/GPa)
#
#
# Indices 1 2 3 4 5 6 
#
# 1 0.027838 -0.004062 -0.003327 0.000000 0.000000 0.000000
# 2 -0.004062 0.027840 -0.003327 0.000000 0.000000 0.000000
# 3 -0.003327 -0.003327 0.020319 0.000000 0.000000 0.000000
# 4 0.000000 0.000000 0.000000 0.044761 0.000000 0.000000
# 5 0.000000 0.000000 0.000000 0.000000 0.044760 0.000000
# 6 0.000000 0.000000 0.000000 0.000000 0.000000 0.075987
#
#
# Mechanical properties :
#
#
# Convention : Reuss Voigt Hill
#
# Bulk Modulus (GPa) = 18.32620 18.73293 18.52956
# Shear Modulus (GPa) = 17.78574 18.64879 18.21727
#
# Velocity S-wave (km/s) = 2.92035 2.99037 2.95557
# Velocity P-wave (km/s) = 4.48987 4.57228 4.53126
#
# Compressibility (1/GPa) = 0.05456668
#
# Stress axis : x y z
#
# Youngs Moduli (GPa) = 35.92155 35.91954 49.21571
#
# Poissons Ratio (x) = 0.14590 0.16372
# Poissons Ratio (y) = 0.14591 0.16373
# Poissons Ratio (z) = 0.11950 0.11949
#
# Static dielectric constant tensor:
#      x y z
#    x 1.779290 0.000000 0.000000 
#    y 0.000000 1.779290 0.000000 
#    z 0.000000 0.000000 1.821210 
# 
# From -- ./inp_files/8024.got.cif
#   From: 2010.05.17/outbox.cif.g08.bks.cpg/sg91_5_cif.got.tgz:8024.got - 2010.06.03 19:20:03.
