data_PCOD9547982
_publ_section_title
;
Structure prediction by ZEFSAII (Michael W. Deem and Ramdas Pophale) SiO2 
 PCOD9547982
Probable space group: P 41 2 2
;
_chemical_formula_sum "Si O2"
_cell_formula_units_Z 52
_cell_length_a 22.126978
_cell_length_b 22.126978
_cell_length_c 6.044965
_cell_angle_alpha 90.000000
_cell_angle_beta 90.000000
_cell_angle_gamma 90.000000
_cell_volume 2959.633938
_symmetry_space_group_name_H-M "P 41 2 2"
_symmetry_group_IT_number 91
_symmetry_cell_setting 'tetragonal'
loop_
_space_group_symop_operation_xyz
x,y,z
-y,x,1/4+z
-x,-y,1/2+z
y,-x,3/4+z
x,-y,1/2-z
-x,y,-z
y,x,3/4-z
-y,-x,1/4-z
loop_
_atom_site_type_symbol
_atom_site_label
_atom_site_fract_x
_atom_site_fract_y
_atom_site_fract_z
Si Si1 0.215150 0.689734 0.544881
Si Si2 0.264690 0.103336 0.055087
Si Si3 0.069748 0.445360 0.071143
Si Si4 0.435536 0.819399 0.484356
Si Si5 0.144404 0.640615 0.154620
Si Si6 0.769684 0.000000 0.250000
Si Si7 0.063559 0.161030 0.381451
O O1 0.275044 0.724957 0.625000
O O2 0.159990 0.729739 0.642404
O O3 0.211480 0.622539 0.651174
O O4 0.195776 0.677159 0.289938
O O5 0.319534 0.112349 0.220930
O O6 0.206261 0.101140 0.211399
O O7 0.267050 0.041052 0.920453
O O8 0.076678 0.500000 0.250000
O O9 0.092320 0.384096 0.187086
O O10 0.117183 0.446672 0.866702
O O11 0.000000 0.444484 0.000000
O O12 0.500000 0.786763 0.500000
O O13 0.415730 0.828493 0.231011
O O14 0.809678 0.046763 0.394997
O O15 0.099689 0.099689 0.375000
O O16 0.000000 0.152317 0.500000
#
# Coordination Sequence:
#
# PCOD9547982 Si02
#       7
#     8   8   8   8   8   4   8
#     4  10  23  38  59  88 113 149 192 243 289 347
#     4  10  22  38  58  80 108 147 180 234 294 348
#     4  11  22  36  53  77 111 154 203 245 282 337
#     4  10  20  39  58  78 113 156 191 237 295 344
#     4  10  22  40  54  81 111 151 195 239 291 344
#     4  10  22  42  56  80 108 134 180 224 294 360
#     4  10  23  41  61  81 103 133 171 229 293 367
#
# _framework density 17.569738999999998
#
# number of rings (size 3 to 8) (size 9 to 14) (size 15 to 20)
#    0.000    1.846    1.538    1.385    4.308    3.692 
#   42.923    0.000    0.000    0.000    0.000    0.000 
#    0.000    0.000    5.231    0.000    0.000    0.000 
#
# Total GULP energy -289943.840331 kJ/mol
# GULP energy per Si atom -5575.843083 kJ/mol
# Density = 1.752975 g / cm^3
# Si number density = 17.569739 Si / 1000 Ang^3
#
#
#
# Elastic Constant Matrix: (Units=GPa)
#
#
# Indices 1 2 3 4 5 6 
#
# 1 63.4128 57.6259 30.2245 0.0000 0.0000 0.0000
# 2 57.6259 63.4142 30.2249 0.0000 0.0000 0.0000
# 3 30.2245 30.2249 95.2029 0.0000 0.0000 0.0000
# 4 0.0000 0.0000 0.0000 0.6591 0.0000 0.0000
# 5 0.0000 0.0000 0.0000 0.0000 0.6617 0.0000
# 6 0.0000 0.0000 0.0000 0.0000 0.0000 5.9838
#
#
#
# Elastic Compliance Matrix: (Units=1/GPa)
#
#
# Indices 1 2 3 4 5 6 
#
# 1 0.091301 -0.081482 -0.003117 0.000000 0.000000 0.000000
# 2 -0.081482 0.091299 -0.003117 0.000000 0.000000 0.000000
# 3 -0.003117 -0.003117 0.012483 0.000000 0.000000 0.000000
# 4 0.000000 0.000000 0.000000 1.517288 0.000000 0.000000
# 5 0.000000 0.000000 0.000000 0.000000 1.511237 0.000000
# 6 0.000000 0.000000 0.000000 0.000000 0.000000 0.167119
#
#
# Mechanical properties :
#
#
# Convention : Reuss Voigt Hill
#
# Bulk Modulus (GPa) = 50.88648 50.90893 50.89771
# Shear Modulus (GPa) = 1.39950 8.39122 4.89536
#
# Velocity S-wave (km/s) = 0.89346 2.18777 1.67102
# Velocity P-wave (km/s) = 5.48542 5.95147 5.72319
#
# Compressibility (1/GPa) = 0.01965159
#
# Stress axis : x y z
#
# Youngs Moduli (GPa) = 10.95274 10.95298 80.10814
#
# Poissons Ratio (x) = 0.89247 0.24971
# Poissons Ratio (y) = 0.89245 0.24971
# Poissons Ratio (z) = 0.03414 0.03414
#
# Static dielectric constant tensor:
#      x y z
#    x 1.612440 0.000000 0.000000 
#    y 0.000000 1.612440 0.000000 
#    z 0.000000 0.000000 1.693340 
# 
# From -- ./inp_files/1348.got.cif
#   From: 2010.05.17/outbox.cif.g08.bks.cpg/sg91_1_cif.got.tgz:1348.got - 2010.06.03 19:20:03.
