data_PCOD9547357
_publ_section_title
;
Structure prediction by ZEFSAII (Michael W. Deem and Ramdas Pophale) SiO2 
 PCOD9547357
Probable space group: P 4 21 2
;
_chemical_formula_sum "Si O2"
_cell_formula_units_Z 48
_cell_length_a 8.409219
_cell_length_b 8.409219
_cell_length_c 34.232541
_cell_angle_alpha 90.000000
_cell_angle_beta 90.000000
_cell_angle_gamma 90.000000
_cell_volume 2420.752911
_symmetry_space_group_name_H-M "P 4 21 2"
_symmetry_group_IT_number 90
_symmetry_cell_setting 'tetragonal'
loop_
_space_group_symop_operation_xyz
x,y,z
1/2-y,1/2+x,z
-x,-y,z
1/2+y,1/2-x,z
1/2+x,1/2-y,-z
1/2-x,1/2+y,-z
y,x,-z
-y,-x,-z
loop_
_atom_site_type_symbol
_atom_site_label
_atom_site_fract_x
_atom_site_fract_y
_atom_site_fract_z
Si Si1 0.454190 0.263246 0.968329
Si Si2 0.414703 0.744100 0.613527
Si Si3 0.751317 0.899693 0.461631
Si Si4 0.737834 0.541500 0.827097
Si Si5 0.239674 0.934270 0.258669
Si Si6 0.000000 0.000000 0.322794
Si Si7 0.500000 0.500000 0.102552
O O1 0.622373 0.174759 0.972486
O O2 0.478027 0.352948 0.927196
O O3 0.389250 0.389250 0.000000
O O4 0.597100 0.806325 0.613855
O O5 0.358430 0.648178 0.575374
O O6 0.405290 0.623497 0.649869
O O7 0.584756 0.800331 0.461163
O O8 0.848146 0.848146 0.500000
O O9 0.873266 0.673965 0.827434
O O10 0.661861 0.572755 0.784513
O O11 0.638766 0.534367 0.866338
O O12 0.388664 0.815011 0.261389
O O13 0.119032 0.909068 0.293773
#
# Coordination Sequence:
#
# PCOD9547357 Si02
#       7
#     8   8   8   8   8   4   4
#     4  11  24  41  60  84 117 158 205 256 311 371
#     4  11  24  40  58  85 120 156 196 243 298 359
#     4  11  24  42  65  92 121 156 199 247 300 359
#     4   9  19  35  55  82 115 150 189 235 291 357
#     4   9  19  36  57  82 113 150 193 238 288 350
#     4  12  21  36  59  85 112 151 195 244 295 342
#     4  12  20  34  58  87 116 149 192 246 304 362
#
# _framework density 19.82854
#
# number of rings (size 3 to 8) (size 9 to 14) (size 15 to 20)
#    0.000    1.500    0.000    6.750    0.000    3.000 
#    0.000    3.333    0.000    0.000    0.000   14.000 
#    0.000    0.000    0.000    0.000    0.000    0.000 
#
# Total GULP energy -267578.710336 kJ/mol
# GULP energy per Si atom -5574.556465 kJ/mol
# Density = 1.978341 g / cm^3
# Si number density = 19.828540 Si / 1000 Ang^3
#
#
#
# Elastic Constant Matrix: (Units=GPa)
#
#
# Indices 1 2 3 4 5 6 
#
# 1 49.5662 33.2379 54.0574 0.0000 0.0000 0.0000
# 2 33.2379 49.5662 54.0574 0.0000 0.0000 0.0000
# 3 54.0574 54.0574 180.3694 0.0000 0.0000 0.0000
# 4 0.0000 0.0000 0.0000 35.9126 0.0000 0.0000
# 5 0.0000 0.0000 0.0000 0.0000 35.9126 0.0000
# 6 0.0000 0.0000 0.0000 0.0000 0.0000 25.2763
#
#
#
# Elastic Compliance Matrix: (Units=1/GPa)
#
#
# Indices 1 2 3 4 5 6 
#
# 1 0.040542 -0.020701 -0.005946 0.000000 0.000000 0.000000
# 2 -0.020701 0.040542 -0.005946 0.000000 0.000000 0.000000
# 3 -0.005946 -0.005946 0.009108 0.000000 0.000000 0.000000
# 4 0.000000 0.000000 0.000000 0.027845 0.000000 0.000000
# 5 0.000000 0.000000 0.000000 0.000000 0.027845 0.000000
# 6 0.000000 0.000000 0.000000 0.000000 0.000000 0.039563
#
#
# Mechanical properties :
#
#
# Convention : Reuss Voigt Hill
#
# Bulk Modulus (GPa) = 39.99290 62.46747 51.23018
# Shear Modulus (GPa) = 19.30735 28.63025 23.96880
#
# Velocity S-wave (km/s) = 3.12383 3.80398 3.48056
# Velocity P-wave (km/s) = 5.76404 7.13203 6.48421
#
# Compressibility (1/GPa) = 0.02500444
#
# Stress axis : x y z
#
# Youngs Moduli (GPa) = 24.66578 24.66578 109.78821
#
# Poissons Ratio (x) = 0.51062 0.65284
# Poissons Ratio (y) = 0.51062 0.65284
# Poissons Ratio (z) = 0.14667 0.14667
#
# Static dielectric constant tensor:
#      x y z
#    x 1.710610 0.000000 0.000000 
#    y 0.000000 1.710610 0.000000 
#    z 0.000000 0.000000 1.692480 
# 
# From -- ./inp_files/3123.got.cif
#   From: 2010.05.17/outbox.cif.g08.bks.cpg/sg90_2_cif.got.tgz:3123.got - 2010.06.03 19:17:45.
