data_PCOD9547604
_publ_section_title
;
Structure prediction by ZEFSAII (Michael W. Deem and Ramdas Pophale) SiO2 
 PCOD9547604
Probable space group: P 41 2 2
;
_chemical_formula_sum "Si O2"
_cell_formula_units_Z 44
_cell_length_a 15.529095
_cell_length_b 15.529095
_cell_length_c 10.597127
_cell_angle_alpha 90.000000
_cell_angle_beta 90.000000
_cell_angle_gamma 90.000000
_cell_volume 2555.526758
_symmetry_space_group_name_H-M "P 41 2 2"
_symmetry_group_IT_number 91
_symmetry_cell_setting 'tetragonal'
loop_
_space_group_symop_operation_xyz
x,y,z
-y,x,1/4+z
-x,-y,1/2+z
y,-x,3/4+z
x,-y,1/2-z
-x,y,-z
y,x,3/4-z
-y,-x,1/4-z
loop_
_atom_site_type_symbol
_atom_site_label
_atom_site_fract_x
_atom_site_fract_y
_atom_site_fract_z
Si Si1 0.235682 0.030347 0.528738
Si Si2 0.301831 0.172764 0.344142
Si Si3 0.373002 0.892734 0.596342
Si Si4 0.233595 0.233595 0.875000
Si Si5 0.827895 0.126453 0.882547
Si Si6 0.561183 0.907935 0.691716
O O1 0.289182 0.106978 0.460852
O O2 0.159220 0.076820 0.603236
O O3 0.300599 0.967857 0.605126
O O4 0.189426 0.970190 0.425829
O O5 0.268378 0.268378 0.375000
O O6 0.233380 0.142689 0.237279
O O7 0.395261 0.161722 0.283256
O O8 0.330728 0.800939 0.630969
O O9 0.458573 0.906306 0.677239
O O10 0.400383 0.896226 0.448683
O O11 0.185779 0.200884 0.749612
O O12 0.587527 0.000000 0.750000
#
# Coordination Sequence:
#
# PCOD9547604 Si02
#       6
#     8   8   8   4   8   8
#     4  10  19  35  53  72  98 152 189 231 275 315
#     4  10  18  34  58  74 104 145 183 226 269 329
#     4  10  22  32  55  78 112 141 171 233 277 331
#     4  10  20  36  50  76 108 144 178 210 280 340
#     4  10  20  31  54  67 101 142 188 228 266 312
#     4  11  19  35  54  83 109 137 184 228 281 330
#
# _framework density 17.217585
#
# number of rings (size 3 to 8) (size 9 to 14) (size 15 to 20)
#    0.000    1.818    5.455    0.545    2.545    2.182 
#    0.000    0.000   80.000    0.000    0.000    0.000 
#   10.909    0.000    0.000    0.000    0.000    0.000 
#
# Total GULP energy -245218.171103 kJ/mol
# GULP energy per Si atom -5573.140252 kJ/mol
# Density = 1.717840 g / cm^3
# Si number density = 17.217585 Si / 1000 Ang^3
#
#
#
# Elastic Constant Matrix: (Units=GPa)
#
#
# Indices 1 2 3 4 5 6 
#
# 1 59.9843 33.9299 17.1734 0.0000 0.0000 0.0000
# 2 33.9299 59.9843 17.1734 0.0000 0.0000 0.0000
# 3 17.1734 17.1734 26.4819 0.0000 0.0000 0.0000
# 4 0.0000 0.0000 0.0000 30.8631 0.0000 0.0000
# 5 0.0000 0.0000 0.0000 0.0000 30.8631 0.0000
# 6 0.0000 0.0000 0.0000 0.0000 0.0000 21.1645
#
#
#
# Elastic Compliance Matrix: (Units=1/GPa)
#
#
# Indices 1 2 3 4 5 6 
#
# 1 0.026170 -0.012211 -0.009052 0.000000 0.000000 0.000000
# 2 -0.012211 0.026170 -0.009052 0.000000 0.000000 0.000000
# 3 -0.009052 -0.009052 0.049502 0.000000 0.000000 0.000000
# 4 0.000000 0.000000 0.000000 0.032401 0.000000 0.000000
# 5 0.000000 0.000000 0.000000 0.000000 0.032401 0.000000
# 6 0.000000 0.000000 0.000000 0.000000 0.000000 0.047249
#
#
# Mechanical properties :
#
#
# Convention : Reuss Voigt Hill
#
# Bulk Modulus (GPa) = 24.26539 31.44489 27.85514
# Shear Modulus (GPa) = 17.34537 21.78974 19.56756
#
# Velocity S-wave (km/s) = 3.17743 3.56132 3.37484
# Velocity P-wave (km/s) = 5.25218 5.93410 5.60352
#
# Compressibility (1/GPa) = 0.04121097
#
# Stress axis : x y z
#
# Youngs Moduli (GPa) = 38.21185 38.21185 20.20108
#
# Poissons Ratio (x) = 0.46661 0.18286
# Poissons Ratio (y) = 0.46661 0.18286
# Poissons Ratio (z) = 0.34590 0.34590
#
# Static dielectric constant tensor:
#      x y z
#    x 1.604570 0.000000 0.000000 
#    y 0.000000 1.604570 0.000000 
#    z 0.000000 0.000000 1.630420 
# 
# From -- ./inp_files/20168.got.cif
#   From: 2010.05.17/outbox.cif.g08.bks.cpg/sg91_11_cif.got.tgz:20168.got - 2010.06.03 19:20:03.
