data_PCOD9547724
_publ_section_title
;
Structure prediction by ZEFSAII (Michael W. Deem and Ramdas Pophale) SiO2 
 PCOD9547724
Probable space group: P 41 2 2
;
_chemical_formula_sum "Si O2"
_cell_formula_units_Z 24
_cell_length_a 14.252581
_cell_length_b 14.252581
_cell_length_c 5.014262
_cell_angle_alpha 90.000000
_cell_angle_beta 90.000000
_cell_angle_gamma 90.000000
_cell_volume 1018.577452
_symmetry_space_group_name_H-M "P 41 2 2"
_symmetry_group_IT_number 91
_symmetry_cell_setting 'tetragonal'
loop_
_space_group_symop_operation_xyz
x,y,z
-y,x,1/4+z
-x,-y,1/2+z
y,-x,3/4+z
x,-y,1/2-z
-x,y,-z
y,x,3/4-z
-y,-x,1/4-z
loop_
_atom_site_type_symbol
_atom_site_label
_atom_site_fract_x
_atom_site_fract_y
_atom_site_fract_z
Si Si1 0.807349 0.941110 0.986867
Si Si2 0.874612 0.604792 0.720170
Si Si3 0.746831 0.394862 0.271220
O O1 0.838609 0.838609 0.875000
O O2 0.694750 0.938290 0.985710
O O3 0.850759 0.000000 0.750000
O O4 0.834018 0.000000 0.250000
O O5 0.914777 0.500000 0.750000
O O6 0.837623 0.610167 0.418707
O O7 0.786529 0.614637 0.928112
O O8 0.706483 0.500000 0.250000
O O9 0.677388 0.322613 0.125000
#
# Coordination Sequence:
#
# PCOD9547724 Si02
#       3
#     8   8   8
#     4  12  26  44  68  97 131 174 220 271 330 394
#     4  10  22  40  65  94 125 164 214 272 331 391
#     4  10  19  34  56  85 123 168 214 265 323 387
#
# _framework density 23.562273999999999
#
# number of rings (size 3 to 8) (size 9 to 14) (size 15 to 20)
#    0.000    1.333    0.000    6.000    0.000    2.667 
#    0.000    5.000    0.000    0.000    0.000    0.000 
#    0.000    0.000    0.000    0.000    0.000    0.000 
#
# Total GULP energy -133725.949571 kJ/mol
# GULP energy per Si atom -5571.914565 kJ/mol
# Density = 2.350865 g / cm^3
# Si number density = 23.562274 Si / 1000 Ang^3
#
#
#
# Elastic Constant Matrix: (Units=GPa)
#
#
# Indices 1 2 3 4 5 6 
#
# 1 80.5407 26.9585 34.5224 0.0000 0.0000 0.0000
# 2 26.9585 80.5425 34.5239 0.0000 0.0000 0.0000
# 3 34.5224 34.5239 147.1788 0.0000 0.0000 0.0000
# 4 0.0000 0.0000 0.0000 31.2804 0.0000 0.0000
# 5 0.0000 0.0000 0.0000 0.0000 31.2809 0.0000
# 6 0.0000 0.0000 0.0000 0.0000 0.0000 18.3817
#
#
#
# Elastic Compliance Matrix: (Units=1/GPa)
#
#
# Indices 1 2 3 4 5 6 
#
# 1 0.014808 -0.003855 -0.002569 0.000000 0.000000 0.000000
# 2 -0.003855 0.014807 -0.002569 0.000000 0.000000 0.000000
# 3 -0.002569 -0.002569 0.008000 0.000000 0.000000 0.000000
# 4 0.000000 0.000000 0.000000 0.031969 0.000000 0.000000
# 5 0.000000 0.000000 0.000000 0.000000 0.031968 0.000000
# 6 0.000000 0.000000 0.000000 0.000000 0.000000 0.054402
#
#
# Mechanical properties :
#
#
# Convention : Reuss Voigt Hill
#
# Bulk Modulus (GPa) = 50.94698 55.58573 53.26636
# Shear Modulus (GPa) = 27.70342 30.33909 29.02126
#
# Velocity S-wave (km/s) = 3.43265 3.59223 3.51334
# Velocity P-wave (km/s) = 6.11391 6.39122 6.25410
#
# Compressibility (1/GPa) = 0.01962825
#
# Stress axis : x y z
#
# Youngs Moduli (GPa) = 67.53281 67.53388 125.00493
#
# Poissons Ratio (x) = 0.26035 0.32114
# Poissons Ratio (y) = 0.26035 0.32115
# Poissons Ratio (z) = 0.17349 0.17350
#
# Static dielectric constant tensor:
#      x y z
#    x 1.578710 0.000000 0.000000 
#    y 0.000000 1.578700 0.000000 
#    z 0.000000 0.000000 1.880040 
# 
# From -- ./inp_files/398.got.cif
#   From: 2010.05.17/outbox.cif.g08.bks.cpg/sg91_1_cif.got.tgz:398.got - 2010.06.03 19:20:03.
