data_PCOD9547138
_publ_section_title
;
Structure prediction by ZEFSAII (Michael W. Deem and Ramdas Pophale) SiO2 
 PCOD9547138
Probable space group: P 4 21 2
;
_chemical_formula_sum "Si O2"
_cell_formula_units_Z 44
_cell_length_a 13.547782
_cell_length_b 13.547782
_cell_length_c 12.214262
_cell_angle_alpha 90.000000
_cell_angle_beta 90.000000
_cell_angle_gamma 90.000000
_cell_volume 2241.834927
_symmetry_space_group_name_H-M "P 4 21 2"
_symmetry_group_IT_number 90
_symmetry_cell_setting 'tetragonal'
loop_
_space_group_symop_operation_xyz
x,y,z
1/2-y,1/2+x,z
-x,-y,z
1/2+y,1/2-x,z
1/2+x,1/2-y,-z
1/2-x,1/2+y,-z
y,x,-z
-y,-x,-z
loop_
_atom_site_type_symbol
_atom_site_label
_atom_site_fract_x
_atom_site_fract_y
_atom_site_fract_z
Si Si1 0.309661 0.690340 0.000000
Si Si2 0.049309 0.863840 0.389295
Si Si3 0.115281 0.619446 0.906292
Si Si4 0.493917 0.162445 0.498850
Si Si5 0.744321 0.576303 0.719119
Si Si6 0.568116 0.415366 0.183946
O O1 0.328974 0.806387 0.015091
O O2 0.348520 0.626296 0.103677
O O3 0.071624 0.928377 0.500000
O O4 0.012206 0.758590 0.428179
O O5 0.158280 0.857371 0.334988
O O6 0.969634 0.899693 0.298193
O O7 0.132785 0.502504 0.917928
O O8 0.132732 0.674170 0.790069
O O9 0.591104 0.098965 0.517775
O O10 0.483865 0.199336 0.374438
O O11 0.678261 0.500357 0.788871
O O12 0.500000 0.500000 0.129869
#
# Coordination Sequence:
#
# PCOD9547138 Si02
#       6
#     4   8   8   8   8   8
#     4  12  25  42  68 101 128 186 228 286 354 409
#     4   9  21  40  65 101 136 173 230 289 352 418
#     4  11  24  43  66  96 135 174 228 287 338 411
#     4  10  21  37  59  89 132 177 219 275 344 415
#     4  10  20  40  64  94 123 178 222 280 337 412
#     4  10  22  41  68  95 134 176 228 291 343 411
#
# _framework density 19.626781000000001
#
# number of rings (size 3 to 8) (size 9 to 14) (size 15 to 20)
#    0.000    1.818    1.818    1.364    0.000   14.182 
#    6.545    0.000    0.000    2.182    0.000    0.000 
#    0.000    0.000    0.000    0.000    0.000    0.000 
#
# Total GULP energy -245243.709587 kJ/mol
# GULP energy per Si atom -5573.720672 kJ/mol
# Density = 1.958211 g / cm^3
# Si number density = 19.626781 Si / 1000 Ang^3
#
#
#
# Elastic Constant Matrix: (Units=GPa)
#
#
# Indices 1 2 3 4 5 6 
#
# 1 114.1918 53.0260 41.9022 0.0000 0.0000 0.0000
# 2 53.0260 114.1922 41.9029 0.0000 0.0000 0.0000
# 3 41.9022 41.9029 86.5717 0.0000 0.0000 0.0000
# 4 0.0000 0.0000 0.0000 7.9326 0.0000 0.0000
# 5 0.0000 0.0000 0.0000 0.0000 7.9320 0.0000
# 6 0.0000 0.0000 0.0000 0.0000 0.0000 5.3724
#
#
#
# Elastic Compliance Matrix: (Units=1/GPa)
#
#
# Indices 1 2 3 4 5 6 
#
# 1 0.012122 -0.004227 -0.003822 0.000000 0.000000 0.000000
# 2 -0.004227 0.012122 -0.003822 0.000000 0.000000 0.000000
# 3 -0.003822 -0.003822 0.015251 0.000000 0.000000 0.000000
# 4 0.000000 0.000000 0.000000 0.126063 0.000000 0.000000
# 5 0.000000 0.000000 0.000000 0.000000 0.126072 0.000000
# 6 0.000000 0.000000 0.000000 0.000000 0.000000 0.186138
#
#
# Mechanical properties :
#
#
# Convention : Reuss Voigt Hill
#
# Bulk Modulus (GPa) = 63.47103 65.40198 64.43650
# Shear Modulus (GPa) = 9.86661 16.12235 12.99448
#
# Velocity S-wave (km/s) = 2.24456 2.86920 2.57588
# Velocity P-wave (km/s) = 6.25512 6.66120 6.46135
#
# Compressibility (1/GPa) = 0.01575522
#
# Stress axis : x y z
#
# Youngs Moduli (GPa) = 82.49327 82.49306 65.57127
#
# Poissons Ratio (x) = 0.34868 0.25058
# Poissons Ratio (y) = 0.34868 0.25059
# Poissons Ratio (z) = 0.31525 0.31526
#
# Static dielectric constant tensor:
#      x y z
#    x 1.698970 0.000000 0.000000 
#    y 0.000000 1.698970 0.000000 
#    z 0.000000 0.000000 1.728200 
# 
# From -- ./inp_files/2085.got.cif
#   From: 2010.05.17/outbox.cif.g08.bks.cpg/sg90_2_cif.got.tgz:2085.got - 2010.06.03 19:17:45.
