data_PCOD9547446
_publ_section_title
;
Structure prediction by ZEFSAII (Michael W. Deem and Ramdas Pophale) SiO2 
 PCOD9547446
Probable space group: P 4 21 2
;
_chemical_formula_sum "Si O2"
_cell_formula_units_Z 34
_cell_length_a 8.782391
_cell_length_b 8.782391
_cell_length_c 22.895601
_cell_angle_alpha 90.000000
_cell_angle_beta 90.000000
_cell_angle_gamma 90.000000
_cell_volume 1765.946673
_symmetry_space_group_name_H-M "P 4 21 2"
_symmetry_group_IT_number 90
_symmetry_cell_setting 'tetragonal'
loop_
_space_group_symop_operation_xyz
x,y,z
1/2-y,1/2+x,z
-x,-y,z
1/2+y,1/2-x,z
1/2+x,1/2-y,-z
1/2-x,1/2+y,-z
y,x,-z
-y,-x,-z
loop_
_atom_site_type_symbol
_atom_site_label
_atom_site_fract_x
_atom_site_fract_y
_atom_site_fract_z
Si Si1 0.442250 0.252150 0.730052
Si Si2 0.755718 0.575584 0.954618
Si Si3 0.000000 0.000000 0.500000
Si Si4 0.027135 0.753328 0.400016
Si Si5 0.254413 0.924292 0.180514
O O1 0.608282 0.174479 0.735973
O O2 0.446483 0.321263 0.664629
O O3 0.379057 0.371226 0.776777
O O4 0.817066 0.404522 0.962835
O O5 0.706509 0.590961 0.887173
O O6 0.629864 0.629864 0.000000
O O7 0.019123 0.861956 0.454961
O O8 0.160439 0.629544 0.402618
O O9 0.403982 0.816785 0.189311
#
# Coordination Sequence:
#
# PCOD9547446 Si02
#       5
#     8   8   2   8   8
#     4   9  19  35  53  74 103 137 172 213 262 315
#     4   9  19  35  52  73 104 139 176 223 275 324
#     4  12  20  32  60  84 100 140 182 208 252 312
#     4   9  20  37  53  76 110 139 170 216 261 306
#     4   9  19  35  53  75 105 139 177 224 273 319
#
# _framework density 19.253129000000001
#
# number of rings (size 3 to 8) (size 9 to 14) (size 15 to 20)
#    0.000    2.824    0.000    3.529    0.000    7.059 
#    0.000    7.059    0.000    2.824    0.000    0.000 
#    0.000    0.000    0.000    0.000    0.000    0.000 
#
# Total GULP energy -189560.716402 kJ/mol
# GULP energy per Si atom -5575.315188 kJ/mol
# Density = 1.920931 g / cm^3
# Si number density = 19.253129 Si / 1000 Ang^3
#
#
#
# Elastic Constant Matrix: (Units=GPa)
#
#
# Indices 1 2 3 4 5 6 
#
# 1 56.9366 46.1398 75.4791 0.0000 0.0000 0.0000
# 2 46.1398 56.9366 75.4791 0.0000 0.0000 0.0000
# 3 75.4791 75.4791 159.8901 0.0000 0.0000 0.0000
# 4 0.0000 0.0000 0.0000 75.7118 0.0000 0.0000
# 5 0.0000 0.0000 0.0000 0.0000 75.7118 0.0000
# 6 0.0000 0.0000 0.0000 0.0000 0.0000 42.4274
#
#
#
# Elastic Compliance Matrix: (Units=1/GPa)
#
#
# Indices 1 2 3 4 5 6 
#
# 1 0.062027 -0.030594 -0.014839 0.000000 0.000000 0.000000
# 2 -0.030594 0.062027 -0.014839 0.000000 0.000000 0.000000
# 3 -0.014839 -0.014839 0.020264 0.000000 0.000000 0.000000
# 4 0.000000 0.000000 0.000000 0.013208 0.000000 0.000000
# 5 0.000000 0.000000 0.000000 0.000000 0.013208 0.000000
# 6 0.000000 0.000000 0.000000 0.000000 0.000000 0.023570
#
#
# Mechanical properties :
#
#
# Convention : Reuss Voigt Hill
#
# Bulk Modulus (GPa) = 42.05968 74.21768 58.13868
# Shear Modulus (GPa) = 15.49092 43.88123 29.68607
#
# Velocity S-wave (km/s) = 2.83961 4.77925 3.93094
# Velocity P-wave (km/s) = 5.71351 8.31186 7.13201
#
# Compressibility (1/GPa) = 0.02377574
#
# Stress axis : x y z
#
# Youngs Moduli (GPa) = 16.12208 16.12208 49.34888
#
# Poissons Ratio (x) = 0.49324 0.73226
# Poissons Ratio (y) = 0.49324 0.73226
# Poissons Ratio (z) = 0.23923 0.23923
#
# Static dielectric constant tensor:
#      x y z
#    x 1.634950 0.000000 0.000000 
#    y 0.000000 1.634950 0.000000 
#    z 0.000000 0.000000 1.598760 
# 
# From -- ./inp_files/2726.got.cif
#   From: 2010.05.17/outbox.cif.g08.bks.cpg/sg90_2_cif.got.tgz:2726.got - 2010.06.03 19:17:45.
