data_PCOD9547318
_publ_section_title
;
Structure prediction by ZEFSAII (Michael W. Deem and Ramdas Pophale) SiO2 
 PCOD9547318
Probable space group: P 4 21 2
;
_chemical_formula_sum "Si O2"
_cell_formula_units_Z 44
_cell_length_a 8.014639
_cell_length_b 8.014639
_cell_length_c 31.103904
_cell_angle_alpha 90.000000
_cell_angle_beta 90.000000
_cell_angle_gamma 90.000000
_cell_volume 1997.941802
_symmetry_space_group_name_H-M "P 4 21 2"
_symmetry_group_IT_number 90
_symmetry_cell_setting 'tetragonal'
loop_
_space_group_symop_operation_xyz
x,y,z
1/2-y,1/2+x,z
-x,-y,z
1/2+y,1/2-x,z
1/2+x,1/2-y,-z
1/2-x,1/2+y,-z
y,x,-z
-y,-x,-z
loop_
_atom_site_type_symbol
_atom_site_label
_atom_site_fract_x
_atom_site_fract_y
_atom_site_fract_z
Si Si1 0.399238 0.735406 0.280327
Si Si2 0.500000 0.500000 0.883767
Si Si3 0.733670 0.404663 0.626617
Si Si4 0.765451 0.901909 0.186840
Si Si5 0.232926 0.082257 0.541823
Si Si6 0.910615 0.233874 0.956945
O O1 0.592071 0.794751 0.280347
O O2 0.369303 0.652442 0.326541
O O3 0.368773 0.654638 0.233913
O O4 0.390784 0.616062 0.852362
O O5 0.381520 0.394335 0.915263
O O6 0.795932 0.595761 0.624465
O O7 0.623000 0.359083 0.586129
O O8 0.595560 0.795583 0.184193
O O9 0.395306 0.200713 0.540580
O O10 0.127387 0.127387 0.500000
O O11 0.797096 0.398595 0.956166
O O12 0.864953 0.135048 0.000000
#
# Coordination Sequence:
#
# PCOD9547318 Si02
#       6
#     8   4   8   8   8   8
#     4   7  12  27  51  77 106 141 184 234 285 337
#     4  12  21  32  56  90 122 156 201 246 300 362
#     4   9  17  32  56  83 108 138 180 231 284 341
#     4   9  18  34  55  80 114 156 201 251 301 351
#     4  11  24  39  54  76 106 139 177 224 279 340
#     4  11  24  43  66  92 125 165 211 264 317 372
#
# _framework density 22.022662
#
# number of rings (size 3 to 8) (size 9 to 14) (size 15 to 20)
#    0.000    2.364    0.000    5.727    0.000    5.455 
#    0.000    5.455    0.000    4.909    0.000    0.000 
#    0.000    0.000    0.000    0.000    0.000    0.000 
#
# Total GULP energy -245941.600638 kJ/mol
# GULP energy per Si atom -5589.581833 kJ/mol
# Density = 2.197254 g / cm^3
# Si number density = 22.022662 Si / 1000 Ang^3
#
#
#
# Elastic Constant Matrix: (Units=GPa)
#
#
# Indices 1 2 3 4 5 6 
#
# 1 75.3381 35.2615 63.3928 0.0000 0.0000 0.0000
# 2 35.2615 75.3380 63.3929 0.0000 0.0000 0.0000
# 3 63.3928 63.3929 250.7952 0.0000 0.0000 0.0000
# 4 0.0000 0.0000 0.0000 34.8807 0.0000 0.0000
# 5 0.0000 0.0000 0.0000 0.0000 34.8807 0.0000
# 6 0.0000 0.0000 0.0000 0.0000 0.0000 25.1605
#
#
#
# Elastic Compliance Matrix: (Units=1/GPa)
#
#
# Indices 1 2 3 4 5 6 
#
# 1 0.018841 -0.006111 -0.003218 0.000000 0.000000 0.000000
# 2 -0.006111 0.018841 -0.003218 0.000000 0.000000 0.000000
# 3 -0.003218 -0.003218 0.005614 0.000000 0.000000 0.000000
# 4 0.000000 0.000000 0.000000 0.028669 0.000000 0.000000
# 5 0.000000 0.000000 0.000000 0.000000 0.028669 0.000000
# 6 0.000000 0.000000 0.000000 0.000000 0.000000 0.039745
#
#
# Mechanical properties :
#
#
# Convention : Reuss Voigt Hill
#
# Bulk Modulus (GPa) = 54.93446 80.61841 67.77644
# Shear Modulus (GPa) = 29.14759 34.94599 32.04679
#
# Velocity S-wave (km/s) = 3.64198 3.98781 3.81881
# Velocity P-wave (km/s) = 6.53330 7.60855 7.09133
#
# Compressibility (1/GPa) = 0.01820351
#
# Stress axis : x y z
#
# Youngs Moduli (GPa) = 53.07495 53.07476 178.12473
#
# Poissons Ratio (x) = 0.32434 0.57317
# Poissons Ratio (y) = 0.32434 0.57318
# Poissons Ratio (z) = 0.17079 0.17079
#
# Static dielectric constant tensor:
#      x y z
#    x 1.804480 0.000000 0.000000 
#    y 0.000000 1.804480 0.000000 
#    z 0.000000 0.000000 1.827320 
# 
# From -- ./inp_files/3013.got.cif
#   From: 2010.05.17/outbox.cif.g08.bks.cpg/sg90_2_cif.got.tgz:3013.got - 2010.06.03 19:17:45.
