data_PCOD9547722
_publ_section_title
;
Structure prediction by ZEFSAII (Michael W. Deem and Ramdas Pophale) SiO2 
 PCOD9547722
Probable space group: P 41 2 2
;
_chemical_formula_sum "Si O2"
_cell_formula_units_Z 56
_cell_length_a 15.960920
_cell_length_b 15.960920
_cell_length_c 12.550098
_cell_angle_alpha 90.000000
_cell_angle_beta 90.000000
_cell_angle_gamma 90.000000
_cell_volume 3197.149605
_symmetry_space_group_name_H-M "P 41 2 2"
_symmetry_group_IT_number 91
_symmetry_cell_setting 'tetragonal'
loop_
_space_group_symop_operation_xyz
x,y,z
-y,x,1/4+z
-x,-y,1/2+z
y,-x,3/4+z
x,-y,1/2-z
-x,y,-z
y,x,3/4-z
-y,-x,1/4-z
loop_
_atom_site_type_symbol
_atom_site_label
_atom_site_fract_x
_atom_site_fract_y
_atom_site_fract_z
Si Si1 0.320030 0.899873 0.729439
Si Si2 0.924971 0.405577 0.236301
Si Si3 0.849790 0.147649 0.910679
Si Si4 0.834602 0.705279 0.843448
Si Si5 0.909218 0.691035 0.044515
Si Si6 0.420434 0.121912 0.570748
Si Si7 0.142821 0.958612 0.039846
O O1 0.347796 0.885882 0.606991
O O2 0.231305 0.860373 0.769119
O O3 0.398758 0.871243 0.804225
O O4 0.309872 0.000000 0.750000
O O5 0.891234 0.500000 0.250000
O O6 0.920488 0.364398 0.351992
O O7 0.022659 0.412757 0.203832
O O8 0.769574 0.146810 0.831662
O O9 0.926937 0.133255 0.830257
O O10 0.842417 0.057533 0.967087
O O11 0.749928 0.749928 0.875000
O O12 0.831510 0.656257 0.735239
O O13 0.906357 0.776118 0.829316
O O14 0.865378 0.649032 0.942657
O O15 0.000000 0.718113 0.000000
O O16 0.500000 0.149540 0.500000
O O17 0.071208 0.928793 0.125000
#
# Coordination Sequence:
#
# PCOD9547722 Si02
#       7
#     8   8   8   8   8   8   8
#     4  10  23  38  49  75 108 134 174 233 291 332
#     4  10  23  37  54  76 100 132 182 233 284 342
#     4  12  22  36  53  71 107 144 187 237 273 323
#     4  11  19  33  55  80 104 135 187 235 270 319
#     4  12  20  33  58  74  98 141 189 228 276 321
#     4  10  19  34  56  76 100 132 172 229 290 335
#     4  11  20  34  52  73 101 146 199 238 271 315
#
# _framework density 17.515602999999999
#
# number of rings (size 3 to 8) (size 9 to 14) (size 15 to 20)
#    0.000    1.143    7.143    0.429    4.000    2.286 
#    0.000    0.000    0.000    0.000    0.000    0.000 
#    0.000    0.000    0.000    5.143    0.000    1.429 
#
# Total GULP energy -311968.136460 kJ/mol
# GULP energy per Si atom -5570.859580 kJ/mol
# Density = 1.747574 g / cm^3
# Si number density = 17.515603 Si / 1000 Ang^3
#
#
#
# Elastic Constant Matrix: (Units=GPa)
#
#
# Indices 1 2 3 4 5 6 
#
# 1 58.4435 7.0868 18.4061 0.0000 0.0000 0.0000
# 2 7.0868 58.4430 18.4061 0.0000 0.0000 0.0000
# 3 18.4061 18.4061 77.2752 0.0000 0.0000 0.0000
# 4 0.0000 0.0000 0.0000 12.2368 0.0000 0.0000
# 5 0.0000 0.0000 0.0000 0.0000 12.2369 0.0000
# 6 0.0000 0.0000 0.0000 0.0000 0.0000 3.6792
#
#
#
# Elastic Compliance Matrix: (Units=1/GPa)
#
#
# Indices 1 2 3 4 5 6 
#
# 1 0.018545 -0.000927 -0.004196 0.000000 0.000000 0.000000
# 2 -0.000927 0.018545 -0.004196 0.000000 0.000000 0.000000
# 3 -0.004196 -0.004196 0.014940 0.000000 0.000000 0.000000
# 4 0.000000 0.000000 0.000000 0.081721 0.000000 0.000000
# 5 0.000000 0.000000 0.000000 0.000000 0.081720 0.000000
# 6 0.000000 0.000000 0.000000 0.000000 0.000000 0.271800
#
#
# Mechanical properties :
#
#
# Convention : Reuss Voigt Hill
#
# Bulk Modulus (GPa) = 29.94946 31.32886 30.63916
# Shear Modulus (GPa) = 9.67045 15.64808 12.65926
#
# Velocity S-wave (km/s) = 2.35224 2.99219 2.69130
# Velocity P-wave (km/s) = 4.95108 5.46468 5.21421
#
# Compressibility (1/GPa) = 0.03338958
#
# Stress axis : x y z
#
# Youngs Moduli (GPa) = 53.92424 53.92377 66.93544
#
# Poissons Ratio (x) = 0.04999 0.28088
# Poissons Ratio (y) = 0.05000 0.28088
# Poissons Ratio (z) = 0.22628 0.22628
#
# Static dielectric constant tensor:
#      x y z
#    x 1.634350 0.000000 0.000000 
#    y 0.000000 1.634350 0.000000 
#    z 0.000000 0.000000 1.691580 
# 
# From -- ./inp_files/20320.got.cif
#   From: 2010.05.17/outbox.cif.g08.bks.cpg/sg91_11_cif.got.tgz:20320.got - 2010.06.03 19:20:03.
