data_PCOD9547384
_publ_section_title
;
Structure prediction by ZEFSAII (Michael W. Deem and Ramdas Pophale) SiO2 
 PCOD9547384
Probable space group: P 4 21 2
;
_chemical_formula_sum "Si O2"
_cell_formula_units_Z 44
_cell_length_a 7.490975
_cell_length_b 7.490975
_cell_length_c 31.838878
_cell_angle_alpha 90.000000
_cell_angle_beta 90.000000
_cell_angle_gamma 90.000000
_cell_volume 1786.629293
_symmetry_space_group_name_H-M "P 4 21 2"
_symmetry_group_IT_number 90
_symmetry_cell_setting 'tetragonal'
loop_
_space_group_symop_operation_xyz
x,y,z
1/2-y,1/2+x,z
-x,-y,z
1/2+y,1/2-x,z
1/2+x,1/2-y,-z
1/2-x,1/2+y,-z
y,x,-z
-y,-x,-z
loop_
_atom_site_type_symbol
_atom_site_label
_atom_site_fract_x
_atom_site_fract_y
_atom_site_fract_z
Si Si1 0.367255 0.273108 0.224469
Si Si2 0.224621 0.870126 0.134734
Si Si3 0.274896 0.373856 0.684516
Si Si4 0.112912 0.776712 0.954551
Si Si5 0.613236 0.274755 0.545981
Si Si6 0.000000 0.000000 0.384593
O O1 0.578898 0.227275 0.224500
O O2 0.325995 0.363731 0.179636
O O3 0.330025 0.358402 0.269728
O O4 0.418551 0.773938 0.134897
O O5 0.131048 0.835858 0.089841
O O6 0.225062 0.585407 0.682476
O O7 0.407474 0.354481 0.645746
O O8 0.222897 0.593313 0.953531
O O9 0.141651 0.858350 0.000000
O O10 0.405927 0.223081 0.549338
O O11 0.647392 0.352609 0.500000
O O12 0.643152 0.408820 0.584325
#
# Coordination Sequence:
#
# PCOD9547384 Si02
#       6
#     8   8   8   8   8   4
#     4   7  10  20  40  64  88 116 154 199 244 288
#     4   7  10  19  38  61  83 111 150 195 240 287
#     4   9  18  31  49  74 103 136 171 209 255 306
#     4   9  17  28  43  64  89 118 153 194 244 299
#     4  11  24  42  63  86 114 150 191 232 273 319
#     4  12  21  34  54  82 116 144 173 214 266 322
#
# _framework density 24.627379000000001
#
# number of rings (size 3 to 8) (size 9 to 14) (size 15 to 20)
#    0.000    3.091    0.000    5.727    0.000    0.364 
#    0.000    1.818    0.000    8.727    0.000    0.000 
#    0.000    2.909    0.000    0.000    0.000    0.000 
#
# Total GULP energy -245641.815055 kJ/mol
# GULP energy per Si atom -5582.768524 kJ/mol
# Density = 2.457133 g / cm^3
# Si number density = 24.627379 Si / 1000 Ang^3
#
#
#
# Elastic Constant Matrix: (Units=GPa)
#
#
# Indices 1 2 3 4 5 6 
#
# 1 23.7318 19.2260 25.1807 0.0000 0.0000 0.0000
# 2 19.2260 23.7327 25.1795 0.0000 0.0000 0.0000
# 3 25.1807 25.1795 271.6766 0.0000 0.0000 0.0000
# 4 0.0000 0.0000 0.0000 80.6301 0.0000 0.0000
# 5 0.0000 0.0000 0.0000 0.0000 80.6197 0.0000
# 6 0.0000 0.0000 0.0000 0.0000 0.0000 27.3570
#
#
#
# Elastic Compliance Matrix: (Units=1/GPa)
#
#
# Indices 1 2 3 4 5 6 
#
# 1 0.124017 -0.097897 -0.002421 0.000000 0.000000 0.000000
# 2 -0.097897 0.124010 -0.002420 0.000000 0.000000 0.000000
# 3 -0.002421 -0.002420 0.004130 0.000000 0.000000 0.000000
# 4 0.000000 0.000000 0.000000 0.012402 0.000000 0.000000
# 5 0.000000 0.000000 0.000000 0.000000 0.012404 0.000000
# 6 0.000000 0.000000 0.000000 0.000000 0.000000 0.036554
#
#
# Mechanical properties :
#
#
# Convention : Reuss Voigt Hill
#
# Bulk Modulus (GPa) = 21.42269 50.92373 36.17321
# Shear Modulus (GPa) = 9.35360 54.35833 31.85596
#
# Velocity S-wave (km/s) = 1.95097 4.70322 3.60045
# Velocity P-wave (km/s) = 3.71385 7.08634 5.65725
#
# Compressibility (1/GPa) = 0.04667948
#
# Stress axis : x y z
#
# Youngs Moduli (GPa) = 8.06344 8.06383 242.15770
#
# Poissons Ratio (x) = 0.78943 0.58634
# Poissons Ratio (y) = 0.78939 0.58597
# Poissons Ratio (z) = 0.01952 0.01951
#
# Static dielectric constant tensor:
#      x y z
#    x 1.608710 0.000000 0.000000 
#    y 0.000000 1.608770 0.000000 
#    z 0.000000 0.000000 2.042940 
# 
# From -- ./inp_files/3003.got.cif
#   From: 2010.05.17/outbox.cif.g08.bks.cpg/sg90_2_cif.got.tgz:3003.got - 2010.06.03 19:17:45.
