data_PCOD9547955
_publ_section_title
;
Structure prediction by ZEFSAII (Michael W. Deem and Ramdas Pophale) SiO2 
 PCOD9547955
Probable space group: P 41 2 2
;
_chemical_formula_sum "Si O2"
_cell_formula_units_Z 48
_cell_length_a 8.512806
_cell_length_b 8.512806
_cell_length_c 32.200937
_cell_angle_alpha 90.000000
_cell_angle_beta 90.000000
_cell_angle_gamma 90.000000
_cell_volume 2333.533187
_symmetry_space_group_name_H-M "P 41 2 2"
_symmetry_group_IT_number 91
_symmetry_cell_setting 'tetragonal'
loop_
_space_group_symop_operation_xyz
x,y,z
-y,x,1/4+z
-x,-y,1/2+z
y,-x,3/4+z
x,-y,1/2-z
-x,y,-z
y,x,3/4-z
-y,-x,1/4-z
loop_
_atom_site_type_symbol
_atom_site_label
_atom_site_fract_x
_atom_site_fract_y
_atom_site_fract_z
Si Si1 0.500000 0.980826 0.500000
Si Si2 0.224665 0.239701 0.972551
Si Si3 0.998795 0.642043 0.909037
Si Si4 0.514309 0.000000 0.250000
Si Si5 0.158628 0.528914 0.332659
Si Si6 0.508967 0.336038 0.839659
Si Si7 0.121517 0.014642 0.584907
O O1 0.539023 0.083248 0.540692
O O2 0.644729 0.866854 0.492502
O O3 0.298605 0.357818 0.938492
O O4 0.107612 0.110692 0.952327
O O5 0.144561 0.365563 0.002045
O O6 0.168804 0.575671 0.894523
O O7 0.012691 0.830402 0.913556
O O8 0.877309 0.573564 0.874444
O O9 0.990870 0.580826 0.956907
O O10 0.339302 0.571636 0.322498
O O11 0.074407 0.698974 0.337355
O O12 0.445090 0.445090 0.875000
O O13 0.085468 0.914533 0.625000
#
# Coordination Sequence:
#
# PCOD9547955 Si02
#       7
#     4   8   8   4   8   8   8
#     4  10  22  40  60  88 122 158 206 256 310 376
#     4  10  21  38  62  88 118 164 206 250 305 378
#     4  10  22  39  60  89 123 158 201 260 317 368
#     4  10  22  40  60  88 122 158 206 256 310 376
#     4  10  22  39  60  89 123 158 201 260 317 368
#     4  10  20  38  62  87 118 161 207 248 306 382
#     4  10  20  38  62  87 118 161 207 248 306 382
#
# _framework density 20.569666000000002
#
# number of rings (size 3 to 8) (size 9 to 14) (size 15 to 20)
#    0.000    2.000    0.000    4.500    0.000    7.333 
#    0.000   10.000    0.000    0.000    0.000    0.000 
#    0.000    0.000    0.000    0.000    0.000    0.000 
#
# Total GULP energy -267463.045243 kJ/mol
# GULP energy per Si atom -5572.146776 kJ/mol
# Density = 2.052285 g / cm^3
# Si number density = 20.569666 Si / 1000 Ang^3
#
#
#
# Elastic Constant Matrix: (Units=GPa)
#
#
# Indices 1 2 3 4 5 6 
#
# 1 81.2544 5.4927 18.6630 0.0000 0.0000 0.0000
# 2 5.4927 81.2532 18.6638 0.0000 0.0000 0.0000
# 3 18.6630 18.6638 51.2597 0.0000 0.0000 0.0000
# 4 0.0000 0.0000 0.0000 42.1621 0.0000 0.0000
# 5 0.0000 0.0000 0.0000 0.0000 42.1642 0.0000
# 6 0.0000 0.0000 0.0000 0.0000 0.0000 38.6020
#
#
#
# Elastic Compliance Matrix: (Units=1/GPa)
#
#
# Indices 1 2 3 4 5 6 
#
# 1 0.013434 0.000235 -0.004977 0.000000 0.000000 0.000000
# 2 0.000235 0.013435 -0.004977 0.000000 0.000000 0.000000
# 3 -0.004977 -0.004977 0.023133 0.000000 0.000000 0.000000
# 4 0.000000 0.000000 0.000000 0.023718 0.000000 0.000000
# 5 0.000000 0.000000 0.000000 0.000000 0.023717 0.000000
# 6 0.000000 0.000000 0.000000 0.000000 0.000000 0.025905
#
#
# Mechanical properties :
#
#
# Convention : Reuss Voigt Hill
#
# Bulk Modulus (GPa) = 32.71860 33.26737 32.99298
# Shear Modulus (GPa) = 32.68673 35.98220 34.33447
#
# Velocity S-wave (km/s) = 3.99064 4.18698 4.08999
# Velocity P-wave (km/s) = 6.09708 6.29147 6.19504
#
# Compressibility (1/GPa) = 0.03056365
#
# Stress axis : x y z
#
# Youngs Moduli (GPa) = 74.43667 74.43492 43.22889
#
# Poissons Ratio (x) = -0.01749 0.21514
# Poissons Ratio (y) = -0.01749 0.21516
# Poissons Ratio (z) = 0.37046 0.37047
#
# Static dielectric constant tensor:
#      x y z
#    x 1.817900 0.000000 0.000000 
#    y 0.000000 1.817890 0.000000 
#    z 0.000000 0.000000 1.731470 
# 
# From -- ./inp_files/8013.got.cif
#   From: 2010.05.17/outbox.cif.g08.bks.cpg/sg91_5_cif.got.tgz:8013.got - 2010.06.03 19:20:03.
