data_PCOD9547303
_publ_section_title
;
Structure prediction by ZEFSAII (Michael W. Deem and Ramdas Pophale) SiO2 
 PCOD9547303
Probable space group: P 4 21 2
;
_chemical_formula_sum "Si O2"
_cell_formula_units_Z 32
_cell_length_a 11.854223
_cell_length_b 11.854223
_cell_length_c 8.848758
_cell_angle_alpha 90.000000
_cell_angle_beta 90.000000
_cell_angle_gamma 90.000000
_cell_volume 1243.450507
_symmetry_space_group_name_H-M "P 4 21 2"
_symmetry_group_IT_number 90
_symmetry_cell_setting 'tetragonal'
loop_
_space_group_symop_operation_xyz
x,y,z
1/2-y,1/2+x,z
-x,-y,z
1/2+y,1/2-x,z
1/2+x,1/2-y,-z
1/2-x,1/2+y,-z
y,x,-z
-y,-x,-z
loop_
_atom_site_type_symbol
_atom_site_label
_atom_site_fract_x
_atom_site_fract_y
_atom_site_fract_z
Si Si1 0.129028 0.870973 0.500000
Si Si2 0.700685 0.195095 0.277191
Si Si3 0.000000 0.000000 0.746990
Si Si4 0.265355 0.506728 0.891467
Si Si5 0.582336 0.169555 0.784638
O O1 0.249771 0.870612 0.419756
O O2 0.099392 0.958666 0.633650
O O3 0.569411 0.198025 0.243319
O O4 0.745284 0.323949 0.282820
O O5 0.750694 0.126302 0.133653
O O6 0.971415 0.894900 0.851250
O O7 0.216981 0.559786 0.044025
O O8 0.450899 0.143096 0.751099
#
# Coordination Sequence:
#
# PCOD9547303 Si02
#       5
#     4   8   4   8   8
#     4   9  22  46  70 109 146 190 248 307 374 454
#     4  11  25  44  72 105 144 199 242 309 383 442
#     4   9  22  44  77 108 147 191 256 326 368 447
#     4  11  23  44  70 108 145 192 245 317 382 446
#     4  11  25  47  70 102 153 198 250 311 382 456
#
# _framework density 25.734838
#
# number of rings (size 3 to 8) (size 9 to 14) (size 15 to 20)
#    0.000    1.500    2.500    0.750    7.000    4.500 
#    4.500    0.000    0.000    0.000    0.000    0.000 
#    0.000    0.000    0.000    0.000    0.000    0.000 
#
# Total GULP energy -178382.395256 kJ/mol
# GULP energy per Si atom -5574.449852 kJ/mol
# Density = 2.567626 g / cm^3
# Si number density = 25.734838 Si / 1000 Ang^3
#
#
#
# Elastic Constant Matrix: (Units=GPa)
#
#
# Indices 1 2 3 4 5 6 
#
# 1 85.8249 15.7432 21.4412 0.0000 0.0000 0.0000
# 2 15.7432 85.8245 21.4412 0.0000 0.0000 0.0000
# 3 21.4412 21.4412 81.0706 0.0000 0.0000 0.0000
# 4 0.0000 0.0000 0.0000 34.8911 0.0000 0.0000
# 5 0.0000 0.0000 0.0000 0.0000 34.8917 0.0000
# 6 0.0000 0.0000 0.0000 0.0000 0.0000 43.7382
#
#
#
# Elastic Compliance Matrix: (Units=1/GPa)
#
#
# Indices 1 2 3 4 5 6 
#
# 1 0.012676 -0.001593 -0.002931 0.000000 0.000000 0.000000
# 2 -0.001593 0.012676 -0.002931 0.000000 0.000000 0.000000
# 3 -0.002931 -0.002931 0.013885 0.000000 0.000000 0.000000
# 4 0.000000 0.000000 0.000000 0.028661 0.000000 0.000000
# 5 0.000000 0.000000 0.000000 0.000000 0.028660 0.000000
# 6 0.000000 0.000000 0.000000 0.000000 0.000000 0.022863
#
#
# Mechanical properties :
#
#
# Convention : Reuss Voigt Hill
#
# Bulk Modulus (GPa) = 41.10680 41.10791 41.10735
# Shear Modulus (GPa) = 35.10213 35.64384 35.37298
#
# Velocity S-wave (km/s) = 3.69723 3.72565 3.71147
# Velocity P-wave (km/s) = 5.85098 5.87500 5.86300
#
# Compressibility (1/GPa) = 0.02432688
#
# Stress axis : x y z
#
# Youngs Moduli (GPa) = 78.88845 78.88801 72.01806
#
# Poissons Ratio (x) = 0.12566 0.21110
# Poissons Ratio (y) = 0.12566 0.21110
# Poissons Ratio (z) = 0.23124 0.23124
#
# Static dielectric constant tensor:
#      x y z
#    x 2.041850 0.000000 0.000000 
#    y 0.000000 2.041860 0.000000 
#    z 0.000000 0.000000 2.087740 
# 
# From -- ./inp_files/1900.got.cif
#   From: 2010.05.17/outbox.cif.g08.bks.cpg/sg90_1_cif.got.tgz:1900.got - 2010.06.03 19:17:45.
