data_PCOD9547919
_publ_section_title
;
Structure prediction by ZEFSAII (Michael W. Deem and Ramdas Pophale) SiO2 
 PCOD9547919
Probable space group: P 41 2 2
;
_chemical_formula_sum "Si O2"
_cell_formula_units_Z 52
_cell_length_a 23.198787
_cell_length_b 23.198787
_cell_length_c 4.928571
_cell_angle_alpha 90.000000
_cell_angle_beta 90.000000
_cell_angle_gamma 90.000000
_cell_volume 2652.476667
_symmetry_space_group_name_H-M "P 41 2 2"
_symmetry_group_IT_number 91
_symmetry_cell_setting 'tetragonal'
loop_
_space_group_symop_operation_xyz
x,y,z
-y,x,1/4+z
-x,-y,1/2+z
y,-x,3/4+z
x,-y,1/2-z
-x,y,-z
y,x,3/4-z
-y,-x,1/4-z
loop_
_atom_site_type_symbol
_atom_site_label
_atom_site_fract_x
_atom_site_fract_y
_atom_site_fract_z
Si Si1 0.348394 0.433981 0.225376
Si Si2 0.768825 0.135281 0.119787
Si Si3 0.500000 0.038121 0.500000
Si Si4 0.384990 0.899578 0.186039
Si Si5 0.740130 0.939731 0.886229
Si Si6 0.357444 0.171311 0.804586
Si Si7 0.433481 0.727244 0.470290
O O1 0.367821 0.500000 0.250000
O O2 0.393668 0.393668 0.375000
O O3 0.291328 0.426673 0.410340
O O4 0.328467 0.425675 0.916237
O O5 0.825466 0.174535 0.125000
O O6 0.766216 0.080929 0.327572
O O7 0.711848 0.172617 0.192366
O O8 0.758416 0.110265 0.821850
O O9 0.553510 0.073301 0.622333
O O10 0.477413 0.000000 0.750000
O O11 0.329826 0.938118 0.098597
O O12 0.376374 0.881481 0.497519
O O13 0.378256 0.843434 0.996335
O O14 0.757658 0.000000 0.750000
O O15 0.388252 0.226407 0.927607
O O16 0.500000 0.747418 0.500000
#
# Coordination Sequence:
#
# PCOD9547919 Si02
#       7
#     8   8   4   8   8   8   8
#     4  10  21  38  55  78 103 131 170 221 282 351
#     4  10  21  36  56  85 119 147 189 241 282 331
#     4  12  24  36  52  78 110 150 198 250 290 310
#     4  10  22  35  54  78 110 148 196 241 280 333
#     4  10  20  37  58  81 113 156 192 228 285 345
#     4  10  21  37  54  81 107 151 189 228 296 334
#     4  10  21  35  56  79 106 141 184 233 278 339
#
# _framework density 19.604317999999999
#
# number of rings (size 3 to 8) (size 9 to 14) (size 15 to 20)
#    0.000    1.846    0.000    3.692    2.154    3.692 
#    0.000    2.308    0.000    0.000    0.000    0.000 
#    0.000   17.231    0.000    0.000    0.000    0.000 
#
# Total GULP energy -290291.736107 kJ/mol
# GULP energy per Si atom -5582.533387 kJ/mol
# Density = 1.955970 g / cm^3
# Si number density = 19.604318 Si / 1000 Ang^3
#
#
#
# Elastic Constant Matrix: (Units=GPa)
#
#
# Indices 1 2 3 4 5 6 
#
# 1 46.6755 39.6831 -4.1317 0.0000 0.0000 0.0000
# 2 39.6831 46.6817 -4.1302 0.0000 0.0000 0.0000
# 3 -4.1317 -4.1302 81.3735 0.0000 0.0000 0.0000
# 4 0.0000 0.0000 0.0000 17.8196 0.0000 0.0000
# 5 0.0000 0.0000 0.0000 0.0000 17.8195 0.0000
# 6 0.0000 0.0000 0.0000 0.0000 0.0000 4.6588
#
#
#
# Elastic Compliance Matrix: (Units=1/GPa)
#
#
# Indices 1 2 3 4 5 6 
#
# 1 0.077297 -0.065656 0.000592 0.000000 0.000000 0.000000
# 2 -0.065656 0.077286 0.000589 0.000000 0.000000 0.000000
# 3 0.000592 0.000589 0.012349 0.000000 0.000000 0.000000
# 4 0.000000 0.000000 0.000000 0.056118 0.000000 0.000000
# 5 0.000000 0.000000 0.000000 0.000000 0.056118 0.000000
# 6 0.000000 0.000000 0.000000 0.000000 0.000000 0.214649
#
#
# Mechanical properties :
#
#
# Convention : Reuss Voigt Hill
#
# Bulk Modulus (GPa) = 26.32744 26.39701 26.36223
# Shear Modulus (GPa) = 7.86871 17.61355 12.74113
#
# Velocity S-wave (km/s) = 2.00561 3.00067 2.55211
# Velocity P-wave (km/s) = 4.33842 5.04970 4.70751
#
# Compressibility (1/GPa) = 0.03798318
#
# Stress axis : x y z
#
# Youngs Moduli (GPa) = 12.93709 12.93887 80.97834
#
# Poissons Ratio (x) = 0.84952 -0.04796
# Poissons Ratio (y) = 0.84940 -0.04771
# Poissons Ratio (z) = -0.00766 -0.00762
#
# Static dielectric constant tensor:
#      x y z
#    x 1.686470 0.000000 0.000000 
#    y 0.000000 1.686470 0.000000 
#    z 0.000000 0.000000 1.681230 
# 
# From -- ./inp_files/9005.got.cif
#   From: 2010.05.17/outbox.cif.g08.bks.cpg/sg91_5_cif.got.tgz:9005.got - 2010.06.03 19:20:03.
