data_PCOD9547715
_publ_section_title
;
Structure prediction by ZEFSAII (Michael W. Deem and Ramdas Pophale) SiO2 
 PCOD9547715
Probable space group: P 41 2 2
;
_chemical_formula_sum "Si O2"
_cell_formula_units_Z 48
_cell_length_a 9.333280
_cell_length_b 9.333280
_cell_length_c 28.766995
_cell_angle_alpha 90.000000
_cell_angle_beta 90.000000
_cell_angle_gamma 90.000000
_cell_volume 2505.896259
_symmetry_space_group_name_H-M "P 41 2 2"
_symmetry_group_IT_number 91
_symmetry_cell_setting 'tetragonal'
loop_
_space_group_symop_operation_xyz
x,y,z
-y,x,1/4+z
-x,-y,1/2+z
y,-x,3/4+z
x,-y,1/2-z
-x,y,-z
y,x,3/4-z
-y,-x,1/4-z
loop_
_atom_site_type_symbol
_atom_site_label
_atom_site_fract_x
_atom_site_fract_y
_atom_site_fract_z
Si Si1 0.723333 0.332179 0.347052
Si Si2 0.764203 0.171596 0.002966
Si Si3 0.593803 0.000000 0.250000
Si Si4 0.507481 0.108236 0.652825
Si Si5 0.155586 0.365658 0.851603
Si Si6 0.014487 0.192327 0.600981
Si Si7 0.929875 0.000000 0.750000
O O1 0.778580 0.312672 0.294068
O O2 0.567232 0.262049 0.351360
O O3 0.741797 0.497372 0.359908
O O4 0.833444 0.239245 0.378137
O O5 0.664572 0.142082 0.046870
O O6 0.863357 0.033987 0.993118
O O7 0.872361 0.300988 0.016094
O O8 0.506147 0.056979 0.293672
O O9 0.671709 0.088369 0.638952
O O10 0.412370 0.995166 0.623547
O O11 0.226490 0.226490 0.875000
O O12 0.947660 0.052341 0.625000
O O13 0.022885 0.161125 0.546366
#
# Coordination Sequence:
#
# PCOD9547715 Si02
#       7
#     8   8   4   8   8   8   4
#     4  10  22  38  57  83 115 151 185 230 279 336
#     4  10  19  33  57  85 110 141 183 233 281 325
#     4   9  17  32  54  82 106 138 182 228 280 322
#     4  10  21  36  56  81 115 147 187 232 277 338
#     4  11  21  35  58  86 112 145 189 233 279 334
#     4  11  22  38  58  85 113 150 189 227 284 331
#     4  11  21  34  62  88 112 142 188 240 274 334
#
# _framework density 19.154824000000001
#
# number of rings (size 3 to 8) (size 9 to 14) (size 15 to 20)
#    0.000    1.667    3.333    2.000    0.000    2.000 
#    0.000    0.000    0.000    0.000    4.333    0.000 
#    0.000    0.000    0.000    0.000    0.000    0.000 
#
# Total GULP energy -268033.204638 kJ/mol
# GULP energy per Si atom -5584.025097 kJ/mol
# Density = 1.911123 g / cm^3
# Si number density = 19.154824 Si / 1000 Ang^3
#
#
#
# Elastic Constant Matrix: (Units=GPa)
#
#
# Indices 1 2 3 4 5 6 
#
# 1 27.1774 14.5529 -9.4893 0.0000 0.0000 0.0000
# 2 14.5529 27.1787 -9.4892 0.0000 0.0000 0.0000
# 3 -9.4893 -9.4892 62.5933 0.0000 0.0000 0.0000
# 4 0.0000 0.0000 0.0000 11.8200 0.0000 0.0000
# 5 0.0000 0.0000 0.0000 0.0000 11.8205 0.0000
# 6 0.0000 0.0000 0.0000 0.0000 0.0000 27.8604
#
#
#
# Elastic Compliance Matrix: (Units=1/GPa)
#
#
# Indices 1 2 3 4 5 6 
#
# 1 0.052473 -0.026735 0.003902 0.000000 0.000000 0.000000
# 2 -0.026735 0.052471 0.003902 0.000000 0.000000 0.000000
# 3 0.003902 0.003902 0.017159 0.000000 0.000000 0.000000
# 4 0.000000 0.000000 0.000000 0.084603 0.000000 0.000000
# 5 0.000000 0.000000 0.000000 0.000000 0.084599 0.000000
# 6 0.000000 0.000000 0.000000 0.000000 0.000000 0.035893
#
#
# Mechanical properties :
#
#
# Convention : Reuss Voigt Hill
#
# Bulk Modulus (GPa) = 11.87062 12.01092 11.94077
# Shear Modulus (GPa) = 12.71811 18.39184 15.55497
#
# Velocity S-wave (km/s) = 2.57954 3.10202 2.85277
# Velocity P-wave (km/s) = 3.88365 4.37197 4.13502
#
# Compressibility (1/GPa) = 0.08424158
#
# Stress axis : x y z
#
# Youngs Moduli (GPa) = 19.05726 19.05824 58.27780
#
# Poissons Ratio (x) = 0.50951 -0.22741
# Poissons Ratio (y) = 0.50949 -0.22738
# Poissons Ratio (z) = -0.07436 -0.07436
#
# Static dielectric constant tensor:
#      x y z
#    x 1.654870 0.000000 0.000000 
#    y 0.000000 1.654870 0.000000 
#    z 0.000000 0.000000 1.656510 
# 
# From -- ./inp_files/8023.got.cif
#   From: 2010.05.17/outbox.cif.g08.bks.cpg/sg91_5_cif.got.tgz:8023.got - 2010.06.03 19:20:03.
