data_PCOD9547813
_publ_section_title
;
Structure prediction by ZEFSAII (Michael W. Deem and Ramdas Pophale) SiO2 
 PCOD9547813
Probable space group: P 41 2 2
;
_chemical_formula_sum "Si O2"
_cell_formula_units_Z 48
_cell_length_a 8.698427
_cell_length_b 8.698427
_cell_length_c 26.833797
_cell_angle_alpha 90.000000
_cell_angle_beta 90.000000
_cell_angle_gamma 90.000000
_cell_volume 2030.315715
_symmetry_space_group_name_H-M "P 41 2 2"
_symmetry_group_IT_number 91
_symmetry_cell_setting 'tetragonal'
loop_
_space_group_symop_operation_xyz
x,y,z
-y,x,1/4+z
-x,-y,1/2+z
y,-x,3/4+z
x,-y,1/2-z
-x,y,-z
y,x,3/4-z
-y,-x,1/4-z
loop_
_atom_site_type_symbol
_atom_site_label
_atom_site_fract_x
_atom_site_fract_y
_atom_site_fract_z
Si Si1 0.329528 0.551450 0.867112
Si Si2 0.815636 0.812270 0.554627
Si Si3 0.341484 0.788460 0.279221
Si Si4 0.000000 0.405719 0.000000
Si Si5 0.500000 0.143004 0.500000
Si Si6 0.968288 0.050095 0.441671
Si Si7 0.662630 0.112277 0.053445
O O1 0.505998 0.505998 0.875000
O O2 0.284472 0.705583 0.839383
O O3 0.272526 0.572178 0.922711
O O4 0.243666 0.417203 0.835663
O O5 0.722235 0.834595 0.501962
O O6 0.968233 0.709917 0.545195
O O7 0.876460 0.972186 0.579423
O O8 0.478685 0.858350 0.247652
O O9 0.246054 0.654653 0.251040
O O10 0.226473 0.919704 0.300983
O O11 0.462730 0.024116 0.544901
O O12 0.813411 0.967041 0.423604
O O13 0.000000 0.006250 0.500000
#
# Coordination Sequence:
#
# PCOD9547813 Si02
#       7
#     8   8   8   4   4   8   8
#     4  12  27  41  63 106 147 178 228 290 354 417
#     4  11  22  43  72 101 131 186 232 286 345 413
#     4  11  26  42  66 104 138 180 233 295 347 417
#     4  12  24  40  70  94 138 182 226 280 350 422
#     4  10  22  44  74  92 130 196 234 276 366 424
#     4   9  19  42  71  97 122 173 249 282 330 414
#     4  10  19  43  74  96 127 185 237 281 339 427
#
# _framework density 23.641645
#
# number of rings (size 3 to 8) (size 9 to 14) (size 15 to 20)
#    0.000    1.333    5.000    1.000    2.333    3.333 
#    0.000    0.000    0.000    0.000    0.000    0.000 
#    0.000    0.000    0.000    0.000    0.000    0.000 
#
# Total GULP energy -267554.714038 kJ/mol
# GULP energy per Si atom -5574.056542 kJ/mol
# Density = 2.358784 g / cm^3
# Si number density = 23.641645 Si / 1000 Ang^3
#
#
#
# Elastic Constant Matrix: (Units=GPa)
#
#
# Indices 1 2 3 4 5 6 
#
# 1 102.0169 48.8623 18.4146 0.0000 0.0000 0.0000
# 2 48.8623 102.0169 18.4146 0.0000 0.0000 0.0000
# 3 18.4146 18.4146 33.0812 0.0000 0.0000 0.0000
# 4 0.0000 0.0000 0.0000 24.6055 0.0000 0.0000
# 5 0.0000 0.0000 0.0000 0.0000 24.6055 0.0000
# 6 0.0000 0.0000 0.0000 0.0000 0.0000 75.3035
#
#
#
# Elastic Compliance Matrix: (Units=1/GPa)
#
#
# Indices 1 2 3 4 5 6 
#
# 1 0.013242 -0.005572 -0.004270 0.000000 0.000000 0.000000
# 2 -0.005572 0.013242 -0.004270 0.000000 0.000000 0.000000
# 3 -0.004270 -0.004270 0.034982 0.000000 0.000000 0.000000
# 4 0.000000 0.000000 0.000000 0.040641 0.000000 0.000000
# 5 0.000000 0.000000 0.000000 0.000000 0.040641 0.000000
# 6 0.000000 0.000000 0.000000 0.000000 0.000000 0.013280
#
#
# Mechanical properties :
#
#
# Convention : Reuss Voigt Hill
#
# Bulk Modulus (GPa) = 30.08071 45.38867 37.73469
# Shear Modulus (GPa) = 25.59777 34.99780 30.29779
#
# Velocity S-wave (km/s) = 3.29407 3.85170 3.58375
# Velocity P-wave (km/s) = 5.21719 6.24669 5.75501
#
# Compressibility (1/GPa) = 0.03324389
#
# Stress axis : x y z
#
# Youngs Moduli (GPa) = 75.52006 75.52006 28.58619
#
# Poissons Ratio (x) = 0.42076 0.12205
# Poissons Ratio (y) = 0.42076 0.12205
# Poissons Ratio (z) = 0.32243 0.32243
#
# Static dielectric constant tensor:
#      x y z
#    x 1.946960 0.000000 0.000000 
#    y 0.000000 1.946960 0.000000 
#    z 0.000000 0.000000 2.003410 
# 
# From -- ./inp_files/22298.got.cif
#   From: 2010.05.17/outbox.cif.g08.bks.cpg/sg91_12_cif.got.tgz:22298.got - 2010.06.03 19:20:03.
