data_PCOD9547248
_publ_section_title
;
Structure prediction by ZEFSAII (Michael W. Deem and Ramdas Pophale) SiO2 
 PCOD9547248
Probable space group: P 4 21 2
;
_chemical_formula_sum "Si O2"
_cell_formula_units_Z 58
_cell_length_a 16.815621
_cell_length_b 16.815621
_cell_length_c 8.144782
_cell_angle_alpha 90.000000
_cell_angle_beta 90.000000
_cell_angle_gamma 90.000000
_cell_volume 2303.060175
_symmetry_space_group_name_H-M "P 4 21 2"
_symmetry_group_IT_number 90
_symmetry_cell_setting 'tetragonal'
loop_
_space_group_symop_operation_xyz
x,y,z
1/2-y,1/2+x,z
-x,-y,z
1/2+y,1/2-x,z
1/2+x,1/2-y,-z
1/2-x,1/2+y,-z
y,x,-z
-y,-x,-z
loop_
_atom_site_type_symbol
_atom_site_label
_atom_site_fract_x
_atom_site_fract_y
_atom_site_fract_z
Si Si1 0.000000 0.500000 0.468251
Si Si2 0.668494 0.390093 0.178264
Si Si3 0.967878 0.809462 0.662634
Si Si4 0.176347 0.694183 0.168447
Si Si5 0.136476 0.592885 0.624013
Si Si6 0.183447 0.944907 0.987082
Si Si7 0.755181 0.112862 0.504814
Si Si8 0.940388 0.608959 0.993838
O O1 0.087847 0.543385 0.489538
O O2 0.595198 0.378705 0.304459
O O3 0.731958 0.318767 0.223329
O O4 0.688016 0.484026 0.148119
O O5 0.636343 0.363658 0.000000
O O6 0.920222 0.729926 0.612772
O O7 0.037355 0.810614 0.527833
O O8 0.014299 0.797646 0.837549
O O9 0.129640 0.757874 0.054452
O O10 0.124055 0.704415 0.330484
O O11 0.176418 0.612831 0.064899
O O12 0.114580 0.685342 0.628936
O O13 0.110807 0.557177 0.799181
O O14 0.096550 0.903450 0.000000
O O15 0.811235 0.188766 0.500000
O O16 0.897079 0.529222 0.054629
#
# Coordination Sequence:
#
# PCOD9547248 Si02
#       8
#     2   8   8   8   8   8   8   8
#     4  12  20  40  72 106 128 188 244 286 348 444
#     4  10  23  44  71 105 136 185 242 298 362 434
#     4  11  24  44  73  97 134 188 239 287 349 437
#     4  12  24  41  65 102 139 173 229 296 365 418
#     4  12  21  42  69  99 134 182 237 285 346 437
#     4  11  24  44  73 105 141 182 235 303 370 438
#     4  12  27  44  64  96 139 188 237 291 354 426
#     4  11  20  37  63 100 136 175 218 277 348 418
#
# _framework density 25.183883999999999
#
# number of rings (size 3 to 8) (size 9 to 14) (size 15 to 20)
#    0.000    0.690    2.759    6.207    0.000    4.690 
#    0.000    2.069    0.000    0.828    0.000    0.000 
#    0.000    0.000    0.000    0.000    0.000    0.000 
#
# Total GULP energy -323287.391571 kJ/mol
# GULP energy per Si atom -5573.920544 kJ/mol
# Density = 2.512656 g / cm^3
# Si number density = 25.183884 Si / 1000 Ang^3
#
#
#
# Elastic Constant Matrix: (Units=GPa)
#
#
# Indices 1 2 3 4 5 6 
#
# 1 101.6008 35.6196 -1.8701 0.0000 0.0000 0.0000
# 2 35.6196 101.5866 -1.8736 0.0000 0.0000 0.0000
# 3 -1.8701 -1.8736 49.9741 0.0000 0.0000 0.0000
# 4 0.0000 0.0000 0.0000 13.0844 0.0000 0.0000
# 5 0.0000 0.0000 0.0000 0.0000 13.0789 0.0000
# 6 0.0000 0.0000 0.0000 0.0000 0.0000 39.4807
#
#
#
# Elastic Compliance Matrix: (Units=1/GPa)
#
#
# Indices 1 2 3 4 5 6 
#
# 1 0.011226 -0.003931 0.000273 0.000000 0.000000 0.000000
# 2 -0.003931 0.011227 0.000274 0.000000 0.000000 0.000000
# 3 0.000273 0.000274 0.020031 0.000000 0.000000 0.000000
# 4 0.000000 0.000000 0.000000 0.076427 0.000000 0.000000
# 5 0.000000 0.000000 0.000000 0.000000 0.076459 0.000000
# 6 0.000000 0.000000 0.000000 0.000000 0.000000 0.025329
#
#
# Mechanical properties :
#
#
# Convention : Reuss Voigt Hill
#
# Bulk Modulus (GPa) = 27.99973 35.21260 31.60617
# Shear Modulus (GPa) = 20.88796 27.88116 24.38456
#
# Velocity S-wave (km/s) = 2.88309 3.33093 3.11506
# Velocity P-wave (km/s) = 4.71436 5.36712 5.05129
#
# Compressibility (1/GPa) = 0.03571463
#
# Stress axis : x y z
#
# Youngs Moduli (GPa) = 89.08188 89.06926 49.92301
#
# Poissons Ratio (x) = 0.35014 -0.01361
# Poissons Ratio (y) = 0.35018 -0.01367
# Poissons Ratio (z) = -0.02429 -0.02439
#
# Static dielectric constant tensor:
#      x y z
#    x 2.020320 0.000000 0.000000 
#    y 0.000000 2.020310 0.000000 
#    z 0.000000 0.000000 2.040400 
# 
# From -- ./inp_files/1654.got.cif
#   From: 2010.05.17/outbox.cif.g08.bks.cpg/sg90_1_cif.got.tgz:1654.got - 2010.06.03 19:17:45.
