data_PCOD9547934
_publ_section_title
;
Structure prediction by ZEFSAII (Michael W. Deem and Ramdas Pophale) SiO2 
 PCOD9547934
Probable space group: P 41 2 2
;
_chemical_formula_sum "Si O2"
_cell_formula_units_Z 40
_cell_length_a 8.948267
_cell_length_b 8.948267
_cell_length_c 23.821695
_cell_angle_alpha 90.000000
_cell_angle_beta 90.000000
_cell_angle_gamma 90.000000
_cell_volume 1907.438430
_symmetry_space_group_name_H-M "P 41 2 2"
_symmetry_group_IT_number 91
_symmetry_cell_setting 'tetragonal'
loop_
_space_group_symop_operation_xyz
x,y,z
-y,x,1/4+z
-x,-y,1/2+z
y,-x,3/4+z
x,-y,1/2-z
-x,y,-z
y,x,3/4-z
-y,-x,1/4-z
loop_
_atom_site_type_symbol
_atom_site_label
_atom_site_fract_x
_atom_site_fract_y
_atom_site_fract_z
Si Si1 0.162956 0.500000 0.250000
Si Si2 0.500000 0.341414 0.000000
Si Si3 0.905421 0.361458 0.173823
Si Si4 0.992716 0.935007 0.435015
Si Si5 0.403488 0.956691 0.813660
Si Si6 0.326351 0.585194 0.065208
O O1 0.268093 0.376515 0.280495
O O2 0.054448 0.422006 0.204845
O O3 0.571479 0.236206 0.046131
O O4 0.379526 0.447283 0.027947
O O5 0.903433 0.183923 0.179907
O O6 0.913447 0.411638 0.109556
O O7 0.022495 0.022495 0.375000
O O8 0.000000 0.996219 0.500000
O O9 0.083929 0.776329 0.433076
O O10 0.536657 0.842457 0.827816
O O11 0.426550 0.000000 0.750000
O O12 0.407352 0.592649 0.125000
#
# Coordination Sequence:
#
# PCOD9547934 Si02
#       6
#     4   4   8   8   8   8
#     4  10  22  40  62  88 136 174 214 270 340 402
#     4  10  22  34  62  94 120 172 224 272 320 398
#     4  10  20  39  61  91 130 170 219 270 328 394
#     4   9  18  33  59  87 120 163 214 268 322 389
#     4  10  20  37  63  93 126 168 215 276 325 395
#     4  11  22  39  63  95 133 174 219 279 344 395
#
# _framework density 20.970531000000001
#
# number of rings (size 3 to 8) (size 9 to 14) (size 15 to 20)
#    0.000    2.000    2.000    2.400    0.000    5.600 
#    0.000    2.000    4.400    0.000    0.000    0.000 
#    0.000    0.000    0.000    0.000    0.000    0.000 
#
# Total GULP energy -222792.525820 kJ/mol
# GULP energy per Si atom -5569.813146 kJ/mol
# Density = 2.092280 g / cm^3
# Si number density = 20.970531 Si / 1000 Ang^3
#
#
#
# Elastic Constant Matrix: (Units=GPa)
#
#
# Indices 1 2 3 4 5 6 
#
# 1 56.8161 27.9952 20.6412 0.0000 0.0000 0.0000
# 2 27.9952 56.8164 20.6410 0.0000 0.0000 0.0000
# 3 20.6412 20.6410 157.1530 0.0000 0.0000 0.0000
# 4 0.0000 0.0000 0.0000 10.0716 0.0000 0.0000
# 5 0.0000 0.0000 0.0000 0.0000 10.0708 0.0000
# 6 0.0000 0.0000 0.0000 0.0000 0.0000 31.3971
#
#
#
# Elastic Compliance Matrix: (Units=1/GPa)
#
#
# Indices 1 2 3 4 5 6 
#
# 1 0.023647 -0.011050 -0.001654 0.000000 0.000000 0.000000
# 2 -0.011050 0.023646 -0.001654 0.000000 0.000000 0.000000
# 3 -0.001654 -0.001654 0.006798 0.000000 0.000000 0.000000
# 4 0.000000 0.000000 0.000000 0.099289 0.000000 0.000000
# 5 0.000000 0.000000 0.000000 0.000000 0.099297 0.000000
# 6 0.000000 0.000000 0.000000 0.000000 0.000000 0.031850
#
#
# Mechanical properties :
#
#
# Convention : Reuss Voigt Hill
#
# Bulk Modulus (GPa) = 39.41285 45.48223 42.44754
# Shear Modulus (GPa) = 15.54229 23.74177 19.64203
#
# Velocity S-wave (km/s) = 2.72536 3.36839 3.06379
# Velocity P-wave (km/s) = 5.36084 6.07156 5.72724
#
# Compressibility (1/GPa) = 0.02537244
#
# Stress axis : x y z
#
# Youngs Moduli (GPa) = 42.28941 42.28971 147.10593
#
# Poissons Ratio (x) = 0.46732 0.24338
# Poissons Ratio (y) = 0.46731 0.24337
# Poissons Ratio (z) = 0.06997 0.06996
#
# Static dielectric constant tensor:
#      x y z
#    x 1.810720 0.000000 0.000000 
#    y 0.000000 1.810730 0.000000 
#    z 0.000000 0.000000 1.810160 
# 
# From -- ./inp_files/6843.got.cif
#   From: 2010.05.17/outbox.cif.g08.bks.cpg/sg91_4_cif.got.tgz:6843.got - 2010.06.03 19:20:03.
