data_PCOD9547986
_publ_section_title
;
Structure prediction by ZEFSAII (Michael W. Deem and Ramdas Pophale) SiO2 
 PCOD9547986
Probable space group: P 41 2 2
;
_chemical_formula_sum "Si O2"
_cell_formula_units_Z 56
_cell_length_a 14.910753
_cell_length_b 14.910753
_cell_length_c 12.497924
_cell_angle_alpha 90.000000
_cell_angle_beta 90.000000
_cell_angle_gamma 90.000000
_cell_volume 2778.670380
_symmetry_space_group_name_H-M "P 41 2 2"
_symmetry_group_IT_number 91
_symmetry_cell_setting 'tetragonal'
loop_
_space_group_symop_operation_xyz
x,y,z
-y,x,1/4+z
-x,-y,1/2+z
y,-x,3/4+z
x,-y,1/2-z
-x,y,-z
y,x,3/4-z
-y,-x,1/4-z
loop_
_atom_site_type_symbol
_atom_site_label
_atom_site_fract_x
_atom_site_fract_y
_atom_site_fract_z
Si Si1 0.678064 0.792110 0.634390
Si Si2 0.996006 0.773957 0.715501
Si Si3 0.390485 0.773999 0.811818
Si Si4 0.840589 0.913851 0.671945
Si Si5 0.837605 0.687082 0.354146
Si Si6 0.582901 0.730359 0.841984
Si Si7 0.402397 0.901325 0.000629
O O1 0.726090 0.699924 0.599469
O O2 0.748733 0.858919 0.691552
O O3 0.652917 0.833024 0.518601
O O4 0.606970 0.765918 0.723834
O O5 0.918871 0.840518 0.677819
O O6 0.954956 0.687225 0.775749
O O7 0.052036 0.830809 0.801182
O O8 0.064191 0.730149 0.630860
O O9 0.385327 0.804663 0.689252
O O10 0.476393 0.713292 0.840030
O O11 0.393618 0.864109 0.880956
O O12 0.852017 0.000000 0.750000
O O13 0.768540 0.768540 0.375000
O O14 0.648850 0.648850 0.875000
O O15 0.595089 0.813139 0.924257
O O16 0.500000 0.947871 0.000000
#
# Coordination Sequence:
#
# PCOD9547986 Si02
#       7
#     8   8   8   8   8   8   8
#     4  10  20  40  60  86 125 169 208 259 332 392
#     4  11  22  40  60  88 133 167 222 275 322 397
#     4  10  20  39  61  88 122 166 211 254 328 396
#     4  11  22  37  62  92 129 174 217 280 338 390
#     4   9  22  40  60  83 119 176 216 248 318 402
#     4  11  20  34  67  95 118 158 211 275 328 396
#     4  10  21  39  63  93 124 163 213 271 331 388
#
# _framework density 20.153524000000001
#
# number of rings (size 3 to 8) (size 9 to 14) (size 15 to 20)
#    0.000    1.714    2.857    1.286    0.000    2.286 
#    5.143    1.429    0.000    7.714    0.000    0.000 
#    0.000    0.000    0.000    0.000    0.000    0.000 
#
# Total GULP energy -312219.658183 kJ/mol
# GULP energy per Si atom -5575.351039 kJ/mol
# Density = 2.010765 g / cm^3
# Si number density = 20.153524 Si / 1000 Ang^3
#
#
#
# Elastic Constant Matrix: (Units=GPa)
#
#
# Indices 1 2 3 4 5 6 
#
# 1 77.0086 32.9964 28.7359 0.0000 0.0000 0.0000
# 2 32.9964 77.0086 28.7359 0.0000 0.0000 0.0000
# 3 28.7359 28.7359 68.0975 0.0000 0.0000 0.0000
# 4 0.0000 0.0000 0.0000 18.1707 0.0000 0.0000
# 5 0.0000 0.0000 0.0000 0.0000 18.1707 0.0000
# 6 0.0000 0.0000 0.0000 0.0000 0.0000 10.6829
#
#
#
# Elastic Compliance Matrix: (Units=1/GPa)
#
#
# Indices 1 2 3 4 5 6 
#
# 1 0.017191 -0.005530 -0.004921 0.000000 0.000000 0.000000
# 2 -0.005530 0.017191 -0.004921 0.000000 0.000000 0.000000
# 3 -0.004921 -0.004921 0.018838 0.000000 0.000000 0.000000
# 4 0.000000 0.000000 0.000000 0.055034 0.000000 0.000000
# 5 0.000000 0.000000 0.000000 0.000000 0.055034 0.000000
# 6 0.000000 0.000000 0.000000 0.000000 0.000000 0.093608
#
#
# Mechanical properties :
#
#
# Convention : Reuss Voigt Hill
#
# Bulk Modulus (GPa) = 44.48975 44.78347 44.63661
# Shear Modulus (GPa) = 16.94164 18.18128 17.56146
#
# Velocity S-wave (km/s) = 2.90251 3.00682 2.95512
# Velocity P-wave (km/s) = 5.77547 5.85867 5.81722
#
# Compressibility (1/GPa) = 0.02247709
#
# Stress axis : x y z
#
# Youngs Moduli (GPa) = 58.16927 58.16927 53.08447
#
# Poissons Ratio (x) = 0.32166 0.26122
# Poissons Ratio (y) = 0.32166 0.26122
# Poissons Ratio (z) = 0.28625 0.28625
#
# Static dielectric constant tensor:
#      x y z
#    x 1.741600 0.000000 0.000000 
#    y 0.000000 1.741600 0.000000 
#    z 0.000000 0.000000 1.752850 
# 
# From -- ./inp_files/3933.got.cif
#   From: 2010.05.17/outbox.cif.g08.bks.cpg/sg91_2_cif.got.tgz:3933.got - 2010.06.03 19:20:03.
