data_PCOD9547393
_publ_section_title
;
Structure prediction by ZEFSAII (Michael W. Deem and Ramdas Pophale) SiO2 
 PCOD9547393
Probable space group: P 4 21 2
;
_chemical_formula_sum "Si O2"
_cell_formula_units_Z 34
_cell_length_a 8.154929
_cell_length_b 8.154929
_cell_length_c 22.500379
_cell_angle_alpha 90.000000
_cell_angle_beta 90.000000
_cell_angle_gamma 90.000000
_cell_volume 1496.339712
_symmetry_space_group_name_H-M "P 4 21 2"
_symmetry_group_IT_number 90
_symmetry_cell_setting 'tetragonal'
loop_
_space_group_symop_operation_xyz
x,y,z
1/2-y,1/2+x,z
-x,-y,z
1/2+y,1/2-x,z
1/2+x,1/2-y,-z
1/2-x,1/2+y,-z
y,x,-z
-y,-x,-z
loop_
_atom_site_type_symbol
_atom_site_label
_atom_site_fract_x
_atom_site_fract_y
_atom_site_fract_z
Si Si1 0.764180 0.918877 0.372941
Si Si2 0.500000 0.500000 0.275022
Si Si3 0.195612 0.195612 0.500000
Si Si4 0.596006 0.739869 0.059348
Si Si5 0.238227 0.910860 0.822851
Si Si6 0.500000 0.000000 0.516146
O O1 0.604429 0.803471 0.369352
O O2 0.843198 0.887131 0.436753
O O3 0.887607 0.893194 0.318888
O O4 0.615073 0.607822 0.232226
O O5 0.388455 0.164961 0.512010
O O6 0.407562 0.796903 0.060124
O O7 0.645099 0.634751 0.116712
O O8 0.642256 0.642256 0.000000
O O9 0.400965 0.799594 0.820900
#
# Coordination Sequence:
#
# PCOD9547393 Si02
#       6
#     8   4   4   8   8   2
#     4  11  25  46  70 103 143 183 238 302 368 441
#     4  12  26  43  71  96 134 194 240 292 356 428
#     4  12  24  52  70 118 140 202 228 322 366 466
#     4  11  24  42  70 105 139 180 227 284 352 422
#     4  11  24  45  67  98 138 179 235 294 351 421
#     4  12  28  44  88 104 164 180 256 288 406 444
#
# _framework density 22.722114999999999
#
# number of rings (size 3 to 8) (size 9 to 14) (size 15 to 20)
#    0.000    0.706    2.353    4.235    3.294    5.176 
#    0.000    2.353    0.000    0.000    0.000    0.000 
#    0.000    0.000    0.000    0.000    0.000    0.000 
#
# Total GULP energy -189863.660478 kJ/mol
# GULP energy per Si atom -5584.225308 kJ/mol
# Density = 2.267040 g / cm^3
# Si number density = 22.722115 Si / 1000 Ang^3
#
#
#
# Elastic Constant Matrix: (Units=GPa)
#
#
# Indices 1 2 3 4 5 6 
#
# 1 84.1854 34.1903 53.0854 0.0000 0.0000 0.0000
# 2 34.1903 84.1854 53.0854 0.0000 0.0000 0.0000
# 3 53.0854 53.0854 214.0847 0.0000 0.0000 0.0000
# 4 0.0000 0.0000 0.0000 38.2271 0.0000 0.0000
# 5 0.0000 0.0000 0.0000 0.0000 38.2271 0.0000
# 6 0.0000 0.0000 0.0000 0.0000 0.0000 45.5162
#
#
#
# Elastic Compliance Matrix: (Units=1/GPa)
#
#
# Indices 1 2 3 4 5 6 
#
# 1 0.015433 -0.004569 -0.002694 0.000000 0.000000 0.000000
# 2 -0.004569 0.015433 -0.002694 0.000000 0.000000 0.000000
# 3 -0.002694 -0.002694 0.006007 0.000000 0.000000 0.000000
# 4 0.000000 0.000000 0.000000 0.026159 0.000000 0.000000
# 5 0.000000 0.000000 0.000000 0.000000 0.026159 0.000000
# 6 0.000000 0.000000 0.000000 0.000000 0.000000 0.021970
#
#
# Mechanical properties :
#
#
# Convention : Reuss Voigt Hill
#
# Bulk Modulus (GPa) = 58.96498 73.68639 66.32569
# Shear Modulus (GPa) = 36.56888 40.53373 38.55131
#
# Velocity S-wave (km/s) = 4.01608 4.22819 4.12350
# Velocity P-wave (km/s) = 6.89290 7.50577 7.20585
#
# Compressibility (1/GPa) = 0.01695922
#
# Stress axis : x y z
#
# Youngs Moduli (GPa) = 64.79685 64.79684 166.47265
#
# Poissons Ratio (x) = 0.29606 0.44845
# Poissons Ratio (y) = 0.29606 0.44845
# Poissons Ratio (z) = 0.17455 0.17455
#
# Static dielectric constant tensor:
#      x y z
#    x 1.868450 0.000000 0.000000 
#    y 0.000000 1.868450 0.000000 
#    z 0.000000 0.000000 1.807710 
# 
# From -- ./inp_files/2765.got.cif
#   From: 2010.05.17/outbox.cif.g08.bks.cpg/sg90_2_cif.got.tgz:2765.got - 2010.06.03 19:17:45.
