data_PCOD9547616
_publ_section_title
;
Structure prediction by ZEFSAII (Michael W. Deem and Ramdas Pophale) SiO2 
 PCOD9547616
Probable space group: P 41 2 2
;
_chemical_formula_sum "Si O2"
_cell_formula_units_Z 48
_cell_length_a 13.146631
_cell_length_b 13.146631
_cell_length_c 15.986355
_cell_angle_alpha 90.000000
_cell_angle_beta 90.000000
_cell_angle_gamma 90.000000
_cell_volume 2762.984188
_symmetry_space_group_name_H-M "P 41 2 2"
_symmetry_group_IT_number 91
_symmetry_cell_setting 'tetragonal'
loop_
_space_group_symop_operation_xyz
x,y,z
-y,x,1/4+z
-x,-y,1/2+z
y,-x,3/4+z
x,-y,1/2-z
-x,y,-z
y,x,3/4-z
-y,-x,1/4-z
loop_
_atom_site_type_symbol
_atom_site_label
_atom_site_fract_x
_atom_site_fract_y
_atom_site_fract_z
Si Si1 0.955817 0.383945 0.857578
Si Si2 0.083421 0.205144 0.942387
Si Si3 0.093081 0.500000 0.750000
Si Si4 0.801125 0.407592 0.408607
Si Si5 0.452344 0.000000 0.250000
Si Si6 0.457635 0.385614 0.784987
Si Si7 0.240378 0.690827 0.430456
O O1 0.972533 0.477153 0.921146
O O2 0.836376 0.361764 0.864627
O O3 0.017204 0.290897 0.896882
O O4 0.014250 0.409887 0.772305
O O5 0.134695 0.134695 0.875000
O O6 0.169640 0.262545 0.996669
O O7 0.000000 0.149878 0.000000
O O8 0.162825 0.520808 0.830771
O O9 0.697203 0.452838 0.448437
O O10 0.777826 0.300470 0.367096
O O11 0.895333 0.399566 0.472292
O O12 0.482992 0.500000 0.750000
O O13 0.404880 0.404880 0.875000
O O14 0.382479 0.325084 0.722061
#
# Coordination Sequence:
#
# PCOD9547616 Si02
#       7
#     8   8   4   8   4   8   8
#     4  10  18  35  56  83 110 146 190 248 296 340
#     4  10  19  33  58  86 110 137 181 242 307 347
#     4  10  20  34  58  86 106 148 210 252 278 340
#     4  11  21  35  58  82 117 156 197 250 284 351
#     4  10  18  36  56  80 112 156 200 236 290 338
#     4  12  22  35  53  86 124 157 194 233 297 357
#     4  11  19  34  56  82 116 150 190 243 293 346
#
# _framework density 17.372520999999999
#
# number of rings (size 3 to 8) (size 9 to 14) (size 15 to 20)
#    0.000    1.333    5.833    3.500    0.000    0.000 
#    1.500    0.000    7.333    0.000    0.000    0.000 
#    0.000    0.000    0.000    0.000    0.000    0.000 
#
# Total GULP energy -267346.706219 kJ/mol
# GULP energy per Si atom -5569.723046 kJ/mol
# Density = 1.733298 g / cm^3
# Si number density = 17.372521 Si / 1000 Ang^3
#
#
#
# Elastic Constant Matrix: (Units=GPa)
#
#
# Indices 1 2 3 4 5 6 
#
# 1 85.0961 33.9588 27.8803 0.0000 0.0000 0.0000
# 2 33.9588 85.0961 27.8803 0.0000 0.0000 0.0000
# 3 27.8803 27.8803 47.3883 0.0000 0.0000 0.0000
# 4 0.0000 0.0000 0.0000 31.7950 0.0000 0.0000
# 5 0.0000 0.0000 0.0000 0.0000 31.7950 0.0000
# 6 0.0000 0.0000 0.0000 0.0000 0.0000 26.7351
#
#
#
# Elastic Compliance Matrix: (Units=1/GPa)
#
#
# Indices 1 2 3 4 5 6 
#
# 1 0.015575 -0.003980 -0.006821 0.000000 0.000000 0.000000
# 2 -0.003980 0.015575 -0.006821 0.000000 0.000000 0.000000
# 3 -0.006821 -0.006821 0.029129 0.000000 0.000000 0.000000
# 4 0.000000 0.000000 0.000000 0.031452 0.000000 0.000000
# 5 0.000000 0.000000 0.000000 0.000000 0.031452 0.000000
# 6 0.000000 0.000000 0.000000 0.000000 0.000000 0.037404
#
#
# Mechanical properties :
#
#
# Convention : Reuss Voigt Hill
#
# Bulk Modulus (GPa) = 39.94896 44.11327 42.03112
# Shear Modulus (GPa) = 24.48869 26.58908 25.53888
#
# Velocity S-wave (km/s) = 3.75857 3.91644 3.83831
# Velocity P-wave (km/s) = 6.47157 6.77488 6.62496
#
# Compressibility (1/GPa) = 0.02503194
#
# Stress axis : x y z
#
# Youngs Moduli (GPa) = 64.20635 64.20635 34.33024
#
# Poissons Ratio (x) = 0.25557 0.23418
# Poissons Ratio (y) = 0.25557 0.23418
# Poissons Ratio (z) = 0.43798 0.43798
#
# Static dielectric constant tensor:
#      x y z
#    x 1.614410 0.000000 0.000000 
#    y 0.000000 1.614410 0.000000 
#    z 0.000000 0.000000 1.632600 
# 
# From -- ./inp_files/16936.got.cif
#   From: 2010.05.17/outbox.cif.g08.bks.cpg/sg91_9_cif.got.tgz:16936.got - 2010.06.03 19:20:03.
