data_PCOD9547504
_publ_section_title
;
Structure prediction by ZEFSAII (Michael W. Deem and Ramdas Pophale) SiO2 
 PCOD9547504
Probable space group: P 41 2 2
;
_chemical_formula_sum "Si O2"
_cell_formula_units_Z 36
_cell_length_a 12.103965
_cell_length_b 12.103965
_cell_length_c 13.380380
_cell_angle_alpha 90.000000
_cell_angle_beta 90.000000
_cell_angle_gamma 90.000000
_cell_volume 1960.305534
_symmetry_space_group_name_H-M "P 41 2 2"
_symmetry_group_IT_number 91
_symmetry_cell_setting 'tetragonal'
loop_
_space_group_symop_operation_xyz
x,y,z
-y,x,1/4+z
-x,-y,1/2+z
y,-x,3/4+z
x,-y,1/2-z
-x,y,-z
y,x,3/4-z
-y,-x,1/4-z
loop_
_atom_site_type_symbol
_atom_site_label
_atom_site_fract_x
_atom_site_fract_y
_atom_site_fract_z
Si Si1 0.054235 0.719335 0.749273
Si Si2 0.500000 0.914043 0.000000
Si Si3 0.564061 0.874196 0.216332
Si Si4 0.092114 0.817797 0.420941
Si Si5 0.420502 0.751329 0.594595
O O1 0.102931 0.802131 0.831577
O O2 0.157618 0.672014 0.685898
O O3 0.989013 0.607282 0.774430
O O4 0.972606 0.791228 0.680257
O O5 0.476461 0.851942 0.896105
O O6 0.697454 0.867655 0.209941
O O7 0.521788 0.797857 0.305512
O O8 0.539335 0.000000 0.250000
O O9 0.000000 0.858725 0.500000
O O10 0.500000 0.740274 0.500000
O O11 0.360363 0.639638 0.625000
#
# Coordination Sequence:
#
# PCOD9547504 Si02
#       5
#     8   4   8   8   8
#     4  11  18  33  55  92 118 159 205 249 300 358
#     4  10  20  32  56  92 122 154 206 254 290 352
#     4  10  17  31  54  87 113 145 193 252 288 333
#     4  10  17  28  53  83 120 147 196 248 290 351
#     4  12  21  35  62  89 112 147 203 260 305 357
#
# _framework density 18.364483
#
# number of rings (size 3 to 8) (size 9 to 14) (size 15 to 20)
#    0.000    1.333   10.000    0.667    0.000    0.000 
#    0.000    0.000    2.444   14.667    0.000    0.000 
#    0.000    0.000    0.000    0.000    0.000    0.000 
#
# Total GULP energy -200627.686848 kJ/mol
# GULP energy per Si atom -5572.991301 kJ/mol
# Density = 1.832268 g / cm^3
# Si number density = 18.364483 Si / 1000 Ang^3
#
#
#
# Elastic Constant Matrix: (Units=GPa)
#
#
# Indices 1 2 3 4 5 6 
#
# 1 62.0262 45.8598 49.9163 0.0000 0.0000 0.0000
# 2 45.8598 62.0269 49.9160 0.0000 0.0000 0.0000
# 3 49.9163 49.9160 130.6311 0.0000 0.0000 0.0000
# 4 0.0000 0.0000 0.0000 26.9171 0.0000 0.0000
# 5 0.0000 0.0000 0.0000 0.0000 26.9169 0.0000
# 6 0.0000 0.0000 0.0000 0.0000 0.0000 17.0997
#
#
#
# Elastic Compliance Matrix: (Units=1/GPa)
#
#
# Indices 1 2 3 4 5 6 
#
# 1 0.038098 -0.023758 -0.005479 0.000000 0.000000 0.000000
# 2 -0.023758 0.038097 -0.005479 0.000000 0.000000 0.000000
# 3 -0.005479 -0.005479 0.011843 0.000000 0.000000 0.000000
# 4 0.000000 0.000000 0.000000 0.037151 0.000000 0.000000
# 5 0.000000 0.000000 0.000000 0.000000 0.037151 0.000000
# 6 0.000000 0.000000 0.000000 0.000000 0.000000 0.058481
#
#
# Mechanical properties :
#
#
# Convention : Reuss Voigt Hill
#
# Bulk Modulus (GPa) = 53.75183 60.67428 57.21306
# Shear Modulus (GPa) = 16.86598 21.45289 19.15943
#
# Velocity S-wave (km/s) = 3.03380 3.42156 3.23350
# Velocity P-wave (km/s) = 6.45019 6.97998 6.72031
#
# Compressibility (1/GPa) = 0.01860402
#
# Stress axis : x y z
#
# Youngs Moduli (GPa) = 26.24830 26.24881 84.44139
#
# Poissons Ratio (x) = 0.62362 0.46269
# Poissons Ratio (y) = 0.62361 0.46266
# Poissons Ratio (z) = 0.14383 0.14382
#
# Static dielectric constant tensor:
#      x y z
#    x 1.649990 0.000000 0.000000 
#    y 0.000000 1.649990 0.000000 
#    z 0.000000 0.000000 1.673670 
# 
# From -- ./inp_files/11244.got.cif
#   From: 2010.05.17/outbox.cif.g08.bks.cpg/sg91_6_cif.got.tgz:11244.got - 2010.06.03 19:20:03.
