data_PCOD9547136
_publ_section_title
;
Structure prediction by ZEFSAII (Michael W. Deem and Ramdas Pophale) SiO2 
 PCOD9547136
Probable space group: P 4 21 2
;
_chemical_formula_sum "Si O2"
_cell_formula_units_Z 56
_cell_length_a 15.856577
_cell_length_b 15.856577
_cell_length_c 10.315816
_cell_angle_alpha 90.000000
_cell_angle_beta 90.000000
_cell_angle_gamma 90.000000
_cell_volume 2593.716285
_symmetry_space_group_name_H-M "P 4 21 2"
_symmetry_group_IT_number 90
_symmetry_cell_setting 'tetragonal'
loop_
_space_group_symop_operation_xyz
x,y,z
1/2-y,1/2+x,z
-x,-y,z
1/2+y,1/2-x,z
1/2+x,1/2-y,-z
1/2-x,1/2+y,-z
y,x,-z
-y,-x,-z
loop_
_atom_site_type_symbol
_atom_site_label
_atom_site_fract_x
_atom_site_fract_y
_atom_site_fract_z
Si Si1 0.128279 0.990399 0.759900
Si Si2 0.521506 0.743475 0.517043
Si Si3 0.391867 0.079830 0.951578
Si Si4 0.336981 0.805332 0.479945
Si Si5 0.085477 0.394602 0.737435
Si Si6 0.425829 0.715107 0.987005
Si Si7 0.649767 0.491430 0.754649
O O1 0.187437 0.005629 0.882340
O O2 0.083492 0.081392 0.734502
O O3 0.174691 0.967347 0.628707
O O4 0.065226 0.914763 0.794477
O O5 0.429151 0.785283 0.538664
O O6 0.604785 0.801075 0.526601
O O7 0.514885 0.697112 0.377433
O O8 0.481861 0.113367 0.906939
O O9 0.299823 0.116594 0.931218
O O10 0.397661 0.085112 0.108091
O O11 0.269938 0.730063 0.500000
O O12 0.357177 0.823928 0.327876
O O13 0.113926 0.488243 0.693673
O O14 0.356870 0.643131 0.000000
O O15 0.469243 0.714748 0.129425
#
# Coordination Sequence:
#
# PCOD9547136 Si02
#       7
#     8   8   8   8   8   8   8
#     4  10  21  40  62  92 130 171 209 259 334 397
#     4  12  25  42  62  93 131 170 219 271 325 390
#     4   9  19  37  63  90 118 162 212 259 311 375
#     4  12  24  38  62  93 128 167 212 271 330 386
#     4   9  17  35  63  92 120 157 213 273 318 363
#     4  10  21  38  62  96 130 160 207 269 326 385
#     4  10  20  39  68  91 122 168 220 272 316 377
#
# _framework density 21.590641999999999
#
# number of rings (size 3 to 8) (size 9 to 14) (size 15 to 20)
#    0.000    1.714    1.429    4.714    2.000    4.286 
#    2.571    1.429    0.000    0.000    0.000    0.000 
#    0.000    0.000    0.000    0.000    0.000    0.000 
#
# Total GULP energy -312397.591162 kJ/mol
# GULP energy per Si atom -5578.528414 kJ/mol
# Density = 2.154150 g / cm^3
# Si number density = 21.590642 Si / 1000 Ang^3
#
#
#
# Elastic Constant Matrix: (Units=GPa)
#
#
# Indices 1 2 3 4 5 6 
#
# 1 84.5162 22.0766 2.3958 0.0000 0.0000 0.0000
# 2 22.0766 84.5188 2.3953 0.0000 0.0000 0.0000
# 3 2.3958 2.3953 41.5817 0.0000 0.0000 0.0000
# 4 0.0000 0.0000 0.0000 6.5145 0.0000 0.0000
# 5 0.0000 0.0000 0.0000 0.0000 6.5131 0.0000
# 6 0.0000 0.0000 0.0000 0.0000 0.0000 28.6931
#
#
#
# Elastic Compliance Matrix: (Units=1/GPa)
#
#
# Indices 1 2 3 4 5 6 
#
# 1 0.012711 -0.003305 -0.000542 0.000000 0.000000 0.000000
# 2 -0.003305 0.012710 -0.000542 0.000000 0.000000 0.000000
# 3 -0.000542 -0.000542 0.024111 0.000000 0.000000 0.000000
# 4 0.000000 0.000000 0.000000 0.153504 0.000000 0.000000
# 5 0.000000 0.000000 0.000000 0.000000 0.153537 0.000000
# 6 0.000000 0.000000 0.000000 0.000000 0.000000 0.034852
#
#
# Mechanical properties :
#
#
# Convention : Reuss Voigt Hill
#
# Bulk Modulus (GPa) = 24.53660 29.37247 26.95453
# Shear Modulus (GPa) = 12.08351 20.59406 16.33878
#
# Velocity S-wave (km/s) = 2.36829 3.09178 2.75390
# Velocity P-wave (km/s) = 4.34368 5.13608 4.75641
#
# Compressibility (1/GPa) = 0.04075544
#
# Stress axis : x y z
#
# Youngs Moduli (GPa) = 78.67419 78.67672 41.47406
#
# Poissons Ratio (x) = 0.26000 0.02248
# Poissons Ratio (y) = 0.26000 0.02247
# Poissons Ratio (z) = 0.04264 0.04262
#
# Static dielectric constant tensor:
#      x y z
#    x 1.812290 0.000000 0.000000 
#    y 0.000000 1.812290 0.000000 
#    z 0.000000 0.000000 1.793850 
# 
# From -- ./inp_files/2249.got.cif
#   From: 2010.05.17/outbox.cif.g08.bks.cpg/sg90_2_cif.got.tgz:2249.got - 2010.06.03 19:17:45.
