data_PCOD9547183
_publ_section_title
;
Structure prediction by ZEFSAII (Michael W. Deem and Ramdas Pophale) SiO2 
 PCOD9547183
Probable space group: P 4 21 2
;
_chemical_formula_sum "Si O2"
_cell_formula_units_Z 48
_cell_length_a 8.534948
_cell_length_b 8.534948
_cell_length_c 34.546874
_cell_angle_alpha 90.000000
_cell_angle_beta 90.000000
_cell_angle_gamma 90.000000
_cell_volume 2516.578691
_symmetry_space_group_name_H-M "P 4 21 2"
_symmetry_group_IT_number 90
_symmetry_cell_setting 'tetragonal'
loop_
_space_group_symop_operation_xyz
x,y,z
1/2-y,1/2+x,z
-x,-y,z
1/2+y,1/2-x,z
1/2+x,1/2-y,-z
1/2-x,1/2+y,-z
y,x,-z
-y,-x,-z
loop_
_atom_site_type_symbol
_atom_site_label
_atom_site_fract_x
_atom_site_fract_y
_atom_site_fract_z
Si Si1 0.000000 0.000000 0.733936
Si Si2 0.744395 0.429310 0.202992
Si Si3 0.077537 0.246045 0.118660
Si Si4 0.000000 0.000000 0.400543
Si Si5 0.036039 0.758464 0.668468
Si Si6 0.753948 0.919422 0.965911
Si Si7 0.760257 0.046772 0.530650
O O1 0.124440 0.082933 0.762079
O O2 0.932426 0.127323 0.704423
O O3 0.815322 0.605555 0.205181
O O4 0.667901 0.401263 0.160492
O O5 0.186698 0.400748 0.118675
O O6 0.103845 0.170219 0.076801
O O7 0.145304 0.980545 0.371254
O O8 0.022879 0.851887 0.428968
O O9 0.169475 0.628737 0.670548
O O10 0.596977 0.811054 0.968554
O O11 0.868117 0.868117 0.000000
O O12 0.619848 0.173062 0.526504
O O13 0.887050 0.112951 0.500000
#
# Coordination Sequence:
#
# PCOD9547183 Si02
#       7
#     4   8   8   4   8   8   8
#     4  11  20  32  53  80 104 128 167 216 264 319
#     4   9  17  31  51  73  97 127 164 206 252 305
#     4   7  12  26  46  65  88 120 157 196 240 292
#     4  11  21  38  61  84 110 148 203 244 273 323
#     4  10  22  38  55  77 109 146 179 219 275 334
#     4   9  17  30  47  67  93 125 160 200 245 294
#     4  11  23  39  61  90 125 161 199 248 300 349
#
# _framework density 19.073512999999998
#
# number of rings (size 3 to 8) (size 9 to 14) (size 15 to 20)
#    0.000    2.500    0.000    5.250    0.000    0.333 
#    0.000    6.667    0.000    8.000    0.000    2.333 
#    0.000    0.000    0.000    0.000    0.000    0.000 
#
# Total GULP energy -267237.793415 kJ/mol
# GULP energy per Si atom -5567.454029 kJ/mol
# Density = 1.903010 g / cm^3
# Si number density = 19.073513 Si / 1000 Ang^3
#
#
#
# Elastic Constant Matrix: (Units=GPa)
#
#
# Indices 1 2 3 4 5 6 
#
# 1 48.9749 -2.8708 29.4875 0.0000 0.0000 0.0000
# 2 -2.8708 48.9751 29.4872 0.0000 0.0000 0.0000
# 3 29.4875 29.4872 149.0191 0.0000 0.0000 0.0000
# 4 0.0000 0.0000 0.0000 13.3128 0.0000 0.0000
# 5 0.0000 0.0000 0.0000 0.0000 13.3134 0.0000
# 6 0.0000 0.0000 0.0000 0.0000 0.0000 30.6230
#
#
#
# Elastic Compliance Matrix: (Units=1/GPa)
#
#
# Indices 1 2 3 4 5 6 
#
# 1 0.024164 0.004876 -0.005746 0.000000 0.000000 0.000000
# 2 0.004876 0.024164 -0.005746 0.000000 0.000000 0.000000
# 3 -0.005746 -0.005746 0.008985 0.000000 0.000000 0.000000
# 4 0.000000 0.000000 0.000000 0.075116 0.000000 0.000000
# 5 0.000000 0.000000 0.000000 0.000000 0.075112 0.000000
# 6 0.000000 0.000000 0.000000 0.000000 0.000000 0.032655
#
#
# Mechanical properties :
#
#
# Convention : Reuss Voigt Hill
#
# Bulk Modulus (GPa) = 22.68591 39.90853 31.29722
# Shear Modulus (GPa) = 18.64818 24.17421 21.41120
#
# Velocity S-wave (km/s) = 3.13021 3.56395 3.35410
# Velocity P-wave (km/s) = 4.99841 6.15667 5.60753
#
# Compressibility (1/GPa) = 0.04408022
#
# Stress axis : x y z
#
# Youngs Moduli (GPa) = 41.38319 41.38350 111.30004
#
# Poissons Ratio (x) = -0.20180 0.63958
# Poissons Ratio (y) = -0.20180 0.63958
# Poissons Ratio (z) = 0.23781 0.23781
#
# Static dielectric constant tensor:
#      x y z
#    x 1.821500 0.000000 0.000000 
#    y 0.000000 1.821390 0.000000 
#    z 0.000000 0.000000 1.682120 
# 
# From -- ./inp_files/3075.got.cif
#   From: 2010.05.17/outbox.cif.g08.bks.cpg/sg90_2_cif.got.tgz:3075.got - 2010.06.03 19:17:45.
