data_PCOD9547485
_publ_section_title
;
Structure prediction by ZEFSAII (Michael W. Deem and Ramdas Pophale) SiO2 
 PCOD9547485
Probable space group: P 41 2 2
;
_chemical_formula_sum "Si O2"
_cell_formula_units_Z 32
_cell_length_a 7.330678
_cell_length_b 7.330678
_cell_length_c 24.715633
_cell_angle_alpha 90.000000
_cell_angle_beta 90.000000
_cell_angle_gamma 90.000000
_cell_volume 1328.189446
_symmetry_space_group_name_H-M "P 41 2 2"
_symmetry_group_IT_number 91
_symmetry_cell_setting 'tetragonal'
loop_
_space_group_symop_operation_xyz
x,y,z
-y,x,1/4+z
-x,-y,1/2+z
y,-x,3/4+z
x,-y,1/2-z
-x,y,-z
y,x,3/4-z
-y,-x,1/4-z
loop_
_atom_site_type_symbol
_atom_site_label
_atom_site_fract_x
_atom_site_fract_y
_atom_site_fract_z
Si Si1 0.920220 0.777030 0.617843
Si Si2 0.715742 0.376619 0.070338
Si Si3 0.907922 0.779750 0.235309
Si Si4 0.273858 0.211156 0.233085
O O1 0.819253 0.758778 0.674370
O O2 0.076399 0.639127 0.595310
O O3 0.774454 0.799205 0.570080
O O4 0.035303 0.964698 0.625000
O O5 0.601430 0.398571 0.125000
O O6 0.702027 0.531522 0.025715
O O7 0.688339 0.191881 0.036003
O O8 0.115631 0.717451 0.227602
O O9 0.912921 0.000000 0.250000
O O10 0.303720 0.000000 0.250000
#
# Coordination Sequence:
#
# PCOD9547485 Si02
#       4
#     8   8   8   8
#     4  10  16  31  51  80 117 139 180 237 263 327
#     4  10  19  33  53  85 114 142 188 231 275 334
#     4   9  16  30  50  80 116 137 183 232 266 333
#     4  11  18  29  58  88 106 152 191 221 290 337
#
# _framework density 24.092952
#
# number of rings (size 3 to 8) (size 9 to 14) (size 15 to 20)
#    0.000    2.000   10.000    2.250    0.000    0.000 
#    0.000    1.250    0.000    1.500   13.000    0.000 
#    0.000    0.000    0.000    0.000    0.000    0.000 
#
# Total GULP energy -178428.290900 kJ/mol
# GULP energy per Si atom -5575.884091 kJ/mol
# Density = 2.403812 g / cm^3
# Si number density = 24.092952 Si / 1000 Ang^3
#
#
#
# Elastic Constant Matrix: (Units=GPa)
#
#
# Indices 1 2 3 4 5 6 
#
# 1 68.5870 2.6184 2.8376 0.0000 0.0000 0.0000
# 2 2.6184 68.5866 2.8376 0.0000 0.0000 0.0000
# 3 2.8376 2.8376 71.3438 0.0000 0.0000 0.0000
# 4 0.0000 0.0000 0.0000 27.0264 0.0000 0.0000
# 5 0.0000 0.0000 0.0000 0.0000 27.0265 0.0000
# 6 0.0000 0.0000 0.0000 0.0000 0.0000 -0.7090
#
#
#
# Elastic Compliance Matrix: (Units=1/GPa)
#
#
# Indices 1 2 3 4 5 6 
#
# 1 0.014624 -0.000535 -0.000560 0.000000 0.000000 0.000000
# 2 -0.000535 0.014624 -0.000560 0.000000 0.000000 0.000000
# 3 -0.000560 -0.000560 0.014061 0.000000 0.000000 0.000000
# 4 0.000000 0.000000 0.000000 0.037001 0.000000 0.000000
# 5 0.000000 0.000000 0.000000 0.000000 0.037001 0.000000
# 6 0.000000 0.000000 0.000000 0.000000 0.000000 -1.410494
#
#
# Mechanical properties :
#
#
# Convention : Reuss Voigt Hill
#
# Bulk Modulus (GPa) = 25.00190 25.01162 25.00676
# Shear Modulus (GPa) = -3.91684 24.01704 10.05010
#
# Velocity S-wave (km/s) = -1.27642 3.16072 2.04461
# Velocity P-wave (km/s) = 2.86836 4.87073 3.99697
#
# Compressibility (1/GPa) = 0.03999696
#
# Stress axis : x y z
#
# Youngs Moduli (GPa) = 68.38243 68.38205 71.11760
#
# Poissons Ratio (x) = 0.03659 0.03985
# Poissons Ratio (y) = 0.03659 0.03985
# Poissons Ratio (z) = 0.03832 0.03832
#
# Static dielectric constant tensor:
#      x y z
#    x 2.010180 0.000000 0.000000 
#    y 0.000000 2.010180 0.000000 
#    z 0.000000 0.000000 1.950870 
# 
# From -- ./inp_files/7156.got.cif
#   From: 2010.05.17/outbox.cif.g08.bks.cpg/sg91_4_cif.got.tgz:7156.got - 2010.06.03 19:20:03.
