data_PCOD9547107
_publ_section_title
;
Structure prediction by ZEFSAII (Michael W. Deem and Ramdas Pophale) SiO2 
 PCOD9547107
Probable space group: P 4 21 2
;
_chemical_formula_sum "Si O2"
_cell_formula_units_Z 40
_cell_length_a 14.063723
_cell_length_b 14.063723
_cell_length_c 8.867772
_cell_angle_alpha 90.000000
_cell_angle_beta 90.000000
_cell_angle_gamma 90.000000
_cell_volume 1753.941590
_symmetry_space_group_name_H-M "P 4 21 2"
_symmetry_group_IT_number 90
_symmetry_cell_setting 'tetragonal'
loop_
_space_group_symop_operation_xyz
x,y,z
1/2-y,1/2+x,z
-x,-y,z
1/2+y,1/2-x,z
1/2+x,1/2-y,-z
1/2-x,1/2+y,-z
y,x,-z
-y,-x,-z
loop_
_atom_site_type_symbol
_atom_site_label
_atom_site_fract_x
_atom_site_fract_y
_atom_site_fract_z
Si Si1 0.111202 0.194400 0.653224
Si Si2 0.128311 0.589664 0.473960
Si Si3 0.716268 0.582970 0.085251
Si Si4 0.877893 0.721726 0.148053
Si Si5 0.433558 0.411348 0.323113
O O1 0.131155 0.131155 0.500000
O O2 0.133472 0.298568 0.592149
O O3 0.180039 0.164598 0.787944
O O4 0.002411 0.178464 0.701948
O O5 0.127410 0.476690 0.496316
O O6 0.162817 0.603449 0.302470
O O7 0.801738 0.657033 0.061746
O O8 0.754199 0.476318 0.064620
O O9 0.671011 0.586222 0.252857
O O10 0.623302 0.623302 0.000000
O O11 0.500000 0.500000 0.270448
O O12 0.419839 0.419839 0.500000
#
# Coordination Sequence:
#
# PCOD9547107 Si02
#       5
#     8   8   8   8   8
#     4  10  20  35  61  99 138 173 220 282 333 413
#     4  10  20  35  63 101 142 186 225 277 350 429
#     4  12  28  45  70  99 131 187 235 294 355 428
#     4  11  23  44  65  97 135 183 238 286 354 419
#     4  11  20  40  67 100 138 172 219 283 351 401
#
# _framework density 22.805775000000001
#
# number of rings (size 3 to 8) (size 9 to 14) (size 15 to 20)
#    0.000    1.200    6.000    1.200    2.800    3.200 
#    0.000    0.000    0.000    0.000    0.000    0.000 
#    0.000    0.000    0.000    0.000    0.000    0.000 
#
# Total GULP energy -223567.007676 kJ/mol
# GULP energy per Si atom -5589.175192 kJ/mol
# Density = 2.275387 g / cm^3
# Si number density = 22.805775 Si / 1000 Ang^3
#
#
#
# Elastic Constant Matrix: (Units=GPa)
#
#
# Indices 1 2 3 4 5 6 
#
# 1 59.3151 52.0061 16.8488 0.0000 0.0000 0.0000
# 2 52.0061 59.3151 16.8488 0.0000 0.0000 0.0000
# 3 16.8488 16.8488 21.0550 0.0000 0.0000 0.0000
# 4 0.0000 0.0000 0.0000 21.9871 0.0000 0.0000
# 5 0.0000 0.0000 0.0000 0.0000 21.9871 0.0000
# 6 0.0000 0.0000 0.0000 0.0000 0.0000 24.5032
#
#
#
# Elastic Compliance Matrix: (Units=1/GPa)
#
#
# Indices 1 2 3 4 5 6 
#
# 1 0.074336 -0.062482 -0.009486 0.000000 0.000000 0.000000
# 2 -0.062482 0.074336 -0.009486 0.000000 0.000000 0.000000
# 3 -0.009486 -0.009486 0.062677 0.000000 0.000000 0.000000
# 4 0.000000 0.000000 0.000000 0.045481 0.000000 0.000000
# 5 0.000000 0.000000 0.000000 0.000000 0.045481 0.000000
# 6 0.000000 0.000000 0.000000 0.000000 0.000000 0.040811
#
#
# Mechanical properties :
#
#
# Convention : Reuss Voigt Hill
#
# Bulk Modulus (GPa) = 20.64375 34.56585 27.60480
# Shear Modulus (GPa) = 9.57525 17.29425 13.43475
#
# Velocity S-wave (km/s) = 2.05127 2.75676 2.42976
# Velocity P-wave (km/s) = 3.83170 5.03215 4.47238
#
# Compressibility (1/GPa) = 0.04844080
#
# Stress axis : x y z
#
# Youngs Moduli (GPa) = 13.45235 13.45235 15.95480
#
# Poissons Ratio (x) = 0.84053 0.15135
# Poissons Ratio (y) = 0.84053 0.15135
# Poissons Ratio (z) = 0.12761 0.12761
#
# Static dielectric constant tensor:
#      x y z
#    x 1.852940 0.000000 0.000000 
#    y 0.000000 1.852940 0.000000 
#    z 0.000000 0.000000 1.917340 
# 
# From -- ./inp_files/1302.got.cif
#   From: 2010.05.17/outbox.cif.g08.bks.cpg/sg90_1_cif.got.tgz:1302.got - 2010.06.03 19:17:45.
