data_PCOD9547139
_publ_section_title
;
Structure prediction by ZEFSAII (Michael W. Deem and Ramdas Pophale) SiO2 
 PCOD9547139
Probable space group: P 4 21 2
;
_chemical_formula_sum "Si O2"
_cell_formula_units_Z 56
_cell_length_a 11.034491
_cell_length_b 11.034491
_cell_length_c 21.467381
_cell_angle_alpha 90.000000
_cell_angle_beta 90.000000
_cell_angle_gamma 90.000000
_cell_volume 2613.868131
_symmetry_space_group_name_H-M "P 4 21 2"
_symmetry_group_IT_number 90
_symmetry_cell_setting 'tetragonal'
loop_
_space_group_symop_operation_xyz
x,y,z
1/2-y,1/2+x,z
-x,-y,z
1/2+y,1/2-x,z
1/2+x,1/2-y,-z
1/2-x,1/2+y,-z
y,x,-z
-y,-x,-z
loop_
_atom_site_type_symbol
_atom_site_label
_atom_site_fract_x
_atom_site_fract_y
_atom_site_fract_z
Si Si1 0.057699 0.305025 0.171407
Si Si2 0.993237 0.197590 0.513781
Si Si3 0.551571 0.362425 0.356757
Si Si4 0.066031 0.318135 0.391909
Si Si5 0.437050 0.628984 0.219640
Si Si6 0.470397 0.797240 0.101599
Si Si7 0.042220 0.298523 0.033595
O O1 0.921725 0.355869 0.176685
O O2 0.098744 0.205485 0.219815
O O3 0.062210 0.244529 0.102015
O O4 0.089161 0.089161 0.500000
O O5 0.000661 0.219073 0.587342
O O6 0.040687 0.299238 0.466376
O O7 0.860761 0.139240 0.500000
O O8 0.500000 0.500000 0.364137
O O9 0.694445 0.379177 0.367280
O O10 0.524489 0.320950 0.286911
O O11 0.149349 0.429650 0.371515
O O12 0.500000 0.500000 0.210371
O O13 0.463984 0.714657 0.161811
O O14 0.598665 0.867578 0.103260
O O15 0.453029 0.734719 0.033532
O O16 0.137528 0.410126 0.033415
#
# Coordination Sequence:
#
# PCOD9547139 Si02
#       7
#     8   8   8   8   8   8   8
#     4   9  19  37  61  85 114 152 193 243 302 353
#     4   9  15  33  60  79 103 140 182 217 263 327
#     4  10  20  41  56  78 114 159 193 217 266 341
#     4  10  21  36  59  93 118 136 177 236 289 331
#     4  11  25  37  57  85 121 156 198 241 280 344
#     4   9  19  39  62  81 112 155 198 245 295 347
#     4   7  12  29  58  84 105 144 195 238 294 357
#
# _framework density 21.424187
#
# number of rings (size 3 to 8) (size 9 to 14) (size 15 to 20)
#    0.000    2.714    2.857    1.714    2.000    3.429 
#    2.571    2.857    0.000    1.714    0.000    0.000 
#    0.000    0.000    0.000    0.000    0.000    0.000 
#
# Total GULP energy -312215.718513 kJ/mol
# GULP energy per Si atom -5575.280688 kJ/mol
# Density = 2.137542 g / cm^3
# Si number density = 21.424187 Si / 1000 Ang^3
#
#
#
# Elastic Constant Matrix: (Units=GPa)
#
#
# Indices 1 2 3 4 5 6 
#
# 1 25.6205 -0.0519 5.3880 0.0000 0.0000 0.0000
# 2 -0.0519 25.6201 5.3878 0.0000 0.0000 0.0000
# 3 5.3880 5.3878 114.8536 0.0000 0.0000 0.0000
# 4 0.0000 0.0000 0.0000 13.6017 0.0000 0.0000
# 5 0.0000 0.0000 0.0000 0.0000 13.6019 0.0000
# 6 0.0000 0.0000 0.0000 0.0000 0.0000 8.4315
#
#
#
# Elastic Compliance Matrix: (Units=1/GPa)
#
#
# Indices 1 2 3 4 5 6 
#
# 1 0.039426 0.000473 -0.001872 0.000000 0.000000 0.000000
# 2 0.000473 0.039426 -0.001872 0.000000 0.000000 0.000000
# 3 -0.001872 -0.001872 0.008882 0.000000 0.000000 0.000000
# 4 0.000000 0.000000 0.000000 0.073520 0.000000 0.000000
# 5 0.000000 0.000000 0.000000 0.000000 0.073519 0.000000
# 6 0.000000 0.000000 0.000000 0.000000 0.000000 0.118603
#
#
# Mechanical properties :
#
#
# Convention : Reuss Voigt Hill
#
# Bulk Modulus (GPa) = 12.31609 20.83801 16.57705
# Shear Modulus (GPa) = 12.92050 17.48504 15.20277
#
# Velocity S-wave (km/s) = 2.45843 2.85991 2.66674
# Velocity P-wave (km/s) = 3.71748 4.54455 4.15166
#
# Compressibility (1/GPa) = 0.08119457
#
# Stress axis : x y z
#
# Youngs Moduli (GPa) = 25.36408 25.36373 112.58289
#
# Poissons Ratio (x) = -0.01201 0.21073
# Poissons Ratio (y) = -0.01201 0.21072
# Poissons Ratio (z) = 0.04748 0.04747
#
# Static dielectric constant tensor:
#      x y z
#    x 1.778790 0.000000 0.000000 
#    y 0.000000 1.778790 0.000000 
#    z 0.000000 0.000000 1.854800 
# 
# From -- ./inp_files/2814.got.cif
#   From: 2010.05.17/outbox.cif.g08.bks.cpg/sg90_2_cif.got.tgz:2814.got - 2010.06.03 19:17:45.
