data_PCOD9547692
_publ_section_title
;
Structure prediction by ZEFSAII (Michael W. Deem and Ramdas Pophale) SiO2 
 PCOD9547692
Probable space group: P 41 2 2
;
_chemical_formula_sum "Si O2"
_cell_formula_units_Z 44
_cell_length_a 17.845228
_cell_length_b 17.845228
_cell_length_c 8.763497
_cell_angle_alpha 90.000000
_cell_angle_beta 90.000000
_cell_angle_gamma 90.000000
_cell_volume 2790.754570
_symmetry_space_group_name_H-M "P 41 2 2"
_symmetry_group_IT_number 91
_symmetry_cell_setting 'tetragonal'
loop_
_space_group_symop_operation_xyz
x,y,z
-y,x,1/4+z
-x,-y,1/2+z
y,-x,3/4+z
x,-y,1/2-z
-x,y,-z
y,x,3/4-z
-y,-x,1/4-z
loop_
_atom_site_type_symbol
_atom_site_label
_atom_site_fract_x
_atom_site_fract_y
_atom_site_fract_z
Si Si1 0.711094 0.081523 0.818227
Si Si2 0.293882 0.804259 0.038117
Si Si3 0.585434 0.933744 0.444220
Si Si4 0.577773 0.893044 0.094490
Si Si5 0.838304 0.155700 0.302865
Si Si6 0.000000 0.091662 0.000000
O O1 0.710517 0.136278 0.674802
O O2 0.791947 0.092342 0.896357
O O3 0.698995 0.000000 0.750000
O O4 0.645600 0.100747 0.939268
O O5 0.272998 0.727003 0.125000
O O6 0.372346 0.823712 0.961017
O O7 0.230898 0.822542 0.910795
O O8 0.500000 0.932069 0.500000
O O9 0.579852 0.895730 0.278321
O O10 0.607797 0.022186 0.438198
O O11 0.500000 0.889361 0.000000
O O12 0.858212 0.067958 0.315266
O O13 0.825752 0.174249 0.125000
O O14 0.960432 0.039569 0.125000
#
# Coordination Sequence:
#
# PCOD9547692 Si02
#       6
#     8   8   8   8   8   4
#     4  11  21  33  51  70  97 126 165 209 263 312
#     4  10  21  34  51  70  97 130 167 204 258 312
#     4  10  20  31  52  78 103 128 164 208 259 318
#     4  10  19  32  51  75 103 131 164 205 254 307
#     4  10  23  37  49  67  89 128 172 222 267 307
#     4  10  24  34  48  62  86 116 176 230 274 302
#
# _framework density 15.766344999999999
#
# number of rings (size 3 to 8) (size 9 to 14) (size 15 to 20)
#    0.000    1.818    1.818    2.182    8.909    2.182 
#    0.000    0.000    0.000    0.000    0.000    0.000 
#    0.000    0.000    0.000   14.727    0.000    0.000 
#
# Total GULP energy -244980.908324 kJ/mol
# GULP energy per Si atom -5567.747916 kJ/mol
# Density = 1.573046 g / cm^3
# Si number density = 15.766345 Si / 1000 Ang^3
#
#
#
# Elastic Constant Matrix: (Units=GPa)
#
#
# Indices 1 2 3 4 5 6 
#
# 1 58.3198 15.7839 29.5846 0.0000 0.0000 0.0000
# 2 15.7839 58.3212 29.5851 0.0000 0.0000 0.0000
# 3 29.5846 29.5851 109.6163 0.0000 0.0000 0.0000
# 4 0.0000 0.0000 0.0000 19.2547 0.0000 0.0000
# 5 0.0000 0.0000 0.0000 0.0000 19.2551 0.0000
# 6 0.0000 0.0000 0.0000 0.0000 0.0000 10.9919
#
#
#
# Elastic Compliance Matrix: (Units=1/GPa)
#
#
# Indices 1 2 3 4 5 6 
#
# 1 0.020355 -0.003154 -0.004643 0.000000 0.000000 0.000000
# 2 -0.003154 0.020355 -0.004643 0.000000 0.000000 0.000000
# 3 -0.004643 -0.004643 0.011629 0.000000 0.000000 0.000000
# 4 0.000000 0.000000 0.000000 0.051935 0.000000 0.000000
# 5 0.000000 0.000000 0.000000 0.000000 0.051934 0.000000
# 6 0.000000 0.000000 0.000000 0.000000 0.000000 0.090976
#
#
# Mechanical properties :
#
#
# Convention : Reuss Voigt Hill
#
# Bulk Modulus (GPa) = 36.41493 41.79604 39.10548
# Shear Modulus (GPa) = 17.77991 19.98728 18.88360
#
# Velocity S-wave (km/s) = 3.36179 3.56437 3.46456
# Velocity P-wave (km/s) = 6.18187 6.59597 6.39228
#
# Compressibility (1/GPa) = 0.02746127
#
# Stress axis : x y z
#
# Youngs Moduli (GPa) = 49.12680 49.12783 85.99390
#
# Poissons Ratio (x) = 0.15494 0.39923
# Poissons Ratio (y) = 0.15494 0.39923
# Poissons Ratio (z) = 0.22807 0.22808
#
# Static dielectric constant tensor:
#      x y z
#    x 1.544140 0.000000 0.000000 
#    y 0.000000 1.544140 0.000000 
#    z 0.000000 0.000000 1.556040 
# 
# From -- ./inp_files/9896.got.cif
#   From: 2010.05.17/outbox.cif.g08.bks.cpg/sg91_5_cif.got.tgz:9896.got - 2010.06.03 19:20:03.
