data_PCOD9547984
_publ_section_title
;
Structure prediction by ZEFSAII (Michael W. Deem and Ramdas Pophale) SiO2 
 PCOD9547984
Probable space group: P 41 2 2
;
_chemical_formula_sum "Si O2"
_cell_formula_units_Z 28
_cell_length_a 17.192967
_cell_length_b 17.192967
_cell_length_c 5.212104
_cell_angle_alpha 90.000000
_cell_angle_beta 90.000000
_cell_angle_gamma 90.000000
_cell_volume 1540.688114
_symmetry_space_group_name_H-M "P 41 2 2"
_symmetry_group_IT_number 91
_symmetry_cell_setting 'tetragonal'
loop_
_space_group_symop_operation_xyz
x,y,z
-y,x,1/4+z
-x,-y,1/2+z
y,-x,3/4+z
x,-y,1/2-z
-x,y,-z
y,x,3/4-z
-y,-x,1/4-z
loop_
_atom_site_type_symbol
_atom_site_label
_atom_site_fract_x
_atom_site_fract_y
_atom_site_fract_z
Si Si1 0.500000 0.828941 0.000000
Si Si2 0.189832 0.255556 0.117347
Si Si3 0.666291 0.333710 0.125000
Si Si4 0.638482 0.948873 0.005031
Si Si5 0.278495 0.500000 0.750000
O O1 0.427988 0.886040 0.049406
O O2 0.494562 0.775263 0.750503
O O3 0.213338 0.213338 0.375000
O O4 0.104900 0.290615 0.150876
O O5 0.199140 0.199140 0.875000
O O6 0.258444 0.319802 0.061298
O O7 0.674709 0.418290 0.253668
O O8 0.614120 0.000000 0.250000
O O9 0.652704 0.000000 0.750000
#
# Coordination Sequence:
#
# PCOD9547984 Si02
#       5
#     4   8   4   8   4
#     4  12  22  41  57  86 122 164 194 252 335 385
#     4  10  20  39  60  83 119 169 199 240 309 374
#     4  10  24  40  64  84 114 164 222 264 316 360
#     4  12  23  36  58  93 124 154 204 255 301 381
#     4  12  24  39  67  84 116 166 224 264 315 365
#
# _framework density 18.173698000000002
#
# number of rings (size 3 to 8) (size 9 to 14) (size 15 to 20)
#    0.857    0.000    2.857    6.000    0.000    0.000 
#    0.000    1.429    0.000    0.000    0.000    0.000 
#    0.000   32.000    0.000    0.000    0.000    0.000 
#
# Total GULP energy -156131.587882 kJ/mol
# GULP energy per Si atom -5576.128139 kJ/mol
# Density = 1.813233 g / cm^3
# Si number density = 18.173698 Si / 1000 Ang^3
#
#
#
# Elastic Constant Matrix: (Units=GPa)
#
#
# Indices 1 2 3 4 5 6 
#
# 1 51.5416 64.3592 36.7158 0.0000 0.0000 0.0000
# 2 64.3592 51.5437 36.7175 0.0000 0.0000 0.0000
# 3 36.7158 36.7175 133.9747 0.0000 0.0000 0.0000
# 4 0.0000 0.0000 0.0000 28.5960 0.0000 0.0000
# 5 0.0000 0.0000 0.0000 0.0000 28.5962 0.0000
# 6 0.0000 0.0000 0.0000 0.0000 0.0000 20.9511
#
#
#
# Elastic Compliance Matrix: (Units=1/GPa)
#
#
# Indices 1 2 3 4 5 6 
#
# 1 -0.033792 0.044232 -0.002862 0.000000 0.000000 0.000000
# 2 0.044232 -0.033791 -0.002861 0.000000 0.000000 0.000000
# 3 -0.002862 -0.002861 0.009032 0.000000 0.000000 0.000000
# 4 0.000000 0.000000 0.000000 0.034970 0.000000 0.000000
# 5 0.000000 0.000000 0.000000 0.000000 0.034970 0.000000
# 6 0.000000 0.000000 0.000000 0.000000 0.000000 0.047730
#
#
# Mechanical properties :
#
#
# Convention : Reuss Voigt Hill
#
# Bulk Modulus (GPa) = 54.14567 56.96057 55.55312
# Shear Modulus (GPa) = -425.76884 22.24648 -201.76118
#
# Velocity S-wave (km/s) = -15.32273 3.50251 -10.54795
# Velocity P-wave (km/s) = 16.82825 6.91138 10.84949
#
# Compressibility (1/GPa) = 0.01846870
#
# Stress axis : x y z
#
# Youngs Moduli (GPa) = -29.59287 -29.59372 110.71163
#
# Poissons Ratio (x) = 1.30900 0.31683
# Poissons Ratio (y) = 1.30896 0.31675
# Poissons Ratio (z) = -0.08469 -0.08467
#
# Static dielectric constant tensor:
#      x y z
#    x 1.630100 0.000000 0.000000 
#    y 0.000000 1.630100 0.000000 
#    z 0.000000 0.000000 1.622030 
# 
# From -- ./inp_files/8395.got.cif
#   From: 2010.05.17/outbox.cif.g08.bks.cpg/sg91_5_cif.got.tgz:8395.got - 2010.06.03 19:20:03.
