data_PCOD9547853
_publ_section_title
;
Structure prediction by ZEFSAII (Michael W. Deem and Ramdas Pophale) SiO2 
 PCOD9547853
Probable space group: P 41 2 2
;
_chemical_formula_sum "Si O2"
_cell_formula_units_Z 44
_cell_length_a 14.755242
_cell_length_b 14.755242
_cell_length_c 12.163926
_cell_angle_alpha 90.000000
_cell_angle_beta 90.000000
_cell_angle_gamma 90.000000
_cell_volume 2648.295502
_symmetry_space_group_name_H-M "P 41 2 2"
_symmetry_group_IT_number 91
_symmetry_cell_setting 'tetragonal'
loop_
_space_group_symop_operation_xyz
x,y,z
-y,x,1/4+z
-x,-y,1/2+z
y,-x,3/4+z
x,-y,1/2-z
-x,y,-z
y,x,3/4-z
-y,-x,1/4-z
loop_
_atom_site_type_symbol
_atom_site_label
_atom_site_fract_x
_atom_site_fract_y
_atom_site_fract_z
Si Si1 0.124438 0.598042 0.065674
Si Si2 0.096891 0.790591 0.320493
Si Si3 0.765965 0.234036 0.625000
Si Si4 0.590406 0.952928 0.131489
Si Si5 0.062736 0.369372 0.671628
Si Si6 0.110854 0.185671 0.762978
O O1 0.208391 0.661412 0.098705
O O2 0.111257 0.498078 0.117450
O O3 0.035977 0.651257 0.115192
O O4 0.113001 0.587261 0.933716
O O5 0.173704 0.797804 0.228368
O O6 0.095499 0.685872 0.360362
O O7 0.117020 0.854470 0.422524
O O8 0.996840 0.816138 0.280378
O O9 0.593022 0.000000 0.250000
O O10 0.586348 0.029986 0.036670
O O11 0.122962 0.285325 0.711134
O O12 0.163684 0.163684 0.875000
#
# Coordination Sequence:
#
# PCOD9547853 Si02
#       6
#     8   8   4   8   8   8
#     4  11  21  35  57  80 109 148 182 247 291 349
#     4  11  24  37  55  76 111 156 197 245 279 341
#     4  12  22  36  56  78 108 156 186 240 288 346
#     4  11  21  35  59  82 110 146 192 246 300 337
#     4  10  20  35  55  80 106 145 194 233 292 338
#     4  11  21  39  50  73 112 154 200 236 277 323
#
# _framework density 16.614459
#
# number of rings (size 3 to 8) (size 9 to 14) (size 15 to 20)
#    0.000    1.091    7.273    3.273    0.000    0.727 
#    4.909    0.000    0.000    0.000    0.000    0.000 
#    0.000    0.000   86.545    0.000    0.000    0.000 
#
# Total GULP energy -244970.482577 kJ/mol
# GULP energy per Si atom -5567.510968 kJ/mol
# Density = 1.657664 g / cm^3
# Si number density = 16.614459 Si / 1000 Ang^3
#
#
#
# Elastic Constant Matrix: (Units=GPa)
#
#
# Indices 1 2 3 4 5 6 
#
# 1 54.0583 65.7255 34.6490 0.0000 0.0000 0.0000
# 2 65.7255 54.0583 34.6483 0.0000 0.0000 0.0000
# 3 34.6490 34.6483 141.7871 0.0000 0.0000 0.0000
# 4 0.0000 0.0000 0.0000 25.8908 0.0000 0.0000
# 5 0.0000 0.0000 0.0000 0.0000 25.8907 0.0000
# 6 0.0000 0.0000 0.0000 0.0000 0.0000 18.3180
#
#
#
# Elastic Compliance Matrix: (Units=1/GPa)
#
#
# Indices 1 2 3 4 5 6 
#
# 1 -0.037994 0.047717 -0.002376 0.000000 0.000000 0.000000
# 2 0.047717 -0.037994 -0.002376 0.000000 0.000000 0.000000
# 3 -0.002376 -0.002376 0.008214 0.000000 0.000000 0.000000
# 4 0.000000 0.000000 0.000000 0.038624 0.000000 0.000000
# 5 0.000000 0.000000 0.000000 0.000000 0.038624 0.000000
# 6 0.000000 0.000000 0.000000 0.000000 0.000000 0.054591
#
#
# Mechanical properties :
#
#
# Convention : Reuss Voigt Hill
#
# Bulk Modulus (GPa) = 55.07837 57.77214 56.42525
# Shear Modulus (GPa) = -316.20113 21.67864 -147.26124
#
# Velocity S-wave (km/s) = -13.81050 3.61613 -9.42480
# Velocity P-wave (km/s) = 14.86889 7.23069 9.18697
#
# Compressibility (1/GPa) = 0.01815595
#
# Stress axis : x y z
#
# Youngs Moduli (GPa) = -26.31990 -26.32011 121.74221
#
# Poissons Ratio (x) = 1.25591 0.28923
# Poissons Ratio (y) = 1.25590 0.28929
# Poissons Ratio (z) = -0.06253 -0.06254
#
# Static dielectric constant tensor:
#      x y z
#    x 1.580850 0.000000 0.000000 
#    y 0.000000 1.580850 0.000000 
#    z 0.000000 0.000000 1.620240 
# 
# From -- ./inp_files/10668.got.cif
#   From: 2010.05.17/outbox.cif.g08.bks.cpg/sg91_6_cif.got.tgz:10668.got - 2010.06.03 19:20:03.
