data_PCOD9547598
_publ_section_title
;
Structure prediction by ZEFSAII (Michael W. Deem and Ramdas Pophale) SiO2 
 PCOD9547598
Probable space group: P 41 2 2
;
_chemical_formula_sum "Si O2"
_cell_formula_units_Z 64
_cell_length_a 19.258355
_cell_length_b 19.258355
_cell_length_c 11.396588
_cell_angle_alpha 90.000000
_cell_angle_beta 90.000000
_cell_angle_gamma 90.000000
_cell_volume 4226.814848
_symmetry_space_group_name_H-M "P 41 2 2"
_symmetry_group_IT_number 91
_symmetry_cell_setting 'tetragonal'
loop_
_space_group_symop_operation_xyz
x,y,z
-y,x,1/4+z
-x,-y,1/2+z
y,-x,3/4+z
x,-y,1/2-z
-x,y,-z
y,x,3/4-z
-y,-x,1/4-z
loop_
_atom_site_type_symbol
_atom_site_label
_atom_site_fract_x
_atom_site_fract_y
_atom_site_fract_z
Si Si1 0.216547 0.373027 0.407730
Si Si2 0.210180 0.359703 0.131466
Si Si3 0.272704 0.331740 0.647358
Si Si4 0.577525 0.845433 0.497235
Si Si5 0.491945 0.691552 0.863449
Si Si6 0.583727 0.600781 0.506592
Si Si7 0.922505 0.569618 0.009522
Si Si8 0.592373 0.079588 0.251297
O O1 0.217130 0.351899 0.272021
O O2 0.244531 0.326468 0.513995
O O3 0.267304 0.439467 0.421796
O O4 0.137632 0.392755 0.437959
O O5 0.255561 0.299950 0.070285
O O6 0.252101 0.430282 0.099853
O O7 0.131881 0.368327 0.088150
O O8 0.212162 0.365452 0.724185
O O9 0.338252 0.384536 0.662062
O O10 0.500000 0.811963 0.500000
O O11 0.573235 0.899148 0.605049
O O12 0.592831 0.884704 0.376809
O O13 0.470090 0.621237 0.798291
O O14 0.500000 0.674360 0.000000
O O15 0.500000 0.598331 0.500000
O O16 0.611839 0.611839 0.375000
O O17 0.923228 0.489589 0.966671
O O18 0.000000 0.597954 0.000000
O O19 0.617546 0.000000 0.250000
#
# Coordination Sequence:
#
# PCOD9547598 Si02
#       8
#     8   8   8   8   8   8   8   8
#     4  10  18  34  51  68  94 120 161 205 248 292
#     4  10  20  31  50  71  91 127 162 197 246 294
#     4  10  21  33  50  67  91 125 163 207 240 297
#     4   9  19  32  47  69  98 126 159 204 250 287
#     4   9  19  34  49  66  87 117 153 204 257 302
#     4  11  23  34  49  67  86 118 163 210 267 311
#     4   9  18  30  49  71  96 126 156 196 249 302
#     4  10  20  31  46  72  99 123 158 199 250 300
#
# _framework density 15.141424000000001
#
# number of rings (size 3 to 8) (size 9 to 14) (size 15 to 20)
#    0.000    2.250    1.250    1.500    5.250    0.500 
#    0.000    2.500    0.000    0.000    0.000    0.000 
#    0.000    0.000    0.000    0.000    0.000   20.000 
#
# Total GULP energy -356681.680991 kJ/mol
# GULP energy per Si atom -5573.151265 kJ/mol
# Density = 1.510696 g / cm^3
# Si number density = 15.141424 Si / 1000 Ang^3
#
#
#
# Elastic Constant Matrix: (Units=GPa)
#
#
# Indices 1 2 3 4 5 6 
#
# 1 77.9980 41.5328 23.2019 0.0000 0.0000 0.0000
# 2 41.5328 77.9980 23.2019 0.0000 0.0000 0.0000
# 3 23.2019 23.2019 39.8754 0.0000 0.0000 0.0000
# 4 0.0000 0.0000 0.0000 -19.7592 0.0000 0.0000
# 5 0.0000 0.0000 0.0000 0.0000 -19.7592 0.0000
# 6 0.0000 0.0000 0.0000 0.0000 0.0000 16.7432
#
#
#
# Elastic Compliance Matrix: (Units=1/GPa)
#
#
# Indices 1 2 3 4 5 6 
#
# 1 0.019115 -0.008308 -0.006288 0.000000 0.000000 0.000000
# 2 -0.008308 0.019115 -0.006288 0.000000 0.000000 0.000000
# 3 -0.006288 -0.006288 0.032396 0.000000 0.000000 0.000000
# 4 0.000000 0.000000 0.000000 -0.050609 0.000000 0.000000
# 5 0.000000 0.000000 0.000000 0.000000 -0.050609 0.000000
# 6 0.000000 0.000000 0.000000 0.000000 0.000000 0.059726
#
#
# Mechanical properties :
#
#
# Convention : Reuss Voigt Hill
#
# Bulk Modulus (GPa) = 34.65335 41.30496 37.97915
# Shear Modulus (GPa) = 62.09468 2.64061 32.36765
#
# Velocity S-wave (km/s) = 6.41084 1.32203 4.62853
# Velocity P-wave (km/s) = 8.81672 5.44693 7.32815
#
# Compressibility (1/GPa) = 0.02885724
#
# Stress axis : x y z
#
# Youngs Moduli (GPa) = 52.31396 52.31396 30.86802
#
# Poissons Ratio (x) = 0.43463 0.19411
# Poissons Ratio (y) = 0.43463 0.19411
# Poissons Ratio (z) = 0.32897 0.32897
#
# Static dielectric constant tensor:
#      x y z
#    x 1.531630 0.000000 0.000000 
#    y 0.000000 1.531630 0.000000 
#    z 0.000000 0.000000 1.557040 
# 
# From -- ./inp_files/10947.got.cif
#   From: 2010.05.17/outbox.cif.g08.bks.cpg/sg91_6_cif.got.tgz:10947.got - 2010.06.03 19:20:03.
