data_PCOD9547073
_publ_section_title
;
Structure prediction by ZEFSAII (Michael W. Deem and Ramdas Pophale) SiO2 
 PCOD9547073
Probable space group: P 4 21 2
;
_chemical_formula_sum "Si O2"
_cell_formula_units_Z 56
_cell_length_a 21.706059
_cell_length_b 21.706059
_cell_length_c 5.449473
_cell_angle_alpha 90.000000
_cell_angle_beta 90.000000
_cell_angle_gamma 90.000000
_cell_volume 2567.535538
_symmetry_space_group_name_H-M "P 4 21 2"
_symmetry_group_IT_number 90
_symmetry_cell_setting 'tetragonal'
loop_
_space_group_symop_operation_xyz
x,y,z
1/2-y,1/2+x,z
-x,-y,z
1/2+y,1/2-x,z
1/2+x,1/2-y,-z
1/2-x,1/2+y,-z
y,x,-z
-y,-x,-z
loop_
_atom_site_type_symbol
_atom_site_label
_atom_site_fract_x
_atom_site_fract_y
_atom_site_fract_z
Si Si1 0.589564 0.435821 0.749709
Si Si2 0.005256 0.780158 0.739225
Si Si3 0.559531 0.769573 0.758905
Si Si4 0.399183 0.995070 0.900670
Si Si5 0.803241 0.848018 0.749742
Si Si6 0.862393 0.661516 0.233611
Si Si7 0.568895 0.157400 0.271839
O O1 0.553665 0.446336 0.500000
O O2 0.653291 0.473462 0.747108
O O3 0.605000 0.361284 0.749850
O O4 0.553865 0.446136 0.000000
O O5 0.042470 0.767481 0.486997
O O6 0.951755 0.728450 0.730748
O O7 0.043158 0.766410 0.989745
O O8 0.518399 0.833314 0.774705
O O9 0.629152 0.795681 0.751459
O O10 0.440461 0.054416 0.844690
O O11 0.380939 0.008042 0.187160
O O12 0.810388 0.810388 0.500000
O O13 0.734694 0.872349 0.750040
O O14 0.810492 0.810492 0.000000
O O15 0.898023 0.640119 0.479165
O O16 0.885158 0.648102 0.956984
#
# Coordination Sequence:
#
# PCOD9547073 Si02
#       7
#     8   8   8   8   8   8   8
#     4  10  18  32  53  79 102 126 163 220 279 320
#     4  11  22  36  54  77 105 133 178 224 280 340
#     4  11  24  38  52  75 100 146 180 220 290 330
#     4  10  21  38  50  67  93 132 192 248 284 311
#     4  10  20  33  54  80 102 123 164 221 279 324
#     4  12  22  38  56  76 103 135 178 224 284 341
#     4  11  21  35  54  69  93 133 176 235 281 323
#
# _framework density 21.810797999999998
#
# number of rings (size 3 to 8) (size 9 to 14) (size 15 to 20)
#    0.000    1.286    1.429    7.714    2.000    0.000 
#    0.000    0.000    0.000    0.000    0.000    0.000 
#    0.000    0.000    0.000    0.000    0.000   50.000 
#
# Total GULP energy -312358.507114 kJ/mol
# GULP energy per Si atom -5577.830484 kJ/mol
# Density = 2.176116 g / cm^3
# Si number density = 21.810798 Si / 1000 Ang^3
#
#
#
# Elastic Constant Matrix: (Units=GPa)
#
#
# Indices 1 2 3 4 5 6 
#
# 1 26.3845 20.6192 18.9770 0.0000 0.0000 0.0000
# 2 20.6192 26.3823 18.9764 0.0000 0.0000 0.0000
# 3 18.9770 18.9764 189.1414 0.0000 0.0000 0.0000
# 4 0.0000 0.0000 0.0000 18.0419 0.0000 0.0000
# 5 0.0000 0.0000 0.0000 0.0000 18.0421 0.0000
# 6 0.0000 0.0000 0.0000 0.0000 0.0000 18.5595
#
#
#
# Elastic Compliance Matrix: (Units=1/GPa)
#
#
# Indices 1 2 3 4 5 6 
#
# 1 0.098314 -0.075168 -0.002323 0.000000 0.000000 0.000000
# 2 -0.075168 0.098323 -0.002323 0.000000 0.000000 0.000000
# 3 -0.002323 -0.002323 0.005753 0.000000 0.000000 0.000000
# 4 0.000000 0.000000 0.000000 0.055427 0.000000 0.000000
# 5 0.000000 0.000000 0.000000 0.000000 0.055426 0.000000
# 6 0.000000 0.000000 0.000000 0.000000 0.000000 0.053881
#
#
# Mechanical properties :
#
#
# Convention : Reuss Voigt Hill
#
# Bulk Modulus (GPa) = 23.38412 39.89484 31.63948
# Shear Modulus (GPa) = 9.24206 23.15107 16.19657
#
# Velocity S-wave (km/s) = 2.06072 3.26152 2.72801
# Velocity P-wave (km/s) = 4.05052 5.70214 4.94576
#
# Compressibility (1/GPa) = 0.04276406
#
# Stress axis : x y z
#
# Youngs Moduli (GPa) = 10.17145 10.17057 173.81813
#
# Poissons Ratio (x) = 0.76450 0.40371
# Poissons Ratio (y) = 0.76456 0.40377
# Poissons Ratio (z) = 0.02362 0.02363
#
# Static dielectric constant tensor:
#      x y z
#    x 1.837060 0.000000 0.000000 
#    y 0.000000 1.837060 0.000000 
#    z 0.000000 0.000000 1.836930 
# 
# From -- ./inp_files/751.got.cif
#   From: 2010.05.17/outbox.cif.g08.bks.cpg/sg90_1_cif.got.tgz:751.got - 2010.06.03 19:17:45.
