data_PCOD9547412
_publ_section_title
;
Structure prediction by ZEFSAII (Michael W. Deem and Ramdas Pophale) SiO2 
 PCOD9547412
Probable space group: P 4 21 2
;
_chemical_formula_sum "Si O2"
_cell_formula_units_Z 26
_cell_length_a 12.008265
_cell_length_b 12.008265
_cell_length_c 8.015411
_cell_angle_alpha 90.000000
_cell_angle_beta 90.000000
_cell_angle_gamma 90.000000
_cell_volume 1155.809668
_symmetry_space_group_name_H-M "P 4 21 2"
_symmetry_group_IT_number 90
_symmetry_cell_setting 'tetragonal'
loop_
_space_group_symop_operation_xyz
x,y,z
1/2-y,1/2+x,z
-x,-y,z
1/2+y,1/2-x,z
1/2+x,1/2-y,-z
1/2-x,1/2+y,-z
y,x,-z
-y,-x,-z
loop_
_atom_site_type_symbol
_atom_site_label
_atom_site_fract_x
_atom_site_fract_y
_atom_site_fract_z
Si Si1 0.780402 0.152167 0.323253
Si Si2 0.494940 0.734408 0.842493
Si Si3 0.500000 0.000000 0.791600
Si Si4 0.710582 0.418306 0.778007
O O1 0.787632 0.212369 0.500000
O O2 0.664766 0.186163 0.239360
O O3 0.884497 0.191875 0.213406
O O4 0.786748 0.020028 0.349396
O O5 0.399600 0.656167 0.762859
O O6 0.479727 0.863263 0.797507
O O7 0.475151 0.717812 0.040242
#
# Coordination Sequence:
#
# PCOD9547412 Si02
#       4
#     8   8   2   8
#     4  12  28  46  73 107 157 198 254 321 396 455
#     4  11  24  45  76 108 146 197 259 316 382 451
#     4  12  20  40  80 106 144 188 252 322 364 452
#     4  11  26  47  73 109 147 197 259 313 380 467
#
# _framework density 22.495052999999999
#
# number of rings (size 3 to 8) (size 9 to 14) (size 15 to 20)
#    0.000    0.615    3.077    3.692    8.615    4.308 
#    0.000    0.000    0.000    0.000    0.000    0.000 
#    0.000    0.000    0.000    0.000    0.000    0.000 
#
# Total GULP energy -145123.260707 kJ/mol
# GULP energy per Si atom -5581.663873 kJ/mol
# Density = 2.244385 g / cm^3
# Si number density = 22.495053 Si / 1000 Ang^3
#
#
#
# Elastic Constant Matrix: (Units=GPa)
#
#
# Indices 1 2 3 4 5 6 
#
# 1 139.0944 34.1417 19.6394 0.0000 0.0000 0.0000
# 2 34.1417 139.0928 19.6394 0.0000 0.0000 0.0000
# 3 19.6394 19.6394 52.2941 0.0000 0.0000 0.0000
# 4 0.0000 0.0000 0.0000 17.9477 0.0000 0.0000
# 5 0.0000 0.0000 0.0000 0.0000 17.9480 0.0000
# 6 0.0000 0.0000 0.0000 0.0000 0.0000 44.7149
#
#
#
# Elastic Compliance Matrix: (Units=1/GPa)
#
#
# Indices 1 2 3 4 5 6 
#
# 1 0.007919 -0.001609 -0.002370 0.000000 0.000000 0.000000
# 2 -0.001609 0.007919 -0.002370 0.000000 0.000000 0.000000
# 3 -0.002370 -0.002370 0.020903 0.000000 0.000000 0.000000
# 4 0.000000 0.000000 0.000000 0.055717 0.000000 0.000000
# 5 0.000000 0.000000 0.000000 0.000000 0.055716 0.000000
# 6 0.000000 0.000000 0.000000 0.000000 0.000000 0.022364
#
#
# Mechanical properties :
#
#
# Convention : Reuss Voigt Hill
#
# Bulk Modulus (GPa) = 41.59152 53.03581 47.31367
# Shear Modulus (GPa) = 26.14381 33.25950 29.70165
#
# Velocity S-wave (km/s) = 3.41281 3.84933 3.63762
# Velocity P-wave (km/s) = 5.83601 6.58668 6.22267
#
# Compressibility (1/GPa) = 0.02404336
#
# Stress axis : x y z
#
# Youngs Moduli (GPa) = 126.27959 126.27814 47.84109
#
# Poissons Ratio (x) = 0.20321 0.11337
# Poissons Ratio (y) = 0.20321 0.11337
# Poissons Ratio (z) = 0.29924 0.29924
#
# Static dielectric constant tensor:
#      x y z
#    x 1.813280 0.000000 0.000000 
#    y 0.000000 1.813280 0.000000 
#    z 0.000000 0.000000 1.864150 
# 
# From -- ./inp_files/925.got.cif
#   From: 2010.05.17/outbox.cif.g08.bks.cpg/sg90_1_cif.got.tgz:925.got - 2010.06.03 19:17:45.
