data_PCOD9547837
_publ_section_title
;
Structure prediction by ZEFSAII (Michael W. Deem and Ramdas Pophale) SiO2 
 PCOD9547837
Probable space group: P 41 2 2
;
_chemical_formula_sum "Si O2"
_cell_formula_units_Z 64
_cell_length_a 18.144669
_cell_length_b 18.144669
_cell_length_c 12.193481
_cell_angle_alpha 90.000000
_cell_angle_beta 90.000000
_cell_angle_gamma 90.000000
_cell_volume 4014.447716
_symmetry_space_group_name_H-M "P 41 2 2"
_symmetry_group_IT_number 91
_symmetry_cell_setting 'tetragonal'
loop_
_space_group_symop_operation_xyz
x,y,z
-y,x,1/4+z
-x,-y,1/2+z
y,-x,3/4+z
x,-y,1/2-z
-x,y,-z
y,x,3/4-z
-y,-x,1/4-z
loop_
_atom_site_type_symbol
_atom_site_label
_atom_site_fract_x
_atom_site_fract_y
_atom_site_fract_z
Si Si1 0.072442 0.416126 0.256641
Si Si2 0.989706 0.174047 0.191486
Si Si3 0.053726 0.089758 0.595748
Si Si4 0.101377 0.415220 0.732644
Si Si5 0.204040 0.828134 0.251131
Si Si6 0.350374 0.083861 0.252719
Si Si7 0.270400 0.149336 0.883221
Si Si8 0.284898 0.881637 0.871033
O O1 0.094950 0.500000 0.250000
O O2 0.088483 0.387636 0.378970
O O3 0.113509 0.365468 0.170206
O O4 0.984728 0.411438 0.231516
O O5 0.022393 0.106896 0.118651
O O6 0.047262 0.240209 0.168987
O O7 0.987756 0.136331 0.311170
O O8 0.909205 0.208972 0.176310
O O9 0.109327 0.147803 0.540570
O O10 0.000000 0.063412 0.500000
O O11 0.127770 0.500000 0.750000
O O12 0.096862 0.402012 0.601799
O O13 0.141740 0.345821 0.794151
O O14 0.189552 0.810449 0.125000
O O15 0.284957 0.859324 0.260325
O O16 0.187136 0.759126 0.328610
O O17 0.320129 0.000000 0.250000
O O18 0.228492 0.228492 0.875000
O O19 0.285661 0.122265 0.759331
#
# Coordination Sequence:
#
# PCOD9547837 Si02
#       8
#     8   8   8   8   8   8   8   8
#     4  10  21  35  55  80 104 134 175 226 274 313
#     4  11  23  38  48  72  95 137 177 230 280 325
#     4  11  22  34  53  66  95 128 183 233 282 322
#     4  10  22  38  57  78 103 139 177 221 266 317
#     4  11  20  33  53  76  99 133 176 222 275 319
#     4  10  20  34  55  77 104 134 178 224 267 317
#     4  12  24  39  55  76 107 141 177 217 273 330
#     4  11  22  36  55  76 102 138 177 227 269 322
#
# _framework density 15.942417000000001
#
# number of rings (size 3 to 8) (size 9 to 14) (size 15 to 20)
#    0.000    1.250    2.500    5.625    3.500    1.000 
#    0.000    1.250    0.000    0.000    0.000    0.000 
#    0.000    0.000    0.000    5.625    0.000    1.000 
#
# Total GULP energy -357151.001404 kJ/mol
# GULP energy per Si atom -5580.484397 kJ/mol
# Density = 1.590613 g / cm^3
# Si number density = 15.942417 Si / 1000 Ang^3
#
#
#
# Elastic Constant Matrix: (Units=GPa)
#
#
# Indices 1 2 3 4 5 6 
#
# 1 77.7141 30.7367 13.7705 0.0000 0.0000 0.0000
# 2 30.7367 77.7138 13.7706 0.0000 0.0000 0.0000
# 3 13.7705 13.7706 69.0772 0.0000 0.0000 0.0000
# 4 0.0000 0.0000 0.0000 11.4290 0.0000 0.0000
# 5 0.0000 0.0000 0.0000 0.0000 11.4290 0.0000
# 6 0.0000 0.0000 0.0000 0.0000 0.0000 12.6269
#
#
#
# Elastic Compliance Matrix: (Units=1/GPa)
#
#
# Indices 1 2 3 4 5 6 
#
# 1 0.015500 -0.005787 -0.001936 0.000000 0.000000 0.000000
# 2 -0.005787 0.015500 -0.001936 0.000000 0.000000 0.000000
# 3 -0.001936 -0.001936 0.015249 0.000000 0.000000 0.000000
# 4 0.000000 0.000000 0.000000 0.087496 0.000000 0.000000
# 5 0.000000 0.000000 0.000000 0.000000 0.087497 0.000000
# 6 0.000000 0.000000 0.000000 0.000000 0.000000 0.079196
#
#
# Mechanical properties :
#
#
# Convention : Reuss Voigt Hill
#
# Bulk Modulus (GPa) = 37.13507 37.89565 37.51536
# Shear Modulus (GPa) = 15.20993 18.17879 16.69436
#
# Velocity S-wave (km/s) = 3.09213 3.38046 3.23951
# Velocity P-wave (km/s) = 6.00767 6.24969 6.12988
#
# Compressibility (1/GPa) = 0.02692872
#
# Stress axis : x y z
#
# Youngs Moduli (GPa) = 64.51755 64.51723 65.58014
#
# Poissons Ratio (x) = 0.37338 0.12697
# Poissons Ratio (y) = 0.37338 0.12698
# Poissons Ratio (z) = 0.12492 0.12492
#
# Static dielectric constant tensor:
#      x y z
#    x 1.544080 0.000000 0.000000 
#    y 0.000000 1.544080 0.000000 
#    z 0.000000 0.000000 1.578920 
# 
# From -- ./inp_files/16060.got.cif
#   From: 2010.05.17/outbox.cif.g08.bks.cpg/sg91_9_cif.got.tgz:16060.got - 2010.06.03 19:20:03.
