data_PCOD9547081
_publ_section_title
;
Structure prediction by ZEFSAII (Michael W. Deem and Ramdas Pophale) SiO2 
 PCOD9547081
Probable space group: P 4 21 2
;
_chemical_formula_sum "Si O2"
_cell_formula_units_Z 52
_cell_length_a 19.150071
_cell_length_b 19.150071
_cell_length_c 6.733826
_cell_angle_alpha 90.000000
_cell_angle_beta 90.000000
_cell_angle_gamma 90.000000
_cell_volume 2469.463817
_symmetry_space_group_name_H-M "P 4 21 2"
_symmetry_group_IT_number 90
_symmetry_cell_setting 'tetragonal'
loop_
_space_group_symop_operation_xyz
x,y,z
1/2-y,1/2+x,z
-x,-y,z
1/2+y,1/2-x,z
1/2+x,1/2-y,-z
1/2-x,1/2+y,-z
y,x,-z
-y,-x,-z
loop_
_atom_site_type_symbol
_atom_site_label
_atom_site_fract_x
_atom_site_fract_y
_atom_site_fract_z
Si Si1 0.754924 0.469728 0.979139
Si Si2 0.995771 0.100096 0.110110
Si Si3 0.578217 0.578217 0.500000
Si Si4 0.170506 0.327470 0.885356
Si Si5 0.732066 0.587909 0.653528
Si Si6 0.418439 0.920668 0.411472
Si Si7 0.179538 0.422920 0.252844
O O1 0.766791 0.387428 0.928685
O O2 0.754736 0.521329 0.788088
O O3 0.680199 0.484535 0.080717
O O4 0.810605 0.504992 0.131196
O O5 0.984010 0.081090 0.340385
O O6 0.054699 0.054699 0.000000
O O7 0.924837 0.075164 0.000000
O O8 0.650165 0.580567 0.622083
O O9 0.242509 0.338871 0.757529
O O10 0.123573 0.377310 0.747704
O O11 0.189337 0.361580 0.094854
O O12 0.766847 0.581297 0.436335
O O13 0.498333 0.905439 0.379374
O O14 0.393595 0.909927 0.636601
#
# Coordination Sequence:
#
# PCOD9547081 Si02
#       7
#     8   8   4   8   8   8   8
#     4  11  21  41  65  94 136 181 219 283 348 406
#     4  11  25  45  74 105 132 167 224 294 363 420
#     4  12  22  47  74 100 134 170 226 291 338 436
#     4  10  21  35  57  88 131 173 222 268 329 406
#     4  10  22  38  64  93 129 176 224 269 335 399
#     4  10  19  31  49  81 125 172 227 283 321 372
#     4  10  19  34  56  88 120 178 227 263 327 396
#
# _framework density 21.057200999999999
#
# number of rings (size 3 to 8) (size 9 to 14) (size 15 to 20)
#    0.000    1.538    3.077    3.692    0.000    2.462 
#    0.000    3.077    0.000    0.000    0.000    0.000 
#    0.000    0.000    0.000    0.000    0.000    0.000 
#
# Total GULP energy -289685.131536 kJ/mol
# GULP energy per Si atom -5570.867914 kJ/mol
# Density = 2.100927 g / cm^3
# Si number density = 21.057201 Si / 1000 Ang^3
#
#
#
# Elastic Constant Matrix: (Units=GPa)
#
#
# Indices 1 2 3 4 5 6 
#
# 1 67.6386 23.8994 37.4785 0.0000 0.0000 0.0000
# 2 23.8994 67.6377 37.4786 0.0000 0.0000 0.0000
# 3 37.4785 37.4786 133.8139 0.0000 0.0000 0.0000
# 4 0.0000 0.0000 0.0000 17.0763 0.0000 0.0000
# 5 0.0000 0.0000 0.0000 0.0000 17.0763 0.0000
# 6 0.0000 0.0000 0.0000 0.0000 0.0000 24.9184
#
#
#
# Elastic Compliance Matrix: (Units=1/GPa)
#
#
# Indices 1 2 3 4 5 6 
#
# 1 0.018519 -0.004344 -0.003970 0.000000 0.000000 0.000000
# 2 -0.004344 0.018519 -0.003970 0.000000 0.000000 0.000000
# 3 -0.003970 -0.003970 0.009697 0.000000 0.000000 0.000000
# 4 0.000000 0.000000 0.000000 0.058561 0.000000 0.000000
# 5 0.000000 0.000000 0.000000 0.000000 0.058561 0.000000
# 6 0.000000 0.000000 0.000000 0.000000 0.000000 0.040131
#
#
# Mechanical properties :
#
#
# Convention : Reuss Voigt Hill
#
# Bulk Modulus (GPa) = 45.11186 51.86701 48.48944
# Shear Modulus (GPa) = 21.19132 23.16312 22.17722
#
# Velocity S-wave (km/s) = 3.17577 3.32024 3.24881
# Velocity P-wave (km/s) = 5.90909 6.27563 6.09512
#
# Compressibility (1/GPa) = 0.02216712
#
# Stress axis : x y z
#
# Youngs Moduli (GPa) = 53.99810 53.99719 103.12390
#
# Poissons Ratio (x) = 0.23455 0.40943
# Poissons Ratio (y) = 0.23455 0.40944
# Poissons Ratio (z) = 0.21439 0.21439
#
# Static dielectric constant tensor:
#      x y z
#    x 1.858370 0.000000 0.000000 
#    y 0.000000 1.858370 0.000000 
#    z 0.000000 0.000000 1.825420 
# 
# From -- ./inp_files/654.got.cif
#   From: 2010.05.17/outbox.cif.g08.bks.cpg/sg90_1_cif.got.tgz:654.got - 2010.06.03 19:17:45.
