data_PCOD9547779
_publ_section_title
;
Structure prediction by ZEFSAII (Michael W. Deem and Ramdas Pophale) SiO2 
 PCOD9547779
Probable space group: P 41 2 2
;
_chemical_formula_sum "Si O2"
_cell_formula_units_Z 48
_cell_length_a 8.688627
_cell_length_b 8.688627
_cell_length_c 28.631776
_cell_angle_alpha 90.000000
_cell_angle_beta 90.000000
_cell_angle_gamma 90.000000
_cell_volume 2161.476881
_symmetry_space_group_name_H-M "P 41 2 2"
_symmetry_group_IT_number 91
_symmetry_cell_setting 'tetragonal'
loop_
_space_group_symop_operation_xyz
x,y,z
-y,x,1/4+z
-x,-y,1/2+z
y,-x,3/4+z
x,-y,1/2-z
-x,y,-z
y,x,3/4-z
-y,-x,1/4-z
loop_
_atom_site_type_symbol
_atom_site_label
_atom_site_fract_x
_atom_site_fract_y
_atom_site_fract_z
Si Si1 0.317391 0.048281 0.513841
Si Si2 0.862041 0.361361 0.112366
Si Si3 0.712688 0.183110 0.236662
Si Si4 0.567103 0.815037 0.105217
Si Si5 0.734455 0.368154 0.328012
Si Si6 0.231534 0.070479 0.415019
O O1 0.500000 0.014097 0.500000
O O2 0.338953 0.161017 0.557340
O O3 0.220230 0.112101 0.469869
O O4 0.231692 0.888986 0.524986
O O5 0.809121 0.190880 0.125000
O O6 0.802160 0.390896 0.059931
O O7 0.797663 0.466789 0.154789
O O8 0.042952 0.380899 0.112400
O O9 0.674623 0.307488 0.277792
O O10 0.708983 0.000000 0.250000
O O11 0.608161 0.665755 0.133290
O O12 0.388470 0.841781 0.097920
O O13 0.888403 0.264966 0.334987
O O14 0.111648 0.111648 0.375000
#
# Coordination Sequence:
#
# PCOD9547779 Si02
#       6
#     8   8   8   8   8   8
#     4   9  19  36  61  86 119 163 208 256 314 372
#     4  11  22  38  63  89 120 165 205 259 317 365
#     4  11  21  36  61  93 122 159 208 260 311 374
#     4  10  19  38  58  84 120 156 203 253 309 373
#     4  10  23  38  58  91 124 156 206 256 307 376
#     4   9  20  37  58  83 121 160 197 253 310 365
#
# _framework density 22.207039999999999
#
# number of rings (size 3 to 8) (size 9 to 14) (size 15 to 20)
#    0.000    2.000    3.333    1.000    0.000    4.000 
#    3.000    0.000    3.667    0.000    0.000    0.000 
#    0.000    0.000    0.000    0.000    0.000    0.000 
#
# Total GULP energy -267234.920149 kJ/mol
# GULP energy per Si atom -5567.394170 kJ/mol
# Density = 2.215650 g / cm^3
# Si number density = 22.207040 Si / 1000 Ang^3
#
#
#
# Elastic Constant Matrix: (Units=GPa)
#
#
# Indices 1 2 3 4 5 6 
#
# 1 -7.3496 40.8922 22.5284 0.0000 0.0000 0.0000
# 2 40.8922 -7.3476 22.5286 0.0000 0.0000 0.0000
# 3 22.5284 22.5286 155.6741 0.0000 0.0000 0.0000
# 4 0.0000 0.0000 0.0000 24.4722 0.0000 0.0000
# 5 0.0000 0.0000 0.0000 0.0000 24.4721 0.0000
# 6 0.0000 0.0000 0.0000 0.0000 0.0000 27.0583
#
#
#
# Elastic Compliance Matrix: (Units=1/GPa)
#
#
# Indices 1 2 3 4 5 6 
#
# 1 0.008137 0.028867 -0.005355 0.000000 0.000000 0.000000
# 2 0.028867 0.008139 -0.005355 0.000000 0.000000 0.000000
# 3 -0.005355 -0.005355 0.007974 0.000000 0.000000 0.000000
# 4 0.000000 0.000000 0.000000 0.040863 0.000000 0.000000
# 5 0.000000 0.000000 0.000000 0.000000 0.040863 0.000000
# 6 0.000000 0.000000 0.000000 0.000000 0.000000 0.036957
#
#
# Mechanical properties :
#
#
# Convention : Reuss Voigt Hill
#
# Bulk Modulus (GPa) = 16.51168 34.76393 25.63780
# Shear Modulus (GPa) = 39.43018 18.86904 29.14961
#
# Velocity S-wave (km/s) = 4.21832 2.91810 3.62695
# Velocity P-wave (km/s) = 5.58365 5.20021 5.39534
#
# Compressibility (1/GPa) = 0.06056319
#
# Stress axis : x y z
#
# Youngs Moduli (GPa) = 122.89159 122.87014 125.41311
#
# Poissons Ratio (x) = -3.54693 0.67161
# Poissons Ratio (y) = -3.54755 0.67163
# Poissons Ratio (z) = 0.65810 0.65801
#
# Static dielectric constant tensor:
#      x y z
#    x 1.824020 0.000000 0.000000 
#    y 0.000000 1.824020 0.000000 
#    z 0.000000 0.000000 1.944970 
# 
# From -- ./inp_files/18162.got.cif
#   From: 2010.05.17/outbox.cif.g08.bks.cpg/sg91_10_cif.got.tgz:18162.got - 2010.06.03 19:20:03.
