data_PCOD9547558
_publ_section_title
;
Structure prediction by ZEFSAII (Michael W. Deem and Ramdas Pophale) SiO2 
 PCOD9547558
Probable space group: P 41 2 2
;
_chemical_formula_sum "Si O2"
_cell_formula_units_Z 48
_cell_length_a 11.275668
_cell_length_b 11.275668
_cell_length_c 21.106157
_cell_angle_alpha 90.000000
_cell_angle_beta 90.000000
_cell_angle_gamma 90.000000
_cell_volume 2683.451340
_symmetry_space_group_name_H-M "P 41 2 2"
_symmetry_group_IT_number 91
_symmetry_cell_setting 'tetragonal'
loop_
_space_group_symop_operation_xyz
x,y,z
-y,x,1/4+z
-x,-y,1/2+z
y,-x,3/4+z
x,-y,1/2-z
-x,y,-z
y,x,3/4-z
-y,-x,1/4-z
loop_
_atom_site_type_symbol
_atom_site_label
_atom_site_fract_x
_atom_site_fract_y
_atom_site_fract_z
Si Si1 0.664343 0.473405 0.354072
Si Si2 0.271884 0.321473 0.523495
Si Si3 0.063855 0.469165 0.113850
Si Si4 0.350011 0.000000 0.250000
Si Si5 0.835381 0.334937 0.103814
Si Si6 0.500000 0.846548 0.000000
Si Si7 0.726596 0.576706 0.528232
O O1 0.545124 0.545124 0.375000
O O2 0.708591 0.380917 0.407608
O O3 0.763931 0.573768 0.351078
O O4 0.639859 0.395445 0.293106
O O5 0.377755 0.229200 0.509321
O O6 0.295032 0.436977 0.480191
O O7 0.130997 0.289198 0.511809
O O8 0.079745 0.514658 0.185057
O O9 0.186433 0.418620 0.087558
O O10 0.971025 0.363034 0.110990
O O11 0.020209 0.566756 0.062187
O O12 0.793554 0.206447 0.125000
O O13 0.790914 0.370730 0.033531
#
# Coordination Sequence:
#
# PCOD9547558 Si02
#       7
#     8   8   8   4   8   4   8
#     4  10  18  30  54  85 116 139 182 238 297 357
#     4  10  20  36  53  90 118 156 193 240 310 376
#     4  11  20  37  53  83 112 157 193 236 293 361
#     4  10  20  40  62  72 128 170 196 208 310 410
#     4  10  21  35  52  81 112 149 190 226 286 354
#     4  12  24  32  60  96 120 138 210 278 300 330
#     4  10  19  33  57  73 115 152 183 222 298 369
#
# _framework density 17.887411
#
# number of rings (size 3 to 8) (size 9 to 14) (size 15 to 20)
#    0.000    1.667    6.667    1.000    0.000    8.667 
#    0.000    0.000    0.000    0.000   13.000    0.000 
#    0.000    0.000    0.000    0.000    0.000    0.000 
#
# Total GULP energy -267248.497640 kJ/mol
# GULP energy per Si atom -5567.677034 kJ/mol
# Density = 1.784670 g / cm^3
# Si number density = 17.887411 Si / 1000 Ang^3
#
#
#
# Elastic Constant Matrix: (Units=GPa)
#
#
# Indices 1 2 3 4 5 6 
#
# 1 51.4907 10.8127 27.3738 0.0000 0.0000 0.0000
# 2 10.8127 51.4912 27.3738 0.0000 0.0000 0.0000
# 3 27.3738 27.3738 86.8251 0.0000 0.0000 0.0000
# 4 0.0000 0.0000 0.0000 19.8388 0.0000 0.0000
# 5 0.0000 0.0000 0.0000 0.0000 19.8382 0.0000
# 6 0.0000 0.0000 0.0000 0.0000 0.0000 15.1598
#
#
#
# Elastic Compliance Matrix: (Units=1/GPa)
#
#
# Indices 1 2 3 4 5 6 
#
# 1 0.023392 -0.001191 -0.006999 0.000000 0.000000 0.000000
# 2 -0.001191 0.023392 -0.006999 0.000000 0.000000 0.000000
# 3 -0.006999 -0.006999 0.015931 0.000000 0.000000 0.000000
# 4 0.000000 0.000000 0.000000 0.050406 0.000000 0.000000
# 5 0.000000 0.000000 0.000000 0.000000 0.050408 0.000000
# 6 0.000000 0.000000 0.000000 0.000000 0.000000 0.065964
#
#
# Mechanical properties :
#
#
# Convention : Reuss Voigt Hill
#
# Bulk Modulus (GPa) = 30.92610 35.65862 33.29236
# Shear Modulus (GPa) = 18.47398 19.25049 18.86223
#
# Velocity S-wave (km/s) = 3.21719 3.28411 3.25083
# Velocity P-wave (km/s) = 5.57918 5.86164 5.72216
#
# Compressibility (1/GPa) = 0.03233515
#
# Stress axis : x y z
#
# Youngs Moduli (GPa) = 42.74933 42.74979 62.77118
#
# Poissons Ratio (x) = 0.05092 0.43936
# Poissons Ratio (y) = 0.05092 0.43936
# Poissons Ratio (z) = 0.29922 0.29922
#
# Static dielectric constant tensor:
#      x y z
#    x 1.629710 0.000000 0.000000 
#    y 0.000000 1.629710 0.000000 
#    z 0.000000 0.000000 1.699660 
# 
# From -- ./inp_files/6354.got.cif
#   From: 2010.05.17/outbox.cif.g08.bks.cpg/sg91_4_cif.got.tgz:6354.got - 2010.06.03 19:20:03.
