data_PCOD9547529
_publ_section_title
;
Structure prediction by ZEFSAII (Michael W. Deem and Ramdas Pophale) SiO2 
 PCOD9547529
Probable space group: P 41 2 2
;
_chemical_formula_sum "Si O2"
_cell_formula_units_Z 48
_cell_length_a 14.442977
_cell_length_b 14.442977
_cell_length_c 10.665436
_cell_angle_alpha 90.000000
_cell_angle_beta 90.000000
_cell_angle_gamma 90.000000
_cell_volume 2224.805519
_symmetry_space_group_name_H-M "P 41 2 2"
_symmetry_group_IT_number 91
_symmetry_cell_setting 'tetragonal'
loop_
_space_group_symop_operation_xyz
x,y,z
-y,x,1/4+z
-x,-y,1/2+z
y,-x,3/4+z
x,-y,1/2-z
-x,y,-z
y,x,3/4-z
-y,-x,1/4-z
loop_
_atom_site_type_symbol
_atom_site_label
_atom_site_fract_x
_atom_site_fract_y
_atom_site_fract_z
Si Si1 0.255699 0.524350 0.499329
Si Si2 0.859003 0.500000 0.250000
Si Si3 0.985892 0.678393 0.243650
Si Si4 0.713216 0.713216 0.375000
Si Si5 0.632555 0.632555 0.875000
Si Si6 0.185004 0.354326 0.210734
Si Si7 0.000000 0.202389 0.000000
Si Si8 0.159830 0.799795 0.818214
O O1 0.203306 0.487570 0.623825
O O2 0.291828 0.623801 0.541354
O O3 0.340557 0.459678 0.453518
O O4 0.185438 0.560573 0.389774
O O5 0.926225 0.586941 0.261376
O O6 0.090383 0.648444 0.211400
O O7 0.991253 0.732895 0.377218
O O8 0.935537 0.749575 0.148025
O O9 0.728417 0.800833 0.463678
O O10 0.720598 0.633971 0.784750
O O11 0.191990 0.249417 0.156183
O O12 0.904274 0.146366 0.982613
#
# Coordination Sequence:
#
# PCOD9547529 Si02
#       8
#     8   4   8   4   4   8   4   8
#     4  11  25  43  71  96 132 177 228 290 355 419
#     4  12  22  38  68 108 130 170 230 296 348 412
#     4  11  20  35  62  99 132 171 224 276 341 402
#     4  10  18  40  65  93 128 158 226 276 332 390
#     4  12  26  48  63  89 136 186 218 274 356 416
#     4  10  25  45  66  93 138 181 226 285 345 421
#     4  10  18  32  62  94 136 172 210 272 334 408
#     4  10  17  36  63  99 131 171 216 275 340 395
#
# _framework density 21.574919000000001
#
# number of rings (size 3 to 8) (size 9 to 14) (size 15 to 20)
#    0.000    1.333    3.333    3.500    4.667    0.000 
#    0.000    5.833    7.333    0.000    0.000    0.000 
#    0.000    0.000    0.000    0.000    0.000    0.000 
#
# Total GULP energy -267343.165594 kJ/mol
# GULP energy per Si atom -5569.649283 kJ/mol
# Density = 2.152581 g / cm^3
# Si number density = 21.574919 Si / 1000 Ang^3
#
#
#
# Elastic Constant Matrix: (Units=GPa)
#
#
# Indices 1 2 3 4 5 6 
#
# 1 124.1781 61.4704 20.5355 0.0000 0.0000 0.0000
# 2 61.4704 124.1781 20.5355 0.0000 0.0000 0.0000
# 3 20.5355 20.5355 46.5654 0.0000 0.0000 0.0000
# 4 0.0000 0.0000 0.0000 4.8907 0.0000 0.0000
# 5 0.0000 0.0000 0.0000 0.0000 4.8907 0.0000
# 6 0.0000 0.0000 0.0000 0.0000 0.0000 1.6129
#
#
#
# Elastic Compliance Matrix: (Units=1/GPa)
#
#
# Indices 1 2 3 4 5 6 
#
# 1 0.010958 -0.004989 -0.002632 0.000000 0.000000 0.000000
# 2 -0.004989 0.010958 -0.002632 0.000000 0.000000 0.000000
# 3 -0.002632 -0.002632 0.023797 0.000000 0.000000 0.000000
# 4 0.000000 0.000000 0.000000 0.204469 0.000000 0.000000
# 5 0.000000 0.000000 0.000000 0.000000 0.204469 0.000000
# 6 0.000000 0.000000 0.000000 0.000000 0.000000 0.619992
#
#
# Mechanical properties :
#
#
# Convention : Reuss Voigt Hill
#
# Bulk Modulus (GPa) = 39.67397 55.55603 47.61500
# Shear Modulus (GPa) = 4.53082 15.10422 9.81752
#
# Velocity S-wave (km/s) = 1.45072 2.64878 2.13549
# Velocity P-wave (km/s) = 4.60814 5.92966 5.31017
#
# Compressibility (1/GPa) = 0.02520545
#
# Stress axis : x y z
#
# Youngs Moduli (GPa) = 91.25804 91.25804 42.02233
#
# Poissons Ratio (x) = 0.45529 0.11061
# Poissons Ratio (y) = 0.45529 0.11061
# Poissons Ratio (z) = 0.24022 0.24022
#
# Static dielectric constant tensor:
#      x y z
#    x 1.829010 0.000000 0.000000 
#    y 0.000000 1.829010 0.000000 
#    z 0.000000 0.000000 1.879260 
# 
# From -- ./inp_files/15943.got.cif
#   From: 2010.05.17/outbox.cif.g08.bks.cpg/sg91_8_cif.got.tgz:15943.got - 2010.06.03 19:20:03.
