data_PCOD9547266
_publ_section_title
;
Structure prediction by ZEFSAII (Michael W. Deem and Ramdas Pophale) SiO2 
 PCOD9547266
Probable space group: P 4 21 2
;
_chemical_formula_sum "Si O2"
_cell_formula_units_Z 56
_cell_length_a 14.895347
_cell_length_b 14.895347
_cell_length_c 13.166895
_cell_angle_alpha 90.000000
_cell_angle_beta 90.000000
_cell_angle_gamma 90.000000
_cell_volume 2921.356930
_symmetry_space_group_name_H-M "P 4 21 2"
_symmetry_group_IT_number 90
_symmetry_cell_setting 'tetragonal'
loop_
_space_group_symop_operation_xyz
x,y,z
1/2-y,1/2+x,z
-x,-y,z
1/2+y,1/2-x,z
1/2+x,1/2-y,-z
1/2-x,1/2+y,-z
y,x,-z
-y,-x,-z
loop_
_atom_site_type_symbol
_atom_site_label
_atom_site_fract_x
_atom_site_fract_y
_atom_site_fract_z
Si Si1 0.151311 0.496527 0.604926
Si Si2 0.110912 0.116956 0.877724
Si Si3 0.848672 0.501506 0.374680
Si Si4 0.228314 0.971676 0.817862
Si Si5 0.472099 0.247606 0.189533
Si Si6 0.018097 0.353999 0.003832
Si Si7 0.763631 0.231725 0.122765
O O1 0.088150 0.583989 0.615330
O O2 0.187483 0.496842 0.489866
O O3 0.221626 0.491285 0.695202
O O4 0.189991 0.191302 0.851058
O O5 0.017171 0.158252 0.839553
O O6 0.133192 0.021342 0.826669
O O7 0.108331 0.108331 0.000000
O O8 0.912999 0.414943 0.363449
O O9 0.775846 0.503880 0.287108
O O10 0.277598 0.019859 0.912970
O O11 0.240513 0.865481 0.835523
O O12 0.367211 0.238169 0.163083
O O13 0.520773 0.180354 0.110581
O O14 0.924822 0.404528 0.020874
O O15 0.769262 0.230739 0.000000
#
# Coordination Sequence:
#
# PCOD9547266 Si02
#       7
#     8   8   8   8   8   8   8
#     4   9  18  34  57  84 113 144 185 245 305 347
#     4  11  22  37  56  82 117 153 190 240 289 337
#     4   9  18  34  57  84 113 144 185 245 305 347
#     4  12  22  36  55  80 114 153 191 231 279 344
#     4  12  22  36  55  80 114 153 191 231 279 344
#     4  11  20  30  52  81 106 136 178 235 296 343
#     4  11  22  37  56  82 117 153 190 240 289 337
#
# _framework density 19.169174999999999
#
# number of rings (size 3 to 8) (size 9 to 14) (size 15 to 20)
#    0.000    1.286    2.857    6.000    0.000    2.857 
#    0.000    2.857    0.000    5.143    0.000    2.000 
#    0.000    0.000    0.000    0.000    0.000    0.000 
#
# Total GULP energy -312703.750812 kJ/mol
# GULP energy per Si atom -5583.995550 kJ/mol
# Density = 1.912554 g / cm^3
# Si number density = 19.169175 Si / 1000 Ang^3
#
#
#
# Elastic Constant Matrix: (Units=GPa)
#
#
# Indices 1 2 3 4 5 6 
#
# 1 54.6847 -1.1517 18.1383 0.0000 0.0000 0.0000
# 2 -1.1517 54.6854 18.1379 0.0000 0.0000 0.0000
# 3 18.1383 18.1379 111.8142 0.0000 0.0000 0.0000
# 4 0.0000 0.0000 0.0000 12.4967 0.0000 0.0000
# 5 0.0000 0.0000 0.0000 0.0000 12.4967 0.0000
# 6 0.0000 0.0000 0.0000 0.0000 0.0000 -13.3041
#
#
#
# Elastic Compliance Matrix: (Units=1/GPa)
#
#
# Indices 1 2 3 4 5 6 
#
# 1 0.019448 0.001539 -0.003404 0.000000 0.000000 0.000000
# 2 0.001539 0.019448 -0.003404 0.000000 0.000000 0.000000
# 3 -0.003404 -0.003404 0.010048 0.000000 0.000000 0.000000
# 4 0.000000 0.000000 0.000000 0.080021 0.000000 0.000000
# 5 0.000000 0.000000 0.000000 0.000000 0.080021 0.000000
# 6 0.000000 0.000000 0.000000 0.000000 0.000000 -0.075165
#
#
# Mechanical properties :
#
#
# Convention : Reuss Voigt Hill
#
# Bulk Modulus (GPa) = 26.03894 32.38148 29.21021
# Shear Modulus (GPa) = 31.81405 14.74184 23.27795
#
# Velocity S-wave (km/s) = 4.07830 2.77616 3.48852
# Velocity P-wave (km/s) = 5.98247 5.21587 5.61227
#
# Compressibility (1/GPa) = 0.03840403
#
# Stress axis : x y z
#
# Youngs Moduli (GPa) = 51.41842 51.41924 99.52318
#
# Poissons Ratio (x) = -0.07912 0.33882
# Poissons Ratio (y) = -0.07912 0.33881
# Poissons Ratio (z) = 0.17505 0.17505
#
# Static dielectric constant tensor:
#      x y z
#    x 1.715370 0.000000 0.000000 
#    y 0.000000 1.715370 0.000000 
#    z 0.000000 0.000000 1.621790 
# 
# From -- ./inp_files/2233.got.cif
#   From: 2010.05.17/outbox.cif.g08.bks.cpg/sg90_2_cif.got.tgz:2233.got - 2010.06.03 19:17:45.
