data_PCOD9547362
_publ_section_title
;
Structure prediction by ZEFSAII (Michael W. Deem and Ramdas Pophale) SiO2 
 PCOD9547362
Probable space group: P 4 21 2
;
_chemical_formula_sum "Si O2"
_cell_formula_units_Z 38
_cell_length_a 8.296286
_cell_length_b 8.296286
_cell_length_c 26.794375
_cell_angle_alpha 90.000000
_cell_angle_beta 90.000000
_cell_angle_gamma 90.000000
_cell_volume 1844.212926
_symmetry_space_group_name_H-M "P 4 21 2"
_symmetry_group_IT_number 90
_symmetry_cell_setting 'tetragonal'
loop_
_space_group_symop_operation_xyz
x,y,z
1/2-y,1/2+x,z
-x,-y,z
1/2+y,1/2-x,z
1/2+x,1/2-y,-z
1/2-x,1/2+y,-z
y,x,-z
-y,-x,-z
loop_
_atom_site_type_symbol
_atom_site_label
_atom_site_fract_x
_atom_site_fract_y
_atom_site_fract_z
Si Si1 0.760690 0.078998 0.822706
Si Si2 0.085247 0.758233 0.290513
Si Si3 0.000000 0.000000 0.368749
Si Si4 0.585785 0.259871 0.548287
Si Si5 0.235408 0.953349 0.091421
Si Si6 0.500000 0.500000 0.000000
O O1 0.602147 0.192419 0.827825
O O2 0.820696 0.103080 0.766030
O O3 0.889959 0.122220 0.864292
O O4 0.194570 0.599243 0.296051
O O5 0.109909 0.892207 0.332218
O O6 0.097297 0.122090 0.404384
O O7 0.400936 0.195812 0.548820
O O8 0.638222 0.361779 0.500000
O O9 0.376199 0.821942 0.095298
O O10 0.145216 0.970695 0.038813
#
# Coordination Sequence:
#
# PCOD9547362 Si02
#       6
#     8   8   4   8   8   2
#     4   9  19  38  64  92 124 166 212 255 308 378
#     4   9  20  38  60  90 128 171 216 257 306 376
#     4  12  21  33  60  92 125 165 210 262 316 364
#     4  11  24  43  66  92 126 170 223 278 334 399
#     4  11  24  40  61  89 119 156 205 261 318 375
#     4  12  24  42  60  80 118 164 204 252 314 388
#
# _framework density 20.604996
#
# number of rings (size 3 to 8) (size 9 to 14) (size 15 to 20)
#    0.000    1.684    0.000    6.000    0.000    5.895 
#    0.000    2.105    0.000    5.684    0.000    0.000 
#    0.000    0.000    0.000    0.000    0.000    0.000 
#
# Total GULP energy -212127.176847 kJ/mol
# GULP energy per Si atom -5582.294128 kJ/mol
# Density = 2.055810 g / cm^3
# Si number density = 20.604996 Si / 1000 Ang^3
#
#
#
# Elastic Constant Matrix: (Units=GPa)
#
#
# Indices 1 2 3 4 5 6 
#
# 1 106.5479 55.4623 87.9444 0.0000 0.0000 0.0000
# 2 55.4623 106.5480 87.9444 0.0000 0.0000 0.0000
# 3 87.9444 87.9444 195.5979 0.0000 0.0000 0.0000
# 4 0.0000 0.0000 0.0000 209.3069 0.0000 0.0000
# 5 0.0000 0.0000 0.0000 0.0000 209.3140 0.0000
# 6 0.0000 0.0000 0.0000 0.0000 0.0000 26.2001
#
#
#
# Elastic Compliance Matrix: (Units=1/GPa)
#
#
# Indices 1 2 3 4 5 6 
#
# 1 0.015817 -0.003758 -0.005422 0.000000 0.000000 0.000000
# 2 -0.003758 0.015817 -0.005422 0.000000 0.000000 0.000000
# 3 -0.005422 -0.005422 0.009988 0.000000 0.000000 0.000000
# 4 0.000000 0.000000 0.000000 0.004778 0.000000 0.000000
# 5 0.000000 0.000000 0.000000 0.000000 0.004778 0.000000
# 6 0.000000 0.000000 0.000000 0.000000 0.000000 0.038168
#
#
# Mechanical properties :
#
#
# Convention : Reuss Voigt Hill
#
# Bulk Modulus (GPa) = 80.52698 96.82177 88.67437
# Shear Modulus (GPa) = 40.75388 100.78704 70.77046
#
# Velocity S-wave (km/s) = 4.45214 7.00143 5.86693
# Velocity P-wave (km/s) = 8.09907 10.60432 9.43521
#
# Compressibility (1/GPa) = 0.01241820
#
# Stress axis : x y z
#
# Youngs Moduli (GPa) = 63.22359 63.22380 100.11975
#
# Poissons Ratio (x) = 0.23760 0.54283
# Poissons Ratio (y) = 0.23760 0.54283
# Poissons Ratio (z) = 0.34279 0.34279
#
# Static dielectric constant tensor:
#      x y z
#    x 1.741100 0.000000 0.000000 
#    y 0.000000 1.741100 0.000000 
#    z 0.000000 0.000000 1.727000 
# 
# From -- ./inp_files/2904.got.cif
#   From: 2010.05.17/outbox.cif.g08.bks.cpg/sg90_2_cif.got.tgz:2904.got - 2010.06.03 19:17:45.
