data_PCOD9547658
_publ_section_title
;
Structure prediction by ZEFSAII (Michael W. Deem and Ramdas Pophale) SiO2 
 PCOD9547658
Probable space group: P 41 2 2
;
_chemical_formula_sum "Si O2"
_cell_formula_units_Z 40
_cell_length_a 14.719865
_cell_length_b 14.719865
_cell_length_c 9.591106
_cell_angle_alpha 90.000000
_cell_angle_beta 90.000000
_cell_angle_gamma 90.000000
_cell_volume 2078.147384
_symmetry_space_group_name_H-M "P 41 2 2"
_symmetry_group_IT_number 91
_symmetry_cell_setting 'tetragonal'
loop_
_space_group_symop_operation_xyz
x,y,z
-y,x,1/4+z
-x,-y,1/2+z
y,-x,3/4+z
x,-y,1/2-z
-x,y,-z
y,x,3/4-z
-y,-x,1/4-z
loop_
_atom_site_type_symbol
_atom_site_label
_atom_site_fract_x
_atom_site_fract_y
_atom_site_fract_z
Si Si1 0.500000 0.890819 0.500000
Si Si2 0.240353 0.000000 0.750000
Si Si3 0.231982 0.500000 0.250000
Si Si4 0.330413 0.000000 0.250000
Si Si5 0.183976 0.683406 0.877184
Si Si6 0.326012 0.326012 0.375000
Si Si7 0.817045 0.817045 0.375000
Si Si8 0.606858 0.058283 0.446297
O O1 0.577698 0.834511 0.580730
O O2 0.555012 0.964119 0.405299
O O3 0.190733 0.919383 0.675193
O O4 0.300309 0.949224 0.866467
O O5 0.296704 0.428168 0.329109
O O6 0.155207 0.440243 0.167129
O O7 0.281989 0.087107 0.186039
O O8 0.380721 0.044793 0.385573
O O9 0.203493 0.743649 0.743987
O O10 0.260282 0.692512 0.994002
#
# Coordination Sequence:
#
# PCOD9547658 Si02
#       8
#     4   4   4   4   8   4   4   8
#     4   9  20  38  65 106 134 164 215 290 351 392
#     4  12  24  43  67 102 132 186 224 283 337 408
#     4  11  24  40  65 100 134 176 227 286 331 402
#     4  10  18  43  63 108 130 170 210 291 343 402
#     4  11  24  42  68 106 141 177 227 291 352 407
#     4  12  26  42  68 100 140 186 234 278 348 412
#     4  12  26  44  64 100 146 184 226 278 346 416
#     4  10  21  38  73  99 135 168 221 287 347 393
#
# _framework density 19.247913
#
# number of rings (size 3 to 8) (size 9 to 14) (size 15 to 20)
#    0.000    1.200    6.000    1.200    2.800    3.200 
#    0.000    2.000    0.000    1.200    0.000    0.000 
#    0.000    0.000    0.000    0.000    0.000    0.000 
#
# Total GULP energy -222721.163564 kJ/mol
# GULP energy per Si atom -5568.029089 kJ/mol
# Density = 1.920410 g / cm^3
# Si number density = 19.247913 Si / 1000 Ang^3
#
#
#
# Elastic Constant Matrix: (Units=GPa)
#
#
# Indices 1 2 3 4 5 6 
#
# 1 104.4727 78.8974 63.8781 0.0000 0.0000 0.0000
# 2 78.8974 104.4727 63.8781 0.0000 0.0000 0.0000
# 3 63.8781 63.8781 121.4950 0.0000 0.0000 0.0000
# 4 0.0000 0.0000 0.0000 46.8649 0.0000 0.0000
# 5 0.0000 0.0000 0.0000 0.0000 46.8649 0.0000
# 6 0.0000 0.0000 0.0000 0.0000 0.0000 44.0425
#
#
#
# Elastic Compliance Matrix: (Units=1/GPa)
#
#
# Indices 1 2 3 4 5 6 
#
# 1 0.023853 -0.015247 -0.004525 0.000000 0.000000 0.000000
# 2 -0.015247 0.023853 -0.004525 0.000000 0.000000 0.000000
# 3 -0.004525 -0.004525 0.012989 0.000000 0.000000 0.000000
# 4 0.000000 0.000000 0.000000 0.021338 0.000000 0.000000
# 5 0.000000 0.000000 0.000000 0.000000 0.021338 0.000000
# 6 0.000000 0.000000 0.000000 0.000000 0.000000 0.022705
#
#
# Mechanical properties :
#
#
# Convention : Reuss Voigt Hill
#
# Bulk Modulus (GPa) = 82.63340 82.63862 82.63601
# Shear Modulus (GPa) = 27.97938 35.80688 31.89313
#
# Velocity S-wave (km/s) = 3.81679 4.31780 4.07500
# Velocity P-wave (km/s) = 7.90241 8.23923 8.07258
#
# Compressibility (1/GPa) = 0.01210164
#
# Stress axis : x y z
#
# Youngs Moduli (GPa) = 41.92335 41.92335 76.99025
#
# Poissons Ratio (x) = 0.63921 0.34836
# Poissons Ratio (y) = 0.63921 0.34836
# Poissons Ratio (z) = 0.18969 0.18969
#
# Static dielectric constant tensor:
#      x y z
#    x 1.695960 0.000000 0.000000 
#    y 0.000000 1.695960 0.000000 
#    z 0.000000 0.000000 1.714610 
# 
# From -- ./inp_files/9812.got.cif
#   From: 2010.05.17/outbox.cif.g08.bks.cpg/sg91_5_cif.got.tgz:9812.got - 2010.06.03 19:20:03.
