data_PCOD9547640
_publ_section_title
;
Structure prediction by ZEFSAII (Michael W. Deem and Ramdas Pophale) SiO2 
 PCOD9547640
Probable space group: P 41 2 2
;
_chemical_formula_sum "Si O2"
_cell_formula_units_Z 48
_cell_length_a 8.855004
_cell_length_b 8.855004
_cell_length_c 30.659637
_cell_angle_alpha 90.000000
_cell_angle_beta 90.000000
_cell_angle_gamma 90.000000
_cell_volume 2404.055735
_symmetry_space_group_name_H-M "P 41 2 2"
_symmetry_group_IT_number 91
_symmetry_cell_setting 'tetragonal'
loop_
_space_group_symop_operation_xyz
x,y,z
-y,x,1/4+z
-x,-y,1/2+z
y,-x,3/4+z
x,-y,1/2-z
-x,y,-z
y,x,3/4-z
-y,-x,1/4-z
loop_
_atom_site_type_symbol
_atom_site_label
_atom_site_fract_x
_atom_site_fract_y
_atom_site_fract_z
Si Si1 0.772853 0.227148 0.625000
Si Si2 0.534552 0.000000 0.250000
Si Si3 0.500000 0.513274 0.500000
Si Si4 0.340921 0.949373 0.979183
Si Si5 0.456149 0.294575 0.583161
Si Si6 0.597629 0.402372 0.125000
Si Si7 0.718535 0.255727 0.212512
Si Si8 0.122740 0.763743 0.033860
O O1 0.603565 0.223799 0.605497
O O2 0.886684 0.205698 0.584931
O O3 0.637850 0.905658 0.282806
O O4 0.415518 0.892247 0.224478
O O5 0.497777 0.404747 0.542262
O O6 0.641432 0.626532 0.497132
O O7 0.251811 0.103390 0.970725
O O8 0.359324 0.841928 0.936894
O O9 0.500000 0.997134 0.000000
O O10 0.271602 0.839454 0.015452
O O11 0.382257 0.417121 0.616171
O O12 0.683889 0.337791 0.166834
O O13 0.000000 0.828172 0.000000
#
# Coordination Sequence:
#
# PCOD9547640 Si02
#       8
#     4   4   4   8   8   4   8   8
#     4  11  18  38  67  98 122 164 237 281 334 398
#     4  10  24  44  66  92 136 186 224 272 358 434
#     4  10  18  38  62  94 128 172 232 272 330 390
#     4  12  22  42  66  97 136 177 228 285 342 410
#     4  10  19  34  67  92 128 170 231 294 320 394
#     4   9  22  40  61  96 132 172 241 293 330 410
#     4  11  23  40  64  97 136 178 217 281 354 416
#     4  10  24  42  68  96 133 181 226 286 345 420
#
# _framework density 19.966259999999998
#
# number of rings (size 3 to 8) (size 9 to 14) (size 15 to 20)
#    0.500    1.000    3.333    3.000    1.167    1.333 
#    0.000    0.833    0.000    0.000    0.000    0.000 
#    0.000    0.000    0.000    0.000    0.000    0.000 
#
# Total GULP energy -267435.837051 kJ/mol
# GULP energy per Si atom -5571.579939 kJ/mol
# Density = 1.992082 g / cm^3
# Si number density = 19.966260 Si / 1000 Ang^3
#
#
#
# Elastic Constant Matrix: (Units=GPa)
#
#
# Indices 1 2 3 4 5 6 
#
# 1 83.0833 37.3646 33.5851 0.0000 0.0000 0.0000
# 2 37.3646 83.0839 33.5852 0.0000 0.0000 0.0000
# 3 33.5851 33.5852 114.4163 0.0000 0.0000 0.0000
# 4 0.0000 0.0000 0.0000 22.2736 0.0000 0.0000
# 5 0.0000 0.0000 0.0000 0.0000 22.2735 0.0000
# 6 0.0000 0.0000 0.0000 0.0000 0.0000 21.0734
#
#
#
# Elastic Compliance Matrix: (Units=1/GPa)
#
#
# Indices 1 2 3 4 5 6 
#
# 1 0.015900 -0.005973 -0.002914 0.000000 0.000000 0.000000
# 2 -0.005973 0.015900 -0.002914 0.000000 0.000000 0.000000
# 3 -0.002914 -0.002914 0.010451 0.000000 0.000000 0.000000
# 4 0.000000 0.000000 0.000000 0.044896 0.000000 0.000000
# 5 0.000000 0.000000 0.000000 0.000000 0.044896 0.000000
# 6 0.000000 0.000000 0.000000 0.000000 0.000000 0.047453
#
#
# Mechanical properties :
#
#
# Convention : Reuss Voigt Hill
#
# Bulk Modulus (GPa) = 53.62102 54.40592 54.01347
# Shear Modulus (GPa) = 23.88748 24.86067 24.37408
#
# Velocity S-wave (km/s) = 3.46264 3.53247 3.49773
# Velocity P-wave (km/s) = 6.54986 6.62917 6.58963
#
# Compressibility (1/GPa) = 0.01864940
#
# Stress axis : x y z
#
# Youngs Moduli (GPa) = 62.89256 62.89306 95.68689
#
# Poissons Ratio (x) = 0.37564 0.27884
# Poissons Ratio (y) = 0.37564 0.27883
# Poissons Ratio (z) = 0.18327 0.18327
#
# Static dielectric constant tensor:
#      x y z
#    x 1.746390 0.000000 0.000000 
#    y 0.000000 1.746390 0.000000 
#    z 0.000000 0.000000 1.788950 
# 
# From -- ./inp_files/22334.got.cif
#   From: 2010.05.17/outbox.cif.g08.bks.cpg/sg91_12_cif.got.tgz:22334.got - 2010.06.03 19:20:03.
