data_PCOD9547735
_publ_section_title
;
Structure prediction by ZEFSAII (Michael W. Deem and Ramdas Pophale) SiO2 
 PCOD9547735
Probable space group: P 41 2 2
;
_chemical_formula_sum "Si O2"
_cell_formula_units_Z 44
_cell_length_a 13.921208
_cell_length_b 13.921208
_cell_length_c 11.529974
_cell_angle_alpha 90.000000
_cell_angle_beta 90.000000
_cell_angle_gamma 90.000000
_cell_volume 2234.509332
_symmetry_space_group_name_H-M "P 41 2 2"
_symmetry_group_IT_number 91
_symmetry_cell_setting 'tetragonal'
loop_
_space_group_symop_operation_xyz
x,y,z
-y,x,1/4+z
-x,-y,1/2+z
y,-x,3/4+z
x,-y,1/2-z
-x,y,-z
y,x,3/4-z
-y,-x,1/4-z
loop_
_atom_site_type_symbol
_atom_site_label
_atom_site_fract_x
_atom_site_fract_y
_atom_site_fract_z
Si Si1 0.115077 0.585674 0.518556
Si Si2 0.310975 0.120792 0.003102
Si Si3 0.238777 0.923173 0.050497
Si Si4 0.888480 0.206533 0.950452
Si Si5 0.627651 0.117893 0.742439
Si Si6 0.038695 0.961306 0.125000
O O1 0.144384 0.614870 0.650492
O O2 0.143240 0.682154 0.452870
O O3 0.150238 0.482321 0.476880
O O4 0.000000 0.580065 0.500000
O O5 0.199072 0.150733 0.987821
O O6 0.340844 0.153625 0.130836
O O7 0.309404 0.005211 0.004051
O O8 0.300308 0.858493 0.137544
O O9 0.153436 0.973015 0.121923
O O10 0.184201 0.887312 0.936025
O O11 0.000000 0.200523 0.000000
O O12 0.630492 0.000000 0.750000
O O13 0.000998 0.000000 0.250000
#
# Coordination Sequence:
#
# PCOD9547735 Si02
#       6
#     8   8   8   8   8   4
#     4  10  19  35  52  79 102 139 191 244 302 344
#     4  11  20  35  53  74 110 146 191 239 292 338
#     4  11  21  37  53  73 108 148 201 241 289 342
#     4  11  22  34  52  80 112 154 189 238 296 354
#     4   9  20  34  56  75  99 143 192 248 298 346
#     4  12  26  42  56  80 114 168 218 252 284 338
#
# _framework density 19.691123000000001
#
# number of rings (size 3 to 8) (size 9 to 14) (size 15 to 20)
#    0.000    1.455    3.636    4.909    0.000    3.636 
#    0.000    0.000    0.000    1.091    0.000    0.000 
#    0.000    0.000   61.818    0.000    0.000    0.182 
#
# Total GULP energy -244963.827956 kJ/mol
# GULP energy per Si atom -5567.359726 kJ/mol
# Density = 1.964631 g / cm^3
# Si number density = 19.691123 Si / 1000 Ang^3
#
#
#
# Elastic Constant Matrix: (Units=GPa)
#
#
# Indices 1 2 3 4 5 6 
#
# 1 82.3197 9.8821 34.6074 0.0000 0.0000 0.0000
# 2 9.8821 82.3190 34.6074 0.0000 0.0000 0.0000
# 3 34.6074 34.6074 148.2728 0.0000 0.0000 0.0000
# 4 0.0000 0.0000 0.0000 22.7240 0.0000 0.0000
# 5 0.0000 0.0000 0.0000 0.0000 22.7240 0.0000
# 6 0.0000 0.0000 0.0000 0.0000 0.0000 -9.9030
#
#
#
# Elastic Compliance Matrix: (Units=1/GPa)
#
#
# Indices 1 2 3 4 5 6 
#
# 1 0.013477 -0.000328 -0.003069 0.000000 0.000000 0.000000
# 2 -0.000328 0.013478 -0.003069 0.000000 0.000000 0.000000
# 3 -0.003069 -0.003069 0.008177 0.000000 0.000000 0.000000
# 4 0.000000 0.000000 0.000000 0.044006 0.000000 0.000000
# 5 0.000000 0.000000 0.000000 0.000000 0.044006 0.000000
# 6 0.000000 0.000000 0.000000 0.000000 0.000000 -0.100980
#
#
# Mechanical properties :
#
#
# Convention : Reuss Voigt Hill
#
# Bulk Modulus (GPa) = 45.04529 52.34504 48.69516
# Shear Modulus (GPa) = 117.65567 22.69664 70.17616
#
# Velocity S-wave (km/s) = 7.73824 3.39873 5.97627
# Velocity P-wave (km/s) = 10.13736 6.48402 8.50907
#
# Compressibility (1/GPa) = 0.02219988
#
# Stress axis : x y z
#
# Youngs Moduli (GPa) = 74.19829 74.19763 122.29335
#
# Poissons Ratio (x) = 0.02431 0.37534
# Poissons Ratio (y) = 0.02431 0.37535
# Poissons Ratio (z) = 0.22773 0.22773
#
# Static dielectric constant tensor:
#      x y z
#    x 1.736150 0.000000 0.000000 
#    y 0.000000 1.736160 0.000000 
#    z 0.000000 0.000000 1.848340 
# 
# From -- ./inp_files/3742.got.cif
#   From: 2010.05.17/outbox.cif.g08.bks.cpg/sg91_2_cif.got.tgz:3742.got - 2010.06.03 19:20:03.
