data_PCOD9547404
_publ_section_title
;
Structure prediction by ZEFSAII (Michael W. Deem and Ramdas Pophale) SiO2 
 PCOD9547404
Probable space group: P 4 21 2
;
_chemical_formula_sum "Si O2"
_cell_formula_units_Z 40
_cell_length_a 13.358164
_cell_length_b 13.358164
_cell_length_c 10.236660
_cell_angle_alpha 90.000000
_cell_angle_beta 90.000000
_cell_angle_gamma 90.000000
_cell_volume 1826.635194
_symmetry_space_group_name_H-M "P 4 21 2"
_symmetry_group_IT_number 90
_symmetry_cell_setting 'tetragonal'
loop_
_space_group_symop_operation_xyz
x,y,z
1/2-y,1/2+x,z
-x,-y,z
1/2+y,1/2-x,z
1/2+x,1/2-y,-z
1/2-x,1/2+y,-z
y,x,-z
-y,-x,-z
loop_
_atom_site_type_symbol
_atom_site_label
_atom_site_fract_x
_atom_site_fract_y
_atom_site_fract_z
Si Si1 0.392507 0.879251 0.256972
Si Si2 0.816316 0.825339 0.860895
Si Si3 0.382119 0.535289 0.377160
Si Si4 0.614934 0.114951 0.812770
Si Si5 0.288565 0.872555 0.535250
O O1 0.508301 0.864984 0.217435
O O2 0.341529 0.783204 0.194975
O O3 0.360394 0.887018 0.410152
O O4 0.845917 0.906271 0.750694
O O5 0.697362 0.822837 0.886510
O O6 0.858900 0.858900 0.000000
O O7 0.500000 0.500000 0.358607
O O8 0.390494 0.609507 0.500000
O O9 0.300104 0.452099 0.423165
O O10 0.499407 0.135423 0.842022
O O11 0.640192 0.132186 0.660540
O O12 0.225996 0.774005 0.500000
#
# Coordination Sequence:
#
# PCOD9547404 Si02
#       5
#     8   8   8   8   8
#     4  11  26  45  72 106 145 193 246 307 374 445
#     4  12  28  47  72 105 148 200 245 299 370 442
#     4  11  24  44  75 113 146 185 244 311 369 435
#     4  11  24  44  71 104 142 189 245 300 362 440
#     4  12  21  40  74 112 144 183 241 312 375 428
#
# _framework density 21.898187
#
# number of rings (size 3 to 8) (size 9 to 14) (size 15 to 20)
#    0.000    0.600    6.000    2.400    2.800    3.600 
#    0.000    2.000    0.000    0.000    0.000    0.000 
#    0.000    0.000    0.000    0.000    0.000    0.000 
#
# Total GULP energy -223204.239339 kJ/mol
# GULP energy per Si atom -5580.105983 kJ/mol
# Density = 2.184835 g / cm^3
# Si number density = 21.898187 Si / 1000 Ang^3
#
#
#
# Elastic Constant Matrix: (Units=GPa)
#
#
# Indices 1 2 3 4 5 6 
#
# 1 107.1095 54.5000 19.4832 0.0000 0.0000 0.0000
# 2 54.5000 107.1084 19.4840 0.0000 0.0000 0.0000
# 3 19.4832 19.4840 109.0171 0.0000 0.0000 0.0000
# 4 0.0000 0.0000 0.0000 -16.7000 0.0000 0.0000
# 5 0.0000 0.0000 0.0000 0.0000 -16.6998 0.0000
# 6 0.0000 0.0000 0.0000 0.0000 0.0000 -55.9829
#
#
#
# Elastic Compliance Matrix: (Units=1/GPa)
#
#
# Indices 1 2 3 4 5 6 
#
# 1 0.012737 -0.006271 -0.001156 0.000000 0.000000 0.000000
# 2 -0.006271 0.012737 -0.001156 0.000000 0.000000 0.000000
# 3 -0.001156 -0.001156 0.009586 0.000000 0.000000 0.000000
# 4 0.000000 0.000000 0.000000 -0.059880 0.000000 0.000000
# 5 0.000000 0.000000 0.000000 0.000000 -0.059881 0.000000
# 6 0.000000 0.000000 0.000000 0.000000 0.000000 -0.017863
#
#
# Mechanical properties :
#
#
# Convention : Reuss Voigt Hill
#
# Bulk Modulus (GPa) = 55.87812 56.68549 56.28181
# Shear Modulus (GPa) = -62.94604 -2.55870 -32.75237
#
# Velocity S-wave (km/s) = -5.36724 -1.08212 -3.87158
# Velocity P-wave (km/s) = 3.58288 4.93769 2.40247
#
# Compressibility (1/GPa) = 0.01789609
#
# Stress axis : x y z
#
# Youngs Moduli (GPa) = 78.51001 78.50895 104.31920
#
# Poissons Ratio (x) = 0.49232 0.12055
# Poissons Ratio (y) = 0.49233 0.12057
# Poissons Ratio (z) = 0.09073 0.09074
#
# Static dielectric constant tensor:
#      x y z
#    x 1.856710 0.000000 0.000000 
#    y 0.000000 1.856710 0.000000 
#    z 0.000000 0.000000 1.838590 
# 
# From -- ./inp_files/1306.got.cif
#   From: 2010.05.17/outbox.cif.g08.bks.cpg/sg90_1_cif.got.tgz:1306.got - 2010.06.03 19:17:45.
