data_PCOD9547109
_publ_section_title
;
Structure prediction by ZEFSAII (Michael W. Deem and Ramdas Pophale) SiO2 
 PCOD9547109
Probable space group: P 4 21 2
;
_chemical_formula_sum "Si O2"
_cell_formula_units_Z 48
_cell_length_a 12.910547
_cell_length_b 12.910547
_cell_length_c 12.819385
_cell_angle_alpha 90.000000
_cell_angle_beta 90.000000
_cell_angle_gamma 90.000000
_cell_volume 2136.763600
_symmetry_space_group_name_H-M "P 4 21 2"
_symmetry_group_IT_number 90
_symmetry_cell_setting 'tetragonal'
loop_
_space_group_symop_operation_xyz
x,y,z
1/2-y,1/2+x,z
-x,-y,z
1/2+y,1/2-x,z
1/2+x,1/2-y,-z
1/2-x,1/2+y,-z
y,x,-z
-y,-x,-z
loop_
_atom_site_type_symbol
_atom_site_label
_atom_site_fract_x
_atom_site_fract_y
_atom_site_fract_z
Si Si1 0.577572 0.319825 0.917390
Si Si2 0.289579 0.858545 0.597668
Si Si3 0.785154 0.952838 0.476101
Si Si4 0.359095 0.096520 0.071848
Si Si5 0.846568 0.760633 0.731526
Si Si6 0.537214 0.832841 0.809693
O O1 0.640854 0.339026 0.810100
O O2 0.468226 0.273817 0.874455
O O3 0.585556 0.414445 0.000000
O O4 0.626685 0.230349 0.992051
O O5 0.383039 0.804664 0.532909
O O6 0.248364 0.759731 0.665048
O O7 0.225820 0.930828 0.517737
O O8 0.314239 0.941311 0.688390
O O9 0.893274 0.893274 0.500000
O O10 0.770869 0.937475 0.352851
O O11 0.473441 0.136934 0.055747
O O12 0.329887 0.129690 0.188179
O O13 0.616922 0.925054 0.830524
#
# Coordination Sequence:
#
# PCOD9547109 Si02
#       6
#     8   8   8   8   8   8
#     4  10  20  36  57  89 135 173 212 266 344 414
#     4  11  20  37  63  96 134 172 224 283 342 410
#     4  10  22  38  57  96 133 170 222 281 342 399
#     4  10  22  39  61  99 134 172 222 284 356 411
#     4  10  22  39  59  91 138 178 209 267 349 409
#     4  11  18  29  56  95 127 155 208 281 339 383
#
# _framework density 22.463878999999999
#
# number of rings (size 3 to 8) (size 9 to 14) (size 15 to 20)
#    0.000    1.667    3.333    2.000    2.333    1.667 
#    0.000    0.000    0.000    4.500    0.000    3.500 
#    0.000    0.000    0.000    0.000    0.000    0.000 
#
# Total GULP energy -267318.856520 kJ/mol
# GULP energy per Si atom -5569.142844 kJ/mol
# Density = 2.241275 g / cm^3
# Si number density = 22.463879 Si / 1000 Ang^3
#
#
#
# Elastic Constant Matrix: (Units=GPa)
#
#
# Indices 1 2 3 4 5 6 
#
# 1 46.8425 44.8167 40.9196 0.0000 0.0000 0.0000
# 2 44.8167 46.8412 40.9192 0.0000 0.0000 0.0000
# 3 40.9196 40.9192 169.2049 0.0000 0.0000 0.0000
# 4 0.0000 0.0000 0.0000 37.3326 0.0000 0.0000
# 5 0.0000 0.0000 0.0000 0.0000 37.3325 0.0000
# 6 0.0000 0.0000 0.0000 0.0000 0.0000 31.2252
#
#
#
# Elastic Compliance Matrix: (Units=1/GPa)
#
#
# Indices 1 2 3 4 5 6 
#
# 1 0.253858 -0.239947 -0.003365 0.000000 0.000000 0.000000
# 2 -0.239947 0.253866 -0.003365 0.000000 0.000000 0.000000
# 3 -0.003365 -0.003365 0.007538 0.000000 0.000000 0.000000
# 4 0.000000 0.000000 0.000000 0.026786 0.000000 0.000000
# 5 0.000000 0.000000 0.000000 0.000000 0.026786 0.000000
# 6 0.000000 0.000000 0.000000 0.000000 0.000000 0.032025
#
#
# Mechanical properties :
#
#
# Convention : Reuss Voigt Hill
#
# Bulk Modulus (GPa) = 45.64828 57.35550 51.50189
# Shear Modulus (GPa) = 4.53920 30.26025 17.39972
#
# Velocity S-wave (km/s) = 1.42304 3.67422 2.78612
# Velocity P-wave (km/s) = 4.80260 6.60209 5.77289
#
# Compressibility (1/GPa) = 0.02190663
#
# Stress axis : x y z
#
# Youngs Moduli (GPa) = 3.93921 3.93909 132.66935
#
# Poissons Ratio (x) = 0.94517 0.44638
# Poissons Ratio (y) = 0.94520 0.44649
# Poissons Ratio (z) = 0.01325 0.01326
#
# Static dielectric constant tensor:
#      x y z
#    x 1.904490 0.000000 0.000000 
#    y 0.000000 1.904490 0.000000 
#    z 0.000000 0.000000 1.895450 
# 
# From -- ./inp_files/2135.got.cif
#   From: 2010.05.17/outbox.cif.g08.bks.cpg/sg90_2_cif.got.tgz:2135.got - 2010.06.03 19:17:45.
