data_PCOD9547359
_publ_section_title
;
Structure prediction by ZEFSAII (Michael W. Deem and Ramdas Pophale) SiO2 
 PCOD9547359
Probable space group: P 4 21 2
;
_chemical_formula_sum "Si O2"
_cell_formula_units_Z 50
_cell_length_a 8.313632
_cell_length_b 8.313632
_cell_length_c 33.666390
_cell_angle_alpha 90.000000
_cell_angle_beta 90.000000
_cell_angle_gamma 90.000000
_cell_volume 2326.902271
_symmetry_space_group_name_H-M "P 4 21 2"
_symmetry_group_IT_number 90
_symmetry_cell_setting 'tetragonal'
loop_
_space_group_symop_operation_xyz
x,y,z
1/2-y,1/2+x,z
-x,-y,z
1/2+y,1/2-x,z
1/2+x,1/2-y,-z
1/2-x,1/2+y,-z
y,x,-z
-y,-x,-z
loop_
_atom_site_type_symbol
_atom_site_label
_atom_site_fract_x
_atom_site_fract_y
_atom_site_fract_z
Si Si1 0.411755 0.258000 0.214463
Si Si2 0.080193 0.759716 0.463833
Si Si3 0.500000 0.500000 0.000000
Si Si4 0.417522 0.258129 0.303791
Si Si5 0.261101 0.425579 0.141124
Si Si6 0.920353 0.240443 0.375927
Si Si7 0.050513 0.764439 0.927707
O O1 0.595193 0.195779 0.210165
O O2 0.392032 0.323188 0.259239
O O3 0.355117 0.381335 0.181283
O O4 0.192849 0.600883 0.466293
O O5 0.127563 0.872438 0.500000
O O6 0.104894 0.832342 0.419852
O O7 0.648754 0.526192 0.969946
O O8 0.599030 0.193864 0.306862
O O9 0.370341 0.373960 0.339343
O O10 0.191226 0.604952 0.139793
O O11 0.377509 0.387347 0.104402
O O12 0.807373 0.398829 0.373664
O O13 0.178574 0.620326 0.922717
#
# Coordination Sequence:
#
# PCOD9547359 Si02
#       7
#     8   8   2   8   8   8   8
#     4   9  19  37  59  83 115 156 200 246 298 355
#     4   9  19  35  52  72 100 134 174 224 283 346
#     4  12  24  44  68  96 128 160 204 256 300 356
#     4   9  19  35  54  79 111 146 188 238 290 347
#     4  11  24  40  60  91 129 166 207 256 306 359
#     4   9  19  35  52  72 103 141 180 226 283 348
#     4  11  24  42  66  94 125 164 205 248 303 361
#
# _framework density 21.487794999999998
#
# number of rings (size 3 to 8) (size 9 to 14) (size 15 to 20)
#    0.000    2.240    0.000    4.320    0.000    6.720 
#    0.000   11.200    0.000    0.000    0.000    0.000 
#    0.000    0.000    0.000    0.000    0.000    0.000 
#
# Total GULP energy -279438.529267 kJ/mol
# GULP energy per Si atom -5588.770585 kJ/mol
# Density = 2.143889 g / cm^3
# Si number density = 21.487795 Si / 1000 Ang^3
#
#
#
# Elastic Constant Matrix: (Units=GPa)
#
#
# Indices 1 2 3 4 5 6 
#
# 1 106.8162 30.7759 72.1685 0.0000 0.0000 0.0000
# 2 30.7759 106.8158 72.1683 0.0000 0.0000 0.0000
# 3 72.1685 72.1683 178.6590 0.0000 0.0000 0.0000
# 4 0.0000 0.0000 0.0000 102.3677 0.0000 0.0000
# 5 0.0000 0.0000 0.0000 0.0000 102.3677 0.0000
# 6 0.0000 0.0000 0.0000 0.0000 0.0000 44.2455
#
#
#
# Elastic Compliance Matrix: (Units=1/GPa)
#
#
# Indices 1 2 3 4 5 6 
#
# 1 0.012882 -0.000269 -0.005095 0.000000 0.000000 0.000000
# 2 -0.000269 0.012882 -0.005095 0.000000 0.000000 0.000000
# 3 -0.005095 -0.005095 0.009713 0.000000 0.000000 0.000000
# 4 0.000000 0.000000 0.000000 0.009769 0.000000 0.000000
# 5 0.000000 0.000000 0.000000 0.000000 0.009769 0.000000
# 6 0.000000 0.000000 0.000000 0.000000 0.000000 0.022601
#
#
# Mechanical properties :
#
#
# Convention : Reuss Voigt Hill
#
# Bulk Modulus (GPa) = 68.68563 82.50181 75.59372
# Shear Modulus (GPa) = 48.36274 64.27475 56.31874
#
# Velocity S-wave (km/s) = 4.74931 5.47514 5.12509
# Velocity P-wave (km/s) = 7.88092 8.85707 8.38321
#
# Compressibility (1/GPa) = 0.01455909
#
# Stress axis : x y z
#
# Youngs Moduli (GPa) = 77.63006 77.62987 102.95279
#
# Poissons Ratio (x) = 0.02091 0.52451
# Poissons Ratio (y) = 0.02091 0.52451
# Poissons Ratio (z) = 0.39550 0.39550
#
# Static dielectric constant tensor:
#      x y z
#    x 1.768920 0.000000 0.000000 
#    y 0.000000 1.768920 0.000000 
#    z 0.000000 0.000000 1.755890 
# 
# From -- ./inp_files/3053.got.cif
#   From: 2010.05.17/outbox.cif.g08.bks.cpg/sg90_2_cif.got.tgz:3053.got - 2010.06.03 19:17:45.
