data_PCOD9547166
_publ_section_title
;
Structure prediction by ZEFSAII (Michael W. Deem and Ramdas Pophale) SiO2 
 PCOD9547166
Probable space group: P 4 21 2
;
_chemical_formula_sum "Si O2"
_cell_formula_units_Z 40
_cell_length_a 14.633255
_cell_length_b 14.633255
_cell_length_c 9.191473
_cell_angle_alpha 90.000000
_cell_angle_beta 90.000000
_cell_angle_gamma 90.000000
_cell_volume 1968.189893
_symmetry_space_group_name_H-M "P 4 21 2"
_symmetry_group_IT_number 90
_symmetry_cell_setting 'tetragonal'
loop_
_space_group_symop_operation_xyz
x,y,z
1/2-y,1/2+x,z
-x,-y,z
1/2+y,1/2-x,z
1/2+x,1/2-y,-z
1/2-x,1/2+y,-z
y,x,-z
-y,-x,-z
loop_
_atom_site_type_symbol
_atom_site_label
_atom_site_fract_x
_atom_site_fract_y
_atom_site_fract_z
Si Si1 0.787576 0.956098 0.842366
Si Si2 0.279654 0.167947 0.387255
Si Si3 0.585872 0.124636 0.654653
Si Si4 0.045812 0.175294 0.827106
Si Si5 0.331243 0.334806 0.170536
O O1 0.710434 0.895772 0.761741
O O2 0.887312 0.911908 0.815581
O O3 0.789514 0.064038 0.802768
O O4 0.777262 0.946013 0.015353
O O5 0.203609 0.203609 0.500000
O O6 0.354268 0.125764 0.495535
O O7 0.243573 0.084806 0.291687
O O8 0.306636 0.253467 0.283156
O O9 0.477397 0.118886 0.678843
O O10 0.940165 0.151418 0.813729
O O11 0.311100 0.311100 0.000000
#
# Coordination Sequence:
#
# PCOD9547166 Si02
#       5
#     8   8   8   8   8
#     4  10  21  40  67  92 129 166 217 270 334 395
#     4  12  23  39  62  91 127 172 215 263 326 395
#     4  11  24  42  63  91 132 177 219 268 324 393
#     4  10  22  39  64  96 127 167 213 277 330 389
#     4  10  23  41  67  97 129 169 223 277 334 396
#
# _framework density 20.323240999999999
#
# number of rings (size 3 to 8) (size 9 to 14) (size 15 to 20)
#    0.000    1.400    2.000    3.000    2.800    4.000 
#    0.000    0.000    0.000    2.400    0.000    0.000 
#    0.000    0.000    0.000    0.000    0.000    0.000 
#
# Total GULP energy -222987.910595 kJ/mol
# GULP energy per Si atom -5574.697765 kJ/mol
# Density = 2.027698 g / cm^3
# Si number density = 20.323241 Si / 1000 Ang^3
#
#
#
# Elastic Constant Matrix: (Units=GPa)
#
#
# Indices 1 2 3 4 5 6 
#
# 1 95.9957 8.4015 42.7476 0.0000 0.0000 0.0000
# 2 8.4015 95.9957 42.7476 0.0000 0.0000 0.0000
# 3 42.7476 42.7476 73.4122 0.0000 0.0000 0.0000
# 4 0.0000 0.0000 0.0000 28.9462 0.0000 0.0000
# 5 0.0000 0.0000 0.0000 0.0000 28.9462 0.0000
# 6 0.0000 0.0000 0.0000 0.0000 0.0000 34.7603
#
#
#
# Elastic Compliance Matrix: (Units=1/GPa)
#
#
# Indices 1 2 3 4 5 6 
#
# 1 0.014863 0.003447 -0.010662 0.000000 0.000000 0.000000
# 2 0.003447 0.014863 -0.010662 0.000000 0.000000 0.000000
# 3 -0.010662 -0.010662 0.026039 0.000000 0.000000 0.000000
# 4 0.000000 0.000000 0.000000 0.034547 0.000000 0.000000
# 5 0.000000 0.000000 0.000000 0.000000 0.034547 0.000000
# 6 0.000000 0.000000 0.000000 0.000000 0.000000 0.028768
#
#
# Mechanical properties :
#
#
# Convention : Reuss Voigt Hill
#
# Bulk Modulus (GPa) = 49.97202 50.35524 50.16363
# Shear Modulus (GPa) = 25.50344 29.96436 27.73390
#
# Velocity S-wave (km/s) = 3.54629 3.84394 3.69811
# Velocity P-wave (km/s) = 6.43507 6.67324 6.55524
#
# Compressibility (1/GPa) = 0.02001120
#
# Stress axis : x y z
#
# Youngs Moduli (GPa) = 67.27961 67.27961 38.40441
#
# Poissons Ratio (x) = -0.23192 0.40947
# Poissons Ratio (y) = -0.23192 0.40947
# Poissons Ratio (z) = 0.71734 0.71734
#
# Static dielectric constant tensor:
#      x y z
#    x 1.744000 0.000000 0.000000 
#    y 0.000000 1.744000 0.000000 
#    z 0.000000 0.000000 1.718170 
# 
# From -- ./inp_files/1318.got.cif
#   From: 2010.05.17/outbox.cif.g08.bks.cpg/sg90_1_cif.got.tgz:1318.got - 2010.06.03 19:17:45.
