data_PCOD9547812
_publ_section_title
;
Structure prediction by ZEFSAII (Michael W. Deem and Ramdas Pophale) SiO2 
 PCOD9547812
Probable space group: P 41 2 2
;
_chemical_formula_sum "Si O2"
_cell_formula_units_Z 40
_cell_length_a 16.204520
_cell_length_b 16.204520
_cell_length_c 7.330103
_cell_angle_alpha 90.000000
_cell_angle_beta 90.000000
_cell_angle_gamma 90.000000
_cell_volume 1924.785860
_symmetry_space_group_name_H-M "P 41 2 2"
_symmetry_group_IT_number 91
_symmetry_cell_setting 'tetragonal'
loop_
_space_group_symop_operation_xyz
x,y,z
-y,x,1/4+z
-x,-y,1/2+z
y,-x,3/4+z
x,-y,1/2-z
-x,y,-z
y,x,3/4-z
-y,-x,1/4-z
loop_
_atom_site_type_symbol
_atom_site_label
_atom_site_fract_x
_atom_site_fract_y
_atom_site_fract_z
Si Si1 0.663756 0.764672 0.239263
Si Si2 0.922858 0.583554 0.871706
Si Si3 0.916155 0.083846 0.625000
Si Si4 0.478348 0.241342 0.285934
Si Si5 0.921924 0.250486 0.869090
Si Si6 0.661739 0.338262 0.625000
O O1 0.698051 0.698051 0.375000
O O2 0.567928 0.775965 0.296446
O O3 0.722495 0.843939 0.241963
O O4 0.668936 0.730808 0.031470
O O5 0.922452 0.500000 0.750000
O O6 0.838313 0.579211 0.987293
O O7 0.929304 0.667716 0.757854
O O8 0.000000 0.578198 0.000000
O O9 0.913515 0.166583 0.751281
O O10 0.000000 0.084384 0.500000
O O11 0.500000 0.246856 0.500000
O O12 0.423455 0.323134 0.264505
O O13 0.000000 0.241670 0.000000
#
# Coordination Sequence:
#
# PCOD9547812 Si02
#       6
#     8   8   4   8   8   4
#     4  11  24  41  67  97 137 175 229 285 341 405
#     4  11  21  39  63  99 141 178 221 280 360 429
#     4  12  29  52  74  98 134 186 235 292 352 418
#     4   9  19  39  62  92 129 184 216 277 343 403
#     4  12  26  44  68 103 135 176 235 289 356 428
#     4  10  19  42  68  86 134 180 221 264 334 408
#
# _framework density 20.781533
#
# number of rings (size 3 to 8) (size 9 to 14) (size 15 to 20)
#    0.000    1.200    6.000    2.400    2.800    2.400 
#    0.000    0.000   19.800    0.000    0.000    0.000 
#    0.000    0.000    0.000    0.000    0.000    0.000 
#
# Total GULP energy -222911.431764 kJ/mol
# GULP energy per Si atom -5572.785794 kJ/mol
# Density = 2.073423 g / cm^3
# Si number density = 20.781533 Si / 1000 Ang^3
#
#
#
# Elastic Constant Matrix: (Units=GPa)
#
#
# Indices 1 2 3 4 5 6 
#
# 1 154.1361 65.1329 40.1842 0.0000 0.0000 0.0000
# 2 65.1329 154.1371 40.1838 0.0000 0.0000 0.0000
# 3 40.1842 40.1838 40.6132 0.0000 0.0000 0.0000
# 4 0.0000 0.0000 0.0000 19.9542 0.0000 0.0000
# 5 0.0000 0.0000 0.0000 0.0000 19.9546 0.0000
# 6 0.0000 0.0000 0.0000 0.0000 0.0000 30.0234
#
#
#
# Elastic Compliance Matrix: (Units=1/GPa)
#
#
# Indices 1 2 3 4 5 6 
#
# 1 0.009196 -0.002040 -0.007080 0.000000 0.000000 0.000000
# 2 -0.002040 0.009195 -0.007080 0.000000 0.000000 0.000000
# 3 -0.007080 -0.007080 0.038633 0.000000 0.000000 0.000000
# 4 0.000000 0.000000 0.000000 0.050115 0.000000 0.000000
# 5 0.000000 0.000000 0.000000 0.000000 0.050114 0.000000
# 6 0.000000 0.000000 0.000000 0.000000 0.000000 0.033307
#
#
# Mechanical properties :
#
#
# Convention : Reuss Voigt Hill
#
# Bulk Modulus (GPa) = 40.61055 71.09871 55.85463
# Shear Modulus (GPa) = 21.62931 27.54546 24.58739
#
# Velocity S-wave (km/s) = 3.22964 3.64466 3.44341
# Velocity P-wave (km/s) = 5.78718 7.21097 6.53795
#
# Compressibility (1/GPa) = 0.02462414
#
# Stress axis : x y z
#
# Youngs Moduli (GPa) = 108.74746 108.74912 25.88467
#
# Poissons Ratio (x) = 0.22184 0.18327
# Poissons Ratio (y) = 0.22184 0.18326
# Poissons Ratio (z) = 0.76994 0.76993
#
# Static dielectric constant tensor:
#      x y z
#    x 1.856680 0.000000 0.000000 
#    y 0.000000 1.856680 0.000000 
#    z 0.000000 0.000000 1.781930 
# 
# From -- ./inp_files/15042.got.cif
#   From: 2010.05.17/outbox.cif.g08.bks.cpg/sg91_8_cif.got.tgz:15042.got - 2010.06.03 19:20:03.
