data_PCOD9547718
_publ_section_title
;
Structure prediction by ZEFSAII (Michael W. Deem and Ramdas Pophale) SiO2 
 PCOD9547718
Probable space group: P 41 2 2
;
_chemical_formula_sum "Si O2"
_cell_formula_units_Z 48
_cell_length_a 17.380990
_cell_length_b 17.380990
_cell_length_c 10.033386
_cell_angle_alpha 90.000000
_cell_angle_beta 90.000000
_cell_angle_gamma 90.000000
_cell_volume 3031.074005
_symmetry_space_group_name_H-M "P 41 2 2"
_symmetry_group_IT_number 91
_symmetry_cell_setting 'tetragonal'
loop_
_space_group_symop_operation_xyz
x,y,z
-y,x,1/4+z
-x,-y,1/2+z
y,-x,3/4+z
x,-y,1/2-z
-x,y,-z
y,x,3/4-z
-y,-x,1/4-z
loop_
_atom_site_type_symbol
_atom_site_label
_atom_site_fract_x
_atom_site_fract_y
_atom_site_fract_z
Si Si1 0.829351 0.209963 0.901841
Si Si2 0.086996 0.658372 0.549675
Si Si3 0.099064 0.900937 0.625000
Si Si4 0.000000 0.747350 0.000000
Si Si5 0.484695 0.070395 0.151885
Si Si6 0.860159 0.047675 0.527542
Si Si7 0.672727 0.866824 0.605630
O O1 0.875227 0.182701 0.771267
O O2 0.737459 0.199558 0.892105
O O3 0.856145 0.292124 0.957929
O O4 0.866777 0.149355 0.005142
O O5 0.099529 0.566653 0.543587
O O6 0.097921 0.679805 0.705597
O O7 0.000000 0.674707 0.500000
O O8 0.010339 0.885843 0.661894
O O9 0.075222 0.698839 0.971687
O O10 0.995152 0.800127 0.871064
O O11 0.418961 0.135525 0.133356
O O12 0.461893 0.000000 0.250000
O O13 0.500000 0.040635 0.000000
O O14 0.929209 0.070792 0.625000
#
# Coordination Sequence:
#
# PCOD9547718 Si02
#       7
#     8   8   4   4   8   8   8
#     4  12  21  36  51  66  92 128 166 207 254 299
#     4  10  19  34  51  72  93 124 167 202 248 306
#     4  12  22  38  46  60  86 124 170 216 248 286
#     4  12  20  36  48  62  92 118 168 206 248 292
#     4   9  19  32  52  75  95 123 163 209 253 305
#     4  12  24  38  44  65  87 131 171 217 256 289
#     4  11  19  33  52  70  93 122 160 207 256 292
#
# _framework density 15.835972
#
# number of rings (size 3 to 8) (size 9 to 14) (size 15 to 20)
#    0.000    1.000    5.833    2.500    0.000    0.000 
#   13.500    0.000    0.000    0.000    0.000    0.000 
#    0.000    0.000    0.000    0.000   76.000   11.167 
#
# Total GULP energy -267469.361048 kJ/mol
# GULP energy per Si atom -5572.278355 kJ/mol
# Density = 1.579993 g / cm^3
# Si number density = 15.835972 Si / 1000 Ang^3
#
#
#
# Elastic Constant Matrix: (Units=GPa)
#
#
# Indices 1 2 3 4 5 6 
#
# 1 89.9111 44.6749 20.9857 0.0000 0.0000 0.0000
# 2 44.6749 89.9124 20.9863 0.0000 0.0000 0.0000
# 3 20.9857 20.9863 51.0426 0.0000 0.0000 0.0000
# 4 0.0000 0.0000 0.0000 12.7577 0.0000 0.0000
# 5 0.0000 0.0000 0.0000 0.0000 12.7593 0.0000
# 6 0.0000 0.0000 0.0000 0.0000 0.0000 9.9082
#
#
#
# Elastic Compliance Matrix: (Units=1/GPa)
#
#
# Indices 1 2 3 4 5 6 
#
# 1 0.015314 -0.006791 -0.003504 0.000000 0.000000 0.000000
# 2 -0.006791 0.015314 -0.003504 0.000000 0.000000 0.000000
# 3 -0.003504 -0.003504 0.022473 0.000000 0.000000 0.000000
# 4 0.000000 0.000000 0.000000 0.078384 0.000000 0.000000
# 5 0.000000 0.000000 0.000000 0.000000 0.078374 0.000000
# 6 0.000000 0.000000 0.000000 0.000000 0.000000 0.100926
#
#
# Mechanical properties :
#
#
# Convention : Reuss Voigt Hill
#
# Bulk Modulus (GPa) = 39.21242 44.90667 42.05955
# Shear Modulus (GPa) = 14.41392 16.69966 15.55679
#
# Velocity S-wave (km/s) = 3.02023 3.25089 3.13768
# Velocity P-wave (km/s) = 6.08093 6.51997 6.30427
#
# Compressibility (1/GPa) = 0.02550212
#
# Stress axis : x y z
#
# Youngs Moduli (GPa) = 65.29769 65.29831 44.49791
#
# Poissons Ratio (x) = 0.44347 0.15592
# Poissons Ratio (y) = 0.44347 0.15593
# Poissons Ratio (z) = 0.22881 0.22883
#
# Static dielectric constant tensor:
#      x y z
#    x 1.573580 0.000000 0.000000 
#    y 0.000000 1.573570 0.000000 
#    z 0.000000 0.000000 1.575870 
# 
# From -- ./inp_files/15198.got.cif
#   From: 2010.05.17/outbox.cif.g08.bks.cpg/sg91_8_cif.got.tgz:15198.got - 2010.06.03 19:20:03.
