data_PCOD9547017
_publ_section_title
;
Structure prediction by ZEFSAII (Michael W. Deem and Ramdas Pophale) SiO2 
 PCOD9547017
Probable space group: P 4 2 2
;
_chemical_formula_sum "Si O2"
_cell_formula_units_Z 40
_cell_length_a 8.406368
_cell_length_b 8.406368
_cell_length_c 26.329201
_cell_angle_alpha 90.000000
_cell_angle_beta 90.000000
_cell_angle_gamma 90.000000
_cell_volume 1860.606251
_symmetry_space_group_name_H-M "P 4 2 2"
_symmetry_group_IT_number 89
_symmetry_cell_setting 'tetragonal'
loop_
_space_group_symop_operation_xyz
x,y,z
-y,x,z
-x,-y,z
y,-x,z
x,-y,-z
-x,y,-z
y,x,-z
-y,-x,-z
loop_
_atom_site_type_symbol
_atom_site_label
_atom_site_fract_x
_atom_site_fract_y
_atom_site_fract_z
Si Si1 0.263396 0.617661 0.288278
Si Si2 0.500000 0.232831 0.000000
Si Si3 0.783251 0.836685 0.389467
Si Si4 0.190842 0.809158 0.500000
Si Si5 0.745313 0.079047 0.803735
Si Si6 0.548375 0.764691 0.111124
O O1 0.295004 0.431933 0.278181
O O2 0.222742 0.666987 0.345682
O O3 0.124592 0.677233 0.251319
O O4 0.651179 0.348822 0.000000
O O5 0.468329 0.158971 0.055072
O O6 0.737400 0.768208 0.445234
O O7 0.969943 0.786623 0.384966
O O8 0.000000 0.785559 0.500000
O O9 0.614804 0.120938 0.845790
O O10 0.900849 0.191338 0.809196
O O11 0.379929 0.675896 0.115785
#
# Coordination Sequence:
#
# PCOD9547017 Si02
#       6
#     8   4   8   4   8   8
#     4  11  24  39  54  77 110 147 188 235 287 342
#     4   7  12  26  52  81 108 135 168 209 250 293
#     4   9  17  32  56  83 110 143 186 235 285 338
#     4   7  12  26  50  79 108 140 182 231 280 333
#     4  11  24  39  56  82 115 149 186 230 281 336
#     4   9  17  32  58  86 112 142 179 222 264 313
#
# _framework density 21.498370000000001
#
# number of rings (size 3 to 8) (size 9 to 14) (size 15 to 20)
#    0.000    2.600    0.000    4.800    0.000    8.800 
#    0.000    1.000    0.000   30.000    0.000   12.600 
#    0.000    0.000    0.000    0.000    0.000    0.000 
#
# Total GULP energy -222878.575340 kJ/mol
# GULP energy per Si atom -5571.964383 kJ/mol
# Density = 2.144944 g / cm^3
# Si number density = 21.498370 Si / 1000 Ang^3
#
#
#
# Elastic Constant Matrix: (Units=GPa)
#
#
# Indices 1 2 3 4 5 6 
#
# 1 57.4226 45.8769 38.6818 0.0000 0.0000 0.0000
# 2 45.8769 57.4233 38.6815 0.0000 0.0000 0.0000
# 3 38.6818 38.6815 175.7035 0.0000 0.0000 0.0000
# 4 0.0000 0.0000 0.0000 36.1302 0.0000 0.0000
# 5 0.0000 0.0000 0.0000 0.0000 36.1300 0.0000
# 6 0.0000 0.0000 0.0000 0.0000 0.0000 28.2380
#
#
#
# Elastic Compliance Matrix: (Units=1/GPa)
#
#
# Indices 1 2 3 4 5 6 
#
# 1 0.049101 -0.037509 -0.002552 0.000000 0.000000 0.000000
# 2 -0.037509 0.049100 -0.002552 0.000000 0.000000 0.000000
# 3 -0.002552 -0.002552 0.006815 0.000000 0.000000 0.000000
# 4 0.000000 0.000000 0.000000 0.027678 0.000000 0.000000
# 5 0.000000 0.000000 0.000000 0.000000 0.027678 0.000000
# 6 0.000000 0.000000 0.000000 0.000000 0.000000 0.035413
#
#
# Mechanical properties :
#
#
# Convention : Reuss Voigt Hill
#
# Bulk Modulus (GPa) = 50.52865 59.66997 55.09931
# Shear Modulus (GPa) = 17.38476 31.25358 24.31917
#
# Velocity S-wave (km/s) = 2.84677 3.81696 3.36700
# Velocity P-wave (km/s) = 5.86174 6.87324 6.38754
#
# Compressibility (1/GPa) = 0.01979075
#
# Stress axis : x y z
#
# Youngs Moduli (GPa) = 20.36609 20.36643 146.73400
#
# Poissons Ratio (x) = 0.76393 0.37448
# Poissons Ratio (y) = 0.76391 0.37444
# Poissons Ratio (z) = 0.05198 0.05197
#
# Static dielectric constant tensor:
#      x y z
#    x 1.797380 0.000000 0.000000 
#    y 0.000000 1.797370 0.000000 
#    z 0.000000 0.000000 1.833870 
# 
# From -- ./inp_files/2878.got.cif
#   From: 2010.05.17/outbox.cif.g08.bks.cpg/sg89_2_cif.got.tgz:2878.got - 2010.06.03 19:15:31.
