data_PCOD9547434
_publ_section_title
;
Structure prediction by ZEFSAII (Michael W. Deem and Ramdas Pophale) SiO2 
 PCOD9547434
Probable space group: P 4 21 2
;
_chemical_formula_sum "Si O2"
_cell_formula_units_Z 48
_cell_length_a 8.723679
_cell_length_b 8.723679
_cell_length_c 32.358462
_cell_angle_alpha 90.000000
_cell_angle_beta 90.000000
_cell_angle_gamma 90.000000
_cell_volume 2462.562291
_symmetry_space_group_name_H-M "P 4 21 2"
_symmetry_group_IT_number 90
_symmetry_cell_setting 'tetragonal'
loop_
_space_group_symop_operation_xyz
x,y,z
1/2-y,1/2+x,z
-x,-y,z
1/2+y,1/2-x,z
1/2+x,1/2-y,-z
1/2-x,1/2+y,-z
y,x,-z
-y,-x,-z
loop_
_atom_site_type_symbol
_atom_site_label
_atom_site_fract_x
_atom_site_fract_y
_atom_site_fract_z
Si Si1 0.500000 0.500000 0.771167
Si Si2 0.552582 0.746282 0.163501
Si Si3 0.077140 0.258102 0.288974
Si Si4 0.347946 0.601258 0.625374
Si Si5 0.526616 0.745124 0.071436
Si Si6 0.000000 0.500000 0.638862
Si Si7 0.500000 0.500000 0.000000
Si Si8 0.782692 0.357743 0.540909
O O1 0.620679 0.580053 0.801716
O O2 0.593736 0.384128 0.741950
O O3 0.673708 0.885148 0.167392
O O4 0.551001 0.676211 0.117225
O O5 0.185619 0.403160 0.282094
O O6 0.107774 0.204076 0.335525
O O7 0.500000 0.500000 0.617565
O O8 0.191250 0.508842 0.636903
O O9 0.305790 0.686774 0.582672
O O10 0.661170 0.869120 0.069824
O O11 0.519234 0.638329 0.032045
O O12 0.796449 0.542941 0.541684
O O13 0.699717 0.300284 0.500000
#
# Coordination Sequence:
#
# PCOD9547434 Si02
#       8
#     4   8   8   8   8   2   2   8
#     4  12  21  38  64  93 117 160 204 273 324 388
#     4   9  19  37  57  82 115 156 205 253 316 393
#     4  11  26  44  62  95 133 167 216 269 337 410
#     4  12  24  45  72 102 135 187 225 284 340 398
#     4   9  19  34  51  75 115 154 194 257 314 373
#     4  12  24  48  76 104 152 184 244 288 328 428
#     4  12  18  28  52  84 104 152 208 250 308 388
#     4  11  26  45  68 103 139 179 229 281 336 404
#
# _framework density 19.491892
#
# number of rings (size 3 to 8) (size 9 to 14) (size 15 to 20)
#    0.000    1.333    2.500    4.000    2.333    0.000 
#    0.000    1.667    0.000    0.000    0.000   14.000 
#    0.000    0.000    0.000    0.000    0.000    0.000 
#
# Total GULP energy -267335.678037 kJ/mol
# GULP energy per Si atom -5569.493292 kJ/mol
# Density = 1.944753 g / cm^3
# Si number density = 19.491892 Si / 1000 Ang^3
#
#
#
# Elastic Constant Matrix: (Units=GPa)
#
#
# Indices 1 2 3 4 5 6 
#
# 1 63.6895 7.4184 33.3549 0.0000 0.0000 0.0000
# 2 7.4184 63.6899 33.3548 0.0000 0.0000 0.0000
# 3 33.3549 33.3548 150.9580 0.0000 0.0000 0.0000
# 4 0.0000 0.0000 0.0000 26.7718 0.0000 0.0000
# 5 0.0000 0.0000 0.0000 0.0000 26.7718 0.0000
# 6 0.0000 0.0000 0.0000 0.0000 0.0000 14.7233
#
#
#
# Elastic Compliance Matrix: (Units=1/GPa)
#
#
# Indices 1 2 3 4 5 6 
#
# 1 0.017756 -0.000015 -0.003920 0.000000 0.000000 0.000000
# 2 -0.000015 0.017756 -0.003920 0.000000 0.000000 0.000000
# 3 -0.003920 -0.003920 0.008357 0.000000 0.000000 0.000000
# 4 0.000000 0.000000 0.000000 0.037353 0.000000 0.000000
# 5 0.000000 0.000000 0.000000 0.000000 0.037353 0.000000
# 6 0.000000 0.000000 0.000000 0.000000 0.000000 0.067919
#
#
# Mechanical properties :
#
#
# Convention : Reuss Voigt Hill
#
# Bulk Modulus (GPa) = 35.51364 47.39927 41.45645
# Shear Modulus (GPa) = 23.63071 27.26733 25.44902
#
# Velocity S-wave (km/s) = 3.48564 3.74425 3.61726
# Velocity P-wave (km/s) = 5.87016 6.56222 6.22582
#
# Compressibility (1/GPa) = 0.02815820
#
# Stress axis : x y z
#
# Youngs Moduli (GPa) = 56.31947 56.31996 119.66627
#
# Poissons Ratio (x) = 0.00086 0.46908
# Poissons Ratio (y) = 0.00086 0.46907
# Poissons Ratio (z) = 0.22077 0.22076
#
# Static dielectric constant tensor:
#      x y z
#    x 1.682960 0.000000 0.000000 
#    y 0.000000 1.682960 0.000000 
#    z 0.000000 0.000000 1.667940 
# 
# From -- ./inp_files/3138.got.cif
#   From: 2010.05.17/outbox.cif.g08.bks.cpg/sg90_2_cif.got.tgz:3138.got - 2010.06.03 19:17:45.
