data_PCOD9547468
_publ_section_title
;
Structure prediction by ZEFSAII (Michael W. Deem and Ramdas Pophale) SiO2 
 PCOD9547468
Probable space group: P 41 2 2
;
_chemical_formula_sum "Si O2"
_cell_formula_units_Z 48
_cell_length_a 16.755874
_cell_length_b 16.755874
_cell_length_c 7.052468
_cell_angle_alpha 90.000000
_cell_angle_beta 90.000000
_cell_angle_gamma 90.000000
_cell_volume 1980.046074
_symmetry_space_group_name_H-M "P 41 2 2"
_symmetry_group_IT_number 91
_symmetry_cell_setting 'tetragonal'
loop_
_space_group_symop_operation_xyz
x,y,z
-y,x,1/4+z
-x,-y,1/2+z
y,-x,3/4+z
x,-y,1/2-z
-x,y,-z
y,x,3/4-z
-y,-x,1/4-z
loop_
_atom_site_type_symbol
_atom_site_label
_atom_site_fract_x
_atom_site_fract_y
_atom_site_fract_z
Si Si1 0.748755 0.810861 0.619908
Si Si2 0.114559 0.427907 0.005631
Si Si3 0.090322 0.746977 0.470982
Si Si4 0.291932 0.541282 0.466248
Si Si5 0.320736 0.380312 0.625961
Si Si6 0.607114 0.913717 0.695919
O O1 0.746770 0.862665 0.424148
O O2 0.842857 0.793658 0.655166
O O3 0.703518 0.725506 0.612172
O O4 0.681355 0.856226 0.743556
O O5 0.894867 0.414300 0.223533
O O6 0.088223 0.519035 0.041178
O O7 0.078928 0.346109 0.088839
O O8 0.204362 0.429269 0.079792
O O9 0.000000 0.779606 0.500000
O O10 0.290466 0.446158 0.479425
O O11 0.362287 0.586009 0.357760
O O12 0.304538 0.576588 0.676115
O O13 0.638486 0.000000 0.750000
#
# Coordination Sequence:
#
# PCOD9547468 Si02
#       6
#     8   8   8   8   8   8
#     4  10  17  30  47  66 102 129 152 212 254 302
#     4  10  16  28  44  70 106 130 159 216 245 293
#     4  10  18  28  47  73  97 122 158 203 265 295
#     4  10  15  24  43  67 104 128 158 199 256 286
#     4  10  15  25  43  66 104 128 152 197 256 286
#     4  10  18  27  44  70 102 134 159 197 252 304
#
# _framework density 24.241859000000002
#
# number of rings (size 3 to 8) (size 9 to 14) (size 15 to 20)
#    0.000    2.000    6.667    2.500    0.000    0.000 
#    0.000    0.000    0.000    8.000    0.000    0.000 
#   90.000    0.000    0.000    0.000    0.000    0.000 
#
# Total GULP energy -267395.073257 kJ/mol
# GULP energy per Si atom -5570.730693 kJ/mol
# Density = 2.418668 g / cm^3
# Si number density = 24.241859 Si / 1000 Ang^3
#
#
#
# Elastic Constant Matrix: (Units=GPa)
#
#
# Indices 1 2 3 4 5 6 
#
# 1 160.5632 72.7700 13.3066 0.0000 0.0000 0.0000
# 2 72.7700 160.5632 13.3066 0.0000 0.0000 0.0000
# 3 13.3066 13.3066 73.9949 0.0000 0.0000 0.0000
# 4 0.0000 0.0000 0.0000 38.0216 0.0000 0.0000
# 5 0.0000 0.0000 0.0000 0.0000 38.0216 0.0000
# 6 0.0000 0.0000 0.0000 0.0000 0.0000 24.8005
#
#
#
# Elastic Compliance Matrix: (Units=1/GPa)
#
#
# Indices 1 2 3 4 5 6 
#
# 1 0.007883 -0.003507 -0.000787 0.000000 0.000000 0.000000
# 2 -0.003507 0.007883 -0.000787 0.000000 0.000000 0.000000
# 3 -0.000787 -0.000787 0.013797 0.000000 0.000000 0.000000
# 4 0.000000 0.000000 0.000000 0.026301 0.000000 0.000000
# 5 0.000000 0.000000 0.000000 0.000000 0.026301 0.000000
# 6 0.000000 0.000000 0.000000 0.000000 0.000000 0.040322
#
#
# Mechanical properties :
#
#
# Convention : Reuss Voigt Hill
#
# Bulk Modulus (GPa) = 51.54378 65.98754 58.76566
# Shear Modulus (GPa) = 35.94121 39.88460 37.91290
#
# Velocity S-wave (km/s) = 3.85464 4.06060 3.95896
# Velocity P-wave (km/s) = 6.41245 7.01885 6.72249
#
# Compressibility (1/GPa) = 0.01940098
#
# Stress axis : x y z
#
# Youngs Moduli (GPa) = 126.85626 126.85626 72.47714
#
# Poissons Ratio (x) = 0.44495 0.05703
# Poissons Ratio (y) = 0.44495 0.05703
# Poissons Ratio (z) = 0.09982 0.09982
#
# Static dielectric constant tensor:
#      x y z
#    x 1.804620 0.000000 0.000000 
#    y 0.000000 1.804620 0.000000 
#    z 0.000000 0.000000 1.081710 
# 
# From -- ./inp_files/10766.got.cif
#   From: 2010.05.17/outbox.cif.g08.bks.cpg/sg91_6_cif.got.tgz:10766.got - 2010.06.03 19:20:03.
