data_PCOD9547733
_publ_section_title
;
Structure prediction by ZEFSAII (Michael W. Deem and Ramdas Pophale) SiO2 
 PCOD9547733
Probable space group: P 41 2 2
;
_chemical_formula_sum "Si O2"
_cell_formula_units_Z 40
_cell_length_a 14.494226
_cell_length_b 14.494226
_cell_length_c 9.290816
_cell_angle_alpha 90.000000
_cell_angle_beta 90.000000
_cell_angle_gamma 90.000000
_cell_volume 1951.838664
_symmetry_space_group_name_H-M "P 41 2 2"
_symmetry_group_IT_number 91
_symmetry_cell_setting 'tetragonal'
loop_
_space_group_symop_operation_xyz
x,y,z
-y,x,1/4+z
-x,-y,1/2+z
y,-x,3/4+z
x,-y,1/2-z
-x,y,-z
y,x,3/4-z
-y,-x,1/4-z
loop_
_atom_site_type_symbol
_atom_site_label
_atom_site_fract_x
_atom_site_fract_y
_atom_site_fract_z
Si Si1 0.096546 0.563192 0.011628
Si Si2 0.500000 0.762367 0.000000
Si Si3 0.925670 0.925670 0.875000
Si Si4 0.340656 0.840364 0.513558
Si Si5 0.720086 0.953255 0.986954
Si Si6 0.777617 0.666213 0.578814
O O1 0.171972 0.522366 0.116139
O O2 0.067563 0.656165 0.098009
O O3 0.136827 0.582995 0.855693
O O4 0.000000 0.508107 0.000000
O O5 0.595859 0.721483 0.064424
O O6 0.936564 0.824783 0.806994
O O7 0.937964 0.000000 0.750000
O O8 0.369147 0.797576 0.666573
O O9 0.274366 0.763658 0.441530
O O10 0.293562 0.940795 0.535365
O O11 0.687112 0.876802 0.100423
#
# Coordination Sequence:
#
# PCOD9547733 Si02
#       6
#     8   4   4   8   8   8
#     4   9  19  34  54  76 104 140 178 219 268 318
#     4  10  22  34  50  78 108 142 176 218 270 328
#     4  12  24  34  48  72 104 144 192 236 272 314
#     4  10  20  35  55  77 105 144 181 227 273 322
#     4  10  19  35  52  72 104 145 186 226 274 320
#     4  10  21  35  54  79 108 141 183 224 275 329
#
# _framework density 20.493497000000001
#
# number of rings (size 3 to 8) (size 9 to 14) (size 15 to 20)
#    0.000    2.000    0.000    4.800    0.000   11.200 
#    0.000    0.000    0.000    0.000    0.000    0.000 
#    0.000   25.600    0.000    0.000    0.000    0.000 
#
# Total GULP energy -223127.856454 kJ/mol
# GULP energy per Si atom -5578.196411 kJ/mol
# Density = 2.044685 g / cm^3
# Si number density = 20.493497 Si / 1000 Ang^3
#
#
#
# Elastic Constant Matrix: (Units=GPa)
#
#
# Indices 1 2 3 4 5 6 
#
# 1 47.1748 38.9603 25.0714 0.0000 0.0000 0.0000
# 2 38.9603 47.1748 25.0714 0.0000 0.0000 0.0000
# 3 25.0714 25.0714 111.6837 0.0000 0.0000 0.0000
# 4 0.0000 0.0000 0.0000 27.7461 0.0000 0.0000
# 5 0.0000 0.0000 0.0000 0.0000 27.7461 0.0000
# 6 0.0000 0.0000 0.0000 0.0000 0.0000 4.1935
#
#
#
# Elastic Compliance Matrix: (Units=1/GPa)
#
#
# Indices 1 2 3 4 5 6 
#
# 1 0.067545 -0.054190 -0.002998 0.000000 0.000000 0.000000
# 2 -0.054190 0.067545 -0.002998 0.000000 0.000000 0.000000
# 3 -0.002998 -0.002998 0.010300 0.000000 0.000000 0.000000
# 4 0.000000 0.000000 0.000000 0.036041 0.000000 0.000000
# 5 0.000000 0.000000 0.000000 0.000000 0.036041 0.000000
# 6 0.000000 0.000000 0.000000 0.000000 0.000000 0.238464
#
#
# Mechanical properties :
#
#
# Convention : Reuss Voigt Hill
#
# Bulk Modulus (GPa) = 39.97162 42.69329 41.33246
# Shear Modulus (GPa) = 8.55217 19.73248 14.14232
#
# Velocity S-wave (km/s) = 2.04504 3.10637 2.62980
# Velocity P-wave (km/s) = 5.01230 5.80895 5.42527
#
# Compressibility (1/GPa) = 0.02501775
#
# Stress axis : x y z
#
# Youngs Moduli (GPa) = 14.80497 14.80497 97.08852
#
# Poissons Ratio (x) = 0.80228 0.29107
# Poissons Ratio (y) = 0.80228 0.29107
# Poissons Ratio (z) = 0.04439 0.04439
#
# Static dielectric constant tensor:
#      x y z
#    x 1.795060 0.000000 0.000000 
#    y 0.000000 1.795060 0.000000 
#    z 0.000000 0.000000 1.742470 
# 
# From -- ./inp_files/2428.got.cif
#   From: 2010.05.17/outbox.cif.g08.bks.cpg/sg91_2_cif.got.tgz:2428.got - 2010.06.03 19:20:03.
