data_PCOD9547254
_publ_section_title
;
Structure prediction by ZEFSAII (Michael W. Deem and Ramdas Pophale) SiO2 
 PCOD9547254
Probable space group: P 4 21 2
;
_chemical_formula_sum "Si O2"
_cell_formula_units_Z 32
_cell_length_a 11.272640
_cell_length_b 11.272640
_cell_length_c 12.433076
_cell_angle_alpha 90.000000
_cell_angle_beta 90.000000
_cell_angle_gamma 90.000000
_cell_volume 1579.900963
_symmetry_space_group_name_H-M "P 4 21 2"
_symmetry_group_IT_number 90
_symmetry_cell_setting 'tetragonal'
loop_
_space_group_symop_operation_xyz
x,y,z
1/2-y,1/2+x,z
-x,-y,z
1/2+y,1/2-x,z
1/2+x,1/2-y,-z
1/2-x,1/2+y,-z
y,x,-z
-y,-x,-z
loop_
_atom_site_type_symbol
_atom_site_label
_atom_site_fract_x
_atom_site_fract_y
_atom_site_fract_z
Si Si1 0.349847 0.349847 0.000000
Si Si2 0.851365 0.826876 0.684394
Si Si3 0.500000 0.500000 0.166386
Si Si4 0.052004 0.309143 0.480993
Si Si5 0.125825 0.653902 0.835437
O O1 0.397663 0.436417 0.094767
O O2 0.357391 0.218212 0.050028
O O3 0.923431 0.770278 0.585318
O O4 0.760297 0.916094 0.627268
O O5 0.790409 0.718187 0.750093
O O6 0.935350 0.901971 0.762086
O O7 0.140829 0.420335 0.485533
O O8 0.157920 0.515290 0.821254
#
# Coordination Sequence:
#
# PCOD9547254 Si02
#       5
#     4   8   4   8   8
#     4  11  26  44  66  95 144 176 242 277 346 398
#     4  11  24  42  72  97 136 178 226 275 354 406
#     4  11  26  45  66 102 136 187 220 297 330 422
#     4  10  24  43  66 102 136 174 222 284 334 421
#     4  11  24  43  69  98 132 182 229 284 338 405
#
# _framework density 20.254434
#
# number of rings (size 3 to 8) (size 9 to 14) (size 15 to 20)
#    0.000    1.250    2.500    1.500    7.000    6.000 
#    0.000    0.000    0.000    0.000    0.000    0.000 
#    0.000    0.000    0.000    0.000    0.000    0.000 
#
# Total GULP energy -178503.593664 kJ/mol
# GULP energy per Si atom -5578.237302 kJ/mol
# Density = 2.020833 g / cm^3
# Si number density = 20.254434 Si / 1000 Ang^3
#
#
#
# Elastic Constant Matrix: (Units=GPa)
#
#
# Indices 1 2 3 4 5 6 
#
# 1 76.7950 30.8975 53.0142 0.0000 0.0000 0.0000
# 2 30.8975 76.7950 53.0142 0.0000 0.0000 0.0000
# 3 53.0142 53.0142 116.5701 0.0000 0.0000 0.0000
# 4 0.0000 0.0000 0.0000 25.7758 0.0000 0.0000
# 5 0.0000 0.0000 0.0000 0.0000 25.7758 0.0000
# 6 0.0000 0.0000 0.0000 0.0000 0.0000 -19.3026
#
#
#
# Elastic Compliance Matrix: (Units=1/GPa)
#
#
# Indices 1 2 3 4 5 6 
#
# 1 0.019301 -0.002487 -0.007647 0.000000 0.000000 0.000000
# 2 -0.002487 0.019301 -0.007647 0.000000 0.000000 0.000000
# 3 -0.007647 -0.007647 0.015534 0.000000 0.000000 0.000000
# 4 0.000000 0.000000 0.000000 0.038796 0.000000 0.000000
# 5 0.000000 0.000000 0.000000 0.000000 0.038796 0.000000
# 6 0.000000 0.000000 0.000000 0.000000 0.000000 -0.051807
#
#
# Mechanical properties :
#
#
# Convention : Reuss Voigt Hill
#
# Bulk Modulus (GPa) = 53.83552 60.44577 57.14065
# Shear Modulus (GPa) = 41.09326 15.33209 28.21267
#
# Velocity S-wave (km/s) = 4.50917 2.75430 3.73622
# Velocity P-wave (km/s) = 7.33126 6.32637 6.84727
#
# Compressibility (1/GPa) = 0.01857510
#
# Stress axis : x y z
#
# Youngs Moduli (GPa) = 51.81057 51.81057 64.37510
#
# Poissons Ratio (x) = 0.12883 0.49227
# Poissons Ratio (y) = 0.12883 0.49227
# Poissons Ratio (z) = 0.39619 0.39619
#
# Static dielectric constant tensor:
#      x y z
#    x 1.741910 0.000000 0.000000 
#    y 0.000000 1.741910 0.000000 
#    z 0.000000 0.000000 1.719930 
# 
# From -- ./inp_files/1875.got.cif
#   From: 2010.05.17/outbox.cif.g08.bks.cpg/sg90_1_cif.got.tgz:1875.got - 2010.06.03 19:17:45.
