data_PCOD9547708
_publ_section_title
;
Structure prediction by ZEFSAII (Michael W. Deem and Ramdas Pophale) SiO2 
 PCOD9547708
Probable space group: P 41 2 2
;
_chemical_formula_sum "Si O2"
_cell_formula_units_Z 48
_cell_length_a 8.484872
_cell_length_b 8.484872
_cell_length_c 30.477075
_cell_angle_alpha 90.000000
_cell_angle_beta 90.000000
_cell_angle_gamma 90.000000
_cell_volume 2194.137671
_symmetry_space_group_name_H-M "P 41 2 2"
_symmetry_group_IT_number 91
_symmetry_cell_setting 'tetragonal'
loop_
_space_group_symop_operation_xyz
x,y,z
-y,x,1/4+z
-x,-y,1/2+z
y,-x,3/4+z
x,-y,1/2-z
-x,y,-z
y,x,3/4-z
-y,-x,1/4-z
loop_
_atom_site_type_symbol
_atom_site_label
_atom_site_fract_x
_atom_site_fract_y
_atom_site_fract_z
Si Si1 0.332023 0.165458 0.416099
Si Si2 0.968142 0.569865 0.604526
Si Si3 0.319903 0.677400 0.518111
Si Si4 0.289399 0.493537 0.853279
Si Si5 0.806038 0.826189 0.563216
Si Si6 0.620719 0.838688 0.770484
O O1 0.252282 0.252282 0.375000
O O2 0.507522 0.121843 0.398652
O O3 0.295878 0.265403 0.459819
O O4 0.239580 0.001860 0.424367
O O5 0.951684 0.750490 0.588964
O O6 0.902077 0.474936 0.562797
O O7 0.146049 0.519862 0.613528
O O8 0.500000 0.668039 0.500000
O O9 0.357433 0.734524 0.566898
O O10 0.212289 0.794267 0.488721
O O11 0.238980 0.507462 0.511940
O O12 0.456024 0.456024 0.875000
O O13 0.281656 0.663371 0.832132
O O14 0.693234 0.000000 0.750000
#
# Coordination Sequence:
#
# PCOD9547708 Si02
#       6
#     8   8   8   8   8   8
#     4   9  19  36  55  79 106 138 181 222 264 325
#     4   9  19  35  56  77 107 145 179 222 272 323
#     4   9  19  35  54  77 107 140 178 225 273 321
#     4  10  19  33  54  80 105 134 179 225 268 322
#     4   9  19  36  55  77 107 141 177 225 275 319
#     4  10  19  35  55  78 110 146 182 221 270 324
#
# _framework density 21.876474999999999
#
# number of rings (size 3 to 8) (size 9 to 14) (size 15 to 20)
#    0.000    2.667    0.000    1.000    0.000    5.333 
#    0.000   15.833    0.000    0.000    0.000    0.000 
#    0.000    0.000    0.000    0.000    0.000    0.000 
#
# Total GULP energy -267401.185732 kJ/mol
# GULP energy per Si atom -5570.858036 kJ/mol
# Density = 2.182668 g / cm^3
# Si number density = 21.876475 Si / 1000 Ang^3
#
#
#
# Elastic Constant Matrix: (Units=GPa)
#
#
# Indices 1 2 3 4 5 6 
#
# 1 31.8939 -1.2607 7.1485 0.0000 0.0000 0.0000
# 2 -1.2607 31.8939 7.1485 0.0000 0.0000 0.0000
# 3 7.1485 7.1485 55.0495 0.0000 0.0000 0.0000
# 4 0.0000 0.0000 0.0000 18.5925 0.0000 0.0000
# 5 0.0000 0.0000 0.0000 0.0000 18.5925 0.0000
# 6 0.0000 0.0000 0.0000 0.0000 0.0000 16.7943
#
#
#
# Elastic Compliance Matrix: (Units=1/GPa)
#
#
# Indices 1 2 3 4 5 6 
#
# 1 0.032456 0.002294 -0.004513 0.000000 0.000000 0.000000
# 2 0.002294 0.032456 -0.004513 0.000000 0.000000 0.000000
# 3 -0.004513 -0.004513 0.019337 0.000000 0.000000 0.000000
# 4 0.000000 0.000000 0.000000 0.053785 0.000000 0.000000
# 5 0.000000 0.000000 0.000000 0.000000 0.053785 0.000000
# 6 0.000000 0.000000 0.000000 0.000000 0.000000 0.059544
#
#
# Mechanical properties :
#
#
# Convention : Reuss Voigt Hill
#
# Bulk Modulus (GPa) = 14.12666 16.10109 15.11387
# Shear Modulus (GPa) = 17.33575 17.84927 17.59251
#
# Velocity S-wave (km/s) = 2.81808 2.85952 2.83887
# Velocity P-wave (km/s) = 4.13041 4.27533 4.20349
#
# Compressibility (1/GPa) = 0.07078815
#
# Stress axis : x y z
#
# Youngs Moduli (GPa) = 30.81086 30.81086 51.71314
#
# Poissons Ratio (x) = -0.07069 0.23336
# Poissons Ratio (y) = -0.07069 0.23336
# Poissons Ratio (z) = 0.13904 0.13904
#
# Static dielectric constant tensor:
#      x y z
#    x 1.817610 0.000000 0.000000 
#    y 0.000000 1.817610 0.000000 
#    z 0.000000 0.000000 1.875180 
# 
# From -- ./inp_files/7940.got.cif
#   From: 2010.05.17/outbox.cif.g08.bks.cpg/sg91_4_cif.got.tgz:7940.got - 2010.06.03 19:20:03.
