data_PCOD9547807
_publ_section_title
;
Structure prediction by ZEFSAII (Michael W. Deem and Ramdas Pophale) SiO2 
 PCOD9547807
Probable space group: P 41 2 2
;
_chemical_formula_sum "Si O2"
_cell_formula_units_Z 60
_cell_length_a 12.244658
_cell_length_b 12.244658
_cell_length_c 19.056998
_cell_angle_alpha 90.000000
_cell_angle_beta 90.000000
_cell_angle_gamma 90.000000
_cell_volume 2857.247145
_symmetry_space_group_name_H-M "P 41 2 2"
_symmetry_group_IT_number 91
_symmetry_cell_setting 'tetragonal'
loop_
_space_group_symop_operation_xyz
x,y,z
-y,x,1/4+z
-x,-y,1/2+z
y,-x,3/4+z
x,-y,1/2-z
-x,y,-z
y,x,3/4-z
-y,-x,1/4-z
loop_
_atom_site_type_symbol
_atom_site_label
_atom_site_fract_x
_atom_site_fract_y
_atom_site_fract_z
Si Si1 0.127779 0.779633 0.007748
Si Si2 0.135698 0.628717 0.874150
Si Si3 0.360528 0.111943 0.709559
Si Si4 0.315277 0.460082 0.827550
Si Si5 0.725462 0.956889 0.059846
Si Si6 0.818149 0.739193 0.271870
Si Si7 0.100489 0.500000 0.250000
Si Si8 0.881253 0.417201 0.608223
O O1 0.141307 0.701557 0.075655
O O2 0.151166 0.699956 0.942857
O O3 0.206509 0.881363 0.993600
O O4 0.000000 0.812236 0.000000
O O5 0.239455 0.550274 0.864406
O O6 0.137818 0.703316 0.804753
O O7 0.014368 0.576961 0.882546
O O8 0.294620 0.093743 0.636622
O O9 0.284956 0.184923 0.758435
O O10 0.481931 0.154151 0.691146
O O11 0.376798 0.000000 0.750000
O O12 0.352374 0.500000 0.750000
O O13 0.411972 0.411972 0.875000
O O14 0.229497 0.364156 0.811833
O O15 0.601548 0.967048 0.030659
O O16 0.780176 0.075463 0.062467
O O17 0.165108 0.553033 0.184911
#
# Coordination Sequence:
#
# PCOD9547807 Si02
#       8
#     8   8   8   8   8   8   4   8
#     4  10  22  40  64  93 123 172 220 268 324 394
#     4  10  19  41  61  91 122 160 223 268 319 388
#     4  11  24  39  59  96 128 163 209 271 325 393
#     4  10  23  38  68  99 130 173 216 276 336 401
#     4  11  23  41  64  88 133 166 213 269 327 394
#     4  11  23  37  62  97 128 169 212 269 336 393
#     4  10  20  38  60  88 118 162 216 268 312 374
#     4  10  21  37  66  88 119 167 221 271 317 388
#
# _framework density 20.999234999999999
#
# number of rings (size 3 to 8) (size 9 to 14) (size 15 to 20)
#    0.000    1.600    2.667    2.800    7.467    1.067 
#    0.000    0.000    1.467    0.000    0.000    0.000 
#    0.000    0.000    0.000    0.000    0.000    0.000 
#
# Total GULP energy -334900.355069 kJ/mol
# GULP energy per Si atom -5581.672584 kJ/mol
# Density = 2.095144 g / cm^3
# Si number density = 20.999235 Si / 1000 Ang^3
#
#
#
# Elastic Constant Matrix: (Units=GPa)
#
#
# Indices 1 2 3 4 5 6 
#
# 1 63.3654 38.1092 22.0467 0.0000 0.0000 0.0000
# 2 38.1092 63.3654 22.0467 0.0000 0.0000 0.0000
# 3 22.0467 22.0467 61.8454 0.0000 0.0000 0.0000
# 4 0.0000 0.0000 0.0000 21.9036 0.0000 0.0000
# 5 0.0000 0.0000 0.0000 0.0000 21.9036 0.0000
# 6 0.0000 0.0000 0.0000 0.0000 0.0000 24.0046
#
#
#
# Elastic Compliance Matrix: (Units=1/GPa)
#
#
# Indices 1 2 3 4 5 6 
#
# 1 0.025628 -0.013967 -0.004157 0.000000 0.000000 0.000000
# 2 -0.013967 0.025628 -0.004157 0.000000 0.000000 0.000000
# 3 -0.004157 -0.004157 0.019133 0.000000 0.000000 0.000000
# 4 0.000000 0.000000 0.000000 0.045655 0.000000 0.000000
# 5 0.000000 0.000000 0.000000 0.000000 0.045655 0.000000
# 6 0.000000 0.000000 0.000000 0.000000 0.000000 0.041659
#
#
# Mechanical properties :
#
#
# Convention : Reuss Voigt Hill
#
# Bulk Modulus (GPa) = 38.71863 39.22015 38.96939
# Shear Modulus (GPa) = 19.49119 20.65393 20.07256
#
# Velocity S-wave (km/s) = 3.04992 3.13957 3.09507
# Velocity P-wave (km/s) = 5.55705 5.64447 5.60093
#
# Compressibility (1/GPa) = 0.02582736
#
# Stress axis : x y z
#
# Youngs Moduli (GPa) = 39.02043 39.02043 52.26548
#
# Poissons Ratio (x) = 0.54498 0.21726
# Poissons Ratio (y) = 0.54498 0.21726
# Poissons Ratio (z) = 0.16220 0.16220
#
# Static dielectric constant tensor:
#      x y z
#    x 1.773800 0.000000 0.000000 
#    y 0.000000 1.773800 0.000000 
#    z 0.000000 0.000000 1.831660 
# 
# From -- ./inp_files/6449.got.cif
#   From: 2010.05.17/outbox.cif.g08.bks.cpg/sg91_4_cif.got.tgz:6449.got - 2010.06.03 19:20:03.
