data_PCOD9547161
_publ_section_title
;
Structure prediction by ZEFSAII (Michael W. Deem and Ramdas Pophale) SiO2 
 PCOD9547161
Probable space group: P 4 21 2
;
_chemical_formula_sum "Si O2"
_cell_formula_units_Z 40
_cell_length_a 17.909506
_cell_length_b 17.909506
_cell_length_c 5.286364
_cell_angle_alpha 90.000000
_cell_angle_beta 90.000000
_cell_angle_gamma 90.000000
_cell_volume 1695.603395
_symmetry_space_group_name_H-M "P 4 21 2"
_symmetry_group_IT_number 90
_symmetry_cell_setting 'tetragonal'
loop_
_space_group_symop_operation_xyz
x,y,z
1/2-y,1/2+x,z
-x,-y,z
1/2+y,1/2-x,z
1/2+x,1/2-y,-z
1/2-x,1/2+y,-z
y,x,-z
-y,-x,-z
loop_
_atom_site_type_symbol
_atom_site_label
_atom_site_fract_x
_atom_site_fract_y
_atom_site_fract_z
Si Si1 0.103702 0.695367 0.454154
Si Si2 0.624270 0.012476 0.169853
Si Si3 0.538669 0.287449 0.031292
Si Si4 0.149070 0.972018 0.536887
Si Si5 0.685285 0.197539 0.035572
O O1 0.028946 0.650170 0.538211
O O2 0.086649 0.782763 0.438044
O O3 0.145514 0.670095 0.205170
O O4 0.156557 0.684221 0.696722
O O5 0.562914 0.077478 0.124007
O O6 0.706108 0.005325 0.035737
O O7 0.517579 0.330836 0.285534
O O8 0.519424 0.338468 0.791110
O O9 0.623045 0.260917 0.036095
O O10 0.072267 0.927734 0.500000
O O11 0.765846 0.234155 0.000000
#
# Coordination Sequence:
#
# PCOD9547161 Si02
#       5
#     8   8   8   8   8
#     4  11  23  40  63  93 127 167 224 260 318 385
#     4  10  21  40  62  94 139 182 212 254 315 397
#     4  11  24  41  63  95 129 169 222 261 322 398
#     4  11  23  41  66  93 126 166 212 274 328 380
#     4  12  24  42  66  92 129 169 221 279 323 369
#
# _framework density 23.590423000000001
#
# number of rings (size 3 to 8) (size 9 to 14) (size 15 to 20)
#    0.000    1.000    2.000    6.000    2.800    0.000 
#    0.000    0.000    0.000    3.600    0.000    0.000 
#    0.000    0.000    0.000    0.000    0.000    0.000 
#
# Total GULP energy -223605.512712 kJ/mol
# GULP energy per Si atom -5590.137818 kJ/mol
# Density = 2.353673 g / cm^3
# Si number density = 23.590423 Si / 1000 Ang^3
#
#
#
# Elastic Constant Matrix: (Units=GPa)
#
#
# Indices 1 2 3 4 5 6 
#
# 1 40.1927 18.5752 21.5334 0.0000 0.0000 0.0000
# 2 18.5752 40.1990 21.5331 0.0000 0.0000 0.0000
# 3 21.5334 21.5331 161.2211 0.0000 0.0000 0.0000
# 4 0.0000 0.0000 0.0000 -2.6642 0.0000 0.0000
# 5 0.0000 0.0000 0.0000 0.0000 -2.6792 0.0000
# 6 0.0000 0.0000 0.0000 0.0000 0.0000 47.7575
#
#
#
# Elastic Compliance Matrix: (Units=1/GPa)
#
#
# Indices 1 2 3 4 5 6 
#
# 1 0.032559 -0.013695 -0.002520 0.000000 0.000000 0.000000
# 2 -0.013695 0.032554 -0.002519 0.000000 0.000000 0.000000
# 3 -0.002520 -0.002519 0.006876 0.000000 0.000000 0.000000
# 4 0.000000 0.000000 0.000000 -0.375342 0.000000 0.000000
# 5 0.000000 0.000000 0.000000 0.000000 -0.373253 0.000000
# 6 0.000000 0.000000 0.000000 0.000000 0.000000 0.020939
#
#
# Mechanical properties :
#
#
# Convention : Reuss Voigt Hill
#
# Bulk Modulus (GPa) = 28.96763 40.54402 34.75582
# Shear Modulus (GPa) = -8.24142 20.48090 6.11974
#
# Velocity S-wave (km/s) = -1.87113 2.94970 1.61239
# Velocity P-wave (km/s) = 2.76367 5.36888 4.26982
#
# Compressibility (1/GPa) = 0.03452129
#
# Stress axis : x y z
#
# Youngs Moduli (GPa) = 30.71304 30.71833 145.44193
#
# Poissons Ratio (x) = 0.42070 0.36645
# Poissons Ratio (y) = 0.42063 0.36633
# Poissons Ratio (z) = 0.07738 0.07737
#
# Static dielectric constant tensor:
#      x y z
#    x 1.948650 0.000000 0.000000 
#    y 0.000000 1.948640 0.000000 
#    z 0.000000 0.000000 1.869590 
# 
# From -- ./inp_files/447.got.cif
#   From: 2010.05.17/outbox.cif.g08.bks.cpg/sg90_1_cif.got.tgz:447.got - 2010.06.03 19:17:45.
