data_PCOD9547829
_publ_section_title
;
Structure prediction by ZEFSAII (Michael W. Deem and Ramdas Pophale) SiO2 
 PCOD9547829
Probable space group: P 41 2 2
;
_chemical_formula_sum "Si O2"
_cell_formula_units_Z 48
_cell_length_a 12.886832
_cell_length_b 12.886832
_cell_length_c 16.672826
_cell_angle_alpha 90.000000
_cell_angle_beta 90.000000
_cell_angle_gamma 90.000000
_cell_volume 2768.863533
_symmetry_space_group_name_H-M "P 41 2 2"
_symmetry_group_IT_number 91
_symmetry_cell_setting 'tetragonal'
loop_
_space_group_symop_operation_xyz
x,y,z
-y,x,1/4+z
-x,-y,1/2+z
y,-x,3/4+z
x,-y,1/2-z
-x,y,-z
y,x,3/4-z
-y,-x,1/4-z
loop_
_atom_site_type_symbol
_atom_site_label
_atom_site_fract_x
_atom_site_fract_y
_atom_site_fract_z
Si Si1 0.000000 0.439118 0.000000
Si Si2 0.500000 0.499450 0.000000
Si Si3 0.077625 0.077625 0.375000
Si Si4 0.363261 0.615538 0.881598
Si Si5 0.396642 0.882972 0.361365
Si Si6 0.838622 0.125619 0.803687
Si Si7 0.356768 0.858158 0.882798
Si Si8 0.500000 0.009236 0.500000
O O1 0.077178 0.369377 0.051763
O O2 0.929294 0.515161 0.053741
O O3 0.447987 0.425028 0.064932
O O4 0.589004 0.572744 0.036061
O O5 0.120381 0.126804 0.459382
O O6 0.956305 0.099377 0.390860
O O7 0.240604 0.595699 0.877859
O O8 0.384468 0.737590 0.872346
O O9 0.282973 0.900832 0.321456
O O10 0.421755 0.939720 0.445885
O O11 0.859276 0.240969 0.833492
O O12 0.433225 0.916538 0.943295
#
# Coordination Sequence:
#
# PCOD9547829 Si02
#       8
#     4   4   4   8   8   8   8   4
#     4  10  20  34  52  76 106 138 172 214 262 312
#     4  10  20  34  54  76 104 136 170 212 260 310
#     4  10  20  36  56  78 106 140 178 222 270 322
#     4  10  20  35  53  77 104 135 172 213 259 311
#     4  10  20  35  55  78 106 141 179 219 266 325
#     4  10  21  36  56  80 107 140 180 222 269 322
#     4  10  21  35  53  78 106 136 174 219 264 314
#     4  10  20  36  56  78 106 140 178 222 272 320
#
# _framework density 17.335633000000001
#
# number of rings (size 3 to 8) (size 9 to 14) (size 15 to 20)
#    0.000    2.000    0.000    4.000    0.000    2.667 
#    0.000    6.667    0.000   12.000    0.000    0.000 
#    0.000    0.000    0.000    0.000    0.000    0.000 
#
# Total GULP energy -267502.150678 kJ/mol
# GULP energy per Si atom -5572.961472 kJ/mol
# Density = 1.729618 g / cm^3
# Si number density = 17.335633 Si / 1000 Ang^3
#
#
#
# Elastic Constant Matrix: (Units=GPa)
#
#
# Indices 1 2 3 4 5 6 
#
# 1 92.9136 47.7516 32.4247 0.0000 0.0000 0.0000
# 2 47.7516 92.9136 32.4247 0.0000 0.0000 0.0000
# 3 32.4247 32.4247 83.1725 0.0000 0.0000 0.0000
# 4 0.0000 0.0000 0.0000 25.3838 0.0000 0.0000
# 5 0.0000 0.0000 0.0000 0.0000 25.3838 0.0000
# 6 0.0000 0.0000 0.0000 0.0000 0.0000 29.6431
#
#
#
# Elastic Compliance Matrix: (Units=1/GPa)
#
#
# Indices 1 2 3 4 5 6 
#
# 1 0.015405 -0.006738 -0.003379 0.000000 0.000000 0.000000
# 2 -0.006738 0.015405 -0.003379 0.000000 0.000000 0.000000
# 3 -0.003379 -0.003379 0.014658 0.000000 0.000000 0.000000
# 4 0.000000 0.000000 0.000000 0.039395 0.000000 0.000000
# 5 0.000000 0.000000 0.000000 0.000000 0.039395 0.000000
# 6 0.000000 0.000000 0.000000 0.000000 0.000000 0.033735
#
#
# Mechanical properties :
#
#
# Convention : Reuss Voigt Hill
#
# Bulk Modulus (GPa) = 54.12373 54.91130 54.51751
# Shear Modulus (GPa) = 26.15867 26.50873 26.33370
#
# Velocity S-wave (km/s) = 3.88874 3.91467 3.90173
# Velocity P-wave (km/s) = 7.17300 7.22337 7.19823
#
# Compressibility (1/GPa) = 0.01847618
#
# Stress axis : x y z
#
# Youngs Moduli (GPa) = 64.91553 64.91553 68.22412
#
# Poissons Ratio (x) = 0.43739 0.23051
# Poissons Ratio (y) = 0.43739 0.23051
# Poissons Ratio (z) = 0.21933 0.21933
#
# Static dielectric constant tensor:
#      x y z
#    x 1.563120 0.000000 0.000000 
#    y 0.000000 1.563120 0.000000 
#    z 0.000000 0.000000 1.613430 
# 
# From -- ./inp_files/16966.got.cif
#   From: 2010.05.17/outbox.cif.g08.bks.cpg/sg91_9_cif.got.tgz:16966.got - 2010.06.03 19:20:03.
