data_PCOD9547101
_publ_section_title
;
Structure prediction by ZEFSAII (Michael W. Deem and Ramdas Pophale) SiO2 
 PCOD9547101
Probable space group: P 4 21 2
;
_chemical_formula_sum "Si O2"
_cell_formula_units_Z 32
_cell_length_a 13.573305
_cell_length_b 13.573305
_cell_length_c 7.100441
_cell_angle_alpha 90.000000
_cell_angle_beta 90.000000
_cell_angle_gamma 90.000000
_cell_volume 1308.146969
_symmetry_space_group_name_H-M "P 4 21 2"
_symmetry_group_IT_number 90
_symmetry_cell_setting 'tetragonal'
loop_
_space_group_symop_operation_xyz
x,y,z
1/2-y,1/2+x,z
-x,-y,z
1/2+y,1/2-x,z
1/2+x,1/2-y,-z
1/2-x,1/2+y,-z
y,x,-z
-y,-x,-z
loop_
_atom_site_type_symbol
_atom_site_label
_atom_site_fract_x
_atom_site_fract_y
_atom_site_fract_z
Si Si1 0.529419 0.392878 0.802543
Si Si2 0.884465 0.391129 0.440300
Si Si3 0.331725 0.331725 0.000000
Si Si4 0.183663 0.183663 0.500000
Si Si5 0.100804 0.624633 0.985786
O O1 0.500000 0.500000 0.724179
O O2 0.425169 0.342586 0.857225
O O3 0.604820 0.339635 0.664871
O O4 0.584671 0.415330 0.000000
O O5 0.866044 0.504598 0.492901
O O6 0.798516 0.330916 0.534164
O O7 0.885286 0.379368 0.213386
O O8 0.343612 0.222108 0.078862
O O9 0.134003 0.514614 0.931702
#
# Coordination Sequence:
#
# PCOD9547101 Si02
#       5
#     8   8   4   4   8
#     4   9  21  40  63 102 144 177 238 311 347 441
#     4   9  20  41  66 102 142 186 249 303 361 450
#     4  10  19  40  68 101 146 188 244 304 378 435
#     4  12  21  42  76  99 140 200 236 294 392 435
#     4   9  18  37  65 100 141 190 244 301 369 446
#
# _framework density 24.462083
#
# number of rings (size 3 to 8) (size 9 to 14) (size 15 to 20)
#    0.000    2.750    0.000    4.875    0.000    0.000 
#   33.750    0.000    0.000    0.000    0.000    3.500 
#    0.000    0.000    0.000    0.000    0.000    0.000 
#
# Total GULP energy -178972.347183 kJ/mol
# GULP energy per Si atom -5592.885849 kJ/mol
# Density = 2.440641 g / cm^3
# Si number density = 24.462083 Si / 1000 Ang^3
#
#
#
# Elastic Constant Matrix: (Units=GPa)
#
#
# Indices 1 2 3 4 5 6 
#
# 1 111.2562 129.6407 45.9341 0.0000 0.0000 0.0000
# 2 129.6407 111.2571 45.9337 0.0000 0.0000 0.0000
# 3 45.9341 45.9337 130.6055 0.0000 0.0000 0.0000
# 4 0.0000 0.0000 0.0000 119.2704 0.0000 0.0000
# 5 0.0000 0.0000 0.0000 0.0000 119.2632 0.0000
# 6 0.0000 0.0000 0.0000 0.0000 0.0000 -26.5206
#
#
#
# Elastic Compliance Matrix: (Units=1/GPa)
#
#
# Indices 1 2 3 4 5 6 
#
# 1 -0.024800 0.029594 -0.001686 0.000000 0.000000 0.000000
# 2 0.029594 -0.024800 -0.001686 0.000000 0.000000 0.000000
# 3 -0.001686 -0.001686 0.008843 0.000000 0.000000 0.000000
# 4 0.000000 0.000000 0.000000 0.008384 0.000000 0.000000
# 5 0.000000 0.000000 0.000000 0.000000 0.008385 0.000000
# 6 0.000000 0.000000 0.000000 0.000000 0.000000 -0.037707
#
#
# Mechanical properties :
#
#
# Convention : Reuss Voigt Hill
#
# Bulk Modulus (GPa) = 85.56849 88.45954 87.01402
# Shear Modulus (GPa) = -45.35375 51.17661 2.91143
#
# Velocity S-wave (km/s) = -4.31053 4.57889 1.09214
# Velocity P-wave (km/s) = 3.20652 8.01220 6.10234
#
# Compressibility (1/GPa) = 0.01168654
#
# Stress axis : x y z
#
# Youngs Moduli (GPa) = -40.32178 -40.32229 113.08831
#
# Poissons Ratio (x) = 1.19332 0.19066
# Poissons Ratio (y) = 1.19330 0.19070
# Poissons Ratio (z) = -0.06798 -0.06799
#
# Static dielectric constant tensor:
#      x y z
#    x 1.860040 0.000000 0.000000 
#    y 0.000000 1.860050 0.000000 
#    z 0.000000 0.000000 2.015140 
# 
# From -- ./inp_files/1087.got.cif
#   From: 2010.05.17/outbox.cif.g08.bks.cpg/sg90_1_cif.got.tgz:1087.got - 2010.06.03 19:17:45.
