data_PCOD9547831
_publ_section_title
;
Structure prediction by ZEFSAII (Michael W. Deem and Ramdas Pophale) SiO2 
 PCOD9547831
Probable space group: P 41 2 2
;
_chemical_formula_sum "Si O2"
_cell_formula_units_Z 48
_cell_length_a 9.346785
_cell_length_b 9.346785
_cell_length_c 31.708038
_cell_angle_alpha 90.000000
_cell_angle_beta 90.000000
_cell_angle_gamma 90.000000
_cell_volume 2770.089977
_symmetry_space_group_name_H-M "P 41 2 2"
_symmetry_group_IT_number 91
_symmetry_cell_setting 'tetragonal'
loop_
_space_group_symop_operation_xyz
x,y,z
-y,x,1/4+z
-x,-y,1/2+z
y,-x,3/4+z
x,-y,1/2-z
-x,y,-z
y,x,3/4-z
-y,-x,1/4-z
loop_
_atom_site_type_symbol
_atom_site_label
_atom_site_fract_x
_atom_site_fract_y
_atom_site_fract_z
Si Si1 0.333500 0.728668 0.000789
Si Si2 0.256366 0.142842 0.170012
Si Si3 0.947829 0.925044 0.296210
Si Si4 0.829413 0.235445 0.921539
Si Si5 0.931385 0.335359 0.255778
Si Si6 0.541904 0.909425 0.793282
O O1 0.266710 0.714284 0.954147
O O2 0.500000 0.685724 0.000000
O O3 0.226392 0.639128 0.030283
O O4 0.325550 0.897011 0.012945
O O5 0.237827 0.208265 0.123979
O O6 0.104258 0.075777 0.183851
O O7 0.373059 0.018713 0.176419
O O8 0.902416 0.763277 0.285234
O O9 0.955415 0.000000 0.250000
O O10 0.840771 0.015673 0.324503
O O11 0.731274 0.155627 0.955820
O O12 0.853783 0.398006 0.935281
O O13 0.894315 0.500000 0.250000
O O14 0.511906 0.000000 0.750000
#
# Coordination Sequence:
#
# PCOD9547831 Si02
#       6
#     8   8   8   8   8   8
#     4   9  19  37  58  77 103 142 181 212 257 326
#     4  10  20  34  53  79 105 134 177 225 263 305
#     4   9  17  33  54  76 102 139 178 212 262 323
#     4  11  21  33  53  82 108 134 176 227 266 306
#     4   9  18  33  54  78 107 141 175 211 259 324
#     4  10  20  36  56  76 107 146 176 211 268 330
#
# _framework density 17.327957000000001
#
# number of rings (size 3 to 8) (size 9 to 14) (size 15 to 20)
#    0.000    2.333    0.000    5.500    0.000    4.667 
#    0.000    2.500    0.000    0.000    0.000    0.000 
#    0.000    0.000    0.000    0.000    0.000    0.000 
#
# Total GULP energy -267699.482332 kJ/mol
# GULP energy per Si atom -5577.072549 kJ/mol
# Density = 1.728852 g / cm^3
# Si number density = 17.327957 Si / 1000 Ang^3
#
#
#
# Elastic Constant Matrix: (Units=GPa)
#
#
# Indices 1 2 3 4 5 6 
#
# 1 115.3675 74.7334 59.7684 0.0000 0.0000 0.0000
# 2 74.7334 115.3675 59.7684 0.0000 0.0000 0.0000
# 3 59.7684 59.7684 88.7957 0.0000 0.0000 0.0000
# 4 0.0000 0.0000 0.0000 11.0440 0.0000 0.0000
# 5 0.0000 0.0000 0.0000 0.0000 11.0440 0.0000
# 6 0.0000 0.0000 0.0000 0.0000 0.0000 -1.7373
#
#
#
# Elastic Compliance Matrix: (Units=1/GPa)
#
#
# Indices 1 2 3 4 5 6 
#
# 1 0.016865 -0.007745 -0.006139 0.000000 0.000000 0.000000
# 2 -0.007745 0.016865 -0.006139 0.000000 0.000000 0.000000
# 3 -0.006139 -0.006139 0.019526 0.000000 0.000000 0.000000
# 4 0.000000 0.000000 0.000000 0.090547 0.000000 0.000000
# 5 0.000000 0.000000 0.000000 0.000000 0.090547 0.000000
# 6 0.000000 0.000000 0.000000 0.000000 0.000000 -0.575620
#
#
# Mechanical properties :
#
#
# Convention : Reuss Voigt Hill
#
# Bulk Modulus (GPa) = 75.69366 78.67456 77.18411
# Shear Modulus (GPa) = -16.84525 12.42083 -2.21221
#
# Velocity S-wave (km/s) = -3.12130 2.68023 -1.13112
# Velocity P-wave (km/s) = 5.54867 7.42159 6.55240
#
# Compressibility (1/GPa) = 0.01321115
#
# Stress axis : x y z
#
# Youngs Moduli (GPa) = 59.29332 59.29332 51.21295
#
# Poissons Ratio (x) = 0.45920 0.31440
# Poissons Ratio (y) = 0.45920 0.31440
# Poissons Ratio (z) = 0.36401 0.36401
#
# Static dielectric constant tensor:
#      x y z
#    x 1.591880 0.000000 0.000000 
#    y 0.000000 1.591880 0.000000 
#    z 0.000000 0.000000 1.581850 
# 
# From -- ./inp_files/18189.got.cif
#   From: 2010.05.17/outbox.cif.g08.bks.cpg/sg91_10_cif.got.tgz:18189.got - 2010.06.03 19:20:03.
