data_PCOD9547349
_publ_section_title
;
Structure prediction by ZEFSAII (Michael W. Deem and Ramdas Pophale) SiO2 
 PCOD9547349
Probable space group: P 4 21 2
;
_chemical_formula_sum "Si O2"
_cell_formula_units_Z 42
_cell_length_a 8.532930
_cell_length_b 8.532930
_cell_length_c 26.355665
_cell_angle_alpha 90.000000
_cell_angle_beta 90.000000
_cell_angle_gamma 90.000000
_cell_volume 1918.979541
_symmetry_space_group_name_H-M "P 4 21 2"
_symmetry_group_IT_number 90
_symmetry_cell_setting 'tetragonal'
loop_
_space_group_symop_operation_xyz
x,y,z
1/2-y,1/2+x,z
-x,-y,z
1/2+y,1/2-x,z
1/2+x,1/2-y,-z
1/2-x,1/2+y,-z
y,x,-z
-y,-x,-z
loop_
_atom_site_type_symbol
_atom_site_label
_atom_site_fract_x
_atom_site_fract_y
_atom_site_fract_z
Si Si1 0.596287 0.239262 0.340006
Si Si2 0.910458 0.749993 0.953096
Si Si3 0.400788 0.659380 0.555485
Si Si4 0.907060 0.749520 0.139586
Si Si5 0.750095 0.417175 0.253188
Si Si6 0.500000 0.000000 0.567452
O O1 0.417035 0.195841 0.330854
O O2 0.631198 0.286166 0.397572
O O3 0.645279 0.371545 0.300396
O O4 0.806655 0.590081 0.955016
O O5 0.868233 0.844947 0.902313
O O6 0.857379 0.857379 0.000000
O O7 0.500000 0.500000 0.553602
O O8 0.322709 0.677292 0.500000
O O9 0.510598 0.807829 0.566470
O O10 0.806568 0.587705 0.134095
O O11 0.889202 0.815085 0.196692
O O12 0.810682 0.593997 0.256402
#
# Coordination Sequence:
#
# PCOD9547349 Si02
#       6
#     8   8   8   8   8   2
#     4  11  26  43  64  95 136 173 214 279 341 396
#     4  11  24  39  58  88 123 162 207 262 321 388
#     4  11  28  48  72 107 137 176 232 282 341 414
#     4   9  19  39  63  90 123 162 211 268 319 381
#     4   9  21  40  65  93 125 169 222 269 321 394
#     4  12  28  44  80 100 132 192 220 276 344 406
#
# _framework density 21.886633
#
# number of rings (size 3 to 8) (size 9 to 14) (size 15 to 20)
#    0.000    1.714    0.000    3.429   10.667    5.714 
#    0.000    5.714    0.000    0.000    0.000    0.000 
#    0.000    0.000    0.000    0.000    0.000    0.000 
#
# Total GULP energy -234518.821495 kJ/mol
# GULP energy per Si atom -5583.781464 kJ/mol
# Density = 2.183682 g / cm^3
# Si number density = 21.886633 Si / 1000 Ang^3
#
#
#
# Elastic Constant Matrix: (Units=GPa)
#
#
# Indices 1 2 3 4 5 6 
#
# 1 48.9960 27.7034 18.6870 0.0000 0.0000 0.0000
# 2 27.7034 48.9960 18.6872 0.0000 0.0000 0.0000
# 3 18.6870 18.6872 100.9753 0.0000 0.0000 0.0000
# 4 0.0000 0.0000 0.0000 43.2091 0.0000 0.0000
# 5 0.0000 0.0000 0.0000 0.0000 43.2079 0.0000
# 6 0.0000 0.0000 0.0000 0.0000 0.0000 -160.0395
#
#
#
# Elastic Compliance Matrix: (Units=1/GPa)
#
#
# Indices 1 2 3 4 5 6 
#
# 1 0.030647 -0.016317 -0.002652 0.000000 0.000000 0.000000
# 2 -0.016317 0.030647 -0.002652 0.000000 0.000000 0.000000
# 3 -0.002652 -0.002652 0.010885 0.000000 0.000000 0.000000
# 4 0.000000 0.000000 0.000000 0.023143 0.000000 0.000000
# 5 0.000000 0.000000 0.000000 0.000000 0.023144 0.000000
# 6 0.000000 0.000000 0.000000 0.000000 0.000000 -0.006248
#
#
# Mechanical properties :
#
#
# Convention : Reuss Voigt Hill
#
# Bulk Modulus (GPa) = 34.55750 36.56917 35.56334
# Shear Modulus (GPa) = 30.28337 -5.79853 12.24242
#
# Velocity S-wave (km/s) = 3.72378 -1.62945 2.36764
# Velocity P-wave (km/s) = 5.85767 3.63381 4.87426
#
# Compressibility (1/GPa) = 0.02893727
#
# Stress axis : x y z
#
# Youngs Moduli (GPa) = 32.62917 32.62910 91.86939
#
# Poissons Ratio (x) = 0.53242 0.24364
# Poissons Ratio (y) = 0.53242 0.24365
# Poissons Ratio (z) = 0.08653 0.08654
#
# Static dielectric constant tensor:
#      x y z
#    x 1.790590 0.000000 0.000000 
#    y 0.000000 1.790590 0.000000 
#    z 0.000000 0.000000 1.795790 
# 
# From -- ./inp_files/2970.got.cif
#   From: 2010.05.17/outbox.cif.g08.bks.cpg/sg90_2_cif.got.tgz:2970.got - 2010.06.03 19:17:45.
