data_PCOD9547160
_publ_section_title
;
Structure prediction by ZEFSAII (Michael W. Deem and Ramdas Pophale) SiO2 
 PCOD9547160
Probable space group: P 4 21 2
;
_chemical_formula_sum "Si O2"
_cell_formula_units_Z 56
_cell_length_a 13.904401
_cell_length_b 13.904401
_cell_length_c 12.934691
_cell_angle_alpha 90.000000
_cell_angle_beta 90.000000
_cell_angle_gamma 90.000000
_cell_volume 2500.694430
_symmetry_space_group_name_H-M "P 4 21 2"
_symmetry_group_IT_number 90
_symmetry_cell_setting 'tetragonal'
loop_
_space_group_symop_operation_xyz
x,y,z
1/2-y,1/2+x,z
-x,-y,z
1/2+y,1/2-x,z
1/2+x,1/2-y,-z
1/2-x,1/2+y,-z
y,x,-z
-y,-x,-z
loop_
_atom_site_type_symbol
_atom_site_label
_atom_site_fract_x
_atom_site_fract_y
_atom_site_fract_z
Si Si1 0.504538 0.643427 0.722621
Si Si2 0.160211 0.704633 0.240433
Si Si3 0.610364 0.250939 0.560039
Si Si4 0.841372 0.983045 0.223003
Si Si5 0.755484 0.147213 0.099226
Si Si6 0.406645 0.870976 0.962762
Si Si7 0.535263 0.155920 0.360837
O O1 0.557398 0.741684 0.755529
O O2 0.456145 0.667978 0.613257
O O3 0.416822 0.604088 0.793862
O O4 0.587621 0.562247 0.722518
O O5 0.189104 0.656420 0.347186
O O6 0.228619 0.790104 0.201527
O O7 0.165422 0.629953 0.146779
O O8 0.696172 0.303829 0.500000
O O9 0.550363 0.186886 0.479932
O O10 0.753130 0.952669 0.295433
O O11 0.793830 0.041471 0.128430
O O12 0.817720 0.182281 0.000000
O O13 0.648372 0.169941 0.061052
O O14 0.519190 0.870779 0.968397
O O15 0.429848 0.110952 0.339580
#
# Coordination Sequence:
#
# PCOD9547160 Si02
#       7
#     8   8   8   8   8   8   8
#     4  10  22  41  63  97 130 183 237 282 359 427
#     4  10  22  42  67  93 135 179 233 297 355 431
#     4  12  24  41  67 101 136 189 244 293 361 425
#     4  10  22  42  65  93 138 178 229 293 359 426
#     4   9  21  41  66  97 129 174 229 289 361 437
#     4  10  21  39  64  95 128 173 229 285 362 437
#     4  11  26  45  65  99 143 188 240 294 359 434
#
# _framework density 22.393778999999999
#
# number of rings (size 3 to 8) (size 9 to 14) (size 15 to 20)
#    0.000    1.714    1.429    1.714    4.000    2.857 
#    0.000   16.429    0.000    0.000    0.000    0.000 
#    0.000    0.000    0.000    0.000    0.000    0.000 
#
# Total GULP energy -312734.801209 kJ/mol
# GULP energy per Si atom -5584.550022 kJ/mol
# Density = 2.234281 g / cm^3
# Si number density = 22.393779 Si / 1000 Ang^3
#
#
#
# Elastic Constant Matrix: (Units=GPa)
#
#
# Indices 1 2 3 4 5 6 
#
# 1 108.4653 21.3381 31.6485 0.0000 0.0000 0.0000
# 2 21.3381 108.4650 31.6471 0.0000 0.0000 0.0000
# 3 31.6485 31.6471 66.2991 0.0000 0.0000 0.0000
# 4 0.0000 0.0000 0.0000 34.7081 0.0000 0.0000
# 5 0.0000 0.0000 0.0000 0.0000 34.7091 0.0000
# 6 0.0000 0.0000 0.0000 0.0000 0.0000 38.1797
#
#
#
# Elastic Compliance Matrix: (Units=1/GPa)
#
#
# Indices 1 2 3 4 5 6 
#
# 1 0.010759 -0.000718 -0.004793 0.000000 0.000000 0.000000
# 2 -0.000718 0.010759 -0.004793 0.000000 0.000000 0.000000
# 3 -0.004793 -0.004793 0.019659 0.000000 0.000000 0.000000
# 4 0.000000 0.000000 0.000000 0.028812 0.000000 0.000000
# 5 0.000000 0.000000 0.000000 0.000000 0.028811 0.000000
# 6 0.000000 0.000000 0.000000 0.000000 0.000000 0.026192
#
#
# Mechanical properties :
#
#
# Convention : Reuss Voigt Hill
#
# Bulk Modulus (GPa) = 48.61687 50.27740 49.44714
# Shear Modulus (GPa) = 32.79599 34.75912 33.77755
#
# Velocity S-wave (km/s) = 3.83105 3.94404 3.88796
# Velocity P-wave (km/s) = 6.42856 6.57578 6.50259
#
# Compressibility (1/GPa) = 0.02056899
#
# Stress axis : x y z
#
# Youngs Moduli (GPa) = 92.94173 92.94281 50.86678
#
# Poissons Ratio (x) = 0.06674 0.24382
# Poissons Ratio (y) = 0.06674 0.24381
# Poissons Ratio (z) = 0.44550 0.44548
#
# Static dielectric constant tensor:
#      x y z
#    x 1.873050 0.000000 0.000000 
#    y 0.000000 1.873050 0.000000 
#    z 0.000000 0.000000 1.788490 
# 
# From -- ./inp_files/2256.got.cif
#   From: 2010.05.17/outbox.cif.g08.bks.cpg/sg90_2_cif.got.tgz:2256.got - 2010.06.03 19:17:45.
