data_PCOD9547157
_publ_section_title
;
Structure prediction by ZEFSAII (Michael W. Deem and Ramdas Pophale) SiO2 
 PCOD9547157
Probable space group: P 4 21 2
;
_chemical_formula_sum "Si O2"
_cell_formula_units_Z 34
_cell_length_a 12.115141
_cell_length_b 12.115141
_cell_length_c 10.292049
_cell_angle_alpha 90.000000
_cell_angle_beta 90.000000
_cell_angle_gamma 90.000000
_cell_volume 1510.632386
_symmetry_space_group_name_H-M "P 4 21 2"
_symmetry_group_IT_number 90
_symmetry_cell_setting 'tetragonal'
loop_
_space_group_symop_operation_xyz
x,y,z
1/2-y,1/2+x,z
-x,-y,z
1/2+y,1/2-x,z
1/2+x,1/2-y,-z
1/2-x,1/2+y,-z
y,x,-z
-y,-x,-z
loop_
_atom_site_type_symbol
_atom_site_label
_atom_site_fract_x
_atom_site_fract_y
_atom_site_fract_z
Si Si1 0.322417 0.036847 0.740901
Si Si2 0.000000 0.500000 0.698010
Si Si3 0.111451 0.944885 0.647699
Si Si4 0.726966 0.432302 0.973508
Si Si5 0.216399 0.369285 0.791204
O O1 0.417944 0.123227 0.711119
O O2 0.208461 0.034636 0.663083
O O3 0.293743 0.054283 0.892512
O O4 0.115886 0.425254 0.710657
O O5 0.084899 0.915102 0.500000
O O6 0.148214 0.829429 0.713408
O O7 0.000000 0.000000 0.704015
O O8 0.746921 0.544117 0.899867
O O9 0.770571 0.336956 0.874903
O O10 0.602226 0.397775 0.000000
#
# Coordination Sequence:
#
# PCOD9547157 Si02
#       5
#     8   2   8   8   8
#     4  11  23  43  70 105 145 186 237 298 376 441
#     4   8  20  40  68  92 130 168 224 296 332 438
#     4  11  26  49  68  97 146 196 247 305 355 438
#     4  11  20  35  66 100 137 172 216 292 352 435
#     4  10  21  39  63 100 133 176 227 277 364 423
#
# _framework density 22.507131000000001
#
# number of rings (size 3 to 8) (size 9 to 14) (size 15 to 20)
#    0.000    1.412    2.353    2.824    0.000    1.882 
#   12.706    2.353    0.000    0.000    0.000    0.000 
#    0.000    0.000    0.000    0.000    0.000    0.000 
#
# Total GULP energy -189316.149824 kJ/mol
# GULP energy per Si atom -5568.122054 kJ/mol
# Density = 2.245590 g / cm^3
# Si number density = 22.507131 Si / 1000 Ang^3
#
#
#
# Elastic Constant Matrix: (Units=GPa)
#
#
# Indices 1 2 3 4 5 6 
#
# 1 113.0037 18.5030 12.2969 0.0000 0.0000 0.0000
# 2 18.5030 113.0088 12.2974 0.0000 0.0000 0.0000
# 3 12.2969 12.2974 45.7650 0.0000 0.0000 0.0000
# 4 0.0000 0.0000 0.0000 21.8062 0.0000 0.0000
# 5 0.0000 0.0000 0.0000 0.0000 21.8065 0.0000
# 6 0.0000 0.0000 0.0000 0.0000 0.0000 54.0568
#
#
#
# Elastic Compliance Matrix: (Units=1/GPa)
#
#
# Indices 1 2 3 4 5 6 
#
# 1 0.009294 -0.001288 -0.002151 0.000000 0.000000 0.000000
# 2 -0.001288 0.009294 -0.002151 0.000000 0.000000 0.000000
# 3 -0.002151 -0.002151 0.023007 0.000000 0.000000 0.000000
# 4 0.000000 0.000000 0.000000 0.045858 0.000000 0.000000
# 5 0.000000 0.000000 0.000000 0.000000 0.045858 0.000000
# 6 0.000000 0.000000 0.000000 0.000000 0.000000 0.018499
#
#
# Mechanical properties :
#
#
# Convention : Reuss Voigt Hill
#
# Bulk Modulus (GPa) = 32.87929 39.77470 36.32700
# Shear Modulus (GPa) = 28.88022 34.77926 31.82974
#
# Velocity S-wave (km/s) = 3.58601 3.93524 3.76467
# Velocity P-wave (km/s) = 5.63791 6.19343 5.92219
#
# Compressibility (1/GPa) = 0.03041428
#
# Stress axis : x y z
#
# Youngs Moduli (GPa) = 107.59389 107.59860 43.46528
#
# Poissons Ratio (x) = 0.13855 0.09351
# Poissons Ratio (y) = 0.13854 0.09351
# Poissons Ratio (z) = 0.23147 0.23148
#
# Static dielectric constant tensor:
#      x y z
#    x 1.863770 0.000000 0.000000 
#    y 0.000000 1.863770 0.000000 
#    z 0.000000 0.000000 1.860610 
# 
# From -- ./inp_files/1873.got.cif
#   From: 2010.05.17/outbox.cif.g08.bks.cpg/sg90_1_cif.got.tgz:1873.got - 2010.06.03 19:17:45.
