data_PCOD9547683
_publ_section_title
;
Structure prediction by ZEFSAII (Michael W. Deem and Ramdas Pophale) SiO2 
 PCOD9547683
Probable space group: P 41 2 2
;
_chemical_formula_sum "Si O2"
_cell_formula_units_Z 56
_cell_length_a 16.268809
_cell_length_b 16.268809
_cell_length_c 11.637685
_cell_angle_alpha 90.000000
_cell_angle_beta 90.000000
_cell_angle_gamma 90.000000
_cell_volume 3080.194342
_symmetry_space_group_name_H-M "P 41 2 2"
_symmetry_group_IT_number 91
_symmetry_cell_setting 'tetragonal'
loop_
_space_group_symop_operation_xyz
x,y,z
-y,x,1/4+z
-x,-y,1/2+z
y,-x,3/4+z
x,-y,1/2-z
-x,y,-z
y,x,3/4-z
-y,-x,1/4-z
loop_
_atom_site_type_symbol
_atom_site_label
_atom_site_fract_x
_atom_site_fract_y
_atom_site_fract_z
Si Si1 0.409793 0.889533 0.545775
Si Si2 0.562970 0.610237 0.595224
Si Si3 0.304780 0.492220 0.424420
Si Si4 0.747764 0.689916 0.192951
Si Si5 0.835640 0.627461 0.542071
Si Si6 0.668573 0.788682 0.825963
Si Si7 0.075092 0.402313 0.268595
O O1 0.500000 0.861106 0.500000
O O2 0.339615 0.825174 0.513847
O O3 0.403441 0.889521 0.684152
O O4 0.394957 0.976874 0.485095
O O5 0.500000 0.579768 0.500000
O O6 0.621523 0.538030 0.638812
O O7 0.520917 0.659125 0.697996
O O8 0.624142 0.675356 0.535507
O O9 0.228234 0.553759 0.431163
O O10 0.271966 0.405003 0.381065
O O11 0.707784 0.777751 0.221624
O O12 0.775668 0.677821 0.060214
O O13 0.889700 0.640351 0.654743
O O14 0.753814 0.753814 0.875000
O O15 0.637652 0.876625 0.873674
O O16 0.092065 0.500000 0.250000
#
# Coordination Sequence:
#
# PCOD9547683 Si02
#       7
#     8   8   8   8   8   8   8
#     4  11  23  36  56  86 115 148 189 237 295 346
#     4  10  19  32  46  70  99 137 183 236 280 315
#     4  10  21  31  50  68  99 143 188 232 274 326
#     4  10  21  36  58  79 105 150 186 235 284 350
#     4  11  20  39  57  78 110 147 191 233 288 349
#     4  11  21  37  55  76 108 148 197 230 284 336
#     4  11  23  37  58  82 115 150 189 243 289 350
#
# _framework density 18.180672999999999
#
# number of rings (size 3 to 8) (size 9 to 14) (size 15 to 20)
#    0.000    1.429    2.857    4.286    0.000    4.000 
#    0.000    0.000    0.000    0.000    0.000    0.000 
#    0.000    6.857    0.000    0.000    0.000    0.000 
#
# Total GULP energy -312624.620344 kJ/mol
# GULP energy per Si atom -5582.582506 kJ/mol
# Density = 1.813929 g / cm^3
# Si number density = 18.180673 Si / 1000 Ang^3
#
#
#
# Elastic Constant Matrix: (Units=GPa)
#
#
# Indices 1 2 3 4 5 6 
#
# 1 66.1909 21.4619 8.4041 0.0000 0.0000 0.0000
# 2 21.4619 66.1909 8.4041 0.0000 0.0000 0.0000
# 3 8.4041 8.4041 49.1460 0.0000 0.0000 0.0000
# 4 0.0000 0.0000 0.0000 21.9952 0.0000 0.0000
# 5 0.0000 0.0000 0.0000 0.0000 21.9952 0.0000
# 6 0.0000 0.0000 0.0000 0.0000 0.0000 18.2680
#
#
#
# Elastic Compliance Matrix: (Units=1/GPa)
#
#
# Indices 1 2 3 4 5 6 
#
# 1 0.017076 -0.005281 -0.002017 0.000000 0.000000 0.000000
# 2 -0.005281 0.017076 -0.002017 0.000000 0.000000 0.000000
# 3 -0.002017 -0.002017 0.021037 0.000000 0.000000 0.000000
# 4 0.000000 0.000000 0.000000 0.045465 0.000000 0.000000
# 5 0.000000 0.000000 0.000000 0.000000 0.045465 0.000000
# 6 0.000000 0.000000 0.000000 0.000000 0.000000 0.054740
#
#
# Mechanical properties :
#
#
# Convention : Reuss Voigt Hill
#
# Bulk Modulus (GPa) = 27.35226 28.67422 28.01324
# Shear Modulus (GPa) = 21.58192 22.00220 21.79206
#
# Velocity S-wave (km/s) = 3.44914 3.48256 3.46589
# Velocity P-wave (km/s) = 5.56232 5.65483 5.60877
#
# Compressibility (1/GPa) = 0.03656004
#
# Stress axis : x y z
#
# Youngs Moduli (GPa) = 58.56123 58.56123 47.53450
#
# Poissons Ratio (x) = 0.30925 0.09588
# Poissons Ratio (y) = 0.30925 0.09588
# Poissons Ratio (z) = 0.11812 0.11812
#
# Static dielectric constant tensor:
#      x y z
#    x 1.633260 0.000000 0.000000 
#    y 0.000000 1.633260 0.000000 
#    z 0.000000 0.000000 1.700930 
# 
# From -- ./inp_files/3912.got.cif
#   From: 2010.05.17/outbox.cif.g08.bks.cpg/sg91_2_cif.got.tgz:3912.got - 2010.06.03 19:20:03.
