data_PCOD9547331
_publ_section_title
;
Structure prediction by ZEFSAII (Michael W. Deem and Ramdas Pophale) SiO2 
 PCOD9547331
Probable space group: P 4 21 2
;
_chemical_formula_sum "Si O2"
_cell_formula_units_Z 44
_cell_length_a 8.377006
_cell_length_b 8.377006
_cell_length_c 30.557235
_cell_angle_alpha 90.000000
_cell_angle_beta 90.000000
_cell_angle_gamma 90.000000
_cell_volume 2144.330423
_symmetry_space_group_name_H-M "P 4 21 2"
_symmetry_group_IT_number 90
_symmetry_cell_setting 'tetragonal'
loop_
_space_group_symop_operation_xyz
x,y,z
1/2-y,1/2+x,z
-x,-y,z
1/2+y,1/2-x,z
1/2+x,1/2-y,-z
1/2-x,1/2+y,-z
y,x,-z
-y,-x,-z
loop_
_atom_site_type_symbol
_atom_site_label
_atom_site_fract_x
_atom_site_fract_y
_atom_site_fract_z
Si Si1 0.000000 0.000000 0.115064
Si Si2 0.953864 0.236294 0.035639
Si Si3 0.421440 0.260323 0.730865
Si Si4 0.242171 0.916865 0.539980
Si Si5 0.242823 0.916411 0.635087
Si Si6 0.952042 0.237195 0.805755
O O1 0.977039 0.148095 0.081984
O O2 0.853240 0.027563 0.148260
O O3 0.824528 0.377366 0.030933
O O4 0.889730 0.110271 0.000000
O O5 0.601482 0.190673 0.734077
O O6 0.392370 0.334671 0.682446
O O7 0.380058 0.384377 0.768566
O O8 0.402157 0.807210 0.537537
O O9 0.131091 0.868910 0.500000
O O10 0.163741 0.889210 0.587946
O O11 0.402265 0.807951 0.634994
O O12 0.823081 0.378557 0.801675
#
# Coordination Sequence:
#
# PCOD9547331 Si02
#       6
#     4   8   8   8   8   8
#     4  12  23  42  64  88 124 170 217 252 290 362
#     4  11  24  43  70 103 138 175 216 264 313 362
#     4   9  17  33  59  85 107 140 191 246 300 368
#     4   9  17  30  48  71 101 137 178 226 280 342
#     4   7  12  26  49  74  99 133 181 232 281 342
#     4  11  24  39  56  82 118 157 196 247 307 358
#
# _framework density 20.519224999999999
#
# number of rings (size 3 to 8) (size 9 to 14) (size 15 to 20)
#    0.000    2.364    0.000    5.727    0.000    0.364 
#    0.000    5.455    0.000    8.727    0.000    0.000 
#    0.000    0.000    0.000    0.000    0.000    0.000 
#
# Total GULP energy -245070.746138 kJ/mol
# GULP energy per Si atom -5569.789685 kJ/mol
# Density = 2.047252 g / cm^3
# Si number density = 20.519225 Si / 1000 Ang^3
#
#
#
# Elastic Constant Matrix: (Units=GPa)
#
#
# Indices 1 2 3 4 5 6 
#
# 1 170.7386 -18.2481 78.1344 0.0000 0.0000 0.0000
# 2 -18.2481 170.7361 78.1348 0.0000 0.0000 0.0000
# 3 78.1344 78.1348 193.1681 0.0000 0.0000 0.0000
# 4 0.0000 0.0000 0.0000 26.0809 0.0000 0.0000
# 5 0.0000 0.0000 0.0000 0.0000 26.0809 0.0000
# 6 0.0000 0.0000 0.0000 0.0000 0.0000 35.9707
#
#
#
# Elastic Compliance Matrix: (Units=1/GPa)
#
#
# Indices 1 2 3 4 5 6 
#
# 1 0.008246 0.002955 -0.004531 0.000000 0.000000 0.000000
# 2 0.002955 0.008246 -0.004531 0.000000 0.000000 0.000000
# 3 -0.004531 -0.004531 0.008842 0.000000 0.000000 0.000000
# 4 0.000000 0.000000 0.000000 0.038342 0.000000 0.000000
# 5 0.000000 0.000000 0.000000 0.000000 0.038342 0.000000
# 6 0.000000 0.000000 0.000000 0.000000 0.000000 0.027800
#
#
# Mechanical properties :
#
#
# Convention : Reuss Voigt Hill
#
# Bulk Modulus (GPa) = 76.21306 90.07610 83.14458
# Shear Modulus (GPa) = 34.15167 44.06795 39.10981
#
# Velocity S-wave (km/s) = 4.08410 4.63929 4.37052
# Velocity P-wave (km/s) = 7.71121 8.52591 8.12877
#
# Compressibility (1/GPa) = 0.01312111
#
# Stress axis : x y z
#
# Youngs Moduli (GPa) = 121.27113 121.26870 113.09675
#
# Poissons Ratio (x) = -0.35831 0.51239
# Poissons Ratio (y) = -0.35831 0.51240
# Poissons Ratio (z) = 0.54942 0.54942
#
# Static dielectric constant tensor:
#      x y z
#    x 1.766990 0.000000 0.000000 
#    y 0.000000 1.766990 0.000000 
#    z 0.000000 0.000000 1.748230 
# 
# From -- ./inp_files/3006.got.cif
#   From: 2010.05.17/outbox.cif.g08.bks.cpg/sg90_2_cif.got.tgz:3006.got - 2010.06.03 19:17:45.
