data_PCOD9547613
_publ_section_title
;
Structure prediction by ZEFSAII (Michael W. Deem and Ramdas Pophale) SiO2 
 PCOD9547613
Probable space group: P 41 2 2
;
_chemical_formula_sum "Si O2"
_cell_formula_units_Z 40
_cell_length_a 8.361150
_cell_length_b 8.361150
_cell_length_c 26.574366
_cell_angle_alpha 90.000000
_cell_angle_beta 90.000000
_cell_angle_gamma 90.000000
_cell_volume 1857.782817
_symmetry_space_group_name_H-M "P 41 2 2"
_symmetry_group_IT_number 91
_symmetry_cell_setting 'tetragonal'
loop_
_space_group_symop_operation_xyz
x,y,z
-y,x,1/4+z
-x,-y,1/2+z
y,-x,3/4+z
x,-y,1/2-z
-x,y,-z
y,x,3/4-z
-y,-x,1/4-z
loop_
_atom_site_type_symbol
_atom_site_label
_atom_site_fract_x
_atom_site_fract_y
_atom_site_fract_z
Si Si1 0.000000 0.383364 0.000000
Si Si2 0.178611 0.951010 0.974913
Si Si3 0.408566 0.263797 0.223615
Si Si4 0.586991 0.517034 0.574163
Si Si5 0.030415 0.969586 0.625000
Si Si6 0.838262 0.756793 0.188670
O O1 0.898600 0.497622 0.036158
O O2 0.111938 0.271095 0.032879
O O3 0.249401 0.777678 0.962682
O O4 0.147539 0.046771 0.923048
O O5 0.000000 0.928935 0.000000
O O6 0.287298 0.040444 0.016308
O O7 0.434640 0.299500 0.282957
O O8 0.497921 0.408308 0.196786
O O9 0.583063 0.416938 0.625000
O O10 0.632268 0.704457 0.579861
O O11 0.064079 0.148178 0.645997
#
# Coordination Sequence:
#
# PCOD9547613 Si02
#       6
#     4   8   8   8   4   8
#     4  10  18  38  60  86 124 170 204 266 338 378
#     4  10  19  37  62  97 122 166 220 275 323 386
#     4  10  21  39  64  86 131 173 209 275 330 392
#     4  10  22  42  60  91 132 174 217 265 339 408
#     4  10  18  34  66  94 128 162 218 280 322 392
#     4  10  20  38  62  91 130 165 220 276 324 394
#
# _framework density 21.531043
#
# number of rings (size 3 to 8) (size 9 to 14) (size 15 to 20)
#    0.000    2.000    4.000    1.200    0.000    0.000 
#    9.000   10.000    0.000    0.000    0.000    0.000 
#    0.000    0.000    0.000    0.000    0.000    0.000 
#
# Total GULP energy -223058.119075 kJ/mol
# GULP energy per Si atom -5576.452977 kJ/mol
# Density = 2.148204 g / cm^3
# Si number density = 21.531043 Si / 1000 Ang^3
#
#
#
# Elastic Constant Matrix: (Units=GPa)
#
#
# Indices 1 2 3 4 5 6 
#
# 1 78.8107 33.5118 1.9700 0.0000 0.0000 0.0000
# 2 33.5118 78.8131 1.9707 0.0000 0.0000 0.0000
# 3 1.9700 1.9707 85.3428 0.0000 0.0000 0.0000
# 4 0.0000 0.0000 0.0000 7.4920 0.0000 0.0000
# 5 0.0000 0.0000 0.0000 0.0000 7.4915 0.0000
# 6 0.0000 0.0000 0.0000 0.0000 0.0000 45.6292
#
#
#
# Elastic Compliance Matrix: (Units=1/GPa)
#
#
# Indices 1 2 3 4 5 6 
#
# 1 0.015493 -0.006582 -0.000206 0.000000 0.000000 0.000000
# 2 -0.006582 0.015492 -0.000206 0.000000 0.000000 0.000000
# 3 -0.000206 -0.000206 0.011727 0.000000 0.000000 0.000000
# 4 0.000000 0.000000 0.000000 0.133476 0.000000 0.000000
# 5 0.000000 0.000000 0.000000 0.000000 0.133485 0.000000
# 6 0.000000 0.000000 0.000000 0.000000 0.000000 0.021916
#
#
# Mechanical properties :
#
#
# Convention : Reuss Voigt Hill
#
# Bulk Modulus (GPa) = 34.81381 35.31905 35.06643
# Shear Modulus (GPa) = 14.07850 25.82346 19.95098
#
# Velocity S-wave (km/s) = 2.55986 3.46693 3.04734
# Velocity P-wave (km/s) = 4.99414 5.69786 5.35756
#
# Compressibility (1/GPa) = 0.02872423
#
# Stress axis : x y z
#
# Youngs Moduli (GPa) = 64.54618 64.54810 85.27369
#
# Poissons Ratio (x) = 0.42489 0.01753
# Poissons Ratio (y) = 0.42487 0.01755
# Poissons Ratio (z) = 0.01327 0.01328
#
# Static dielectric constant tensor:
#      x y z
#    x 1.806760 0.000000 0.000000 
#    y 0.000000 1.806760 0.000000 
#    z 0.000000 0.000000 1.943680 
# 
# From -- ./inp_files/7777.got.cif
#   From: 2010.05.17/outbox.cif.g08.bks.cpg/sg91_4_cif.got.tgz:7777.got - 2010.06.03 19:20:03.
