data_PCOD9547775
_publ_section_title
;
Structure prediction by ZEFSAII (Michael W. Deem and Ramdas Pophale) SiO2 
 PCOD9547775
Probable space group: P 41 2 2
;
_chemical_formula_sum "Si O2"
_cell_formula_units_Z 60
_cell_length_a 18.062184
_cell_length_b 18.062184
_cell_length_c 9.874635
_cell_angle_alpha 90.000000
_cell_angle_beta 90.000000
_cell_angle_gamma 90.000000
_cell_volume 3221.525519
_symmetry_space_group_name_H-M "P 41 2 2"
_symmetry_group_IT_number 91
_symmetry_cell_setting 'tetragonal'
loop_
_space_group_symop_operation_xyz
x,y,z
-y,x,1/4+z
-x,-y,1/2+z
y,-x,3/4+z
x,-y,1/2-z
-x,y,-z
y,x,3/4-z
-y,-x,1/4-z
loop_
_atom_site_type_symbol
_atom_site_label
_atom_site_fract_x
_atom_site_fract_y
_atom_site_fract_z
Si Si1 0.946334 0.824731 0.390822
Si Si2 0.169382 0.048637 0.382196
Si Si3 0.360638 0.323203 0.527805
Si Si4 0.412446 0.845977 0.975325
Si Si5 0.216086 0.701818 0.810057
Si Si6 0.088676 0.682270 0.034820
Si Si7 0.425746 0.500000 0.250000
Si Si8 0.152883 0.697935 0.514468
O O1 0.874740 0.874740 0.375000
O O2 0.918101 0.745837 0.443113
O O3 0.000000 0.861059 0.500000
O O4 0.993959 0.820822 0.256447
O O5 0.096722 0.096722 0.375000
O O6 0.241346 0.099011 0.367328
O O7 0.168742 0.000000 0.250000
O O8 0.333242 0.333242 0.375000
O O9 0.392653 0.240749 0.533129
O O10 0.290297 0.335161 0.626895
O O11 0.430016 0.377037 0.547778
O O12 0.368889 0.869823 0.836362
O O13 0.500000 0.855037 0.000000
O O14 0.377845 0.884456 0.107697
O O15 0.193653 0.677280 0.657247
O O16 0.243899 0.788062 0.803560
O O17 0.144404 0.688315 0.906084
O O18 0.000000 0.673782 0.000000
O O19 0.473748 0.473748 0.375000
#
# Coordination Sequence:
#
# PCOD9547775 Si02
#       8
#     8   8   8   8   8   8   4   8
#     4  12  24  39  58  85 130 174 219 271 338 396
#     4  11  25  38  59  89 121 167 220 269 321 393
#     4  10  19  37  67  97 129 171 217 261 321 393
#     4  11  23  42  66  99 122 167 216 269 337 401
#     4  10  20  38  64  94 123 166 221 278 321 379
#     4  11  24  40  65  91 125 162 219 277 320 390
#     4  10  22  42  62 102 146 178 204 256 322 404
#     4  10  22  39  64  91 127 164 216 277 329 397
#
# _framework density 18.624717
#
# number of rings (size 3 to 8) (size 9 to 14) (size 15 to 20)
#    0.000    1.333    3.333    3.200    5.600    1.600 
#    4.800    4.000    0.000    0.000    0.000    0.000 
#    0.000    0.000    0.000    0.000    0.000    0.000 
#
# Total GULP energy -334424.390627 kJ/mol
# GULP energy per Si atom -5573.739844 kJ/mol
# Density = 1.858233 g / cm^3
# Si number density = 18.624717 Si / 1000 Ang^3
#
#
#
# Elastic Constant Matrix: (Units=GPa)
#
#
# Indices 1 2 3 4 5 6 
#
# 1 131.4712 25.5760 64.7415 0.0000 0.0000 0.0000
# 2 25.5760 131.4712 64.7415 0.0000 0.0000 0.0000
# 3 64.7415 64.7415 126.2698 0.0000 0.0000 0.0000
# 4 0.0000 0.0000 0.0000 47.9855 0.0000 0.0000
# 5 0.0000 0.0000 0.0000 0.0000 47.9855 0.0000
# 6 0.0000 0.0000 0.0000 0.0000 0.0000 36.8742
#
#
#
# Elastic Compliance Matrix: (Units=1/GPa)
#
#
# Indices 1 2 3 4 5 6 
#
# 1 0.010237 0.000794 -0.005656 0.000000 0.000000 0.000000
# 2 0.000794 0.010237 -0.005656 0.000000 0.000000 0.000000
# 3 -0.005656 -0.005656 0.013719 0.000000 0.000000 0.000000
# 4 0.000000 0.000000 0.000000 0.020840 0.000000 0.000000
# 5 0.000000 0.000000 0.000000 0.000000 0.020840 0.000000
# 6 0.000000 0.000000 0.000000 0.000000 0.000000 0.027119
#
#
# Mechanical properties :
#
#
# Convention : Reuss Voigt Hill
#
# Bulk Modulus (GPa) = 76.00145 77.70338 76.85242
# Shear Modulus (GPa) = 38.93708 42.17925 40.55817
#
# Velocity S-wave (km/s) = 4.57728 4.76404 4.67160
# Velocity P-wave (km/s) = 8.29643 8.48956 8.39355
#
# Compressibility (1/GPa) = 0.01315764
#
# Stress axis : x y z
#
# Youngs Moduli (GPa) = 97.68609 97.68609 72.89136
#
# Poissons Ratio (x) = -0.07752 0.41224
# Poissons Ratio (y) = -0.07752 0.41224
# Poissons Ratio (z) = 0.55247 0.55247
#
# Static dielectric constant tensor:
#      x y z
#    x 1.434190 0.000000 0.000000 
#    y 0.000000 1.434190 0.000000 
#    z 0.000000 0.000000 1.664600 
# 
# From -- ./inp_files/19719.got.cif
#   From: 2010.05.17/outbox.cif.g08.bks.cpg/sg91_10_cif.got.tgz:19719.got - 2010.06.03 19:20:03.
