data_PCOD9547440
_publ_section_title
;
Structure prediction by ZEFSAII (Michael W. Deem and Ramdas Pophale) SiO2 
 PCOD9547440
Probable space group: P 4 21 2
;
_chemical_formula_sum "Si O2"
_cell_formula_units_Z 34
_cell_length_a 8.803503
_cell_length_b 8.803503
_cell_length_c 21.214314
_cell_angle_alpha 90.000000
_cell_angle_beta 90.000000
_cell_angle_gamma 90.000000
_cell_volume 1644.144658
_symmetry_space_group_name_H-M "P 4 21 2"
_symmetry_group_IT_number 90
_symmetry_cell_setting 'tetragonal'
loop_
_space_group_symop_operation_xyz
x,y,z
1/2-y,1/2+x,z
-x,-y,z
1/2+y,1/2-x,z
1/2+x,1/2-y,-z
1/2-x,1/2+y,-z
y,x,-z
-y,-x,-z
loop_
_atom_site_type_symbol
_atom_site_label
_atom_site_fract_x
_atom_site_fract_y
_atom_site_fract_z
Si Si1 0.000000 0.500000 0.331755
Si Si2 0.896664 0.265810 0.944920
Si Si3 0.662423 0.584368 0.319979
Si Si4 0.615095 0.770615 0.196967
Si Si5 0.109638 0.727983 0.555579
O O1 0.812225 0.483653 0.331134
O O2 0.807663 0.426089 0.950363
O O3 0.863280 0.209073 0.874003
O O4 0.844040 0.155961 0.000000
O O5 0.500000 0.500000 0.320820
O O6 0.672464 0.662354 0.251564
O O7 0.647437 0.703880 0.376680
O O8 0.434829 0.804311 0.203156
O O9 0.194812 0.568052 0.549021
O O10 0.162703 0.837298 0.500000
#
# Coordination Sequence:
#
# PCOD9547440 Si02
#       5
#     2   8   8   8   8
#     4  12  28  44  72 108 144 176 236 298 340 420
#     4   9  19  38  60  89 127 173 221 279 340 409
#     4  12  26  46  71 102 142 185 229 294 362 415
#     4   9  18  39  68  91 130 182 232 282 348 427
#     4  11  27  45  71 103 137 183 231 284 353 422
#
# _framework density 20.679445000000001
#
# number of rings (size 3 to 8) (size 9 to 14) (size 15 to 20)
#    0.000    1.647    0.000    5.647    6.588    2.353 
#   12.706    0.000    0.000    0.000    0.000    0.000 
#    0.000    0.000    0.000    0.000    0.000    0.000 
#
# Total GULP energy -189649.131697 kJ/mol
# GULP energy per Si atom -5577.915638 kJ/mol
# Density = 2.063238 g / cm^3
# Si number density = 20.679445 Si / 1000 Ang^3
#
#
#
# Elastic Constant Matrix: (Units=GPa)
#
#
# Indices 1 2 3 4 5 6 
#
# 1 51.0441 48.2655 39.0129 0.0000 0.0000 0.0000
# 2 48.2655 51.0386 39.0098 0.0000 0.0000 0.0000
# 3 39.0129 39.0098 114.6531 0.0000 0.0000 0.0000
# 4 0.0000 0.0000 0.0000 34.6374 0.0000 0.0000
# 5 0.0000 0.0000 0.0000 0.0000 34.6372 0.0000
# 6 0.0000 0.0000 0.0000 0.0000 0.0000 41.1522
#
#
#
# Elastic Compliance Matrix: (Units=1/GPa)
#
#
# Indices 1 2 3 4 5 6 
#
# 1 0.186993 -0.173257 -0.004678 0.000000 0.000000 0.000000
# 2 -0.173257 0.187010 -0.004675 0.000000 0.000000 0.000000
# 3 -0.004678 -0.004675 0.011904 0.000000 0.000000 0.000000
# 4 0.000000 0.000000 0.000000 0.028871 0.000000 0.000000
# 5 0.000000 0.000000 0.000000 0.000000 0.028871 0.000000
# 6 0.000000 0.000000 0.000000 0.000000 0.000000 0.024300
#
#
# Mechanical properties :
#
#
# Convention : Reuss Voigt Hill
#
# Bulk Modulus (GPa) = 48.34087 52.14582 50.24335
# Shear Modulus (GPa) = 5.95193 28.11521 17.03357
#
# Velocity S-wave (km/s) = 1.69836 3.69124 2.87312
# Velocity P-wave (km/s) = 5.22235 6.59075 5.94605
#
# Compressibility (1/GPa) = 0.02068643
#
# Stress axis : x y z
#
# Youngs Moduli (GPa) = 5.34781 5.34732 84.00294
#
# Poissons Ratio (x) = 0.92646 0.39300
# Poissons Ratio (y) = 0.92655 0.39267
# Poissons Ratio (z) = 0.02502 0.02500
#
# Static dielectric constant tensor:
#      x y z
#    x 1.742330 0.000000 0.000000 
#    y 0.000000 1.742330 0.000000 
#    z 0.000000 0.000000 1.711920 
# 
# From -- ./inp_files/2723.got.cif
#   From: 2010.05.17/outbox.cif.g08.bks.cpg/sg90_2_cif.got.tgz:2723.got - 2010.06.03 19:17:45.
