data_PCOD9547810
_publ_section_title
;
Structure prediction by ZEFSAII (Michael W. Deem and Ramdas Pophale) SiO2 
 PCOD9547810
Probable space group: P 41 2 2
;
_chemical_formula_sum "Si O2"
_cell_formula_units_Z 40
_cell_length_a 8.400275
_cell_length_b 8.400275
_cell_length_c 21.239466
_cell_angle_alpha 90.000000
_cell_angle_beta 90.000000
_cell_angle_gamma 90.000000
_cell_volume 1498.754849
_symmetry_space_group_name_H-M "P 41 2 2"
_symmetry_group_IT_number 91
_symmetry_cell_setting 'tetragonal'
loop_
_space_group_symop_operation_xyz
x,y,z
-y,x,1/4+z
-x,-y,1/2+z
y,-x,3/4+z
x,-y,1/2-z
-x,y,-z
y,x,3/4-z
-y,-x,1/4-z
loop_
_atom_site_type_symbol
_atom_site_label
_atom_site_fract_x
_atom_site_fract_y
_atom_site_fract_z
Si Si1 0.596433 0.551982 0.181799
Si Si2 0.882387 0.432613 0.104790
Si Si3 0.208550 0.141086 0.659535
Si Si4 0.632655 0.061794 0.552420
Si Si5 0.282745 0.177823 0.227093
O O1 0.544111 0.500000 0.250000
O O2 0.475065 0.524936 0.125000
O O3 0.750925 0.443259 0.160067
O O4 0.663431 0.729607 0.182461
O O5 0.809572 0.539480 0.049762
O O6 0.170154 0.199996 0.165874
O O7 0.962001 0.270244 0.081886
O O8 0.539793 0.028140 0.617030
O O9 0.048226 0.208693 0.691353
O O10 0.500000 0.018144 0.500000
O O11 0.768942 0.300987 0.719511
O O12 0.262244 0.000000 0.250000
#
# Coordination Sequence:
#
# PCOD9547810 Si02
#       5
#     8   8   8   8   8
#     4  10  23  46  70 103 147 192 250 300 373 448
#     4  10  22  43  67 104 140 191 239 301 373 449
#     4  10  22  40  68 104 136 191 237 302 375 436
#     4  10  19  41  70  95 143 186 232 299 368 441
#     4  10  22  40  63 100 141 180 242 293 364 449
#
# _framework density 26.688821000000001
#
# number of rings (size 3 to 8) (size 9 to 14) (size 15 to 20)
#    0.000    2.400    2.000    2.400    0.000    6.400 
#   14.400    1.000    0.000    0.000    0.000    0.000 
#    0.000    0.000    0.000    0.000    0.000    0.000 
#
# Total GULP energy -223855.147349 kJ/mol
# GULP energy per Si atom -5596.378684 kJ/mol
# Density = 2.662808 g / cm^3
# Si number density = 26.688821 Si / 1000 Ang^3
#
#
#
# Elastic Constant Matrix: (Units=GPa)
#
#
# Indices 1 2 3 4 5 6 
#
# 1 79.1511 59.2074 46.9921 0.0000 0.0000 0.0000
# 2 59.2074 79.1504 46.9918 0.0000 0.0000 0.0000
# 3 46.9921 46.9918 130.8965 0.0000 0.0000 0.0000
# 4 0.0000 0.0000 0.0000 39.9277 0.0000 0.0000
# 5 0.0000 0.0000 0.0000 0.0000 39.9278 0.0000
# 6 0.0000 0.0000 0.0000 0.0000 0.0000 45.6734
#
#
#
# Elastic Compliance Matrix: (Units=1/GPa)
#
#
# Indices 1 2 3 4 5 6 
#
# 1 0.029850 -0.020292 -0.003432 0.000000 0.000000 0.000000
# 2 -0.020292 0.029850 -0.003432 0.000000 0.000000 0.000000
# 3 -0.003432 -0.003432 0.010103 0.000000 0.000000 0.000000
# 4 0.000000 0.000000 0.000000 0.025045 0.000000 0.000000
# 5 0.000000 0.000000 0.000000 0.000000 0.025045 0.000000
# 6 0.000000 0.000000 0.000000 0.000000 0.000000 0.021895
#
#
# Mechanical properties :
#
#
# Convention : Reuss Voigt Hill
#
# Bulk Modulus (GPa) = 64.53905 66.17562 65.35733
# Shear Modulus (GPa) = 24.84304 34.17288 29.50796
#
# Velocity S-wave (km/s) = 3.05428 3.58218 3.32871
# Velocity P-wave (km/s) = 6.05580 6.47753 6.27021
#
# Compressibility (1/GPa) = 0.01549450
#
# Stress axis : x y z
#
# Youngs Moduli (GPa) = 33.50062 33.50038 98.97584
#
# Poissons Ratio (x) = 0.67978 0.33964
# Poissons Ratio (y) = 0.67978 0.33964
# Poissons Ratio (z) = 0.11496 0.11496
#
# Static dielectric constant tensor:
#      x y z
#    x 2.109040 0.000000 0.000000 
#    y 0.000000 2.109040 0.000000 
#    z 0.000000 0.000000 2.050220 
# 
# From -- ./inp_files/6798.got.cif
#   From: 2010.05.17/outbox.cif.g08.bks.cpg/sg91_4_cif.got.tgz:6798.got - 2010.06.03 19:20:03.
