data_PCOD9547332
_publ_section_title
;
Structure prediction by ZEFSAII (Michael W. Deem and Ramdas Pophale) SiO2 
 PCOD9547332
Probable space group: P 4 21 2
;
_chemical_formula_sum "Si O2"
_cell_formula_units_Z 44
_cell_length_a 8.123874
_cell_length_b 8.123874
_cell_length_c 30.838991
_cell_angle_alpha 90.000000
_cell_angle_beta 90.000000
_cell_angle_gamma 90.000000
_cell_volume 2035.291028
_symmetry_space_group_name_H-M "P 4 21 2"
_symmetry_group_IT_number 90
_symmetry_cell_setting 'tetragonal'
loop_
_space_group_symop_operation_xyz
x,y,z
1/2-y,1/2+x,z
-x,-y,z
1/2+y,1/2-x,z
1/2+x,1/2-y,-z
1/2-x,1/2+y,-z
y,x,-z
-y,-x,-z
loop_
_atom_site_type_symbol
_atom_site_label
_atom_site_fract_x
_atom_site_fract_y
_atom_site_fract_z
Si Si1 0.000000 0.000000 0.292573
Si Si2 0.237559 0.914026 0.778359
Si Si3 0.912820 0.236788 0.958547
Si Si4 0.736395 0.414182 0.541307
Si Si5 0.405337 0.262480 0.137107
Si Si6 0.590776 0.263037 0.362791
O O1 0.889026 0.110411 0.260786
O O2 0.891362 0.886990 0.324351
O O3 0.398188 0.799798 0.775610
O O4 0.149800 0.877233 0.823865
O O5 0.800708 0.400771 0.960382
O O6 0.881085 0.162393 0.910884
O O7 0.870093 0.129908 0.000000
O O8 0.801261 0.600241 0.539376
O O9 0.628856 0.371145 0.500000
O O10 0.662604 0.384360 0.589118
O O11 0.594173 0.201948 0.140219
O O12 0.700467 0.098861 0.359710
#
# Coordination Sequence:
#
# PCOD9547332 Si02
#       6
#     4   8   8   8   8   8
#     4  12  22  38  61  82 107 148 190 228 282 344
#     4  11  24  39  56  83 115 143 180 237 294 339
#     4   9  19  35  55  82 115 148 184 225 269 323
#     4   9  19  35  55  82 114 145 182 225 267 318
#     4   9  19  38  61  82 108 148 194 233 276 340
#     4   9  20  38  58  83 114 147 187 231 272 326
#
# _framework density 21.618528999999999
#
# number of rings (size 3 to 8) (size 9 to 14) (size 15 to 20)
#    0.000    2.364    0.000    4.364    0.000    5.091 
#    0.000    7.273    0.000    2.182    0.000    0.000 
#    0.000    0.000    0.000    0.000    0.000    0.000 
#
# Total GULP energy -246012.598915 kJ/mol
# GULP energy per Si atom -5591.195430 kJ/mol
# Density = 2.156932 g / cm^3
# Si number density = 21.618529 Si / 1000 Ang^3
#
#
#
# Elastic Constant Matrix: (Units=GPa)
#
#
# Indices 1 2 3 4 5 6 
#
# 1 46.0819 16.0294 52.3243 0.0000 0.0000 0.0000
# 2 16.0294 46.0816 52.3244 0.0000 0.0000 0.0000
# 3 52.3243 52.3244 221.5112 0.0000 0.0000 0.0000
# 4 0.0000 0.0000 0.0000 49.4549 0.0000 0.0000
# 5 0.0000 0.0000 0.0000 0.0000 49.4546 0.0000
# 6 0.0000 0.0000 0.0000 0.0000 0.0000 31.4190
#
#
#
# Elastic Compliance Matrix: (Units=1/GPa)
#
#
# Indices 1 2 3 4 5 6 
#
# 1 0.030010 -0.003266 -0.006317 0.000000 0.000000 0.000000
# 2 -0.003266 0.030010 -0.006317 0.000000 0.000000 0.000000
# 3 -0.006317 -0.006317 0.007499 0.000000 0.000000 0.000000
# 4 0.000000 0.000000 0.000000 0.020220 0.000000 0.000000
# 5 0.000000 0.000000 0.000000 0.000000 0.020221 0.000000
# 6 0.000000 0.000000 0.000000 0.000000 0.000000 0.031828
#
#
# Mechanical properties :
#
#
# Convention : Reuss Voigt Hill
#
# Bulk Modulus (GPa) = 27.99740 61.67010 44.83375
# Shear Modulus (GPa) = 27.24887 38.93212 33.09049
#
# Velocity S-wave (km/s) = 3.55412 4.24827 3.91660
# Velocity P-wave (km/s) = 5.46087 7.25618 6.42158
#
# Compressibility (1/GPa) = 0.03571761
#
# Stress axis : x y z
#
# Youngs Moduli (GPa) = 33.32275 33.32239 133.35192
#
# Poissons Ratio (x) = 0.10882 0.84242
# Poissons Ratio (y) = 0.10882 0.84244
# Poissons Ratio (z) = 0.21051 0.21051
#
# Static dielectric constant tensor:
#      x y z
#    x 1.800170 0.000000 0.000000 
#    y 0.000000 1.800170 0.000000 
#    z 0.000000 0.000000 1.778850 
# 
# From -- ./inp_files/3022.got.cif
#   From: 2010.05.17/outbox.cif.g08.bks.cpg/sg90_2_cif.got.tgz:3022.got - 2010.06.03 19:17:45.
