data_PCOD9547118
_publ_section_title
;
Structure prediction by ZEFSAII (Michael W. Deem and Ramdas Pophale) SiO2 
 PCOD9547118
Probable space group: P 4 21 2
;
_chemical_formula_sum "Si O2"
_cell_formula_units_Z 48
_cell_length_a 8.649190
_cell_length_b 8.649190
_cell_length_c 32.475990
_cell_angle_alpha 90.000000
_cell_angle_beta 90.000000
_cell_angle_gamma 90.000000
_cell_volume 2429.479697
_symmetry_space_group_name_H-M "P 4 21 2"
_symmetry_group_IT_number 90
_symmetry_cell_setting 'tetragonal'
loop_
_space_group_symop_operation_xyz
x,y,z
1/2-y,1/2+x,z
-x,-y,z
1/2+y,1/2-x,z
1/2+x,1/2-y,-z
1/2-x,1/2+y,-z
y,x,-z
-y,-x,-z
loop_
_atom_site_type_symbol
_atom_site_label
_atom_site_fract_x
_atom_site_fract_y
_atom_site_fract_z
Si Si1 0.000000 0.500000 0.726174
Si Si2 0.243514 0.962981 0.072384
Si Si3 0.258323 0.078918 0.799708
Si Si4 0.500000 0.500000 0.000000
Si Si5 0.000000 0.000000 0.859515
Si Si6 0.225587 0.636039 0.629514
Si Si7 0.107209 0.149403 0.713709
Si Si8 0.379054 0.769062 0.460979
O O1 0.015652 0.308261 0.724433
O O2 0.373784 0.832219 0.075053
O O3 0.124337 0.928653 0.109217
O O4 0.145889 0.981069 0.030453
O O5 0.403607 0.187679 0.807547
O O6 0.211927 0.108257 0.752648
O O7 0.114031 0.095842 0.829923
O O8 0.202283 0.449088 0.631949
O O9 0.317929 0.686931 0.669626
O O10 0.294864 0.664937 0.584291
O O11 0.000000 0.000000 0.707926
O O12 0.562134 0.799731 0.462730
O O13 0.328422 0.671579 0.500000
#
# Coordination Sequence:
#
# PCOD9547118 Si02
#       8
#     2   8   8   2   4   8   8   8
#     4  12  24  44  68  92 140 176 228 284 348 416
#     4  10  21  38  60  94 128 164 223 277 325 408
#     4  11  25  43  60  89 128 165 218 279 338 410
#     4  10  20  36  64  88 132 176 208 268 358 392
#     4  11  22  41  64  88 122 178 213 272 347 400
#     4   9  17  36  61  84 117 159 202 257 319 388
#     4  12  22  39  65  96 122 168 221 277 337 409
#     4   9  19  37  58  82 117 154 196 249 310 379
#
# _framework density 19.757318999999999
#
# number of rings (size 3 to 8) (size 9 to 14) (size 15 to 20)
#    0.000    1.667    2.500    3.500    0.000    0.333 
#    6.000    0.000    0.000   10.000    0.000    0.000 
#    0.000    0.000    0.000    0.000    0.000    0.000 
#
# Total GULP energy -267234.276366 kJ/mol
# GULP energy per Si atom -5567.380758 kJ/mol
# Density = 1.971235 g / cm^3
# Si number density = 19.757319 Si / 1000 Ang^3
#
#
#
# Elastic Constant Matrix: (Units=GPa)
#
#
# Indices 1 2 3 4 5 6 
#
# 1 49.7608 6.0568 14.8122 0.0000 0.0000 0.0000
# 2 6.0568 49.7610 14.8134 0.0000 0.0000 0.0000
# 3 14.8122 14.8134 107.2729 0.0000 0.0000 0.0000
# 4 0.0000 0.0000 0.0000 14.7616 0.0000 0.0000
# 5 0.0000 0.0000 0.0000 0.0000 14.7617 0.0000
# 6 0.0000 0.0000 0.0000 0.0000 0.0000 -7.8028
#
#
#
# Elastic Compliance Matrix: (Units=1/GPa)
#
#
# Indices 1 2 3 4 5 6 
#
# 1 0.021107 -0.001774 -0.002669 0.000000 0.000000 0.000000
# 2 -0.001774 0.021107 -0.002670 0.000000 0.000000 0.000000
# 3 -0.002669 -0.002670 0.010059 0.000000 0.000000 0.000000
# 4 0.000000 0.000000 0.000000 0.067744 0.000000 0.000000
# 5 0.000000 0.000000 0.000000 0.000000 0.067743 0.000000
# 6 0.000000 0.000000 0.000000 0.000000 0.000000 -0.128159
#
#
# Mechanical properties :
#
#
# Convention : Reuss Voigt Hill
#
# Bulk Modulus (GPa) = 26.28404 30.90659 28.59531
# Shear Modulus (GPa) = 57.79730 15.75157 36.77443
#
# Velocity S-wave (km/s) = 5.41453 2.82663 4.31897
# Velocity P-wave (km/s) = 7.24029 5.13129 6.27503
#
# Compressibility (1/GPa) = 0.03804591
#
# Stress axis : x y z
#
# Youngs Moduli (GPa) = 47.37830 47.37814 99.41088
#
# Poissons Ratio (x) = 0.08407 0.26537
# Poissons Ratio (y) = 0.08407 0.26539
# Poissons Ratio (z) = 0.12647 0.12648
#
# Static dielectric constant tensor:
#      x y z
#    x 1.703560 0.000000 0.000000 
#    y 0.000000 1.703560 0.000000 
#    z 0.000000 0.000000 1.714080 
# 
# From -- ./inp_files/3135.got.cif
#   From: 2010.05.17/outbox.cif.g08.bks.cpg/sg90_2_cif.got.tgz:3135.got - 2010.06.03 19:17:45.
