data_PCOD9547697
_publ_section_title
;
Structure prediction by ZEFSAII (Michael W. Deem and Ramdas Pophale) SiO2 
 PCOD9547697
Probable space group: P 41 2 2
;
_chemical_formula_sum "Si O2"
_cell_formula_units_Z 64
_cell_length_a 11.563163
_cell_length_b 11.563163
_cell_length_c 24.574557
_cell_angle_alpha 90.000000
_cell_angle_beta 90.000000
_cell_angle_gamma 90.000000
_cell_volume 3285.783868
_symmetry_space_group_name_H-M "P 41 2 2"
_symmetry_group_IT_number 91
_symmetry_cell_setting 'tetragonal'
loop_
_space_group_symop_operation_xyz
x,y,z
-y,x,1/4+z
-x,-y,1/2+z
y,-x,3/4+z
x,-y,1/2-z
-x,y,-z
y,x,3/4-z
-y,-x,1/4-z
loop_
_atom_site_type_symbol
_atom_site_label
_atom_site_fract_x
_atom_site_fract_y
_atom_site_fract_z
Si Si1 0.893004 0.534636 0.347375
Si Si2 0.690348 0.623057 0.780385
Si Si3 0.247066 0.458964 0.040796
Si Si4 0.261445 0.157060 0.555567
Si Si5 0.134037 0.518134 0.142972
Si Si6 0.325514 0.893559 0.707067
Si Si7 0.105110 0.253103 0.771314
Si Si8 0.301441 0.786297 0.406266
O O1 0.918746 0.619973 0.398216
O O2 0.870409 0.620027 0.297293
O O3 0.798518 0.437044 0.357516
O O4 0.005546 0.453796 0.338519
O O5 0.693779 0.500000 0.750000
O O6 0.558505 0.658848 0.787621
O O7 0.756274 0.719641 0.744714
O O8 0.766674 0.599657 0.833786
O O9 0.145553 0.511518 0.078340
O O10 0.286927 0.345265 0.072981
O O11 0.199232 0.412276 0.984227
O O12 0.390509 0.146012 0.580942
O O13 0.192099 0.220051 0.603935
O O14 0.225609 0.028450 0.536330
O O15 0.198290 0.836701 0.703693
O O16 0.320440 0.000000 0.750000
O O17 0.136272 0.260916 0.707561
#
# Coordination Sequence:
#
# PCOD9547697 Si02
#       8
#     8   8   8   8   8   8   8   8
#     4  11  20  37  60  91 117 157 208 261 314 386
#     4  10  19  32  55  85 118 163 198 243 310 392
#     4  10  20  35  53  85 119 158 200 249 318 384
#     4   9  19  37  56  84 118 159 205 245 315 376
#     4   9  18  33  55  78 111 156 201 242 293 375
#     4  11  22  38  60  86 118 165 214 266 326 372
#     4  10  22  37  62  88 120 161 215 260 310 385
#     4  10  21  36  60  90 128 160 194 269 319 374
#
# _framework density 19.477848000000002
#
# number of rings (size 3 to 8) (size 9 to 14) (size 15 to 20)
#    0.000    2.000    1.250    2.625    1.750    4.000 
#    0.000    3.750    2.750    0.000    0.000    0.000 
#    0.000    0.000    0.000    0.000    0.000    0.000 
#
# Total GULP energy -356653.520481 kJ/mol
# GULP energy per Si atom -5572.711258 kJ/mol
# Density = 1.943352 g / cm^3
# Si number density = 19.477848 Si / 1000 Ang^3
#
#
#
# Elastic Constant Matrix: (Units=GPa)
#
#
# Indices 1 2 3 4 5 6 
#
# 1 77.3436 30.1548 27.4578 0.0000 0.0000 0.0000
# 2 30.1548 77.3436 27.4578 0.0000 0.0000 0.0000
# 3 27.4578 27.4578 72.4943 0.0000 0.0000 0.0000
# 4 0.0000 0.0000 0.0000 23.5311 0.0000 0.0000
# 5 0.0000 0.0000 0.0000 0.0000 23.5311 0.0000
# 6 0.0000 0.0000 0.0000 0.0000 0.0000 12.0799
#
#
#
# Elastic Compliance Matrix: (Units=1/GPa)
#
#
# Indices 1 2 3 4 5 6 
#
# 1 0.016363 -0.004829 -0.004369 0.000000 0.000000 0.000000
# 2 -0.004829 0.016363 -0.004369 0.000000 0.000000 0.000000
# 3 -0.004369 -0.004369 0.017103 0.000000 0.000000 0.000000
# 4 0.000000 0.000000 0.000000 0.042497 0.000000 0.000000
# 5 0.000000 0.000000 0.000000 0.000000 0.042497 0.000000
# 6 0.000000 0.000000 0.000000 0.000000 0.000000 0.082782
#
#
# Mechanical properties :
#
#
# Convention : Reuss Voigt Hill
#
# Bulk Modulus (GPa) = 44.05820 44.14691 44.10256
# Shear Modulus (GPa) = 19.81745 21.30250 20.55998
#
# Velocity S-wave (km/s) = 3.19319 3.31067 3.25246
# Velocity P-wave (km/s) = 6.02196 6.10970 6.06599
#
# Compressibility (1/GPa) = 0.02269725
#
# Stress axis : x y z
#
# Youngs Moduli (GPa) = 61.11414 61.11414 58.46757
#
# Poissons Ratio (x) = 0.29510 0.25542
# Poissons Ratio (y) = 0.29510 0.25542
# Poissons Ratio (z) = 0.26699 0.26699
#
# Static dielectric constant tensor:
#      x y z
#    x 1.699120 0.000000 0.000000 
#    y 0.000000 1.699120 0.000000 
#    z 0.000000 0.000000 1.715600 
# 
# From -- ./inp_files/7043.got.cif
#   From: 2010.05.17/outbox.cif.g08.bks.cpg/sg91_4_cif.got.tgz:7043.got - 2010.06.03 19:20:03.
