data_PCOD9547043
_publ_section_title
;
Structure prediction by ZEFSAII (Michael W. Deem and Ramdas Pophale) SiO2 
 PCOD9547043
Probable space group: P 4 2 2
;
_chemical_formula_sum "Si O2"
_cell_formula_units_Z 22
_cell_length_a 8.125399
_cell_length_b 8.125399
_cell_length_c 15.194579
_cell_angle_alpha 90.000000
_cell_angle_beta 90.000000
_cell_angle_gamma 90.000000
_cell_volume 1003.178150
_symmetry_space_group_name_H-M "P 4 2 2"
_symmetry_group_IT_number 89
_symmetry_cell_setting 'tetragonal'
loop_
_space_group_symop_operation_xyz
x,y,z
-y,x,z
-x,-y,z
y,-x,z
x,-y,-z
-x,y,-z
y,x,-z
-y,-x,-z
loop_
_atom_site_type_symbol
_atom_site_label
_atom_site_fract_x
_atom_site_fract_y
_atom_site_fract_z
Si Si1 0.100717 0.748143 0.867006
Si Si2 0.301880 0.698121 0.500000
Si Si3 0.341897 0.731560 0.311013
Si Si4 0.000000 0.500000 0.000000
O O1 0.146720 0.704861 0.767152
O O2 0.911478 0.795751 0.883122
O O3 0.119948 0.601722 0.935140
O O4 0.278779 0.500000 0.500000
O O5 0.264766 0.780222 0.406188
O O6 0.281609 0.541237 0.304542
#
# Coordination Sequence:
#
# PCOD9547043 Si02
#       4
#     8   4   8   2
#     4  11  24  41  61  87 120 158 202 259 330 396
#     4   7  12  26  52  85 120 160 208 259 306 355
#     4   9  17  33  59  90 123 163 213 263 310 371
#     4  12  24  42  64  82 110 158 212 258 316 402
#
# _framework density 21.930301
#
# number of rings (size 3 to 8) (size 9 to 14) (size 15 to 20)
#    0.000    2.364    0.000    5.455    0.000    1.455 
#    0.000    1.818    0.000   10.909    0.000    0.000 
#    0.000    0.000    0.000    0.000    0.000    0.000 
#
# Total GULP energy -122530.186643 kJ/mol
# GULP energy per Si atom -5569.553938 kJ/mol
# Density = 2.188039 g / cm^3
# Si number density = 21.930301 Si / 1000 Ang^3
#
#
#
# Elastic Constant Matrix: (Units=GPa)
#
#
# Indices 1 2 3 4 5 6 
#
# 1 54.6380 24.2737 53.5009 0.0000 0.0000 0.0000
# 2 24.2737 54.6376 53.5011 0.0000 0.0000 0.0000
# 3 53.5009 53.5011 212.4905 0.0000 0.0000 0.0000
# 4 0.0000 0.0000 0.0000 27.0741 0.0000 0.0000
# 5 0.0000 0.0000 0.0000 0.0000 27.0744 0.0000
# 6 0.0000 0.0000 0.0000 0.0000 0.0000 -29.0291
#
#
#
# Elastic Compliance Matrix: (Units=1/GPa)
#
#
# Indices 1 2 3 4 5 6 
#
# 1 0.026087 -0.006846 -0.004845 0.000000 0.000000 0.000000
# 2 -0.006846 0.026088 -0.004845 0.000000 0.000000 0.000000
# 3 -0.004845 -0.004845 0.007146 0.000000 0.000000 0.000000
# 4 0.000000 0.000000 0.000000 0.036936 0.000000 0.000000
# 5 0.000000 0.000000 0.000000 0.000000 0.036935 0.000000
# 6 0.000000 0.000000 0.000000 0.000000 0.000000 -0.034448
#
#
# Mechanical properties :
#
#
# Convention : Reuss Voigt Hill
#
# Bulk Modulus (GPa) = 38.09477 64.92416 51.50946
# Shear Modulus (GPa) = 35.57090 17.72326 26.64708
#
# Velocity S-wave (km/s) = 4.03177 2.84591 3.48958
# Velocity P-wave (km/s) = 6.25157 6.36144 6.30675
#
# Compressibility (1/GPa) = 0.02625033
#
# Stress axis : x y z
#
# Youngs Moduli (GPa) = 38.33255 38.33211 139.94457
#
# Poissons Ratio (x) = 0.26242 0.67798
# Poissons Ratio (y) = 0.26242 0.67799
# Poissons Ratio (z) = 0.18571 0.18571
#
# Static dielectric constant tensor:
#      x y z
#    x 1.844460 0.000000 0.000000 
#    y 0.000000 1.844460 0.000000 
#    z 0.000000 0.000000 1.901430 
# 
# From -- ./inp_files/2015.got.cif
#   From: 2010.05.17/outbox.cif.g08.bks.cpg/sg89_2_cif.got.tgz:2015.got - 2010.06.03 19:15:31.
