data_PCOD9547903
_publ_section_title
;
Structure prediction by ZEFSAII (Michael W. Deem and Ramdas Pophale) SiO2 
 PCOD9547903
Probable space group: P 41 2 2
;
_chemical_formula_sum "Si O2"
_cell_formula_units_Z 48
_cell_length_a 12.254736
_cell_length_b 12.254736
_cell_length_c 17.380930
_cell_angle_alpha 90.000000
_cell_angle_beta 90.000000
_cell_angle_gamma 90.000000
_cell_volume 2610.242942
_symmetry_space_group_name_H-M "P 41 2 2"
_symmetry_group_IT_number 91
_symmetry_cell_setting 'tetragonal'
loop_
_space_group_symop_operation_xyz
x,y,z
-y,x,1/4+z
-x,-y,1/2+z
y,-x,3/4+z
x,-y,1/2-z
-x,y,-z
y,x,3/4-z
-y,-x,1/4-z
loop_
_atom_site_type_symbol
_atom_site_label
_atom_site_fract_x
_atom_site_fract_y
_atom_site_fract_z
Si Si1 0.108619 0.287020 0.853609
Si Si2 0.563792 0.667405 0.236863
Si Si3 0.672750 0.811422 0.561590
Si Si4 0.960164 0.000000 0.750000
Si Si5 0.505562 0.505562 0.375000
Si Si6 0.509398 0.893249 0.697558
Si Si7 0.134593 0.097348 0.635060
O O1 0.220115 0.220115 0.875000
O O2 0.111924 0.319914 0.763853
O O3 0.090903 0.395506 0.902495
O O4 0.010406 0.206508 0.875211
O O5 0.692784 0.645993 0.223405
O O6 0.526522 0.596849 0.310400
O O7 0.514226 0.612276 0.162023
O O8 0.520534 0.788989 0.249390
O O9 0.596501 0.856601 0.630754
O O10 0.795985 0.800889 0.592339
O O11 0.041764 0.071786 0.698013
O O12 0.887886 0.073546 0.804714
O O13 0.536731 0.000000 0.750000
#
# Coordination Sequence:
#
# PCOD9547903 Si02
#       7
#     8   8   8   4   4   8   8
#     4  12  22  38  69  98 125 161 216 276 319 373
#     4  11  21  41  65  97 122 166 212 280 312 386
#     4  12  24  40  63  96 131 171 214 261 328 393
#     4  10  20  36  62  90 126 158 224 252 302 366
#     4  10  22  38  72  96 120 154 230 272 318 356
#     4  12  27  42  63  97 137 169 209 271 337 388
#     4  11  21  38  60  94 124 168 206 263 308 380
#
# _framework density 18.389092999999999
#
# number of rings (size 3 to 8) (size 9 to 14) (size 15 to 20)
#    0.000    0.667    6.667    2.500    4.667    0.000 
#    0.000    1.667    3.667    0.000    0.000    0.000 
#    0.000    0.000    0.000    0.000    0.000    0.000 
#
# Total GULP energy -267835.197257 kJ/mol
# GULP energy per Si atom -5579.899943 kJ/mol
# Density = 1.834724 g / cm^3
# Si number density = 18.389093 Si / 1000 Ang^3
#
#
#
# Elastic Constant Matrix: (Units=GPa)
#
#
# Indices 1 2 3 4 5 6 
#
# 1 58.9097 18.8235 46.6358 0.0000 0.0000 0.0000
# 2 18.8235 58.9097 46.6358 0.0000 0.0000 0.0000
# 3 46.6358 46.6358 118.9359 0.0000 0.0000 0.0000
# 4 0.0000 0.0000 0.0000 20.4377 0.0000 0.0000
# 5 0.0000 0.0000 0.0000 0.0000 20.4377 0.0000
# 6 0.0000 0.0000 0.0000 0.0000 0.0000 9.4362
#
#
#
# Elastic Compliance Matrix: (Units=1/GPa)
#
#
# Indices 1 2 3 4 5 6 
#
# 1 0.024621 -0.000326 -0.009526 0.000000 0.000000 0.000000
# 2 -0.000326 0.024621 -0.009526 0.000000 0.000000 0.000000
# 3 -0.009526 -0.009526 0.015879 0.000000 0.000000 0.000000
# 4 0.000000 0.000000 0.000000 0.048929 0.000000 0.000000
# 5 0.000000 0.000000 0.000000 0.000000 0.048929 0.000000
# 6 0.000000 0.000000 0.000000 0.000000 0.000000 0.105975
#
#
# Mechanical properties :
#
#
# Convention : Reuss Voigt Hill
#
# Bulk Modulus (GPa) = 37.93124 51.21614 44.57369
# Shear Modulus (GPa) = 15.79792 18.37302 17.08547
#
# Velocity S-wave (km/s) = 2.93421 3.16432 3.05144
# Velocity P-wave (km/s) = 5.67021 6.42358 6.05862
#
# Compressibility (1/GPa) = 0.02636349
#
# Stress axis : x y z
#
# Youngs Moduli (GPa) = 40.61636 40.61636 62.97795
#
# Poissons Ratio (x) = 0.01322 0.59995
# Poissons Ratio (y) = 0.01322 0.59995
# Poissons Ratio (z) = 0.38692 0.38692
#
# Static dielectric constant tensor:
#      x y z
#    x 1.649990 0.000000 0.000000 
#    y 0.000000 1.649990 0.000000 
#    z 0.000000 0.000000 1.687430 
# 
# From -- ./inp_files/21160.got.cif
#   From: 2010.05.17/outbox.cif.g08.bks.cpg/sg91_11_cif.got.tgz:21160.got - 2010.06.03 19:20:03.
