data_PCOD9547071
_publ_section_title
;
Structure prediction by ZEFSAII (Michael W. Deem and Ramdas Pophale) SiO2 
 PCOD9547071
Probable space group: P 4 21 2
;
_chemical_formula_sum "Si O2"
_cell_formula_units_Z 64
_cell_length_a 20.655551
_cell_length_b 20.655551
_cell_length_c 9.400743
_cell_angle_alpha 90.000000
_cell_angle_beta 90.000000
_cell_angle_gamma 90.000000
_cell_volume 4010.843801
_symmetry_space_group_name_H-M "P 4 21 2"
_symmetry_group_IT_number 90
_symmetry_cell_setting 'tetragonal'
loop_
_space_group_symop_operation_xyz
x,y,z
1/2-y,1/2+x,z
-x,-y,z
1/2+y,1/2-x,z
1/2+x,1/2-y,-z
1/2-x,1/2+y,-z
y,x,-z
-y,-x,-z
loop_
_atom_site_type_symbol
_atom_site_label
_atom_site_fract_x
_atom_site_fract_y
_atom_site_fract_z
Si Si1 0.002376 0.838871 0.527563
Si Si2 0.073014 0.974215 0.209300
Si Si3 0.725374 0.631535 0.412491
Si Si4 0.104132 0.826836 0.115771
Si Si5 0.176887 0.099975 0.707137
Si Si6 0.908332 0.770101 0.727358
Si Si7 0.686087 0.471169 0.992582
Si Si8 0.832691 0.721695 0.484269
O O1 0.951099 0.854506 0.403378
O O2 0.970544 0.787182 0.633839
O O3 0.019401 0.898708 0.630725
O O4 0.062199 0.801700 0.458893
O O5 0.079377 0.898358 0.167862
O O6 0.120843 0.013986 0.101696
O O7 0.000000 0.000000 0.197525
O O8 0.680163 0.680163 0.500000
O O9 0.711240 0.634001 0.245897
O O10 0.798013 0.655165 0.442832
O O11 0.157969 0.842032 0.000000
O O12 0.042516 0.792987 0.043656
O O13 0.135052 0.164843 0.716859
O O14 0.245521 0.120116 0.634095
O O15 0.177720 0.069155 0.863128
O O16 0.932791 0.765503 0.888102
O O17 0.868459 0.718003 0.636753
O O18 0.775907 0.775907 0.500000
#
# Coordination Sequence:
#
# PCOD9547071 Si02
#       8
#     8   8   8   8   8   8   8   8
#     4  10  19  31  46  67  90 126 164 203 243 286
#     4  10  22  32  40  65 101 136 172 202 236 284
#     4  11  19  34  49  64  92 132 166 202 244 290
#     4  10  21  32  41  66 101 136 164 190 246 297
#     4  10  18  32  49  69  88 120 172 208 249 275
#     4   9  19  32  48  68  91 121 163 205 244 276
#     4  10  20  30  48  63  97 126 157 206 245 285
#     4   8  18  34  50  64  85 116 168 218 239 279
#
# _framework density 15.956742
#
# number of rings (size 3 to 8) (size 9 to 14) (size 15 to 20)
#    0.000    2.250    2.500    1.500    5.250    2.750 
#    0.000    5.000    0.000    0.000    0.000    0.000 
#    0.000    8.000    0.000    0.000   38.000    2.000 
#
# Total GULP energy -356623.339426 kJ/mol
# GULP energy per Si atom -5572.239679 kJ/mol
# Density = 1.592042 g / cm^3
# Si number density = 15.956742 Si / 1000 Ang^3
#
#
#
# Elastic Constant Matrix: (Units=GPa)
#
#
# Indices 1 2 3 4 5 6 
#
# 1 31.8456 19.4008 32.7122 0.0000 0.0000 0.0000
# 2 19.4008 31.8465 32.7118 0.0000 0.0000 0.0000
# 3 32.7122 32.7118 137.6329 0.0000 0.0000 0.0000
# 4 0.0000 0.0000 0.0000 39.8929 0.0000 0.0000
# 5 0.0000 0.0000 0.0000 0.0000 39.8931 0.0000
# 6 0.0000 0.0000 0.0000 0.0000 0.0000 14.0521
#
#
#
# Elastic Compliance Matrix: (Units=1/GPa)
#
#
# Indices 1 2 3 4 5 6 
#
# 1 0.054184 -0.026169 -0.006659 0.000000 0.000000 0.000000
# 2 -0.026169 0.054182 -0.006658 0.000000 0.000000 0.000000
# 3 -0.006659 -0.006658 0.010431 0.000000 0.000000 0.000000
# 4 0.000000 0.000000 0.000000 0.025067 0.000000 0.000000
# 5 0.000000 0.000000 0.000000 0.000000 0.025067 0.000000
# 6 0.000000 0.000000 0.000000 0.000000 0.000000 0.071164
#
#
# Mechanical properties :
#
#
# Convention : Reuss Voigt Hill
#
# Bulk Modulus (GPa) = 25.10981 41.21940 33.16460
# Shear Modulus (GPa) = 15.04481 26.53429 20.78955
#
# Velocity S-wave (km/s) = 3.07392 4.08228 3.61344
# Velocity P-wave (km/s) = 5.32625 6.93599 6.18373
#
# Compressibility (1/GPa) = 0.03982507
#
# Stress axis : x y z
#
# Youngs Moduli (GPa) = 18.45561 18.45646 95.87134
#
# Poissons Ratio (x) = 0.48299 0.63836
# Poissons Ratio (y) = 0.48297 0.63828
# Poissons Ratio (z) = 0.12289 0.12288
#
# Static dielectric constant tensor:
#      x y z
#    x 1.552660 0.000000 0.000000 
#    y 0.000000 1.552660 0.000000 
#    z 0.000000 0.000000 1.613760 
# 
# From -- ./inp_files/1753.got.cif
#   From: 2010.05.17/outbox.cif.g08.bks.cpg/sg90_1_cif.got.tgz:1753.got - 2010.06.03 19:17:45.
