data_PCOD9547116
_publ_section_title
;
Structure prediction by ZEFSAII (Michael W. Deem and Ramdas Pophale) SiO2 
 PCOD9547116
Probable space group: P 4 21 2
;
_chemical_formula_sum "Si O2"
_cell_formula_units_Z 28
_cell_length_a 10.504422
_cell_length_b 10.504422
_cell_length_c 11.728997
_cell_angle_alpha 90.000000
_cell_angle_beta 90.000000
_cell_angle_gamma 90.000000
_cell_volume 1294.211327
_symmetry_space_group_name_H-M "P 4 21 2"
_symmetry_group_IT_number 90
_symmetry_cell_setting 'tetragonal'
loop_
_space_group_symop_operation_xyz
x,y,z
1/2-y,1/2+x,z
-x,-y,z
1/2+y,1/2-x,z
1/2+x,1/2-y,-z
1/2-x,1/2+y,-z
y,x,-z
-y,-x,-z
loop_
_atom_site_type_symbol
_atom_site_label
_atom_site_fract_x
_atom_site_fract_y
_atom_site_fract_z
Si Si1 0.873013 0.080340 0.632631
Si Si2 0.212886 0.501339 0.173966
Si Si3 0.687182 0.096508 0.205930
Si Si4 0.633220 0.633220 0.000000
O O1 0.883966 0.116035 0.500000
O O2 0.760945 0.000622 0.694654
O O3 0.865719 0.212558 0.699241
O O4 0.000000 0.000000 0.658569
O O5 0.122689 0.622506 0.154458
O O6 0.335104 0.483186 0.089080
O O7 0.553511 0.164837 0.216631
O O8 0.748136 0.125691 0.084447
#
# Coordination Sequence:
#
# PCOD9547116 Si02
#       4
#     8   8   8   4
#     4  10  24  42  63  92 125 164 215 269 320 377
#     4  10  22  41  64  94 128 167 211 257 318 385
#     4  10  22  41  64  94 128 167 211 257 318 385
#     4  10  20  36  63  93 124 158 196 254 304 365
#
# _framework density 21.634796999999999
#
# number of rings (size 3 to 8) (size 9 to 14) (size 15 to 20)
#    0.000    2.000    0.000    1.714    8.000    4.571 
#    0.000    5.714    0.000    0.000    0.000    0.000 
#    0.000    0.000    0.000    0.000    0.000    0.000 
#
# Total GULP energy -156194.186052 kJ/mol
# GULP energy per Si atom -5578.363788 kJ/mol
# Density = 2.158556 g / cm^3
# Si number density = 21.634797 Si / 1000 Ang^3
#
#
#
# Elastic Constant Matrix: (Units=GPa)
#
#
# Indices 1 2 3 4 5 6 
#
# 1 71.7160 20.9921 30.6839 0.0000 0.0000 0.0000
# 2 20.9921 71.7161 30.6840 0.0000 0.0000 0.0000
# 3 30.6839 30.6840 117.9823 0.0000 0.0000 0.0000
# 4 0.0000 0.0000 0.0000 27.6817 0.0000 0.0000
# 5 0.0000 0.0000 0.0000 0.0000 27.6817 0.0000
# 6 0.0000 0.0000 0.0000 0.0000 0.0000 55.7337
#
#
#
# Elastic Compliance Matrix: (Units=1/GPa)
#
#
# Indices 1 2 3 4 5 6 
#
# 1 0.016372 -0.003342 -0.003389 0.000000 0.000000 0.000000
# 2 -0.003342 0.016372 -0.003389 0.000000 0.000000 0.000000
# 3 -0.003389 -0.003389 0.010238 0.000000 0.000000 0.000000
# 4 0.000000 0.000000 0.000000 0.036125 0.000000 0.000000
# 5 0.000000 0.000000 0.000000 0.000000 0.036125 0.000000
# 6 0.000000 0.000000 0.000000 0.000000 0.000000 0.017942
#
#
# Mechanical properties :
#
#
# Convention : Reuss Voigt Hill
#
# Bulk Modulus (GPa) = 43.96934 47.34826 45.65880
# Shear Modulus (GPa) = 31.05676 34.15638 32.60657
#
# Velocity S-wave (km/s) = 3.79291 3.97769 3.88640
# Velocity P-wave (km/s) = 6.28881 6.55963 6.42565
#
# Compressibility (1/GPa) = 0.02274312
#
# Stress axis : x y z
#
# Youngs Moduli (GPa) = 61.07956 61.07955 97.67124
#
# Poissons Ratio (x) = 0.20416 0.33097
# Poissons Ratio (y) = 0.20416 0.33097
# Poissons Ratio (z) = 0.20698 0.20698
#
# Static dielectric constant tensor:
#      x y z
#    x 1.784010 0.000000 0.000000 
#    y 0.000000 1.784010 0.000000 
#    z 0.000000 0.000000 1.808200 
# 
# From -- ./inp_files/1813.got.cif
#   From: 2010.05.17/outbox.cif.g08.bks.cpg/sg90_1_cif.got.tgz:1813.got - 2010.06.03 19:17:45.
