data_PCOD9547236
_publ_section_title
;
Structure prediction by ZEFSAII (Michael W. Deem and Ramdas Pophale) SiO2 
 PCOD9547236
Probable space group: P 4 21 2
;
_chemical_formula_sum "Si O2"
_cell_formula_units_Z 40
_cell_length_a 14.750097
_cell_length_b 14.750097
_cell_length_c 8.918931
_cell_angle_alpha 90.000000
_cell_angle_beta 90.000000
_cell_angle_gamma 90.000000
_cell_volume 1940.450447
_symmetry_space_group_name_H-M "P 4 21 2"
_symmetry_group_IT_number 90
_symmetry_cell_setting 'tetragonal'
loop_
_space_group_symop_operation_xyz
x,y,z
1/2-y,1/2+x,z
-x,-y,z
1/2+y,1/2-x,z
1/2+x,1/2-y,-z
1/2-x,1/2+y,-z
y,x,-z
-y,-x,-z
loop_
_atom_site_type_symbol
_atom_site_label
_atom_site_fract_x
_atom_site_fract_y
_atom_site_fract_z
Si Si1 0.421896 0.370650 0.665628
Si Si2 0.879839 0.411370 0.230406
Si Si3 0.245146 0.382688 0.062617
Si Si4 0.531393 0.354563 0.118274
Si Si5 0.181898 0.131336 0.660870
O O1 0.379401 0.379401 0.500000
O O2 0.390672 0.286761 0.769003
O O3 0.396962 0.458815 0.765188
O O4 0.529518 0.358803 0.648811
O O5 0.880995 0.517659 0.265725
O O6 0.875008 0.363148 0.066170
O O7 0.786566 0.376325 0.298388
O O8 0.717460 0.528640 0.975508
O O9 0.294420 0.294420 0.000000
O O10 0.617525 0.321617 0.215205
O O11 0.573794 0.426207 0.000000
O O12 0.175326 0.175326 0.500000
#
# Coordination Sequence:
#
# PCOD9547236 Si02
#       5
#     8   8   8   8   8
#     4  11  21  35  61 101 145 173 204 268 354 421
#     4  11  24  46  65  85 128 185 232 267 321 403
#     4  10  23  39  65 102 131 172 223 281 344 401
#     4  11  21  34  61 101 144 167 212 279 355 417
#     4  12  24  38  66 105 133 176 224 280 353 418
#
# _framework density 20.613771
#
# number of rings (size 3 to 8) (size 9 to 14) (size 15 to 20)
#    0.000    1.000    6.000    0.600    5.600    3.200 
#    0.000    0.000    0.000    0.000    0.000   14.000 
#    0.000    0.000    0.000    0.000    0.000    0.000 
#
# Total GULP energy -222948.662913 kJ/mol
# GULP energy per Si atom -5573.716573 kJ/mol
# Density = 2.056685 g / cm^3
# Si number density = 20.613771 Si / 1000 Ang^3
#
#
#
# Elastic Constant Matrix: (Units=GPa)
#
#
# Indices 1 2 3 4 5 6 
#
# 1 108.0262 67.4764 49.5437 0.0000 0.0000 0.0000
# 2 67.4764 108.0261 49.5436 0.0000 0.0000 0.0000
# 3 49.5437 49.5436 125.4702 0.0000 0.0000 0.0000
# 4 0.0000 0.0000 0.0000 11.2644 0.0000 0.0000
# 5 0.0000 0.0000 0.0000 0.0000 11.2643 0.0000
# 6 0.0000 0.0000 0.0000 0.0000 0.0000 13.4885
#
#
#
# Elastic Compliance Matrix: (Units=1/GPa)
#
#
# Indices 1 2 3 4 5 6 
#
# 1 0.015997 -0.008664 -0.002895 0.000000 0.000000 0.000000
# 2 -0.008664 0.015997 -0.002895 0.000000 0.000000 0.000000
# 3 -0.002895 -0.002895 0.010257 0.000000 0.000000 0.000000
# 4 0.000000 0.000000 0.000000 0.088775 0.000000 0.000000
# 5 0.000000 0.000000 0.000000 0.000000 0.088776 0.000000
# 6 0.000000 0.000000 0.000000 0.000000 0.000000 0.074137
#
#
# Mechanical properties :
#
#
# Convention : Reuss Voigt Hill
#
# Bulk Modulus (GPa) = 74.96086 74.96109 74.96097
# Shear Modulus (GPa) = 15.27672 18.86736 17.07204
#
# Velocity S-wave (km/s) = 2.72526 3.02864 2.88094
# Velocity P-wave (km/s) = 6.80780 6.97666 6.89274
#
# Compressibility (1/GPa) = 0.01334030
#
# Stress axis : x y z
#
# Youngs Moduli (GPa) = 62.51231 62.51226 97.49826
#
# Poissons Ratio (x) = 0.54162 0.28230
# Poissons Ratio (y) = 0.54162 0.28230
# Poissons Ratio (z) = 0.18100 0.18100
#
# Static dielectric constant tensor:
#      x y z
#    x 1.822190 0.000000 0.000000 
#    y 0.000000 1.822190 0.000000 
#    z 0.000000 0.000000 1.663570 
# 
# From -- ./inp_files/1272.got.cif
#   From: 2010.05.17/outbox.cif.g08.bks.cpg/sg90_1_cif.got.tgz:1272.got - 2010.06.03 19:17:45.
