data_PCOD9547193
_publ_section_title
;
Structure prediction by ZEFSAII (Michael W. Deem and Ramdas Pophale) SiO2 
 PCOD9547193
Probable space group: P 4 21 2
;
_chemical_formula_sum "Si O2"
_cell_formula_units_Z 40
_cell_length_a 7.956192
_cell_length_b 7.956192
_cell_length_c 29.282434
_cell_angle_alpha 90.000000
_cell_angle_beta 90.000000
_cell_angle_gamma 90.000000
_cell_volume 1853.607095
_symmetry_space_group_name_H-M "P 4 21 2"
_symmetry_group_IT_number 90
_symmetry_cell_setting 'tetragonal'
loop_
_space_group_symop_operation_xyz
x,y,z
1/2-y,1/2+x,z
-x,-y,z
1/2+y,1/2-x,z
1/2+x,1/2-y,-z
1/2-x,1/2+y,-z
y,x,-z
-y,-x,-z
loop_
_atom_site_type_symbol
_atom_site_label
_atom_site_fract_x
_atom_site_fract_y
_atom_site_fract_z
Si Si1 0.409273 0.267740 0.045176
Si Si2 0.408879 0.731937 0.702268
Si Si3 0.500000 0.500000 0.376768
Si Si4 0.404887 0.266502 0.546705
Si Si5 0.402950 0.267038 0.145216
Si Si6 0.000000 0.000000 0.220435
O O1 0.599971 0.204041 0.044026
O O2 0.375164 0.346389 0.094992
O O3 0.369549 0.369549 0.000000
O O4 0.603145 0.795167 0.702959
O O5 0.395147 0.621717 0.656599
O O6 0.386514 0.612270 0.745923
O O7 0.387940 0.385184 0.410102
O O8 0.598424 0.206229 0.548372
O O9 0.360616 0.360616 0.500000
O O10 0.597581 0.206030 0.147894
O O11 0.381304 0.392996 0.186882
#
# Coordination Sequence:
#
# PCOD9547193 Si02
#       6
#     8   8   4   8   8   4
#     4   9  19  34  51  74 105 140 178 221 270 329
#     4  10  22  39  58  83 115 149 190 246 305 359
#     4  11  21  36  61  86 115 158 205 241 294 356
#     4  11  23  40  64  95 133 173 213 259 308 364
#     4   9  19  35  53  77 110 143 177 222 279 342
#     4  11  20  34  60  84 104 140 188 233 286 354
#
# _framework density 21.579547000000002
#
# number of rings (size 3 to 8) (size 9 to 14) (size 15 to 20)
#    0.000    2.000    0.000    5.100    0.000    5.200 
#    0.000    0.000    0.000   24.600    0.000    0.000 
#    0.000    0.000    0.000    0.000    0.000    0.000 
#
# Total GULP energy -223591.133954 kJ/mol
# GULP energy per Si atom -5589.778349 kJ/mol
# Density = 2.153043 g / cm^3
# Si number density = 21.579547 Si / 1000 Ang^3
#
#
#
# Elastic Constant Matrix: (Units=GPa)
#
#
# Indices 1 2 3 4 5 6 
#
# 1 60.5867 10.6017 41.4704 0.0000 0.0000 0.0000
# 2 10.6017 60.5867 41.4704 0.0000 0.0000 0.0000
# 3 41.4704 41.4704 196.8660 0.0000 0.0000 0.0000
# 4 0.0000 0.0000 0.0000 47.0277 0.0000 0.0000
# 5 0.0000 0.0000 0.0000 0.0000 47.0277 0.0000
# 6 0.0000 0.0000 0.0000 0.0000 0.0000 23.8685
#
#
#
# Elastic Compliance Matrix: (Units=1/GPa)
#
#
# Indices 1 2 3 4 5 6 
#
# 1 0.019311 -0.000695 -0.003922 0.000000 0.000000 0.000000
# 2 -0.000695 0.019311 -0.003922 0.000000 0.000000 0.000000
# 3 -0.003922 -0.003922 0.006732 0.000000 0.000000 0.000000
# 4 0.000000 0.000000 0.000000 0.021264 0.000000 0.000000
# 5 0.000000 0.000000 0.000000 0.000000 0.021264 0.000000
# 6 0.000000 0.000000 0.000000 0.000000 0.000000 0.041896
#
#
# Mechanical properties :
#
#
# Convention : Reuss Voigt Hill
#
# Bulk Modulus (GPa) = 35.36328 56.12492 45.74410
# Shear Modulus (GPa) = 31.99381 38.55125 35.27253
#
# Velocity S-wave (km/s) = 3.85463 4.23125 4.04732
# Velocity P-wave (km/s) = 6.01946 7.06655 6.56392
#
# Compressibility (1/GPa) = 0.02827792
#
# Stress axis : x y z
#
# Youngs Moduli (GPa) = 51.78371 51.78371 148.54936
#
# Poissons Ratio (x) = 0.03599 0.58254
# Poissons Ratio (y) = 0.03599 0.58254
# Poissons Ratio (z) = 0.20307 0.20307
#
# Static dielectric constant tensor:
#      x y z
#    x 1.584490 0.000000 0.000000 
#    y 0.000000 1.584490 0.000000 
#    z 0.000000 0.000000 1.787790 
# 
# From -- ./inp_files/2976.got.cif
#   From: 2010.05.17/outbox.cif.g08.bks.cpg/sg90_2_cif.got.tgz:2976.got - 2010.06.03 19:17:45.
