data_PCOD9547473
_publ_section_title
;
Structure prediction by ZEFSAII (Michael W. Deem and Ramdas Pophale) SiO2 
 PCOD9547473
Probable space group: P 41 2 2
;
_chemical_formula_sum "Si O2"
_cell_formula_units_Z 56
_cell_length_a 24.834341
_cell_length_b 24.834341
_cell_length_c 5.505432
_cell_angle_alpha 90.000000
_cell_angle_beta 90.000000
_cell_angle_gamma 90.000000
_cell_volume 3395.444867
_symmetry_space_group_name_H-M "P 41 2 2"
_symmetry_group_IT_number 91
_symmetry_cell_setting 'tetragonal'
loop_
_space_group_symop_operation_xyz
x,y,z
-y,x,1/4+z
-x,-y,1/2+z
y,-x,3/4+z
x,-y,1/2-z
-x,y,-z
y,x,3/4-z
-y,-x,1/4-z
loop_
_atom_site_type_symbol
_atom_site_label
_atom_site_fract_x
_atom_site_fract_y
_atom_site_fract_z
Si Si1 0.604753 0.836688 0.185498
Si Si2 0.057861 0.337319 0.562996
Si Si3 0.289455 0.903624 0.818855
Si Si4 0.734381 0.772406 0.626734
Si Si5 0.850274 0.827281 0.620520
Si Si6 0.941514 0.465976 0.998177
Si Si7 0.381066 0.825289 0.319736
O O1 0.668228 0.853325 0.180030
O O2 0.574348 0.892962 0.210480
O O3 0.591572 0.806644 0.433264
O O4 0.592944 0.808715 0.932398
O O5 0.064095 0.305169 0.820412
O O6 0.109077 0.377612 0.563455
O O7 0.000000 0.363233 0.500000
O O8 0.066523 0.300702 0.323263
O O9 0.229001 0.881722 0.838583
O O10 0.739461 0.739461 0.375000
O O11 0.786177 0.812044 0.623891
O O12 0.680053 0.805613 0.655787
O O13 0.739078 0.739078 0.875000
O O14 0.860090 0.860090 0.375000
O O15 0.857576 0.857576 0.875000
O O16 0.935549 0.500000 0.250000
O O17 0.942087 0.500000 0.750000
O O18 0.000000 0.437959 0.000000
#
# Coordination Sequence:
#
# PCOD9547473 Si02
#       7
#     8   8   8   8   8   8   8
#     4  10  18  29  43  55  73  90 108 152 192 222
#     4  10  18  27  36  48  71  96 116 144 174 200
#     4  10  19  29  39  58  75  90 121 146 175 222
#     4  10  16  25  39  55  77 101 117 139 172 203
#     4  10  16  25  40  55  73  95 112 137 173 201
#     4  10  21  35  47  58  70  89 122 160 204 258
#     4  10  19  28  40  61  77  93 124 148 178 226
#
# _framework density 16.492683
#
# number of rings (size 3 to 8) (size 9 to 14) (size 15 to 20)
#    0.000    2.000    0.000    9.857    0.000    4.571 
#    0.000    1.429    0.000    0.000    0.000    0.000 
#    0.000    0.000    0.000    0.000    0.000    0.000 
#
# Total GULP energy -311963.020633 kJ/mol
# GULP energy per Si atom -5570.768226 kJ/mol
# Density = 1.645515 g / cm^3
# Si number density = 16.492683 Si / 1000 Ang^3
#
#
#
# Elastic Constant Matrix: (Units=GPa)
#
#
# Indices 1 2 3 4 5 6 
#
# 1 10.6560 7.2858 14.5692 0.0000 0.0000 0.0000
# 2 7.2858 10.6560 14.5692 0.0000 0.0000 0.0000
# 3 14.5692 14.5692 202.9644 0.0000 0.0000 0.0000
# 4 0.0000 0.0000 0.0000 17.7754 0.0000 0.0000
# 5 0.0000 0.0000 0.0000 0.0000 17.7754 0.0000
# 6 0.0000 0.0000 0.0000 0.0000 0.0000 10.0743
#
#
#
# Elastic Compliance Matrix: (Units=1/GPa)
#
#
# Indices 1 2 3 4 5 6 
#
# 1 0.179904 -0.116813 -0.004529 0.000000 0.000000 0.000000
# 2 -0.116813 0.179904 -0.004529 0.000000 0.000000 0.000000
# 3 -0.004529 -0.004529 0.005577 0.000000 0.000000 0.000000
# 4 0.000000 0.000000 0.000000 0.056258 0.000000 0.000000
# 5 0.000000 0.000000 0.000000 0.000000 0.056258 0.000000
# 6 0.000000 0.000000 0.000000 0.000000 0.000000 0.099263
#
#
# Mechanical properties :
#
#
# Convention : Reuss Voigt Hill
#
# Bulk Modulus (GPa) = 8.79941 33.01385 20.90663
# Shear Modulus (GPa) = 5.76844 21.64849 13.70847
#
# Velocity S-wave (km/s) = 1.87221 3.62693 2.88616
# Velocity P-wave (km/s) = 3.16551 6.13190 4.87958
#
# Compressibility (1/GPa) = 0.11364400
#
# Stress axis : x y z
#
# Youngs Moduli (GPa) = 5.55852 5.55852 179.30315
#
# Poissons Ratio (x) = 0.64931 0.81203
# Poissons Ratio (y) = 0.64931 0.81203
# Poissons Ratio (z) = 0.02517 0.02517
#
# Static dielectric constant tensor:
#      x y z
#    x 1.577710 0.000000 0.000000 
#    y 0.000000 1.577710 0.000000 
#    z 0.000000 0.000000 1.747450 
# 
# From -- ./inp_files/1485.got.cif
#   From: 2010.05.17/outbox.cif.g08.bks.cpg/sg91_1_cif.got.tgz:1485.got - 2010.06.03 19:20:03.
