data_PCOD9547502
_publ_section_title
;
Structure prediction by ZEFSAII (Michael W. Deem and Ramdas Pophale) SiO2 
 PCOD9547502
Probable space group: P 41 2 2
;
_chemical_formula_sum "Si O2"
_cell_formula_units_Z 36
_cell_length_a 10.749022
_cell_length_b 10.749022
_cell_length_c 12.396220
_cell_angle_alpha 90.000000
_cell_angle_beta 90.000000
_cell_angle_gamma 90.000000
_cell_volume 1432.277530
_symmetry_space_group_name_H-M "P 41 2 2"
_symmetry_group_IT_number 91
_symmetry_cell_setting 'tetragonal'
loop_
_space_group_symop_operation_xyz
x,y,z
-y,x,1/4+z
-x,-y,1/2+z
y,-x,3/4+z
x,-y,1/2-z
-x,y,-z
y,x,3/4-z
-y,-x,1/4-z
loop_
_atom_site_type_symbol
_atom_site_label
_atom_site_fract_x
_atom_site_fract_y
_atom_site_fract_z
Si Si1 0.494327 0.000000 0.750000
Si Si2 0.743583 0.256418 0.125000
Si Si3 0.029314 0.176759 0.618033
Si Si4 0.500000 0.339516 0.500000
Si Si5 0.281310 0.035862 0.583469
Si Si6 0.499962 0.261718 0.261768
O O1 0.404529 0.948310 0.846088
O O2 0.549943 0.131492 0.787565
O O3 0.736059 0.111525 0.098344
O O4 0.640665 0.280100 0.217738
O O5 0.963683 0.267726 0.704242
O O6 0.000000 0.225746 0.500000
O O7 0.172108 0.127942 0.626631
O O8 0.952270 0.047731 0.625000
O O9 0.477333 0.266022 0.390357
O O10 0.619401 0.422812 0.472534
#
# Coordination Sequence:
#
# PCOD9547502 Si02
#       6
#     4   4   8   4   8   8
#     4  10  22  36  62 100 140 174 226 312 374 406
#     4  10  18  30  58  96 128 162 240 294 354 412
#     4   9  16  24  42  69 111 188 237 270 332 434
#     4  10  22  44  74  98 138 178 234 282 366 448
#     4  10  17  28  47  81 129 175 225 297 348 417
#     4  10  21  40  69 105 131 180 233 306 361 428
#
# _framework density 25.134792000000001
#
# number of rings (size 3 to 8) (size 9 to 14) (size 15 to 20)
#    0.000    2.222    1.111    4.000    1.556    0.000 
#    0.000    4.444   24.444    0.000    0.000    0.000 
#    0.000    7.111    0.000    0.000    0.000    0.000 
#
# Total GULP energy -200843.090634 kJ/mol
# GULP energy per Si atom -5578.974740 kJ/mol
# Density = 2.507758 g / cm^3
# Si number density = 25.134792 Si / 1000 Ang^3
#
#
#
# Elastic Constant Matrix: (Units=GPa)
#
#
# Indices 1 2 3 4 5 6 
#
# 1 98.4627 63.3798 2.5601 0.0000 0.0000 0.0000
# 2 63.3798 98.4619 2.5607 0.0000 0.0000 0.0000
# 3 2.5601 2.5607 101.8523 0.0000 0.0000 0.0000
# 4 0.0000 0.0000 0.0000 12.5789 0.0000 0.0000
# 5 0.0000 0.0000 0.0000 0.0000 12.5793 0.0000
# 6 0.0000 0.0000 0.0000 0.0000 0.0000 43.7920
#
#
#
# Elastic Compliance Matrix: (Units=1/GPa)
#
#
# Indices 1 2 3 4 5 6 
#
# 1 0.017344 -0.011160 -0.000155 0.000000 0.000000 0.000000
# 2 -0.011160 0.017344 -0.000156 0.000000 0.000000 0.000000
# 3 -0.000155 -0.000156 0.009826 0.000000 0.000000 0.000000
# 4 0.000000 0.000000 0.000000 0.079498 0.000000 0.000000
# 5 0.000000 0.000000 0.000000 0.000000 0.079496 0.000000
# 6 0.000000 0.000000 0.000000 0.000000 0.000000 0.022835
#
#
# Mechanical properties :
#
#
# Convention : Reuss Voigt Hill
#
# Bulk Modulus (GPa) = 46.35702 48.41980 47.38841
# Shear Modulus (GPa) = 19.49500 29.14179 24.31840
#
# Velocity S-wave (km/s) = 2.78801 3.40872 3.11387
# Velocity P-wave (km/s) = 5.37098 5.89901 5.64118
#
# Compressibility (1/GPa) = 0.02157171
#
# Stress axis : x y z
#
# Youngs Moduli (GPa) = 57.65710 57.65663 101.77133
#
# Poissons Ratio (x) = 0.64346 0.01581
# Poissons Ratio (y) = 0.64347 0.01583
# Poissons Ratio (z) = 0.00896 0.00897
#
# Static dielectric constant tensor:
#      x y z
#    x 2.085140 0.000000 0.000000 
#    y 0.000000 2.085140 0.000000 
#    z 0.000000 0.000000 2.037200 
# 
# From -- ./inp_files/15689.got.cif
#   From: 2010.05.17/outbox.cif.g08.bks.cpg/sg91_8_cif.got.tgz:15689.got - 2010.06.03 19:20:03.
