data_PCOD9547270
_publ_section_title
;
Structure prediction by ZEFSAII (Michael W. Deem and Ramdas Pophale) SiO2 
 PCOD9547270
Probable space group: P 4 21 2
;
_chemical_formula_sum "Si O2"
_cell_formula_units_Z 34
_cell_length_a 12.127552
_cell_length_b 12.127552
_cell_length_c 10.484149
_cell_angle_alpha 90.000000
_cell_angle_beta 90.000000
_cell_angle_gamma 90.000000
_cell_volume 1541.982608
_symmetry_space_group_name_H-M "P 4 21 2"
_symmetry_group_IT_number 90
_symmetry_cell_setting 'tetragonal'
loop_
_space_group_symop_operation_xyz
x,y,z
1/2-y,1/2+x,z
-x,-y,z
1/2+y,1/2-x,z
1/2+x,1/2-y,-z
1/2-x,1/2+y,-z
y,x,-z
-y,-x,-z
loop_
_atom_site_type_symbol
_atom_site_label
_atom_site_fract_x
_atom_site_fract_y
_atom_site_fract_z
Si Si1 0.200038 0.091094 0.727143
Si Si2 0.155123 0.787408 0.356309
Si Si3 0.506270 0.243666 0.264294
Si Si4 0.320885 0.039729 0.972056
Si Si5 0.000000 0.500000 0.635372
O O1 0.299909 0.168869 0.683663
O O2 0.089303 0.158613 0.699436
O O3 0.221261 0.065473 0.876912
O O4 0.203559 0.975175 0.657378
O O5 0.189386 0.810615 0.500000
O O6 0.211907 0.881777 0.269985
O O7 0.517671 0.135176 0.350645
O O8 0.539472 0.208296 0.120979
O O9 0.419096 0.126901 0.947515
#
# Coordination Sequence:
#
# PCOD9547270 Si02
#       5
#     8   8   8   8   2
#     4  12  26  47  75 109 150 198 252 323 388 454
#     4  12  30  49  75 108 154 205 265 320 385 464
#     4  12  24  45  75 112 151 202 251 316 384 460
#     4  11  20  41  74 110 152 191 248 312 380 465
#     4  12  20  40  76 104 146 200 260 292 376 474
#
# _framework density 22.049537000000001
#
# number of rings (size 3 to 8) (size 9 to 14) (size 15 to 20)
#    0.000    0.235    7.059    1.412    3.294    2.353 
#    0.000    2.353    0.000    0.000    0.000    0.000 
#    0.000    0.000    0.000    0.000    0.000    0.000 
#
# Total GULP energy -189891.050535 kJ/mol
# GULP energy per Si atom -5585.030898 kJ/mol
# Density = 2.199935 g / cm^3
# Si number density = 22.049537 Si / 1000 Ang^3
#
#
#
# Elastic Constant Matrix: (Units=GPa)
#
#
# Indices 1 2 3 4 5 6 
#
# 1 124.8664 23.6377 17.1215 0.0000 0.0000 0.0000
# 2 23.6377 124.8672 17.1209 0.0000 0.0000 0.0000
# 3 17.1215 17.1209 29.6438 0.0000 0.0000 0.0000
# 4 0.0000 0.0000 0.0000 20.2766 0.0000 0.0000
# 5 0.0000 0.0000 0.0000 0.0000 20.2757 0.0000
# 6 0.0000 0.0000 0.0000 0.0000 0.0000 33.6465
#
#
#
# Elastic Compliance Matrix: (Units=1/GPa)
#
#
# Indices 1 2 3 4 5 6 
#
# 1 0.008824 -0.001055 -0.004487 0.000000 0.000000 0.000000
# 2 -0.001055 0.008823 -0.004487 0.000000 0.000000 0.000000
# 3 -0.004487 -0.004487 0.038917 0.000000 0.000000 0.000000
# 4 0.000000 0.000000 0.000000 0.049318 0.000000 0.000000
# 5 0.000000 0.000000 0.000000 0.000000 0.049320 0.000000
# 6 0.000000 0.000000 0.000000 0.000000 0.000000 0.029721
#
#
# Mechanical properties :
#
#
# Convention : Reuss Voigt Hill
#
# Bulk Modulus (GPa) = 27.39248 43.90419 35.64833
# Shear Modulus (GPa) = 23.02573 29.60624 26.31599
#
# Velocity S-wave (km/s) = 3.23503 3.66828 3.45845
# Velocity P-wave (km/s) = 5.13848 6.15602 5.67012
#
# Compressibility (1/GPa) = 0.03650637
#
# Stress axis : x y z
#
# Youngs Moduli (GPa) = 113.33336 113.33480 25.69601
#
# Poissons Ratio (x) = 0.11958 0.11529
# Poissons Ratio (y) = 0.11958 0.11529
# Poissons Ratio (z) = 0.50851 0.50849
#
# Static dielectric constant tensor:
#      x y z
#    x 1.786870 0.000000 0.000000 
#    y 0.000000 1.786870 0.000000 
#    z 0.000000 0.000000 1.828700 
# 
# From -- ./inp_files/1877.got.cif
#   From: 2010.05.17/outbox.cif.g08.bks.cpg/sg90_1_cif.got.tgz:1877.got - 2010.06.03 19:17:45.
