data_PCOD9547450
_publ_section_title
;
Structure prediction by ZEFSAII (Michael W. Deem and Ramdas Pophale) SiO2 
 PCOD9547450
Probable space group: P 4 21 2
;
_chemical_formula_sum "Si O2"
_cell_formula_units_Z 26
_cell_length_a 12.828445
_cell_length_b 12.828445
_cell_length_c 7.379035
_cell_angle_alpha 90.000000
_cell_angle_beta 90.000000
_cell_angle_gamma 90.000000
_cell_volume 1214.360419
_symmetry_space_group_name_H-M "P 4 21 2"
_symmetry_group_IT_number 90
_symmetry_cell_setting 'tetragonal'
loop_
_space_group_symop_operation_xyz
x,y,z
1/2-y,1/2+x,z
-x,-y,z
1/2+y,1/2-x,z
1/2+x,1/2-y,-z
1/2-x,1/2+y,-z
y,x,-z
-y,-x,-z
loop_
_atom_site_type_symbol
_atom_site_label
_atom_site_fract_x
_atom_site_fract_y
_atom_site_fract_z
Si Si1 0.500000 0.500000 0.500000
Si Si2 0.067633 0.347858 0.748351
Si Si3 0.892215 0.882365 0.801355
Si Si4 0.452682 0.837900 0.688582
O O1 0.591765 0.477857 0.645743
O O2 0.132702 0.448670 0.806268
O O3 0.115450 0.241701 0.816163
O O4 0.059652 0.341845 0.529864
O O5 0.779446 0.927790 0.747017
O O6 0.921152 0.921152 0.000000
O O7 0.568744 0.874429 0.746277
#
# Coordination Sequence:
#
# PCOD9547450 Si02
#       4
#     2   8   8   8
#     4  12  26  48  60  86 132 166 206 274 308 386
#     4   9  19  40  69  97 130 176 221 264 322 390
#     4  12  25  42  68  99 131 175 216 266 334 381
#     4   9  19  40  69  97 130 176 221 264 322 390
#
# _framework density 21.410447999999999
#
# number of rings (size 3 to 8) (size 9 to 14) (size 15 to 20)
#    0.000    1.846    3.077    2.308    0.000    4.923 
#    0.000    3.077    0.000    0.000    0.000    0.000 
#    0.000    0.000    0.000    0.000    0.000    0.000 
#
# Total GULP energy -144990.733490 kJ/mol
# GULP energy per Si atom -5576.566673 kJ/mol
# Density = 2.136172 g / cm^3
# Si number density = 21.410448 Si / 1000 Ang^3
#
#
#
# Elastic Constant Matrix: (Units=GPa)
#
#
# Indices 1 2 3 4 5 6 
#
# 1 77.9739 86.4069 13.3069 0.0000 0.0000 0.0000
# 2 86.4069 77.9739 13.3069 0.0000 0.0000 0.0000
# 3 13.3069 13.3069 118.3971 0.0000 0.0000 0.0000
# 4 0.0000 0.0000 0.0000 -9.0781 0.0000 0.0000
# 5 0.0000 0.0000 0.0000 0.0000 -9.0781 0.0000
# 6 0.0000 0.0000 0.0000 0.0000 0.0000 19.5627
#
#
#
# Elastic Compliance Matrix: (Units=1/GPa)
#
#
# Indices 1 2 3 4 5 6 
#
# 1 -0.056193 0.062389 -0.000696 0.000000 0.000000 0.000000
# 2 0.062389 -0.056193 -0.000696 0.000000 0.000000 0.000000
# 3 -0.000696 -0.000696 0.008603 0.000000 0.000000 0.000000
# 4 0.000000 0.000000 0.000000 -0.110155 0.000000 0.000000
# 5 0.000000 0.000000 0.000000 0.000000 -0.110155 0.000000
# 6 0.000000 0.000000 0.000000 0.000000 0.000000 0.051118
#
#
# Mechanical properties :
#
#
# Convention : Reuss Voigt Hill
#
# Bulk Modulus (GPa) = 54.91655 55.59850 55.25752
# Shear Modulus (GPa) = -12.85687 11.03623 -0.91032
#
# Velocity S-wave (km/s) = -2.45316 2.27284 -0.65276
# Velocity P-wave (km/s) = 4.20489 5.73690 5.02957
#
# Compressibility (1/GPa) = 0.01820945
#
# Stress axis : x y z
#
# Youngs Moduli (GPa) = -17.79588 -17.79588 116.24264
#
# Poissons Ratio (x) = 1.11027 0.08095
# Poissons Ratio (y) = 1.11027 0.08095
# Poissons Ratio (z) = -0.01239 -0.01239
#
# Static dielectric constant tensor:
#      x y z
#    x 1.744890 0.000000 0.000000 
#    y 0.000000 1.744890 0.000000 
#    z 0.000000 0.000000 1.867740 
# 
# From -- ./inp_files/945.got.cif
#   From: 2010.05.17/outbox.cif.g08.bks.cpg/sg90_1_cif.got.tgz:945.got - 2010.06.03 19:17:45.
