data_PCOD9547497
_publ_section_title
;
Structure prediction by ZEFSAII (Michael W. Deem and Ramdas Pophale) SiO2 
 PCOD9547497
Probable space group: P 41 2 2
;
_chemical_formula_sum "Si O2"
_cell_formula_units_Z 56
_cell_length_a 26.206441
_cell_length_b 26.206441
_cell_length_c 5.120433
_cell_angle_alpha 90.000000
_cell_angle_beta 90.000000
_cell_angle_gamma 90.000000
_cell_volume 3516.598430
_symmetry_space_group_name_H-M "P 41 2 2"
_symmetry_group_IT_number 91
_symmetry_cell_setting 'tetragonal'
loop_
_space_group_symop_operation_xyz
x,y,z
-y,x,1/4+z
-x,-y,1/2+z
y,-x,3/4+z
x,-y,1/2-z
-x,y,-z
y,x,3/4-z
-y,-x,1/4-z
loop_
_atom_site_type_symbol
_atom_site_label
_atom_site_fract_x
_atom_site_fract_y
_atom_site_fract_z
Si Si1 0.732129 0.889702 0.324688
Si Si2 0.350724 0.731747 0.101480
Si Si3 0.109428 0.194016 0.423118
Si Si4 0.466116 0.283648 0.243332
Si Si5 0.446922 0.401702 0.113467
Si Si6 0.000000 0.730359 0.500000
Si Si7 0.697318 0.779472 0.400069
Si Si8 0.195636 0.000000 0.250000
O O1 0.767502 0.885333 0.582528
O O2 0.698447 0.838940 0.332370
O O3 0.703902 0.944728 0.289618
O O4 0.770453 0.889147 0.081210
O O5 0.324866 0.675135 0.125000
O O6 0.409327 0.735587 0.188667
O O7 0.320070 0.766872 0.306971
O O8 0.338807 0.750392 0.808330
O O9 0.152897 0.152897 0.375000
O O10 0.054096 0.167863 0.473673
O O11 0.500000 0.278484 0.500000
O O12 0.456556 0.343217 0.183460
O O13 0.500000 0.263065 0.000000
O O14 0.429613 0.429613 0.375000
O O15 0.500000 0.422451 0.000000
O O16 0.407378 0.407378 0.875000
O O17 0.999580 0.767275 0.750328
O O18 0.753295 0.753295 0.375000
#
# Coordination Sequence:
#
# PCOD9547497 Si02
#       8
#     8   8   8   8   8   4   8   4
#     4  10  18  29  44  65  93 121 155 186 218 271
#     4  10  21  34  50  70  95 123 150 186 233 276
#     4  10  17  26  41  59  81 114 150 192 230 263
#     4  11  22  37  54  69  86 116 156 192 224 267
#     4  11  22  35  49  66  86 111 144 183 227 270
#     4   8  16  28  42  60  87 122 150 183 222 254
#     4  10  19  30  45  69  96 125 153 182 226 278
#     4   8  16  26  36  56  79 104 148 189 228 272
#
# _framework density 15.924478000000001
#
# number of rings (size 3 to 8) (size 9 to 14) (size 15 to 20)
#    0.000    2.000    0.000    5.571    0.000    3.429 
#    0.000    0.714    0.000    0.000    0.000    6.000 
#    0.000    0.000    0.000   12.857    0.000    0.000 
#
# Total GULP energy -311870.157401 kJ/mol
# GULP energy per Si atom -5569.109954 kJ/mol
# Density = 1.588823 g / cm^3
# Si number density = 15.924478 Si / 1000 Ang^3
#
#
#
# Elastic Constant Matrix: (Units=GPa)
#
#
# Indices 1 2 3 4 5 6 
#
# 1 76.8742 -10.3044 2.6084 0.0000 0.0000 0.0000
# 2 -10.3044 76.8671 2.6055 0.0000 0.0000 0.0000
# 3 2.6084 2.6055 108.6690 0.0000 0.0000 0.0000
# 4 0.0000 0.0000 0.0000 14.2747 0.0000 0.0000
# 5 0.0000 0.0000 0.0000 0.0000 14.2741 0.0000
# 6 0.0000 0.0000 0.0000 0.0000 0.0000 11.5841
#
#
#
# Elastic Compliance Matrix: (Units=1/GPa)
#
#
# Indices 1 2 3 4 5 6 
#
# 1 0.013260 0.001790 -0.000361 0.000000 0.000000 0.000000
# 2 0.001790 0.013262 -0.000361 0.000000 0.000000 0.000000
# 3 -0.000361 -0.000361 0.009220 0.000000 0.000000 0.000000
# 4 0.000000 0.000000 0.000000 0.070054 0.000000 0.000000
# 5 0.000000 0.000000 0.000000 0.000000 0.070057 0.000000
# 6 0.000000 0.000000 0.000000 0.000000 0.000000 0.086325
#
#
# Mechanical properties :
#
#
# Convention : Reuss Voigt Hill
#
# Bulk Modulus (GPa) = 26.40115 28.02547 27.21331
# Shear Modulus (GPa) = 18.33735 25.85999 22.09867
#
# Velocity S-wave (km/s) = 3.39709 4.03415 3.72925
# Velocity P-wave (km/s) = 5.65702 6.27187 5.97236
#
# Compressibility (1/GPa) = 0.03787713
#
# Stress axis : x y z
#
# Youngs Moduli (GPa) = 75.41227 75.40549 108.46478
#
# Poissons Ratio (x) = -0.13497 0.03918
# Poissons Ratio (y) = -0.13498 0.03915
# Poissons Ratio (z) = 0.02724 0.02722
#
# Static dielectric constant tensor:
#      x y z
#    x 1.563210 0.000000 0.000000 
#    y 0.000000 1.563210 0.000000 
#    z 0.000000 0.000000 1.533300 
# 
# From -- ./inp_files/19038.got.cif
#   From: 2010.05.17/outbox.cif.g08.bks.cpg/sg91_10_cif.got.tgz:19038.got - 2010.06.03 19:20:03.
