data_PCOD9547783
_publ_section_title
;
Structure prediction by ZEFSAII (Michael W. Deem and Ramdas Pophale) SiO2 
 PCOD9547783
Probable space group: P 41 2 2
;
_chemical_formula_sum "Si O2"
_cell_formula_units_Z 60
_cell_length_a 11.520738
_cell_length_b 11.520738
_cell_length_c 20.653525
_cell_angle_alpha 90.000000
_cell_angle_beta 90.000000
_cell_angle_gamma 90.000000
_cell_volume 2741.288758
_symmetry_space_group_name_H-M "P 41 2 2"
_symmetry_group_IT_number 91
_symmetry_cell_setting 'tetragonal'
loop_
_space_group_symop_operation_xyz
x,y,z
-y,x,1/4+z
-x,-y,1/2+z
y,-x,3/4+z
x,-y,1/2-z
-x,y,-z
y,x,3/4-z
-y,-x,1/4-z
loop_
_atom_site_type_symbol
_atom_site_label
_atom_site_fract_x
_atom_site_fract_y
_atom_site_fract_z
Si Si1 0.227982 0.983688 0.496077
Si Si2 0.850896 0.362727 0.367950
Si Si3 0.806192 0.457646 0.580700
Si Si4 0.981389 0.453385 0.822692
Si Si5 0.757374 0.138131 0.745133
Si Si6 0.409586 0.000000 0.750000
Si Si7 0.624496 0.627618 0.531743
Si Si8 0.247654 0.823438 0.695589
O O1 0.318811 0.004109 0.555676
O O2 0.173371 0.109311 0.485911
O O3 0.285262 0.932541 0.429904
O O4 0.152269 0.875302 0.519696
O O5 0.826342 0.300256 0.435902
O O6 0.728818 0.388394 0.334553
O O7 0.922373 0.483151 0.367280
O O8 0.858699 0.502187 0.648736
O O9 0.813740 0.322693 0.563065
O O10 0.683915 0.515233 0.563541
O O11 0.899798 0.514300 0.531274
O O12 0.998369 0.500000 0.750000
O O13 0.750672 0.000000 0.750000
O O14 0.323631 0.061617 0.800145
O O15 0.500000 0.604960 0.500000
O O16 0.718908 0.684556 0.482541
O O17 0.221330 0.778671 0.625000
#
# Coordination Sequence:
#
# PCOD9547783 Si02
#       8
#     8   8   8   8   8   4   8   8
#     4  10  23  38  61  94 128 167 212 273 335 394
#     4  10  20  41  66  92 128 168 218 264 329 402
#     4  11  21  40  63  91 128 165 221 267 322 398
#     4  10  19  38  63  86 118 167 213 251 314 395
#     4  12  24  41  63  94 126 178 217 268 332 404
#     4  10  20  34  58  86 122 162 206 256 324 378
#     4  10  22  39  65  99 129 166 213 276 332 387
#     4  10  21  37  62  94 127 165 209 268 330 392
#
# _framework density 21.887516999999999
#
# number of rings (size 3 to 8) (size 9 to 14) (size 15 to 20)
#    0.000    1.600    2.000    3.600    0.933    5.867 
#    0.000    2.000    0.000    3.200    0.000    0.000 
#    0.000    0.000    0.000    0.000    0.000    0.000 
#
# Total GULP energy -335039.727549 kJ/mol
# GULP energy per Si atom -5583.995459 kJ/mol
# Density = 2.183770 g / cm^3
# Si number density = 21.887517 Si / 1000 Ang^3
#
#
#
# Elastic Constant Matrix: (Units=GPa)
#
#
# Indices 1 2 3 4 5 6 
#
# 1 92.2381 45.1299 -1.6156 0.0000 0.0000 0.0000
# 2 45.1299 92.2379 -1.6157 0.0000 0.0000 0.0000
# 3 -1.6156 -1.6157 37.3785 0.0000 0.0000 0.0000
# 4 0.0000 0.0000 0.0000 17.9458 0.0000 0.0000
# 5 0.0000 0.0000 0.0000 0.0000 17.9459 0.0000
# 6 0.0000 0.0000 0.0000 0.0000 0.0000 28.2106
#
#
#
# Elastic Compliance Matrix: (Units=1/GPa)
#
#
# Indices 1 2 3 4 5 6 
#
# 1 0.014257 -0.006970 0.000315 0.000000 0.000000 0.000000
# 2 -0.006970 0.014257 0.000315 0.000000 0.000000 0.000000
# 3 0.000315 0.000315 0.026781 0.000000 0.000000 0.000000
# 4 0.000000 0.000000 0.000000 0.055723 0.000000 0.000000
# 5 0.000000 0.000000 0.000000 0.000000 0.055723 0.000000
# 6 0.000000 0.000000 0.000000 0.000000 0.000000 0.035448
#
#
# Mechanical properties :
#
#
# Convention : Reuss Voigt Hill
#
# Bulk Modulus (GPa) = 23.46608 33.96132 28.71370
# Shear Modulus (GPa) = 21.82690 24.81752 23.32221
#
# Velocity S-wave (km/s) = 3.16132 3.37095 3.26782
# Velocity P-wave (km/s) = 4.90609 5.54085 5.23311
#
# Compressibility (1/GPa) = 0.04261471
#
# Stress axis : x y z
#
# Youngs Moduli (GPa) = 70.13887 70.13867 37.34053
#
# Poissons Ratio (x) = 0.48889 -0.01176
# Poissons Ratio (y) = 0.48889 -0.01176
# Poissons Ratio (z) = -0.02209 -0.02209
#
# Static dielectric constant tensor:
#      x y z
#    x 1.810070 0.000000 0.000000 
#    y 0.000000 1.810070 0.000000 
#    z 0.000000 0.000000 1.873760 
# 
# From -- ./inp_files/12511.got.cif
#   From: 2010.05.17/outbox.cif.g08.bks.cpg/sg91_7_cif.got.tgz:12511.got - 2010.06.03 19:20:03.
