data_PCOD9547761
_publ_section_title
;
Structure prediction by ZEFSAII (Michael W. Deem and Ramdas Pophale) SiO2 
 PCOD9547761
Probable space group: P 41 2 2
;
_chemical_formula_sum "Si O2"
_cell_formula_units_Z 40
_cell_length_a 8.192444
_cell_length_b 8.192444
_cell_length_c 24.092619
_cell_angle_alpha 90.000000
_cell_angle_beta 90.000000
_cell_angle_gamma 90.000000
_cell_volume 1617.003558
_symmetry_space_group_name_H-M "P 41 2 2"
_symmetry_group_IT_number 91
_symmetry_cell_setting 'tetragonal'
loop_
_space_group_symop_operation_xyz
x,y,z
-y,x,1/4+z
-x,-y,1/2+z
y,-x,3/4+z
x,-y,1/2-z
-x,y,-z
y,x,3/4-z
-y,-x,1/4-z
loop_
_atom_site_type_symbol
_atom_site_label
_atom_site_fract_x
_atom_site_fract_y
_atom_site_fract_z
Si Si1 0.463609 0.319384 0.682583
Si Si2 0.329015 0.987555 0.489061
Si Si3 0.379521 0.177418 0.132117
Si Si4 0.782671 0.887979 0.817772
Si Si5 0.304791 0.655239 0.549826
O O1 0.349728 0.287448 0.628807
O O2 0.643369 0.251200 0.676650
O O3 0.407479 0.239732 0.740313
O O4 0.422905 0.512610 0.691929
O O5 0.500000 0.078682 0.500000
O O6 0.174147 0.100237 0.480507
O O7 0.359483 0.904848 0.428369
O O8 0.308348 0.847496 0.535631
O O9 0.566806 0.205512 0.151410
O O10 0.305124 0.061379 0.178827
O O11 0.884613 0.884613 0.875000
#
# Coordination Sequence:
#
# PCOD9547761 Si02
#       5
#     8   8   8   8   8
#     4  10  20  37  64  98 126 172 240 286 331 421
#     4  10  20  37  63 104 141 173 230 298 350 412
#     4  10  20  38  64  97 135 177 230 283 352 425
#     4  10  22  37  63  98 133 176 223 288 350 413
#     4  10  19  36  66  97 131 176 226 289 342 416
#
# _framework density 24.737112
#
# number of rings (size 3 to 8) (size 9 to 14) (size 15 to 20)
#    0.000    2.000    4.000    1.800    2.800    0.800 
#    0.000    0.000    0.000   40.800    0.000    0.000 
#    0.000    0.000    0.000    0.000    0.000    0.000 
#
# Total GULP energy -222915.709271 kJ/mol
# GULP energy per Si atom -5572.892732 kJ/mol
# Density = 2.468081 g / cm^3
# Si number density = 24.737112 Si / 1000 Ang^3
#
#
#
# Elastic Constant Matrix: (Units=GPa)
#
#
# Indices 1 2 3 4 5 6 
#
# 1 89.8570 55.8277 58.4301 0.0000 0.0000 0.0000
# 2 55.8277 89.8570 58.4301 0.0000 0.0000 0.0000
# 3 58.4301 58.4301 109.1702 0.0000 0.0000 0.0000
# 4 0.0000 0.0000 0.0000 42.4366 0.0000 0.0000
# 5 0.0000 0.0000 0.0000 0.0000 42.4366 0.0000
# 6 0.0000 0.0000 0.0000 0.0000 0.0000 36.8136
#
#
#
# Elastic Compliance Matrix: (Units=1/GPa)
#
#
# Indices 1 2 3 4 5 6 
#
# 1 0.020707 -0.008679 -0.006438 0.000000 0.000000 0.000000
# 2 -0.008679 0.020707 -0.006438 0.000000 0.000000 0.000000
# 3 -0.006438 -0.006438 0.016051 0.000000 0.000000 0.000000
# 4 0.000000 0.000000 0.000000 0.023565 0.000000 0.000000
# 5 0.000000 0.000000 0.000000 0.000000 0.023565 0.000000
# 6 0.000000 0.000000 0.000000 0.000000 0.000000 0.027164
#
#
# Mechanical properties :
#
#
# Convention : Reuss Voigt Hill
#
# Bulk Modulus (GPa) = 69.65424 70.47333 70.06378
# Shear Modulus (GPa) = 27.83142 32.08381 29.95761
#
# Velocity S-wave (km/s) = 3.35787 3.60528 3.48377
# Velocity P-wave (km/s) = 6.57667 6.77359 6.67586
#
# Compressibility (1/GPa) = 0.01435663
#
# Stress axis : x y z
#
# Youngs Moduli (GPa) = 48.29233 48.29233 62.30084
#
# Poissons Ratio (x) = 0.41914 0.40107
# Poissons Ratio (y) = 0.41914 0.40107
# Poissons Ratio (z) = 0.31089 0.31089
#
# Static dielectric constant tensor:
#      x y z
#    x 2.010890 0.000000 0.000000 
#    y 0.000000 2.010890 0.000000 
#    z 0.000000 0.000000 2.069180 
# 
# From -- ./inp_files/7739.got.cif
#   From: 2010.05.17/outbox.cif.g08.bks.cpg/sg91_4_cif.got.tgz:7739.got - 2010.06.03 19:20:03.
