data_PCOD9547998
_publ_section_title
;
Structure prediction by ZEFSAII (Michael W. Deem and Ramdas Pophale) SiO2 
 PCOD9547998
Probable space group: P 41 2 2
;
_chemical_formula_sum "Si O2"
_cell_formula_units_Z 36
_cell_length_a 11.811250
_cell_length_b 11.811250
_cell_length_c 11.077497
_cell_angle_alpha 90.000000
_cell_angle_beta 90.000000
_cell_angle_gamma 90.000000
_cell_volume 1545.373160
_symmetry_space_group_name_H-M "P 41 2 2"
_symmetry_group_IT_number 91
_symmetry_cell_setting 'tetragonal'
loop_
_space_group_symop_operation_xyz
x,y,z
-y,x,1/4+z
-x,-y,1/2+z
y,-x,3/4+z
x,-y,1/2-z
-x,y,-z
y,x,3/4-z
-y,-x,1/4-z
loop_
_atom_site_type_symbol
_atom_site_label
_atom_site_fract_x
_atom_site_fract_y
_atom_site_fract_z
Si Si1 0.425800 0.681054 0.396431
Si Si2 0.484889 0.872821 0.208416
Si Si3 0.065540 0.737895 0.379310
Si Si4 0.500000 0.275530 0.500000
Si Si5 0.847809 0.245899 0.252483
O O1 0.500000 0.620854 0.500000
O O2 0.484024 0.774094 0.308889
O O3 0.353873 0.589631 0.321350
O O4 0.349752 0.766072 0.475363
O O5 0.613956 0.892462 0.166113
O O6 0.433386 0.808038 0.092623
O O7 0.445533 0.000000 0.250000
O O8 0.169000 0.824129 0.379885
O O9 0.000000 0.778108 0.500000
O O10 0.979035 0.730621 0.270078
O O11 0.806159 0.193842 0.125000
#
# Coordination Sequence:
#
# PCOD9547998 Si02
#       5
#     8   8   8   4   8
#     4  12  26  45  72 102 151 197 251 309 391 466
#     4  11  25  46  72 103 139 199 255 308 374 458
#     4   9  18  37  65 100 133 171 236 293 358 442
#     4  12  28  50  66 112 158 188 256 326 384 458
#     4  10  20  39  68 105 134 182 241 304 370 457
#
# _framework density 23.295342999999999
#
# number of rings (size 3 to 8) (size 9 to 14) (size 15 to 20)
#    0.000    1.333    2.222    4.667    4.667    0.000 
#    8.000    0.000    0.000    9.333    0.000    0.000 
#    0.000    0.000    0.000    0.000    0.000    0.000 
#
# Total GULP energy -200717.152245 kJ/mol
# GULP energy per Si atom -5575.476451 kJ/mol
# Density = 2.324232 g / cm^3
# Si number density = 23.295343 Si / 1000 Ang^3
#
#
#
# Elastic Constant Matrix: (Units=GPa)
#
#
# Indices 1 2 3 4 5 6 
#
# 1 100.2955 47.0529 63.0369 0.0000 0.0000 0.0000
# 2 47.0529 100.2953 63.0371 0.0000 0.0000 0.0000
# 3 63.0369 63.0371 118.4454 0.0000 0.0000 0.0000
# 4 0.0000 0.0000 0.0000 35.7059 0.0000 0.0000
# 5 0.0000 0.0000 0.0000 0.0000 35.7061 0.0000
# 6 0.0000 0.0000 0.0000 0.0000 0.0000 8.1478
#
#
#
# Elastic Compliance Matrix: (Units=1/GPa)
#
#
# Indices 1 2 3 4 5 6 
#
# 1 0.015621 -0.003161 -0.006632 0.000000 0.000000 0.000000
# 2 -0.003161 0.015621 -0.006632 0.000000 0.000000 0.000000
# 3 -0.006632 -0.006632 0.015502 0.000000 0.000000 0.000000
# 4 0.000000 0.000000 0.000000 0.028007 0.000000 0.000000
# 5 0.000000 0.000000 0.000000 0.000000 0.028006 0.000000
# 6 0.000000 0.000000 0.000000 0.000000 0.000000 0.122733
#
#
# Mechanical properties :
#
#
# Convention : Reuss Voigt Hill
#
# Bulk Modulus (GPa) = 71.96094 73.92110 72.94102
# Shear Modulus (GPa) = 19.01356 25.63925 22.32640
#
# Velocity S-wave (km/s) = 2.86001 3.32115 3.09917
# Velocity P-wave (km/s) = 6.47024 6.81966 6.64725
#
# Compressibility (1/GPa) = 0.01389643
#
# Stress axis : x y z
#
# Youngs Moduli (GPa) = 64.01492 64.01446 64.50979
#
# Poissons Ratio (x) = 0.20232 0.42781
# Poissons Ratio (y) = 0.20232 0.42781
# Poissons Ratio (z) = 0.42452 0.42453
#
# Static dielectric constant tensor:
#      x y z
#    x 1.979720 0.000000 0.000000 
#    y 0.000000 1.979720 0.000000 
#    z 0.000000 0.000000 1.990640 
# 
# From -- ./inp_files/15650.got.cif
#   From: 2010.05.17/outbox.cif.g08.bks.cpg/sg91_8_cif.got.tgz:15650.got - 2010.06.03 19:20:03.
