data_PCOD9547032
_publ_section_title
;
Structure prediction by ZEFSAII (Michael W. Deem and Ramdas Pophale) SiO2 
 PCOD9547032
Probable space group: P 4 2 2
;
_chemical_formula_sum "Si O2"
_cell_formula_units_Z 48
_cell_length_a 8.430658
_cell_length_b 8.430658
_cell_length_c 33.421941
_cell_angle_alpha 90.000000
_cell_angle_beta 90.000000
_cell_angle_gamma 90.000000
_cell_volume 2375.497688
_symmetry_space_group_name_H-M "P 4 2 2"
_symmetry_group_IT_number 89
_symmetry_cell_setting 'tetragonal'
loop_
_space_group_symop_operation_xyz
x,y,z
-y,x,z
-x,-y,z
y,-x,z
x,-y,-z
-x,y,-z
y,x,-z
-y,-x,-z
loop_
_atom_site_type_symbol
_atom_site_label
_atom_site_fract_x
_atom_site_fract_y
_atom_site_fract_z
Si Si1 0.740065 0.611589 0.709158
Si Si2 0.762244 0.450748 0.912612
Si Si3 0.253495 0.919043 0.782584
Si Si4 0.797967 0.820885 0.457401
Si Si5 0.766802 0.500000 0.000000
Si Si6 0.847906 0.776453 0.629896
Si Si7 0.000000 0.500000 0.153728
O O1 0.573350 0.703236 0.715468
O O2 0.872159 0.668012 0.740512
O O3 0.791577 0.660481 0.664628
O O4 0.676825 0.621678 0.909353
O O5 0.840677 0.466772 0.956642
O O6 0.881247 0.415494 0.876872
O O7 0.099147 0.808153 0.785408
O O8 0.381191 0.903463 0.817756
O O9 0.746749 0.746749 0.500000
O O10 0.725656 0.784342 0.414107
O O11 0.986998 0.786338 0.457462
O O12 0.650275 0.650275 0.000000
O O13 0.040135 0.788884 0.633375
#
# Coordination Sequence:
#
# PCOD9547032 Si02
#       7
#     8   8   8   8   4   8   4
#     4  11  24  40  57  77 102 135 179 230 281 334
#     4   9  18  33  54  80 112 149 186 225 270 323
#     4  11  24  41  59  79 106 140 177 220 274 335
#     4   7  10  19  39  70 106 138 168 207 256 312
#     4   7  12  27  50  76 108 146 186 224 262 312
#     4   9  17  30  52  82 110 137 173 218 271 330
#     4  12  22  35  56  84 112 140 180 229 280 330
#
# _framework density 20.206289999999999
#
# number of rings (size 3 to 8) (size 9 to 14) (size 15 to 20)
#    0.000    2.583    0.000    5.500    0.000    3.667 
#    0.000    1.667    0.000    1.000    0.000    5.833 
#    0.000   10.667    0.000    0.000    0.000    0.000 
#
# Total GULP energy -267224.521594 kJ/mol
# GULP energy per Si atom -5567.177533 kJ/mol
# Density = 2.016030 g / cm^3
# Si number density = 20.206290 Si / 1000 Ang^3
#
#
#
# Elastic Constant Matrix: (Units=GPa)
#
#
# Indices 1 2 3 4 5 6 
#
# 1 37.4109 13.5942 25.5135 0.0000 0.0000 0.0000
# 2 13.5942 37.4109 25.5135 0.0000 0.0000 0.0000
# 3 25.5135 25.5135 174.8482 0.0000 0.0000 0.0000
# 4 0.0000 0.0000 0.0000 32.1928 0.0000 0.0000
# 5 0.0000 0.0000 0.0000 0.0000 32.1928 0.0000
# 6 0.0000 0.0000 0.0000 0.0000 0.0000 13.4859
#
#
#
# Elastic Compliance Matrix: (Units=1/GPa)
#
#
# Indices 1 2 3 4 5 6 
#
# 1 0.032472 -0.009515 -0.003350 0.000000 0.000000 0.000000
# 2 -0.009515 0.032472 -0.003350 0.000000 0.000000 0.000000
# 3 -0.003350 -0.003350 0.006697 0.000000 0.000000 0.000000
# 4 0.000000 0.000000 0.000000 0.031063 0.000000 0.000000
# 5 0.000000 0.000000 0.000000 0.000000 0.031063 0.000000
# 6 0.000000 0.000000 0.000000 0.000000 0.000000 0.074152
#
#
# Mechanical properties :
#
#
# Convention : Reuss Voigt Hill
#
# Bulk Modulus (GPa) = 25.50258 42.10139 33.80198
# Shear Modulus (GPa) = 19.73018 27.91089 23.82053
#
# Velocity S-wave (km/s) = 3.12819 3.72061 3.43719
# Velocity P-wave (km/s) = 5.06912 6.27202 5.70238
#
# Compressibility (1/GPa) = 0.03921172
#
# Stress axis : x y z
#
# Youngs Moduli (GPa) = 30.79553 30.79553 149.32380
#
# Poissons Ratio (x) = 0.29302 0.50021
# Poissons Ratio (y) = 0.29302 0.50021
# Poissons Ratio (z) = 0.10316 0.10316
#
# Static dielectric constant tensor:
#      x y z
#    x 1.704170 0.000000 0.000000 
#    y 0.000000 1.704170 0.000000 
#    z 0.000000 0.000000 1.780480 
# 
# From -- ./inp_files/3013.got.cif
#   From: 2010.05.17/outbox.cif.g08.bks.cpg/sg89_2_cif.got.tgz:3013.got - 2010.06.03 19:15:31.
