data_PCOD9547995
_publ_section_title
;
Structure prediction by ZEFSAII (Michael W. Deem and Ramdas Pophale) SiO2 
 PCOD9547995
Probable space group: P 41 2 2
;
_chemical_formula_sum "Si O2"
_cell_formula_units_Z 40
_cell_length_a 9.424574
_cell_length_b 9.424574
_cell_length_c 21.460850
_cell_angle_alpha 90.000000
_cell_angle_beta 90.000000
_cell_angle_gamma 90.000000
_cell_volume 1906.208390
_symmetry_space_group_name_H-M "P 41 2 2"
_symmetry_group_IT_number 91
_symmetry_cell_setting 'tetragonal'
loop_
_space_group_symop_operation_xyz
x,y,z
-y,x,1/4+z
-x,-y,1/2+z
y,-x,3/4+z
x,-y,1/2-z
-x,y,-z
y,x,3/4-z
-y,-x,1/4-z
loop_
_atom_site_type_symbol
_atom_site_label
_atom_site_fract_x
_atom_site_fract_y
_atom_site_fract_z
Si Si1 0.408672 0.000000 0.750000
Si Si2 0.173999 0.382875 0.662541
Si Si3 0.328956 0.086774 0.493777
Si Si4 0.936398 0.300695 0.130863
Si Si5 0.382829 0.256485 0.222237
Si Si6 0.500000 0.588074 0.500000
O O1 0.317739 0.008378 0.686704
O O2 0.512575 0.865443 0.745790
O O3 0.126622 0.544521 0.647457
O O4 0.217777 0.324544 0.595939
O O5 0.307005 0.402920 0.708628
O O6 0.039360 0.306563 0.694071
O O7 0.500000 0.097760 0.500000
O O8 0.277189 0.247138 0.483163
O O9 0.267318 0.031226 0.559252
O O10 0.810588 0.189413 0.125000
O O11 0.481443 0.395169 0.214273
#
# Coordination Sequence:
#
# PCOD9547995 Si02
#       6
#     4   8   8   8   8   4
#     4  10  24  40  62  98 140 162 226 288 338 388
#     4  10  21  38  63  94 137 171 221 280 329 402
#     4  10  21  41  61  92 139 173 212 271 345 405
#     4  10  20  39  65  91 128 176 222 274 327 392
#     4  11  24  40  63 101 134 175 216 280 340 406
#     4  12  20  38  70 100 130 164 236 280 332 394
#
# _framework density 20.984065999999999
#
# number of rings (size 3 to 8) (size 9 to 14) (size 15 to 20)
#    0.000    1.600    4.000    3.000    2.800    0.000 
#    0.000   12.000    0.000    0.000    0.000    0.000 
#    0.000    0.000    0.000    0.000    0.000    0.000 
#
# Total GULP energy -223264.037062 kJ/mol
# GULP energy per Si atom -5581.600927 kJ/mol
# Density = 2.093630 g / cm^3
# Si number density = 20.984066 Si / 1000 Ang^3
#
#
#
# Elastic Constant Matrix: (Units=GPa)
#
#
# Indices 1 2 3 4 5 6 
#
# 1 65.8131 16.0472 29.2089 0.0000 0.0000 0.0000
# 2 16.0472 65.8102 29.2086 0.0000 0.0000 0.0000
# 3 29.2089 29.2086 107.1610 0.0000 0.0000 0.0000
# 4 0.0000 0.0000 0.0000 21.9628 0.0000 0.0000
# 5 0.0000 0.0000 0.0000 0.0000 21.9631 0.0000
# 6 0.0000 0.0000 0.0000 0.0000 0.0000 11.7558
#
#
#
# Elastic Compliance Matrix: (Units=1/GPa)
#
#
# Indices 1 2 3 4 5 6 
#
# 1 0.017630 -0.002464 -0.004134 0.000000 0.000000 0.000000
# 2 -0.002464 0.017631 -0.004134 0.000000 0.000000 0.000000
# 3 -0.004134 -0.004134 0.011585 0.000000 0.000000 0.000000
# 4 0.000000 0.000000 0.000000 0.045532 0.000000 0.000000
# 5 0.000000 0.000000 0.000000 0.000000 0.045531 0.000000
# 6 0.000000 0.000000 0.000000 0.000000 0.000000 0.085064
#
#
# Mechanical properties :
#
#
# Convention : Reuss Voigt Hill
#
# Bulk Modulus (GPa) = 39.39746 43.07928 41.23837
# Shear Modulus (GPa) = 19.77084 22.09097 20.93090
#
# Velocity S-wave (km/s) = 3.07283 3.24813 3.16170
# Velocity P-wave (km/s) = 5.60405 5.88568 5.74659
#
# Compressibility (1/GPa) = 0.02538235
#
# Stress axis : x y z
#
# Youngs Moduli (GPa) = 56.72141 56.71879 86.31651
#
# Poissons Ratio (x) = 0.13977 0.35681
# Poissons Ratio (y) = 0.13977 0.35683
# Poissons Ratio (z) = 0.23447 0.23447
#
# Static dielectric constant tensor:
#      x y z
#    x 1.754190 0.000000 0.000000 
#    y 0.000000 1.754190 0.000000 
#    z 0.000000 0.000000 1.792820 
# 
# From -- ./inp_files/6805.got.cif
#   From: 2010.05.17/outbox.cif.g08.bks.cpg/sg91_4_cif.got.tgz:6805.got - 2010.06.03 19:20:03.
