data_PCOD9547235
_publ_section_title
;
Structure prediction by ZEFSAII (Michael W. Deem and Ramdas Pophale) SiO2 
 PCOD9547235
Probable space group: P 4 21 2
;
_chemical_formula_sum "Si O2"
_cell_formula_units_Z 48
_cell_length_a 12.077493
_cell_length_b 12.077493
_cell_length_c 16.796906
_cell_angle_alpha 90.000000
_cell_angle_beta 90.000000
_cell_angle_gamma 90.000000
_cell_volume 2450.094755
_symmetry_space_group_name_H-M "P 4 21 2"
_symmetry_group_IT_number 90
_symmetry_cell_setting 'tetragonal'
loop_
_space_group_symop_operation_xyz
x,y,z
1/2-y,1/2+x,z
-x,-y,z
1/2+y,1/2-x,z
1/2+x,1/2-y,-z
1/2-x,1/2+y,-z
y,x,-z
-y,-x,-z
loop_
_atom_site_type_symbol
_atom_site_label
_atom_site_fract_x
_atom_site_fract_y
_atom_site_fract_z
Si Si1 0.514372 0.187235 0.520236
Si Si2 0.866644 0.004270 0.203682
Si Si3 0.133435 0.793017 0.085760
Si Si4 0.185770 0.523577 0.308323
Si Si5 0.496064 0.810819 0.343608
Si Si6 0.097745 0.221754 0.143272
O O1 0.402493 0.113684 0.521280
O O2 0.524882 0.246477 0.605693
O O3 0.512791 0.239783 0.433066
O O4 0.787002 0.001296 0.279862
O O5 0.841625 0.894751 0.152104
O O6 0.842595 0.110235 0.149203
O O7 0.000000 0.000000 0.220213
O O8 0.181769 0.680264 0.120607
O O9 0.001085 0.786719 0.080919
O O10 0.183217 0.816784 0.000000
O O11 0.118985 0.408241 0.305912
O O12 0.256156 0.542956 0.229919
O O13 0.604658 0.890927 0.335746
#
# Coordination Sequence:
#
# PCOD9547235 Si02
#       6
#     8   8   8   8   8   8
#     4   7  12  23  48  85 118 147 188 250 307 340
#     4  10  23  39  58  83 120 167 200 232 301 376
#     4  11  26  42  64  90 117 156 199 249 307 364
#     4   9  15  29  55  90 120 145 197 260 301 330
#     4   9  16  32  59  88 117 152 203 257 298 348
#     4  11  22  40  65  88 120 154 198 248 297 357
#
# _framework density 19.591078
#
# number of rings (size 3 to 8) (size 9 to 14) (size 15 to 20)
#    0.000    2.500    1.667    3.000    2.333    2.667 
#    0.000    0.833    0.000    7.000    0.000    0.000 
#    0.000    0.000    0.000    0.000    0.000    0.000 
#
# Total GULP energy -267523.797959 kJ/mol
# GULP energy per Si atom -5573.412457 kJ/mol
# Density = 1.954649 g / cm^3
# Si number density = 19.591078 Si / 1000 Ang^3
#
#
#
# Elastic Constant Matrix: (Units=GPa)
#
#
# Indices 1 2 3 4 5 6 
#
# 1 17.2909 0.7613 25.4727 0.0000 0.0000 0.0000
# 2 0.7613 17.2909 25.4732 0.0000 0.0000 0.0000
# 3 25.4727 25.4732 115.6207 0.0000 0.0000 0.0000
# 4 0.0000 0.0000 0.0000 19.0155 0.0000 0.0000
# 5 0.0000 0.0000 0.0000 0.0000 19.0157 0.0000
# 6 0.0000 0.0000 0.0000 0.0000 0.0000 17.5674
#
#
#
# Elastic Compliance Matrix: (Units=1/GPa)
#
#
# Indices 1 2 3 4 5 6 
#
# 1 0.103476 0.042979 -0.032266 0.000000 0.000000 0.000000
# 2 0.042979 0.103478 -0.032267 0.000000 0.000000 0.000000
# 3 -0.032266 -0.032267 0.022867 0.000000 0.000000 0.000000
# 4 0.000000 0.000000 0.000000 0.052589 0.000000 0.000000
# 5 0.000000 0.000000 0.000000 0.000000 0.052588 0.000000
# 6 0.000000 0.000000 0.000000 0.000000 0.000000 0.056924
#
#
# Mechanical properties :
#
#
# Convention : Reuss Voigt Hill
#
# Bulk Modulus (GPa) = 5.35583 28.17966 16.76774
# Shear Modulus (GPa) = 10.05499 17.68607 13.87053
#
# Velocity S-wave (km/s) = 2.26795 3.00786 2.66372
# Velocity P-wave (km/s) = 3.09804 5.14569 4.24711
#
# Compressibility (1/GPa) = 0.18671256
#
# Stress axis : x y z
#
# Youngs Moduli (GPa) = 9.66411 9.66391 43.73202
#
# Poissons Ratio (x) = -0.41535 1.41106
# Poissons Ratio (y) = -0.41536 1.41109
# Poissons Ratio (z) = 0.31182 0.31182
#
# Static dielectric constant tensor:
#      x y z
#    x 1.782050 0.000000 0.000000 
#    y 0.000000 1.782060 0.000000 
#    z 0.000000 0.000000 1.717850 
# 
# From -- ./inp_files/2647.got.cif
#   From: 2010.05.17/outbox.cif.g08.bks.cpg/sg90_2_cif.got.tgz:2647.got - 2010.06.03 19:17:45.
