data_PCOD9547994
_publ_section_title
;
Structure prediction by ZEFSAII (Michael W. Deem and Ramdas Pophale) SiO2 
 PCOD9547994
Probable space group: P 41 2 2
;
_chemical_formula_sum "Si O2"
_cell_formula_units_Z 48
_cell_length_a 13.867935
_cell_length_b 13.867935
_cell_length_c 13.391273
_cell_angle_alpha 90.000000
_cell_angle_beta 90.000000
_cell_angle_gamma 90.000000
_cell_volume 2575.404550
_symmetry_space_group_name_H-M "P 41 2 2"
_symmetry_group_IT_number 91
_symmetry_cell_setting 'tetragonal'
loop_
_space_group_symop_operation_xyz
x,y,z
-y,x,1/4+z
-x,-y,1/2+z
y,-x,3/4+z
x,-y,1/2-z
-x,y,-z
y,x,3/4-z
-y,-x,1/4-z
loop_
_atom_site_type_symbol
_atom_site_label
_atom_site_fract_x
_atom_site_fract_y
_atom_site_fract_z
Si Si1 0.849973 0.697374 0.375449
Si Si2 0.915654 0.878117 0.063191
Si Si3 0.110541 0.505306 0.963683
Si Si4 0.576901 0.847417 0.917309
Si Si5 0.000000 0.824789 0.500000
Si Si6 0.206211 0.206211 0.375000
Si Si7 0.052909 0.322581 0.665111
O O1 0.745665 0.745665 0.375000
O O2 0.853888 0.585999 0.403877
O O3 0.896069 0.704750 0.266700
O O4 0.917053 0.758972 0.450287
O O5 0.875757 0.945285 0.153795
O O6 0.961268 0.779322 0.109330
O O7 0.842233 0.840041 0.976190
O O8 0.000000 0.929620 0.000000
O O9 0.114242 0.605484 0.903891
O O10 0.165692 0.518708 0.065684
O O11 0.000000 0.489600 0.000000
O O12 0.680836 0.803500 0.897284
O O13 0.612319 0.958459 0.935811
O O14 0.500000 0.818267 0.000000
#
# Coordination Sequence:
#
# PCOD9547994 Si02
#       7
#     8   8   8   8   4   4   8
#     4  12  24  40  61  94 132 167 215 267 329 399
#     4  12  25  47  63  90 137 185 229 268 329 396
#     4  10  20  39  64  92 122 164 213 278 334 378
#     4  11  23  38  68  98 124 166 221 278 337 389
#     4  12  28  44  62  92 138 182 232 270 318 404
#     4  12  24  44  70  98 134 174 222 278 336 420
#     4  11  20  42  65  92 127 173 222 276 331 388
#
# _framework density 18.637848000000002
#
# number of rings (size 3 to 8) (size 9 to 14) (size 15 to 20)
#    0.000    0.667    5.833    4.000    2.333    0.000 
#    4.500    0.000    0.000    0.000    2.167    0.000 
#    0.000    0.000    0.000    0.000    0.000    0.000 
#
# Total GULP energy -267689.367618 kJ/mol
# GULP energy per Si atom -5576.861825 kJ/mol
# Density = 1.859543 g / cm^3
# Si number density = 18.637848 Si / 1000 Ang^3
#
#
#
# Elastic Constant Matrix: (Units=GPa)
#
#
# Indices 1 2 3 4 5 6 
#
# 1 53.7318 12.5858 27.3404 0.0000 0.0000 0.0000
# 2 12.5858 53.7318 27.3404 0.0000 0.0000 0.0000
# 3 27.3404 27.3404 123.3007 0.0000 0.0000 0.0000
# 4 0.0000 0.0000 0.0000 29.7604 0.0000 0.0000
# 5 0.0000 0.0000 0.0000 0.0000 29.7604 0.0000
# 6 0.0000 0.0000 0.0000 0.0000 0.0000 4.5588
#
#
#
# Elastic Compliance Matrix: (Units=1/GPa)
#
#
# Indices 1 2 3 4 5 6 
#
# 1 0.021378 -0.002926 -0.004092 0.000000 0.000000 0.000000
# 2 -0.002926 0.021378 -0.004092 0.000000 0.000000 0.000000
# 3 -0.004092 -0.004092 0.009925 0.000000 0.000000 0.000000
# 4 0.000000 0.000000 0.000000 0.033602 0.000000 0.000000
# 5 0.000000 0.000000 0.000000 0.000000 0.033602 0.000000
# 6 0.000000 0.000000 0.000000 0.000000 0.000000 0.219355
#
#
# Mechanical properties :
#
#
# Convention : Reuss Voigt Hill
#
# Bulk Modulus (GPa) = 32.82618 40.58862 36.70740
# Shear Modulus (GPa) = 13.45491 23.71574 18.58533
#
# Velocity S-wave (km/s) = 2.68976 3.57101 3.16124
# Velocity P-wave (km/s) = 5.22468 6.23118 5.75000
#
# Compressibility (1/GPa) = 0.03046349
#
# Stress axis : x y z
#
# Youngs Moduli (GPa) = 46.77665 46.77665 100.75772
#
# Poissons Ratio (x) = 0.13685 0.41226
# Poissons Ratio (y) = 0.13685 0.41226
# Poissons Ratio (z) = 0.19139 0.19139
#
# Static dielectric constant tensor:
#      x y z
#    x 1.732810 0.000000 0.000000 
#    y 0.000000 1.732810 0.000000 
#    z 0.000000 0.000000 1.674140 
# 
# From -- ./inp_files/15924.got.cif
#   From: 2010.05.17/outbox.cif.g08.bks.cpg/sg91_8_cif.got.tgz:15924.got - 2010.06.03 19:20:03.
