data_PCOD9547612
_publ_section_title
;
Structure prediction by ZEFSAII (Michael W. Deem and Ramdas Pophale) SiO2 
 PCOD9547612
Probable space group: P 41 2 2
;
_chemical_formula_sum "Si O2"
_cell_formula_units_Z 36
_cell_length_a 8.182838
_cell_length_b 8.182838
_cell_length_c 24.915433
_cell_angle_alpha 90.000000
_cell_angle_beta 90.000000
_cell_angle_gamma 90.000000
_cell_volume 1668.308435
_symmetry_space_group_name_H-M "P 41 2 2"
_symmetry_group_IT_number 91
_symmetry_cell_setting 'tetragonal'
loop_
_space_group_symop_operation_xyz
x,y,z
-y,x,1/4+z
-x,-y,1/2+z
y,-x,3/4+z
x,-y,1/2-z
-x,y,-z
y,x,3/4-z
-y,-x,1/4-z
loop_
_atom_site_type_symbol
_atom_site_label
_atom_site_fract_x
_atom_site_fract_y
_atom_site_fract_z
Si Si1 0.102695 0.729949 0.677017
Si Si2 0.753545 0.000000 0.250000
Si Si3 0.520301 0.802552 0.782619
Si Si4 0.607729 0.392272 0.625000
Si Si5 0.643396 0.259241 0.454233
Si Si6 0.292197 0.500000 0.750000
O O1 0.192301 0.807700 0.625000
O O2 0.186869 0.565768 0.700031
O O3 0.909229 0.697725 0.676785
O O4 0.138702 0.860643 0.724395
O O5 0.616092 0.938943 0.207842
O O6 0.615297 0.761699 0.835973
O O7 0.648571 0.794300 0.733517
O O8 0.407461 0.645902 0.769147
O O9 0.626315 0.555958 0.660038
O O10 0.500000 0.230200 0.500000
#
# Coordination Sequence:
#
# PCOD9547612 Si02
#       6
#     8   4   8   4   8   4
#     4  11  23  40  65  95 136 180 212 271 358 389
#     4  10  24  40  58  94 134 162 220 268 320 414
#     4  10  20  37  60  90 121 165 209 270 311 380
#     4  10  18  34  64  92 116 156 224 254 322 382
#     4  10  20  38  64  93 127 166 215 277 322 389
#     4  10  20  36  60  96 124 160 220 274 304 406
#
# _framework density 21.578745000000001
#
# number of rings (size 3 to 8) (size 9 to 14) (size 15 to 20)
#    0.000    1.778    4.444    1.333    1.556    0.889 
#    0.000    0.000   12.222    0.000    0.000    0.000 
#    0.000    0.000    0.000    0.000    0.000    0.000 
#
# Total GULP energy -200569.372243 kJ/mol
# GULP energy per Si atom -5571.371451 kJ/mol
# Density = 2.152963 g / cm^3
# Si number density = 21.578745 Si / 1000 Ang^3
#
#
#
# Elastic Constant Matrix: (Units=GPa)
#
#
# Indices 1 2 3 4 5 6 
#
# 1 52.1867 21.6707 12.1004 0.0000 0.0000 0.0000
# 2 21.6707 52.1869 12.1007 0.0000 0.0000 0.0000
# 3 12.1004 12.1007 88.3497 0.0000 0.0000 0.0000
# 4 0.0000 0.0000 0.0000 20.4150 0.0000 0.0000
# 5 0.0000 0.0000 0.0000 0.0000 20.4149 0.0000
# 6 0.0000 0.0000 0.0000 0.0000 0.0000 32.0108
#
#
#
# Elastic Compliance Matrix: (Units=1/GPa)
#
#
# Indices 1 2 3 4 5 6 
#
# 1 0.023473 -0.009297 -0.001941 0.000000 0.000000 0.000000
# 2 -0.009297 0.023473 -0.001942 0.000000 0.000000 0.000000
# 3 -0.001941 -0.001942 0.011850 0.000000 0.000000 0.000000
# 4 0.000000 0.000000 0.000000 0.048984 0.000000 0.000000
# 5 0.000000 0.000000 0.000000 0.000000 0.048984 0.000000
# 6 0.000000 0.000000 0.000000 0.000000 0.000000 0.031239
#
#
# Mechanical properties :
#
#
# Convention : Reuss Voigt Hill
#
# Bulk Modulus (GPa) = 30.83006 31.60743 31.21875
# Shear Modulus (GPa) = 22.20496 24.35823 23.28159
#
# Velocity S-wave (km/s) = 3.21131 3.36342 3.28824
# Velocity P-wave (km/s) = 5.29795 5.45552 5.37731
#
# Compressibility (1/GPa) = 0.03243587
#
# Stress axis : x y z
#
# Youngs Moduli (GPa) = 42.60264 42.60272 84.38469
#
# Poissons Ratio (x) = 0.39607 0.16383
# Poissons Ratio (y) = 0.39607 0.16384
# Poissons Ratio (z) = 0.08271 0.08272
#
# Static dielectric constant tensor:
#      x y z
#    x 1.829350 0.000000 0.000000 
#    y 0.000000 1.829350 0.000000 
#    z 0.000000 0.000000 1.892420 
# 
# From -- ./inp_files/7309.got.cif
#   From: 2010.05.17/outbox.cif.g08.bks.cpg/sg91_4_cif.got.tgz:7309.got - 2010.06.03 19:20:03.
