data_PCOD9547620
_publ_section_title
;
Structure prediction by ZEFSAII (Michael W. Deem and Ramdas Pophale) SiO2 
 PCOD9547620
Probable space group: P 41 2 2
;
_chemical_formula_sum "Si O2"
_cell_formula_units_Z 64
_cell_length_a 10.922762
_cell_length_b 10.922762
_cell_length_c 27.010967
_cell_angle_alpha 90.000000
_cell_angle_beta 90.000000
_cell_angle_gamma 90.000000
_cell_volume 3222.590139
_symmetry_space_group_name_H-M "P 41 2 2"
_symmetry_group_IT_number 91
_symmetry_cell_setting 'tetragonal'
loop_
_space_group_symop_operation_xyz
x,y,z
-y,x,1/4+z
-x,-y,1/2+z
y,-x,3/4+z
x,-y,1/2-z
-x,y,-z
y,x,3/4-z
-y,-x,1/4-z
loop_
_atom_site_type_symbol
_atom_site_label
_atom_site_fract_x
_atom_site_fract_y
_atom_site_fract_z
Si Si1 0.707061 0.994548 0.061647
Si Si2 0.142188 0.874720 0.870218
Si Si3 0.736767 0.606629 0.922056
Si Si4 0.789441 0.998614 0.539776
Si Si5 0.057201 0.237669 0.445595
Si Si6 0.134224 0.535641 0.807407
Si Si7 0.658877 0.663205 0.134227
Si Si8 0.721483 0.632629 0.726938
O O1 0.796087 0.991350 0.107240
O O2 0.681533 0.856081 0.039784
O O3 0.580881 0.057428 0.074675
O O4 0.781272 0.047335 0.015788
O O5 0.252919 0.780573 0.862218
O O6 0.073793 0.891097 0.819647
O O7 0.046209 0.815517 0.909203
O O8 0.680435 0.680435 0.875000
O O9 0.880770 0.641008 0.923155
O O10 0.694825 0.468105 0.911374
O O11 0.696553 0.650329 0.977417
O O12 0.833153 0.137344 0.548900
O O13 0.654965 0.955978 0.559259
O O14 0.000000 0.255722 0.500000
O O15 0.162299 0.500000 0.750000
O O16 0.257106 0.561764 0.838617
O O17 0.633390 0.646725 0.075120
O O18 0.745312 0.500000 0.750000
#
# Coordination Sequence:
#
# PCOD9547620 Si02
#       8
#     8   8   8   8   8   8   8   8
#     4  10  19  35  61  93 129 171 216 265 326 403
#     4  10  21  34  56  88 127 166 209 260 323 389
#     4  12  24  39  65 100 131 170 216 283 348 395
#     4  10  18  35  58  92 125 159 214 265 325 381
#     4  12  22  37  60  97 132 160 210 280 338 387
#     4   9  20  38  68  92 127 175 221 261 320 403
#     4  10  23  41  58  94 130 170 213 266 327 405
#     4  11  20  36  60  95 134 160 213 273 342 406
#
# _framework density 19.8598
#
# number of rings (size 3 to 8) (size 9 to 14) (size 15 to 20)
#    0.000    1.500    3.750    3.000    0.000    4.500 
#    0.000    0.000    0.000    7.500    0.000    0.000 
#    0.000    0.000    0.000    0.000    0.000    0.000 
#
# Total GULP energy -356451.801833 kJ/mol
# GULP energy per Si atom -5569.559404 kJ/mol
# Density = 1.981460 g / cm^3
# Si number density = 19.859800 Si / 1000 Ang^3
#
#
#
# Elastic Constant Matrix: (Units=GPa)
#
#
# Indices 1 2 3 4 5 6 
#
# 1 91.0330 45.9105 51.3481 0.0000 0.0000 0.0000
# 2 45.9105 91.0330 51.3481 0.0000 0.0000 0.0000
# 3 51.3481 51.3481 98.3306 0.0000 0.0000 0.0000
# 4 0.0000 0.0000 0.0000 26.6621 0.0000 0.0000
# 5 0.0000 0.0000 0.0000 0.0000 26.6621 0.0000
# 6 0.0000 0.0000 0.0000 0.0000 0.0000 12.9121
#
#
#
# Elastic Compliance Matrix: (Units=1/GPa)
#
#
# Indices 1 2 3 4 5 6 
#
# 1 0.017082 -0.005080 -0.006268 0.000000 0.000000 0.000000
# 2 -0.005080 0.017082 -0.006268 0.000000 0.000000 0.000000
# 3 -0.006268 -0.006268 0.016716 0.000000 0.000000 0.000000
# 4 0.000000 0.000000 0.000000 0.037506 0.000000 0.000000
# 5 0.000000 0.000000 0.000000 0.000000 0.037506 0.000000
# 6 0.000000 0.000000 0.000000 0.000000 0.000000 0.077447
#
#
# Mechanical properties :
#
#
# Convention : Reuss Voigt Hill
#
# Bulk Modulus (GPa) = 63.89778 64.17889 64.03833
# Shear Modulus (GPa) = 20.50971 22.03323 21.27147
#
# Velocity S-wave (km/s) = 3.21709 3.33444 3.27629
# Velocity P-wave (km/s) = 6.78556 6.87101 6.82842
#
# Compressibility (1/GPa) = 0.01565000
#
# Stress axis : x y z
#
# Youngs Moduli (GPa) = 58.54038 58.54038 59.82386
#
# Poissons Ratio (x) = 0.29737 0.37496
# Poissons Ratio (y) = 0.29737 0.37496
# Poissons Ratio (z) = 0.36691 0.36691
#
# Static dielectric constant tensor:
#      x y z
#    x 1.747580 0.000000 0.000000 
#    y 0.000000 1.747580 0.000000 
#    z 0.000000 0.000000 1.793530 
# 
# From -- ./inp_files/17876.got.cif
#   From: 2010.05.17/outbox.cif.g08.bks.cpg/sg91_9_cif.got.tgz:17876.got - 2010.06.03 19:20:03.
