data_PCOD9547129
_publ_section_title
;
Structure prediction by ZEFSAII (Michael W. Deem and Ramdas Pophale) SiO2 
 PCOD9547129
Probable space group: P 4 21 2
;
_chemical_formula_sum "Si O2"
_cell_formula_units_Z 56
_cell_length_a 11.416972
_cell_length_b 11.416972
_cell_length_c 22.298485
_cell_angle_alpha 90.000000
_cell_angle_beta 90.000000
_cell_angle_gamma 90.000000
_cell_volume 2906.546191
_symmetry_space_group_name_H-M "P 4 21 2"
_symmetry_group_IT_number 90
_symmetry_cell_setting 'tetragonal'
loop_
_space_group_symop_operation_xyz
x,y,z
1/2-y,1/2+x,z
-x,-y,z
1/2+y,1/2-x,z
1/2+x,1/2-y,-z
1/2-x,1/2+y,-z
y,x,-z
-y,-x,-z
loop_
_atom_site_type_symbol
_atom_site_label
_atom_site_fract_x
_atom_site_fract_y
_atom_site_fract_z
Si Si1 0.792265 0.699080 0.899093
Si Si2 0.306624 0.044951 0.529448
Si Si3 0.805925 0.458349 0.601463
Si Si4 0.569298 0.386480 0.297238
Si Si5 0.505362 0.358952 0.160529
Si Si6 0.548349 0.191279 0.662884
Si Si7 0.376700 0.138362 0.974372
O O1 0.883926 0.786163 0.866527
O O2 0.715965 0.608853 0.859440
O O3 0.702562 0.775079 0.937666
O O4 0.855033 0.630978 0.953596
O O5 0.416033 0.134765 0.529054
O O6 0.247228 0.056944 0.464630
O O7 0.254059 0.058920 0.595521
O O8 0.866102 0.586669 0.604433
O O9 0.718693 0.442658 0.656099
O O10 0.500000 0.500000 0.320419
O O11 0.518084 0.356474 0.232323
O O12 0.705574 0.421920 0.291998
O O13 0.500000 0.500000 0.143535
O O14 0.418549 0.136636 0.668493
O O15 0.509066 0.160264 0.956653
#
# Coordination Sequence:
#
# PCOD9547129 Si02
#       7
#     8   8   8   8   8   8   8
#     4  11  22  41  66  94 132 176 205 262 322 378
#     4   7  12  29  56  85 113 145 196 256 318 391
#     4   9  19  36  59  85 116 158 202 251 321 392
#     4  11  26  39  58  85 124 160 213 268 300 365
#     4  11  26  44  62  93 131 175 224 260 317 380
#     4   9  19  38  65  87 112 158 208 262 328 381
#     4  10  20  38  65 101 132 159 210 263 311 376
#
# _framework density 19.266853999999999
#
# number of rings (size 3 to 8) (size 9 to 14) (size 15 to 20)
#    0.000    2.286    1.429    2.571    4.000    2.000 
#    0.000    1.429    0.000    1.714    0.000    0.000 
#    0.000    0.000    0.000    0.000    0.000    0.000 
#
# Total GULP energy -311995.097203 kJ/mol
# GULP energy per Si atom -5571.341021 kJ/mol
# Density = 1.922300 g / cm^3
# Si number density = 19.266854 Si / 1000 Ang^3
#
#
#
# Elastic Constant Matrix: (Units=GPa)
#
#
# Indices 1 2 3 4 5 6 
#
# 1 97.4610 33.7126 27.8563 0.0000 0.0000 0.0000
# 2 33.7126 97.4610 27.8563 0.0000 0.0000 0.0000
# 3 27.8563 27.8563 51.9740 0.0000 0.0000 0.0000
# 4 0.0000 0.0000 0.0000 30.0596 0.0000 0.0000
# 5 0.0000 0.0000 0.0000 0.0000 30.0596 0.0000
# 6 0.0000 0.0000 0.0000 0.0000 0.0000 19.5113
#
#
#
# Elastic Compliance Matrix: (Units=1/GPa)
#
#
# Indices 1 2 3 4 5 6 
#
# 1 0.012779 -0.002908 -0.005290 0.000000 0.000000 0.000000
# 2 -0.002908 0.012779 -0.005290 0.000000 0.000000 0.000000
# 3 -0.005290 -0.005290 0.024911 0.000000 0.000000 0.000000
# 4 0.000000 0.000000 0.000000 0.033267 0.000000 0.000000
# 5 0.000000 0.000000 0.000000 0.000000 0.033267 0.000000
# 6 0.000000 0.000000 0.000000 0.000000 0.000000 0.051252
#
#
# Mechanical properties :
#
#
# Convention : Reuss Voigt Hill
#
# Bulk Modulus (GPa) = 42.56929 47.30514 44.93721
# Shear Modulus (GPa) = 24.62297 26.42413 25.52355
#
# Velocity S-wave (km/s) = 3.57879 3.70737 3.64364
# Velocity P-wave (km/s) = 6.26255 6.55225 6.40904
#
# Compressibility (1/GPa) = 0.02349111
#
# Stress axis : x y z
#
# Youngs Moduli (GPa) = 78.25637 78.25637 40.14277
#
# Poissons Ratio (x) = 0.22758 0.21236
# Poissons Ratio (y) = 0.22758 0.21236
# Poissons Ratio (z) = 0.41399 0.41399
#
# Static dielectric constant tensor:
#      x y z
#    x 1.690620 0.000000 0.000000 
#    y 0.000000 1.690620 0.000000 
#    z 0.000000 0.000000 1.687960 
# 
# From -- ./inp_files/2837.got.cif
#   From: 2010.05.17/outbox.cif.g08.bks.cpg/sg90_2_cif.got.tgz:2837.got - 2010.06.03 19:17:45.
