data_PCOD9547767
_publ_section_title
;
Structure prediction by ZEFSAII (Michael W. Deem and Ramdas Pophale) SiO2 
 PCOD9547767
Probable space group: P 41 2 2
;
_chemical_formula_sum "Si O2"
_cell_formula_units_Z 56
_cell_length_a 10.914836
_cell_length_b 10.914836
_cell_length_c 19.849704
_cell_angle_alpha 90.000000
_cell_angle_beta 90.000000
_cell_angle_gamma 90.000000
_cell_volume 2364.767588
_symmetry_space_group_name_H-M "P 41 2 2"
_symmetry_group_IT_number 91
_symmetry_cell_setting 'tetragonal'
loop_
_space_group_symop_operation_xyz
x,y,z
-y,x,1/4+z
-x,-y,1/2+z
y,-x,3/4+z
x,-y,1/2-z
-x,y,-z
y,x,3/4-z
-y,-x,1/4-z
loop_
_atom_site_type_symbol
_atom_site_label
_atom_site_fract_x
_atom_site_fract_y
_atom_site_fract_z
Si Si1 0.586898 0.026925 0.621760
Si Si2 0.257279 0.790406 0.373209
Si Si3 0.747232 0.107204 0.502813
Si Si4 0.663093 0.111115 0.140856
Si Si5 0.622034 0.720011 0.809702
Si Si6 0.835239 0.857766 0.484759
Si Si7 0.497649 0.660519 0.328730
O O1 0.632320 0.054389 0.545376
O O2 0.573573 0.150048 0.664931
O O3 0.689026 0.926559 0.646159
O O4 0.454362 0.970041 0.628134
O O5 0.150866 0.743283 0.324181
O O6 0.208834 0.793272 0.448250
O O7 0.375876 0.706100 0.366731
O O8 0.759044 0.239637 0.537939
O O9 0.851226 0.001125 0.505370
O O10 0.774404 0.072945 0.190693
O O11 0.724058 0.132693 0.068664
O O12 0.600852 0.233326 0.171306
O O13 0.635532 0.635532 0.875000
O O14 0.550767 0.654692 0.748645
O O15 0.555616 0.555616 0.375000
#
# Coordination Sequence:
#
# PCOD9547767 Si02
#       7
#     8   8   8   8   8   8   8
#     4   9  19  38  69 102 132 190 248 306 365 445
#     4   9  20  36  66  95 138 187 242 301 368 447
#     4   9  19  37  65  99 135 187 236 308 366 430
#     4  10  21  39  64  97 139 187 236 294 368 445
#     4   9  19  39  70 101 141 184 257 310 368 444
#     4  10  20  41  63  96 145 178 239 295 365 445
#     4  10  19  37  62  98 139 184 232 304 372 442
#
# _framework density 23.680973999999999
#
# number of rings (size 3 to 8) (size 9 to 14) (size 15 to 20)
#    0.000    2.571    1.429    0.000    0.000   10.286 
#    5.143    2.143   31.429    0.857   22.286    0.000 
#    0.000    0.000    0.000    0.000    0.000    0.000 
#
# Total GULP energy -312391.971167 kJ/mol
# GULP energy per Si atom -5578.428057 kJ/mol
# Density = 2.362707 g / cm^3
# Si number density = 23.680974 Si / 1000 Ang^3
#
#
#
# Elastic Constant Matrix: (Units=GPa)
#
#
# Indices 1 2 3 4 5 6 
#
# 1 106.3256 56.8528 65.8585 0.0000 0.0000 0.0000
# 2 56.8528 106.3256 65.8585 0.0000 0.0000 0.0000
# 3 65.8585 65.8585 180.2876 0.0000 0.0000 0.0000
# 4 0.0000 0.0000 0.0000 29.9196 0.0000 0.0000
# 5 0.0000 0.0000 0.0000 0.0000 29.9196 0.0000
# 6 0.0000 0.0000 0.0000 0.0000 0.0000 23.5882
#
#
#
# Elastic Compliance Matrix: (Units=1/GPa)
#
#
# Indices 1 2 3 4 5 6 
#
# 1 0.014452 -0.005761 -0.003175 0.000000 0.000000 0.000000
# 2 -0.005761 0.014452 -0.003175 0.000000 0.000000 0.000000
# 3 -0.003175 -0.003175 0.007866 0.000000 0.000000 0.000000
# 4 0.000000 0.000000 0.000000 0.033423 0.000000 0.000000
# 5 0.000000 0.000000 0.000000 0.000000 0.033423 0.000000
# 6 0.000000 0.000000 0.000000 0.000000 0.000000 0.042394
#
#
# Mechanical properties :
#
#
# Convention : Reuss Voigt Hill
#
# Bulk Modulus (GPa) = 79.68805 85.56428 82.62617
# Shear Modulus (GPa) = 28.66736 30.31008 29.48872
#
# Velocity S-wave (km/s) = 3.48309 3.58150 3.53264
# Velocity P-wave (km/s) = 7.06397 7.30160 7.18377
#
# Compressibility (1/GPa) = 0.01254893
#
# Stress axis : x y z
#
# Youngs Moduli (GPa) = 69.19443 69.19443 127.12688
#
# Poissons Ratio (x) = 0.39864 0.40360
# Poissons Ratio (y) = 0.39864 0.40360
# Poissons Ratio (z) = 0.21968 0.21968
#
# Static dielectric constant tensor:
#      x y z
#    x 1.955400 0.000000 0.000000 
#    y 0.000000 1.955400 0.000000 
#    z 0.000000 0.000000 1.790690 
# 
# From -- ./inp_files/21527.got.cif
#   From: 2010.05.17/outbox.cif.g08.bks.cpg/sg91_11_cif.got.tgz:21527.got - 2010.06.03 19:20:03.
