data_PCOD9547659
_publ_section_title
;
Structure prediction by ZEFSAII (Michael W. Deem and Ramdas Pophale) SiO2 
 PCOD9547659
Probable space group: P 41 2 2
;
_chemical_formula_sum "Si O2"
_cell_formula_units_Z 56
_cell_length_a 11.319160
_cell_length_b 11.319160
_cell_length_c 20.394047
_cell_angle_alpha 90.000000
_cell_angle_beta 90.000000
_cell_angle_gamma 90.000000
_cell_volume 2612.954297
_symmetry_space_group_name_H-M "P 41 2 2"
_symmetry_group_IT_number 91
_symmetry_cell_setting 'tetragonal'
loop_
_space_group_symop_operation_xyz
x,y,z
-y,x,1/4+z
-x,-y,1/2+z
y,-x,3/4+z
x,-y,1/2-z
-x,y,-z
y,x,3/4-z
-y,-x,1/4-z
loop_
_atom_site_type_symbol
_atom_site_label
_atom_site_fract_x
_atom_site_fract_y
_atom_site_fract_z
Si Si1 0.394705 0.132875 0.276965
Si Si2 0.884153 0.609695 0.620563
Si Si3 0.695663 0.862023 0.417805
Si Si4 0.308658 0.780019 0.358851
Si Si5 0.273778 0.984223 0.453164
Si Si6 0.869557 0.500000 0.750000
Si Si7 0.511195 0.348711 0.071032
Si Si8 0.817834 0.817834 0.875000
O O1 0.527518 0.136200 0.307057
O O2 0.360674 0.213913 0.214383
O O3 0.303780 0.167683 0.334834
O O4 0.375040 0.000000 0.250000
O O5 0.824404 0.737238 0.628182
O O6 0.817272 0.542280 0.681215
O O7 0.024214 0.632761 0.633324
O O8 0.790822 0.790822 0.375000
O O9 0.592893 0.768427 0.435504
O O10 0.757764 0.904614 0.484765
O O11 0.386405 0.692563 0.402163
O O12 0.315796 0.907597 0.391863
O O13 0.387691 0.054476 0.478454
O O14 0.178777 0.077521 0.427973
O O15 0.570300 0.429701 0.125000
O O16 0.500000 0.405827 0.000000
#
# Coordination Sequence:
#
# PCOD9547659 Si02
#       8
#     8   8   8   8   8   4   8   4
#     4  12  24  44  70 101 137 186 239 291 350 439
#     4  11  25  41  71  99 137 184 232 283 362 430
#     4  10  22  44  75 105 131 180 244 300 350 422
#     4  12  25  43  65 105 143 179 231 288 358 427
#     4  11  21  41  71  96 138 182 227 286 353 422
#     4  10  18  44  66  94 118 184 232 262 326 416
#     4  11  24  45  75 102 138 185 241 295 355 421
#     4  12  24  44  68 100 134 182 240 282 352 426
#
# _framework density 21.43168
#
# number of rings (size 3 to 8) (size 9 to 14) (size 15 to 20)
#    0.000    0.857    4.286    4.286    3.000    1.143 
#    3.857    0.000    0.000    0.000    0.000    0.000 
#    0.000    0.000    0.000    0.000    0.000    0.000 
#
# Total GULP energy -312536.752414 kJ/mol
# GULP energy per Si atom -5581.013436 kJ/mol
# Density = 2.138290 g / cm^3
# Si number density = 21.431680 Si / 1000 Ang^3
#
#
#
# Elastic Constant Matrix: (Units=GPa)
#
#
# Indices 1 2 3 4 5 6 
#
# 1 25.9513 25.0312 29.0447 0.0000 0.0000 0.0000
# 2 25.0312 25.9504 29.0455 0.0000 0.0000 0.0000
# 3 29.0447 29.0455 134.3352 0.0000 0.0000 0.0000
# 4 0.0000 0.0000 0.0000 6.9076 0.0000 0.0000
# 5 0.0000 0.0000 0.0000 0.0000 6.9046 0.0000
# 6 0.0000 0.0000 0.0000 0.0000 0.0000 17.4257
#
#
#
# Elastic Compliance Matrix: (Units=1/GPa)
#
#
# Indices 1 2 3 4 5 6 
#
# 1 0.556686 -0.530678 -0.005620 0.000000 0.000000 0.000000
# 2 -0.530678 0.556724 -0.005635 0.000000 0.000000 0.000000
# 3 -0.005620 -0.005635 0.009877 0.000000 0.000000 0.000000
# 4 0.000000 0.000000 0.000000 0.144768 0.000000 0.000000
# 5 0.000000 0.000000 0.000000 0.000000 0.144830 0.000000
# 6 0.000000 0.000000 0.000000 0.000000 0.000000 0.057386
#
#
# Mechanical properties :
#
#
# Convention : Reuss Voigt Hill
#
# Bulk Modulus (GPa) = 25.36689 39.16440 32.26564
# Shear Modulus (GPa) = 1.94759 13.12196 7.53477
#
# Velocity S-wave (km/s) = 0.95431 2.47709 1.87706
# Velocity P-wave (km/s) = 3.61610 5.14733 4.44810
#
# Compressibility (1/GPa) = 0.03942147
#
# Stress axis : x y z
#
# Youngs Moduli (GPa) = 1.79634 1.79622 101.24057
#
# Poissons Ratio (x) = 0.95322 0.56897
# Poissons Ratio (y) = 0.95328 0.57045
# Poissons Ratio (z) = 0.01010 0.01012
#
# Static dielectric constant tensor:
#      x y z
#    x 1.820700 0.000000 0.000000 
#    y 0.000000 1.820700 0.000000 
#    z 0.000000 0.000000 1.845880 
# 
# From -- ./inp_files/21545.got.cif
#   From: 2010.05.17/outbox.cif.g08.bks.cpg/sg91_11_cif.got.tgz:21545.got - 2010.06.03 19:20:03.
