data_PCOD9547953
_publ_section_title
;
Structure prediction by ZEFSAII (Michael W. Deem and Ramdas Pophale) SiO2 
 PCOD9547953
Probable space group: P 41 2 2
;
_chemical_formula_sum "Si O2"
_cell_formula_units_Z 64
_cell_length_a 11.260847
_cell_length_b 11.260847
_cell_length_c 24.123680
_cell_angle_alpha 90.000000
_cell_angle_beta 90.000000
_cell_angle_gamma 90.000000
_cell_volume 3059.043653
_symmetry_space_group_name_H-M "P 41 2 2"
_symmetry_group_IT_number 91
_symmetry_cell_setting 'tetragonal'
loop_
_space_group_symop_operation_xyz
x,y,z
-y,x,1/4+z
-x,-y,1/2+z
y,-x,3/4+z
x,-y,1/2-z
-x,y,-z
y,x,3/4-z
-y,-x,1/4-z
loop_
_atom_site_type_symbol
_atom_site_label
_atom_site_fract_x
_atom_site_fract_y
_atom_site_fract_z
Si Si1 0.267167 0.783720 0.924189
Si Si2 0.687129 0.507571 0.860590
Si Si3 0.520034 0.857016 0.213781
Si Si4 0.578931 0.870222 0.553677
Si Si5 0.776262 0.842447 0.192677
Si Si6 0.680202 0.865322 0.954726
Si Si7 0.933412 0.962336 0.941009
Si Si8 0.423841 0.109928 0.174512
O O1 0.375899 0.692753 0.914162
O O2 0.259250 0.868528 0.871248
O O3 0.140909 0.716024 0.923143
O O4 0.302570 0.847281 0.979984
O O5 0.559884 0.559884 0.875000
O O6 0.758304 0.497301 0.917872
O O7 0.760896 0.602331 0.822818
O O8 0.658967 0.878664 0.224770
O O9 0.465697 0.819296 0.271852
O O10 0.456821 0.975062 0.189640
O O11 0.500000 0.846600 0.500000
O O12 0.700483 0.795263 0.551567
O O13 0.524891 0.852618 0.615068
O O14 0.614778 0.009590 0.554718
O O15 0.902457 0.897251 0.205908
O O16 0.815681 0.880841 0.935037
O O17 0.974404 0.974404 0.875000
O O18 0.000000 0.923438 0.000000
#
# Coordination Sequence:
#
# PCOD9547953 Si02
#       8
#     8   8   8   8   8   8   8   8
#     4  10  21  39  60  90 126 161 203 262 315 371
#     4  11  21  36  60  92 125 163 204 257 316 381
#     4  10  21  39  61  86 118 165 206 247 313 377
#     4  10  20  38  61  89 120 156 206 261 310 372
#     4   9  22  40  60  86 124 160 208 260 312 376
#     4  11  21  37  60  90 125 161 208 254 322 386
#     4  11  24  42  60  90 127 167 209 266 328 385
#     4  10  21  38  61  88 116 158 207 253 302 369
#
# _framework density 20.921572999999999
#
# number of rings (size 3 to 8) (size 9 to 14) (size 15 to 20)
#    0.000    1.750    1.250    3.000    3.500    0.000 
#    9.000    4.375    0.000    0.750    0.000    0.000 
#    0.000    0.000    0.000    0.000    0.000    0.000 
#
# Total GULP energy -356631.756494 kJ/mol
# GULP energy per Si atom -5572.371195 kJ/mol
# Density = 2.087395 g / cm^3
# Si number density = 20.921573 Si / 1000 Ang^3
#
#
#
# Elastic Constant Matrix: (Units=GPa)
#
#
# Indices 1 2 3 4 5 6 
#
# 1 46.3077 11.1708 5.8482 0.0000 0.0000 0.0000
# 2 11.1708 46.3077 5.8482 0.0000 0.0000 0.0000
# 3 5.8482 5.8482 136.8116 0.0000 0.0000 0.0000
# 4 0.0000 0.0000 0.0000 21.0258 0.0000 0.0000
# 5 0.0000 0.0000 0.0000 0.0000 21.0258 0.0000
# 6 0.0000 0.0000 0.0000 0.0000 0.0000 -1.8726
#
#
#
# Elastic Compliance Matrix: (Units=1/GPa)
#
#
# Indices 1 2 3 4 5 6 
#
# 1 0.023005 -0.005455 -0.000750 0.000000 0.000000 0.000000
# 2 -0.005455 0.023005 -0.000750 0.000000 0.000000 0.000000
# 3 -0.000750 -0.000750 0.007373 0.000000 0.000000 0.000000
# 4 0.000000 0.000000 0.000000 0.047561 0.000000 0.000000
# 5 0.000000 0.000000 0.000000 0.000000 0.047561 0.000000
# 6 0.000000 0.000000 0.000000 0.000000 0.000000 -0.534017
#
#
# Mechanical properties :
#
#
# Convention : Reuss Voigt Hill
#
# Bulk Modulus (GPa) = 25.33341 30.57347 27.95344
# Shear Modulus (GPa) = -13.94920 21.80644 3.92862
#
# Velocity S-wave (km/s) = -2.58493 3.23196 1.37181
# Velocity P-wave (km/s) = 1.79608 5.34533 3.98738
#
# Compressibility (1/GPa) = 0.03947357
#
# Stress axis : x y z
#
# Youngs Moduli (GPa) = 43.46826 43.46826 135.62154
#
# Poissons Ratio (x) = 0.23711 0.10175
# Poissons Ratio (y) = 0.23711 0.10175
# Poissons Ratio (z) = 0.03261 0.03261
#
# Static dielectric constant tensor:
#      x y z
#    x 1.781700 0.000000 0.000000 
#    y 0.000000 1.781700 0.000000 
#    z 0.000000 0.000000 1.801940 
# 
# From -- ./inp_files/21881.got.cif
#   From: 2010.05.17/outbox.cif.g08.bks.cpg/sg91_11_cif.got.tgz:21881.got - 2010.06.03 19:20:03.
