data_PCOD9547566
_publ_section_title
;
Structure prediction by ZEFSAII (Michael W. Deem and Ramdas Pophale) SiO2 
 PCOD9547566
Probable space group: P 41 2 2
;
_chemical_formula_sum "Si O2"
_cell_formula_units_Z 48
_cell_length_a 14.907058
_cell_length_b 14.907058
_cell_length_c 11.561881
_cell_angle_alpha 90.000000
_cell_angle_beta 90.000000
_cell_angle_gamma 90.000000
_cell_volume 2569.285569
_symmetry_space_group_name_H-M "P 41 2 2"
_symmetry_group_IT_number 91
_symmetry_cell_setting 'tetragonal'
loop_
_space_group_symop_operation_xyz
x,y,z
-y,x,1/4+z
-x,-y,1/2+z
y,-x,3/4+z
x,-y,1/2-z
-x,y,-z
y,x,3/4-z
-y,-x,1/4-z
loop_
_atom_site_type_symbol
_atom_site_label
_atom_site_fract_x
_atom_site_fract_y
_atom_site_fract_z
Si Si1 0.986144 0.382471 0.679131
Si Si2 0.795421 0.924943 0.659386
Si Si3 0.848099 0.370178 0.892155
Si Si4 0.860853 0.552195 0.028822
Si Si5 0.815837 0.895552 0.258963
Si Si6 0.261629 0.708835 0.990807
O O1 0.929354 0.388186 0.798367
O O2 0.914084 0.396630 0.575814
O O3 0.031970 0.285247 0.665949
O O4 0.069578 0.445543 0.636933
O O5 0.874359 0.896094 0.578234
O O6 0.764383 0.830767 0.716859
O O7 0.819963 0.000000 0.750000
O O8 0.843269 0.454691 0.976898
O O9 0.757581 0.344249 0.823078
O O10 0.861777 0.280801 0.966710
O O11 0.770802 0.609959 0.048817
O O12 0.846115 0.846115 0.375000
O O13 0.804973 0.000000 0.250000
O O14 0.285539 0.714462 0.125000
#
# Coordination Sequence:
#
# PCOD9547566 Si02
#       6
#     8   8   8   8   8   8
#     4  10  18  35  57  87 121 151 210 265 328 386
#     4  10  18  37  58  76 109 164 213 256 301 371
#     4  11  22  37  61  86 126 166 201 273 338 384
#     4  10  20  34  57  93 121 156 212 266 331 406
#     4  11  26  42  57  86 127 171 218 260 315 381
#     4  10  18  31  55  83 117 153 201 260 321 387
#
# _framework density 18.682237000000001
#
# number of rings (size 3 to 8) (size 9 to 14) (size 15 to 20)
#    0.000    1.667    5.000    1.500    2.333    2.000 
#    3.000    0.000    0.000    0.000    0.000    3.500 
#    0.000    0.000    0.000    0.000    0.000    0.000 
#
# Total GULP energy -267446.465222 kJ/mol
# GULP energy per Si atom -5571.801359 kJ/mol
# Density = 1.863971 g / cm^3
# Si number density = 18.682237 Si / 1000 Ang^3
#
#
#
# Elastic Constant Matrix: (Units=GPa)
#
#
# Indices 1 2 3 4 5 6 
#
# 1 54.3733 29.2172 24.9576 0.0000 0.0000 0.0000
# 2 29.2172 54.3732 24.9576 0.0000 0.0000 0.0000
# 3 24.9576 24.9576 72.5620 0.0000 0.0000 0.0000
# 4 0.0000 0.0000 0.0000 54.4425 0.0000 0.0000
# 5 0.0000 0.0000 0.0000 0.0000 54.4442 0.0000
# 6 0.0000 0.0000 0.0000 0.0000 0.0000 19.0590
#
#
#
# Elastic Compliance Matrix: (Units=1/GPa)
#
#
# Indices 1 2 3 4 5 6 
#
# 1 0.027404 -0.012348 -0.005178 0.000000 0.000000 0.000000
# 2 -0.012348 0.027404 -0.005178 0.000000 0.000000 0.000000
# 3 -0.005178 -0.005178 0.017343 0.000000 0.000000 0.000000
# 4 0.000000 0.000000 0.000000 0.018368 0.000000 0.000000
# 5 0.000000 0.000000 0.000000 0.000000 0.018367 0.000000
# 6 0.000000 0.000000 0.000000 0.000000 0.000000 0.052469
#
#
# Mechanical properties :
#
#
# Convention : Reuss Voigt Hill
#
# Bulk Modulus (GPa) = 37.39582 37.73035 37.56309
# Shear Modulus (GPa) = 23.18273 32.40088 27.79180
#
# Velocity S-wave (km/s) = 3.52646 4.16903 3.86113
# Velocity P-wave (km/s) = 6.05322 6.58894 6.32675
#
# Compressibility (1/GPa) = 0.02674095
#
# Stress axis : x y z
#
# Youngs Moduli (GPa) = 36.49163 36.49164 57.65882
#
# Poissons Ratio (x) = 0.45061 0.29857
# Poissons Ratio (y) = 0.45061 0.29857
# Poissons Ratio (z) = 0.18896 0.18896
#
# Static dielectric constant tensor:
#      x y z
#    x 1.614830 0.000000 0.000000 
#    y 0.000000 1.614830 0.000000 
#    z 0.000000 0.000000 1.662850 
# 
# From -- ./inp_files/15881.got.cif
#   From: 2010.05.17/outbox.cif.g08.bks.cpg/sg91_8_cif.got.tgz:15881.got - 2010.06.03 19:20:03.
