data_PCOD9547423
_publ_section_title
;
Structure prediction by ZEFSAII (Michael W. Deem and Ramdas Pophale) SiO2 
 PCOD9547423
Probable space group: P 4 21 2
;
_chemical_formula_sum "Si O2"
_cell_formula_units_Z 40
_cell_length_a 15.967357
_cell_length_b 15.967357
_cell_length_c 7.194337
_cell_angle_alpha 90.000000
_cell_angle_beta 90.000000
_cell_angle_gamma 90.000000
_cell_volume 1834.242906
_symmetry_space_group_name_H-M "P 4 21 2"
_symmetry_group_IT_number 90
_symmetry_cell_setting 'tetragonal'
loop_
_space_group_symop_operation_xyz
x,y,z
1/2-y,1/2+x,z
-x,-y,z
1/2+y,1/2-x,z
1/2+x,1/2-y,-z
1/2-x,1/2+y,-z
y,x,-z
-y,-x,-z
loop_
_atom_site_type_symbol
_atom_site_label
_atom_site_fract_x
_atom_site_fract_y
_atom_site_fract_z
Si Si1 0.901058 0.098942 0.500000
Si Si2 0.328847 0.277618 0.203150
Si Si3 0.781991 0.841301 0.798157
Si Si4 0.877998 0.439083 0.284029
Si Si5 0.402269 0.905132 0.272233
Si Si6 0.596562 0.403439 0.500000
O O1 0.838485 0.118556 0.332096
O O2 0.999042 0.110912 0.460962
O O3 0.235681 0.270839 0.284474
O O4 0.359371 0.181048 0.201625
O O5 0.317718 0.317718 0.000000
O O6 0.712152 0.913272 0.794197
O O7 0.863418 0.857703 0.676027
O O8 0.813153 0.813153 0.000000
O O9 0.892299 0.536093 0.229002
O O10 0.883457 0.416356 0.506488
O O11 0.497849 0.886866 0.215020
#
# Coordination Sequence:
#
# PCOD9547423 Si02
#       6
#     4   8   8   8   8   4
#     4  11  27  48  72 100 137 193 242 290 346 411
#     4  11  25  44  69 106 139 185 236 288 357 423
#     4  11  25  44  69 106 139 185 236 288 357 423
#     4   9  19  38  72 109 140 182 232 293 368 431
#     4   9  19  38  72 109 140 182 232 293 368 431
#     4  11  27  48  72 100 137 193 242 290 346 411
#
# _framework density 21.807362999999999
#
# number of rings (size 3 to 8) (size 9 to 14) (size 15 to 20)
#    0.000    1.800    0.000    4.200   11.200    1.600 
#    7.200    2.000    0.000    9.600    0.000    0.000 
#    0.000    0.000    0.000    0.000    0.000    0.000 
#
# Total GULP energy -223080.354245 kJ/mol
# GULP energy per Si atom -5577.008856 kJ/mol
# Density = 2.175773 g / cm^3
# Si number density = 21.807363 Si / 1000 Ang^3
#
#
#
# Elastic Constant Matrix: (Units=GPa)
#
#
# Indices 1 2 3 4 5 6 
#
# 1 22.8864 45.4864 18.0671 0.0000 0.0000 0.0000
# 2 45.4864 22.8852 18.0658 0.0000 0.0000 0.0000
# 3 18.0671 18.0658 102.2760 0.0000 0.0000 0.0000
# 4 0.0000 0.0000 0.0000 -118.2916 0.0000 0.0000
# 5 0.0000 0.0000 0.0000 0.0000 -118.2209 0.0000
# 6 0.0000 0.0000 0.0000 0.0000 0.0000 35.4232
#
#
#
# Elastic Compliance Matrix: (Units=1/GPa)
#
#
# Indices 1 2 3 4 5 6 
#
# 1 -0.014057 0.030189 -0.002849 0.000000 0.000000 0.000000
# 2 0.030189 -0.014058 -0.002850 0.000000 0.000000 0.000000
# 3 -0.002849 -0.002850 0.010784 0.000000 0.000000 0.000000
# 4 0.000000 0.000000 0.000000 -0.008454 0.000000 0.000000
# 5 0.000000 0.000000 0.000000 0.000000 -0.008459 0.000000
# 6 0.000000 0.000000 0.000000 0.000000 0.000000 0.028230
#
#
# Mechanical properties :
#
#
# Convention : Reuss Voigt Hill
#
# Bulk Modulus (GPa) = 31.59621 34.58737 33.09179
# Shear Modulus (GPa) = -112.50314 -35.78931 -74.14623
#
# Velocity S-wave (km/s) = -7.19038 -4.05551 -5.83732
# Velocity P-wave (km/s) = 7.37666 2.45657 5.49772
#
# Compressibility (1/GPa) = 0.03164937
#
# Stress axis : x y z
#
# Youngs Moduli (GPa) = -71.13816 -71.13556 92.72835
#
# Poissons Ratio (x) = 2.14752 0.26422
# Poissons Ratio (y) = 2.14760 0.26426
# Poissons Ratio (z) = -0.20270 -0.20272
#
# Static dielectric constant tensor:
#      x y z
#    x 1.797740 0.000000 0.000000 
#    y 0.000000 1.797740 0.000000 
#    z 0.000000 0.000000 1.829890 
# 
# From -- ./inp_files/1348.got.cif
#   From: 2010.05.17/outbox.cif.g08.bks.cpg/sg90_1_cif.got.tgz:1348.got - 2010.06.03 19:17:45.
