data_PCOD9547870
_publ_section_title
;
Structure prediction by ZEFSAII (Michael W. Deem and Ramdas Pophale) SiO2 
 PCOD9547870
Probable space group: P 41 2 2
;
_chemical_formula_sum "Si O2"
_cell_formula_units_Z 56
_cell_length_a 12.232391
_cell_length_b 12.232391
_cell_length_c 19.730671
_cell_angle_alpha 90.000000
_cell_angle_beta 90.000000
_cell_angle_gamma 90.000000
_cell_volume 2952.327719
_symmetry_space_group_name_H-M "P 41 2 2"
_symmetry_group_IT_number 91
_symmetry_cell_setting 'tetragonal'
loop_
_space_group_symop_operation_xyz
x,y,z
-y,x,1/4+z
-x,-y,1/2+z
y,-x,3/4+z
x,-y,1/2-z
-x,y,-z
y,x,3/4-z
-y,-x,1/4-z
loop_
_atom_site_type_symbol
_atom_site_label
_atom_site_fract_x
_atom_site_fract_y
_atom_site_fract_z
Si Si1 0.851936 0.527633 0.421482
Si Si2 0.714004 0.285997 0.125000
Si Si3 0.666224 0.423553 0.496421
Si Si4 0.700603 0.000000 0.250000
Si Si5 0.581440 0.213370 0.563266
Si Si6 0.774468 0.209906 0.976094
Si Si7 0.399012 0.969226 0.444935
Si Si8 0.412753 0.665118 0.852023
O O1 0.752748 0.589534 0.382302
O O2 0.788738 0.463081 0.479970
O O3 0.935436 0.618824 0.449481
O O4 0.915041 0.448761 0.371891
O O5 0.766647 0.245056 0.194478
O O6 0.658060 0.314139 0.541759
O O7 0.614034 0.397050 0.422323
O O8 0.609952 0.520070 0.540455
O O9 0.774142 0.095296 0.283899
O O10 0.500000 0.204347 0.500000
O O11 0.500947 0.244236 0.624199
O O12 0.632110 0.094525 0.568938
O O13 0.708819 0.098906 0.963586
O O14 0.716183 0.303964 0.930662
O O15 0.500000 0.961853 0.500000
#
# Coordination Sequence:
#
# PCOD9547870 Si02
#       8
#     8   4   8   4   8   8   8   8
#     4  11  21  38  61  91 121 167 208 261 318 385
#     4  10  20  36  54  90 126 154 198 254 324 374
#     4  11  22  40  60  91 128 166 214 254 320 382
#     4  10  22  38  64  88 128 162 206 262 324 378
#     4   9  22  40  57  86 121 172 208 252 307 378
#     4  11  21  38  61  95 121 161 210 260 319 380
#     4  11  21  37  62  87 122 159 210 256 314 383
#     4  11  21  41  60  88 130 166 211 252 316 383
#
# _framework density 18.968083
#
# number of rings (size 3 to 8) (size 9 to 14) (size 15 to 20)
#    0.000    1.429    5.714    1.286    0.000    0.000 
#    7.714    3.571    0.000    0.857   14.857    0.000 
#    0.000    0.000    0.000    0.000    0.000    0.000 
#
# Total GULP energy -311991.455210 kJ/mol
# GULP energy per Si atom -5571.275986 kJ/mol
# Density = 1.892491 g / cm^3
# Si number density = 18.968083 Si / 1000 Ang^3
#
#
#
# Elastic Constant Matrix: (Units=GPa)
#
#
# Indices 1 2 3 4 5 6 
#
# 1 94.5639 54.2922 19.2266 0.0000 0.0000 0.0000
# 2 54.2922 94.5638 19.2265 0.0000 0.0000 0.0000
# 3 19.2266 19.2265 97.4771 0.0000 0.0000 0.0000
# 4 0.0000 0.0000 0.0000 30.7006 0.0000 0.0000
# 5 0.0000 0.0000 0.0000 0.0000 30.7033 0.0000
# 6 0.0000 0.0000 0.0000 0.0000 0.0000 33.8883
#
#
#
# Elastic Compliance Matrix: (Units=1/GPa)
#
#
# Indices 1 2 3 4 5 6 
#
# 1 0.015955 -0.008876 -0.001396 0.000000 0.000000 0.000000
# 2 -0.008876 0.015955 -0.001396 0.000000 0.000000 0.000000
# 3 -0.001396 -0.001396 0.010810 0.000000 0.000000 0.000000
# 4 0.000000 0.000000 0.000000 0.032573 0.000000 0.000000
# 5 0.000000 0.000000 0.000000 0.000000 0.032570 0.000000
# 6 0.000000 0.000000 0.000000 0.000000 0.000000 0.029509
#
#
# Mechanical properties :
#
#
# Convention : Reuss Voigt Hill
#
# Bulk Modulus (GPa) = 51.59434 52.45505 52.02469
# Shear Modulus (GPa) = 29.90987 31.98241 30.94614
#
# Velocity S-wave (km/s) = 3.97527 4.11069 4.04355
# Velocity P-wave (km/s) = 6.95198 7.08835 7.02050
#
# Compressibility (1/GPa) = 0.01938197
#
# Stress axis : x y z
#
# Youngs Moduli (GPa) = 62.67642 62.67642 92.51042
#
# Poissons Ratio (x) = 0.55634 0.12916
# Poissons Ratio (y) = 0.55634 0.12916
# Poissons Ratio (z) = 0.08751 0.08751
#
# Static dielectric constant tensor:
#      x y z
#    x 1.668920 0.000000 0.000000 
#    y 0.000000 1.668910 0.000000 
#    z 0.000000 0.000000 1.658040 
# 
# From -- ./inp_files/6429.got.cif
#   From: 2010.05.17/outbox.cif.g08.bks.cpg/sg91_4_cif.got.tgz:6429.got - 2010.06.03 19:20:03.
