data_PCOD9547668
_publ_section_title
;
Structure prediction by ZEFSAII (Michael W. Deem and Ramdas Pophale) SiO2 
 PCOD9547668
Probable space group: P 41 2 2
;
_chemical_formula_sum "Si O2"
_cell_formula_units_Z 24
_cell_length_a 12.762436
_cell_length_b 12.762436
_cell_length_c 5.780085
_cell_angle_alpha 90.000000
_cell_angle_beta 90.000000
_cell_angle_gamma 90.000000
_cell_volume 941.458931
_symmetry_space_group_name_H-M "P 41 2 2"
_symmetry_group_IT_number 91
_symmetry_cell_setting 'tetragonal'
loop_
_space_group_symop_operation_xyz
x,y,z
-y,x,1/4+z
-x,-y,1/2+z
y,-x,3/4+z
x,-y,1/2-z
-x,y,-z
y,x,3/4-z
-y,-x,1/4-z
loop_
_atom_site_type_symbol
_atom_site_label
_atom_site_fract_x
_atom_site_fract_y
_atom_site_fract_z
Si Si1 0.286093 0.674988 0.862933
Si Si2 0.910455 0.209104 0.811147
Si Si3 0.573797 0.103526 0.680870
O O1 0.346593 0.653407 0.625000
O O2 0.243329 0.794877 0.851579
O O3 0.333249 0.666752 0.125000
O O4 0.182259 0.605168 0.870447
O O5 0.882568 0.117433 0.625000
O O6 0.937595 0.318754 0.686554
O O7 0.000000 0.183751 0.000000
O O8 0.500000 0.162369 0.500000
O O9 0.512261 0.000000 0.750000
#
# Coordination Sequence:
#
# PCOD9547668 Si02
#       3
#     8   8   8
#     4   9  19  34  52  76 109 156 203 249 313 378
#     4   9  18  32  51  79 111 157 214 274 329 379
#     4  10  19  30  51  85 120 155 200 265 336 399
#
# _framework density 25.492349999999998
#
# number of rings (size 3 to 8) (size 9 to 14) (size 15 to 20)
#    0.000    3.333    0.000    3.000    0.000    2.667 
#    0.000    0.000    0.000    0.000    0.000  478.333 
#    0.000    0.000    0.000 1536.000    0.000  256.000 
#
# Total GULP energy -133831.036959 kJ/mol
# GULP energy per Si atom -5576.293207 kJ/mol
# Density = 2.543433 g / cm^3
# Si number density = 25.492350 Si / 1000 Ang^3
#
#
#
# Elastic Constant Matrix: (Units=GPa)
#
#
# Indices 1 2 3 4 5 6 
#
# 1 73.8261 18.3211 38.5029 0.0000 0.0000 0.0000
# 2 18.3211 73.8272 38.5035 0.0000 0.0000 0.0000
# 3 38.5029 38.5035 191.6677 0.0000 0.0000 0.0000
# 4 0.0000 0.0000 0.0000 40.2476 0.0000 0.0000
# 5 0.0000 0.0000 0.0000 0.0000 40.2475 0.0000
# 6 0.0000 0.0000 0.0000 0.0000 0.0000 15.9791
#
#
#
# Elastic Compliance Matrix: (Units=1/GPa)
#
#
# Indices 1 2 3 4 5 6 
#
# 1 0.015529 -0.002487 -0.002620 0.000000 0.000000 0.000000
# 2 -0.002487 0.015529 -0.002620 0.000000 0.000000 0.000000
# 3 -0.002620 -0.002620 0.006270 0.000000 0.000000 0.000000
# 4 0.000000 0.000000 0.000000 0.024846 0.000000 0.000000
# 5 0.000000 0.000000 0.000000 0.000000 0.024846 0.000000
# 6 0.000000 0.000000 0.000000 0.000000 0.000000 0.062582
#
#
# Mechanical properties :
#
#
# Convention : Reuss Voigt Hill
#
# Bulk Modulus (GPa) = 45.71729 58.88622 52.30175
# Shear Modulus (GPa) = 29.01120 35.56108 32.28614
#
# Velocity S-wave (km/s) = 3.37714 3.73898 3.56266
# Velocity P-wave (km/s) = 5.76016 6.46449 6.12246
#
# Compressibility (1/GPa) = 0.02187356
#
# Stress axis : x y z
#
# Youngs Moduli (GPa) = 64.39577 64.39664 159.49125
#
# Poissons Ratio (x) = 0.16018 0.41784
# Poissons Ratio (y) = 0.16018 0.41784
# Poissons Ratio (z) = 0.16871 0.16871
#
# Static dielectric constant tensor:
#      x y z
#    x 2.039220 0.000000 0.000000 
#    y 0.000000 2.039220 0.000000 
#    z 0.000000 0.000000 2.531850 
# 
# From -- ./inp_files/8191.got.cif
#   From: 2010.05.17/outbox.cif.g08.bks.cpg/sg91_5_cif.got.tgz:8191.got - 2010.06.03 19:20:03.
