data_PCOD9547477
_publ_section_title
;
Structure prediction by ZEFSAII (Michael W. Deem and Ramdas Pophale) SiO2 
 PCOD9547477
Probable space group: P 41 2 2
;
_chemical_formula_sum "Si O2"
_cell_formula_units_Z 48
_cell_length_a 10.790921
_cell_length_b 10.790921
_cell_length_c 20.165081
_cell_angle_alpha 90.000000
_cell_angle_beta 90.000000
_cell_angle_gamma 90.000000
_cell_volume 2348.102209
_symmetry_space_group_name_H-M "P 41 2 2"
_symmetry_group_IT_number 91
_symmetry_cell_setting 'tetragonal'
loop_
_space_group_symop_operation_xyz
x,y,z
-y,x,1/4+z
-x,-y,1/2+z
y,-x,3/4+z
x,-y,1/2-z
-x,y,-z
y,x,3/4-z
-y,-x,1/4-z
loop_
_atom_site_type_symbol
_atom_site_label
_atom_site_fract_x
_atom_site_fract_y
_atom_site_fract_z
Si Si1 0.855467 0.954645 0.006485
Si Si2 0.601099 0.551396 0.677309
Si Si3 0.863265 0.536131 0.879934
Si Si4 0.000000 0.522508 0.000000
Si Si5 0.377861 0.918811 0.468197
Si Si6 0.191605 0.191605 0.375000
Si Si7 0.696537 0.821105 0.667631
O O1 0.828140 0.904859 0.932777
O O2 0.735002 0.042469 0.017185
O O3 0.839426 0.836103 0.055210
O O4 0.000000 0.997543 0.000000
O O5 0.573734 0.500000 0.750000
O O6 0.501234 0.498767 0.625000
O O7 0.737376 0.510826 0.652133
O O8 0.623448 0.696562 0.684102
O O9 0.825799 0.673175 0.905450
O O10 0.962902 0.560266 0.821195
O O11 0.913842 0.459291 0.943520
O O12 0.923835 0.612623 0.047726
O O13 0.500000 0.857418 0.500000
O O14 0.313005 0.839036 0.411003
#
# Coordination Sequence:
#
# PCOD9547477 Si02
#       7
#     8   8   8   4   8   4   8
#     4  11  18  32  58  95 122 162 215 271 325 390
#     4  12  24  38  61  96 128 168 217 280 331 415
#     4  10  17  32  55  86 120 152 200 260 328 383
#     4  10  18  34  56  86 118 160 198 262 318 394
#     4  10  22  36  56  86 128 170 207 267 334 396
#     4  10  16  26  52  86 124 146 186 264 330 364
#     4  11  21  36  59  88 126 161 208 265 340 392
#
# _framework density 20.442041
#
# number of rings (size 3 to 8) (size 9 to 14) (size 15 to 20)
#    0.000    1.333    3.333    6.500    0.000    0.667 
#    0.000    0.000    1.833    0.000   19.500    0.000 
#    0.000    0.000    0.000    0.000    0.000    0.000 
#
# Total GULP energy -267392.760005 kJ/mol
# GULP energy per Si atom -5570.682500 kJ/mol
# Density = 2.039551 g / cm^3
# Si number density = 20.442041 Si / 1000 Ang^3
#
#
#
# Elastic Constant Matrix: (Units=GPa)
#
#
# Indices 1 2 3 4 5 6 
#
# 1 59.9890 24.0244 19.7009 0.0000 0.0000 0.0000
# 2 24.0244 59.9886 19.6982 0.0000 0.0000 0.0000
# 3 19.7009 19.6982 71.9525 0.0000 0.0000 0.0000
# 4 0.0000 0.0000 0.0000 36.1555 0.0000 0.0000
# 5 0.0000 0.0000 0.0000 0.0000 36.1563 0.0000
# 6 0.0000 0.0000 0.0000 0.0000 0.0000 62.2929
#
#
#
# Elastic Compliance Matrix: (Units=1/GPa)
#
#
# Indices 1 2 3 4 5 6 
#
# 1 0.020731 -0.007074 -0.003739 0.000000 0.000000 0.000000
# 2 -0.007074 0.020731 -0.003738 0.000000 0.000000 0.000000
# 3 -0.003739 -0.003738 0.015945 0.000000 0.000000 0.000000
# 4 0.000000 0.000000 0.000000 0.027658 0.000000 0.000000
# 5 0.000000 0.000000 0.000000 0.000000 0.027658 0.000000
# 6 0.000000 0.000000 0.000000 0.000000 0.000000 0.016053
#
#
# Mechanical properties :
#
#
# Convention : Reuss Voigt Hill
#
# Bulk Modulus (GPa) = 35.33271 35.41967 35.37619
# Shear Modulus (GPa) = 29.88379 35.48805 32.68592
#
# Velocity S-wave (km/s) = 3.82760 4.17109 4.00303
# Velocity P-wave (km/s) = 6.07091 6.36882 6.22164
#
# Compressibility (1/GPa) = 0.02830239
#
# Stress axis : x y z
#
# Youngs Moduli (GPa) = 48.23696 48.23794 62.71414
#
# Poissons Ratio (x) = 0.34126 0.23452
# Poissons Ratio (y) = 0.34125 0.23445
# Poissons Ratio (z) = 0.18038 0.18033
#
# Static dielectric constant tensor:
#      x y z
#    x 1.177730 0.000000 0.000000 
#    y 0.000000 1.177660 0.000000 
#    z 0.000000 0.000000 1.759290 
# 
# From -- ./inp_files/5653.got.cif
#   From: 2010.05.17/outbox.cif.g08.bks.cpg/sg91_3_cif.got.tgz:5653.got - 2010.06.03 19:20:03.
