data_PCOD9547241
_publ_section_title
;
Structure prediction by ZEFSAII (Michael W. Deem and Ramdas Pophale) SiO2 
 PCOD9547241
Probable space group: P 4 21 2
;
_chemical_formula_sum "Si O2"
_cell_formula_units_Z 64
_cell_length_a 23.732088
_cell_length_b 23.732088
_cell_length_c 5.153389
_cell_angle_alpha 90.000000
_cell_angle_beta 90.000000
_cell_angle_gamma 90.000000
_cell_volume 2902.450530
_symmetry_space_group_name_H-M "P 4 21 2"
_symmetry_group_IT_number 90
_symmetry_cell_setting 'tetragonal'
loop_
_space_group_symop_operation_xyz
x,y,z
1/2-y,1/2+x,z
-x,-y,z
1/2+y,1/2-x,z
1/2+x,1/2-y,-z
1/2-x,1/2+y,-z
y,x,-z
-y,-x,-z
loop_
_atom_site_type_symbol
_atom_site_label
_atom_site_fract_x
_atom_site_fract_y
_atom_site_fract_z
Si Si1 0.377949 0.106690 0.871880
Si Si2 0.484487 0.391754 0.023218
Si Si3 0.677490 0.846264 0.361039
Si Si4 0.452644 0.757345 0.365547
Si Si5 0.727533 0.550992 0.993819
Si Si6 0.836236 0.513834 0.265353
Si Si7 0.279798 0.332440 0.739930
Si Si8 0.051594 0.137424 0.453815
O O1 0.340749 0.138991 0.654313
O O2 0.441239 0.113712 0.761739
O O3 0.355639 0.042460 0.888186
O O4 0.370472 0.136088 0.151408
O O5 0.447497 0.337582 0.925001
O O6 0.509732 0.381165 0.310339
O O7 0.446510 0.446510 0.000000
O O8 0.532688 0.392119 0.809280
O O9 0.727224 0.889489 0.294167
O O10 0.692139 0.781445 0.327909
O O11 0.490003 0.735067 0.133451
O O12 0.484960 0.812527 0.473204
O O13 0.451559 0.705013 0.563880
O O14 0.731396 0.601744 0.790779
O O15 0.781161 0.550974 0.182065
O O16 0.320672 0.320672 0.500000
O O17 0.305181 0.305181 0.000000
O O18 0.114141 0.114141 0.500000
#
# Coordination Sequence:
#
# PCOD9547241 Si02
#       8
#     8   8   8   8   8   8   8   8
#     4  11  24  39  71  97 133 175 220 273 329 398
#     4  11  24  41  62  93 125 164 213 271 329 394
#     4  11  23  44  64  96 130 178 228 266 339 400
#     4  10  23  41  70  94 128 176 227 276 329 398
#     4  11  22  40  68  92 132 171 229 267 336 408
#     4  11  22  42  67  99 133 175 221 272 334 398
#     4  12  27  42  65 100 141 180 223 287 356 410
#     4  11  24  41  64  92 123 167 216 267 330 394
#
# _framework density 22.050333999999999
#
# number of rings (size 3 to 8) (size 9 to 14) (size 15 to 20)
#    0.000    1.000    3.750    2.625    1.750    4.250 
#    0.000    2.500    0.000    1.500    0.000    0.000 
#    0.000    0.000    0.000    0.000    0.000    0.000 
#
# Total GULP energy -357191.682147 kJ/mol
# GULP energy per Si atom -5581.120034 kJ/mol
# Density = 2.200015 g / cm^3
# Si number density = 22.050334 Si / 1000 Ang^3
#
#
#
# Elastic Constant Matrix: (Units=GPa)
#
#
# Indices 1 2 3 4 5 6 
#
# 1 54.6771 41.4489 14.6160 0.0000 0.0000 0.0000
# 2 41.4489 54.6771 14.6160 0.0000 0.0000 0.0000
# 3 14.6160 14.6160 81.9777 0.0000 0.0000 0.0000
# 4 0.0000 0.0000 0.0000 24.4440 0.0000 0.0000
# 5 0.0000 0.0000 0.0000 0.0000 24.4440 0.0000
# 6 0.0000 0.0000 0.0000 0.0000 0.0000 37.1972
#
#
#
# Elastic Compliance Matrix: (Units=1/GPa)
#
#
# Indices 1 2 3 4 5 6 
#
# 1 0.043298 -0.032298 -0.001961 0.000000 0.000000 0.000000
# 2 -0.032298 0.043298 -0.001961 0.000000 0.000000 0.000000
# 3 -0.001961 -0.001961 0.012898 0.000000 0.000000 0.000000
# 4 0.000000 0.000000 0.000000 0.040910 0.000000 0.000000
# 5 0.000000 0.000000 0.000000 0.000000 0.040910 0.000000
# 6 0.000000 0.000000 0.000000 0.000000 0.000000 0.026884
#
#
# Mechanical properties :
#
#
# Convention : Reuss Voigt Hill
#
# Bulk Modulus (GPa) = 36.96571 36.96595 36.96583
# Shear Modulus (GPa) = 17.26191 25.26043 21.26117
#
# Velocity S-wave (km/s) = 2.80097 3.38831 3.10854
# Velocity P-wave (km/s) = 5.22122 5.66642 5.44837
#
# Compressibility (1/GPa) = 0.02705210
#
# Stress axis : x y z
#
# Youngs Moduli (GPa) = 23.09591 23.09591 77.53296
#
# Poissons Ratio (x) = 0.74596 0.15205
# Poissons Ratio (y) = 0.74596 0.15205
# Poissons Ratio (z) = 0.04529 0.04529
#
# Static dielectric constant tensor:
#      x y z
#    x 1.854340 0.000000 0.000000 
#    y 0.000000 1.854340 0.000000 
#    z 0.000000 0.000000 1.860410 
# 
# From -- ./inp_files/771.got.cif
#   From: 2010.05.17/outbox.cif.g08.bks.cpg/sg90_1_cif.got.tgz:771.got - 2010.06.03 19:17:45.
