data_PCOD9547099
_publ_section_title
;
Structure prediction by ZEFSAII (Michael W. Deem and Ramdas Pophale) SiO2 
 PCOD9547099
Probable space group: P 4 21 2
;
_chemical_formula_sum "Si O2"
_cell_formula_units_Z 60
_cell_length_a 12.208737
_cell_length_b 12.208737
_cell_length_c 20.239855
_cell_angle_alpha 90.000000
_cell_angle_beta 90.000000
_cell_angle_gamma 90.000000
_cell_volume 3016.816352
_symmetry_space_group_name_H-M "P 4 21 2"
_symmetry_group_IT_number 90
_symmetry_cell_setting 'tetragonal'
loop_
_space_group_symop_operation_xyz
x,y,z
1/2-y,1/2+x,z
-x,-y,z
1/2+y,1/2-x,z
1/2+x,1/2-y,-z
1/2-x,1/2+y,-z
y,x,-z
-y,-x,-z
loop_
_atom_site_type_symbol
_atom_site_label
_atom_site_fract_x
_atom_site_fract_y
_atom_site_fract_z
Si Si1 0.242612 0.102435 0.274847
Si Si2 0.478503 0.822121 0.139838
Si Si3 0.873365 0.024090 0.390167
Si Si4 0.351953 0.648048 0.500000
Si Si5 0.145344 0.608324 0.410402
Si Si6 0.836724 0.224045 0.308964
Si Si7 0.089384 0.095173 0.925788
Si Si8 0.015314 0.132935 0.207480
O O1 0.300110 0.032499 0.218075
O O2 0.207546 0.035337 0.338832
O O3 0.305788 0.212934 0.291004
O O4 0.128983 0.146986 0.244673
O O5 0.592368 0.881306 0.123213
O O6 0.460961 0.705623 0.105302
O O7 0.850591 0.966408 0.459717
O O8 0.863358 0.151827 0.374255
O O9 0.000000 0.000000 0.373454
O O10 0.248882 0.653039 0.450965
O O11 0.145567 0.478655 0.424316
O O12 0.159082 0.651016 0.334842
O O13 0.918084 0.189263 0.249404
O O14 0.166674 0.040976 0.868720
O O15 0.125955 0.125955 0.000000
O O16 0.000000 0.000000 0.933305
O O17 0.000000 0.000000 0.207261
#
# Coordination Sequence:
#
# PCOD9547099 Si02
#       8
#     8   8   8   4   8   8   8   8
#     4  11  20  35  59  95 119 164 208 265 334 376
#     4  10  22  39  61  95 139 178 212 264 338 405
#     4  12  23  41  63  92 120 159 216 277 327 400
#     4  12  27  44  64  91 116 172 220 270 345 410
#     4  11  26  45  63  88 128 167 211 274 343 412
#     4  12  21  37  66  92 126 160 216 273 328 392
#     4   9  20  39  63  97 133 178 230 272 315 384
#     4  10  19  37  63  89 132 165 213 267 319 380
#
# _framework density 19.888515999999999
#
# number of rings (size 3 to 8) (size 9 to 14) (size 15 to 20)
#    0.000    1.200    4.000    2.600    5.600    0.000 
#    2.400    0.000    0.000    1.600    0.000    1.867 
#    0.000    0.000    0.000    0.000    0.000    0.000 
#
# Total GULP energy -334365.336828 kJ/mol
# GULP energy per Si atom -5572.755614 kJ/mol
# Density = 1.984325 g / cm^3
# Si number density = 19.888516 Si / 1000 Ang^3
#
#
#
# Elastic Constant Matrix: (Units=GPa)
#
#
# Indices 1 2 3 4 5 6 
#
# 1 88.0254 34.3337 26.5957 0.0000 0.0000 0.0000
# 2 34.3337 88.0254 26.5957 0.0000 0.0000 0.0000
# 3 26.5957 26.5957 104.7023 0.0000 0.0000 0.0000
# 4 0.0000 0.0000 0.0000 94.6500 0.0000 0.0000
# 5 0.0000 0.0000 0.0000 0.0000 94.6449 0.0000
# 6 0.0000 0.0000 0.0000 0.0000 0.0000 22.6170
#
#
#
# Elastic Compliance Matrix: (Units=1/GPa)
#
#
# Indices 1 2 3 4 5 6 
#
# 1 0.013906 -0.004719 -0.002334 0.000000 0.000000 0.000000
# 2 -0.004719 0.013906 -0.002334 0.000000 0.000000 0.000000
# 3 -0.002334 -0.002334 0.010736 0.000000 0.000000 0.000000
# 4 0.000000 0.000000 0.000000 0.010565 0.000000 0.000000
# 5 0.000000 0.000000 0.000000 0.000000 0.010566 0.000000
# 6 0.000000 0.000000 0.000000 0.000000 0.000000 0.044214
#
#
# Mechanical properties :
#
#
# Convention : Reuss Voigt Hill
#
# Bulk Modulus (GPa) = 50.56604 50.64482 50.60543
# Shear Modulus (GPa) = 38.68222 55.26424 46.97323
#
# Velocity S-wave (km/s) = 4.41495 5.27706 4.86514
# Velocity P-wave (km/s) = 7.17419 7.91514 7.55375
#
# Compressibility (1/GPa) = 0.01977612
#
# Stress axis : x y z
#
# Youngs Moduli (GPa) = 71.91142 71.91142 93.14067
#
# Poissons Ratio (x) = 0.33934 0.21736
# Poissons Ratio (y) = 0.33934 0.21736
# Poissons Ratio (z) = 0.16782 0.16782
#
# Static dielectric constant tensor:
#      x y z
#    x 1.734630 0.000000 0.000000 
#    y 0.000000 1.734630 0.000000 
#    z 0.000000 0.000000 1.769910 
# 
# From -- ./inp_files/2852.got.cif
#   From: 2010.05.17/outbox.cif.g08.bks.cpg/sg90_2_cif.got.tgz:2852.got - 2010.06.03 19:17:45.
