data_PCOD9547426
_publ_section_title
;
Structure prediction by ZEFSAII (Michael W. Deem and Ramdas Pophale) SiO2 
 PCOD9547426
Probable space group: P 4 21 2
;
_chemical_formula_sum "Si O2"
_cell_formula_units_Z 34
_cell_length_a 8.458801
_cell_length_b 8.458801
_cell_length_c 20.463825
_cell_angle_alpha 90.000000
_cell_angle_beta 90.000000
_cell_angle_gamma 90.000000
_cell_volume 1464.213576
_symmetry_space_group_name_H-M "P 4 21 2"
_symmetry_group_IT_number 90
_symmetry_cell_setting 'tetragonal'
loop_
_space_group_symop_operation_xyz
x,y,z
1/2-y,1/2+x,z
-x,-y,z
1/2+y,1/2-x,z
1/2+x,1/2-y,-z
1/2-x,1/2+y,-z
y,x,-z
-y,-x,-z
loop_
_atom_site_type_symbol
_atom_site_label
_atom_site_fract_x
_atom_site_fract_y
_atom_site_fract_z
Si Si1 0.000000 0.500000 0.774927
Si Si2 0.276724 0.144620 0.932586
Si Si3 0.339153 0.597787 0.801577
Si Si4 0.738056 0.898232 0.669424
Si Si5 0.578578 0.253274 0.442654
O O1 0.194378 0.490042 0.777459
O O2 0.454745 0.210773 0.929719
O O3 0.177305 0.202691 0.870657
O O4 0.197877 0.197877 0.000000
O O5 0.500000 0.500000 0.810760
O O6 0.378688 0.723955 0.745349
O O7 0.579609 0.800733 0.653320
O O8 0.881527 0.833603 0.626295
O O9 0.401880 0.189680 0.447701
O O10 0.629783 0.370218 0.500000
#
# Coordination Sequence:
#
# PCOD9547426 Si02
#       5
#     2   8   8   8   8
#     4  12  28  44  80 108 148 192 260 302 376 472
#     4  11  27  47  73 108 148 195 250 311 382 459
#     4  12  28  48  76 111 151 198 251 317 388 452
#     4  11  25  45  72 105 147 193 247 312 380 453
#     4  11  26  45  70 104 145 191 249 308 373 451
#
# _framework density 23.220656000000002
#
# number of rings (size 3 to 8) (size 9 to 14) (size 15 to 20)
#    0.000    0.706    0.000    5.647   13.176    6.118 
#    0.000    0.000    0.000    0.000    0.000    0.000 
#    0.000    0.000    0.000    0.000    0.000    0.000 
#
# Total GULP energy -190186.813415 kJ/mol
# GULP energy per Si atom -5593.729806 kJ/mol
# Density = 2.316781 g / cm^3
# Si number density = 23.220656 Si / 1000 Ang^3
#
#
#
# Elastic Constant Matrix: (Units=GPa)
#
#
# Indices 1 2 3 4 5 6 
#
# 1 74.2069 23.1682 1.9309 0.0000 0.0000 0.0000
# 2 23.1682 74.2059 1.9303 0.0000 0.0000 0.0000
# 3 1.9309 1.9303 96.4762 0.0000 0.0000 0.0000
# 4 0.0000 0.0000 0.0000 76.1212 0.0000 0.0000
# 5 0.0000 0.0000 0.0000 0.0000 76.1148 0.0000
# 6 0.0000 0.0000 0.0000 0.0000 0.0000 107.6254
#
#
#
# Elastic Compliance Matrix: (Units=1/GPa)
#
#
# Indices 1 2 3 4 5 6 
#
# 1 0.014935 -0.004658 -0.000206 0.000000 0.000000 0.000000
# 2 -0.004658 0.014936 -0.000206 0.000000 0.000000 0.000000
# 3 -0.000206 -0.000206 0.010373 0.000000 0.000000 0.000000
# 4 0.000000 0.000000 0.000000 0.013137 0.000000 0.000000
# 5 0.000000 0.000000 0.000000 0.000000 0.013138 0.000000
# 6 0.000000 0.000000 0.000000 0.000000 0.000000 0.009291
#
#
# Mechanical properties :
#
#
# Convention : Reuss Voigt Hill
#
# Bulk Modulus (GPa) = 33.21556 33.21640 33.21598
# Shear Modulus (GPa) = 52.09181 66.49627 59.29404
#
# Velocity S-wave (km/s) = 4.74153 5.35713 5.05870
# Velocity P-wave (km/s) = 6.65669 7.25265 6.96105
#
# Compressibility (1/GPa) = 0.03010637
#
# Stress axis : x y z
#
# Youngs Moduli (GPa) = 66.95513 66.95431 96.39970
#
# Poissons Ratio (x) = 0.31185 0.01983
# Poissons Ratio (y) = 0.31186 0.01982
# Poissons Ratio (z) = 0.01377 0.01377
#
# Static dielectric constant tensor:
#      x y z
#    x 1.856690 0.000000 0.000000 
#    y 0.000000 1.856690 0.000000 
#    z 0.000000 0.000000 1.834270 
# 
# From -- ./inp_files/2735.got.cif
#   From: 2010.05.17/outbox.cif.g08.bks.cpg/sg90_2_cif.got.tgz:2735.got - 2010.06.03 19:17:45.
