data_PCOD9547300
_publ_section_title
;
Structure prediction by ZEFSAII (Michael W. Deem and Ramdas Pophale) SiO2 
 PCOD9547300
Probable space group: P 4 21 2
;
_chemical_formula_sum "Si O2"
_cell_formula_units_Z 60
_cell_length_a 12.034653
_cell_length_b 12.034653
_cell_length_c 20.891866
_cell_angle_alpha 90.000000
_cell_angle_beta 90.000000
_cell_angle_gamma 90.000000
_cell_volume 3025.828972
_symmetry_space_group_name_H-M "P 4 21 2"
_symmetry_group_IT_number 90
_symmetry_cell_setting 'tetragonal'
loop_
_space_group_symop_operation_xyz
x,y,z
1/2-y,1/2+x,z
-x,-y,z
1/2+y,1/2-x,z
1/2+x,1/2-y,-z
1/2-x,1/2+y,-z
y,x,-z
-y,-x,-z
loop_
_atom_site_type_symbol
_atom_site_label
_atom_site_fract_x
_atom_site_fract_y
_atom_site_fract_z
Si Si1 0.330267 0.941479 0.373495
Si Si2 0.835259 0.413105 0.109483
Si Si3 0.593714 0.161439 0.035662
Si Si4 0.254346 0.677555 0.831679
Si Si5 0.418590 0.669737 0.570508
Si Si6 0.274184 0.328880 0.429677
Si Si7 0.947756 0.215811 0.756691
Si Si8 0.500000 0.500000 0.677267
O O1 0.433885 0.863104 0.393542
O O2 0.218273 0.886335 0.398606
O O3 0.310615 0.944004 0.297972
O O4 0.855518 0.544201 0.115680
O O5 0.752090 0.363719 0.161101
O O6 0.796492 0.387523 0.036553
O O7 0.461390 0.145889 0.040281
O O8 0.638159 0.225358 0.096662
O O9 0.273948 0.566702 0.790946
O O10 0.154270 0.752433 0.803084
O O11 0.384710 0.615291 0.500000
O O12 0.332029 0.762543 0.595532
O O13 0.539438 0.726781 0.565376
O O14 0.435886 0.582281 0.628166
O O15 0.282584 0.282584 0.500000
O O16 0.943926 0.094384 0.722635
#
# Coordination Sequence:
#
# PCOD9547300 Si02
#       8
#     8   8   8   8   8   8   8   4
#     4  11  23  43  65  94 132 171 218 271 326 386
#     4   9  21  41  65  88 119 170 219 264 321 392
#     4   9  17  35  63  93 124 161 210 268 327 388
#     4  12  23  39  61  93 133 165 213 264 330 382
#     4  11  25  45  73  99 132 174 217 279 336 399
#     4  11  25  42  68 101 130 171 220 266 337 394
#     4  12  26  38  64  94 129 175 211 267 319 394
#     4  12  25  44  64  92 137 170 228 260 334 394
#
# _framework density 19.829277000000001
#
# number of rings (size 3 to 8) (size 9 to 14) (size 15 to 20)
#    0.000    1.200    4.000    3.000    5.600    0.533 
#    0.000    0.000    0.000    0.000    0.000    0.000 
#    0.000    0.000    0.000    0.000    0.000    0.000 
#
# Total GULP energy -334651.995302 kJ/mol
# GULP energy per Si atom -5577.533255 kJ/mol
# Density = 1.978414 g / cm^3
# Si number density = 19.829277 Si / 1000 Ang^3
#
#
#
# Elastic Constant Matrix: (Units=GPa)
#
#
# Indices 1 2 3 4 5 6 
#
# 1 17.5684 99.3508 25.2759 0.0000 0.0000 0.0000
# 2 99.3508 17.5654 25.2755 0.0000 0.0000 0.0000
# 3 25.2759 25.2755 59.4285 0.0000 0.0000 0.0000
# 4 0.0000 0.0000 0.0000 30.6211 0.0000 0.0000
# 5 0.0000 0.0000 0.0000 0.0000 30.6211 0.0000
# 6 0.0000 0.0000 0.0000 0.0000 0.0000 37.2434
#
#
#
# Elastic Compliance Matrix: (Units=1/GPa)
#
#
# Indices 1 2 3 4 5 6 
#
# 1 -0.000873 0.011354 -0.004457 0.000000 0.000000 0.000000
# 2 0.011354 -0.000874 -0.004457 0.000000 0.000000 0.000000
# 3 -0.004457 -0.004457 0.020619 0.000000 0.000000 0.000000
# 4 0.000000 0.000000 0.000000 0.032657 0.000000 0.000000
# 5 0.000000 0.000000 0.000000 0.000000 0.032657 0.000000
# 6 0.000000 0.000000 0.000000 0.000000 0.000000 0.026850
#
#
# Mechanical properties :
#
#
# Convention : Reuss Voigt Hill
#
# Bulk Modulus (GPa) = 42.10620 43.81852 42.96236
# Shear Modulus (GPa) = 43.83090 16.00778 29.91934
#
# Velocity S-wave (km/s) = 4.70660 2.84435 3.88860
# Velocity P-wave (km/s) = 7.12858 5.73872 6.47107
#
# Compressibility (1/GPa) = 0.02374947
#
# Stress axis : x y z
#
# Youngs Moduli (GPa) = -1144.97876 -1144.53622 48.50011
#
# Poissons Ratio (x) = 12.99484 0.21619
# Poissons Ratio (y) = 12.99986 0.21618
# Poissons Ratio (z) = -5.10366 -5.10160
#
# Static dielectric constant tensor:
#      x y z
#    x 1.746020 0.000000 0.000000 
#    y 0.000000 1.746020 0.000000 
#    z 0.000000 0.000000 1.709310 
# 
# From -- ./inp_files/2858.got.cif
#   From: 2010.05.17/outbox.cif.g08.bks.cpg/sg90_2_cif.got.tgz:2858.got - 2010.06.03 19:17:45.
