data_PCOD9547379
_publ_section_title
;
Structure prediction by ZEFSAII (Michael W. Deem and Ramdas Pophale) SiO2 
 PCOD9547379
Probable space group: P 4 21 2
;
_chemical_formula_sum "Si O2"
_cell_formula_units_Z 26
_cell_length_a 8.203631
_cell_length_b 8.203631
_cell_length_c 17.480453
_cell_angle_alpha 90.000000
_cell_angle_beta 90.000000
_cell_angle_gamma 90.000000
_cell_volume 1176.426823
_symmetry_space_group_name_H-M "P 4 21 2"
_symmetry_group_IT_number 90
_symmetry_cell_setting 'tetragonal'
loop_
_space_group_symop_operation_xyz
x,y,z
1/2-y,1/2+x,z
-x,-y,z
1/2+y,1/2-x,z
1/2+x,1/2-y,-z
1/2-x,1/2+y,-z
y,x,-z
-y,-x,-z
loop_
_atom_site_type_symbol
_atom_site_label
_atom_site_fract_x
_atom_site_fract_y
_atom_site_fract_z
Si Si1 0.763666 0.079372 0.722750
Si Si2 0.589514 0.738854 0.424999
Si Si3 0.000000 0.000000 0.000000
Si Si4 0.445815 0.266721 0.140802
O O1 0.603438 0.195039 0.721301
O O2 0.866724 0.133658 0.649254
O O3 0.871042 0.108794 0.797968
O O4 0.403627 0.800536 0.424704
O O5 0.637968 0.637968 0.500000
O O6 0.850727 0.029149 0.058572
O O7 0.619748 0.182354 0.151472
#
# Coordination Sequence:
#
# PCOD9547379 Si02
#       4
#     8   8   2   8
#     4  11  24  42  66  98 136 180 231 286 347 416
#     4  11  24  41  63  95 135 181 235 292 349 410
#     4  12  24  44  68  96 130 168 212 272 336 408
#     4  11  24  42  66  96 130 171 219 273 338 411
#
# _framework density 22.100821
#
# number of rings (size 3 to 8) (size 9 to 14) (size 15 to 20)
#    0.000    0.923    0.000    6.462    0.000   11.692 
#    0.000    3.077    0.000    0.000    0.000    0.000 
#    0.000    0.000    0.000    0.000    0.000    0.000 
#
# Total GULP energy -145412.005203 kJ/mol
# GULP energy per Si atom -5592.769431 kJ/mol
# Density = 2.205052 g / cm^3
# Si number density = 22.100821 Si / 1000 Ang^3
#
#
#
# Elastic Constant Matrix: (Units=GPa)
#
#
# Indices 1 2 3 4 5 6 
#
# 1 134.9189 38.6577 44.3852 0.0000 0.0000 0.0000
# 2 38.6577 134.9189 44.3852 0.0000 0.0000 0.0000
# 3 44.3852 44.3852 121.0983 0.0000 0.0000 0.0000
# 4 0.0000 0.0000 0.0000 52.5845 0.0000 0.0000
# 5 0.0000 0.0000 0.0000 0.0000 52.5845 0.0000
# 6 0.0000 0.0000 0.0000 0.0000 0.0000 47.2913
#
#
#
# Elastic Compliance Matrix: (Units=1/GPa)
#
#
# Indices 1 2 3 4 5 6 
#
# 1 0.008739 -0.001649 -0.002599 0.000000 0.000000 0.000000
# 2 -0.001649 0.008739 -0.002599 0.000000 0.000000 0.000000
# 3 -0.002599 -0.002599 0.010163 0.000000 0.000000 0.000000
# 4 0.000000 0.000000 0.000000 0.019017 0.000000 0.000000
# 5 0.000000 0.000000 0.000000 0.000000 0.019017 0.000000
# 6 0.000000 0.000000 0.000000 0.000000 0.000000 0.021146
#
#
# Mechanical properties :
#
#
# Convention : Reuss Voigt Hill
#
# Bulk Modulus (GPa) = 71.69359 71.75469 71.72414
# Shear Modulus (GPa) = 47.54513 48.05929 47.80221
#
# Velocity S-wave (km/s) = 4.64322 4.66826 4.65576
# Velocity P-wave (km/s) = 7.82661 7.84821 7.83742
#
# Compressibility (1/GPa) = 0.01394825
#
# Stress axis : x y z
#
# Youngs Moduli (GPa) = 114.42587 114.42587 98.39887
#
# Poissons Ratio (x) = 0.18870 0.25571
# Poissons Ratio (y) = 0.18870 0.25571
# Poissons Ratio (z) = 0.29736 0.29736
#
# Static dielectric constant tensor:
#      x y z
#    x 1.928980 0.000000 0.000000 
#    y 0.000000 1.928980 0.000000 
#    z 0.000000 0.000000 1.756930 
# 
# From -- ./inp_files/2600.got.cif
#   From: 2010.05.17/outbox.cif.g08.bks.cpg/sg90_2_cif.got.tgz:2600.got - 2010.06.03 19:17:45.
