data_PCOD9547146
_publ_section_title
;
Structure prediction by ZEFSAII (Michael W. Deem and Ramdas Pophale) SiO2 
 PCOD9547146
Probable space group: P 4 21 2
;
_chemical_formula_sum "Si O2"
_cell_formula_units_Z 38
_cell_length_a 19.845245
_cell_length_b 19.845245
_cell_length_c 4.894156
_cell_angle_alpha 90.000000
_cell_angle_beta 90.000000
_cell_angle_gamma 90.000000
_cell_volume 1927.483806
_symmetry_space_group_name_H-M "P 4 21 2"
_symmetry_group_IT_number 90
_symmetry_cell_setting 'tetragonal'
loop_
_space_group_symop_operation_xyz
x,y,z
1/2-y,1/2+x,z
-x,-y,z
1/2+y,1/2-x,z
1/2+x,1/2-y,-z
1/2-x,1/2+y,-z
y,x,-z
-y,-x,-z
loop_
_atom_site_type_symbol
_atom_site_label
_atom_site_fract_x
_atom_site_fract_y
_atom_site_fract_z
Si Si1 0.000000 0.000000 0.500000
Si Si2 0.433344 0.433344 0.000000
Si Si3 0.166345 0.616975 0.610799
Si Si4 0.290145 0.487741 0.012721
Si Si5 0.636834 0.257562 0.890144
Si Si6 0.300305 0.967862 0.493391
O O1 0.017264 0.944103 0.735272
O O2 0.357305 0.447927 0.085459
O O3 0.193060 0.626915 0.915765
O O4 0.159450 0.537505 0.549554
O O5 0.098130 0.657120 0.566395
O O6 0.227123 0.642122 0.412451
O O7 0.299267 0.567260 0.074746
O O8 0.264475 0.475443 0.706177
O O9 0.228408 0.465403 0.202488
O O10 0.698068 0.301933 0.000000
#
# Coordination Sequence:
#
# PCOD9547146 Si02
#       6
#     2   4   8   8   8   8
#     4  10  24  34  60  82 112 142 216 238 268 350
#     4  11  22  42  54  92 114 162 194 250 282 345
#     4  10  21  39  61  85 119 145 199 236 299 339
#     4  10  22  39  60  82 124 152 195 242 299 326
#     4  10  21  38  57  86 112 157 192 237 282 347
#     4  10  21  40  60  87 116 157 186 253 287 358
#
# _framework density 19.714824
#
# number of rings (size 3 to 8) (size 9 to 14) (size 15 to 20)
#    0.000    1.895    0.000    3.158    2.947    0.421 
#   11.368    0.000    0.000    7.579    0.000    0.000 
#    0.000    0.000    0.000    0.000    0.000    0.000 
#
# Total GULP energy -211850.426596 kJ/mol
# GULP energy per Si atom -5575.011226 kJ/mol
# Density = 1.966995 g / cm^3
# Si number density = 19.714824 Si / 1000 Ang^3
#
#
#
# Elastic Constant Matrix: (Units=GPa)
#
#
# Indices 1 2 3 4 5 6 
#
# 1 58.9175 44.2473 -14.7470 0.0000 0.0000 0.0000
# 2 44.2473 58.9219 -14.7464 0.0000 0.0000 0.0000
# 3 -14.7470 -14.7464 65.9899 0.0000 0.0000 0.0000
# 4 0.0000 0.0000 0.0000 15.9005 0.0000 0.0000
# 5 0.0000 0.0000 0.0000 0.0000 15.9006 0.0000
# 6 0.0000 0.0000 0.0000 0.0000 0.0000 34.1344
#
#
#
# Elastic Compliance Matrix: (Units=1/GPa)
#
#
# Indices 1 2 3 4 5 6 
#
# 1 0.039256 -0.028900 0.002315 0.000000 0.000000 0.000000
# 2 -0.028900 0.039253 0.002313 0.000000 0.000000 0.000000
# 3 0.002315 0.002313 0.016188 0.000000 0.000000 0.000000
# 4 0.000000 0.000000 0.000000 0.062891 0.000000 0.000000
# 5 0.000000 0.000000 0.000000 0.000000 0.062891 0.000000
# 6 0.000000 0.000000 0.000000 0.000000 0.000000 0.029296
#
#
# Mechanical properties :
#
#
# Convention : Reuss Voigt Hill
#
# Bulk Modulus (GPa) = 21.66718 23.70411 22.68564
# Shear Modulus (GPa) = 15.93857 24.45878 20.19867
#
# Velocity S-wave (km/s) = 2.84642 3.52608 3.20432
# Velocity P-wave (km/s) = 4.67086 5.35044 5.02216
#
# Compressibility (1/GPa) = 0.04615276
#
# Stress axis : x y z
#
# Youngs Moduli (GPa) = 25.47356 25.47570 61.77407
#
# Poissons Ratio (x) = 0.73625 -0.14298
# Poissons Ratio (y) = 0.73619 -0.14290
# Poissons Ratio (z) = -0.05896 -0.05893
#
# Static dielectric constant tensor:
#      x y z
#    x 1.668480 0.000000 0.000000 
#    y 0.000000 1.668480 0.000000 
#    z 0.000000 0.000000 1.708440 
# 
# From -- ./inp_files/467.got.cif
#   From: 2010.05.17/outbox.cif.g08.bks.cpg/sg90_1_cif.got.tgz:467.got - 2010.06.03 19:17:45.
