data_PCOD9547304
_publ_section_title
;
Structure prediction by ZEFSAII (Michael W. Deem and Ramdas Pophale) SiO2 
 PCOD9547304
Probable space group: P 4 21 2
;
_chemical_formula_sum "Si O2"
_cell_formula_units_Z 50
_cell_length_a 8.408865
_cell_length_b 8.408865
_cell_length_c 32.162491
_cell_angle_alpha 90.000000
_cell_angle_beta 90.000000
_cell_angle_gamma 90.000000
_cell_volume 2274.177917
_symmetry_space_group_name_H-M "P 4 21 2"
_symmetry_group_IT_number 90
_symmetry_cell_setting 'tetragonal'
loop_
_space_group_symop_operation_xyz
x,y,z
1/2-y,1/2+x,z
-x,-y,z
1/2+y,1/2-x,z
1/2+x,1/2-y,-z
1/2-x,1/2+y,-z
y,x,-z
-y,-x,-z
loop_
_atom_site_type_symbol
_atom_site_label
_atom_site_fract_x
_atom_site_fract_y
_atom_site_fract_z
Si Si1 0.413060 0.668972 0.455288
Si Si2 0.248688 0.090115 0.714614
Si Si3 0.000000 0.500000 0.540653
Si Si4 0.584293 0.254920 0.961602
Si Si5 0.381606 0.756717 0.365234
Si Si6 0.593707 0.252274 0.114945
Si Si7 0.247790 0.090786 0.209192
O O1 0.500000 0.500000 0.454509
O O2 0.327507 0.672494 0.500000
O O3 0.540548 0.811922 0.456905
O O4 0.335473 0.680185 0.409472
O O5 0.408795 0.196181 0.715369
O O6 0.160756 0.143460 0.672777
O O7 0.144672 0.130991 0.754846
O O8 0.404066 0.193601 0.963493
O O9 0.625257 0.347155 0.919305
O O10 0.635208 0.364793 0.000000
O O11 0.570275 0.797034 0.363122
O O12 0.410854 0.196136 0.110031
O O13 0.614331 0.312429 0.162142
O O14 0.409056 0.195036 0.213421
#
# Coordination Sequence:
#
# PCOD9547304 Si02
#       7
#     8   8   2   8   8   8   8
#     4  11  26  45  74 106 136 182 228 278 344 405
#     4  11  26  42  57  90 132 172 216 270 329 389
#     4  12  24  52  64 104 148 172 232 284 332 408
#     4  11  24  39  56  83 119 158 202 252 310 372
#     4  11  23  44  70  97 128 169 216 270 328 391
#     4   9  19  37  62  90 119 152 200 258 315 380
#     4   9  19  39  65  91 118 158 210 262 318 385
#
# _framework density 21.985969000000001
#
# number of rings (size 3 to 8) (size 9 to 14) (size 15 to 20)
#    0.000    1.600    1.600    2.880    4.480    8.000 
#    0.000    4.800    0.000    0.000    0.000    0.000 
#    0.000    0.000    0.000    0.000    0.000    0.000 
#
# Total GULP energy -279128.844419 kJ/mol
# GULP energy per Si atom -5582.576888 kJ/mol
# Density = 2.193593 g / cm^3
# Si number density = 21.985969 Si / 1000 Ang^3
#
#
#
# Elastic Constant Matrix: (Units=GPa)
#
#
# Indices 1 2 3 4 5 6 
#
# 1 65.4371 28.2723 47.8901 0.0000 0.0000 0.0000
# 2 28.2723 65.4365 47.8897 0.0000 0.0000 0.0000
# 3 47.8901 47.8897 172.2987 0.0000 0.0000 0.0000
# 4 0.0000 0.0000 0.0000 -6.3874 0.0000 0.0000
# 5 0.0000 0.0000 0.0000 0.0000 -6.3875 0.0000
# 6 0.0000 0.0000 0.0000 0.0000 0.0000 22.1197
#
#
#
# Elastic Compliance Matrix: (Units=1/GPa)
#
#
# Indices 1 2 3 4 5 6 
#
# 1 0.020907 -0.006001 -0.004143 0.000000 0.000000 0.000000
# 2 -0.006001 0.020907 -0.004143 0.000000 0.000000 0.000000
# 3 -0.004143 -0.004143 0.008107 0.000000 0.000000 0.000000
# 4 0.000000 0.000000 0.000000 -0.156558 0.000000 0.000000
# 5 0.000000 0.000000 0.000000 0.000000 -0.156556 0.000000
# 6 0.000000 0.000000 0.000000 0.000000 0.000000 0.045209
#
#
# Mechanical properties :
#
#
# Convention : Reuss Voigt Hill
#
# Bulk Modulus (GPa) = 46.84587 61.25295 54.04941
# Shear Modulus (GPa) = -27.42787 13.81031 -6.80878
#
# Velocity S-wave (km/s) = -3.53585 2.50899 -1.76170
# Velocity P-wave (km/s) = 2.16420 6.02610 4.52756
#
# Compressibility (1/GPa) = 0.02134660
#
# Stress axis : x y z
#
# Youngs Moduli (GPa) = 47.83173 47.83146 123.35051
#
# Poissons Ratio (x) = 0.28702 0.51105
# Poissons Ratio (y) = 0.28703 0.51105
# Poissons Ratio (z) = 0.19817 0.19817
#
# Static dielectric constant tensor:
#      x y z
#    x 1.804850 0.000000 0.000000 
#    y 0.000000 1.804850 0.000000 
#    z 0.000000 0.000000 1.799740 
# 
# From -- ./inp_files/3086.got.cif
#   From: 2010.05.17/outbox.cif.g08.bks.cpg/sg90_2_cif.got.tgz:3086.got - 2010.06.03 19:17:45.
