data_PCOD9547830
_publ_section_title
;
Structure prediction by ZEFSAII (Michael W. Deem and Ramdas Pophale) SiO2 
 PCOD9547830
Probable space group: P 41 2 2
;
_chemical_formula_sum "Si O2"
_cell_formula_units_Z 44
_cell_length_a 6.993116
_cell_length_b 6.993116
_cell_length_c 30.867932
_cell_angle_alpha 90.000000
_cell_angle_beta 90.000000
_cell_angle_gamma 90.000000
_cell_volume 1509.555203
_symmetry_space_group_name_H-M "P 41 2 2"
_symmetry_group_IT_number 91
_symmetry_cell_setting 'tetragonal'
loop_
_space_group_symop_operation_xyz
x,y,z
-y,x,1/4+z
-x,-y,1/2+z
y,-x,3/4+z
x,-y,1/2-z
-x,y,-z
y,x,3/4-z
-y,-x,1/4-z
loop_
_atom_site_type_symbol
_atom_site_label
_atom_site_fract_x
_atom_site_fract_y
_atom_site_fract_z
Si Si1 0.144404 0.144404 0.375000
Si Si2 0.290390 0.326405 0.921010
Si Si3 0.877912 0.335883 0.807630
Si Si4 0.233082 0.068736 0.468181
Si Si5 0.579045 0.140532 0.353153
Si Si6 0.778303 0.618847 0.511166
O O1 0.367934 0.106572 0.369935
O O2 0.070944 0.105919 0.325782
O O3 0.382256 0.382256 0.875000
O O4 0.330901 0.104292 0.930590
O O5 0.062960 0.338917 0.912111
O O6 0.330930 0.430559 0.966650
O O7 0.836396 0.202195 0.765902
O O8 0.852549 0.556783 0.793797
O O9 0.786159 0.301375 0.855159
O O10 0.242149 0.846681 0.481361
O O11 0.550164 0.263096 0.309688
O O12 0.000000 0.576061 0.500000
#
# Coordination Sequence:
#
# PCOD9547830 Si02
#       6
#     4   8   8   8   8   8
#     4  10  20  34  52  76 114 152 174 224 296 348
#     4   8  14  28  53  80  95 131 188 234 269 325
#     4   8  15  30  56  73  97 144 191 221 270 344
#     4   9  17  32  51  78 105 141 183 229 281 336
#     4   9  17  31  54  73 107 144 178 221 285 338
#     4   9  17  31  51  76 104 142 181 230 279 321
#
# _framework density 29.147662
#
# number of rings (size 3 to 8) (size 9 to 14) (size 15 to 20)
#    0.000    3.273    0.000    0.000    0.000    0.000 
#   16.364    2.727   26.000   15.273    0.000    0.000 
#    0.000    0.000    0.000    0.000    0.000    0.000 
#
# Total GULP energy -245823.697273 kJ/mol
# GULP energy per Si atom -5586.902211 kJ/mol
# Density = 2.908132 g / cm^3
# Si number density = 29.147662 Si / 1000 Ang^3
#
#
#
# Elastic Constant Matrix: (Units=GPa)
#
#
# Indices 1 2 3 4 5 6 
#
# 1 88.4012 28.7433 36.3410 0.0000 0.0000 0.0000
# 2 28.7433 88.4012 36.3410 0.0000 0.0000 0.0000
# 3 36.3410 36.3410 403.3112 0.0000 0.0000 0.0000
# 4 0.0000 0.0000 0.0000 18.1706 0.0000 0.0000
# 5 0.0000 0.0000 0.0000 0.0000 18.1706 0.0000
# 6 0.0000 0.0000 0.0000 0.0000 0.0000 7.9490
#
#
#
# Elastic Compliance Matrix: (Units=1/GPa)
#
#
# Indices 1 2 3 4 5 6 
#
# 1 0.012902 -0.003860 -0.000815 0.000000 0.000000 0.000000
# 2 -0.003860 0.012902 -0.000815 0.000000 0.000000 0.000000
# 3 -0.000815 -0.000815 0.002626 0.000000 0.000000 0.000000
# 4 0.000000 0.000000 0.000000 0.055034 0.000000 0.000000
# 5 0.000000 0.000000 0.000000 0.000000 0.055034 0.000000
# 6 0.000000 0.000000 0.000000 0.000000 0.000000 0.125802
#
#
# Mechanical properties :
#
#
# Convention : Reuss Voigt Hill
#
# Bulk Modulus (GPa) = 57.30238 86.99600 72.14919
# Shear Modulus (GPa) = 17.78744 40.77058 29.27901
#
# Velocity S-wave (km/s) = 2.47301 3.74406 3.17283
# Velocity P-wave (km/s) = 5.27791 6.97152 6.18298
#
# Compressibility (1/GPa) = 0.01745128
#
# Stress axis : x y z
#
# Youngs Moduli (GPa) = 77.50675 77.50675 380.76358
#
# Poissons Ratio (x) = 0.29919 0.31022
# Poissons Ratio (y) = 0.29919 0.31022
# Poissons Ratio (z) = 0.06315 0.06315
#
# Static dielectric constant tensor:
#      x y z
#    x 2.265880 0.000000 0.000000 
#    y 0.000000 2.265880 0.000000 
#    z 0.000000 0.000000 2.429640 
# 
# From -- ./inp_files/18097.got.cif
#   From: 2010.05.17/outbox.cif.g08.bks.cpg/sg91_10_cif.got.tgz:18097.got - 2010.06.03 19:20:03.
