data_PCOD9547851
_publ_section_title
;
Structure prediction by ZEFSAII (Michael W. Deem and Ramdas Pophale) SiO2 
 PCOD9547851
Probable space group: P 41 2 2
;
_chemical_formula_sum "Si O2"
_cell_formula_units_Z 28
_cell_length_a 10.939694
_cell_length_b 10.939694
_cell_length_c 10.848829
_cell_angle_alpha 90.000000
_cell_angle_beta 90.000000
_cell_angle_gamma 90.000000
_cell_volume 1298.354276
_symmetry_space_group_name_H-M "P 41 2 2"
_symmetry_group_IT_number 91
_symmetry_cell_setting 'tetragonal'
loop_
_space_group_symop_operation_xyz
x,y,z
-y,x,1/4+z
-x,-y,1/2+z
y,-x,3/4+z
x,-y,1/2-z
-x,y,-z
y,x,3/4-z
-y,-x,1/4-z
loop_
_atom_site_type_symbol
_atom_site_label
_atom_site_fract_x
_atom_site_fract_y
_atom_site_fract_z
Si Si1 0.730685 0.730685 0.375000
Si Si2 0.139920 0.860081 0.125000
Si Si3 0.867494 0.240920 0.376310
Si Si4 0.538625 0.248123 0.771314
Si Si5 0.500000 0.690999 0.000000
O O1 0.771880 0.804549 0.495369
O O2 0.589540 0.746988 0.340205
O O3 0.186489 0.801675 0.252127
O O4 0.997789 0.824909 0.125638
O O5 0.857875 0.382548 0.414133
O O6 0.523422 0.232667 0.624264
O O7 0.605957 0.381359 0.780595
#
# Coordination Sequence:
#
# PCOD9547851 Si02
#       5
#     4   4   8   8   4
#     4  12  24  41  71 122 152 174 230 303 379 456
#     4  10  26  53  69  96 130 198 274 299 345 410
#     4  11  25  45  78  98 143 196 245 307 358 417
#     4  11  21  39  68 118 150 188 222 278 373 462
#     4  10  20  34  70 106 164 192 208 260 368 466
#
# _framework density 21.565764999999999
#
# number of rings (size 3 to 8) (size 9 to 14) (size 15 to 20)
#    0.000    1.143    2.857    4.286    0.000    5.714 
#    0.000   11.429    0.000    0.000    0.000    0.000 
#    0.000    0.000    0.000    0.000    0.000    0.000 
#
# Total GULP energy -156294.314707 kJ/mol
# GULP energy per Si atom -5581.939811 kJ/mol
# Density = 2.151668 g / cm^3
# Si number density = 21.565765 Si / 1000 Ang^3
#
#
#
# Elastic Constant Matrix: (Units=GPa)
#
#
# Indices 1 2 3 4 5 6 
#
# 1 73.4049 91.4769 50.4266 0.0000 0.0000 0.0000
# 2 91.4769 73.4043 50.4265 0.0000 0.0000 0.0000
# 3 50.4266 50.4265 214.5876 0.0000 0.0000 0.0000
# 4 0.0000 0.0000 0.0000 19.0223 0.0000 0.0000
# 5 0.0000 0.0000 0.0000 0.0000 19.0231 0.0000
# 6 0.0000 0.0000 0.0000 0.0000 0.0000 24.6525
#
#
#
# Elastic Compliance Matrix: (Units=1/GPa)
#
#
# Indices 1 2 3 4 5 6 
#
# 1 -0.024125 0.031208 -0.001664 0.000000 0.000000 0.000000
# 2 0.031208 -0.024125 -0.001664 0.000000 0.000000 0.000000
# 3 -0.001664 -0.001664 0.005442 0.000000 0.000000 0.000000
# 4 0.000000 0.000000 0.000000 0.052570 0.000000 0.000000
# 5 0.000000 0.000000 0.000000 0.000000 0.052568 0.000000
# 6 0.000000 0.000000 0.000000 0.000000 0.000000 0.040564
#
#
# Mechanical properties :
#
#
# Convention : Reuss Voigt Hill
#
# Bulk Modulus (GPa) = 77.21629 82.89519 80.05574
# Shear Modulus (GPa) = 97.17716 23.81069 60.49393
#
# Velocity S-wave (km/s) = 6.72002 3.32640 5.30206
# Velocity P-wave (km/s) = 9.80277 7.29897 8.64203
#
# Compressibility (1/GPa) = 0.01295064
#
# Stress axis : x y z
#
# Youngs Moduli (GPa) = -41.45093 -41.45056 183.74323
#
# Poissons Ratio (x) = 1.29359 0.30584
# Poissons Ratio (y) = 1.29360 0.30583
# Poissons Ratio (z) = -0.06899 -0.06899
#
# Static dielectric constant tensor:
#      x y z
#    x 1.838780 0.000000 0.000000 
#    y 0.000000 1.838780 0.000000 
#    z 0.000000 0.000000 2.037420 
# 
# From -- ./inp_files/15564.got.cif
#   From: 2010.05.17/outbox.cif.g08.bks.cpg/sg91_8_cif.got.tgz:15564.got - 2010.06.03 19:20:03.
