data_PCOD9547061
_publ_section_title
;
Structure prediction by ZEFSAII (Michael W. Deem and Ramdas Pophale) SiO2 
 PCOD9547061
Probable space group: P 4 2 2
;
_chemical_formula_sum "Si O2"
_cell_formula_units_Z 40
_cell_length_a 9.000000
_cell_length_b 9.000000
_cell_length_c 24.000000
_cell_angle_alpha 90.000000
_cell_angle_beta 90.000000
_cell_angle_gamma 90.000000
_cell_volume 1944.000000
_symmetry_space_group_name_H-M "P 4 2 2"
_symmetry_group_IT_number 89
_symmetry_cell_setting 'tetragonal'
loop_
_space_group_symop_operation_xyz
x,y,z
-y,x,z
-x,-y,z
y,-x,z
x,-y,-z
-x,y,-z
y,x,-z
-y,-x,-z
loop_
_atom_site_type_symbol
_atom_site_label
_atom_site_fract_x
_atom_site_fract_y
_atom_site_fract_z
Si Si1 0.925886 0.237500 0.874837
Si Si2 0.724879 0.604549 0.343262
Si Si3 0.148630 0.805996 0.565866
Si Si4 0.768311 0.086878 0.255805
Si Si5 0.538282 0.738612 0.934224
O O1 0.905887 0.273274 0.809357
O O2 0.883074 0.381010 0.910582
O O3 0.092569 0.177896 0.885532
O O4 0.568158 0.689560 0.336927
O O5 0.780784 0.667305 0.402583
O O6 0.845532 0.649388 0.297222
O O7 0.187062 0.812939 0.500000
O O8 0.973390 0.800938 0.581473
O O9 0.917386 0.183830 0.265639
O O10 0.385007 0.661790 0.916213
O O11 0.500000 0.753439 0.000000
#
# Coordination Sequence:
#
# PCOD9547061 Si02
#       5
#     8   8   8   8   8
#     4   9  19  37  61  89 116 142 181 234 286 334
#     4  11  24  37  50  78 119 155 189 233 284 338
#     4   9  19  37  60  83 107 142 192 245 293 342
#     4   9  19  37  60  84 111 144 184 233 286 339
#     4   9  19  37  55  77 111 148 183 218 261 319
#
# _framework density 20.576132000000001
#
# number of rings (size 3 to 8) (size 9 to 14) (size 15 to 20)
#    0.000    2.600    0.000    3.600    0.000    8.000 
#    0.000   19.000    0.000    4.800    0.000    0.000 
#    0.000    0.000    0.000    0.000    0.000    0.000 
#
# Total GULP energy -222891.512899 kJ/mol
# GULP energy per Si atom -5572.287822 kJ/mol
# Density = 2.052930 g / cm^3
# Si number density = 20.576132 Si / 1000 Ang^3
#
#
#
# Elastic Constant Matrix: (Units=GPa)
#
#
# Indices 1 2 3 4 5 6 
#
# 1 11.0831 28.3209 29.6750 0.0000 0.0000 0.0000
# 2 28.3209 11.0831 29.6750 0.0000 0.0000 0.0000
# 3 29.6750 29.6750 31.4009 0.0000 0.0000 0.0000
# 4 0.0000 0.0000 0.0000 5.7084 0.0000 0.0000
# 5 0.0000 0.0000 0.0000 0.0000 5.7083 0.0000
# 6 0.0000 0.0000 0.0000 0.0000 0.0000 46.3018
#
#
#
# Elastic Compliance Matrix: (Units=1/GPa)
#
#
# Indices 1 2 3 4 5 6 
#
# 1 -0.058975 -0.000963 0.056643 0.000000 0.000000 0.000000
# 2 -0.000963 -0.058975 0.056643 0.000000 0.000000 0.000000
# 3 0.056643 0.056643 -0.075213 0.000000 0.000000 0.000000
# 4 0.000000 0.000000 0.000000 0.175180 0.000000 0.000000
# 5 0.000000 0.000000 0.000000 0.000000 0.175184 0.000000
# 6 0.000000 0.000000 0.000000 0.000000 0.000000 0.021597
#
#
# Mechanical properties :
#
#
# Convention : Reuss Voigt Hill
#
# Bulk Modulus (GPa) = 31.76207 25.43433 28.59820
# Shear Modulus (GPa) = -141.42800 9.27010 -66.07895
#
# Velocity S-wave (km/s) = -8.29959 2.12486 -5.67310
# Velocity P-wave (km/s) = 8.73925 4.29045 5.38361
#
# Compressibility (1/GPa) = 0.03148410
#
# Stress axis : x y z
#
# Youngs Moduli (GPa) = -16.95646 -16.95641 -13.29549
#
# Poissons Ratio (x) = -0.01632 0.75310
# Poissons Ratio (y) = -0.01632 0.75310
# Poissons Ratio (z) = 0.96047 0.96046
#
# Static dielectric constant tensor:
#      x y z
#    x 1.752770 0.000000 0.000000 
#    y 0.000000 1.752770 0.000000 
#    z 0.000000 0.000000 1.734580 
# 
# From -- ./inp_files/2684.got.cif
#   From: 2010.05.17/outbox.ucp.g08.bks.cvg/sg89_2_cif.got.tgz:2684.got - 2010.06.11 10:35:57.
