data_PCOD9547218
_publ_section_title
;
Structure prediction by ZEFSAII (Michael W. Deem and Ramdas Pophale) SiO2 
 PCOD9547218
Probable space group: P 4 21 2
;
_chemical_formula_sum "Si O2"
_cell_formula_units_Z 64
_cell_length_a 11.399507
_cell_length_b 11.399507
_cell_length_c 26.995134
_cell_angle_alpha 90.000000
_cell_angle_beta 90.000000
_cell_angle_gamma 90.000000
_cell_volume 3507.984185
_symmetry_space_group_name_H-M "P 4 21 2"
_symmetry_group_IT_number 90
_symmetry_cell_setting 'tetragonal'
loop_
_space_group_symop_operation_xyz
x,y,z
1/2-y,1/2+x,z
-x,-y,z
1/2+y,1/2-x,z
1/2+x,1/2-y,-z
1/2-x,1/2+y,-z
y,x,-z
-y,-x,-z
loop_
_atom_site_type_symbol
_atom_site_label
_atom_site_fract_x
_atom_site_fract_y
_atom_site_fract_z
Si Si1 0.696413 0.017157 0.127465
Si Si2 0.102794 0.902213 0.426040
Si Si3 0.048187 0.690808 0.242548
Si Si4 0.546558 0.808563 0.871896
Si Si5 0.906320 0.104399 0.943182
Si Si6 0.392847 0.410166 0.689392
Si Si7 0.483416 0.196479 0.237430
Si Si8 0.305205 0.962047 0.502663
O O1 0.602178 0.122261 0.124664
O O2 0.786526 0.032284 0.083555
O O3 0.752452 0.021048 0.182455
O O4 0.130791 0.886705 0.368287
O O5 0.217802 0.943472 0.456210
O O6 0.058236 0.781095 0.450676
O O7 0.000000 0.000000 0.431643
O O8 0.137322 0.581903 0.248884
O O9 0.057589 0.731585 0.185337
O O10 0.075514 0.792640 0.280821
O O11 0.416867 0.863331 0.878295
O O12 0.571534 0.706006 0.910175
O O13 0.872058 0.127943 0.000000
O O14 0.000000 0.000000 0.942790
O O15 0.500000 0.500000 0.691753
O O16 0.285889 0.469494 0.718329
O O17 0.378018 0.102569 0.240147
O O18 0.410475 0.866734 0.502493
#
# Coordination Sequence:
#
# PCOD9547218 Si02
#       8
#     8   8   8   8   8   8   8   8
#     4   9  20  40  63  85 111 150 196 239 287 342
#     4  10  24  40  60  88 126 158 188 241 296 339
#     4   9  20  39  61  86 117 153 195 240 283 336
#     4   9  20  40  63  85 111 150 196 239 287 342
#     4  11  25  39  55  85 119 147 186 241 296 349
#     4  11  24  38  56  91 127 159 191 227 289 352
#     4   9  20  39  61  86 117 153 195 240 283 336
#     4  10  22  41  67  91 110 150 207 250 288 339
#
# _framework density 18.244095999999999
#
# number of rings (size 3 to 8) (size 9 to 14) (size 15 to 20)
#    0.000    2.250    0.000    3.000    7.000    5.000 
#    0.000    3.750    0.000    0.000    0.000    0.000 
#    0.000    0.000    0.000    0.000    0.000    0.000 
#
# Total GULP energy -357336.701021 kJ/mol
# GULP energy per Si atom -5583.385953 kJ/mol
# Density = 1.820257 g / cm^3
# Si number density = 18.244096 Si / 1000 Ang^3
#
#
#
# Elastic Constant Matrix: (Units=GPa)
#
#
# Indices 1 2 3 4 5 6 
#
# 1 38.7548 -1.2752 14.7754 0.0000 0.0000 0.0000
# 2 -1.2752 38.7549 14.7754 0.0000 0.0000 0.0000
# 3 14.7754 14.7754 104.0010 0.0000 0.0000 0.0000
# 4 0.0000 0.0000 0.0000 34.4557 0.0000 0.0000
# 5 0.0000 0.0000 0.0000 0.0000 34.4557 0.0000
# 6 0.0000 0.0000 0.0000 0.0000 0.0000 5.2231
#
#
#
# Elastic Compliance Matrix: (Units=1/GPa)
#
#
# Indices 1 2 3 4 5 6 
#
# 1 0.027514 0.002533 -0.004269 0.000000 0.000000 0.000000
# 2 0.002533 0.027514 -0.004269 0.000000 0.000000 0.000000
# 3 -0.004269 -0.004269 0.010828 0.000000 0.000000 0.000000
# 4 0.000000 0.000000 0.000000 0.029023 0.000000 0.000000
# 5 0.000000 0.000000 0.000000 0.000000 0.029023 0.000000
# 6 0.000000 0.000000 0.000000 0.000000 0.000000 0.191457
#
#
# Mechanical properties :
#
#
# Convention : Reuss Voigt Hill
#
# Bulk Modulus (GPa) = 18.57116 26.45132 22.51124
# Shear Modulus (GPa) = 14.47944 25.04256 19.76100
#
# Velocity S-wave (km/s) = 2.82024 3.70893 3.29469
# Velocity P-wave (km/s) = 4.56140 5.73338 5.18064
#
# Compressibility (1/GPa) = 0.05384693
#
# Stress axis : x y z
#
# Youngs Moduli (GPa) = 36.34502 36.34511 92.35129
#
# Poissons Ratio (x) = -0.09206 0.39423
# Poissons Ratio (y) = -0.09206 0.39423
# Poissons Ratio (z) = 0.15515 0.15515
#
# Static dielectric constant tensor:
#      x y z
#    x 1.614680 0.000000 0.000000 
#    y 0.000000 1.614680 0.000000 
#    z 0.000000 0.000000 1.611640 
# 
# From -- ./inp_files/2959.got.cif
#   From: 2010.05.17/outbox.cif.g08.bks.cpg/sg90_2_cif.got.tgz:2959.got - 2010.06.03 19:17:45.
