data_PCOD9547942
_publ_section_title
;
Structure prediction by ZEFSAII (Michael W. Deem and Ramdas Pophale) SiO2 
 PCOD9547942
Probable space group: P 41 2 2
;
_chemical_formula_sum "Si O2"
_cell_formula_units_Z 60
_cell_length_a 17.919902
_cell_length_b 17.919902
_cell_length_c 8.868687
_cell_angle_alpha 90.000000
_cell_angle_beta 90.000000
_cell_angle_gamma 90.000000
_cell_volume 2847.938379
_symmetry_space_group_name_H-M "P 41 2 2"
_symmetry_group_IT_number 91
_symmetry_cell_setting 'tetragonal'
loop_
_space_group_symop_operation_xyz
x,y,z
-y,x,1/4+z
-x,-y,1/2+z
y,-x,3/4+z
x,-y,1/2-z
-x,y,-z
y,x,3/4-z
-y,-x,1/4-z
loop_
_atom_site_type_symbol
_atom_site_label
_atom_site_fract_x
_atom_site_fract_y
_atom_site_fract_z
Si Si1 0.995868 0.676734 0.673946
Si Si2 0.448544 0.933861 0.358977
Si Si3 0.343299 0.500000 0.250000
Si Si4 0.167224 0.341686 0.124396
Si Si5 0.685664 0.246168 0.833031
Si Si6 0.586642 0.629656 0.539672
Si Si7 0.261539 0.140963 0.922013
Si Si8 0.428983 0.797069 0.129350
O O1 0.908421 0.692274 0.695746
O O2 0.000000 0.646309 0.500000
O O3 0.028382 0.622802 0.804100
O O4 0.052237 0.746722 0.673631
O O5 0.500000 0.914859 0.500000
O O6 0.444787 0.860996 0.251494
O O7 0.476464 0.000000 0.250000
O O8 0.389452 0.435343 0.161491
O O9 0.284295 0.467019 0.371165
O O10 0.245492 0.300806 0.144527
O O11 0.173638 0.422227 0.205385
O O12 0.155664 0.329462 0.946156
O O13 0.615436 0.291084 0.900900
O O14 0.657155 0.222174 0.671515
O O15 0.709309 0.173081 0.922370
O O16 0.500000 0.624065 0.500000
O O17 0.623008 0.623008 0.375000
O O18 0.189983 0.189983 0.875000
#
# Coordination Sequence:
#
# PCOD9547942 Si02
#       8
#     8   8   4   8   8   8   8   8
#     4  10  20  39  63  92 130 174 218 270 333 413
#     4  12  26  42  60  93 135 179 225 277 351 430
#     4  12  30  48  68 100 128 172 236 296 374 444
#     4  10  20  37  66  91 128 167 214 270 339 399
#     4  11  22  43  66  97 123 168 226 280 335 413
#     4  12  28  47  72  92 123 167 223 296 369 426
#     4   9  19  36  63  95 132 166 215 270 322 394
#     4  12  25  42  67  88 129 167 220 282 342 413
#
# _framework density 21.067872999999999
#
# number of rings (size 3 to 8) (size 9 to 14) (size 15 to 20)
#    0.000    1.067    4.000    2.800    1.867    4.800 
#    0.000    0.000    0.000    0.000    0.000    0.000 
#    0.000   56.533    0.000    0.000    0.000    0.000 
#
# Total GULP energy -334212.663834 kJ/mol
# GULP energy per Si atom -5570.211064 kJ/mol
# Density = 2.101992 g / cm^3
# Si number density = 21.067873 Si / 1000 Ang^3
#
#
#
# Elastic Constant Matrix: (Units=GPa)
#
#
# Indices 1 2 3 4 5 6 
#
# 1 85.9255 18.7216 1.4282 0.0000 0.0000 0.0000
# 2 18.7216 85.9255 1.4282 0.0000 0.0000 0.0000
# 3 1.4282 1.4282 53.0216 0.0000 0.0000 0.0000
# 4 0.0000 0.0000 0.0000 30.3914 0.0000 0.0000
# 5 0.0000 0.0000 0.0000 0.0000 30.3914 0.0000
# 6 0.0000 0.0000 0.0000 0.0000 0.0000 13.0244
#
#
#
# Elastic Compliance Matrix: (Units=1/GPa)
#
#
# Indices 1 2 3 4 5 6 
#
# 1 0.012222 -0.002659 -0.000258 0.000000 0.000000 0.000000
# 2 -0.002659 0.012222 -0.000258 0.000000 0.000000 0.000000
# 3 -0.000258 -0.000258 0.018874 0.000000 0.000000 0.000000
# 4 0.000000 0.000000 0.000000 0.032904 0.000000 0.000000
# 5 0.000000 0.000000 0.000000 0.000000 0.032904 0.000000
# 6 0.000000 0.000000 0.000000 0.000000 0.000000 0.076779
#
#
# Mechanical properties :
#
#
# Convention : Reuss Voigt Hill
#
# Bulk Modulus (GPa) = 27.04920 29.78096 28.41508
# Shear Modulus (GPa) = 24.44094 28.31443 26.37768
#
# Velocity S-wave (km/s) = 3.40973 3.66999 3.54225
# Velocity P-wave (km/s) = 5.32622 5.66788 5.49970
#
# Compressibility (1/GPa) = 0.03696967
#
# Stress axis : x y z
#
# Youngs Moduli (GPa) = 81.82284 81.82284 52.98259
#
# Poissons Ratio (x) = 0.21753 0.01365
# Poissons Ratio (y) = 0.21753 0.01365
# Poissons Ratio (z) = 0.02108 0.02108
#
# Static dielectric constant tensor:
#      x y z
#    x 1.852660 0.000000 0.000000 
#    y 0.000000 1.852660 0.000000 
#    z 0.000000 0.000000 1.674370 
# 
# From -- ./inp_files/15310.got.cif
#   From: 2010.05.17/outbox.cif.g08.bks.cpg/sg91_8_cif.got.tgz:15310.got - 2010.06.03 19:20:03.
