data_PCOD9547114
_publ_section_title
;
Structure prediction by ZEFSAII (Michael W. Deem and Ramdas Pophale) SiO2 
 PCOD9547114
Probable space group: P 4 21 2
;
_chemical_formula_sum "Si O2"
_cell_formula_units_Z 54
_cell_length_a 10.550988
_cell_length_b 10.550988
_cell_length_c 22.349897
_cell_angle_alpha 90.000000
_cell_angle_beta 90.000000
_cell_angle_gamma 90.000000
_cell_volume 2488.065356
_symmetry_space_group_name_H-M "P 4 21 2"
_symmetry_group_IT_number 90
_symmetry_cell_setting 'tetragonal'
loop_
_space_group_symop_operation_xyz
x,y,z
1/2-y,1/2+x,z
-x,-y,z
1/2+y,1/2-x,z
1/2+x,1/2-y,-z
1/2-x,1/2+y,-z
y,x,-z
-y,-x,-z
loop_
_atom_site_type_symbol
_atom_site_label
_atom_site_fract_x
_atom_site_fract_y
_atom_site_fract_z
Si Si1 0.963052 0.295780 0.027573
Si Si2 0.583402 0.192072 0.606257
Si Si3 0.785422 0.499298 0.594283
Si Si4 0.104977 0.817686 0.900871
Si Si5 0.374193 0.585315 0.698546
Si Si6 0.267423 0.623186 0.823276
Si Si7 0.000000 0.500000 0.794331
Si Si8 0.371345 0.628656 0.500000
O O1 0.856923 0.401969 0.039854
O O2 0.934764 0.175701 0.068471
O O3 0.943851 0.264525 0.957678
O O4 0.436305 0.160065 0.611894
O O5 0.612952 0.296009 0.654990
O O6 0.615668 0.251478 0.542537
O O7 0.876105 0.621666 0.585527
O O8 0.733202 0.496247 0.662630
O O9 0.663576 0.483677 0.548981
O O10 0.208564 0.738445 0.861919
O O11 0.979603 0.841699 0.863066
O O12 0.500000 0.500000 0.701404
O O13 0.345183 0.644708 0.763154
O O14 0.146494 0.546352 0.799617
#
# Coordination Sequence:
#
# PCOD9547114 Si02
#       8
#     8   8   8   8   8   8   2   4
#     4  10  20  36  60  88 122 157 209 254 313 395
#     4  10  23  45  70  96 137 184 222 264 337 399
#     4  10  23  41  66  98 133 172 217 269 330 385
#     4  10  20  36  61  89 120 165 200 261 329 380
#     4  11  27  41  64  96 129 171 224 280 320 386
#     4  10  21  38  62  91 124 160 215 267 324 392
#     4   8  20  32  64  92 108 160 208 264 328 370
#     4  10  20  38  67 103 128 162 210 270 312 387
#
# _framework density 21.703607999999999
#
# number of rings (size 3 to 8) (size 9 to 14) (size 15 to 20)
#    0.000    1.926    1.481    0.889    8.296    2.370 
#    0.000    1.481    0.000    1.778    0.000    0.000 
#    0.000    0.000    0.000    0.000    0.000    0.000 
#
# Total GULP energy -300836.503290 kJ/mol
# GULP energy per Si atom -5571.046357 kJ/mol
# Density = 2.165421 g / cm^3
# Si number density = 21.703608 Si / 1000 Ang^3
#
#
#
# Elastic Constant Matrix: (Units=GPa)
#
#
# Indices 1 2 3 4 5 6 
#
# 1 7.1955 43.7095 20.5807 0.0000 0.0000 0.0000
# 2 43.7095 7.1960 20.5808 0.0000 0.0000 0.0000
# 3 20.5807 20.5808 137.1375 0.0000 0.0000 0.0000
# 4 0.0000 0.0000 0.0000 1.7872 0.0000 0.0000
# 5 0.0000 0.0000 0.0000 0.0000 1.7874 0.0000
# 6 0.0000 0.0000 0.0000 0.0000 0.0000 33.0759
#
#
#
# Elastic Compliance Matrix: (Units=1/GPa)
#
#
# Indices 1 2 3 4 5 6 
#
# 1 -0.002515 0.024872 -0.003355 0.000000 0.000000 0.000000
# 2 0.024872 -0.002515 -0.003355 0.000000 0.000000 0.000000
# 3 -0.003355 -0.003355 0.008299 0.000000 0.000000 0.000000
# 4 0.000000 0.000000 0.000000 0.559539 0.000000 0.000000
# 5 0.000000 0.000000 0.000000 0.000000 0.559478 0.000000
# 6 0.000000 0.000000 0.000000 0.000000 0.000000 0.030234
#
#
# Mechanical properties :
#
#
# Convention : Reuss Voigt Hill
#
# Bulk Modulus (GPa) = 25.25718 35.69681 30.47699
# Shear Modulus (GPa) = 4.42715 11.77395 8.10055
#
# Velocity S-wave (km/s) = 1.42977 2.33166 1.93403
# Velocity P-wave (km/s) = 3.79318 4.87155 4.36579
#
# Compressibility (1/GPa) = 0.03959270
#
# Stress axis : x y z
#
# Youngs Moduli (GPa) = -397.62597 -397.67469 120.49610
#
# Poissons Ratio (x) = 9.89102 0.40429
# Poissons Ratio (y) = 9.88981 0.40430
# Poissons Ratio (z) = -1.33413 -1.33431
#
# Static dielectric constant tensor:
#      x y z
#    x 1.806270 0.000000 0.000000 
#    y 0.000000 1.806270 0.000000 
#    z 0.000000 0.000000 1.828520 
# 
# From -- ./inp_files/2843.got.cif
#   From: 2010.05.17/outbox.cif.g08.bks.cpg/sg90_2_cif.got.tgz:2843.got - 2010.06.03 19:17:45.
