data_PCOD9547556
_publ_section_title
;
Structure prediction by ZEFSAII (Michael W. Deem and Ramdas Pophale) SiO2 
 PCOD9547556
Probable space group: P 41 2 2
;
_chemical_formula_sum "Si O2"
_cell_formula_units_Z 48
_cell_length_a 14.976393
_cell_length_b 14.976393
_cell_length_c 11.543507
_cell_angle_alpha 90.000000
_cell_angle_beta 90.000000
_cell_angle_gamma 90.000000
_cell_volume 2589.120281
_symmetry_space_group_name_H-M "P 41 2 2"
_symmetry_group_IT_number 91
_symmetry_cell_setting 'tetragonal'
loop_
_space_group_symop_operation_xyz
x,y,z
-y,x,1/4+z
-x,-y,1/2+z
y,-x,3/4+z
x,-y,1/2-z
-x,y,-z
y,x,3/4-z
-y,-x,1/4-z
loop_
_atom_site_type_symbol
_atom_site_label
_atom_site_fract_x
_atom_site_fract_y
_atom_site_fract_z
Si Si1 0.247147 0.500000 0.750000
Si Si2 0.464809 0.087183 0.320171
Si Si3 0.202043 0.289186 0.039165
Si Si4 0.067297 0.643491 0.284326
Si Si5 0.476264 0.718019 0.752416
Si Si6 0.678531 0.134888 0.032017
Si Si7 0.450969 0.450969 0.375000
O O1 0.305546 0.510061 0.633073
O O2 0.181500 0.414975 0.750754
O O3 0.391752 0.109079 0.416265
O O4 0.555582 0.056449 0.384812
O O5 0.488254 0.179610 0.258018
O O6 0.435801 0.000000 0.250000
O O7 0.134834 0.295950 0.145055
O O8 0.273233 0.371542 0.037659
O O9 0.149732 0.304828 0.918812
O O10 0.249515 0.194635 0.033562
O O11 0.969507 0.680201 0.259268
O O12 0.525984 0.651272 0.839143
O O13 0.500000 0.471204 0.500000
#
# Coordination Sequence:
#
# PCOD9547556 Si02
#       7
#     4   8   8   8   8   8   4
#     4  10  20  34  60  82 112 148 196 254 298 350
#     4  10  19  33  55  84 110 149 195 250 318 363
#     4   9  20  33  52  77 114 152 191 247 300 354
#     4  10  18  30  53  77 115 146 188 247 305 362
#     4  10  23  40  59  82 118 156 209 254 304 358
#     4  10  18  31  52  83 111 150 191 242 303 364
#     4  12  32  46  64  84 122 180 228 258 296 362
#
# _framework density 18.539114999999999
#
# number of rings (size 3 to 8) (size 9 to 14) (size 15 to 20)
#    0.000    2.000    0.000    5.500    8.167    1.333 
#    0.000    0.000    0.000    0.000    0.000    0.000 
#    0.000   42.667    0.000    0.000    0.000    0.000 
#
# Total GULP energy -267828.720075 kJ/mol
# GULP energy per Si atom -5579.765002 kJ/mol
# Density = 1.849692 g / cm^3
# Si number density = 18.539115 Si / 1000 Ang^3
#
#
#
# Elastic Constant Matrix: (Units=GPa)
#
#
# Indices 1 2 3 4 5 6 
#
# 1 58.3054 29.9354 39.4783 0.0000 0.0000 0.0000
# 2 29.9354 58.3054 39.4783 0.0000 0.0000 0.0000
# 3 39.4783 39.4783 91.0861 0.0000 0.0000 0.0000
# 4 0.0000 0.0000 0.0000 22.8702 0.0000 0.0000
# 5 0.0000 0.0000 0.0000 0.0000 22.8702 0.0000
# 6 0.0000 0.0000 0.0000 0.0000 0.0000 16.9792
#
#
#
# Elastic Compliance Matrix: (Units=1/GPa)
#
#
# Indices 1 2 3 4 5 6 
#
# 1 0.026880 -0.008368 -0.008023 0.000000 0.000000 0.000000
# 2 -0.008368 0.026880 -0.008023 0.000000 0.000000 0.000000
# 3 -0.008023 -0.008023 0.017933 0.000000 0.000000 0.000000
# 4 0.000000 0.000000 0.000000 0.043725 0.000000 0.000000
# 5 0.000000 0.000000 0.000000 0.000000 0.043725 0.000000
# 6 0.000000 0.000000 0.000000 0.000000 0.000000 0.058896
#
#
# Mechanical properties :
#
#
# Convention : Reuss Voigt Hill
#
# Bulk Modulus (GPa) = 43.73731 47.27565 45.50648
# Shear Modulus (GPa) = 18.21558 19.13094 18.67326
#
# Velocity S-wave (km/s) = 3.13796 3.21584 3.17714
# Velocity P-wave (km/s) = 6.06401 6.27253 6.16915
#
# Compressibility (1/GPa) = 0.02286377
#
# Stress axis : x y z
#
# Youngs Moduli (GPa) = 37.20227 37.20227 55.76160
#
# Poissons Ratio (x) = 0.31132 0.44739
# Poissons Ratio (y) = 0.31132 0.44739
# Poissons Ratio (z) = 0.29849 0.29849
#
# Static dielectric constant tensor:
#      x y z
#    x 1.650980 0.000000 0.000000 
#    y 0.000000 1.650980 0.000000 
#    z 0.000000 0.000000 1.686110 
# 
# From -- ./inp_files/10800.got.cif
#   From: 2010.05.17/outbox.cif.g08.bks.cpg/sg91_6_cif.got.tgz:10800.got - 2010.06.03 19:20:03.
