data_PCOD9547975
_publ_section_title
;
Structure prediction by ZEFSAII (Michael W. Deem and Ramdas Pophale) SiO2 
 PCOD9547975
Probable space group: P 41 2 2
;
_chemical_formula_sum "Si O2"
_cell_formula_units_Z 24
_cell_length_a 12.210930
_cell_length_b 12.210930
_cell_length_c 8.459469
_cell_angle_alpha 90.000000
_cell_angle_beta 90.000000
_cell_angle_gamma 90.000000
_cell_volume 1261.364449
_symmetry_space_group_name_H-M "P 41 2 2"
_symmetry_group_IT_number 91
_symmetry_cell_setting 'tetragonal'
loop_
_space_group_symop_operation_xyz
x,y,z
-y,x,1/4+z
-x,-y,1/2+z
y,-x,3/4+z
x,-y,1/2-z
-x,y,-z
y,x,3/4-z
-y,-x,1/4-z
loop_
_atom_site_type_symbol
_atom_site_label
_atom_site_fract_x
_atom_site_fract_y
_atom_site_fract_z
Si Si1 0.406752 0.769925 0.384598
Si Si2 0.402478 0.597523 0.125000
Si Si3 0.782649 0.782649 0.375000
Si Si4 0.500000 0.986068 0.500000
Si Si5 0.674456 0.000000 0.250000
O O1 0.500000 0.720402 0.500000
O O2 0.409674 0.711267 0.218913
O O3 0.293916 0.754056 0.476274
O O4 0.436580 0.898696 0.385582
O O5 0.409957 0.500000 0.250000
O O6 0.749257 0.904370 0.322195
O O7 0.592609 0.040997 0.391174
#
# Coordination Sequence:
#
# PCOD9547975 Si02
#       5
#     8   4   4   4   4
#     4   9  19  36  52  82 122 158 208 251 304 375
#     4  12  22  29  50  83 126 170 196 254 322 393
#     4  10  20  39  64  93 122 164 210 264 322 367
#     4   8  20  36  58  84 118 158 208 256 302 380
#     4  10  20  38  66  94 126 162 212 262 320 374
#
# _framework density 19.027016
#
# number of rings (size 3 to 8) (size 9 to 14) (size 15 to 20)
#    1.000    1.333    0.000    3.000    0.000    2.667 
#    0.000    0.000    0.000   10.000    0.000    0.000 
#    0.000    0.000    0.000    0.000    0.000    0.000 
#
# Total GULP energy -133688.208266 kJ/mol
# GULP energy per Si atom -5570.342011 kJ/mol
# Density = 1.898371 g / cm^3
# Si number density = 19.027016 Si / 1000 Ang^3
#
#
#
# Elastic Constant Matrix: (Units=GPa)
#
#
# Indices 1 2 3 4 5 6 
#
# 1 56.6505 39.0773 41.5021 0.0000 0.0000 0.0000
# 2 39.0773 56.6506 41.5019 0.0000 0.0000 0.0000
# 3 41.5021 41.5019 105.1277 0.0000 0.0000 0.0000
# 4 0.0000 0.0000 0.0000 39.6755 0.0000 0.0000
# 5 0.0000 0.0000 0.0000 0.0000 39.6755 0.0000
# 6 0.0000 0.0000 0.0000 0.0000 0.0000 47.8205
#
#
#
# Elastic Compliance Matrix: (Units=1/GPa)
#
#
# Indices 1 2 3 4 5 6 
#
# 1 0.036394 -0.020511 -0.006270 0.000000 0.000000 0.000000
# 2 -0.020511 0.036394 -0.006270 0.000000 0.000000 0.000000
# 3 -0.006270 -0.006270 0.014463 0.000000 0.000000 0.000000
# 4 0.000000 0.000000 0.000000 0.025204 0.000000 0.000000
# 5 0.000000 0.000000 0.000000 0.000000 0.025204 0.000000
# 6 0.000000 0.000000 0.000000 0.000000 0.000000 0.020912
#
#
# Mechanical properties :
#
#
# Convention : Reuss Voigt Hill
#
# Bulk Modulus (GPa) = 47.28563 51.39904 49.34234
# Shear Modulus (GPa) = 21.57744 31.85747 26.71745
#
# Velocity S-wave (km/s) = 3.37121 4.09629 3.75131
# Velocity P-wave (km/s) = 6.32923 7.03173 6.68971
#
# Compressibility (1/GPa) = 0.02114807
#
# Stress axis : x y z
#
# Youngs Moduli (GPa) = 27.47700 27.47719 69.14200
#
# Poissons Ratio (x) = 0.56358 0.43355
# Poissons Ratio (y) = 0.56358 0.43354
# Poissons Ratio (z) = 0.17229 0.17229
#
# Static dielectric constant tensor:
#      x y z
#    x 1.692000 0.000000 0.000000 
#    y 0.000000 1.692000 0.000000 
#    z 0.000000 0.000000 1.612300 
# 
# From -- ./inp_files/1942.got.cif
#   From: 2010.05.17/outbox.cif.g08.bks.cpg/sg91_1_cif.got.tgz:1942.got - 2010.06.03 19:20:03.
