data_PCOD9547123
_publ_section_title
;
Structure prediction by ZEFSAII (Michael W. Deem and Ramdas Pophale) SiO2 
 PCOD9547123
Probable space group: P 4 21 2
;
_chemical_formula_sum "Si O2"
_cell_formula_units_Z 36
_cell_length_a 15.524888
_cell_length_b 15.524888
_cell_length_c 7.441083
_cell_angle_alpha 90.000000
_cell_angle_beta 90.000000
_cell_angle_gamma 90.000000
_cell_volume 1793.465804
_symmetry_space_group_name_H-M "P 4 21 2"
_symmetry_group_IT_number 90
_symmetry_cell_setting 'tetragonal'
loop_
_space_group_symop_operation_xyz
x,y,z
1/2-y,1/2+x,z
-x,-y,z
1/2+y,1/2-x,z
1/2+x,1/2-y,-z
1/2-x,1/2+y,-z
y,x,-z
-y,-x,-z
loop_
_atom_site_type_symbol
_atom_site_label
_atom_site_fract_x
_atom_site_fract_y
_atom_site_fract_z
Si Si1 0.322625 0.315205 0.205101
Si Si2 0.899418 0.899418 0.500000
Si Si3 0.719597 0.363117 0.837608
Si Si4 0.281666 0.454056 0.474458
Si Si5 0.642946 0.975268 0.299045
O O1 0.272311 0.225104 0.191509
O O2 0.268083 0.387297 0.312688
O O3 0.401943 0.297659 0.339904
O O4 0.342481 0.342481 0.000000
O O5 0.879991 0.837193 0.664545
O O6 0.993108 0.868993 0.437493
O O7 0.787950 0.441612 0.848549
O O8 0.655575 0.344426 0.000000
O O9 0.200224 0.515637 0.518377
O O10 0.567016 0.904717 0.288978
#
# Coordination Sequence:
#
# PCOD9547123 Si02
#       5
#     8   4   8   8   8
#     4  10  21  38  60  87 120 170 215 254 313 392
#     4  10  22  37  58  90 124 155 212 264 308 384
#     4  10  21  39  62  87 122 173 212 254 321 399
#     4  10  21  37  62  88 122 166 209 259 320 378
#     4  10  20  37  65  96 128 166 212 273 335 386
#
# _framework density 20.072866999999999
#
# number of rings (size 3 to 8) (size 9 to 14) (size 15 to 20)
#    0.000    2.000    2.222    1.333    3.111    5.333 
#    0.000    1.111    0.000    0.000    0.000    0.000 
#    0.000    0.000    0.000    0.000    0.000    0.000 
#
# Total GULP energy -200421.310868 kJ/mol
# GULP energy per Si atom -5567.258635 kJ/mol
# Density = 2.002718 g / cm^3
# Si number density = 20.072867 Si / 1000 Ang^3
#
#
#
# Elastic Constant Matrix: (Units=GPa)
#
#
# Indices 1 2 3 4 5 6 
#
# 1 78.9321 20.6780 27.5294 0.0000 0.0000 0.0000
# 2 20.6780 78.9308 27.5291 0.0000 0.0000 0.0000
# 3 27.5294 27.5291 101.6915 0.0000 0.0000 0.0000
# 4 0.0000 0.0000 0.0000 23.1121 0.0000 0.0000
# 5 0.0000 0.0000 0.0000 0.0000 23.1130 0.0000
# 6 0.0000 0.0000 0.0000 0.0000 0.0000 42.0856
#
#
#
# Elastic Compliance Matrix: (Units=1/GPa)
#
#
# Indices 1 2 3 4 5 6 
#
# 1 0.014486 -0.002680 -0.003196 0.000000 0.000000 0.000000
# 2 -0.002680 0.014486 -0.003196 0.000000 0.000000 0.000000
# 3 -0.003196 -0.003196 0.011564 0.000000 0.000000 0.000000
# 4 0.000000 0.000000 0.000000 0.043267 0.000000 0.000000
# 5 0.000000 0.000000 0.000000 0.000000 0.043266 0.000000
# 6 0.000000 0.000000 0.000000 0.000000 0.000000 0.023761
#
#
# Mechanical properties :
#
#
# Convention : Reuss Voigt Hill
#
# Bulk Modulus (GPa) = 44.65948 45.66972 45.16460
# Shear Modulus (GPa) = 28.33843 29.91666 29.12755
#
# Velocity S-wave (km/s) = 3.76144 3.86476 3.81345
# Velocity P-wave (km/s) = 6.41573 6.53579 6.47604
#
# Compressibility (1/GPa) = 0.02239166
#
# Stress axis : x y z
#
# Youngs Moduli (GPa) = 69.03237 69.03134 86.47494
#
# Poissons Ratio (x) = 0.18503 0.27637
# Poissons Ratio (y) = 0.18503 0.27637
# Poissons Ratio (z) = 0.22063 0.22062
#
# Static dielectric constant tensor:
#      x y z
#    x 1.790840 0.000000 0.000000 
#    y 0.000000 1.790840 0.000000 
#    z 0.000000 0.000000 1.684710 
# 
# From -- ./inp_files/1175.got.cif
#   From: 2010.05.17/outbox.cif.g08.bks.cpg/sg90_1_cif.got.tgz:1175.got - 2010.06.03 19:17:45.
