data_PCOD9547880
_publ_section_title
;
Structure prediction by ZEFSAII (Michael W. Deem and Ramdas Pophale) SiO2 
 PCOD9547880
Probable space group: P 41 2 2
;
_chemical_formula_sum "Si O2"
_cell_formula_units_Z 52
_cell_length_a 21.798229
_cell_length_b 21.798229
_cell_length_c 6.283427
_cell_angle_alpha 90.000000
_cell_angle_beta 90.000000
_cell_angle_gamma 90.000000
_cell_volume 2985.650689
_symmetry_space_group_name_H-M "P 41 2 2"
_symmetry_group_IT_number 91
_symmetry_cell_setting 'tetragonal'
loop_
_space_group_symop_operation_xyz
x,y,z
-y,x,1/4+z
-x,-y,1/2+z
y,-x,3/4+z
x,-y,1/2-z
-x,y,-z
y,x,3/4-z
-y,-x,1/4-z
loop_
_atom_site_type_symbol
_atom_site_label
_atom_site_fract_x
_atom_site_fract_y
_atom_site_fract_z
Si Si1 0.428170 0.340200 0.022490
Si Si2 0.735248 0.171125 0.057871
Si Si3 0.437267 0.562734 0.125000
Si Si4 0.363932 0.848010 0.928488
Si Si5 0.745576 0.343513 0.501732
Si Si6 0.067128 0.680493 0.936667
Si Si7 0.437040 0.934538 0.628113
O O1 0.434147 0.378430 0.234783
O O2 0.387958 0.281011 0.070836
O O3 0.500000 0.323567 0.000000
O O4 0.388531 0.388531 0.875000
O O5 0.799781 0.200220 0.125000
O O6 0.688942 0.169835 0.259138
O O7 0.706581 0.215089 0.876080
O O8 0.730296 0.104685 0.949649
O O9 0.436920 0.500000 0.250000
O O10 0.418233 0.881146 0.796305
O O11 0.377296 0.788360 0.074127
O O12 0.337862 0.896832 0.098937
O O13 0.691118 0.308883 0.625000
O O14 0.062764 0.619311 0.789667
O O15 0.000000 0.701258 0.000000
O O16 0.500000 0.923055 0.500000
O O17 0.441605 0.000000 0.750000
#
# Coordination Sequence:
#
# PCOD9547880 Si02
#       7
#     8   8   4   8   8   8   8
#     4  12  25  40  62  82 104 134 178 231 303 372
#     4  10  20  36  60  85 112 152 199 236 286 350
#     4  12  22  40  62  84  98 122 162 224 294 372
#     4  10  22  39  59  84 113 147 201 240 287 348
#     4  11  22  39  64  78 111 150 188 237 299 365
#     4  10  20  36  57  86 115 153 197 240 295 343
#     4  11  22  36  61  82 115 157 200 247 297 352
#
# _framework density 17.416640000000001
#
# number of rings (size 3 to 8) (size 9 to 14) (size 15 to 20)
#    0.000    1.231    5.385    1.385    0.000    0.000 
#    0.000    8.462    3.385    0.000    0.000    0.000 
#    0.000    0.000    0.000    0.000   40.923    0.000 
#
# Total GULP energy -289849.029041 kJ/mol
# GULP energy per Si atom -5574.019789 kJ/mol
# Density = 1.737700 g / cm^3
# Si number density = 17.416640 Si / 1000 Ang^3
#
#
#
# Elastic Constant Matrix: (Units=GPa)
#
#
# Indices 1 2 3 4 5 6 
#
# 1 92.6264 49.7720 30.0750 0.0000 0.0000 0.0000
# 2 49.7720 92.6263 30.0747 0.0000 0.0000 0.0000
# 3 30.0750 30.0747 75.7385 0.0000 0.0000 0.0000
# 4 0.0000 0.0000 0.0000 28.7165 0.0000 0.0000
# 5 0.0000 0.0000 0.0000 0.0000 28.7145 0.0000
# 6 0.0000 0.0000 0.0000 0.0000 0.0000 22.5194
#
#
#
# Elastic Compliance Matrix: (Units=1/GPa)
#
#
# Indices 1 2 3 4 5 6 
#
# 1 0.015886 -0.007449 -0.003351 0.000000 0.000000 0.000000
# 2 -0.007449 0.015886 -0.003351 0.000000 0.000000 0.000000
# 3 -0.003351 -0.003351 0.015864 0.000000 0.000000 0.000000
# 4 0.000000 0.000000 0.000000 0.034823 0.000000 0.000000
# 5 0.000000 0.000000 0.000000 0.000000 0.034826 0.000000
# 6 0.000000 0.000000 0.000000 0.000000 0.000000 0.044406
#
#
# Mechanical properties :
#
#
# Convention : Reuss Voigt Hill
#
# Bulk Modulus (GPa) = 51.71250 53.42608 52.56929
# Shear Modulus (GPa) = 25.45343 26.06137 25.75740
#
# Velocity S-wave (km/s) = 3.82703 3.87246 3.84981
# Velocity P-wave (km/s) = 7.02026 7.12296 7.07180
#
# Compressibility (1/GPa) = 0.01933769
#
# Stress axis : x y z
#
# Youngs Moduli (GPa) = 62.94709 62.94715 63.03481
#
# Poissons Ratio (x) = 0.46886 0.21120
# Poissons Ratio (y) = 0.46886 0.21120
# Poissons Ratio (z) = 0.21091 0.21091
#
# Static dielectric constant tensor:
#      x y z
#    x 1.628080 0.000000 0.000000 
#    y 0.000000 1.628070 0.000000 
#    z 0.000000 0.000000 1.624270 
# 
# From -- ./inp_files/18921.got.cif
#   From: 2010.05.17/outbox.cif.g08.bks.cpg/sg91_10_cif.got.tgz:18921.got - 2010.06.03 19:20:03.
