data_PCOD9547065
_publ_section_title
;
Structure prediction by ZEFSAII (Michael W. Deem and Ramdas Pophale) SiO2 
 PCOD9547065
Probable space group: P 4 21 2
;
_chemical_formula_sum "Si O2"
_cell_formula_units_Z 56
_cell_length_a 15.117932
_cell_length_b 15.117932
_cell_length_c 12.808540
_cell_angle_alpha 90.000000
_cell_angle_beta 90.000000
_cell_angle_gamma 90.000000
_cell_volume 2927.415743
_symmetry_space_group_name_H-M "P 4 21 2"
_symmetry_group_IT_number 90
_symmetry_cell_setting 'tetragonal'
loop_
_space_group_symop_operation_xyz
x,y,z
1/2-y,1/2+x,z
-x,-y,z
1/2+y,1/2-x,z
1/2+x,1/2-y,-z
1/2-x,1/2+y,-z
y,x,-z
-y,-x,-z
loop_
_atom_site_type_symbol
_atom_site_label
_atom_site_fract_x
_atom_site_fract_y
_atom_site_fract_z
Si Si1 0.245699 0.370022 0.854978
Si Si2 0.448840 0.411322 0.230005
Si Si3 0.634854 0.492156 0.541463
Si Si4 0.753389 0.617685 0.233910
Si Si5 0.614691 0.092970 0.334322
Si Si6 0.934984 0.367611 0.045716
Si Si7 0.272002 0.875061 0.528114
O O1 0.295278 0.277842 0.830459
O O2 0.176314 0.376397 0.760398
O O3 0.940755 0.173314 0.845058
O O4 0.197984 0.391039 0.962136
O O5 0.500000 0.500000 0.197055
O O6 0.496020 0.374695 0.334577
O O7 0.343470 0.429802 0.250805
O O8 0.562345 0.562345 0.500000
O O9 0.602475 0.397526 0.500000
O O10 0.725392 0.530454 0.497153
O O11 0.823996 0.572067 0.159878
O O12 0.790610 0.633401 0.349498
O O13 0.513054 0.119129 0.326545
O O14 0.650413 0.129044 0.444365
O O15 0.886501 0.461284 0.030151
O O16 0.200206 0.799795 0.500000
#
# Coordination Sequence:
#
# PCOD9547065 Si02
#       7
#     8   8   8   8   8   8   8
#     4  10  20  41  68  90 125 165 209 279 329 374
#     4  10  17  31  60  97 128 164 198 245 332 387
#     4  10  13  24  54  86 121 164 199 231 288 385
#     4  10  21  37  68  90 130 165 201 271 329 380
#     4  11  23  38  61  93 129 175 225 266 314 375
#     4  11  25  46  68  88 116 170 228 266 322 386
#     4  11  17  37  59  89 128 173 200 257 320 385
#
# _framework density 19.129501000000001
#
# number of rings (size 3 to 8) (size 9 to 14) (size 15 to 20)
#    0.857    0.714    7.143    1.286    0.000    2.286 
#    0.000    7.857    0.000    0.000    0.000    0.000 
#    0.000    0.000    0.000    0.000    0.000    0.000 
#
# Total GULP energy -311818.624272 kJ/mol
# GULP energy per Si atom -5568.189719 kJ/mol
# Density = 1.908596 g / cm^3
# Si number density = 19.129501 Si / 1000 Ang^3
#
#
#
# Elastic Constant Matrix: (Units=GPa)
#
#
# Indices 1 2 3 4 5 6 
#
# 1 -83.9850 123.3095 18.9108 0.0000 0.0000 0.0000
# 2 123.3095 -83.9788 18.9161 0.0000 0.0000 0.0000
# 3 18.9108 18.9161 107.3027 0.0000 0.0000 0.0000
# 4 0.0000 0.0000 0.0000 14.2715 0.0000 0.0000
# 5 0.0000 0.0000 0.0000 0.0000 14.2716 0.0000
# 6 0.0000 0.0000 0.0000 0.0000 0.0000 6.1421
#
#
#
# Elastic Compliance Matrix: (Units=1/GPa)
#
#
# Indices 1 2 3 4 5 6 
#
# 1 0.012897 0.017721 -0.005397 0.000000 0.000000 0.000000
# 2 0.017721 0.012897 -0.005397 0.000000 0.000000 0.000000
# 3 -0.005397 -0.005397 0.011222 0.000000 0.000000 0.000000
# 4 0.000000 0.000000 0.000000 0.070070 0.000000 0.000000
# 5 0.000000 0.000000 0.000000 0.000000 0.070069 0.000000
# 6 0.000000 0.000000 0.000000 0.000000 0.000000 0.162811
#
#
# Mechanical properties :
#
#
# Convention : Reuss Voigt Hill
#
# Bulk Modulus (GPa) = 19.65745 29.06796 24.36270
# Shear Modulus (GPa) = 14.57437 -7.84946 3.36245
#
# Velocity S-wave (km/s) = 2.76321 -2.02786 1.32723
# Velocity P-wave (km/s) = 4.52534 3.12176 3.88742
#
# Compressibility (1/GPa) = 0.05087130
#
# Stress axis : x y z
#
# Youngs Moduli (GPa) = 77.53837 77.53455 89.11094
#
# Poissons Ratio (x) = -1.37401 0.48093
# Poissons Ratio (y) = -1.37408 0.48092
# Poissons Ratio (z) = 0.41847 0.41844
#
# Static dielectric constant tensor:
#      x y z
#    x 1.696800 0.000000 0.000000 
#    y 0.000000 1.696790 0.000000 
#    z 0.000000 0.000000 1.697870 
# 
# From -- ./inp_files/2275.got.cif
#   From: 2010.05.17/outbox.cif.g08.bks.cpg/sg90_2_cif.got.tgz:2275.got - 2010.06.03 19:17:45.
