data_PCOD9547520
_publ_section_title
;
Structure prediction by ZEFSAII (Michael W. Deem and Ramdas Pophale) SiO2 
 PCOD9547520
Probable space group: P 41 2 2
;
_chemical_formula_sum "Si O2"
_cell_formula_units_Z 48
_cell_length_a 13.571980
_cell_length_b 13.571980
_cell_length_c 12.881271
_cell_angle_alpha 90.000000
_cell_angle_beta 90.000000
_cell_angle_gamma 90.000000
_cell_volume 2372.712614
_symmetry_space_group_name_H-M "P 41 2 2"
_symmetry_group_IT_number 91
_symmetry_cell_setting 'tetragonal'
loop_
_space_group_symop_operation_xyz
x,y,z
-y,x,1/4+z
-x,-y,1/2+z
y,-x,3/4+z
x,-y,1/2-z
-x,y,-z
y,x,3/4-z
-y,-x,1/4-z
loop_
_atom_site_type_symbol
_atom_site_label
_atom_site_fract_x
_atom_site_fract_y
_atom_site_fract_z
Si Si1 0.606414 0.631620 0.492716
Si Si2 0.089317 0.556684 0.581774
Si Si3 0.722599 0.254857 0.868232
Si Si4 0.613672 0.850936 0.972409
Si Si5 0.270580 0.461371 0.468250
Si Si6 0.652415 0.935269 0.551994
O O1 0.500000 0.680804 0.500000
O O2 0.603419 0.603419 0.375000
O O3 0.691778 0.706679 0.519405
O O4 0.634390 0.529886 0.551626
O O5 0.187820 0.536140 0.514540
O O6 0.087251 0.633326 0.678763
O O7 0.077417 0.451330 0.638459
O O8 0.000000 0.574327 0.500000
O O9 0.805752 0.319943 0.814094
O O10 0.624138 0.283096 0.802645
O O11 0.726619 0.137892 0.887197
O O12 0.593557 0.771357 0.882630
O O13 0.670534 0.948412 0.936635
O O14 0.500000 0.879465 0.000000
#
# Coordination Sequence:
#
# PCOD9547520 Si02
#       6
#     8   8   8   8   8   8
#     4  12  24  38  54  77 121 175 211 243 306 376
#     4  10  17  33  61  84 112 161 207 261 312 354
#     4  11  25  38  57  87 124 163 214 261 311 381
#     4  12  21  39  62  89 121 169 212 269 317 375
#     4  11  22  38  55  83 122 161 211 253 303 373
#     4  10  21  36  58  87 120 159 208 262 321 373
#
# _framework density 20.230011999999999
#
# number of rings (size 3 to 8) (size 9 to 14) (size 15 to 20)
#    0.000    1.000    6.667    1.500    2.333    2.000 
#    0.000    0.000    0.000    0.000    0.000    0.000 
#    0.000   29.333    0.000    0.000    0.000    0.000 
#
# Total GULP energy -267384.066664 kJ/mol
# GULP energy per Si atom -5570.501389 kJ/mol
# Density = 2.018397 g / cm^3
# Si number density = 20.230012 Si / 1000 Ang^3
#
#
#
# Elastic Constant Matrix: (Units=GPa)
#
#
# Indices 1 2 3 4 5 6 
#
# 1 69.0397 46.0013 17.0480 0.0000 0.0000 0.0000
# 2 46.0013 69.0397 17.0480 0.0000 0.0000 0.0000
# 3 17.0480 17.0480 59.5389 0.0000 0.0000 0.0000
# 4 0.0000 0.0000 0.0000 23.2561 0.0000 0.0000
# 5 0.0000 0.0000 0.0000 0.0000 23.2561 0.0000
# 6 0.0000 0.0000 0.0000 0.0000 0.0000 10.5968
#
#
#
# Elastic Compliance Matrix: (Units=1/GPa)
#
#
# Indices 1 2 3 4 5 6 
#
# 1 0.026452 -0.016954 -0.002720 0.000000 0.000000 0.000000
# 2 -0.016954 0.026452 -0.002720 0.000000 0.000000 0.000000
# 3 -0.002720 -0.002720 0.018353 0.000000 0.000000 0.000000
# 4 0.000000 0.000000 0.000000 0.043000 0.000000 0.000000
# 5 0.000000 0.000000 0.000000 0.000000 0.043000 0.000000
# 6 0.000000 0.000000 0.000000 0.000000 0.000000 0.094368
#
#
# Mechanical properties :
#
#
# Convention : Reuss Voigt Hill
#
# Bulk Modulus (GPa) = 37.77659 39.75701 38.76680
# Shear Modulus (GPa) = 16.38082 19.25651 17.81867
#
# Velocity S-wave (km/s) = 2.84866 3.08860 2.97105
# Velocity P-wave (km/s) = 5.43451 5.69337 5.56544
#
# Compressibility (1/GPa) = 0.02647142
#
# Stress axis : x y z
#
# Youngs Moduli (GPa) = 37.80404 37.80404 54.48615
#
# Poissons Ratio (x) = 0.64091 0.14819
# Poissons Ratio (y) = 0.64091 0.14819
# Poissons Ratio (z) = 0.10282 0.10282
#
# Static dielectric constant tensor:
#      x y z
#    x 1.786830 0.000000 0.000000 
#    y 0.000000 1.786830 0.000000 
#    z 0.000000 0.000000 1.838080 
# 
# From -- ./inp_files/15893.got.cif
#   From: 2010.05.17/outbox.cif.g08.bks.cpg/sg91_8_cif.got.tgz:15893.got - 2010.06.03 19:20:03.
