data_PCOD9547727
_publ_section_title
;
Structure prediction by ZEFSAII (Michael W. Deem and Ramdas Pophale) SiO2 
 PCOD9547727
Probable space group: P 41 2 2
;
_chemical_formula_sum "Si O2"
_cell_formula_units_Z 28
_cell_length_a 14.187734
_cell_length_b 14.187734
_cell_length_c 7.813369
_cell_angle_alpha 90.000000
_cell_angle_beta 90.000000
_cell_angle_gamma 90.000000
_cell_volume 1572.767079
_symmetry_space_group_name_H-M "P 41 2 2"
_symmetry_group_IT_number 91
_symmetry_cell_setting 'tetragonal'
loop_
_space_group_symop_operation_xyz
x,y,z
-y,x,1/4+z
-x,-y,1/2+z
y,-x,3/4+z
x,-y,1/2-z
-x,y,-z
y,x,3/4-z
-y,-x,1/4-z
loop_
_atom_site_type_symbol
_atom_site_label
_atom_site_fract_x
_atom_site_fract_y
_atom_site_fract_z
Si Si1 0.805487 0.805487 0.875000
Si Si2 0.381112 0.887941 0.293133
Si Si3 0.889636 0.590519 0.452455
Si Si4 0.110457 0.789036 0.467912
O O1 0.701089 0.829599 0.800357
O O2 0.870311 0.832289 0.715083
O O3 0.384364 0.881341 0.500658
O O4 0.487150 0.854099 0.247040
O O5 0.369433 0.000000 0.250000
O O6 0.849714 0.682137 0.545272
O O7 0.000000 0.584630 0.500000
O O8 0.159046 0.840955 0.625000
O O9 0.000000 0.783967 0.500000
#
# Coordination Sequence:
#
# PCOD9547727 Si02
#       4
#     4   8   8   8
#     4  12  24  34  60  82 116 148 190 228 286 346
#     4  10  19  34  57  84 111 148 185 232 292 333
#     4   9  18  35  58  80 110 143 188 245 286 322
#     4  11  23  40  56  81 116 152 194 238 274 329
#
# _framework density 17.803018999999999
#
# number of rings (size 3 to 8) (size 9 to 14) (size 15 to 20)
#    0.000    1.714    2.857    3.429    0.000    3.429 
#    2.571    0.000    0.000    0.000    0.000    0.000 
#   17.143    0.000    0.000    0.000    0.000    0.000 
#
# Total GULP energy -155952.748961 kJ/mol
# GULP energy per Si atom -5569.741034 kJ/mol
# Density = 1.776250 g / cm^3
# Si number density = 17.803019 Si / 1000 Ang^3
#
#
#
# Elastic Constant Matrix: (Units=GPa)
#
#
# Indices 1 2 3 4 5 6 
#
# 1 79.8224 49.2195 36.5947 0.0000 0.0000 0.0000
# 2 49.2195 79.8231 36.5946 0.0000 0.0000 0.0000
# 3 36.5947 36.5946 116.6517 0.0000 0.0000 0.0000
# 4 0.0000 0.0000 0.0000 16.8417 0.0000 0.0000
# 5 0.0000 0.0000 0.0000 0.0000 16.8417 0.0000
# 6 0.0000 0.0000 0.0000 0.0000 0.0000 -18.6253
#
#
#
# Elastic Compliance Matrix: (Units=1/GPa)
#
#
# Indices 1 2 3 4 5 6 
#
# 1 0.021052 -0.011625 -0.002957 0.000000 0.000000 0.000000
# 2 -0.011625 0.021051 -0.002957 0.000000 0.000000 0.000000
# 3 -0.002957 -0.002957 0.010428 0.000000 0.000000 0.000000
# 4 0.000000 0.000000 0.000000 0.059377 0.000000 0.000000
# 5 0.000000 0.000000 0.000000 0.000000 0.059376 0.000000
# 6 0.000000 0.000000 0.000000 0.000000 0.000000 -0.053690
#
#
# Mechanical properties :
#
#
# Convention : Reuss Voigt Hill
#
# Bulk Modulus (GPa) = 57.29887 57.90168 57.60027
# Shear Modulus (GPa) = 31.54782 13.27083 22.40932
#
# Velocity S-wave (km/s) = 4.21414 2.73321 3.55172
# Velocity P-wave (km/s) = 7.47886 6.52340 7.01741
#
# Compressibility (1/GPa) = 0.01745235
#
# Stress axis : x y z
#
# Youngs Moduli (GPa) = 47.50238 47.50292 95.89620
#
# Poissons Ratio (x) = 0.55221 0.28359
# Poissons Ratio (y) = 0.55221 0.28358
# Poissons Ratio (z) = 0.14048 0.14047
#
# Static dielectric constant tensor:
#      x y z
#    x 1.634950 0.000000 0.000000 
#    y 0.000000 1.634950 0.000000 
#    z 0.000000 0.000000 1.657960 
# 
# From -- ./inp_files/9396.got.cif
#   From: 2010.05.17/outbox.cif.g08.bks.cpg/sg91_5_cif.got.tgz:9396.got - 2010.06.03 19:20:03.
