data_PCOD9547496
_publ_section_title
;
Structure prediction by ZEFSAII (Michael W. Deem and Ramdas Pophale) SiO2 
 PCOD9547496
Probable space group: P 41 2 2
;
_chemical_formula_sum "Si O2"
_cell_formula_units_Z 48
_cell_length_a 25.115564
_cell_length_b 25.115564
_cell_length_c 5.413283
_cell_angle_alpha 90.000000
_cell_angle_beta 90.000000
_cell_angle_gamma 90.000000
_cell_volume 3414.653201
_symmetry_space_group_name_H-M "P 41 2 2"
_symmetry_group_IT_number 91
_symmetry_cell_setting 'tetragonal'
loop_
_space_group_symop_operation_xyz
x,y,z
-y,x,1/4+z
-x,-y,1/2+z
y,-x,3/4+z
x,-y,1/2-z
-x,y,-z
y,x,3/4-z
-y,-x,1/4-z
loop_
_atom_site_type_symbol
_atom_site_label
_atom_site_fract_x
_atom_site_fract_y
_atom_site_fract_z
Si Si1 0.056130 0.558158 0.252161
Si Si2 0.664037 0.981620 0.499685
Si Si3 0.408890 0.111562 0.002763
Si Si4 0.232467 0.435568 0.741463
Si Si5 0.579775 0.500000 0.250000
Si Si6 0.435790 0.704142 0.988708
Si Si7 0.406405 0.406405 0.375000
O O1 0.029934 0.500000 0.250000
O O2 0.091909 0.563719 0.498146
O O3 0.014833 0.607303 0.251741
O O4 0.090699 0.563342 0.003444
O O5 0.647279 0.920101 0.500619
O O6 0.691674 0.000000 0.250000
O O7 0.691370 0.000000 0.750000
O O8 0.408687 0.174761 0.013482
O O9 0.224610 0.500000 0.750000
O O10 0.266728 0.421654 0.497194
O O11 0.262181 0.422116 0.995901
O O12 0.542536 0.542536 0.375000
O O13 0.602187 0.461411 0.466541
O O14 0.408696 0.646420 0.960937
O O15 0.500000 0.699189 0.000000
#
# Coordination Sequence:
#
# PCOD9547496 Si02
#       7
#     8   8   8   8   4   8   4
#     4  10  17  23  34  52  72  94 124 155 178 192
#     4   8  16  24  32  50  72  93 122 154 179 194
#     4  10  18  27  39  52  71 100 123 146 170 188
#     4  10  20  33  46  60  80 101 124 139 155 190
#     4  12  22  38  54  82  90  94 102 118 154 218
#     4  10  23  38  50  67  82  97 114 133 157 199
#     4  12  26  38  60  70  92 100 108 130 170 206
#
# _framework density 14.057062999999999
#
# number of rings (size 3 to 8) (size 9 to 14) (size 15 to 20)
#    0.000    2.000    0.833    3.500    5.833    8.000 
#    0.000    0.000    0.000    0.000    0.000    0.000 
#    0.000    0.000    0.000    0.000    0.000    0.000 
#
# Total GULP energy -267324.708489 kJ/mol
# GULP energy per Si atom -5569.264760 kJ/mol
# Density = 1.402507 g / cm^3
# Si number density = 14.057063 Si / 1000 Ang^3
#
#
#
# Elastic Constant Matrix: (Units=GPa)
#
#
# Indices 1 2 3 4 5 6 
#
# 1 37.6832 26.8000 24.7147 0.0000 0.0000 0.0000
# 2 26.8000 37.6832 24.7147 0.0000 0.0000 0.0000
# 3 24.7147 24.7147 131.3518 0.0000 0.0000 0.0000
# 4 0.0000 0.0000 0.0000 17.8735 0.0000 0.0000
# 5 0.0000 0.0000 0.0000 0.0000 17.8735 0.0000
# 6 0.0000 0.0000 0.0000 0.0000 0.0000 1.2437
#
#
#
# Elastic Compliance Matrix: (Units=1/GPa)
#
#
# Indices 1 2 3 4 5 6 
#
# 1 0.055003 -0.036881 -0.003410 0.000000 0.000000 0.000000
# 2 -0.036881 0.055003 -0.003410 0.000000 0.000000 0.000000
# 3 -0.003410 -0.003410 0.008896 0.000000 0.000000 0.000000
# 4 0.000000 0.000000 0.000000 0.055949 0.000000 0.000000
# 5 0.000000 0.000000 0.000000 0.000000 0.055949 0.000000
# 6 0.000000 0.000000 0.000000 0.000000 0.000000 0.804040
#
#
# Mechanical properties :
#
#
# Convention : Reuss Voigt Hill
#
# Bulk Modulus (GPa) = 31.74535 39.90856 35.82696
# Shear Modulus (GPa) = 4.41407 16.09739 10.25573
#
# Velocity S-wave (km/s) = 1.77396 3.38767 2.70400
# Velocity P-wave (km/s) = 5.17959 6.61466 5.94062
#
# Compressibility (1/GPa) = 0.03150067
#
# Stress axis : x y z
#
# Youngs Moduli (GPa) = 18.18084 18.18084 112.40681
#
# Poissons Ratio (x) = 0.67053 0.38327
# Poissons Ratio (y) = 0.67053 0.38327
# Poissons Ratio (z) = 0.06199 0.06199
#
# Static dielectric constant tensor:
#      x y z
#    x 1.438770 0.000000 0.000000 
#    y 0.000000 1.438770 0.000000 
#    z 0.000000 0.000000 1.519030 
# 
# From -- ./inp_files/1459.got.cif
#   From: 2010.05.17/outbox.cif.g08.bks.cpg/sg91_1_cif.got.tgz:1459.got - 2010.06.03 19:20:03.
