data_PCOD9547242
_publ_section_title
;
Structure prediction by ZEFSAII (Michael W. Deem and Ramdas Pophale) SiO2 
 PCOD9547242
Probable space group: P 4 21 2
;
_chemical_formula_sum "Si O2"
_cell_formula_units_Z 56
_cell_length_a 14.755519
_cell_length_b 14.755519
_cell_length_c 13.073531
_cell_angle_alpha 90.000000
_cell_angle_beta 90.000000
_cell_angle_gamma 90.000000
_cell_volume 2846.438995
_symmetry_space_group_name_H-M "P 4 21 2"
_symmetry_group_IT_number 90
_symmetry_cell_setting 'tetragonal'
loop_
_space_group_symop_operation_xyz
x,y,z
1/2-y,1/2+x,z
-x,-y,z
1/2+y,1/2-x,z
1/2+x,1/2-y,-z
1/2-x,1/2+y,-z
y,x,-z
-y,-x,-z
loop_
_atom_site_type_symbol
_atom_site_label
_atom_site_fract_x
_atom_site_fract_y
_atom_site_fract_z
Si Si1 0.928151 0.079713 0.619978
Si Si2 0.626324 0.747946 0.721090
Si Si3 0.758447 0.614109 0.036793
Si Si4 0.980131 0.752224 0.735727
Si Si5 0.153657 0.689036 0.659821
Si Si6 0.077073 0.629092 0.456616
Si Si7 0.258679 0.593445 0.963489
O O1 0.905854 0.094147 0.500000
O O2 0.835566 0.063749 0.682551
O O3 0.977518 0.161927 0.678206
O O4 0.000000 0.000000 0.624337
O O5 0.623889 0.763795 0.841041
O O6 0.726662 0.715766 0.688860
O O7 0.599727 0.833782 0.654641
O O8 0.667819 0.667819 0.000000
O O9 0.842393 0.670729 0.986374
O O10 0.752584 0.506636 0.013539
O O11 0.902518 0.708508 0.668497
O O12 0.933500 0.769578 0.844413
O O13 0.068243 0.687110 0.737757
O O14 0.115915 0.693677 0.544895
O O15 0.118986 0.529942 0.469526
O O16 0.344994 0.655007 0.000000
#
# Coordination Sequence:
#
# PCOD9547242 Si02
#       7
#     8   8   8   8   8   8   8
#     4  10  23  42  64 101 138 171 223 276 326 416
#     4  11  24  41  68  88 140 175 220 273 342 397
#     4  11  25  47  67 103 139 178 239 296 335 418
#     4  11  22  40  69  92 135 175 222 278 344 392
#     4  11  21  41  64  97 127 175 219 276 336 403
#     4  11  24  41  62  98 133 168 222 272 327 417
#     4  11  25  45  71 102 140 180 239 290 352 414
#
# _framework density 19.673705000000002
#
# number of rings (size 3 to 8) (size 9 to 14) (size 15 to 20)
#    0.000    1.143    1.429    6.429    4.000    2.000 
#    2.571    1.429    0.000    0.000    0.000    0.000 
#    0.000    0.000    0.000    0.000    0.000    0.000 
#
# Total GULP energy -312599.066656 kJ/mol
# GULP energy per Si atom -5582.126190 kJ/mol
# Density = 1.962893 g / cm^3
# Si number density = 19.673705 Si / 1000 Ang^3
#
#
#
# Elastic Constant Matrix: (Units=GPa)
#
#
# Indices 1 2 3 4 5 6 
#
# 1 89.5562 37.5615 37.6729 0.0000 0.0000 0.0000
# 2 37.5615 89.5563 37.6727 0.0000 0.0000 0.0000
# 3 37.6729 37.6727 162.0114 0.0000 0.0000 0.0000
# 4 0.0000 0.0000 0.0000 9.8580 0.0000 0.0000
# 5 0.0000 0.0000 0.0000 0.0000 9.8586 0.0000
# 6 0.0000 0.0000 0.0000 0.0000 0.0000 33.6113
#
#
#
# Elastic Compliance Matrix: (Units=1/GPa)
#
#
# Indices 1 2 3 4 5 6 
#
# 1 0.014179 -0.005054 -0.002122 0.000000 0.000000 0.000000
# 2 -0.005054 0.014178 -0.002122 0.000000 0.000000 0.000000
# 3 -0.002122 -0.002122 0.007159 0.000000 0.000000 0.000000
# 4 0.000000 0.000000 0.000000 0.101441 0.000000 0.000000
# 5 0.000000 0.000000 0.000000 0.000000 0.101434 0.000000
# 6 0.000000 0.000000 0.000000 0.000000 0.000000 0.029752
#
#
# Mechanical properties :
#
#
# Convention : Reuss Voigt Hill
#
# Bulk Modulus (GPa) = 59.09828 62.99311 61.04569
# Shear Modulus (GPa) = 17.10111 25.88003 21.49057
#
# Velocity S-wave (km/s) = 2.95148 3.63087 3.30866
# Velocity P-wave (km/s) = 6.45906 7.04741 6.75964
#
# Compressibility (1/GPa) = 0.01692097
#
# Stress axis : x y z
#
# Youngs Moduli (GPa) = 70.52921 70.52937 139.68190
#
# Poissons Ratio (x) = 0.35647 0.29636
# Poissons Ratio (y) = 0.35647 0.29636
# Poissons Ratio (z) = 0.14964 0.14964
#
# Static dielectric constant tensor:
#      x y z
#    x 1.730340 0.000000 0.000000 
#    y 0.000000 1.730330 0.000000 
#    z 0.000000 0.000000 1.706260 
# 
# From -- ./inp_files/2274.got.cif
#   From: 2010.05.17/outbox.cif.g08.bks.cpg/sg90_2_cif.got.tgz:2274.got - 2010.06.03 19:17:45.
