data_PCOD9547531
_publ_section_title
;
Structure prediction by ZEFSAII (Michael W. Deem and Ramdas Pophale) SiO2 
 PCOD9547531
Probable space group: P 41 2 2
;
_chemical_formula_sum "Si O2"
_cell_formula_units_Z 40
_cell_length_a 8.470261
_cell_length_b 8.470261
_cell_length_c 25.246619
_cell_angle_alpha 90.000000
_cell_angle_beta 90.000000
_cell_angle_gamma 90.000000
_cell_volume 1811.326795
_symmetry_space_group_name_H-M "P 41 2 2"
_symmetry_group_IT_number 91
_symmetry_cell_setting 'tetragonal'
loop_
_space_group_symop_operation_xyz
x,y,z
-y,x,1/4+z
-x,-y,1/2+z
y,-x,3/4+z
x,-y,1/2-z
-x,y,-z
y,x,3/4-z
-y,-x,1/4-z
loop_
_atom_site_type_symbol
_atom_site_label
_atom_site_fract_x
_atom_site_fract_y
_atom_site_fract_z
Si Si1 0.256856 0.340913 0.041606
Si Si2 0.606957 0.780537 0.051768
Si Si3 0.389766 0.144555 0.356394
Si Si4 0.625965 0.399778 0.066478
Si Si5 0.878492 0.128797 0.386162
O O1 0.175750 0.509303 0.054251
O O2 0.442283 0.358269 0.056113
O O3 0.181292 0.217941 0.082984
O O4 0.263491 0.323048 0.978414
O O5 0.511739 0.876869 0.096332
O O6 0.632134 0.592731 0.063820
O O7 0.775420 0.862153 0.060060
O O8 0.500000 0.790508 0.000000
O O9 0.303660 0.303660 0.375000
O O10 0.262099 0.010269 0.354465
O O11 0.660409 0.339592 0.125000
O O12 0.965664 0.965664 0.375000
#
# Coordination Sequence:
#
# PCOD9547531 Si02
#       5
#     8   8   8   8   8
#     4  10  19  36  68 103 143 181 238 304 355 416
#     4  11  19  38  70 105 128 184 244 296 349 424
#     4  10  17  37  62  97 135 178 236 286 359 431
#     4  11  17  34  71 111 138 171 245 310 350 410
#     4  10  23  39  66 100 148 190 238 303 371 445
#
# _framework density 22.083259999999999
#
# number of rings (size 3 to 8) (size 9 to 14) (size 15 to 20)
#    0.000    1.600    8.000    0.000    0.000    0.000 
#    3.600    9.000   17.600    4.800    0.000    4.200 
#    0.000    0.000    0.000    0.000    0.000    0.000 
#
# Total GULP energy -223131.660806 kJ/mol
# GULP energy per Si atom -5578.291520 kJ/mol
# Density = 2.203300 g / cm^3
# Si number density = 22.083260 Si / 1000 Ang^3
#
#
#
# Elastic Constant Matrix: (Units=GPa)
#
#
# Indices 1 2 3 4 5 6 
#
# 1 41.5749 66.5527 33.5635 0.0000 0.0000 0.0000
# 2 66.5527 41.5750 33.5637 0.0000 0.0000 0.0000
# 3 33.5635 33.5637 168.4859 0.0000 0.0000 0.0000
# 4 0.0000 0.0000 0.0000 15.8561 0.0000 0.0000
# 5 0.0000 0.0000 0.0000 0.0000 15.8568 0.0000
# 6 0.0000 0.0000 0.0000 0.0000 0.0000 33.8624
#
#
#
# Elastic Compliance Matrix: (Units=1/GPa)
#
#
# Indices 1 2 3 4 5 6 
#
# 1 -0.014741 0.025295 -0.002102 0.000000 0.000000 0.000000
# 2 0.025295 -0.014741 -0.002102 0.000000 0.000000 0.000000
# 3 -0.002102 -0.002102 0.006773 0.000000 0.000000 0.000000
# 4 0.000000 0.000000 0.000000 0.063067 0.000000 0.000000
# 5 0.000000 0.000000 0.000000 0.000000 0.063064 0.000000
# 6 0.000000 0.000000 0.000000 0.000000 0.000000 0.029531
#
#
# Mechanical properties :
#
#
# Convention : Reuss Voigt Hill
#
# Bulk Modulus (GPa) = 51.35985 57.66617 54.51301
# Shear Modulus (GPa) = 51.40661 20.97879 36.19270
#
# Velocity S-wave (km/s) = 4.83002 3.08553 4.05275
# Velocity P-wave (km/s) = 7.37654 6.23408 6.82924
#
# Compressibility (1/GPa) = 0.01947046
#
# Stress axis : x y z
#
# Youngs Moduli (GPa) = -67.83750 -67.83748 147.64913
#
# Poissons Ratio (x) = 1.71592 0.31041
# Poissons Ratio (y) = 1.71592 0.31040
# Poissons Ratio (z) = -0.14262 -0.14261
#
# Static dielectric constant tensor:
#      x y z
#    x 2.144630 0.000000 0.000000 
#    y 0.000000 2.144590 0.000000 
#    z 0.000000 0.000000 1.782060 
# 
# From -- ./inp_files/7364.got.cif
#   From: 2010.05.17/outbox.cif.g08.bks.cpg/sg91_4_cif.got.tgz:7364.got - 2010.06.03 19:20:03.
