data_PCOD9547377
_publ_section_title
;
Structure prediction by ZEFSAII (Michael W. Deem and Ramdas Pophale) SiO2 
 PCOD9547377
Probable space group: P 4 21 2
;
_chemical_formula_sum "Si O2"
_cell_formula_units_Z 28
_cell_length_a 8.328104
_cell_length_b 8.328104
_cell_length_c 19.120079
_cell_angle_alpha 90.000000
_cell_angle_beta 90.000000
_cell_angle_gamma 90.000000
_cell_volume 1326.117366
_symmetry_space_group_name_H-M "P 4 21 2"
_symmetry_group_IT_number 90
_symmetry_cell_setting 'tetragonal'
loop_
_space_group_symop_operation_xyz
x,y,z
1/2-y,1/2+x,z
-x,-y,z
1/2+y,1/2-x,z
1/2+x,1/2-y,-z
1/2-x,1/2+y,-z
y,x,-z
-y,-x,-z
loop_
_atom_site_type_symbol
_atom_site_label
_atom_site_fract_x
_atom_site_fract_y
_atom_site_fract_z
Si Si1 0.760697 0.079318 0.565900
Si Si2 0.500000 0.500000 0.814870
Si Si3 0.554055 0.736165 0.311765
Si Si4 0.546427 0.735305 0.942452
O O1 0.601549 0.192746 0.564334
O O2 0.867498 0.132503 0.500000
O O3 0.868660 0.110555 0.634077
O O4 0.649788 0.527103 0.762620
O O5 0.523915 0.648230 0.868027
O O6 0.382318 0.820205 0.321767
O O7 0.376754 0.823470 0.949964
O O8 0.609731 0.609731 0.000000
#
# Coordination Sequence:
#
# PCOD9547377 Si02
#       4
#     8   4   8   8
#     4  11  24  42  66  97 133 176 228 288 355 424
#     4  12  23  42  65  94 134 178 226 280 339 406
#     4  11  24  41  63  93 130 175 227 283 345 413
#     4  11  24  43  70 103 140 182 228 280 339 406
#
# _framework density 21.114267999999999
#
# number of rings (size 3 to 8) (size 9 to 14) (size 15 to 20)
#    0.000    0.857    0.000    7.286    0.000    5.143 
#    0.000    5.714    0.000    0.000    0.000    0.000 
#    0.000    0.000    0.000    0.000    0.000    0.000 
#
# Total GULP energy -156116.900191 kJ/mol
# GULP energy per Si atom -5575.603578 kJ/mol
# Density = 2.106621 g / cm^3
# Si number density = 21.114268 Si / 1000 Ang^3
#
#
#
# Elastic Constant Matrix: (Units=GPa)
#
#
# Indices 1 2 3 4 5 6 
#
# 1 256.5373 -32.9503 67.4156 0.0000 0.0000 0.0000
# 2 -32.9503 256.5394 67.4138 0.0000 0.0000 0.0000
# 3 67.4156 67.4138 124.0777 0.0000 0.0000 0.0000
# 4 0.0000 0.0000 0.0000 47.7731 0.0000 0.0000
# 5 0.0000 0.0000 0.0000 0.0000 47.7748 0.0000
# 6 0.0000 0.0000 0.0000 0.0000 0.0000 59.4948
#
#
#
# Elastic Compliance Matrix: (Units=1/GPa)
#
#
# Indices 1 2 3 4 5 6 
#
# 1 0.005053 0.001599 -0.003614 0.000000 0.000000 0.000000
# 2 0.001599 0.005053 -0.003614 0.000000 0.000000 0.000000
# 3 -0.003614 -0.003614 0.011987 0.000000 0.000000 0.000000
# 4 0.000000 0.000000 0.000000 0.020932 0.000000 0.000000
# 5 0.000000 0.000000 0.000000 0.000000 0.020932 0.000000
# 6 0.000000 0.000000 0.000000 0.000000 0.000000 0.016808
#
#
# Mechanical properties :
#
#
# Convention : Reuss Voigt Hill
#
# Bulk Modulus (GPa) = 92.30193 93.43471 92.86832
# Shear Modulus (GPa) = 52.28177 66.69357 59.48767
#
# Velocity S-wave (km/s) = 4.98148 5.62633 5.31369
# Velocity P-wave (km/s) = 8.76910 9.30351 9.04026
#
# Compressibility (1/GPa) = 0.01083401
#
# Stress axis : x y z
#
# Youngs Moduli (GPa) = 197.89407 197.89770 83.42495
#
# Poissons Ratio (x) = -0.31640 0.30152
# Poissons Ratio (y) = -0.31639 0.30151
# Poissons Ratio (z) = 0.71524 0.71523
#
# Static dielectric constant tensor:
#      x y z
#    x 1.590000 0.000000 0.000000 
#    y 0.000000 1.589880 0.000000 
#    z 0.000000 0.000000 1.735950 
# 
# From -- ./inp_files/2602.got.cif
#   From: 2010.05.17/outbox.cif.g08.bks.cpg/sg90_2_cif.got.tgz:2602.got - 2010.06.03 19:17:45.
