data_PCOD9547539
_publ_section_title
;
Structure prediction by ZEFSAII (Michael W. Deem and Ramdas Pophale) SiO2 
 PCOD9547539
Probable space group: P 41 2 2
;
_chemical_formula_sum "Si O2"
_cell_formula_units_Z 40
_cell_length_a 16.590284
_cell_length_b 16.590284
_cell_length_c 7.951634
_cell_angle_alpha 90.000000
_cell_angle_beta 90.000000
_cell_angle_gamma 90.000000
_cell_volume 2188.588048
_symmetry_space_group_name_H-M "P 41 2 2"
_symmetry_group_IT_number 91
_symmetry_cell_setting 'tetragonal'
loop_
_space_group_symop_operation_xyz
x,y,z
-y,x,1/4+z
-x,-y,1/2+z
y,-x,3/4+z
x,-y,1/2-z
-x,y,-z
y,x,3/4-z
-y,-x,1/4-z
loop_
_atom_site_type_symbol
_atom_site_label
_atom_site_fract_x
_atom_site_fract_y
_atom_site_fract_z
Si Si1 0.201922 0.635519 0.723282
Si Si2 0.415094 0.093660 0.293488
Si Si3 0.663885 0.464315 0.046818
Si Si4 0.391734 0.909058 0.819362
Si Si5 0.342198 0.663996 0.304929
O O1 0.259169 0.565041 0.650562
O O2 0.146411 0.655140 0.564638
O O3 0.272721 0.688440 0.807153
O O4 0.147574 0.613875 0.886156
O O5 0.511783 0.105364 0.301381
O O6 0.377954 0.106179 0.481100
O O7 0.401056 0.000000 0.250000
O O8 0.584653 0.415348 0.125000
O O9 0.659157 0.559838 0.040030
O O10 0.679073 0.424370 0.866988
O O11 0.378850 0.000000 0.750000
O O12 0.311596 0.688405 0.125000
#
# Coordination Sequence:
#
# PCOD9547539 Si02
#       5
#     8   8   8   8   8
#     4  11  21  35  48  66  94 116 145 188 237 299
#     4  10  18  28  46  70  92 116 142 169 217 286
#     4  10  21  36  51  65  87 115 154 209 264 306
#     4  10  18  28  46  69  93 118 139 169 220 285
#     4  11  23  35  50  68  85 116 160 208 263 306
#
# _framework density 18.276624000000002
#
# number of rings (size 3 to 8) (size 9 to 14) (size 15 to 20)
#    0.000    1.600    2.000    6.000    2.800    2.400 
#    0.000    0.000    0.000    0.000    0.000    0.000 
#    0.000    0.000    0.000    0.000    0.000    0.000 
#
# Total GULP energy -222704.761705 kJ/mol
# GULP energy per Si atom -5567.619043 kJ/mol
# Density = 1.823503 g / cm^3
# Si number density = 18.276624 Si / 1000 Ang^3
#
#
#
# Elastic Constant Matrix: (Units=GPa)
#
#
# Indices 1 2 3 4 5 6 
#
# 1 64.4498 5.7903 32.5323 0.0000 0.0000 0.0000
# 2 5.7903 64.4488 32.5322 0.0000 0.0000 0.0000
# 3 32.5323 32.5322 178.5744 0.0000 0.0000 0.0000
# 4 0.0000 0.0000 0.0000 19.7606 0.0000 0.0000
# 5 0.0000 0.0000 0.0000 0.0000 19.7614 0.0000
# 6 0.0000 0.0000 0.0000 0.0000 0.0000 7.3874
#
#
#
# Elastic Compliance Matrix: (Units=1/GPa)
#
#
# Indices 1 2 3 4 5 6 
#
# 1 0.017087 0.000040 -0.003120 0.000000 0.000000 0.000000
# 2 0.000040 0.017088 -0.003120 0.000000 0.000000 0.000000
# 3 -0.003120 -0.003120 0.006737 0.000000 0.000000 0.000000
# 4 0.000000 0.000000 0.000000 0.050606 0.000000 0.000000
# 5 0.000000 0.000000 0.000000 0.000000 0.050604 0.000000
# 6 0.000000 0.000000 0.000000 0.000000 0.000000 0.135365
#
#
# Mechanical properties :
#
#
# Convention : Reuss Voigt Hill
#
# Bulk Modulus (GPa) = 35.07478 49.90920 42.49199
# Shear Modulus (GPa) = 16.70054 25.15642 20.92848
#
# Velocity S-wave (km/s) = 3.02613 3.71405 3.38760
# Velocity P-wave (km/s) = 5.60738 6.76455 6.21296
#
# Compressibility (1/GPa) = 0.02851051
#
# Stress axis : x y z
#
# Youngs Moduli (GPa) = 58.52284 58.52189 148.43912
#
# Poissons Ratio (x) = -0.00233 0.46316
# Poissons Ratio (y) = -0.00233 0.46316
# Poissons Ratio (z) = 0.18260 0.18260
#
# Static dielectric constant tensor:
#      x y z
#    x 1.663000 0.000000 0.000000 
#    y 0.000000 1.663000 0.000000 
#    z 0.000000 0.000000 1.801190 
# 
# From -- ./inp_files/19518.got.cif
#   From: 2010.05.17/outbox.cif.g08.bks.cpg/sg91_10_cif.got.tgz:19518.got - 2010.06.03 19:20:03.
