data_PCOD9547095
_publ_section_title
;
Structure prediction by ZEFSAII (Michael W. Deem and Ramdas Pophale) SiO2 
 PCOD9547095
Probable space group: P 4 21 2
;
_chemical_formula_sum "Si O2"
_cell_formula_units_Z 64
_cell_length_a 11.759907
_cell_length_b 11.759907
_cell_length_c 24.825192
_cell_angle_alpha 90.000000
_cell_angle_beta 90.000000
_cell_angle_gamma 90.000000
_cell_volume 3433.210172
_symmetry_space_group_name_H-M "P 4 21 2"
_symmetry_group_IT_number 90
_symmetry_cell_setting 'tetragonal'
loop_
_space_group_symop_operation_xyz
x,y,z
1/2-y,1/2+x,z
-x,-y,z
1/2+y,1/2-x,z
1/2+x,1/2-y,-z
1/2-x,1/2+y,-z
y,x,-z
-y,-x,-z
loop_
_atom_site_type_symbol
_atom_site_label
_atom_site_fract_x
_atom_site_fract_y
_atom_site_fract_z
Si Si1 0.125324 0.816174 0.439560
Si Si2 0.573735 0.385893 0.120647
Si Si3 0.619793 0.434477 0.761973
Si Si4 0.440402 0.821160 0.723709
Si Si5 0.465345 0.814797 0.038257
Si Si6 0.113846 0.238072 0.395043
Si Si7 0.041834 0.317662 0.090172
Si Si8 0.360381 0.501941 0.648147
O O1 0.144716 0.855285 0.500000
O O2 0.183745 0.696634 0.428340
O O3 0.992369 0.801184 0.429739
O O4 0.169475 0.901514 0.392597
O O5 0.500000 0.500000 0.113114
O O6 0.551872 0.328451 0.178827
O O7 0.553000 0.296744 0.073155
O O8 0.703915 0.426691 0.120268
O O9 0.500000 0.500000 0.766978
O O10 0.595823 0.300769 0.748699
O O11 0.678310 0.494288 0.710358
O O12 0.570140 0.859819 0.737016
O O13 0.430241 0.799644 0.659299
O O14 0.588037 0.871385 0.049662
O O15 0.457331 0.793781 0.974107
O O16 0.174700 0.122358 0.376462
O O17 0.131212 0.417879 0.102331
O O18 0.500000 0.500000 0.651051
#
# Coordination Sequence:
#
# PCOD9547095 Si02
#       8
#     8   8   8   8   8   8   8   8
#     4  11  23  34  58  85 115 149 182 236 284 340
#     4  11  23  36  56  90 120 153 198 252 297 359
#     4   9  20  38  54  79 118 155 190 233 287 352
#     4  10  19  35  60  88 114 146 188 241 301 347
#     4   9  20  40  60  81 113 157 206 247 300 358
#     4  10  20  36  56  84 113 142 186 231 281 335
#     4   9  20  38  60  85 120 159 191 245 312 367
#     4   8  18  37  57  75 106 150 189 221 271 347
#
# _framework density 18.641445000000001
#
# number of rings (size 3 to 8) (size 9 to 14) (size 15 to 20)
#    0.000    2.375    1.250    1.875    3.500    4.000 
#    2.250    1.250    0.000    0.375    0.000    0.000 
#    0.000    0.000    0.000    0.000    0.000    0.000 
#
# Total GULP energy -356828.993123 kJ/mol
# GULP energy per Si atom -5575.453018 kJ/mol
# Density = 1.859902 g / cm^3
# Si number density = 18.641445 Si / 1000 Ang^3
#
#
#
# Elastic Constant Matrix: (Units=GPa)
#
#
# Indices 1 2 3 4 5 6 
#
# 1 48.8987 13.3927 23.9502 0.0000 0.0000 0.0000
# 2 13.3927 48.8986 23.9502 0.0000 0.0000 0.0000
# 3 23.9502 23.9502 59.0119 0.0000 0.0000 0.0000
# 4 0.0000 0.0000 0.0000 6.3995 0.0000 0.0000
# 5 0.0000 0.0000 0.0000 0.0000 6.3993 0.0000
# 6 0.0000 0.0000 0.0000 0.0000 0.0000 2.6050
#
#
#
# Elastic Compliance Matrix: (Units=1/GPa)
#
#
# Indices 1 2 3 4 5 6 
#
# 1 0.025750 -0.002414 -0.009471 0.000000 0.000000 0.000000
# 2 -0.002414 0.025751 -0.009471 0.000000 0.000000 0.000000
# 3 -0.009471 -0.009471 0.024634 0.000000 0.000000 0.000000
# 4 0.000000 0.000000 0.000000 0.156262 0.000000 0.000000
# 5 0.000000 0.000000 0.000000 0.000000 0.156268 0.000000
# 6 0.000000 0.000000 0.000000 0.000000 0.000000 0.383874
#
#
# Mechanical properties :
#
#
# Convention : Reuss Voigt Hill
#
# Bulk Modulus (GPa) = 29.92047 31.04395 30.48221
# Shear Modulus (GPa) = 6.05040 9.44850 7.74945
#
# Velocity S-wave (km/s) = 1.80353 2.25379 2.04111
# Velocity P-wave (km/s) = 4.51910 4.84377 4.68425
#
# Compressibility (1/GPa) = 0.03342194
#
# Stress axis : x y z
#
# Youngs Moduli (GPa) = 38.83423 38.83415 40.59492
#
# Poissons Ratio (x) = 0.09374 0.38449
# Poissons Ratio (y) = 0.09374 0.38449
# Poissons Ratio (z) = 0.36781 0.36781
#
# Static dielectric constant tensor:
#      x y z
#    x 1.643910 0.000000 0.000000 
#    y 0.000000 1.643910 0.000000 
#    z 0.000000 0.000000 1.689670 
# 
# From -- ./inp_files/2950.got.cif
#   From: 2010.05.17/outbox.cif.g08.bks.cpg/sg90_2_cif.got.tgz:2950.got - 2010.06.03 19:17:45.
