data_PCOD9547698
_publ_section_title
;
Structure prediction by ZEFSAII (Michael W. Deem and Ramdas Pophale) SiO2 
 PCOD9547698
Probable space group: P 41 2 2
;
_chemical_formula_sum "Si O2"
_cell_formula_units_Z 44
_cell_length_a 11.688517
_cell_length_b 11.688517
_cell_length_c 18.522164
_cell_angle_alpha 90.000000
_cell_angle_beta 90.000000
_cell_angle_gamma 90.000000
_cell_volume 2530.524526
_symmetry_space_group_name_H-M "P 41 2 2"
_symmetry_group_IT_number 91
_symmetry_cell_setting 'tetragonal'
loop_
_space_group_symop_operation_xyz
x,y,z
-y,x,1/4+z
-x,-y,1/2+z
y,-x,3/4+z
x,-y,1/2-z
-x,y,-z
y,x,3/4-z
-y,-x,1/4-z
loop_
_atom_site_type_symbol
_atom_site_label
_atom_site_fract_x
_atom_site_fract_y
_atom_site_fract_z
Si Si1 0.500000 0.742780 0.000000
Si Si2 0.196707 0.688916 0.694927
Si Si3 0.445261 0.445261 0.375000
Si Si4 0.067125 0.678059 0.302517
Si Si5 0.103113 0.934595 0.048937
Si Si6 0.802398 0.101102 0.300968
Si Si7 0.500000 0.372505 0.000000
O O1 0.459536 0.663491 0.069076
O O2 0.595633 0.832670 0.026227
O O3 0.239374 0.760627 0.625000
O O4 0.196524 0.780539 0.759160
O O5 0.289795 0.594043 0.714334
O O6 0.066679 0.639856 0.689188
O O7 0.549088 0.452271 0.316154
O O8 0.104421 0.727012 0.379031
O O9 0.063326 0.784174 0.248066
O O10 0.071314 0.065807 0.068931
O O11 0.124721 0.875280 0.125000
O O12 0.000000 0.887023 0.000000
O O13 0.758934 0.000000 0.250000
#
# Coordination Sequence:
#
# PCOD9547698 Si02
#       7
#     4   8   4   8   8   8   4
#     4  11  25  44  62  88 117 161 210 244 322 353
#     4  11  21  35  61  92 124 155 201 254 306 356
#     4  10  24  44  68  80 112 160 210 266 296 372
#     4  11  22  37  60  88 127 160 191 253 297 367
#     4  10  19  32  55  87 122 156 193 231 286 365
#     4  10  19  32  55  87 122 158 196 234 298 356
#     4  11  21  42  64  90 107 155 216 262 308 351
#
# _framework density 17.387698
#
# number of rings (size 3 to 8) (size 9 to 14) (size 15 to 20)
#    0.000    1.455    4.545    1.636    1.273    0.000 
#    0.000    0.000    0.000    1.091    0.000    0.000 
#    0.000    0.000    0.000    0.000    0.000    0.000 
#
# Total GULP energy -245079.319187 kJ/mol
# GULP energy per Si atom -5569.984527 kJ/mol
# Density = 1.734812 g / cm^3
# Si number density = 17.387698 Si / 1000 Ang^3
#
#
#
# Elastic Constant Matrix: (Units=GPa)
#
#
# Indices 1 2 3 4 5 6 
#
# 1 94.4519 60.8746 55.1923 0.0000 0.0000 0.0000
# 2 60.8746 94.4520 55.1922 0.0000 0.0000 0.0000
# 3 55.1923 55.1922 136.2155 0.0000 0.0000 0.0000
# 4 0.0000 0.0000 0.0000 29.6349 0.0000 0.0000
# 5 0.0000 0.0000 0.0000 0.0000 29.6351 0.0000
# 6 0.0000 0.0000 0.0000 0.0000 0.0000 26.2624
#
#
#
# Elastic Compliance Matrix: (Units=1/GPa)
#
#
# Indices 1 2 3 4 5 6 
#
# 1 0.019412 -0.010370 -0.003663 0.000000 0.000000 0.000000
# 2 -0.010370 0.019412 -0.003663 0.000000 0.000000 0.000000
# 3 -0.003663 -0.003663 0.010310 0.000000 0.000000 0.000000
# 4 0.000000 0.000000 0.000000 0.033744 0.000000 0.000000
# 5 0.000000 0.000000 0.000000 0.000000 0.033744 0.000000
# 6 0.000000 0.000000 0.000000 0.000000 0.000000 0.038077
#
#
# Mechanical properties :
#
#
# Convention : Reuss Voigt Hill
#
# Bulk Modulus (GPa) = 72.78428 74.18195 73.48311
# Shear Modulus (GPa) = 25.68414 27.36384 26.52399
#
# Velocity S-wave (km/s) = 3.84753 3.97135 3.90993
# Velocity P-wave (km/s) = 7.85420 7.98655 7.92065
#
# Compressibility (1/GPa) = 0.01373923
#
# Stress axis : x y z
#
# Youngs Moduli (GPa) = 51.51513 51.51523 96.99251
#
# Poissons Ratio (x) = 0.53422 0.35533
# Poissons Ratio (y) = 0.53422 0.35533
# Poissons Ratio (z) = 0.18873 0.18872
#
# Static dielectric constant tensor:
#      x y z
#    x 1.592610 0.000000 0.000000 
#    y 0.000000 1.592610 0.000000 
#    z 0.000000 0.000000 1.576240 
# 
# From -- ./inp_files/5531.got.cif
#   From: 2010.05.17/outbox.cif.g08.bks.cpg/sg91_3_cif.got.tgz:5531.got - 2010.06.03 19:20:03.
