data_PCOD9547137
_publ_section_title
;
Structure prediction by ZEFSAII (Michael W. Deem and Ramdas Pophale) SiO2 
 PCOD9547137
Probable space group: P 4 21 2
;
_chemical_formula_sum "Si O2"
_cell_formula_units_Z 40
_cell_length_a 8.649326
_cell_length_b 8.649326
_cell_length_c 26.095350
_cell_angle_alpha 90.000000
_cell_angle_beta 90.000000
_cell_angle_gamma 90.000000
_cell_volume 1952.215060
_symmetry_space_group_name_H-M "P 4 21 2"
_symmetry_group_IT_number 90
_symmetry_cell_setting 'tetragonal'
loop_
_space_group_symop_operation_xyz
x,y,z
1/2-y,1/2+x,z
-x,-y,z
1/2+y,1/2-x,z
1/2+x,1/2-y,-z
1/2-x,1/2+y,-z
y,x,-z
-y,-x,-z
loop_
_atom_site_type_symbol
_atom_site_label
_atom_site_fract_x
_atom_site_fract_y
_atom_site_fract_z
Si Si1 0.500000 0.500000 0.823773
Si Si2 0.000000 0.500000 0.273698
Si Si3 0.256276 0.531476 0.090069
Si Si4 0.411948 0.242750 0.543731
Si Si5 0.882332 0.277730 0.629348
Si Si6 0.604483 0.640645 0.726248
Si Si7 0.000000 0.000000 0.000000
O O1 0.558109 0.368072 0.861738
O O2 0.620970 0.580460 0.784663
O O3 0.975874 0.308296 0.273507
O O4 0.164883 0.370494 0.092404
O O5 0.355529 0.517452 0.038341
O O6 0.587298 0.190093 0.538685
O O7 0.360288 0.360288 0.500000
O O8 0.365813 0.312059 0.598627
O O9 0.799760 0.438413 0.615243
O O10 0.856693 0.251318 0.689578
O O11 0.500000 0.500000 0.703338
#
# Coordination Sequence:
#
# PCOD9547137 Si02
#       7
#     4   2   8   8   8   8   2
#     4   9  24  37  58  94 131 158 223 288 328 400
#     4  12  24  40  76  92 132 192 236 276 356 428
#     4  10  21  37  64  92 127 178 226 275 343 412
#     4  11  26  44  67  95 126 164 214 270 337 412
#     4  11  25  43  65  94 132 171 217 277 341 406
#     4  10  25  41  64 101 134 174 228 288 336 412
#     4  10  20  40  56 100 136 168 226 292 338 400
#
# _framework density 20.489547000000002
#
# number of rings (size 3 to 8) (size 9 to 14) (size 15 to 20)
#    0.600    1.000    0.000    3.000    8.400    3.600 
#    0.000    0.000    0.000    5.400    0.000    0.000 
#    0.000    0.000    0.000    0.000    0.000    0.000 
#
# Total GULP energy -222705.148426 kJ/mol
# GULP energy per Si atom -5567.628711 kJ/mol
# Density = 2.044291 g / cm^3
# Si number density = 20.489547 Si / 1000 Ang^3
#
#
#
# Elastic Constant Matrix: (Units=GPa)
#
#
# Indices 1 2 3 4 5 6 
#
# 1 92.9945 30.4839 20.6981 0.0000 0.0000 0.0000
# 2 30.4839 92.9945 20.6981 0.0000 0.0000 0.0000
# 3 20.6981 20.6981 101.3102 0.0000 0.0000 0.0000
# 4 0.0000 0.0000 0.0000 242.6149 0.0000 0.0000
# 5 0.0000 0.0000 0.0000 0.0000 242.6149 0.0000
# 6 0.0000 0.0000 0.0000 0.0000 0.0000 15.6659
#
#
#
# Elastic Compliance Matrix: (Units=1/GPa)
#
#
# Indices 1 2 3 4 5 6 
#
# 1 0.012346 -0.003652 -0.001776 0.000000 0.000000 0.000000
# 2 -0.003652 0.012346 -0.001776 0.000000 0.000000 0.000000
# 3 -0.001776 -0.001776 0.010596 0.000000 0.000000 0.000000
# 4 0.000000 0.000000 0.000000 0.004122 0.000000 0.000000
# 5 0.000000 0.000000 0.000000 0.000000 0.004122 0.000000
# 6 0.000000 0.000000 0.000000 0.000000 0.000000 0.063833
#
#
# Mechanical properties :
#
#
# Convention : Reuss Voigt Hill
#
# Bulk Modulus (GPa) = 47.89350 47.89547 47.89449
# Shear Modulus (GPa) = 38.84034 114.54044 76.69039
#
# Velocity S-wave (km/s) = 4.35859 7.48487 6.12456
# Velocity P-wave (km/s) = 6.98249 9.90575 8.56969
#
# Compressibility (1/GPa) = 0.02087966
#
# Stress axis : x y z
#
# Youngs Moduli (GPa) = 81.00004 81.00004 94.37111
#
# Poissons Ratio (x) = 0.29578 0.16763
# Poissons Ratio (y) = 0.29578 0.16763
# Poissons Ratio (z) = 0.14388 0.14388
#
# Static dielectric constant tensor:
#      x y z
#    x 1.478400 0.000000 0.000000 
#    y 0.000000 1.478400 0.000000 
#    z 0.000000 0.000000 1.751060 
# 
# From -- ./inp_files/2996.got.cif
#   From: 2010.05.17/outbox.cif.g08.bks.cpg/sg90_2_cif.got.tgz:2996.got - 2010.06.03 19:17:45.
