data_PCOD9547038
_publ_section_title
;
Structure prediction by ZEFSAII (Michael W. Deem and Ramdas Pophale) SiO2 
 PCOD9547038
Probable space group: P 4 2 2
;
_chemical_formula_sum "Si O2"
_cell_formula_units_Z 40
_cell_length_a 9.493757
_cell_length_b 9.493757
_cell_length_c 24.824078
_cell_angle_alpha 90.000000
_cell_angle_beta 90.000000
_cell_angle_gamma 90.000000
_cell_volume 2237.429449
_symmetry_space_group_name_H-M "P 4 2 2"
_symmetry_group_IT_number 89
_symmetry_cell_setting 'tetragonal'
loop_
_space_group_symop_operation_xyz
x,y,z
-y,x,z
-x,-y,z
y,-x,z
x,-y,-z
-x,y,-z
y,x,-z
-y,-x,-z
loop_
_atom_site_type_symbol
_atom_site_label
_atom_site_fract_x
_atom_site_fract_y
_atom_site_fract_z
Si Si1 0.713657 0.390316 0.639984
Si Si2 0.132338 0.803133 0.724859
Si Si3 0.675315 0.659746 0.060142
Si Si4 0.360651 0.155683 0.524616
Si Si5 0.183199 0.853734 0.149008
O O1 0.682929 0.558466 0.639600
O O2 0.795376 0.317742 0.689506
O O3 0.811694 0.361881 0.587761
O O4 0.163744 0.778275 0.788082
O O5 0.963163 0.811112 0.714576
O O6 0.508833 0.690616 0.064125
O O7 0.765718 0.726250 0.107373
O O8 0.713178 0.713178 0.000000
O O9 0.500000 0.228392 0.500000
O O10 0.225300 0.225300 0.500000
O O11 0.362286 0.000000 0.500000
O O12 0.021142 0.809464 0.140425
#
# Coordination Sequence:
#
# PCOD9547038 Si02
#       5
#     8   8   8   8   8
#     4  11  24  40  61  88 118 152 189 232 285 342
#     4   9  21  40  61  84 115 153 191 238 287 336
#     4   9  19  35  54  79 114 153 192 238 290 342
#     4  11  24  41  62  88 118 151 187 230 283 339
#     4   9  19  37  57  81 114 151 192 237 289 340
#
# _framework density 17.877658
#
# number of rings (size 3 to 8) (size 9 to 14) (size 15 to 20)
#    0.000    2.200    2.000    1.800    2.800    4.400 
#    0.000    9.000    0.000    0.000    0.000    0.000 
#    0.000    0.000    0.000    0.000    0.000    0.000 
#
# Total GULP energy -222824.512162 kJ/mol
# GULP energy per Si atom -5570.612804 kJ/mol
# Density = 1.783697 g / cm^3
# Si number density = 17.877658 Si / 1000 Ang^3
#
#
#
# Elastic Constant Matrix: (Units=GPa)
#
#
# Indices 1 2 3 4 5 6 
#
# 1 63.7758 57.1376 67.7371 0.0000 0.0000 0.0000
# 2 57.1376 63.7758 67.7371 0.0000 0.0000 0.0000
# 3 67.7371 67.7371 134.4719 0.0000 0.0000 0.0000
# 4 0.0000 0.0000 0.0000 40.5231 0.0000 0.0000
# 5 0.0000 0.0000 0.0000 0.0000 40.5231 0.0000
# 6 0.0000 0.0000 0.0000 0.0000 0.0000 38.7578
#
#
#
# Elastic Compliance Matrix: (Units=1/GPa)
#
#
# Indices 1 2 3 4 5 6 
#
# 1 0.084815 -0.065829 -0.009564 0.000000 0.000000 0.000000
# 2 -0.065829 0.084815 -0.009564 0.000000 0.000000 0.000000
# 3 -0.009564 -0.009564 0.017071 0.000000 0.000000 0.000000
# 4 0.000000 0.000000 0.000000 0.024677 0.000000 0.000000
# 5 0.000000 0.000000 0.000000 0.000000 0.024677 0.000000
# 6 0.000000 0.000000 0.000000 0.000000 0.000000 0.025801
#
#
# Mechanical properties :
#
#
# Convention : Reuss Voigt Hill
#
# Bulk Modulus (GPa) = 59.56524 71.91636 65.74080
# Shear Modulus (GPa) = 11.43212 28.58825 20.01018
#
# Velocity S-wave (km/s) = 2.53151 4.00322 3.34920
# Velocity P-wave (km/s) = 6.47575 7.85379 7.19782
#
# Compressibility (1/GPa) = 0.01678831
#
# Stress axis : x y z
#
# Youngs Moduli (GPa) = 11.79043 11.79043 58.57772
#
# Poissons Ratio (x) = 0.77615 0.56021
# Poissons Ratio (y) = 0.77615 0.56021
# Poissons Ratio (z) = 0.11276 0.11276
#
# Static dielectric constant tensor:
#      x y z
#    x 1.590820 0.000000 0.000000 
#    y 0.000000 1.590820 0.000000 
#    z 0.000000 0.000000 1.604190 
# 
# From -- ./inp_files/2683.got.cif
#   From: 2010.05.17/outbox.cif.g08.bks.cpg/sg89_2_cif.got.tgz:2683.got - 2010.06.03 19:15:31.
