data_PCOD9547020
_publ_section_title
;
Structure prediction by ZEFSAII (Michael W. Deem and Ramdas Pophale) SiO2 
 PCOD9547020
Probable space group: P 4 2 2
;
_chemical_formula_sum "Si O2"
_cell_formula_units_Z 48
_cell_length_a 9.108176
_cell_length_b 9.108176
_cell_length_c 32.700680
_cell_angle_alpha 90.000000
_cell_angle_beta 90.000000
_cell_angle_gamma 90.000000
_cell_volume 2712.811463
_symmetry_space_group_name_H-M "P 4 2 2"
_symmetry_group_IT_number 89
_symmetry_cell_setting 'tetragonal'
loop_
_space_group_symop_operation_xyz
x,y,z
-y,x,z
-x,-y,z
y,-x,z
x,-y,-z
-x,y,-z
y,x,-z
-y,-x,-z
loop_
_atom_site_type_symbol
_atom_site_label
_atom_site_fract_x
_atom_site_fract_y
_atom_site_fract_z
Si Si1 0.324876 0.675129 0.176987
Si Si2 0.825209 0.825209 0.500000
Si Si3 0.323088 0.676913 0.000000
Si Si4 0.174437 0.825558 0.746475
Si Si5 0.674458 0.674457 0.422298
Si Si6 0.824305 0.175692 0.345448
Si Si7 0.676624 0.676619 0.088069
O O1 0.300618 0.500003 0.178359
O O2 0.252304 0.747703 0.216062
O O3 0.269468 0.730538 0.132323
O O4 0.753680 0.753679 0.460000
O O5 0.000000 0.799978 0.500000
O O6 0.301337 0.500000 0.000000
O O7 0.266928 0.733076 0.044057
O O8 0.220628 0.779368 0.700639
O O9 0.999997 0.800492 0.749154
O O10 0.500001 0.700243 0.424510
O O11 0.738891 0.738888 0.380358
O O12 0.999998 0.199463 0.349479
O O13 0.500003 0.698524 0.088035
#
# Coordination Sequence:
#
# PCOD9547020 Si02
#       7
#     8   4   4   8   8   8   8
#     4   9  17  28  43  67  98 125 151 191 243 295
#     4  11  24  41  62  86 110 141 182 219 248 284
#     4   7   8  12  26  48  76 111 146 178 220 277
#     4   9  19  35  52  70  94 126 166 208 244 284
#     4  11  24  39  56  83 116 143 169 205 249 296
#     4   9  19  37  58  77  98 128 169 212 250 292
#     4   7  10  17  30  52  83 115 145 181 228 281
#
# _framework density 17.693821
#
# number of rings (size 3 to 8) (size 9 to 14) (size 15 to 20)
#    0.000    3.000    0.000    4.500    0.000    7.333 
#    0.000    5.000    0.000    0.000    0.000    1.167 
#    0.000    8.000    0.000    0.000    0.000    0.000 
#
# Total GULP energy -267312.589338 kJ/mol
# GULP energy per Si atom -5569.012278 kJ/mol
# Density = 1.765355 g / cm^3
# Si number density = 17.693821 Si / 1000 Ang^3
#
#
#
# Elastic Constant Matrix: (Units=GPa)
#
#
# Indices 1 2 3 4 5 6 
#
# 1 41.3155 48.7896 77.0288 0.0000 0.0000 0.0000
# 2 48.7896 41.3153 77.0288 0.0000 0.0000 0.0000
# 3 77.0288 77.0288 246.5741 0.0000 0.0000 0.0000
# 4 0.0000 0.0000 0.0000 55.7142 0.0000 0.0000
# 5 0.0000 0.0000 0.0000 0.0000 55.7126 0.0000
# 6 0.0000 0.0000 0.0000 0.0000 0.0000 25.8033
#
#
#
# Elastic Compliance Matrix: (Units=1/GPa)
#
#
# Indices 1 2 3 4 5 6 
#
# 1 -0.054986 0.078808 -0.007442 0.000000 0.000000 0.000000
# 2 0.078808 -0.054986 -0.007442 0.000000 0.000000 0.000000
# 3 -0.007442 -0.007442 0.008705 0.000000 0.000000 0.000000
# 4 0.000000 0.000000 0.000000 0.017949 0.000000 0.000000
# 5 0.000000 0.000000 0.000000 0.000000 0.017949 0.000000
# 6 0.000000 0.000000 0.000000 0.000000 0.000000 0.038755
#
#
# Mechanical properties :
#
#
# Convention : Reuss Voigt Hill
#
# Bulk Modulus (GPa) = 37.62005 81.65548 59.63776
# Shear Modulus (GPa) = -34.34035 35.86988 0.76476
#
# Velocity S-wave (km/s) = -4.41024 4.50739 0.65815
# Velocity P-wave (km/s) = 2.15077 8.56377 5.86141
#
# Compressibility (1/GPa) = 0.02658157
#
# Stress axis : x y z
#
# Youngs Moduli (GPa) = -18.18661 -18.18638 114.87376
#
# Poissons Ratio (x) = 1.43323 0.85489
# Poissons Ratio (y) = 1.43325 0.85486
# Poissons Ratio (z) = -0.13534 -0.13534
#
# Static dielectric constant tensor:
#      x y z
#    x 1.588220 0.000000 0.000000 
#    y 0.000000 1.588220 0.000000 
#    z 0.000000 0.000000 1.643740 
# 
# From -- ./inp_files/3024.got.cif
#   From: 2010.05.17/outbox.cif.g08.bks.cpg/sg89_2_cif.got.tgz:3024.got - 2010.06.03 19:15:31.
