data_PCOD9547577
_publ_section_title
;
Structure prediction by ZEFSAII (Michael W. Deem and Ramdas Pophale) SiO2 
 PCOD9547577
Probable space group: P 41 2 2
;
_chemical_formula_sum "Si O2"
_cell_formula_units_Z 56
_cell_length_a 13.900206
_cell_length_b 13.900206
_cell_length_c 15.730977
_cell_angle_alpha 90.000000
_cell_angle_beta 90.000000
_cell_angle_gamma 90.000000
_cell_volume 3039.472155
_symmetry_space_group_name_H-M "P 41 2 2"
_symmetry_group_IT_number 91
_symmetry_cell_setting 'tetragonal'
loop_
_space_group_symop_operation_xyz
x,y,z
-y,x,1/4+z
-x,-y,1/2+z
y,-x,3/4+z
x,-y,1/2-z
-x,y,-z
y,x,3/4-z
-y,-x,1/4-z
loop_
_atom_site_type_symbol
_atom_site_label
_atom_site_fract_x
_atom_site_fract_y
_atom_site_fract_z
Si Si1 0.766642 0.617480 0.404728
Si Si2 0.397104 0.900064 0.803174
Si Si3 0.616541 0.113292 0.993976
Si Si4 0.594837 0.801804 0.833513
Si Si5 0.614720 0.745529 0.654265
Si Si6 0.376769 0.522155 0.348758
Si Si7 0.616947 0.103396 0.499541
O O1 0.670701 0.670701 0.375000
O O2 0.813252 0.641496 0.495077
O O3 0.845946 0.646690 0.334779
O O4 0.752005 0.502444 0.404711
O O5 0.512735 0.882350 0.813879
O O6 0.357229 0.889386 0.899408
O O7 0.383343 0.000000 0.750000
O O8 0.647510 0.185630 0.920828
O O9 0.500000 0.112163 0.000000
O O10 0.645270 0.004782 0.976316
O O11 0.650070 0.782809 0.745909
O O12 0.537554 0.702551 0.850246
O O13 0.647022 0.828705 0.921802
O O14 0.636940 0.634592 0.638224
O O15 0.362674 0.500000 0.250000
O O16 0.480717 0.480717 0.375000
O O17 0.500000 0.114194 0.500000
#
# Coordination Sequence:
#
# PCOD9547577 Si02
#       7
#     8   8   8   8   8   8   8
#     4  10  20  32  48  75 104 133 169 211 267 326
#     4  10  18  32  53  72  96 126 166 211 275 328
#     4   9  18  31  49  73  98 126 170 219 265 321
#     4  10  22  34  50  72  91 134 184 228 273 312
#     4  10  22  33  50  71  99 140 184 225 266 307
#     4  12  23  38  50  67 101 147 199 234 259 299
#     4   9  17  32  52  71  94 122 171 225 265 327
#
# _framework density 18.424251000000002
#
# number of rings (size 3 to 8) (size 9 to 14) (size 15 to 20)
#    0.000    2.000    2.857    1.714   10.000    1.714 
#    0.000    0.000    0.000    0.000    0.000    0.000 
#    0.000    0.000    0.000    3.857    0.000    0.000 
#
# Total GULP energy -312276.409217 kJ/mol
# GULP energy per Si atom -5576.364450 kJ/mol
# Density = 1.838232 g / cm^3
# Si number density = 18.424251 Si / 1000 Ang^3
#
#
#
# Elastic Constant Matrix: (Units=GPa)
#
#
# Indices 1 2 3 4 5 6 
#
# 1 41.2719 9.4847 34.7672 0.0000 0.0000 0.0000
# 2 9.4847 41.2719 34.7672 0.0000 0.0000 0.0000
# 3 34.7672 34.7672 167.2960 0.0000 0.0000 0.0000
# 4 0.0000 0.0000 0.0000 15.0851 0.0000 0.0000
# 5 0.0000 0.0000 0.0000 0.0000 15.0851 0.0000
# 6 0.0000 0.0000 0.0000 0.0000 0.0000 6.0960
#
#
#
# Elastic Compliance Matrix: (Units=1/GPa)
#
#
# Indices 1 2 3 4 5 6 
#
# 1 0.029501 -0.001958 -0.005724 0.000000 0.000000 0.000000
# 2 -0.001958 0.029501 -0.005724 0.000000 0.000000 0.000000
# 3 -0.005724 -0.005724 0.008357 0.000000 0.000000 0.000000
# 4 0.000000 0.000000 0.000000 0.066291 0.000000 0.000000
# 5 0.000000 0.000000 0.000000 0.000000 0.066291 0.000000
# 6 0.000000 0.000000 0.000000 0.000000 0.000000 0.164042
#
#
# Mechanical properties :
#
#
# Convention : Reuss Voigt Hill
#
# Bulk Modulus (GPa) = 24.66244 45.31976 34.99110
# Shear Modulus (GPa) = 12.36672 18.64126 15.50399
#
# Velocity S-wave (km/s) = 2.59360 3.18430 2.90401
# Velocity P-wave (km/s) = 4.73117 6.17826 5.50249
#
# Compressibility (1/GPa) = 0.04054749
#
# Stress axis : x y z
#
# Youngs Moduli (GPa) = 33.89668 33.89668 119.66644
#
# Poissons Ratio (x) = 0.06636 0.68498
# Poissons Ratio (y) = 0.06636 0.68498
# Poissons Ratio (z) = 0.19403 0.19403
#
# Static dielectric constant tensor:
#      x y z
#    x 1.653470 0.000000 0.000000 
#    y 0.000000 1.653470 0.000000 
#    z 0.000000 0.000000 1.702170 
# 
# From -- ./inp_files/16543.got.cif
#   From: 2010.05.17/outbox.cif.g08.bks.cpg/sg91_9_cif.got.tgz:16543.got - 2010.06.03 19:20:03.
