data_PCOD9547231
_publ_section_title
;
Structure prediction by ZEFSAII (Michael W. Deem and Ramdas Pophale) SiO2 
 PCOD9547231
Probable space group: P 4 21 2
;
_chemical_formula_sum "Si O2"
_cell_formula_units_Z 40
_cell_length_a 11.259838
_cell_length_b 11.259838
_cell_length_c 14.524178
_cell_angle_alpha 90.000000
_cell_angle_beta 90.000000
_cell_angle_gamma 90.000000
_cell_volume 1841.432683
_symmetry_space_group_name_H-M "P 4 21 2"
_symmetry_group_IT_number 90
_symmetry_cell_setting 'tetragonal'
loop_
_space_group_symop_operation_xyz
x,y,z
1/2-y,1/2+x,z
-x,-y,z
1/2+y,1/2-x,z
1/2+x,1/2-y,-z
1/2-x,1/2+y,-z
y,x,-z
-y,-x,-z
loop_
_atom_site_type_symbol
_atom_site_label
_atom_site_fract_x
_atom_site_fract_y
_atom_site_fract_z
Si Si1 0.443203 0.376214 0.809371
Si Si2 0.805593 0.452893 0.539928
Si Si3 0.690463 0.045398 0.969423
Si Si4 0.622428 0.426093 0.372399
Si Si5 0.445212 0.189224 0.187895
O O1 0.500000 0.500000 0.840600
O O2 0.434820 0.291777 0.896152
O O3 0.529164 0.334037 0.727015
O O4 0.312012 0.401622 0.769314
O O5 0.862063 0.583997 0.544840
O O6 0.725905 0.447064 0.447060
O O7 0.710472 0.415528 0.616908
O O8 0.585223 0.138273 0.952960
O O9 0.716690 0.054473 0.077829
O O10 0.500000 0.500000 0.390818
O O11 0.577697 0.140772 0.206973
#
# Coordination Sequence:
#
# PCOD9547231 Si02
#       5
#     8   8   8   8   8
#     4  11  24  40  58  98 134 174 218 272 342 390
#     4  10  22  43  75 102 123 174 225 260 326 414
#     4   9  20  39  63  93 128 177 230 281 333 386
#     4  10  24  42  64  99 139 169 209 279 339 384
#     4   9  20  41  67  91 129 180 231 277 328 390
#
# _framework density 21.722217000000001
#
# number of rings (size 3 to 8) (size 9 to 14) (size 15 to 20)
#    0.000    2.200    0.000    3.000    8.400    3.200 
#    7.200    2.000    0.000    9.600    0.000    0.000 
#    0.000    0.000    0.000    0.000    0.000    0.000 
#
# Total GULP energy -223557.942510 kJ/mol
# GULP energy per Si atom -5588.948563 kJ/mol
# Density = 2.167278 g / cm^3
# Si number density = 21.722217 Si / 1000 Ang^3
#
#
#
# Elastic Constant Matrix: (Units=GPa)
#
#
# Indices 1 2 3 4 5 6 
#
# 1 141.4951 41.6784 41.8475 0.0000 0.0000 0.0000
# 2 41.6784 141.4951 41.8475 0.0000 0.0000 0.0000
# 3 41.8475 41.8475 84.2086 0.0000 0.0000 0.0000
# 4 0.0000 0.0000 0.0000 -32.4606 0.0000 0.0000
# 5 0.0000 0.0000 0.0000 0.0000 -32.4606 0.0000
# 6 0.0000 0.0000 0.0000 0.0000 0.0000 39.8675
#
#
#
# Elastic Compliance Matrix: (Units=1/GPa)
#
#
# Indices 1 2 3 4 5 6 
#
# 1 0.008541 -0.001478 -0.003510 0.000000 0.000000 0.000000
# 2 -0.001478 0.008541 -0.003510 0.000000 0.000000 0.000000
# 3 -0.003510 -0.003510 0.015364 0.000000 0.000000 0.000000
# 4 0.000000 0.000000 0.000000 -0.030807 0.000000 0.000000
# 5 0.000000 0.000000 0.000000 0.000000 -0.030807 0.000000
# 6 0.000000 0.000000 0.000000 0.000000 0.000000 0.025083
#
#
# Mechanical properties :
#
#
# Convention : Reuss Voigt Hill
#
# Bulk Modulus (GPa) = 64.72482 68.66061 66.69271
# Shear Modulus (GPa) = 276.84842 11.11098 143.97970
#
# Velocity S-wave (km/s) = 11.30160 2.26410 8.15022
# Velocity P-wave (km/s) = 14.14789 6.20580 10.92416
#
# Compressibility (1/GPa) = 0.01545002
#
# Stress axis : x y z
#
# Youngs Moduli (GPa) = 117.08607 117.08607 65.08779
#
# Poissons Ratio (x) = 0.17301 0.22846
# Poissons Ratio (y) = 0.17301 0.22846
# Poissons Ratio (z) = 0.41097 0.41097
#
# Static dielectric constant tensor:
#      x y z
#    x 1.842490 0.000000 0.000000 
#    y 0.000000 1.842490 0.000000 
#    z 0.000000 0.000000 1.840690 
# 
# From -- ./inp_files/2449.got.cif
#   From: 2010.05.17/outbox.cif.g08.bks.cpg/sg90_2_cif.got.tgz:2449.got - 2010.06.03 19:17:45.
