data_PCOD9547084
_publ_section_title
;
Structure prediction by ZEFSAII (Michael W. Deem and Ramdas Pophale) SiO2 
 PCOD9547084
Probable space group: P 4 21 2
;
_chemical_formula_sum "Si O2"
_cell_formula_units_Z 56
_cell_length_a 14.508503
_cell_length_b 14.508503
_cell_length_c 14.672697
_cell_angle_alpha 90.000000
_cell_angle_beta 90.000000
_cell_angle_gamma 90.000000
_cell_volume 3088.553701
_symmetry_space_group_name_H-M "P 4 21 2"
_symmetry_group_IT_number 90
_symmetry_cell_setting 'tetragonal'
loop_
_space_group_symop_operation_xyz
x,y,z
1/2-y,1/2+x,z
-x,-y,z
1/2+y,1/2-x,z
1/2+x,1/2-y,-z
1/2-x,1/2+y,-z
y,x,-z
-y,-x,-z
loop_
_atom_site_type_symbol
_atom_site_label
_atom_site_fract_x
_atom_site_fract_y
_atom_site_fract_z
Si Si1 0.012679 0.655357 0.018263
Si Si2 0.732435 0.000618 0.779671
Si Si3 0.497096 0.638725 0.048236
Si Si4 0.436147 0.581856 0.247580
Si Si5 0.804489 0.848119 0.400674
Si Si6 0.390580 0.097376 0.459253
Si Si7 0.145031 0.649017 0.336447
O O1 0.096185 0.581939 0.004357
O O2 0.022098 0.695516 0.120532
O O3 0.009573 0.751418 0.962284
O O4 0.728875 0.086238 0.710224
O O5 0.834507 0.957203 0.779628
O O6 0.657171 0.931569 0.736620
O O7 0.485212 0.616067 0.155046
O O8 0.580883 0.580883 0.000000
O O9 0.405414 0.594587 0.000000
O O10 0.500000 0.500000 0.284391
O O11 0.419341 0.657001 0.326472
O O12 0.853794 0.853794 0.500000
O O13 0.696380 0.850844 0.420220
O O14 0.823251 0.748171 0.360181
O O15 0.492016 0.125278 0.430332
O O16 0.393721 0.111714 0.568430
#
# Coordination Sequence:
#
# PCOD9547084 Si02
#       7
#     8   8   8   8   8   8   8
#     4  11  23  37  58  95 132 159 201 267 323 373
#     4  11  19  32  58  89 118 152 193 256 319 363
#     4  11  21  42  65  88 122 170 219 258 309 390
#     4  11  22  40  64  86 118 164 211 256 307 366
#     4   9  22  39  55  88 126 154 200 256 310 377
#     4  10  19  34  57  80 112 162 203 241 301 368
#     4  10  19  32  54  85 119 152 193 251 314 369
#
# _framework density 18.131464000000001
#
# number of rings (size 3 to 8) (size 9 to 14) (size 15 to 20)
#    0.000    1.571    5.714    0.000    0.000    2.286 
#    0.000    2.857    0.000    1.714    0.000    0.000 
#    0.000    0.000    0.000    0.000    0.000    0.000 
#
# Total GULP energy -311961.431787 kJ/mol
# GULP energy per Si atom -5570.739853 kJ/mol
# Density = 1.809020 g / cm^3
# Si number density = 18.131464 Si / 1000 Ang^3
#
#
#
# Elastic Constant Matrix: (Units=GPa)
#
#
# Indices 1 2 3 4 5 6 
#
# 1 60.3680 23.8171 21.2406 0.0000 0.0000 0.0000
# 2 23.8171 60.3671 21.2406 0.0000 0.0000 0.0000
# 3 21.2406 21.2406 80.1074 0.0000 0.0000 0.0000
# 4 0.0000 0.0000 0.0000 8.3377 0.0000 0.0000
# 5 0.0000 0.0000 0.0000 0.0000 8.3379 0.0000
# 6 0.0000 0.0000 0.0000 0.0000 0.0000 54.0396
#
#
#
# Elastic Compliance Matrix: (Units=1/GPa)
#
#
# Indices 1 2 3 4 5 6 
#
# 1 0.020536 -0.006823 -0.003636 0.000000 0.000000 0.000000
# 2 -0.006823 0.020537 -0.003636 0.000000 0.000000 0.000000
# 3 -0.003636 -0.003636 0.014412 0.000000 0.000000 0.000000
# 4 0.000000 0.000000 0.000000 0.119937 0.000000 0.000000
# 5 0.000000 0.000000 0.000000 0.000000 0.119935 0.000000
# 6 0.000000 0.000000 0.000000 0.000000 0.000000 0.018505
#
#
# Mechanical properties :
#
#
# Convention : Reuss Voigt Hill
#
# Bulk Modulus (GPa) = 36.63820 37.04878 36.84349
# Shear Modulus (GPa) = 14.23893 23.11265 18.67579
#
# Velocity S-wave (km/s) = 2.80539 3.57420 3.21288
# Velocity P-wave (km/s) = 5.54477 6.12462 5.84190
#
# Compressibility (1/GPa) = 0.02729392
#
# Stress axis : x y z
#
# Youngs Moduli (GPa) = 48.69424 48.69346 69.38898
#
# Poissons Ratio (x) = 0.33223 0.25231
# Poissons Ratio (y) = 0.33224 0.25231
# Poissons Ratio (z) = 0.17706 0.17706
#
# Static dielectric constant tensor:
#      x y z
#    x 1.642180 0.000000 0.000000 
#    y 0.000000 1.642180 0.000000 
#    z 0.000000 0.000000 1.635740 
# 
# From -- ./inp_files/2270.got.cif
#   From: 2010.05.17/outbox.cif.g08.bks.cpg/sg90_2_cif.got.tgz:2270.got - 2010.06.03 19:17:45.
