data_PCOD9547873
_publ_section_title
;
Structure prediction by ZEFSAII (Michael W. Deem and Ramdas Pophale) SiO2 
 PCOD9547873
Probable space group: P 41 2 2
;
_chemical_formula_sum "Si O2"
_cell_formula_units_Z 48
_cell_length_a 9.155974
_cell_length_b 9.155974
_cell_length_c 31.588435
_cell_angle_alpha 90.000000
_cell_angle_beta 90.000000
_cell_angle_gamma 90.000000
_cell_volume 2648.117257
_symmetry_space_group_name_H-M "P 41 2 2"
_symmetry_group_IT_number 91
_symmetry_cell_setting 'tetragonal'
loop_
_space_group_symop_operation_xyz
x,y,z
-y,x,1/4+z
-x,-y,1/2+z
y,-x,3/4+z
x,-y,1/2-z
-x,y,-z
y,x,3/4-z
-y,-x,1/4-z
loop_
_atom_site_type_symbol
_atom_site_label
_atom_site_fract_x
_atom_site_fract_y
_atom_site_fract_z
Si Si1 0.331581 0.673665 0.997103
Si Si2 0.844410 0.826958 0.576531
Si Si3 0.089761 0.144006 0.457162
Si Si4 0.158896 0.677965 0.586929
Si Si5 0.328658 0.327792 0.748873
Si Si6 0.668764 0.844819 0.661941
O O1 0.273923 0.689773 0.949153
O O2 0.500000 0.713225 0.000000
O O3 0.233480 0.773090 0.027112
O O4 0.314255 0.502954 0.009233
O O5 0.756429 0.760103 0.537066
O O6 0.750435 0.805428 0.618881
O O7 0.000271 0.748760 0.581132
O O8 0.873988 0.997864 0.568125
O O9 0.000000 0.104714 0.500000
O O10 0.990686 0.255905 0.430463
O O11 0.243998 0.756003 0.625000
O O12 0.251762 0.698889 0.543995
O O13 0.141091 0.504653 0.594617
O O14 0.293083 0.500000 0.750000
#
# Coordination Sequence:
#
# PCOD9547873 Si02
#       6
#     8   8   8   8   8   8
#     4   9  20  39  61  82 109 148 191 234 280 335
#     4  12  23  36  58  86 116 149 189 235 286 340
#     4  10  20  36  56  79 112 149 185 226 278 334
#     4  11  22  38  59  83 113 148 189 234 282 335
#     4  10  21  39  60  84 114 150 189 231 285 341
#     4  10  22  38  56  82 114 148 185 230 283 339
#
# _framework density 18.126086000000001
#
# number of rings (size 3 to 8) (size 9 to 14) (size 15 to 20)
#    0.000    1.667    0.000    5.000    0.000    6.000 
#    0.000    1.667    0.000    0.000    0.000    0.000 
#    0.000    0.000    0.000    0.000    0.000    0.000 
#
# Total GULP energy -268245.358457 kJ/mol
# GULP energy per Si atom -5588.444968 kJ/mol
# Density = 1.808483 g / cm^3
# Si number density = 18.126086 Si / 1000 Ang^3
#
#
#
# Elastic Constant Matrix: (Units=GPa)
#
#
# Indices 1 2 3 4 5 6 
#
# 1 147.5595 99.8352 81.9673 0.0000 0.0000 0.0000
# 2 99.8352 147.5595 81.9667 0.0000 0.0000 0.0000
# 3 81.9673 81.9667 104.6688 0.0000 0.0000 0.0000
# 4 0.0000 0.0000 0.0000 26.0207 0.0000 0.0000
# 5 0.0000 0.0000 0.0000 0.0000 26.0205 0.0000
# 6 0.0000 0.0000 0.0000 0.0000 0.0000 29.6355
#
#
#
# Elastic Compliance Matrix: (Units=1/GPa)
#
#
# Indices 1 2 3 4 5 6 
#
# 1 0.014678 -0.006276 -0.006580 0.000000 0.000000 0.000000
# 2 -0.006276 0.014678 -0.006580 0.000000 0.000000 0.000000
# 3 -0.006580 -0.006580 0.019859 0.000000 0.000000 0.000000
# 4 0.000000 0.000000 0.000000 0.038431 0.000000 0.000000
# 5 0.000000 0.000000 0.000000 0.000000 0.038431 0.000000
# 6 0.000000 0.000000 0.000000 0.000000 0.000000 0.033743
#
#
# Mechanical properties :
#
#
# Convention : Reuss Voigt Hill
#
# Bulk Modulus (GPa) = 96.67015 103.03625 99.85320
# Shear Modulus (GPa) = 24.73536 25.40324 25.06930
#
# Velocity S-wave (km/s) = 3.69809 3.74769 3.72297
# Velocity P-wave (km/s) = 8.46654 8.70026 8.58420
#
# Compressibility (1/GPa) = 0.01034445
#
# Stress axis : x y z
#
# Youngs Moduli (GPa) = 68.12907 68.12979 50.35405
#
# Poissons Ratio (x) = 0.42757 0.33133
# Poissons Ratio (y) = 0.42756 0.33132
# Poissons Ratio (z) = 0.44829 0.44827
#
# Static dielectric constant tensor:
#      x y z
#    x 1.595720 0.000000 0.000000 
#    y 0.000000 1.595720 0.000000 
#    z 0.000000 0.000000 1.599280 
# 
# From -- ./inp_files/7917.got.cif
#   From: 2010.05.17/outbox.cif.g08.bks.cpg/sg91_4_cif.got.tgz:7917.got - 2010.06.03 19:20:03.
