data_PCOD9547244
_publ_section_title
;
Structure prediction by ZEFSAII (Michael W. Deem and Ramdas Pophale) SiO2 
 PCOD9547244
Probable space group: P 4 21 2
;
_chemical_formula_sum "Si O2"
_cell_formula_units_Z 54
_cell_length_a 14.476301
_cell_length_b 14.476301
_cell_length_c 11.459507
_cell_angle_alpha 90.000000
_cell_angle_beta 90.000000
_cell_angle_gamma 90.000000
_cell_volume 2401.491996
_symmetry_space_group_name_H-M "P 4 21 2"
_symmetry_group_IT_number 90
_symmetry_cell_setting 'tetragonal'
loop_
_space_group_symop_operation_xyz
x,y,z
1/2-y,1/2+x,z
-x,-y,z
1/2+y,1/2-x,z
1/2+x,1/2-y,-z
1/2-x,1/2+y,-z
y,x,-z
-y,-x,-z
loop_
_atom_site_type_symbol
_atom_site_label
_atom_site_fract_x
_atom_site_fract_y
_atom_site_fract_z
Si Si1 0.146009 0.460673 0.962668
Si Si2 0.811737 0.943609 0.630173
Si Si3 0.807361 0.080928 0.200885
Si Si4 0.768447 0.255197 0.634519
Si Si5 0.707891 0.962265 0.398749
Si Si6 0.000000 0.500000 0.536648
Si Si7 0.019285 0.647998 0.241887
Si Si8 0.500000 0.500000 0.255589
O O1 0.109358 0.563067 0.926418
O O2 0.243188 0.426471 0.913002
O O3 0.151898 0.469776 0.102604
O O4 0.776017 0.839664 0.655525
O O5 0.787705 0.960331 0.496229
O O6 0.746667 0.012976 0.701565
O O7 0.915891 0.961235 0.667131
O O8 0.802230 0.180147 0.265466
O O9 0.911074 0.041785 0.187444
O O10 0.750392 0.016438 0.290850
O O11 0.780085 0.219916 0.500000
O O12 0.810703 0.357463 0.638487
O O13 0.614125 0.001366 0.452890
O O14 0.924095 0.597238 0.279027
#
# Coordination Sequence:
#
# PCOD9547244 Si02
#       8
#     8   8   8   8   8   2   8   4
#     4   9  20  41  73 103 129 168 221 286 355 411
#     4  11  26  44  64  96 137 186 230 276 330 417
#     4  12  24  41  66  96 137 180 227 279 330 413
#     4  10  23  43  61  94 137 180 229 276 332 406
#     4  11  24  38  63  99 137 171 223 274 353 388
#     4  12  24  36  64 112 130 168 220 304 348 390
#     4   9  21  42  71 102 132 171 222 286 352 407
#     4  12  30  43  67  96 140 192 229 263 344 408
#
# _framework density 22.486021000000001
#
# number of rings (size 3 to 8) (size 9 to 14) (size 15 to 20)
#    0.000    1.481    2.963    1.778    6.222    0.593 
#    0.000    2.222    0.000    0.000    0.000    0.000 
#    0.000    0.000    0.000    0.000    0.000    0.000 
#
# Total GULP energy -301354.866856 kJ/mol
# GULP energy per Si atom -5580.645683 kJ/mol
# Density = 2.243484 g / cm^3
# Si number density = 22.486021 Si / 1000 Ang^3
#
#
#
# Elastic Constant Matrix: (Units=GPa)
#
#
# Indices 1 2 3 4 5 6 
#
# 1 114.2612 19.2753 23.5778 0.0000 0.0000 0.0000
# 2 19.2753 114.2613 23.5778 0.0000 0.0000 0.0000
# 3 23.5778 23.5778 30.1170 0.0000 0.0000 0.0000
# 4 0.0000 0.0000 0.0000 99.5347 0.0000 0.0000
# 5 0.0000 0.0000 0.0000 0.0000 99.4982 0.0000
# 6 0.0000 0.0000 0.0000 0.0000 0.0000 27.5404
#
#
#
# Elastic Compliance Matrix: (Units=1/GPa)
#
#
# Indices 1 2 3 4 5 6 
#
# 1 0.010439 -0.000089 -0.008103 0.000000 0.000000 0.000000
# 2 -0.000089 0.010439 -0.008103 0.000000 0.000000 0.000000
# 3 -0.008103 -0.008103 0.045891 0.000000 0.000000 0.000000
# 4 0.000000 0.000000 0.000000 0.010047 0.000000 0.000000
# 5 0.000000 0.000000 0.000000 0.000000 0.010050 0.000000
# 6 0.000000 0.000000 0.000000 0.000000 0.000000 0.036310
#
#
# Mechanical properties :
#
#
# Convention : Reuss Voigt Hill
#
# Bulk Modulus (GPa) = 29.25712 43.50014 36.37863
# Shear Modulus (GPa) = 29.91189 58.12856 44.02022
#
# Velocity S-wave (km/s) = 3.65121 5.08990 4.42936
# Velocity P-wave (km/s) = 5.55109 7.34372 6.50941
#
# Compressibility (1/GPa) = 0.03417972
#
# Stress axis : x y z
#
# Youngs Moduli (GPa) = 95.79575 95.79584 21.79098
#
# Poissons Ratio (x) = 0.00853 0.17656
# Poissons Ratio (y) = 0.00853 0.17656
# Poissons Ratio (z) = 0.77620 0.77620
#
# Static dielectric constant tensor:
#      x y z
#    x 1.501430 0.000000 0.000000 
#    y 0.000000 1.501530 0.000000 
#    z 0.000000 0.000000 1.831580 
# 
# From -- ./inp_files/2286.got.cif
#   From: 2010.05.17/outbox.cif.g08.bks.cpg/sg90_2_cif.got.tgz:2286.got - 2010.06.03 19:17:45.
