data_PCOD9547055
_publ_section_title
;
Structure prediction by ZEFSAII (Michael W. Deem and Ramdas Pophale) SiO2 
 PCOD9547055
Probable space group: P 4 2 2
;
_chemical_formula_sum "Si O2"
_cell_formula_units_Z 40
_cell_length_a 13.488766
_cell_length_b 13.488766
_cell_length_c 9.871704
_cell_angle_alpha 90.000000
_cell_angle_beta 90.000000
_cell_angle_gamma 90.000000
_cell_volume 1796.125034
_symmetry_space_group_name_H-M "P 4 2 2"
_symmetry_group_IT_number 89
_symmetry_cell_setting 'tetragonal'
loop_
_space_group_symop_operation_xyz
x,y,z
-y,x,z
-x,-y,z
y,-x,z
x,-y,-z
-x,y,-z
y,x,-z
-y,-x,-z
loop_
_atom_site_type_symbol
_atom_site_label
_atom_site_fract_x
_atom_site_fract_y
_atom_site_fract_z
Si Si1 0.736267 0.595834 0.916782
Si Si2 0.500000 0.000000 0.259491
Si Si3 0.578592 0.799294 0.385578
Si Si4 0.910480 0.140551 0.762066
Si Si5 0.800915 0.199086 0.500000
Si Si6 0.091619 0.324275 0.075583
O O1 0.734947 0.582456 0.754864
O O2 0.703759 0.500000 0.000000
O O3 0.679408 0.679408 0.000000
O O4 0.847947 0.619583 0.960194
O O5 0.455714 0.090412 0.345090
O O6 0.589831 0.052113 0.175760
O O7 0.500000 0.762494 0.500000
O O8 0.689719 0.807276 0.441853
O O9 0.882744 0.177661 0.613107
O O10 0.861956 0.228977 0.850814
O O11 0.029487 0.131736 0.780637
O O12 0.000000 0.277405 0.000000
#
# Coordination Sequence:
#
# PCOD9547055 Si02
#       6
#     8   4   8   8   4   8
#     4  12  27  49  78 110 149 197 251 317 400 475
#     4  12  22  46  72 120 144 200 254 340 396 460
#     4  12  27  45  76 115 155 195 265 331 399 472
#     4  11  26  45  68 102 154 214 263 307 380 479
#     4  12  26  49  72 105 156 212 260 318 408 480
#     4  12  23  42  75 106 150 190 258 323 389 457
#
# _framework density 22.270164000000001
#
# number of rings (size 3 to 8) (size 9 to 14) (size 15 to 20)
#    0.000    0.200    4.000    4.800    5.600    2.600 
#    0.000    1.000    0.000    0.300    0.000    0.000 
#    0.000    0.000    0.000    0.000    0.000    0.000 
#
# Total GULP energy -223381.681693 kJ/mol
# GULP energy per Si atom -5584.542042 kJ/mol
# Density = 2.221948 g / cm^3
# Si number density = 22.270164 Si / 1000 Ang^3
#
#
#
# Elastic Constant Matrix: (Units=GPa)
#
#
# Indices 1 2 3 4 5 6 
#
# 1 99.7208 27.2536 51.9120 0.0000 0.0000 0.0000
# 2 27.2536 99.7219 51.9123 0.0000 0.0000 0.0000
# 3 51.9120 51.9123 138.6127 0.0000 0.0000 0.0000
# 4 0.0000 0.0000 0.0000 41.3628 0.0000 0.0000
# 5 0.0000 0.0000 0.0000 0.0000 41.3632 0.0000
# 6 0.0000 0.0000 0.0000 0.0000 0.0000 19.5058
#
#
#
# Elastic Compliance Matrix: (Units=1/GPa)
#
#
# Indices 1 2 3 4 5 6 
#
# 1 0.012576 -0.001224 -0.004251 0.000000 0.000000 0.000000
# 2 -0.001224 0.012575 -0.004251 0.000000 0.000000 0.000000
# 3 -0.004251 -0.004251 0.010399 0.000000 0.000000 0.000000
# 4 0.000000 0.000000 0.000000 0.024176 0.000000 0.000000
# 5 0.000000 0.000000 0.000000 0.000000 0.024176 0.000000
# 6 0.000000 0.000000 0.000000 0.000000 0.000000 0.051267
#
#
# Mechanical properties :
#
#
# Convention : Reuss Voigt Hill
#
# Bulk Modulus (GPa) = 62.12410 66.69015 64.40713
# Shear Modulus (GPa) = 31.25240 34.24486 32.74863
#
# Velocity S-wave (km/s) = 3.75017 3.92561 3.83889
# Velocity P-wave (km/s) = 6.83432 7.11043 6.97374
#
# Compressibility (1/GPa) = 0.01609681
#
# Stress axis : x y z
#
# Youngs Moduli (GPa) = 79.51907 79.51983 96.16541
#
# Poissons Ratio (x) = 0.09731 0.40884
# Poissons Ratio (y) = 0.09731 0.40884
# Poissons Ratio (z) = 0.33807 0.33807
#
# Static dielectric constant tensor:
#      x y z
#    x 2.043620 0.000000 0.000000 
#    y 0.000000 2.043600 0.000000 
#    z 0.000000 0.000000 1.898140 
# 
# From -- ./inp_files/1056.got.cif
#   From: 2010.05.17/outbox.cif.g08.bks.cpg/sg89_1_cif.got.tgz:1056.got - 2010.06.03 19:15:31.
