data_PCOD9547416
_publ_section_title
;
Structure prediction by ZEFSAII (Michael W. Deem and Ramdas Pophale) SiO2 
 PCOD9547416
Probable space group: P 4 21 2
;
_chemical_formula_sum "Si O2"
_cell_formula_units_Z 56
_cell_length_a 14.877268
_cell_length_b 14.877268
_cell_length_c 12.953616
_cell_angle_alpha 90.000000
_cell_angle_beta 90.000000
_cell_angle_gamma 90.000000
_cell_volume 2867.064026
_symmetry_space_group_name_H-M "P 4 21 2"
_symmetry_group_IT_number 90
_symmetry_cell_setting 'tetragonal'
loop_
_space_group_symop_operation_xyz
x,y,z
1/2-y,1/2+x,z
-x,-y,z
1/2+y,1/2-x,z
1/2+x,1/2-y,-z
1/2-x,1/2+y,-z
y,x,-z
-y,-x,-z
loop_
_atom_site_type_symbol
_atom_site_label
_atom_site_fract_x
_atom_site_fract_y
_atom_site_fract_z
Si Si1 0.881090 0.406174 0.846351
Si Si2 0.326430 0.214106 0.337487
Si Si3 0.119187 0.593930 0.076776
Si Si4 0.102193 0.397084 0.489944
Si Si5 0.525696 0.357056 0.624317
Si Si6 0.695643 0.863121 0.707329
Si Si7 0.978512 0.146245 0.620611
O O1 0.879319 0.513848 0.838444
O O2 0.830605 0.358134 0.753913
O O3 0.848967 0.380783 0.961575
O O4 0.328952 0.164182 0.447466
O O5 0.236057 0.270273 0.323235
O O6 0.419576 0.271317 0.338195
O O7 0.121084 0.485572 0.084118
O O8 0.171982 0.633541 0.172951
O O9 0.121162 0.499473 0.519357
O O10 0.117087 0.387454 0.368368
O O11 0.557973 0.265909 0.676723
O O12 0.436871 0.412980 0.652630
O O13 0.609818 0.423196 0.650570
O O14 0.499426 0.342519 0.502826
#
# Coordination Sequence:
#
# PCOD9547416 Si02
#       7
#     8   8   8   8   8   8   8
#     4   9  20  41  65  86 115 156 197 245 308 363
#     4  12  25  34  60  92 121 152 199 251 295 358
#     4   9  20  41  65  86 115 156 197 245 308 363
#     4  11  25  40  56  84 125 161 192 242 308 361
#     4   9  21  39  58  79 118 169 205 235 287 359
#     4  12  25  34  60  92 121 152 199 251 295 358
#     4   9  21  39  58  79 118 169 205 235 287 359
#
# _framework density 19.532177000000001
#
# number of rings (size 3 to 8) (size 9 to 14) (size 15 to 20)
#    0.000    1.857    0.000    4.714   16.000    2.857 
#    0.000    0.000    0.000    0.000    0.000    0.000 
#    0.000    0.000    0.000    0.000    0.000    0.000 
#
# Total GULP energy -312222.637218 kJ/mol
# GULP energy per Si atom -5575.404236 kJ/mol
# Density = 1.948772 g / cm^3
# Si number density = 19.532177 Si / 1000 Ang^3
#
#
#
# Elastic Constant Matrix: (Units=GPa)
#
#
# Indices 1 2 3 4 5 6 
#
# 1 52.7826 18.4445 20.1485 0.0000 0.0000 0.0000
# 2 18.4445 52.7826 20.1485 0.0000 0.0000 0.0000
# 3 20.1485 20.1485 81.0682 0.0000 0.0000 0.0000
# 4 0.0000 0.0000 0.0000 26.6854 0.0000 0.0000
# 5 0.0000 0.0000 0.0000 0.0000 26.6854 0.0000
# 6 0.0000 0.0000 0.0000 0.0000 0.0000 20.2775
#
#
#
# Elastic Compliance Matrix: (Units=1/GPa)
#
#
# Indices 1 2 3 4 5 6 
#
# 1 0.022729 -0.006393 -0.004060 0.000000 0.000000 0.000000
# 2 -0.006393 0.022729 -0.004060 0.000000 0.000000 0.000000
# 3 -0.004060 -0.004060 0.014354 0.000000 0.000000 0.000000
# 4 0.000000 0.000000 0.000000 0.037474 0.000000 0.000000
# 5 0.000000 0.000000 0.000000 0.000000 0.037474 0.000000
# 6 0.000000 0.000000 0.000000 0.000000 0.000000 0.049316
#
#
# Mechanical properties :
#
#
# Convention : Reuss Voigt Hill
#
# Bulk Modulus (GPa) = 32.48247 33.79073 33.13660
# Shear Modulus (GPa) = 22.38496 23.25577 22.82036
#
# Velocity S-wave (km/s) = 3.38902 3.45431 3.42182
# Velocity P-wave (km/s) = 5.65511 5.76604 5.71084
#
# Compressibility (1/GPa) = 0.03078584
#
# Stress axis : x y z
#
# Youngs Moduli (GPa) = 43.99571 43.99571 69.66911
#
# Poissons Ratio (x) = 0.28125 0.28288
# Poissons Ratio (y) = 0.28125 0.28288
# Poissons Ratio (z) = 0.17864 0.17864
#
# Static dielectric constant tensor:
#      x y z
#    x 1.709570 0.000000 0.000000 
#    y 0.000000 1.709570 0.000000 
#    z 0.000000 0.000000 1.664420 
# 
# From -- ./inp_files/2240.got.cif
#   From: 2010.05.17/outbox.cif.g08.bks.cpg/sg90_2_cif.got.tgz:2240.got - 2010.06.03 19:17:45.
