data_PCOD9547703
_publ_section_title
;
Structure prediction by ZEFSAII (Michael W. Deem and Ramdas Pophale) SiO2 
 PCOD9547703
Probable space group: P 41 2 2
;
_chemical_formula_sum "Si O2"
_cell_formula_units_Z 56
_cell_length_a 14.110492
_cell_length_b 14.110492
_cell_length_c 15.563119
_cell_angle_alpha 90.000000
_cell_angle_beta 90.000000
_cell_angle_gamma 90.000000
_cell_volume 3098.710130
_symmetry_space_group_name_H-M "P 41 2 2"
_symmetry_group_IT_number 91
_symmetry_cell_setting 'tetragonal'
loop_
_space_group_symop_operation_xyz
x,y,z
-y,x,1/4+z
-x,-y,1/2+z
y,-x,3/4+z
x,-y,1/2-z
-x,y,-z
y,x,3/4-z
-y,-x,1/4-z
loop_
_atom_site_type_symbol
_atom_site_label
_atom_site_fract_x
_atom_site_fract_y
_atom_site_fract_z
Si Si1 0.390501 0.103522 0.006154
Si Si2 0.029971 0.392624 0.409192
Si Si3 0.584044 0.240474 0.617071
Si Si4 0.684020 0.379138 0.322452
Si Si5 0.377858 0.994179 0.848545
Si Si6 0.517834 0.388263 0.758870
Si Si7 0.364645 0.793546 0.930319
O O1 0.393264 0.213470 0.031678
O O2 0.352452 0.033133 0.080730
O O3 0.500000 0.073624 0.000000
O O4 0.351339 0.081257 0.911147
O O5 0.142572 0.381228 0.407381
O O6 0.012219 0.507083 0.409044
O O7 0.000000 0.352291 0.500000
O O8 0.569013 0.325280 0.685256
O O9 0.644705 0.239544 0.528830
O O10 0.475738 0.222350 0.588952
O O11 0.594882 0.381326 0.257529
O O12 0.653143 0.451256 0.399059
O O13 0.688879 0.277825 0.368569
O O14 0.345956 0.900898 0.901655
O O15 0.343054 0.000000 0.750000
O O16 0.545351 0.500000 0.750000
#
# Coordination Sequence:
#
# PCOD9547703 Si02
#       7
#     8   8   8   8   8   8   8
#     4  10  19  33  50  75 104 136 181 237 300 348
#     4   9  15  27  50  74  96 122 171 236 301 344
#     4   9  17  31  51  70  94 135 194 245 280 325
#     4  11  24  35  50  72 110 153 199 242 282 331
#     4   9  17  32  54  76  96 128 174 235 300 358
#     4  11  24  36  49  71 105 158 212 242 272 324
#     4   9  18  32  51  73  95 136 187 236 288 341
#
# _framework density 18.072036000000001
#
# number of rings (size 3 to 8) (size 9 to 14) (size 15 to 20)
#    0.000    2.286    1.429    1.714    6.000    3.429 
#    0.000    2.143    0.000    0.000    0.000    0.000 
#    0.000    0.000    0.000   11.571    0.000    8.857 
#
# Total GULP energy -311794.659807 kJ/mol
# GULP energy per Si atom -5567.761782 kJ/mol
# Density = 1.803090 g / cm^3
# Si number density = 18.072036 Si / 1000 Ang^3
#
#
#
# Elastic Constant Matrix: (Units=GPa)
#
#
# Indices 1 2 3 4 5 6 
#
# 1 78.7402 11.6243 55.5728 0.0000 0.0000 0.0000
# 2 11.6243 78.7402 55.5728 0.0000 0.0000 0.0000
# 3 55.5728 55.5728 132.1844 0.0000 0.0000 0.0000
# 4 0.0000 0.0000 0.0000 20.3385 0.0000 0.0000
# 5 0.0000 0.0000 0.0000 0.0000 20.3385 0.0000
# 6 0.0000 0.0000 0.0000 0.0000 0.0000 -273.5201
#
#
#
# Elastic Compliance Matrix: (Units=1/GPa)
#
#
# Indices 1 2 3 4 5 6 
#
# 1 0.018908 0.004008 -0.009635 0.000000 0.000000 0.000000
# 2 0.004008 0.018908 -0.009635 0.000000 0.000000 0.000000
# 3 -0.009635 -0.009635 0.015666 0.000000 0.000000 0.000000
# 4 0.000000 0.000000 0.000000 0.049168 0.000000 0.000000
# 5 0.000000 0.000000 0.000000 0.000000 0.049168 0.000000
# 6 0.000000 0.000000 0.000000 0.000000 0.000000 -0.003656
#
#
# Mechanical properties :
#
#
# Convention : Reuss Voigt Hill
#
# Bulk Modulus (GPa) = 43.55190 59.46719 51.50954
# Shear Modulus (GPa) = 26.83311 -35.44229 -4.30459
#
# Velocity S-wave (km/s) = 3.85747 -4.43331 -1.54502
# Velocity P-wave (km/s) = 6.63261 2.60219 5.03800
#
# Compressibility (1/GPa) = 0.02296111
#
# Stress axis : x y z
#
# Youngs Moduli (GPa) = 52.88761 52.88761 63.83145
#
# Poissons Ratio (x) = -0.21200 0.61499
# Poissons Ratio (y) = -0.21200 0.61499
# Poissons Ratio (z) = 0.50955 0.50955
#
# Static dielectric constant tensor:
#      x y z
#    x 1.640490 0.000000 0.000000 
#    y 0.000000 1.640490 0.000000 
#    z 0.000000 0.000000 1.708270 
# 
# From -- ./inp_files/4953.got.cif
#   From: 2010.05.17/outbox.cif.g08.bks.cpg/sg91_3_cif.got.tgz:4953.got - 2010.06.03 19:20:03.
