data_PCOD9547453
_publ_section_title
;
Structure prediction by ZEFSAII (Michael W. Deem and Ramdas Pophale) SiO2 
 PCOD9547453
Probable space group: P 4 21 2
;
_chemical_formula_sum "Si O2"
_cell_formula_units_Z 40
_cell_length_a 8.148293
_cell_length_b 8.148293
_cell_length_c 27.618089
_cell_angle_alpha 90.000000
_cell_angle_beta 90.000000
_cell_angle_gamma 90.000000
_cell_volume 1833.694149
_symmetry_space_group_name_H-M "P 4 21 2"
_symmetry_group_IT_number 90
_symmetry_cell_setting 'tetragonal'
loop_
_space_group_symop_operation_xyz
x,y,z
1/2-y,1/2+x,z
-x,-y,z
1/2+y,1/2-x,z
1/2+x,1/2-y,-z
1/2-x,1/2+y,-z
y,x,-z
-y,-x,-z
loop_
_atom_site_type_symbol
_atom_site_label
_atom_site_fract_x
_atom_site_fract_y
_atom_site_fract_z
Si Si1 0.915620 0.236169 0.847929
Si Si2 0.236517 0.912645 0.546412
Si Si3 0.236175 0.913710 0.755676
Si Si4 0.264047 0.416349 0.954123
Si Si5 0.408223 0.263242 0.651043
O O1 0.802292 0.399018 0.845764
O O2 0.870316 0.128658 0.802026
O O3 0.887750 0.158743 0.901026
O O4 0.401068 0.801200 0.544609
O O5 0.130716 0.869285 0.500000
O O6 0.154407 0.879597 0.598997
O O7 0.400303 0.801657 0.757476
O O8 0.154241 0.880163 0.703089
O O9 0.197380 0.601492 0.956269
O O10 0.372091 0.372091 0.000000
O O11 0.596233 0.199342 0.651040
#
# Coordination Sequence:
#
# PCOD9547453 Si02
#       5
#     8   8   8   8   8
#     4   9  19  35  50  66  95 131 157 181 224 278
#     4   9  17  30  48  68  91 121 155 190 230 276
#     4   9  17  30  50  74  94 115 152 198 234 268
#     4   9  19  35  52  70  94 124 157 191 227 270
#     4   7  12  26  46  65  88 119 152 187 228 271
#
# _framework density 21.813891999999999
#
# number of rings (size 3 to 8) (size 9 to 14) (size 15 to 20)
#    0.000    3.400    0.000    3.600    0.000    3.200 
#    0.000    8.000    0.000    9.600    0.000    0.000 
#    0.000    0.000    0.000    0.000    0.000    0.000 
#
# Total GULP energy -223304.087041 kJ/mol
# GULP energy per Si atom -5582.602176 kJ/mol
# Density = 2.176424 g / cm^3
# Si number density = 21.813892 Si / 1000 Ang^3
#
#
#
# Elastic Constant Matrix: (Units=GPa)
#
#
# Indices 1 2 3 4 5 6 
#
# 1 41.0280 27.1307 62.9664 0.0000 0.0000 0.0000
# 2 27.1307 41.0279 62.9660 0.0000 0.0000 0.0000
# 3 62.9664 62.9660 283.6307 0.0000 0.0000 0.0000
# 4 0.0000 0.0000 0.0000 102.8236 0.0000 0.0000
# 5 0.0000 0.0000 0.0000 0.0000 102.8237 0.0000
# 6 0.0000 0.0000 0.0000 0.0000 0.0000 32.3597
#
#
#
# Elastic Compliance Matrix: (Units=1/GPa)
#
#
# Indices 1 2 3 4 5 6 
#
# 1 0.048416 -0.023541 -0.005522 0.000000 0.000000 0.000000
# 2 -0.023541 0.048416 -0.005522 0.000000 0.000000 0.000000
# 3 -0.005522 -0.005522 0.005978 0.000000 0.000000 0.000000
# 4 0.000000 0.000000 0.000000 0.009725 0.000000 0.000000
# 5 0.000000 0.000000 0.000000 0.000000 0.009725 0.000000
# 6 0.000000 0.000000 0.000000 0.000000 0.000000 0.030903
#
#
# Mechanical properties :
#
#
# Convention : Reuss Voigt Hill
#
# Bulk Modulus (GPa) = 29.72820 74.64586 52.18703
# Shear Modulus (GPa) = 21.40907 61.77629 41.59268
#
# Velocity S-wave (km/s) = 3.13620 5.32740 4.37132
# Velocity P-wave (km/s) = 5.17417 8.49325 7.03233
#
# Compressibility (1/GPa) = 0.03363810
#
# Stress axis : x y z
#
# Youngs Moduli (GPa) = 20.65446 20.65448 167.29214
#
# Poissons Ratio (x) = 0.48623 0.92383
# Poissons Ratio (y) = 0.48623 0.92381
# Poissons Ratio (z) = 0.11406 0.11406
#
# Static dielectric constant tensor:
#      x y z
#    x 1.788090 0.000000 0.000000 
#    y 0.000000 1.788090 0.000000 
#    z 0.000000 0.000000 1.837990 
# 
# From -- ./inp_files/2877.got.cif
#   From: 2010.05.17/outbox.cif.g08.bks.cpg/sg90_2_cif.got.tgz:2877.got - 2010.06.03 19:17:45.
