data_PCOD9547802
_publ_section_title
;
Structure prediction by ZEFSAII (Michael W. Deem and Ramdas Pophale) SiO2 
 PCOD9547802
Probable space group: P 41 2 2
;
_chemical_formula_sum "Si O2"
_cell_formula_units_Z 40
_cell_length_a 7.964461
_cell_length_b 7.964461
_cell_length_c 28.109101
_cell_angle_alpha 90.000000
_cell_angle_beta 90.000000
_cell_angle_gamma 90.000000
_cell_volume 1783.034457
_symmetry_space_group_name_H-M "P 41 2 2"
_symmetry_group_IT_number 91
_symmetry_cell_setting 'tetragonal'
loop_
_space_group_symop_operation_xyz
x,y,z
-y,x,1/4+z
-x,-y,1/2+z
y,-x,3/4+z
x,-y,1/2-z
-x,y,-z
y,x,3/4-z
-y,-x,1/4-z
loop_
_atom_site_type_symbol
_atom_site_label
_atom_site_fract_x
_atom_site_fract_y
_atom_site_fract_z
Si Si1 0.184400 0.134071 0.571558
Si Si2 0.000000 0.376058 0.500000
Si Si3 0.866875 0.555925 0.820658
Si Si4 0.789369 0.412029 0.348798
Si Si5 0.465207 0.747085 0.180046
Si Si6 0.203240 0.203240 0.875000
O O1 0.064370 0.244407 0.539327
O O2 0.370556 0.150441 0.550435
O O3 0.192952 0.245603 0.619385
O O4 0.156105 0.937669 0.584664
O O5 0.128297 0.498438 0.472992
O O6 0.839611 0.548203 0.878788
O O7 0.715154 0.672319 0.806669
O O8 0.057657 0.606163 0.812204
O O9 0.812972 0.591510 0.376039
O O10 0.396999 0.604379 0.423433
#
# Coordination Sequence:
#
# PCOD9547802 Si02
#       6
#     8   4   8   8   8   4
#     4  10  22  38  64  94 130 169 221 273 334 403
#     4  12  24  38  60 106 146 174 206 296 366 394
#     4   9  19  39  66  86 116 180 231 261 308 412
#     4  10  19  40  66  92 119 171 239 267 306 411
#     4  10  21  38  63  95 132 170 221 275 335 393
#     4  10  22  40  70  96 116 172 240 276 310 402
#
# _framework density 22.433668000000001
#
# number of rings (size 3 to 8) (size 9 to 14) (size 15 to 20)
#    0.000    2.000    2.000    2.400    2.800    0.800 
#    0.000    4.000    0.000    4.800    0.000    0.000 
#    0.000    0.000    0.000    0.000    0.000    0.000 
#
# Total GULP energy -222731.795907 kJ/mol
# GULP energy per Si atom -5568.294898 kJ/mol
# Density = 2.238261 g / cm^3
# Si number density = 22.433668 Si / 1000 Ang^3
#
#
#
# Elastic Constant Matrix: (Units=GPa)
#
#
# Indices 1 2 3 4 5 6 
#
# 1 38.2173 23.1958 18.2277 0.0000 0.0000 0.0000
# 2 23.1958 38.2173 18.2277 0.0000 0.0000 0.0000
# 3 18.2277 18.2277 24.6105 0.0000 0.0000 0.0000
# 4 0.0000 0.0000 0.0000 14.7810 0.0000 0.0000
# 5 0.0000 0.0000 0.0000 0.0000 14.7810 0.0000
# 6 0.0000 0.0000 0.0000 0.0000 0.0000 24.9339
#
#
#
# Elastic Compliance Matrix: (Units=1/GPa)
#
#
# Indices 1 2 3 4 5 6 
#
# 1 0.047815 -0.018756 -0.021522 0.000000 0.000000 0.000000
# 2 -0.018756 0.047815 -0.021522 0.000000 0.000000 0.000000
# 3 -0.021522 -0.021522 0.072514 0.000000 0.000000 0.000000
# 4 0.000000 0.000000 0.000000 0.067654 0.000000 0.000000
# 5 0.000000 0.000000 0.000000 0.000000 0.067654 0.000000
# 6 0.000000 0.000000 0.000000 0.000000 0.000000 0.040106
#
#
# Mechanical properties :
#
#
# Convention : Reuss Voigt Hill
#
# Bulk Modulus (GPa) = 22.45055 24.48304 23.46679
# Shear Modulus (GPa) = 10.37325 13.65878 12.01602
#
# Velocity S-wave (km/s) = 2.15267 2.47017 2.31687
# Velocity P-wave (km/s) = 4.02591 4.36725 4.20005
#
# Compressibility (1/GPa) = 0.04454235
#
# Stress axis : x y z
#
# Youngs Moduli (GPa) = 20.91385 20.91385 13.79045
#
# Poissons Ratio (x) = 0.39226 0.29680
# Poissons Ratio (y) = 0.39226 0.29680
# Poissons Ratio (z) = 0.45012 0.45012
#
# Static dielectric constant tensor:
#      x y z
#    x 1.887040 0.000000 0.000000 
#    y 0.000000 1.887040 0.000000 
#    z 0.000000 0.000000 1.898170 
# 
# From -- ./inp_files/13479.got.cif
#   From: 2010.05.17/outbox.cif.g08.bks.cpg/sg91_7_cif.got.tgz:13479.got - 2010.06.03 19:20:03.
