data_PCOD9547374
_publ_section_title
;
Structure prediction by ZEFSAII (Michael W. Deem and Ramdas Pophale) SiO2 
 PCOD9547374
Probable space group: P 4 21 2
;
_chemical_formula_sum "Si O2"
_cell_formula_units_Z 36
_cell_length_a 8.019227
_cell_length_b 8.019227
_cell_length_c 25.000968
_cell_angle_alpha 90.000000
_cell_angle_beta 90.000000
_cell_angle_gamma 90.000000
_cell_volume 1607.762292
_symmetry_space_group_name_H-M "P 4 21 2"
_symmetry_group_IT_number 90
_symmetry_cell_setting 'tetragonal'
loop_
_space_group_symop_operation_xyz
x,y,z
1/2-y,1/2+x,z
-x,-y,z
1/2+y,1/2-x,z
1/2+x,1/2-y,-z
1/2-x,1/2+y,-z
y,x,-z
-y,-x,-z
loop_
_atom_site_type_symbol
_atom_site_label
_atom_site_fract_x
_atom_site_fract_y
_atom_site_fract_z
Si Si1 0.235166 0.093834 0.945720
Si Si2 0.909647 0.234685 0.767698
Si Si3 0.909500 0.234299 0.553410
Si Si4 0.907976 0.234670 0.339519
Si Si5 0.500000 0.500000 0.856731
O O1 0.401670 0.205028 0.944216
O O2 0.112668 0.113483 0.895490
O O3 0.139652 0.139652 0.000000
O O4 0.796344 0.399301 0.769801
O O5 0.869362 0.141928 0.712573
O O6 0.887020 0.111783 0.817610
O O7 0.796372 0.401157 0.553608
O O8 0.865275 0.134726 0.500000
O O9 0.862907 0.133839 0.606446
O O10 0.795650 0.402153 0.338673
#
# Coordination Sequence:
#
# PCOD9547374 Si02
#       5
#     8   8   8   8   4
#     4  11  24  43  69 100 136 178 223 273 331 395
#     4  11  24  41  63  92 126 168 216 267 325 389
#     4  11  24  41  63  93 126 162 209 264 324 392
#     4  11  24  42  64  91 125 166 213 266 326 392
#     4  12  23  42  66  96 133 172 218 272 326 388
#
# _framework density 22.391372
#
# number of rings (size 3 to 8) (size 9 to 14) (size 15 to 20)
#    0.000    0.889    0.000    7.000    0.000    8.444 
#    0.000    4.444    0.000    0.000    0.000    0.000 
#    0.000    0.000    0.000    0.000    0.000    0.000 
#
# Total GULP energy -201865.743697 kJ/mol
# GULP energy per Si atom -5607.381769 kJ/mol
# Density = 2.234041 g / cm^3
# Si number density = 22.391372 Si / 1000 Ang^3
#
#
#
# Elastic Constant Matrix: (Units=GPa)
#
#
# Indices 1 2 3 4 5 6 
#
# 1 89.5627 45.4759 58.9601 0.0000 0.0000 0.0000
# 2 45.4759 89.5636 58.9603 0.0000 0.0000 0.0000
# 3 58.9601 58.9603 216.5180 0.0000 0.0000 0.0000
# 4 0.0000 0.0000 0.0000 57.2301 0.0000 0.0000
# 5 0.0000 0.0000 0.0000 0.0000 57.2445 0.0000
# 6 0.0000 0.0000 0.0000 0.0000 0.0000 42.9261
#
#
#
# Elastic Compliance Matrix: (Units=1/GPa)
#
#
# Indices 1 2 3 4 5 6 
#
# 1 0.016199 -0.006483 -0.002646 0.000000 0.000000 0.000000
# 2 -0.006483 0.016199 -0.002646 0.000000 0.000000 0.000000
# 3 -0.002646 -0.002646 0.006059 0.000000 0.000000 0.000000
# 4 0.000000 0.000000 0.000000 0.017473 0.000000 0.000000
# 5 0.000000 0.000000 0.000000 0.000000 0.017469 0.000000
# 6 0.000000 0.000000 0.000000 0.000000 0.000000 0.023296
#
#
# Mechanical properties :
#
#
# Convention : Reuss Voigt Hill
#
# Bulk Modulus (GPa) = 67.07851 80.27078 73.67464
# Shear Modulus (GPa) = 39.93164 46.96334 43.44749
#
# Velocity S-wave (km/s) = 4.22755 4.58469 4.40974
# Velocity P-wave (km/s) = 7.33839 7.99704 7.67478
#
# Compressibility (1/GPa) = 0.01490790
#
# Stress axis : x y z
#
# Youngs Moduli (GPa) = 61.73222 61.73289 165.03210
#
# Poissons Ratio (x) = 0.40024 0.43662
# Poissons Ratio (y) = 0.40023 0.43661
# Poissons Ratio (z) = 0.16332 0.16332
#
# Static dielectric constant tensor:
#      x y z
#    x 1.762820 0.000000 0.000000 
#    y 0.000000 1.762760 0.000000 
#    z 0.000000 0.000000 1.756270 
# 
# From -- ./inp_files/2743.got.cif
#   From: 2010.05.17/outbox.cif.g08.bks.cpg/sg90_2_cif.got.tgz:2743.got - 2010.06.03 19:17:45.
