data_PCOD9547674
_publ_section_title
;
Structure prediction by ZEFSAII (Michael W. Deem and Ramdas Pophale) SiO2 
 PCOD9547674
Probable space group: P 41 2 2
;
_chemical_formula_sum "Si O2"
_cell_formula_units_Z 40
_cell_length_a 9.894679
_cell_length_b 9.894679
_cell_length_c 14.835837
_cell_angle_alpha 90.000000
_cell_angle_beta 90.000000
_cell_angle_gamma 90.000000
_cell_volume 1452.497763
_symmetry_space_group_name_H-M "P 41 2 2"
_symmetry_group_IT_number 91
_symmetry_cell_setting 'tetragonal'
loop_
_space_group_symop_operation_xyz
x,y,z
-y,x,1/4+z
-x,-y,1/2+z
y,-x,3/4+z
x,-y,1/2-z
-x,y,-z
y,x,3/4-z
-y,-x,1/4-z
loop_
_atom_site_type_symbol
_atom_site_label
_atom_site_fract_x
_atom_site_fract_y
_atom_site_fract_z
Si Si1 0.924177 0.198638 0.729863
Si Si2 0.475083 0.043235 0.399828
Si Si3 0.740986 0.617285 0.963494
Si Si4 0.424287 0.262198 0.087368
Si Si5 0.796043 0.107611 0.318812
O O1 0.950619 0.313821 0.657784
O O2 0.762000 0.184831 0.734649
O O3 0.950565 0.241015 0.832908
O O4 0.041410 0.101218 0.695768
O O5 0.500000 0.102449 0.500000
O O6 0.494420 0.149800 0.320034
O O7 0.499456 0.883755 0.397664
O O8 0.647632 0.647632 0.875000
O O9 0.678006 0.578797 0.060730
O O10 0.266541 0.239141 0.060389
O O11 0.500000 0.323525 0.000000
O O12 0.736620 0.000000 0.250000
#
# Coordination Sequence:
#
# PCOD9547674 Si02
#       5
#     8   8   8   8   8
#     4   9  19  31  46  69 103 143 189 239 300 368
#     4   9  17  30  46  69 100 140 195 248 299 366
#     4   9  17  30  50  73  97 134 195 257 303 361
#     4   9  18  32  49  71 103 149 198 245 299 370
#     4  10  19  31  47  72 107 148 190 239 299 367
#
# _framework density 27.538767
#
# number of rings (size 3 to 8) (size 9 to 14) (size 15 to 20)
#    0.000    2.800    0.000    1.200    0.000   11.200 
#    0.000    8.000    0.000    0.000    0.000    0.000 
#    0.000  129.600    0.000   16.200    0.000   14.600 
#
# Total GULP energy -222740.028303 kJ/mol
# GULP energy per Si atom -5568.500708 kJ/mol
# Density = 2.747609 g / cm^3
# Si number density = 27.538767 Si / 1000 Ang^3
#
#
#
# Elastic Constant Matrix: (Units=GPa)
#
#
# Indices 1 2 3 4 5 6 
#
# 1 48.5142 68.5513 34.5928 0.0000 0.0000 0.0000
# 2 68.5513 48.5142 34.5928 0.0000 0.0000 0.0000
# 3 34.5928 34.5928 246.6805 0.0000 0.0000 0.0000
# 4 0.0000 0.0000 0.0000 38.7442 0.0000 0.0000
# 5 0.0000 0.0000 0.0000 0.0000 38.7442 0.0000
# 6 0.0000 0.0000 0.0000 0.0000 0.0000 28.1756
#
#
#
# Elastic Compliance Matrix: (Units=1/GPa)
#
#
# Indices 1 2 3 4 5 6 
#
# 1 -0.020297 0.029611 -0.001306 0.000000 0.000000 0.000000
# 2 0.029611 -0.020297 -0.001306 0.000000 0.000000 0.000000
# 3 -0.001306 -0.001306 0.004420 0.000000 0.000000 0.000000
# 4 0.000000 0.000000 0.000000 0.025810 0.000000 0.000000
# 5 0.000000 0.000000 0.000000 0.000000 0.025810 0.000000
# 6 0.000000 0.000000 0.000000 0.000000 0.000000 0.035492
#
#
# Mechanical properties :
#
#
# Convention : Reuss Voigt Hill
#
# Bulk Modulus (GPa) = 56.10454 68.79808 62.45131
# Shear Modulus (GPa) = 1733.85789 34.86426 884.36107
#
# Velocity S-wave (km/s) = 25.11918 3.56196 17.93963
# Velocity P-wave (km/s) = 29.35497 6.47713 21.25638
#
# Compressibility (1/GPa) = 0.01782387
#
# Stress axis : x y z
#
# Youngs Moduli (GPa) = -49.26936 -49.26936 226.23618
#
# Poissons Ratio (x) = 1.45890 0.29550
# Poissons Ratio (y) = 1.45890 0.29550
# Poissons Ratio (z) = -0.06435 -0.06435
#
# Static dielectric constant tensor:
#      x y z
#    x 2.570260 0.000000 0.000000 
#    y 0.000000 2.570260 0.000000 
#    z 0.000000 0.000000 2.245730 
# 
# From -- ./inp_files/20663.got.cif
#   From: 2010.05.17/outbox.cif.g08.bks.cpg/sg91_11_cif.got.tgz:20663.got - 2010.06.03 19:20:03.
