data_PCOD9547122
_publ_section_title
;
Structure prediction by ZEFSAII (Michael W. Deem and Ramdas Pophale) SiO2 
 PCOD9547122
Probable space group: P 4 21 2
;
_chemical_formula_sum "Si O2"
_cell_formula_units_Z 52
_cell_length_a 19.189418
_cell_length_b 19.189418
_cell_length_c 7.233972
_cell_angle_alpha 90.000000
_cell_angle_beta 90.000000
_cell_angle_gamma 90.000000
_cell_volume 2663.792732
_symmetry_space_group_name_H-M "P 4 21 2"
_symmetry_group_IT_number 90
_symmetry_cell_setting 'tetragonal'
loop_
_space_group_symop_operation_xyz
x,y,z
1/2-y,1/2+x,z
-x,-y,z
1/2+y,1/2-x,z
1/2+x,1/2-y,-z
1/2-x,1/2+y,-z
y,x,-z
-y,-x,-z
loop_
_atom_site_type_symbol
_atom_site_label
_atom_site_fract_x
_atom_site_fract_y
_atom_site_fract_z
Si Si1 0.209316 0.534645 0.776701
Si Si2 0.051223 0.166083 0.500000
Si Si3 0.120710 0.667958 0.776934
Si Si4 0.167958 0.379290 0.223066
Si Si5 0.034645 0.290684 0.223299
Si Si6 0.185426 0.814574 0.777479
Si Si7 0.596328 0.596328 0.500000
O O1 0.282644 0.546019 0.675974
O O2 0.157370 0.596676 0.719993
O O3 0.179331 0.459191 0.721211
O O4 0.217306 0.535605 0.000000
O O5 0.121029 0.121029 0.500000
O O6 0.046019 0.217356 0.324026
O O7 0.984541 0.115412 0.500000
O O8 0.164669 0.736197 0.723307
O O9 0.120308 0.666599 0.000001
O O10 0.096675 0.342630 0.280008
O O11 0.179331 0.459191 0.278790
O O12 0.236197 0.335332 0.276695
O O13 0.133126 0.866875 0.675740
O O14 0.179243 0.820758 0.000000
#
# Coordination Sequence:
#
# PCOD9547122 Si02
#       7
#     8   8   8   8   8   8   4
#     4  10  22  41  62  91 126 159 198 248 298 356
#     4  12  27  41  61  90 120 158 205 250 304 358
#     4   9  19  37  63  90 121 160 201 243 299 359
#     4   9  19  37  63  90 121 160 201 243 299 359
#     4  10  22  41  62  91 126 159 198 248 298 356
#     4  10  20  37  63  91 116 156 206 249 295 352
#     4  12  23  42  66  82 118 162 200 251 300 356
#
# _framework density 19.521037
#
# number of rings (size 3 to 8) (size 9 to 14) (size 15 to 20)
#    0.000    1.846    3.077    0.231    2.154    3.692 
#    0.000    3.077    0.000    4.615    0.000    0.000 
#    0.000    0.000    0.000    0.000    0.000    0.000 
#
# Total GULP energy -290544.374616 kJ/mol
# GULP energy per Si atom -5587.391820 kJ/mol
# Density = 1.947661 g / cm^3
# Si number density = 19.521037 Si / 1000 Ang^3
#
#
#
# Elastic Constant Matrix: (Units=GPa)
#
#
# Indices 1 2 3 4 5 6 
#
# 1 138.3689 132.8225 33.2413 0.0000 0.0000 0.0000
# 2 132.8225 138.3685 33.2416 0.0000 0.0000 0.0000
# 3 33.2413 33.2416 107.1629 0.0000 0.0000 0.0000
# 4 0.0000 0.0000 0.0000 -46.0682 0.0000 0.0000
# 5 0.0000 0.0000 0.0000 0.0000 -46.0613 0.0000
# 6 0.0000 0.0000 0.0000 0.0000 0.0000 48.7023
#
#
#
# Elastic Compliance Matrix: (Units=1/GPa)
#
#
# Indices 1 2 3 4 5 6 
#
# 1 0.092147 -0.088156 -0.001238 0.000000 0.000000 0.000000
# 2 -0.088156 0.092148 -0.001238 0.000000 0.000000 0.000000
# 3 -0.001238 -0.001238 0.010100 0.000000 0.000000 0.000000
# 4 0.000000 0.000000 0.000000 -0.021707 0.000000 0.000000
# 5 0.000000 0.000000 0.000000 0.000000 -0.021710 0.000000
# 6 0.000000 0.000000 0.000000 0.000000 0.000000 0.020533
#
#
# Mechanical properties :
#
#
# Convention : Reuss Voigt Hill
#
# Bulk Modulus (GPa) = 76.16379 86.94565 81.55472
# Shear Modulus (GPa) = 13.99967 3.62090 8.81028
#
# Velocity S-wave (km/s) = 2.68089 1.36341 2.12674
# Velocity P-wave (km/s) = 6.97738 6.86401 6.92093
#
# Compressibility (1/GPa) = 0.01312960
#
# Stress axis : x y z
#
# Youngs Moduli (GPa) = 10.85221 10.85216 99.01368
#
# Poissons Ratio (x) = 0.95669 0.12254
# Poissons Ratio (y) = 0.95669 0.12261
# Poissons Ratio (z) = 0.01343 0.01344
#
# Static dielectric constant tensor:
#      x y z
#    x 1.650220 0.000000 0.000000 
#    y 0.000000 1.650220 0.000000 
#    z 0.000000 0.000000 1.714270 
# 
# From -- ./inp_files/1583.got.cif
#   From: 2010.05.17/outbox.cif.g08.bks.cpg/sg90_1_cif.got.tgz:1583.got - 2010.06.03 19:17:45.
