data_PCOD9547030
_publ_section_title
;
Structure prediction by ZEFSAII (Michael W. Deem and Ramdas Pophale) SiO2 
 PCOD9547030
Probable space group: P 4 2 2
;
_chemical_formula_sum "Si O2"
_cell_formula_units_Z 48
_cell_length_a 9.206087
_cell_length_b 9.206087
_cell_length_c 29.684254
_cell_angle_alpha 90.000000
_cell_angle_beta 90.000000
_cell_angle_gamma 90.000000
_cell_volume 2515.801019
_symmetry_space_group_name_H-M "P 4 2 2"
_symmetry_group_IT_number 89
_symmetry_cell_setting 'tetragonal'
loop_
_space_group_symop_operation_xyz
x,y,z
-y,x,z
-x,-y,z
y,-x,z
x,-y,-z
-x,y,-z
y,x,-z
-y,-x,-z
loop_
_atom_site_type_symbol
_atom_site_label
_atom_site_fract_x
_atom_site_fract_y
_atom_site_fract_z
Si Si1 0.339662 0.315548 0.131736
Si Si2 0.175089 0.833217 0.946602
Si Si3 0.780088 0.115874 0.620547
Si Si4 0.294642 0.361452 0.701960
Si Si5 0.353292 0.147178 0.475751
Si Si6 0.806002 0.152273 0.785542
O O1 0.513679 0.302225 0.137283
O O2 0.282269 0.261557 0.083420
O O3 0.257340 0.215016 0.167943
O O4 0.004833 0.801745 0.936766
O O5 0.192414 0.807587 0.000000
O O6 0.698007 0.190391 0.662315
O O7 0.678170 0.143906 0.576985
O O8 0.941734 0.188957 0.620434
O O9 0.462505 0.305062 0.699850
O O10 0.224304 0.293964 0.747027
O O11 0.500000 0.189493 0.500000
O O12 0.249420 0.249420 0.500000
O O13 0.315942 0.000000 0.500000
O O14 0.976506 0.196856 0.781948
#
# Coordination Sequence:
#
# PCOD9547030 Si02
#       6
#     8   8   8   8   8   8
#     4  11  24  39  58  88 127 166 207 257 314 375
#     4   9  19  37  60  87 120 161 212 266 316 371
#     4  11  24  42  67  95 126 164 210 257 302 360
#     4  11  26  44  65  95 131 165 201 250 307 368
#     4  11  24  41  64  94 126 164 206 252 305 359
#     4  11  24  43  67  95 123 157 207 259 309 368
#
# _framework density 19.079408999999998
#
# number of rings (size 3 to 8) (size 9 to 14) (size 15 to 20)
#    0.000    1.333    1.667    3.500    2.333   11.667 
#    0.000    2.500    0.000    0.000    0.000    0.000 
#    0.000    0.000    0.000    0.000    0.000    0.000 
#
# Total GULP energy -267490.912997 kJ/mol
# GULP energy per Si atom -5572.727354 kJ/mol
# Density = 1.903598 g / cm^3
# Si number density = 19.079409 Si / 1000 Ang^3
#
#
#
# Elastic Constant Matrix: (Units=GPa)
#
#
# Indices 1 2 3 4 5 6 
#
# 1 113.3699 29.0469 38.6777 0.0000 0.0000 0.0000
# 2 29.0469 113.3700 38.6779 0.0000 0.0000 0.0000
# 3 38.6777 38.6779 99.3707 0.0000 0.0000 0.0000
# 4 0.0000 0.0000 0.0000 56.4150 0.0000 0.0000
# 5 0.0000 0.0000 0.0000 0.0000 56.4149 0.0000
# 6 0.0000 0.0000 0.0000 0.0000 0.0000 52.4320
#
#
#
# Elastic Compliance Matrix: (Units=1/GPa)
#
#
# Indices 1 2 3 4 5 6 
#
# 1 0.010382 -0.001478 -0.003466 0.000000 0.000000 0.000000
# 2 -0.001478 0.010382 -0.003466 0.000000 0.000000 0.000000
# 3 -0.003466 -0.003466 0.012761 0.000000 0.000000 0.000000
# 4 0.000000 0.000000 0.000000 0.017726 0.000000 0.000000
# 5 0.000000 0.000000 0.000000 0.000000 0.017726 0.000000
# 6 0.000000 0.000000 0.000000 0.000000 0.000000 0.019072
#
#
# Mechanical properties :
#
#
# Convention : Reuss Voigt Hill
#
# Bulk Modulus (GPa) = 59.85677 59.87952 59.86815
# Shear Modulus (GPa) = 45.27543 47.69959 46.48751
#
# Velocity S-wave (km/s) = 4.87663 5.00548 4.94147
# Velocity P-wave (km/s) = 7.94665 8.05350 8.00026
#
# Compressibility (1/GPa) = 0.01670655
#
# Stress axis : x y z
#
# Youngs Moduli (GPa) = 96.32403 96.32407 78.36235
#
# Poissons Ratio (x) = 0.14232 0.27158
# Poissons Ratio (y) = 0.14232 0.27158
# Poissons Ratio (z) = 0.33383 0.33383
#
# Static dielectric constant tensor:
#      x y z
#    x 1.570920 0.000000 0.000000 
#    y 0.000000 1.570920 0.000000 
#    z 0.000000 0.000000 1.387750 
# 
# From -- ./inp_files/2960.got.cif
#   From: 2010.05.17/outbox.cif.g08.bks.cpg/sg89_2_cif.got.tgz:2960.got - 2010.06.03 19:15:31.
