data_PCOD9547288
_publ_section_title
;
Structure prediction by ZEFSAII (Michael W. Deem and Ramdas Pophale) SiO2 
 PCOD9547288
Probable space group: P 4 21 2
;
_chemical_formula_sum "Si O2"
_cell_formula_units_Z 56
_cell_length_a 14.125889
_cell_length_b 14.125889
_cell_length_c 12.929836
_cell_angle_alpha 90.000000
_cell_angle_beta 90.000000
_cell_angle_gamma 90.000000
_cell_volume 2580.029044
_symmetry_space_group_name_H-M "P 4 21 2"
_symmetry_group_IT_number 90
_symmetry_cell_setting 'tetragonal'
loop_
_space_group_symop_operation_xyz
x,y,z
1/2-y,1/2+x,z
-x,-y,z
1/2+y,1/2-x,z
1/2+x,1/2-y,-z
1/2-x,1/2+y,-z
y,x,-z
-y,-x,-z
loop_
_atom_site_type_symbol
_atom_site_label
_atom_site_fract_x
_atom_site_fract_y
_atom_site_fract_z
Si Si1 0.093823 0.725222 0.854453
Si Si2 0.649998 0.270358 0.639670
Si Si3 0.880735 0.408544 0.503337
Si Si4 0.866799 0.238075 0.227327
Si Si5 0.536611 0.603177 0.613319
Si Si6 0.523865 0.842384 0.931429
Si Si7 0.918834 0.698033 0.722997
O O1 0.177424 0.801574 0.850517
O O2 0.143100 0.627362 0.819138
O O3 0.016206 0.740993 0.764124
O O4 0.042899 0.715582 0.963735
O O5 0.655975 0.203046 0.538866
O O6 0.672435 0.190427 0.726757
O O7 0.554659 0.328384 0.615422
O O8 0.721877 0.350198 0.678362
O O9 0.871656 0.517511 0.466331
O O10 0.873100 0.420463 0.626332
O O11 0.890842 0.162621 0.316928
O O12 0.957848 0.275910 0.167051
O O13 0.500000 0.500000 0.652740
O O14 0.580245 0.580245 0.500000
O O15 0.424287 0.895753 0.930157
#
# Coordination Sequence:
#
# PCOD9547288 Si02
#       7
#     8   8   8   8   8   8   8
#     4  11  22  39  67  98 135 172 229 283 350 410
#     4  11  25  41  63  93 134 180 231 278 332 417
#     4  11  23  37  60  93 134 175 223 283 346 403
#     4  11  25  44  69  99 138 182 230 285 344 415
#     4  11  26  46  68  96 137 184 233 278 342 413
#     4  11  23  42  72 104 136 176 223 288 355 414
#     4  11  22  38  64  95 132 176 221 290 344 401
#
# _framework density 21.705182000000001
#
# number of rings (size 3 to 8) (size 9 to 14) (size 15 to 20)
#    0.000    1.000    2.857    3.429    6.000    2.571 
#    0.000    1.429    0.000    2.571    0.000    0.000 
#    0.000    0.000    0.000    0.000    0.000    0.000 
#
# Total GULP energy -312389.963230 kJ/mol
# GULP energy per Si atom -5578.392201 kJ/mol
# Density = 2.165578 g / cm^3
# Si number density = 21.705182 Si / 1000 Ang^3
#
#
#
# Elastic Constant Matrix: (Units=GPa)
#
#
# Indices 1 2 3 4 5 6 
#
# 1 71.5420 25.7954 34.2813 0.0000 0.0000 0.0000
# 2 25.7954 71.5420 34.2813 0.0000 0.0000 0.0000
# 3 34.2813 34.2813 88.4569 0.0000 0.0000 0.0000
# 4 0.0000 0.0000 0.0000 24.7581 0.0000 0.0000
# 5 0.0000 0.0000 0.0000 0.0000 24.7581 0.0000
# 6 0.0000 0.0000 0.0000 0.0000 0.0000 30.8390
#
#
#
# Elastic Compliance Matrix: (Units=1/GPa)
#
#
# Indices 1 2 3 4 5 6 
#
# 1 0.017995 -0.003864 -0.005476 0.000000 0.000000 0.000000
# 2 -0.003864 0.017995 -0.005476 0.000000 0.000000 0.000000
# 3 -0.005476 -0.005476 0.015550 0.000000 0.000000 0.000000
# 4 0.000000 0.000000 0.000000 0.040391 0.000000 0.000000
# 5 0.000000 0.000000 0.000000 0.000000 0.040391 0.000000
# 6 0.000000 0.000000 0.000000 0.000000 0.000000 0.032426
#
#
# Mechanical properties :
#
#
# Convention : Reuss Voigt Hill
#
# Bulk Modulus (GPa) = 45.64963 46.69522 46.17243
# Shear Modulus (GPa) = 24.79117 25.21658 25.00387
#
# Velocity S-wave (km/s) = 3.38328 3.41218 3.39776
# Velocity P-wave (km/s) = 6.02822 6.08967 6.05902
#
# Compressibility (1/GPa) = 0.02190598
#
# Stress axis : x y z
#
# Youngs Moduli (GPa) = 55.57005 55.57005 64.30986
#
# Poissons Ratio (x) = 0.21474 0.35219
# Poissons Ratio (y) = 0.21474 0.35219
# Poissons Ratio (z) = 0.30433 0.30433
#
# Static dielectric constant tensor:
#      x y z
#    x 1.803320 0.000000 0.000000 
#    y 0.000000 1.803320 0.000000 
#    z 0.000000 0.000000 1.800970 
# 
# From -- ./inp_files/2259.got.cif
#   From: 2010.05.17/outbox.cif.g08.bks.cpg/sg90_2_cif.got.tgz:2259.got - 2010.06.03 19:17:45.
