data_PCOD9547856
_publ_section_title
;
Structure prediction by ZEFSAII (Michael W. Deem and Ramdas Pophale) SiO2 
 PCOD9547856
Probable space group: P 41 2 2
;
_chemical_formula_sum "Si O2"
_cell_formula_units_Z 48
_cell_length_a 11.063871
_cell_length_b 11.063871
_cell_length_c 17.340622
_cell_angle_alpha 90.000000
_cell_angle_beta 90.000000
_cell_angle_gamma 90.000000
_cell_volume 2122.652386
_symmetry_space_group_name_H-M "P 41 2 2"
_symmetry_group_IT_number 91
_symmetry_cell_setting 'tetragonal'
loop_
_space_group_symop_operation_xyz
x,y,z
-y,x,1/4+z
-x,-y,1/2+z
y,-x,3/4+z
x,-y,1/2-z
-x,y,-z
y,x,3/4-z
-y,-x,1/4-z
loop_
_atom_site_type_symbol
_atom_site_label
_atom_site_fract_x
_atom_site_fract_y
_atom_site_fract_z
Si Si1 0.969816 0.112650 0.208260
Si Si2 0.704041 0.176285 0.252313
Si Si3 0.566958 0.617453 0.202285
Si Si4 0.642712 0.691745 0.703567
Si Si5 0.633759 0.093904 0.424214
Si Si6 0.068147 0.518351 0.918721
O O1 0.938822 0.061179 0.125000
O O2 0.839280 0.134561 0.245860
O O3 0.026863 0.245194 0.202399
O O4 0.036051 0.000000 0.250000
O O5 0.680580 0.317568 0.256335
O O6 0.657238 0.133842 0.335437
O O7 0.614371 0.126995 0.186555
O O8 0.548882 0.500000 0.250000
O O9 0.445058 0.691835 0.222280
O O10 0.600166 0.601581 0.114061
O O11 0.778178 0.644298 0.719403
O O12 0.618467 0.824981 0.665542
O O13 0.511408 0.014421 0.407314
O O14 0.000000 0.546678 0.000000
#
# Coordination Sequence:
#
# PCOD9547856 Si02
#       6
#     8   8   8   8   8   8
#     4  12  20  32  56  85 125 159 202 256 324 388
#     4   9  18  33  55  91 118 150 195 263 327 376
#     4  10  21  36  62  91 123 155 211 275 326 386
#     4  10  22  38  60  95 128 169 225 268 339 398
#     4  10  20  35  56  87 126 162 204 259 327 392
#     4   9  17  34  61  89 126 166 201 267 336 390
#
# _framework density 22.613218
#
# number of rings (size 3 to 8) (size 9 to 14) (size 15 to 20)
#    0.000    2.000    3.333    2.000    2.333    0.667 
#    0.000    0.000    7.333    2.000    0.000    0.000 
#    0.000    0.000    0.000    0.000    0.000    0.000 
#
# Total GULP energy -267220.013428 kJ/mol
# GULP energy per Si atom -5567.083613 kJ/mol
# Density = 2.256175 g / cm^3
# Si number density = 22.613218 Si / 1000 Ang^3
#
#
#
# Elastic Constant Matrix: (Units=GPa)
#
#
# Indices 1 2 3 4 5 6 
#
# 1 77.2307 24.6654 10.2727 0.0000 0.0000 0.0000
# 2 24.6654 77.2310 10.2729 0.0000 0.0000 0.0000
# 3 10.2727 10.2729 45.3536 0.0000 0.0000 0.0000
# 4 0.0000 0.0000 0.0000 24.0267 0.0000 0.0000
# 5 0.0000 0.0000 0.0000 0.0000 24.0260 0.0000
# 6 0.0000 0.0000 0.0000 0.0000 0.0000 18.1425
#
#
#
# Elastic Compliance Matrix: (Units=1/GPa)
#
#
# Indices 1 2 3 4 5 6 
#
# 1 0.014654 -0.004370 -0.002329 0.000000 0.000000 0.000000
# 2 -0.004370 0.014654 -0.002329 0.000000 0.000000 0.000000
# 3 -0.002329 -0.002329 0.023104 0.000000 0.000000 0.000000
# 4 0.000000 0.000000 0.000000 0.041620 0.000000 0.000000
# 5 0.000000 0.000000 0.000000 0.000000 0.041622 0.000000
# 6 0.000000 0.000000 0.000000 0.000000 0.000000 0.055119
#
#
# Mechanical properties :
#
#
# Convention : Reuss Voigt Hill
#
# Bulk Modulus (GPa) = 29.10854 32.24858 30.67856
# Shear Modulus (GPa) = 22.69822 23.54600 23.12211
#
# Velocity S-wave (km/s) = 3.17165 3.23034 3.20113
# Velocity P-wave (km/s) = 5.12960 5.31087 5.22102
#
# Compressibility (1/GPa) = 0.03435418
#
# Stress axis : x y z
#
# Youngs Moduli (GPa) = 68.24196 68.24216 43.28232
#
# Poissons Ratio (x) = 0.29823 0.10081
# Poissons Ratio (y) = 0.29823 0.10082
# Poissons Ratio (z) = 0.15895 0.15896
#
# Static dielectric constant tensor:
#      x y z
#    x 2.030260 0.000000 0.000000 
#    y 0.000000 2.030260 0.000000 
#    z 0.000000 0.000000 1.902530 
# 
# From -- ./inp_files/11956.got.cif
#   From: 2010.05.17/outbox.cif.g08.bks.cpg/sg91_6_cif.got.tgz:11956.got - 2010.06.03 19:20:03.
