data_PCOD9547287
_publ_section_title
;
Structure prediction by ZEFSAII (Michael W. Deem and Ramdas Pophale) SiO2 
 PCOD9547287
Probable space group: P 4 21 2
;
_chemical_formula_sum "Si O2"
_cell_formula_units_Z 56
_cell_length_a 14.682980
_cell_length_b 14.682980
_cell_length_c 12.793204
_cell_angle_alpha 90.000000
_cell_angle_beta 90.000000
_cell_angle_gamma 90.000000
_cell_volume 2758.085593
_symmetry_space_group_name_H-M "P 4 21 2"
_symmetry_group_IT_number 90
_symmetry_cell_setting 'tetragonal'
loop_
_space_group_symop_operation_xyz
x,y,z
1/2-y,1/2+x,z
-x,-y,z
1/2+y,1/2-x,z
1/2+x,1/2-y,-z
1/2-x,1/2+y,-z
y,x,-z
-y,-x,-z
loop_
_atom_site_type_symbol
_atom_site_label
_atom_site_fract_x
_atom_site_fract_y
_atom_site_fract_z
Si Si1 0.164975 0.277207 0.915785
Si Si2 0.025239 0.349291 0.069095
Si Si3 0.851761 0.520517 0.650384
Si Si4 0.649469 0.005757 0.600207
Si Si5 0.892991 0.924090 0.125170
Si Si6 0.301448 0.475543 0.238334
Si Si7 0.596627 0.703333 0.204016
O O1 0.141777 0.191364 0.844492
O O2 0.216517 0.359775 0.864048
O O3 0.234632 0.234632 0.000000
O O4 0.067148 0.304290 0.964714
O O5 0.099639 0.429214 0.079692
O O6 0.013218 0.268817 0.151240
O O7 0.900522 0.425151 0.680068
O O8 0.843334 0.513769 0.524950
O O9 0.756190 0.544702 0.703111
O O10 0.591254 0.915650 0.630915
O O11 0.747060 0.005853 0.655048
O O12 0.971455 0.892843 0.204362
O O13 0.857099 0.025094 0.140978
O O14 0.912719 0.912719 0.000000
O O15 0.324387 0.368152 0.234686
#
# Coordination Sequence:
#
# PCOD9547287 Si02
#       7
#     8   8   8   8   8   8   8
#     4  11  22  40  61  90 125 170 229 276 317 382
#     4  11  22  38  59  87 125 169 219 277 326 370
#     4   9  20  45  73  98 125 160 215 279 337 396
#     4   9  20  41  72 100 127 163 211 277 343 384
#     4  11  25  45  59  88 134 180 223 260 322 392
#     4  12  24  39  62  94 135 174 216 267 321 408
#     4  12  26  39  67  94 130 178 219 264 332 396
#
# _framework density 20.303937999999999
#
# number of rings (size 3 to 8) (size 9 to 14) (size 15 to 20)
#    0.000    1.286    2.857    4.714    4.000    2.286 
#    0.000    2.143    0.000    1.714    0.000    0.000 
#    0.000    0.000    0.000    0.000    0.000    0.000 
#
# Total GULP energy -312251.035004 kJ/mol
# GULP energy per Si atom -5575.911339 kJ/mol
# Density = 2.025773 g / cm^3
# Si number density = 20.303938 Si / 1000 Ang^3
#
#
#
# Elastic Constant Matrix: (Units=GPa)
#
#
# Indices 1 2 3 4 5 6 
#
# 1 95.7558 36.1678 36.9826 0.0000 0.0000 0.0000
# 2 36.1678 95.7558 36.9826 0.0000 0.0000 0.0000
# 3 36.9826 36.9826 48.1780 0.0000 0.0000 0.0000
# 4 0.0000 0.0000 0.0000 23.9368 0.0000 0.0000
# 5 0.0000 0.0000 0.0000 0.0000 23.9368 0.0000
# 6 0.0000 0.0000 0.0000 0.0000 0.0000 9.0128
#
#
#
# Elastic Compliance Matrix: (Units=1/GPa)
#
#
# Indices 1 2 3 4 5 6 
#
# 1 0.015045 -0.001737 -0.010215 0.000000 0.000000 0.000000
# 2 -0.001737 0.015045 -0.010215 0.000000 0.000000 0.000000
# 3 -0.010215 -0.010215 0.036439 0.000000 0.000000 0.000000
# 4 0.000000 0.000000 0.000000 0.041777 0.000000 0.000000
# 5 0.000000 0.000000 0.000000 0.000000 0.041777 0.000000
# 6 0.000000 0.000000 0.000000 0.000000 0.000000 0.110953
#
#
# Mechanical properties :
#
#
# Convention : Reuss Voigt Hill
#
# Bulk Modulus (GPa) = 45.05818 51.10617 48.08217
# Shear Modulus (GPa) = 15.98631 20.01437 18.00034
#
# Velocity S-wave (km/s) = 2.80902 3.14305 2.98072
# Velocity P-wave (km/s) = 5.72371 6.19653 5.96480
#
# Compressibility (1/GPa) = 0.02219353
#
# Stress axis : x y z
#
# Youngs Moduli (GPa) = 66.46877 66.46877 27.44302
#
# Poissons Ratio (x) = 0.11547 0.28033
# Poissons Ratio (y) = 0.11547 0.28033
# Poissons Ratio (z) = 0.67899 0.67899
#
# Static dielectric constant tensor:
#      x y z
#    x 1.782700 0.000000 0.000000 
#    y 0.000000 1.782700 0.000000 
#    z 0.000000 0.000000 1.739870 
# 
# From -- ./inp_files/2238.got.cif
#   From: 2010.05.17/outbox.cif.g08.bks.cpg/sg90_2_cif.got.tgz:2238.got - 2010.06.03 19:17:45.
