data_PCOD9547652
_publ_section_title
;
Structure prediction by ZEFSAII (Michael W. Deem and Ramdas Pophale) SiO2 
 PCOD9547652
Probable space group: P 41 2 2
;
_chemical_formula_sum "Si O2"
_cell_formula_units_Z 40
_cell_length_a 8.340173
_cell_length_b 8.340173
_cell_length_c 27.505733
_cell_angle_alpha 90.000000
_cell_angle_beta 90.000000
_cell_angle_gamma 90.000000
_cell_volume 1913.257135
_symmetry_space_group_name_H-M "P 41 2 2"
_symmetry_group_IT_number 91
_symmetry_cell_setting 'tetragonal'
loop_
_space_group_symop_operation_xyz
x,y,z
-y,x,1/4+z
-x,-y,1/2+z
y,-x,3/4+z
x,-y,1/2-z
-x,y,-z
y,x,3/4-z
-y,-x,1/4-z
loop_
_atom_site_type_symbol
_atom_site_label
_atom_site_fract_x
_atom_site_fract_y
_atom_site_fract_z
Si Si1 0.440557 0.500000 0.750000
Si Si2 0.175618 0.085282 0.059187
Si Si3 0.824946 0.000000 0.750000
Si Si4 0.205680 0.570730 0.948886
Si Si5 0.674180 0.000000 0.250000
Si Si6 0.138536 0.861465 0.625000
Si Si7 0.504262 0.798072 0.408920
O O1 0.546553 0.656223 0.738778
O O2 0.329679 0.492113 0.702174
O O3 0.148541 0.220801 0.018063
O O4 0.355423 0.082061 0.079486
O O5 0.028906 0.129904 0.095430
O O6 0.122789 0.926011 0.032088
O O7 0.728405 0.892226 0.711687
O O8 0.267409 0.546088 0.894378
O O9 0.070760 0.434990 0.957663
O O10 0.142476 0.689608 0.654044
#
# Coordination Sequence:
#
# PCOD9547652 Si02
#       7
#     4   8   4   8   4   4   8
#     4  12  22  42  68 108 142 188 250 302 366 456
#     4  11  23  44  69 102 141 187 243 297 363 444
#     4  10  26  46  68 106 146 196 242 308 384 436
#     4  11  22  44  68  99 144 185 234 306 371 434
#     4  10  18  40  68  86 136 188 212 292 366 408
#     4  12  24  46  74 110 148 192 244 308 372 440
#     4  12  24  42  74 109 135 192 253 290 376 449
#
# _framework density 20.906755
#
# number of rings (size 3 to 8) (size 9 to 14) (size 15 to 20)
#    0.000    0.800    6.000    1.200    2.800    0.000 
#    7.200    0.000    4.400    0.000    0.000    0.000 
#    0.000    0.000    0.000    0.000    0.000    0.000 
#
# Total GULP energy -223016.788550 kJ/mol
# GULP energy per Si atom -5575.419714 kJ/mol
# Density = 2.085917 g / cm^3
# Si number density = 20.906755 Si / 1000 Ang^3
#
#
#
# Elastic Constant Matrix: (Units=GPa)
#
#
# Indices 1 2 3 4 5 6 
#
# 1 93.4686 33.6458 30.9964 0.0000 0.0000 0.0000
# 2 33.6458 93.4686 30.9967 0.0000 0.0000 0.0000
# 3 30.9964 30.9967 109.6559 0.0000 0.0000 0.0000
# 4 0.0000 0.0000 0.0000 33.0868 0.0000 0.0000
# 5 0.0000 0.0000 0.0000 0.0000 33.0867 0.0000
# 6 0.0000 0.0000 0.0000 0.0000 0.0000 12.3653
#
#
#
# Elastic Compliance Matrix: (Units=1/GPa)
#
#
# Indices 1 2 3 4 5 6 
#
# 1 0.012920 -0.003796 -0.002579 0.000000 0.000000 0.000000
# 2 -0.003796 0.012920 -0.002579 0.000000 0.000000 0.000000
# 3 -0.002579 -0.002579 0.010578 0.000000 0.000000 0.000000
# 4 0.000000 0.000000 0.000000 0.030223 0.000000 0.000000
# 5 0.000000 0.000000 0.000000 0.000000 0.030224 0.000000
# 6 0.000000 0.000000 0.000000 0.000000 0.000000 0.080871
#
#
# Mechanical properties :
#
#
# Convention : Reuss Voigt Hill
#
# Bulk Modulus (GPa) = 54.02478 54.20788 54.11633
# Shear Modulus (GPa) = 24.77509 29.10471 26.93990
#
# Velocity S-wave (km/s) = 3.44616 3.73516 3.59357
# Velocity P-wave (km/s) = 6.46000 6.67732 6.56956
#
# Compressibility (1/GPa) = 0.01851002
#
# Stress axis : x y z
#
# Youngs Moduli (GPa) = 77.39681 77.39664 94.53902
#
# Poissons Ratio (x) = 0.29377 0.24385
# Poissons Ratio (y) = 0.29377 0.24385
# Poissons Ratio (z) = 0.19963 0.19963
#
# Static dielectric constant tensor:
#      x y z
#    x 1.788520 0.000000 0.000000 
#    y 0.000000 1.788520 0.000000 
#    z 0.000000 0.000000 1.864590 
# 
# From -- ./inp_files/7461.got.cif
#   From: 2010.05.17/outbox.cif.g08.bks.cpg/sg91_4_cif.got.tgz:7461.got - 2010.06.03 19:20:03.
