data_PCOD9547185
_publ_section_title
;
Structure prediction by ZEFSAII (Michael W. Deem and Ramdas Pophale) SiO2 
 PCOD9547185
Probable space group: P 4 21 2
;
_chemical_formula_sum "Si O2"
_cell_formula_units_Z 40
_cell_length_a 8.646867
_cell_length_b 8.646867
_cell_length_c 28.510058
_cell_angle_alpha 90.000000
_cell_angle_beta 90.000000
_cell_angle_gamma 90.000000
_cell_volume 2131.648824
_symmetry_space_group_name_H-M "P 4 21 2"
_symmetry_group_IT_number 90
_symmetry_cell_setting 'tetragonal'
loop_
_space_group_symop_operation_xyz
x,y,z
1/2-y,1/2+x,z
-x,-y,z
1/2+y,1/2-x,z
1/2+x,1/2-y,-z
1/2-x,1/2+y,-z
y,x,-z
-y,-x,-z
loop_
_atom_site_type_symbol
_atom_site_label
_atom_site_fract_x
_atom_site_fract_y
_atom_site_fract_z
Si Si1 0.500000 0.500000 0.780299
Si Si2 0.470689 0.743514 0.298896
Si Si3 0.572617 0.748498 0.961467
Si Si4 0.564345 0.748193 0.855518
Si Si5 0.952167 0.757775 0.463488
Si Si6 0.000000 0.000000 0.618526
O O1 0.630483 0.441212 0.744773
O O2 0.577293 0.624896 0.814629
O O3 0.631087 0.835864 0.296854
O O4 0.487625 0.645200 0.346419
O O5 0.399543 0.816204 0.966266
O O6 0.586216 0.685751 0.908352
O O7 0.626839 0.626839 0.000000
O O8 0.392252 0.819612 0.851521
O O9 0.828267 0.617582 0.468434
O O10 0.884554 0.884554 0.500000
O O11 0.976309 0.851724 0.415097
#
# Coordination Sequence:
#
# PCOD9547185 Si02
#       6
#     4   8   8   8   8   4
#     4  11  20  34  58  80 102 138 182 223 272 336
#     4  10  22  38  56  81 112 143 180 233 289 338
#     4   9  19  34  51  74 104 136 173 216 262 317
#     4   9  19  35  53  76 106 138 174 218 268 324
#     4  11  23  39  61  90 125 162 203 250 295 346
#     4  11  21  38  61  84 113 154 199 235 284 348
#
# _framework density 18.764817000000001
#
# number of rings (size 3 to 8) (size 9 to 14) (size 15 to 20)
#    0.000    2.000    0.000    5.100    0.000    3.600 
#    0.000    2.000    0.000   12.000    0.000    0.000 
#    0.000    0.000    0.000    0.000    0.000    0.000 
#
# Total GULP energy -222912.927050 kJ/mol
# GULP energy per Si atom -5572.823176 kJ/mol
# Density = 1.872211 g / cm^3
# Si number density = 18.764817 Si / 1000 Ang^3
#
#
#
# Elastic Constant Matrix: (Units=GPa)
#
#
# Indices 1 2 3 4 5 6 
#
# 1 48.6265 25.4680 37.3440 0.0000 0.0000 0.0000
# 2 25.4680 48.6265 37.3440 0.0000 0.0000 0.0000
# 3 37.3440 37.3440 125.2567 0.0000 0.0000 0.0000
# 4 0.0000 0.0000 0.0000 23.6469 0.0000 0.0000
# 5 0.0000 0.0000 0.0000 0.0000 23.6469 0.0000
# 6 0.0000 0.0000 0.0000 0.0000 0.0000 2.6172
#
#
#
# Elastic Compliance Matrix: (Units=1/GPa)
#
#
# Indices 1 2 3 4 5 6 
#
# 1 0.031238 -0.011943 -0.005753 0.000000 0.000000 0.000000
# 2 -0.011943 0.031238 -0.005753 0.000000 0.000000 0.000000
# 3 -0.005753 -0.005753 0.011414 0.000000 0.000000 0.000000
# 4 0.000000 0.000000 0.000000 0.042289 0.000000 0.000000
# 5 0.000000 0.000000 0.000000 0.000000 0.042289 0.000000
# 6 0.000000 0.000000 0.000000 0.000000 0.000000 0.382085
#
#
# Mechanical properties :
#
#
# Convention : Reuss Voigt Hill
#
# Bulk Modulus (GPa) = 37.04621 46.98020 42.01320
# Shear Modulus (GPa) = 8.38300 18.13912 13.26106
#
# Velocity S-wave (km/s) = 2.11592 3.11248 2.66126
# Velocity P-wave (km/s) = 5.07491 6.16501 5.64633
#
# Compressibility (1/GPa) = 0.02699331
#
# Stress axis : x y z
#
# Youngs Moduli (GPa) = 32.01247 32.01247 87.61346
#
# Poissons Ratio (x) = 0.38232 0.50401
# Poissons Ratio (y) = 0.38232 0.50401
# Poissons Ratio (z) = 0.18416 0.18416
#
# Static dielectric constant tensor:
#      x y z
#    x 1.650750 0.000000 0.000000 
#    y 0.000000 1.650750 0.000000 
#    z 0.000000 0.000000 1.634530 
# 
# From -- ./inp_files/2978.got.cif
#   From: 2010.05.17/outbox.cif.g08.bks.cpg/sg90_2_cif.got.tgz:2978.got - 2010.06.03 19:17:45.
