data_PCOD9547622
_publ_section_title
;
Structure prediction by ZEFSAII (Michael W. Deem and Ramdas Pophale) SiO2 
 PCOD9547622
Probable space group: P 41 2 2
;
_chemical_formula_sum "Si O2"
_cell_formula_units_Z 64
_cell_length_a 11.501243
_cell_length_b 11.501243
_cell_length_c 24.761518
_cell_angle_alpha 90.000000
_cell_angle_beta 90.000000
_cell_angle_gamma 90.000000
_cell_volume 3275.418701
_symmetry_space_group_name_H-M "P 41 2 2"
_symmetry_group_IT_number 91
_symmetry_cell_setting 'tetragonal'
loop_
_space_group_symop_operation_xyz
x,y,z
-y,x,1/4+z
-x,-y,1/2+z
y,-x,3/4+z
x,-y,1/2-z
-x,y,-z
y,x,3/4-z
-y,-x,1/4-z
loop_
_atom_site_type_symbol
_atom_site_label
_atom_site_fract_x
_atom_site_fract_y
_atom_site_fract_z
Si Si1 0.055526 0.633347 0.385934
Si Si2 0.207721 0.654885 0.587017
Si Si3 0.236986 0.050427 0.377744
Si Si4 0.738177 0.408502 0.969886
Si Si5 0.421947 0.272683 0.100937
Si Si6 0.566826 0.014093 0.944410
Si Si7 0.213169 0.798679 0.326823
Si Si8 0.869851 0.644190 0.978736
O O1 0.156471 0.631025 0.430627
O O2 0.038312 0.515600 0.352168
O O3 0.097593 0.728986 0.342255
O O4 0.931346 0.647287 0.414419
O O5 0.237791 0.762210 0.625000
O O6 0.257818 0.657885 0.526885
O O7 0.264493 0.544998 0.618825
O O8 0.118306 0.118306 0.375000
O O9 0.307966 0.043682 0.433610
O O10 0.315879 0.112541 0.332281
O O11 0.214328 0.920461 0.357992
O O12 0.618986 0.377085 0.938388
O O13 0.775927 0.541069 0.982337
O O14 0.324063 0.268015 0.147551
O O15 0.418264 0.152080 0.066848
O O16 0.500000 0.995155 0.000000
O O17 0.248559 0.828345 0.265786
O O18 0.000000 0.607498 0.000000
#
# Coordination Sequence:
#
# PCOD9547622 Si02
#       8
#     8   8   8   8   8   8   8   8
#     4  10  21  38  60  88 116 158 213 247 294 366
#     4  11  23  37  60  90 124 161 199 243 310 374
#     4  10  21  36  56  87 119 153 198 246 306 368
#     4  11  20  37  65  86 118 155 209 260 289 354
#     4   9  21  37  57  87 116 154 200 243 301 358
#     4  10  21  36  58  82 118 159 199 245 303 366
#     4   9  19  37  60  84 116 152 196 255 296 348
#     4  10  18  35  62  85 110 159 208 247 298 359
#
# _framework density 19.539487999999999
#
# number of rings (size 3 to 8) (size 9 to 14) (size 15 to 20)
#    0.000    2.000    2.500    1.125    5.250    0.500 
#    0.000    0.625    0.000    3.000    0.000    0.000 
#    0.000    0.000    0.000    0.000    0.000    0.000 
#
# Total GULP energy -356663.734900 kJ/mol
# GULP energy per Si atom -5572.870858 kJ/mol
# Density = 1.949501 g / cm^3
# Si number density = 19.539488 Si / 1000 Ang^3
#
#
#
# Elastic Constant Matrix: (Units=GPa)
#
#
# Indices 1 2 3 4 5 6 
#
# 1 27.9600 23.2921 12.8687 0.0000 0.0000 0.0000
# 2 23.2921 27.9580 12.8688 0.0000 0.0000 0.0000
# 3 12.8687 12.8688 71.4891 0.0000 0.0000 0.0000
# 4 0.0000 0.0000 0.0000 20.7303 0.0000 0.0000
# 5 0.0000 0.0000 0.0000 0.0000 20.7305 0.0000
# 6 0.0000 0.0000 0.0000 0.0000 0.0000 77.1734
#
#
#
# Elastic Compliance Matrix: (Units=1/GPa)
#
#
# Indices 1 2 3 4 5 6 
#
# 1 0.117859 -0.096412 -0.003860 0.000000 0.000000 0.000000
# 2 -0.096412 0.117868 -0.003862 0.000000 0.000000 0.000000
# 3 -0.003860 -0.003862 0.015378 0.000000 0.000000 0.000000
# 4 0.000000 0.000000 0.000000 0.048239 0.000000 0.000000
# 5 0.000000 0.000000 0.000000 0.000000 0.048238 0.000000
# 6 0.000000 0.000000 0.000000 0.000000 0.000000 0.012958
#
#
# Mechanical properties :
#
#
# Convention : Reuss Voigt Hill
#
# Bulk Modulus (GPa) = 23.34559 25.05180 24.19869
# Shear Modulus (GPa) = 8.57504 28.95200 18.76352
#
# Velocity S-wave (km/s) = 2.09716 3.85348 3.10221
# Velocity P-wave (km/s) = 4.22350 5.71385 5.02424
#
# Compressibility (1/GPa) = 0.04283464
#
# Stress axis : x y z
#
# Youngs Moduli (GPa) = 8.48473 8.48408 65.02668
#
# Poissons Ratio (x) = 0.81797 0.25103
# Poissons Ratio (y) = 0.81803 0.25115
# Poissons Ratio (z) = 0.03275 0.03277
#
# Static dielectric constant tensor:
#      x y z
#    x 1.705160 0.000000 0.000000 
#    y 0.000000 1.705160 0.000000 
#    z 0.000000 0.000000 2.996610 
# 
# From -- ./inp_files/17675.got.cif
#   From: 2010.05.17/outbox.cif.g08.bks.cpg/sg91_9_cif.got.tgz:17675.got - 2010.06.03 19:20:03.
