data_PCOD9547232
_publ_section_title
;
Structure prediction by ZEFSAII (Michael W. Deem and Ramdas Pophale) SiO2 
 PCOD9547232
Probable space group: P 4 21 2
;
_chemical_formula_sum "Si O2"
_cell_formula_units_Z 40
_cell_length_a 11.388318
_cell_length_b 11.388318
_cell_length_c 13.854210
_cell_angle_alpha 90.000000
_cell_angle_beta 90.000000
_cell_angle_gamma 90.000000
_cell_volume 1796.804959
_symmetry_space_group_name_H-M "P 4 21 2"
_symmetry_group_IT_number 90
_symmetry_cell_setting 'tetragonal'
loop_
_space_group_symop_operation_xyz
x,y,z
1/2-y,1/2+x,z
-x,-y,z
1/2+y,1/2-x,z
1/2+x,1/2-y,-z
1/2-x,1/2+y,-z
y,x,-z
-y,-x,-z
loop_
_atom_site_type_symbol
_atom_site_label
_atom_site_fract_x
_atom_site_fract_y
_atom_site_fract_z
Si Si1 0.541995 0.809074 0.954730
Si Si2 0.692035 0.040166 0.182048
Si Si3 0.371141 0.734288 0.651921
Si Si4 0.311996 0.396274 0.235875
Si Si5 0.674800 0.922127 0.441097
O O1 0.413966 0.864989 0.938794
O O2 0.568618 0.713123 0.874849
O O3 0.546888 0.778885 0.067595
O O4 0.587020 0.134424 0.199878
O O5 0.808744 0.077993 0.236921
O O6 0.298295 0.821850 0.721324
O O7 0.484893 0.681717 0.703549
O O8 0.411203 0.803130 0.555682
O O9 0.283290 0.635214 0.613080
O O10 0.556840 0.850468 0.417339
#
# Coordination Sequence:
#
# PCOD9547232 Si02
#       5
#     8   8   8   8   8
#     4   9  17  33  63  98 134 186 237 281 338 414
#     4   9  21  41  64  94 137 192 243 279 343 419
#     4  11  24  38  68 108 132 178 233 288 353 426
#     4  12  21  38  66  99 146 172 230 300 347 409
#     4  10  22  46  73  95 136 186 231 284 357 424
#
# _framework density 22.261738999999999
#
# number of rings (size 3 to 8) (size 9 to 14) (size 15 to 20)
#    0.000    1.800    4.000    1.800    0.000    2.000 
#    0.000    6.000    0.000    0.000    0.000    0.000 
#    0.000    0.000    0.000    0.000    0.000    0.000 
#
# Total GULP energy -223902.573745 kJ/mol
# GULP energy per Si atom -5597.564344 kJ/mol
# Density = 2.221107 g / cm^3
# Si number density = 22.261739 Si / 1000 Ang^3
#
#
#
# Elastic Constant Matrix: (Units=GPa)
#
#
# Indices 1 2 3 4 5 6 
#
# 1 102.2314 59.9641 40.0890 0.0000 0.0000 0.0000
# 2 59.9641 102.2314 40.0890 0.0000 0.0000 0.0000
# 3 40.0890 40.0890 90.6452 0.0000 0.0000 0.0000
# 4 0.0000 0.0000 0.0000 39.3411 0.0000 0.0000
# 5 0.0000 0.0000 0.0000 0.0000 39.3411 0.0000
# 6 0.0000 0.0000 0.0000 0.0000 0.0000 -165.9968
#
#
#
# Elastic Compliance Matrix: (Units=1/GPa)
#
#
# Indices 1 2 3 4 5 6 
#
# 1 0.015775 -0.007884 -0.003490 0.000000 0.000000 0.000000
# 2 -0.007884 0.015775 -0.003490 0.000000 0.000000 0.000000
# 3 -0.003490 -0.003490 0.014119 0.000000 0.000000 0.000000
# 4 0.000000 0.000000 0.000000 0.025419 0.000000 0.000000
# 5 0.000000 0.000000 0.000000 0.000000 0.025419 0.000000
# 6 0.000000 0.000000 0.000000 0.000000 0.000000 -0.006024
#
#
# Mechanical properties :
#
#
# Convention : Reuss Voigt Hill
#
# Bulk Modulus (GPa) = 62.73134 63.93244 63.33189
# Shear Modulus (GPa) = 39.83362 -7.13188 16.35087
#
# Velocity S-wave (km/s) = 4.23464 -1.79182 2.71307
# Velocity P-wave (km/s) = 7.22148 4.94975 6.19071
#
# Compressibility (1/GPa) = 0.01594099
#
# Stress axis : x y z
#
# Youngs Moduli (GPa) = 63.39264 63.39264 70.82810
#
# Poissons Ratio (x) = 0.49980 0.24716
# Poissons Ratio (y) = 0.49980 0.24716
# Poissons Ratio (z) = 0.22122 0.22122
#
# Static dielectric constant tensor:
#      x y z
#    x 1.780860 0.000000 0.000000 
#    y 0.000000 1.780860 0.000000 
#    z 0.000000 0.000000 1.846730 
# 
# From -- ./inp_files/2481.got.cif
#   From: 2010.05.17/outbox.cif.g08.bks.cpg/sg90_2_cif.got.tgz:2481.got - 2010.06.03 19:17:45.
