data_PCOD9547548
_publ_section_title
;
Structure prediction by ZEFSAII (Michael W. Deem and Ramdas Pophale) SiO2 
 PCOD9547548
Probable space group: P 41 2 2
;
_chemical_formula_sum "Si O2"
_cell_formula_units_Z 40
_cell_length_a 8.964080
_cell_length_b 8.964080
_cell_length_c 23.412906
_cell_angle_alpha 90.000000
_cell_angle_beta 90.000000
_cell_angle_gamma 90.000000
_cell_volume 1881.337746
_symmetry_space_group_name_H-M "P 41 2 2"
_symmetry_group_IT_number 91
_symmetry_cell_setting 'tetragonal'
loop_
_space_group_symop_operation_xyz
x,y,z
-y,x,1/4+z
-x,-y,1/2+z
y,-x,3/4+z
x,-y,1/2-z
-x,y,-z
y,x,3/4-z
-y,-x,1/4-z
loop_
_atom_site_type_symbol
_atom_site_label
_atom_site_fract_x
_atom_site_fract_y
_atom_site_fract_z
Si Si1 0.719729 0.371165 0.184869
Si Si2 0.835671 0.845476 0.222085
Si Si3 0.861560 0.349350 0.372626
Si Si4 0.508332 0.104435 0.695382
Si Si5 0.378726 0.656379 0.269793
O O1 0.716189 0.283812 0.125000
O O2 0.821054 0.279456 0.228668
O O3 0.770376 0.537113 0.168568
O O4 0.549541 0.371495 0.207923
O O5 0.917292 0.785968 0.166302
O O6 0.667287 0.866548 0.197509
O O7 0.885786 0.000000 0.250000
O O8 0.754710 0.312259 0.427493
O O9 0.005491 0.439543 0.393464
O O10 0.600787 0.249882 0.711597
O O11 0.535186 0.000000 0.750000
O O12 0.309327 0.500000 0.250000
#
# Coordination Sequence:
#
# PCOD9547548 Si02
#       5
#     8   8   8   8   8
#     4   9  16  27  47  78 112 143 184 239 287 338
#     4  10  18  30  49  79 113 149 190 235 289 346
#     4  10  18  29  51  82 114 146 185 239 292 341
#     4   8  16  30  47  76 116 149 180 234 296 339
#     4   9  16  28  48  79 113 145 188 241 294 346
#
# _framework density 21.261468000000001
#
# number of rings (size 3 to 8) (size 9 to 14) (size 15 to 20)
#    0.000    2.800    0.000    6.600    0.000    0.000 
#    0.000    0.000    0.000    4.800    0.000   84.000 
#    0.000    0.000    0.000    0.000    0.000    0.000 
#
# Total GULP energy -222930.818935 kJ/mol
# GULP energy per Si atom -5573.270473 kJ/mol
# Density = 2.121308 g / cm^3
# Si number density = 21.261468 Si / 1000 Ang^3
#
#
#
# Elastic Constant Matrix: (Units=GPa)
#
#
# Indices 1 2 3 4 5 6 
#
# 1 32.0599 1.3582 18.0520 0.0000 0.0000 0.0000
# 2 1.3582 32.0600 18.0519 0.0000 0.0000 0.0000
# 3 18.0520 18.0519 77.9423 0.0000 0.0000 0.0000
# 4 0.0000 0.0000 0.0000 13.9473 0.0000 0.0000
# 5 0.0000 0.0000 0.0000 0.0000 13.9474 0.0000
# 6 0.0000 0.0000 0.0000 0.0000 0.0000 15.7042
#
#
#
# Elastic Compliance Matrix: (Units=1/GPa)
#
#
# Indices 1 2 3 4 5 6 
#
# 1 0.036241 0.003669 -0.009244 0.000000 0.000000 0.000000
# 2 0.003669 0.036241 -0.009243 0.000000 0.000000 0.000000
# 3 -0.009244 -0.009243 0.017112 0.000000 0.000000 0.000000
# 4 0.000000 0.000000 0.000000 0.071698 0.000000 0.000000
# 5 0.000000 0.000000 0.000000 0.000000 0.071698 0.000000
# 6 0.000000 0.000000 0.000000 0.000000 0.000000 0.063677
#
#
# Mechanical properties :
#
#
# Convention : Reuss Voigt Hill
#
# Bulk Modulus (GPa) = 16.67824 24.10957 20.39390
# Shear Modulus (GPa) = 14.43884 15.69312 15.06598
#
# Velocity S-wave (km/s) = 2.60880 2.71975 2.66485
# Velocity P-wave (km/s) = 4.11531 4.60726 4.36822
#
# Compressibility (1/GPa) = 0.05995836
#
# Stress axis : x y z
#
# Youngs Moduli (GPa) = 27.59310 27.59324 58.43954
#
# Poissons Ratio (x) = -0.10125 0.54019
# Poissons Ratio (y) = -0.10125 0.54018
# Poissons Ratio (z) = 0.25506 0.25506
#
# Static dielectric constant tensor:
#      x y z
#    x 1.850060 0.000000 0.000000 
#    y 0.000000 1.850060 0.000000 
#    z 0.000000 0.000000 1.807090 
# 
# From -- ./inp_files/6751.got.cif
#   From: 2010.05.17/outbox.cif.g08.bks.cpg/sg91_4_cif.got.tgz:6751.got - 2010.06.03 19:20:03.
