data_PCOD9547729
_publ_section_title
;
Structure prediction by ZEFSAII (Michael W. Deem and Ramdas Pophale) SiO2 
 PCOD9547729
Probable space group: P 41 2 2
;
_chemical_formula_sum "Si O2"
_cell_formula_units_Z 48
_cell_length_a 10.663404
_cell_length_b 10.663404
_cell_length_c 18.390265
_cell_angle_alpha 90.000000
_cell_angle_beta 90.000000
_cell_angle_gamma 90.000000
_cell_volume 2091.123652
_symmetry_space_group_name_H-M "P 41 2 2"
_symmetry_group_IT_number 91
_symmetry_cell_setting 'tetragonal'
loop_
_space_group_symop_operation_xyz
x,y,z
-y,x,1/4+z
-x,-y,1/2+z
y,-x,3/4+z
x,-y,1/2-z
-x,y,-z
y,x,3/4-z
-y,-x,1/4-z
loop_
_atom_site_type_symbol
_atom_site_label
_atom_site_fract_x
_atom_site_fract_y
_atom_site_fract_z
Si Si1 0.251531 0.591774 0.564529
Si Si2 0.200776 0.038372 0.822571
Si Si3 0.720522 0.111421 0.591581
Si Si4 0.660829 0.134696 0.427134
Si Si5 0.903145 0.541528 0.175566
Si Si6 0.298509 0.484602 0.407228
O O1 0.339564 0.660437 0.625000
O O2 0.133405 0.686249 0.548947
O O3 0.185576 0.480632 0.608410
O O4 0.304753 0.539185 0.488726
O O5 0.118374 0.118374 0.875000
O O6 0.131648 0.000000 0.750000
O O7 0.244329 0.919287 0.868406
O O8 0.854382 0.145619 0.625000
O O9 0.707928 0.157531 0.508315
O O10 0.621658 0.188854 0.643205
O O11 0.675381 0.968701 0.583200
O O12 0.594861 0.255918 0.395881
O O13 0.557588 0.020429 0.428427
O O14 0.834514 0.500000 0.250000
O O15 0.422525 0.422525 0.375000
#
# Coordination Sequence:
#
# PCOD9547729 Si02
#       6
#     8   8   8   8   8   8
#     4  10  20  35  60  92 122 160 221 269 320 391
#     4  10  19  35  64  96 127 170 215 267 333 389
#     4   9  18  33  58  88 120 167 218 254 325 403
#     4   9  17  34  58  85 125 164 209 266 322 389
#     4   8  16  32  57  85 119 158 204 269 320 370
#     4  10  19  34  59  87 121 167 218 267 327 386
#
# _framework density 22.954165
#
# number of rings (size 3 to 8) (size 9 to 14) (size 15 to 20)
#    0.000    2.667    1.667    1.500    0.000    0.000 
#    0.000    6.667   11.000    7.000    0.000    0.000 
#    0.000    0.000    0.000    0.000    0.000    3.167 
#
# Total GULP energy -267864.318898 kJ/mol
# GULP energy per Si atom -5580.506644 kJ/mol
# Density = 2.290192 g / cm^3
# Si number density = 22.954165 Si / 1000 Ang^3
#
#
#
# Elastic Constant Matrix: (Units=GPa)
#
#
# Indices 1 2 3 4 5 6 
#
# 1 39.5430 41.4141 47.8366 0.0000 0.0000 0.0000
# 2 41.4141 39.5437 47.8354 0.0000 0.0000 0.0000
# 3 47.8366 47.8354 195.0021 0.0000 0.0000 0.0000
# 4 0.0000 0.0000 0.0000 21.7552 0.0000 0.0000
# 5 0.0000 0.0000 0.0000 0.0000 21.7560 0.0000
# 6 0.0000 0.0000 0.0000 0.0000 0.0000 -29.1037
#
#
#
# Elastic Compliance Matrix: (Units=1/GPa)
#
#
# Indices 1 2 3 4 5 6 
#
# 1 -0.258585 0.275974 -0.004264 0.000000 0.000000 0.000000
# 2 0.275974 -0.258573 -0.004270 0.000000 0.000000 0.000000
# 3 -0.004264 -0.004270 0.007222 0.000000 0.000000 0.000000
# 4 0.000000 0.000000 0.000000 0.045966 0.000000 0.000000
# 5 0.000000 0.000000 0.000000 0.000000 0.045964 0.000000
# 6 0.000000 0.000000 0.000000 0.000000 0.000000 -0.034360
#
#
# Mechanical properties :
#
#
# Convention : Reuss Voigt Hill
#
# Bulk Modulus (GPa) = 40.09155 60.91789 50.50472
# Shear Modulus (GPa) = -5.10762 12.01502 3.45370
#
# Velocity S-wave (km/s) = -1.49331 2.29035 1.22796
# Velocity P-wave (km/s) = 3.81189 5.79576 4.90517
#
# Compressibility (1/GPa) = 0.02494291
#
# Stress axis : x y z
#
# Youngs Moduli (GPa) = -3.86720 -3.86739 138.47160
#
# Poissons Ratio (x) = 1.06730 0.59045
# Poissons Ratio (y) = 1.06725 0.59131
# Poissons Ratio (z) = -0.01649 -0.01651
#
# Static dielectric constant tensor:
#      x y z
#    x 1.911330 0.000000 0.000000 
#    y 0.000000 1.911330 0.000000 
#    z 0.000000 0.000000 1.847090 
# 
# From -- ./inp_files/21127.got.cif
#   From: 2010.05.17/outbox.cif.g08.bks.cpg/sg91_11_cif.got.tgz:21127.got - 2010.06.03 19:20:03.
