data_PCOD9547647
_publ_section_title
;
Structure prediction by ZEFSAII (Michael W. Deem and Ramdas Pophale) SiO2 
 PCOD9547647
Probable space group: P 41 2 2
;
_chemical_formula_sum "Si O2"
_cell_formula_units_Z 48
_cell_length_a 10.725124
_cell_length_b 10.725124
_cell_length_c 19.482060
_cell_angle_alpha 90.000000
_cell_angle_beta 90.000000
_cell_angle_gamma 90.000000
_cell_volume 2240.987946
_symmetry_space_group_name_H-M "P 41 2 2"
_symmetry_group_IT_number 91
_symmetry_cell_setting 'tetragonal'
loop_
_space_group_symop_operation_xyz
x,y,z
-y,x,1/4+z
-x,-y,1/2+z
y,-x,3/4+z
x,-y,1/2-z
-x,y,-z
y,x,3/4-z
-y,-x,1/4-z
loop_
_atom_site_type_symbol
_atom_site_label
_atom_site_fract_x
_atom_site_fract_y
_atom_site_fract_z
Si Si1 0.792049 0.641496 0.734986
Si Si2 0.396483 0.007146 0.332169
Si Si3 0.024875 0.356342 0.841186
Si Si4 0.763250 0.236751 0.625000
Si Si5 0.753584 0.303240 0.354332
Si Si6 0.773912 0.500000 0.250000
Si Si7 0.871222 0.969769 0.172026
O O1 0.820276 0.500000 0.750000
O O2 0.926649 0.699181 0.714544
O O3 0.731150 0.698708 0.802472
O O4 0.714843 0.656926 0.665733
O O5 0.530954 0.039411 0.365448
O O6 0.287221 0.097482 0.360008
O O7 0.400318 0.000000 0.250000
O O8 0.368796 0.870800 0.360114
O O9 0.051685 0.245209 0.893434
O O10 0.137275 0.416286 0.799078
O O11 0.705383 0.395878 0.295480
O O12 0.812433 0.170022 0.331404
O O13 0.902015 0.000000 0.250000
O O14 0.989227 0.010774 0.125000
#
# Coordination Sequence:
#
# PCOD9547647 Si02
#       7
#     8   8   8   4   8   4   8
#     4  11  20  39  60  91 123 171 216 273 335 389
#     4  11  21  37  60  97 120 165 220 269 328 402
#     4  10  20  38  64  85 126 171 220 267 333 411
#     4  12  22  34  64  90 130 158 216 282 318 386
#     4  10  23  37  63  93 129 169 215 266 334 401
#     4  10  18  40  64  92 126 170 224 272 318 404
#     4  11  24  40  59  92 133 174 214 271 345 408
#
# _framework density 21.419125000000001
#
# number of rings (size 3 to 8) (size 9 to 14) (size 15 to 20)
#    0.000    1.333    4.167    2.500    1.167    2.000 
#    0.000    0.000    1.833    0.000    2.167    0.000 
#    0.000    0.000    0.000    0.000    0.000    0.000 
#
# Total GULP energy -267594.813663 kJ/mol
# GULP energy per Si atom -5574.891951 kJ/mol
# Density = 2.137037 g / cm^3
# Si number density = 21.419125 Si / 1000 Ang^3
#
#
#
# Elastic Constant Matrix: (Units=GPa)
#
#
# Indices 1 2 3 4 5 6 
#
# 1 44.8866 -2.5829 29.9789 0.0000 0.0000 0.0000
# 2 -2.5829 44.8865 29.9794 0.0000 0.0000 0.0000
# 3 29.9789 29.9794 171.3378 0.0000 0.0000 0.0000
# 4 0.0000 0.0000 0.0000 19.6541 0.0000 0.0000
# 5 0.0000 0.0000 0.0000 0.0000 19.6495 0.0000
# 6 0.0000 0.0000 0.0000 0.0000 0.0000 -3.7431
#
#
#
# Elastic Compliance Matrix: (Units=1/GPa)
#
#
# Indices 1 2 3 4 5 6 
#
# 1 0.026250 0.005184 -0.005500 0.000000 0.000000 0.000000
# 2 0.005184 0.026250 -0.005500 0.000000 0.000000 0.000000
# 3 -0.005500 -0.005500 0.007761 0.000000 0.000000 0.000000
# 4 0.000000 0.000000 0.000000 0.050880 0.000000 0.000000
# 5 0.000000 0.000000 0.000000 0.000000 0.050892 0.000000
# 6 0.000000 0.000000 0.000000 0.000000 0.000000 -0.267162
#
#
# Mechanical properties :
#
#
# Convention : Reuss Voigt Hill
#
# Bulk Modulus (GPa) = 20.56393 41.76242 31.16317
# Shear Modulus (GPa) = -64.69421 20.69449 -21.99986
#
# Velocity S-wave (km/s) = -5.50177 3.11170 -3.20834
# Velocity P-wave (km/s) = 5.54417 5.69651 0.92533
#
# Compressibility (1/GPa) = 0.04862885
#
# Stress axis : x y z
#
# Youngs Moduli (GPa) = 38.09532 38.09503 128.84758
#
# Poissons Ratio (x) = -0.19748 0.70866
# Poissons Ratio (y) = -0.19748 0.70867
# Poissons Ratio (z) = 0.20952 0.20953
#
# Static dielectric constant tensor:
#      x y z
#    x 1.833990 0.000000 0.000000 
#    y 0.000000 1.834000 0.000000 
#    z 0.000000 0.000000 1.625970 
# 
# From -- ./inp_files/5630.got.cif
#   From: 2010.05.17/outbox.cif.g08.bks.cpg/sg91_3_cif.got.tgz:5630.got - 2010.06.03 19:20:03.
