data_PCOD9547184
_publ_section_title
;
Structure prediction by ZEFSAII (Michael W. Deem and Ramdas Pophale) SiO2 
 PCOD9547184
Probable space group: P 4 21 2
;
_chemical_formula_sum "Si O2"
_cell_formula_units_Z 40
_cell_length_a 7.903261
_cell_length_b 7.903261
_cell_length_c 29.302167
_cell_angle_alpha 90.000000
_cell_angle_beta 90.000000
_cell_angle_gamma 90.000000
_cell_volume 1830.258313
_symmetry_space_group_name_H-M "P 4 21 2"
_symmetry_group_IT_number 90
_symmetry_cell_setting 'tetragonal'
loop_
_space_group_symop_operation_xyz
x,y,z
1/2-y,1/2+x,z
-x,-y,z
1/2+y,1/2-x,z
1/2+x,1/2-y,-z
1/2-x,1/2+y,-z
y,x,-z
-y,-x,-z
loop_
_atom_site_type_symbol
_atom_site_label
_atom_site_fract_x
_atom_site_fract_y
_atom_site_fract_z
Si Si1 0.231063 0.095074 0.798429
Si Si2 0.732603 0.595859 0.953051
Si Si3 0.000000 0.000000 0.720838
Si Si4 0.000000 0.000000 0.123537
Si Si5 0.268289 0.400766 0.645352
Si Si6 0.092463 0.768988 0.545646
O O1 0.292079 0.898413 0.798175
O O2 0.112444 0.115791 0.754270
O O3 0.115116 0.113725 0.843148
O O4 0.791766 0.401017 0.951557
O O5 0.610834 0.617140 0.909832
O O6 0.638996 0.638996 0.000000
O O7 0.120821 0.893775 0.687280
O O8 0.207836 0.597035 0.647895
O O9 0.349038 0.372079 0.595273
O O10 0.205822 0.599768 0.544764
O O11 0.131107 0.868894 0.500000
#
# Coordination Sequence:
#
# PCOD9547184 Si02
#       6
#     8   8   4   4   8   8
#     4  10  22  38  56  81 112 143 180 233 289 337
#     4  11  23  39  61  90 125 162 202 246 288 339
#     4  11  20  34  58  80 102 138 182 223 272 334
#     4  11  21  38  61  84 113 154 199 235 282 342
#     4   9  19  35  53  76 106 138 174 217 265 320
#     4   9  19  34  51  74 104 136 172 213 257 311
#
# _framework density 21.854835999999999
#
# number of rings (size 3 to 8) (size 9 to 14) (size 15 to 20)
#    0.000    2.000    0.000    5.100    0.000    3.600 
#    0.000    2.000    0.000   12.000    0.000    0.000 
#    0.000    0.000    0.000    0.000    0.000    0.000 
#
# Total GULP energy -223599.049174 kJ/mol
# GULP energy per Si atom -5589.976229 kJ/mol
# Density = 2.180509 g / cm^3
# Si number density = 21.854836 Si / 1000 Ang^3
#
#
#
# Elastic Constant Matrix: (Units=GPa)
#
#
# Indices 1 2 3 4 5 6 
#
# 1 42.5377 -7.1405 27.5040 0.0000 0.0000 0.0000
# 2 -7.1405 42.5377 27.5038 0.0000 0.0000 0.0000
# 3 27.5040 27.5038 188.9894 0.0000 0.0000 0.0000
# 4 0.0000 0.0000 0.0000 42.1389 0.0000 0.0000
# 5 0.0000 0.0000 0.0000 0.0000 42.1363 0.0000
# 6 0.0000 0.0000 0.0000 0.0000 0.0000 27.0063
#
#
#
# Elastic Compliance Matrix: (Units=1/GPa)
#
#
# Indices 1 2 3 4 5 6 
#
# 1 0.028318 0.008189 -0.005313 0.000000 0.000000 0.000000
# 2 0.008189 0.028318 -0.005313 0.000000 0.000000 0.000000
# 3 -0.005313 -0.005313 0.006838 0.000000 0.000000 0.000000
# 4 0.000000 0.000000 0.000000 0.023731 0.000000 0.000000
# 5 0.000000 0.000000 0.000000 0.000000 0.023732 0.000000
# 6 0.000000 0.000000 0.000000 0.000000 0.000000 0.037028
#
#
# Mechanical properties :
#
#
# Convention : Reuss Voigt Hill
#
# Bulk Modulus (GPa) = 17.06474 41.08881 29.07677
# Shear Modulus (GPa) = 29.00670 37.33615 33.17143
#
# Velocity S-wave (km/s) = 3.64709 4.13773 3.90013
# Velocity P-wave (km/s) = 5.05571 6.45518 5.79782
#
# Compressibility (1/GPa) = 0.05860038
#
# Stress axis : x y z
#
# Youngs Moduli (GPa) = 35.31269 35.31279 146.24803
#
# Poissons Ratio (x) = -0.28917 0.77701
# Poissons Ratio (y) = -0.28917 0.77700
# Poissons Ratio (z) = 0.18761 0.18761
#
# Static dielectric constant tensor:
#      x y z
#    x 1.623650 0.000000 0.000000 
#    y 0.000000 1.623690 0.000000 
#    z 0.000000 0.000000 1.797420 
# 
# From -- ./inp_files/2979.got.cif
#   From: 2010.05.17/outbox.cif.g08.bks.cpg/sg90_2_cif.got.tgz:2979.got - 2010.06.03 19:17:45.
