data_PCOD9547691
_publ_section_title
;
Structure prediction by ZEFSAII (Michael W. Deem and Ramdas Pophale) SiO2 
 PCOD9547691
Probable space group: P 41 2 2
;
_chemical_formula_sum "Si O2"
_cell_formula_units_Z 36
_cell_length_a 7.120828
_cell_length_b 7.120828
_cell_length_c 25.369956
_cell_angle_alpha 90.000000
_cell_angle_beta 90.000000
_cell_angle_gamma 90.000000
_cell_volume 1286.413845
_symmetry_space_group_name_H-M "P 41 2 2"
_symmetry_group_IT_number 91
_symmetry_cell_setting 'tetragonal'
loop_
_space_group_symop_operation_xyz
x,y,z
-y,x,1/4+z
-x,-y,1/2+z
y,-x,3/4+z
x,-y,1/2-z
-x,y,-z
y,x,3/4-z
-y,-x,1/4-z
loop_
_atom_site_type_symbol
_atom_site_label
_atom_site_fract_x
_atom_site_fract_y
_atom_site_fract_z
Si Si1 0.299900 0.700101 0.125000
Si Si2 0.290333 0.701693 0.012784
Si Si3 0.737249 0.740516 0.538712
Si Si4 0.733992 0.645609 0.099310
Si Si5 0.232177 0.833247 0.681209
O O1 0.212342 0.766589 0.069582
O O2 0.524173 0.720001 0.112622
O O3 0.314187 0.476694 0.026048
O O4 0.500000 0.768834 0.000000
O O5 0.190992 0.731304 0.956071
O O6 0.651534 0.824559 0.592396
O O7 0.722804 0.845495 0.482295
O O8 0.956812 0.729257 0.551036
O O9 0.735456 0.428991 0.082841
O O10 0.137322 0.862679 0.625000
#
# Coordination Sequence:
#
# PCOD9547691 Si02
#       5
#     4   8   8   8   8
#     4   8  12  22  42  72  94 122 156 202 246 294
#     4   8  14  24  46  73 100 126 158 202 258 296
#     4   9  19  30  49  77 103 128 171 218 250 297
#     4   9  15  27  48  72  97 128 166 208 252 297
#     4  10  19  32  51  75 101 134 172 212 256 300
#
# _framework density 27.984773000000001
#
# number of rings (size 3 to 8) (size 9 to 14) (size 15 to 20)
#    0.000    3.111    1.111    0.000    3.111    0.000 
#    0.000    0.000   24.444   10.667    2.889    0.000 
#    0.000    0.000    0.000    0.000    0.000    0.000 
#
# Total GULP energy -200609.929712 kJ/mol
# GULP energy per Si atom -5572.498048 kJ/mol
# Density = 2.792108 g / cm^3
# Si number density = 27.984773 Si / 1000 Ang^3
#
#
#
# Elastic Constant Matrix: (Units=GPa)
#
#
# Indices 1 2 3 4 5 6 
#
# 1 73.8071 7.2737 43.6809 0.0000 0.0000 0.0000
# 2 7.2737 73.8067 43.6808 0.0000 0.0000 0.0000
# 3 43.6809 43.6808 429.3432 0.0000 0.0000 0.0000
# 4 0.0000 0.0000 0.0000 66.4215 0.0000 0.0000
# 5 0.0000 0.0000 0.0000 0.0000 66.4166 0.0000
# 6 0.0000 0.0000 0.0000 0.0000 0.0000 -13.1662
#
#
#
# Elastic Compliance Matrix: (Units=1/GPa)
#
#
# Indices 1 2 3 4 5 6 
#
# 1 0.014441 -0.000589 -0.001409 0.000000 0.000000 0.000000
# 2 -0.000589 0.014441 -0.001409 0.000000 0.000000 0.000000
# 3 -0.001409 -0.001409 0.002616 0.000000 0.000000 0.000000
# 4 0.000000 0.000000 0.000000 0.015055 0.000000 0.000000
# 5 0.000000 0.000000 0.000000 0.000000 0.015056 0.000000
# 6 0.000000 0.000000 0.000000 0.000000 0.000000 -0.075952
#
#
# Mechanical properties :
#
#
# Convention : Reuss Voigt Hill
#
# Bulk Modulus (GPa) = 40.51451 85.13641 62.82546
# Shear Modulus (GPa) = 7139.36205 56.08916 3597.72560
#
# Velocity S-wave (km/s) = 50.56380 4.48177 35.89418
# Velocity P-wave (km/s) = 58.51016 7.56770 41.71756
#
# Compressibility (1/GPa) = 0.02468251
#
# Stress axis : x y z
#
# Youngs Moduli (GPa) = 69.24758 69.24722 382.27855
#
# Poissons Ratio (x) = 0.04080 0.53873
# Poissons Ratio (y) = 0.04080 0.53873
# Poissons Ratio (z) = 0.09759 0.09759
#
# Static dielectric constant tensor:
#      x y z
#    x 2.140830 0.000000 0.000000 
#    y 0.000000 2.140830 0.000000 
#    z 0.000000 0.000000 2.554870 
# 
# From -- ./inp_files/7249.got.cif
#   From: 2010.05.17/outbox.cif.g08.bks.cpg/sg91_4_cif.got.tgz:7249.got - 2010.06.03 19:20:03.
