data_PCOD9547596
_publ_section_title
;
Structure prediction by ZEFSAII (Michael W. Deem and Ramdas Pophale) SiO2 
 PCOD9547596
Probable space group: P 41 2 2
;
_chemical_formula_sum "Si O2"
_cell_formula_units_Z 64
_cell_length_a 26.566167
_cell_length_b 26.566167
_cell_length_c 5.583495
_cell_angle_alpha 90.000000
_cell_angle_beta 90.000000
_cell_angle_gamma 90.000000
_cell_volume 3940.614294
_symmetry_space_group_name_H-M "P 41 2 2"
_symmetry_group_IT_number 91
_symmetry_cell_setting 'tetragonal'
loop_
_space_group_symop_operation_xyz
x,y,z
-y,x,1/4+z
-x,-y,1/2+z
y,-x,3/4+z
x,-y,1/2-z
-x,y,-z
y,x,3/4-z
-y,-x,1/4-z
loop_
_atom_site_type_symbol
_atom_site_label
_atom_site_fract_x
_atom_site_fract_y
_atom_site_fract_z
Si Si1 0.547179 0.764363 0.666636
Si Si2 0.651709 0.969479 0.001904
Si Si3 0.539374 0.053842 0.324802
Si Si4 0.743751 0.784581 0.622309
Si Si5 0.676038 0.869374 0.769037
Si Si6 0.791994 0.392581 0.806994
Si Si7 0.722716 0.648864 0.312471
Si Si8 0.580796 0.866265 0.477861
O O1 0.500000 0.750913 0.500000
O O2 0.595946 0.734641 0.563478
O O3 0.554209 0.825299 0.644772
O O4 0.559801 0.761514 0.948347
O O5 0.680918 0.916807 0.946773
O O6 0.656140 0.000000 0.750000
O O7 0.593086 0.954470 0.044500
O O8 0.665531 0.000000 0.250000
O O9 0.500000 0.079807 0.500000
O O10 0.550758 0.085005 0.088915
O O11 0.518538 0.000000 0.250000
O O12 0.775163 0.775163 0.375000
O O13 0.724124 0.841992 0.655186
O O14 0.694223 0.749479 0.580640
O O15 0.769185 0.769185 0.875000
O O16 0.635566 0.883649 0.565061
O O17 0.645143 0.824153 0.894602
O O18 0.752744 0.357242 0.941294
O O19 0.832976 0.413131 0.990661
O O20 0.666635 0.666635 0.375000
#
# Coordination Sequence:
#
# PCOD9547596 Si02
#       8
#     8   8   8   8   8   8   8   8
#     4  10  22  32  48  70  95 127 166 195 238 305
#     4  11  24  37  53  70  89 127 169 211 263 311
#     4  11  23  35  47  64  86 117 164 220 268 310
#     4  11  22  32  54  81 103 129 161 198 261 328
#     4  11  19  35  53  69 101 121 164 211 253 312
#     4  10  18  34  49  71  94 128 160 198 256 297
#     4  10  20  31  49  71  97 124 154 193 244 308
#     4  10  21  33  49  68  84 127 157 203 261 304
#
# _framework density 16.241122000000001
#
# number of rings (size 3 to 8) (size 9 to 14) (size 15 to 20)
#    0.000    1.500    5.000    3.375    1.750    2.000 
#    0.000    0.000    0.000    0.000    0.000    0.000 
#    0.000    0.000    4.250    0.000    0.000    0.000 
#
# Total GULP energy -356418.934177 kJ/mol
# GULP energy per Si atom -5569.045847 kJ/mol
# Density = 1.620416 g / cm^3
# Si number density = 16.241122 Si / 1000 Ang^3
#
#
#
# Elastic Constant Matrix: (Units=GPa)
#
#
# Indices 1 2 3 4 5 6 
#
# 1 58.4494 35.2570 29.8940 0.0000 0.0000 0.0000
# 2 35.2570 58.4494 29.8940 0.0000 0.0000 0.0000
# 3 29.8940 29.8940 87.9992 0.0000 0.0000 0.0000
# 4 0.0000 0.0000 0.0000 18.8070 0.0000 0.0000
# 5 0.0000 0.0000 0.0000 0.0000 18.8070 0.0000
# 6 0.0000 0.0000 0.0000 0.0000 0.0000 15.2049
#
#
#
# Elastic Compliance Matrix: (Units=1/GPa)
#
#
# Indices 1 2 3 4 5 6 
#
# 1 0.028371 -0.014746 -0.004628 0.000000 0.000000 0.000000
# 2 -0.014746 0.028371 -0.004628 0.000000 0.000000 0.000000
# 3 -0.004628 -0.004628 0.014508 0.000000 0.000000 0.000000
# 4 0.000000 0.000000 0.000000 0.053172 0.000000 0.000000
# 5 0.000000 0.000000 0.000000 0.000000 0.053172 0.000000
# 6 0.000000 0.000000 0.000000 0.000000 0.000000 0.065768
#
#
# Mechanical properties :
#
#
# Convention : Reuss Voigt Hill
#
# Bulk Modulus (GPa) = 43.02166 43.88759 43.45463
# Shear Modulus (GPa) = 16.71590 17.88734 17.30162
#
# Velocity S-wave (km/s) = 3.21165 3.32228 3.26743
# Velocity P-wave (km/s) = 6.34821 6.46513 6.40693
#
# Compressibility (1/GPa) = 0.02324410
#
# Stress axis : x y z
#
# Youngs Moduli (GPa) = 35.24711 35.24711 68.92575
#
# Poissons Ratio (x) = 0.51977 0.31902
# Poissons Ratio (y) = 0.51977 0.31902
# Poissons Ratio (z) = 0.16314 0.16314
#
# Static dielectric constant tensor:
#      x y z
#    x 1.589700 0.000000 0.000000 
#    y 0.000000 1.589700 0.000000 
#    z 0.000000 0.000000 1.761400 
# 
# From -- ./inp_files/1532.got.cif
#   From: 2010.05.17/outbox.cif.g08.bks.cpg/sg91_1_cif.got.tgz:1532.got - 2010.06.03 19:20:03.
