data_PCOD9547492
_publ_section_title
;
Structure prediction by ZEFSAII (Michael W. Deem and Ramdas Pophale) SiO2 
 PCOD9547492
Probable space group: P 41 2 2
;
_chemical_formula_sum "Si O2"
_cell_formula_units_Z 40
_cell_length_a 8.492799
_cell_length_b 8.492799
_cell_length_c 30.716357
_cell_angle_alpha 90.000000
_cell_angle_beta 90.000000
_cell_angle_gamma 90.000000
_cell_volume 2215.498182
_symmetry_space_group_name_H-M "P 41 2 2"
_symmetry_group_IT_number 91
_symmetry_cell_setting 'tetragonal'
loop_
_space_group_symop_operation_xyz
x,y,z
-y,x,1/4+z
-x,-y,1/2+z
y,-x,3/4+z
x,-y,1/2-z
-x,y,-z
y,x,3/4-z
-y,-x,1/4-z
loop_
_atom_site_type_symbol
_atom_site_label
_atom_site_fract_x
_atom_site_fract_y
_atom_site_fract_z
Si Si1 0.317861 0.294921 0.503111
Si Si2 0.002311 0.181662 0.201436
Si Si3 0.512966 0.108514 0.186379
Si Si4 0.897119 0.221299 0.578814
Si Si5 0.240004 0.759997 0.625000
Si Si6 0.000000 0.238916 0.000000
O O1 0.500000 0.338972 0.500000
O O2 0.212812 0.428908 0.526413
O O3 0.236780 0.256000 0.456932
O O4 0.298602 0.137220 0.532380
O O5 0.905162 0.231485 0.158943
O O6 0.875370 0.145863 0.239348
O O7 0.091031 0.017515 0.190472
O O8 0.601368 0.219722 0.152364
O O9 0.378550 0.000940 0.166015
O O10 0.646362 0.998646 0.208492
O O11 0.832258 0.167743 0.625000
#
# Coordination Sequence:
#
# PCOD9547492 Si02
#       6
#     8   8   8   8   4   4
#     4  11  23  41  60  86 127 165 198 247 304 374
#     4  10  19  37  63  90 115 154 211 253 291 347
#     4  10  21  41  61  86 124 162 196 248 314 360
#     4  11  21  39  62  89 117 163 206 249 299 358
#     4  10  22  36  62  96 118 154 204 264 290 358
#     4  10  16  36  66  80 112 160 202 246 294 352
#
# _framework density 18.054628000000001
#
# number of rings (size 3 to 8) (size 9 to 14) (size 15 to 20)
#    0.000    1.600    5.000    1.200    2.800    0.000 
#    1.800    6.000    0.000    0.000    0.000    0.000 
#    0.000    0.000    0.000    0.000    0.000    0.000 
#
# Total GULP energy -223074.115100 kJ/mol
# GULP energy per Si atom -5576.852878 kJ/mol
# Density = 1.801353 g / cm^3
# Si number density = 18.054628 Si / 1000 Ang^3
#
#
#
# Elastic Constant Matrix: (Units=GPa)
#
#
# Indices 1 2 3 4 5 6 
#
# 1 78.1552 18.4667 33.4141 0.0000 0.0000 0.0000
# 2 18.4667 78.1559 33.4148 0.0000 0.0000 0.0000
# 3 33.4141 33.4148 90.9799 0.0000 0.0000 0.0000
# 4 0.0000 0.0000 0.0000 26.6638 0.0000 0.0000
# 5 0.0000 0.0000 0.0000 0.0000 26.6636 0.0000
# 6 0.0000 0.0000 0.0000 0.0000 0.0000 8.2841
#
#
#
# Elastic Compliance Matrix: (Units=1/GPa)
#
#
# Indices 1 2 3 4 5 6 
#
# 1 0.015314 -0.001440 -0.005095 0.000000 0.000000 0.000000
# 2 -0.001440 0.015314 -0.005096 0.000000 0.000000 0.000000
# 3 -0.005095 -0.005096 0.014734 0.000000 0.000000 0.000000
# 4 0.000000 0.000000 0.000000 0.037504 0.000000 0.000000
# 5 0.000000 0.000000 0.000000 0.000000 0.037504 0.000000
# 6 0.000000 0.000000 0.000000 0.000000 0.000000 0.120714
#
#
# Mechanical properties :
#
#
# Convention : Reuss Voigt Hill
#
# Bulk Modulus (GPa) = 45.24868 46.43135 45.84002
# Shear Modulus (GPa) = 18.40183 23.12199 20.76191
#
# Velocity S-wave (km/s) = 3.19600 3.58253 3.39477
# Velocity P-wave (km/s) = 6.22380 6.54871 6.38832
#
# Compressibility (1/GPa) = 0.02210009
#
# Stress axis : x y z
#
# Youngs Moduli (GPa) = 65.30083 65.30100 67.86871
#
# Poissons Ratio (x) = 0.09402 0.34582
# Poissons Ratio (y) = 0.09402 0.34583
# Poissons Ratio (z) = 0.33274 0.33275
#
# Static dielectric constant tensor:
#      x y z
#    x 1.613220 0.000000 0.000000 
#    y 0.000000 1.613220 0.000000 
#    z 0.000000 0.000000 1.623930 
# 
# From -- ./inp_files/7789.got.cif
#   From: 2010.05.17/outbox.cif.g08.bks.cpg/sg91_4_cif.got.tgz:7789.got - 2010.06.03 19:20:03.
