data_PCOD9547956
_publ_section_title
;
Structure prediction by ZEFSAII (Michael W. Deem and Ramdas Pophale) SiO2 
 PCOD9547956
Probable space group: P 41 2 2
;
_chemical_formula_sum "Si O2"
_cell_formula_units_Z 44
_cell_length_a 8.257192
_cell_length_b 8.257192
_cell_length_c 28.549497
_cell_angle_alpha 90.000000
_cell_angle_beta 90.000000
_cell_angle_gamma 90.000000
_cell_volume 1946.539528
_symmetry_space_group_name_H-M "P 41 2 2"
_symmetry_group_IT_number 91
_symmetry_cell_setting 'tetragonal'
loop_
_space_group_symop_operation_xyz
x,y,z
-y,x,1/4+z
-x,-y,1/2+z
y,-x,3/4+z
x,-y,1/2-z
-x,y,-z
y,x,3/4-z
-y,-x,1/4-z
loop_
_atom_site_type_symbol
_atom_site_label
_atom_site_fract_x
_atom_site_fract_y
_atom_site_fract_z
Si Si1 0.146694 0.334321 0.908841
Si Si2 0.870439 0.870439 0.875000
Si Si3 0.000000 0.421223 0.000000
Si Si4 0.418196 0.504618 0.805262
Si Si5 0.261302 0.678002 0.036115
Si Si6 0.500000 0.087699 0.500000
Si Si7 0.622535 0.896660 0.591897
O O1 0.182532 0.182532 0.875000
O O2 0.326992 0.390301 0.924759
O O3 0.072386 0.485700 0.881067
O O4 0.047751 0.311608 0.956033
O O5 0.767652 0.828258 0.828193
O O6 0.041882 0.796957 0.858813
O O7 0.147820 0.541551 0.013393
O O8 0.382921 0.500000 0.750000
O O9 0.593687 0.581866 0.809465
O O10 0.292241 0.621832 0.830634
O O11 0.339466 0.798391 0.997621
O O12 0.547472 0.981951 0.545370
#
# Coordination Sequence:
#
# PCOD9547956 Si02
#       7
#     8   4   4   8   8   4   8
#     4  10  22  37  62  94 129 168 221 271 335 394
#     4  10  22  38  58  92 124 162 212 260 330 390
#     4  12  20  40  62  96 130 166 212 284 336 394
#     4  11  20  38  63  96 124 165 220 267 324 388
#     4  11  22  37  64  95 121 166 218 273 322 390
#     4  10  20  38  62  92 128 162 222 268 332 394
#     4  10  21  38  61  91 131 168 208 277 327 393
#
# _framework density 22.604215
#
# number of rings (size 3 to 8) (size 9 to 14) (size 15 to 20)
#    0.000    1.455    5.455    0.000    3.818    0.000 
#    0.000    0.000    2.000   15.273    0.000    0.000 
#    0.000    0.000    0.000    0.000    0.000    0.000 
#
# Total GULP energy -245588.413681 kJ/mol
# GULP energy per Si atom -5581.554856 kJ/mol
# Density = 2.255277 g / cm^3
# Si number density = 22.604215 Si / 1000 Ang^3
#
#
#
# Elastic Constant Matrix: (Units=GPa)
#
#
# Indices 1 2 3 4 5 6 
#
# 1 44.4740 8.3070 13.0973 0.0000 0.0000 0.0000
# 2 8.3070 44.4740 13.0973 0.0000 0.0000 0.0000
# 3 13.0973 13.0973 100.0331 0.0000 0.0000 0.0000
# 4 0.0000 0.0000 0.0000 22.1112 0.0000 0.0000
# 5 0.0000 0.0000 0.0000 0.0000 22.1112 0.0000
# 6 0.0000 0.0000 0.0000 0.0000 0.0000 30.6447
#
#
#
# Elastic Compliance Matrix: (Units=1/GPa)
#
#
# Indices 1 2 3 4 5 6 
#
# 1 0.023956 -0.003693 -0.002653 0.000000 0.000000 0.000000
# 2 -0.003693 0.023956 -0.002653 0.000000 0.000000 0.000000
# 3 -0.002653 -0.002653 0.010691 0.000000 0.000000 0.000000
# 4 0.000000 0.000000 0.000000 0.045226 0.000000 0.000000
# 5 0.000000 0.000000 0.000000 0.000000 0.045226 0.000000
# 6 0.000000 0.000000 0.000000 0.000000 0.000000 0.032632
#
#
# Mechanical properties :
#
#
# Convention : Reuss Voigt Hill
#
# Bulk Modulus (GPa) = 24.62744 28.66491 26.64617
# Shear Modulus (GPa) = 23.44980 25.27206 24.36093
#
# Velocity S-wave (km/s) = 3.22438 3.34731 3.28642
# Velocity P-wave (km/s) = 4.97804 5.25815 5.12001
#
# Compressibility (1/GPa) = 0.04060512
#
# Stress axis : x y z
#
# Youngs Moduli (GPa) = 41.74290 41.74290 93.53314
#
# Poissons Ratio (x) = 0.15417 0.24814
# Poissons Ratio (y) = 0.15417 0.24814
# Poissons Ratio (z) = 0.11074 0.11074
#
# Static dielectric constant tensor:
#      x y z
#    x 1.871620 0.000000 0.000000 
#    y 0.000000 1.871620 0.000000 
#    z 0.000000 0.000000 1.854140 
# 
# From -- ./inp_files/7906.got.cif
#   From: 2010.05.17/outbox.cif.g08.bks.cpg/sg91_4_cif.got.tgz:7906.got - 2010.06.03 19:20:03.
