data_PCOD9547608
_publ_section_title
;
Structure prediction by ZEFSAII (Michael W. Deem and Ramdas Pophale) SiO2 
 PCOD9547608
Probable space group: P 41 2 2
;
_chemical_formula_sum "Si O2"
_cell_formula_units_Z 56
_cell_length_a 15.018253
_cell_length_b 15.018253
_cell_length_c 11.999528
_cell_angle_alpha 90.000000
_cell_angle_beta 90.000000
_cell_angle_gamma 90.000000
_cell_volume 2706.468619
_symmetry_space_group_name_H-M "P 41 2 2"
_symmetry_group_IT_number 91
_symmetry_cell_setting 'tetragonal'
loop_
_space_group_symop_operation_xyz
x,y,z
-y,x,1/4+z
-x,-y,1/2+z
y,-x,3/4+z
x,-y,1/2-z
-x,y,-z
y,x,3/4-z
-y,-x,1/4-z
loop_
_atom_site_type_symbol
_atom_site_label
_atom_site_fract_x
_atom_site_fract_y
_atom_site_fract_z
Si Si1 0.291295 0.072635 0.078487
Si Si2 0.732383 0.214657 0.360996
Si Si3 0.801130 0.105003 0.542229
Si Si4 0.000000 0.040311 0.500000
Si Si5 0.578898 0.421103 0.125000
Si Si6 0.664733 0.911110 0.316159
Si Si7 0.527923 0.132820 0.871172
Si Si8 0.666804 0.596661 0.138334
O O1 0.245286 0.165097 0.110364
O O2 0.385093 0.072670 0.142066
O O3 0.233203 0.985488 0.097708
O O4 0.309482 0.079743 0.945330
O O5 0.731745 0.134393 0.448637
O O6 0.709162 0.174166 0.241414
O O7 0.671861 0.299403 0.392393
O O8 0.812327 0.187674 0.625000
O O9 0.902873 0.087046 0.503386
O O10 0.995689 0.995689 0.375000
O O11 0.597611 0.523679 0.091564
O O12 0.644360 0.402958 0.228807
O O13 0.558828 0.894779 0.304027
O O14 0.691034 0.000000 0.250000
O O15 0.557018 0.235869 0.859695
O O16 0.500000 0.124173 0.000000
#
# Coordination Sequence:
#
# PCOD9547608 Si02
#       8
#     8   8   8   4   4   8   8   8
#     4  10  22  38  59  91 124 164 211 256 321 395
#     4  11  22  36  62  94 121 162 208 265 321 373
#     4  11  23  43  59  82 129 178 225 265 321 393
#     4  10  22  38  64  92 130 180 228 278 334 394
#     4  10  18  34  58  92 120 150 184 250 328 390
#     4  11  21  38  61  94 131 153 199 273 329 376
#     4   9  18  35  57  87 116 156 197 248 319 378
#     4  10  20  33  62  90 122 153 196 247 319 385
#
# _framework density 20.691168999999999
#
# number of rings (size 3 to 8) (size 9 to 14) (size 15 to 20)
#    0.000    1.714    2.857    3.000    4.000    2.286 
#    6.429    0.000    6.286    0.000    0.000    0.000 
#    0.000    0.000    0.000    0.000    0.000    0.000 
#
# Total GULP energy -312098.583210 kJ/mol
# GULP energy per Si atom -5573.188986 kJ/mol
# Density = 2.064408 g / cm^3
# Si number density = 20.691169 Si / 1000 Ang^3
#
#
#
# Elastic Constant Matrix: (Units=GPa)
#
#
# Indices 1 2 3 4 5 6 
#
# 1 82.9766 39.9345 -1.1626 0.0000 0.0000 0.0000
# 2 39.9345 82.9771 -1.1621 0.0000 0.0000 0.0000
# 3 -1.1626 -1.1621 48.2844 0.0000 0.0000 0.0000
# 4 0.0000 0.0000 0.0000 20.6869 0.0000 0.0000
# 5 0.0000 0.0000 0.0000 0.0000 20.6871 0.0000
# 6 0.0000 0.0000 0.0000 0.0000 0.0000 33.7295
#
#
#
# Elastic Compliance Matrix: (Units=1/GPa)
#
#
# Indices 1 2 3 4 5 6 
#
# 1 0.015686 -0.007547 0.000196 0.000000 0.000000 0.000000
# 2 -0.007547 0.015686 0.000196 0.000000 0.000000 0.000000
# 3 0.000196 0.000196 0.020720 0.000000 0.000000 0.000000
# 4 0.000000 0.000000 0.000000 0.048340 0.000000 0.000000
# 5 0.000000 0.000000 0.000000 0.000000 0.048339 0.000000
# 6 0.000000 0.000000 0.000000 0.000000 0.000000 0.029648
#
#
# Mechanical properties :
#
#
# Convention : Reuss Voigt Hill
#
# Bulk Modulus (GPa) = 26.46685 32.16199 29.31442
# Shear Modulus (GPa) = 24.35186 26.79593 25.57389
#
# Velocity S-wave (km/s) = 3.43435 3.60257 3.51947
# Velocity P-wave (km/s) = 5.34280 5.73431 5.54201
#
# Compressibility (1/GPa) = 0.03778311
#
# Stress axis : x y z
#
# Youngs Moduli (GPa) = 63.74973 63.75012 48.26246
#
# Poissons Ratio (x) = 0.48110 -0.00946
# Poissons Ratio (y) = 0.48110 -0.00945
# Poissons Ratio (z) = -0.01250 -0.01248
#
# Static dielectric constant tensor:
#      x y z
#    x 1.755030 0.000000 0.000000 
#    y 0.000000 1.755030 0.000000 
#    z 0.000000 0.000000 1.787760 
# 
# From -- ./inp_files/3969.got.cif
#   From: 2010.05.17/outbox.cif.g08.bks.cpg/sg91_2_cif.got.tgz:3969.got - 2010.06.03 19:20:03.
