data_PCOD9547564
_publ_section_title
;
Structure prediction by ZEFSAII (Michael W. Deem and Ramdas Pophale) SiO2 
 PCOD9547564
Probable space group: P 41 2 2
;
_chemical_formula_sum "Si O2"
_cell_formula_units_Z 44
_cell_length_a 10.203104
_cell_length_b 10.203104
_cell_length_c 20.869312
_cell_angle_alpha 90.000000
_cell_angle_beta 90.000000
_cell_angle_gamma 90.000000
_cell_volume 2172.564900
_symmetry_space_group_name_H-M "P 41 2 2"
_symmetry_group_IT_number 91
_symmetry_cell_setting 'tetragonal'
loop_
_space_group_symop_operation_xyz
x,y,z
-y,x,1/4+z
-x,-y,1/2+z
y,-x,3/4+z
x,-y,1/2-z
-x,y,-z
y,x,3/4-z
-y,-x,1/4-z
loop_
_atom_site_type_symbol
_atom_site_label
_atom_site_fract_x
_atom_site_fract_y
_atom_site_fract_z
Si Si1 0.944929 0.505580 0.607291
Si Si2 0.722463 0.000000 0.250000
Si Si3 0.500000 0.028817 0.000000
Si Si4 0.377755 0.778197 0.344153
Si Si5 0.729789 0.766428 0.525267
Si Si6 0.534884 0.465116 0.125000
Si Si7 0.467125 0.684456 0.217669
O O1 0.803222 0.456701 0.583476
O O2 0.979152 0.629942 0.562059
O O3 0.949673 0.520454 0.684021
O O4 0.069237 0.412357 0.591012
O O5 0.802776 0.867658 0.254993
O O6 0.378097 0.127460 0.008616
O O7 0.266197 0.759919 0.396934
O O8 0.495315 0.686945 0.373931
O O9 0.365660 0.718408 0.273669
O O10 0.697893 0.616814 0.504573
O O11 0.468854 0.544404 0.183814
#
# Coordination Sequence:
#
# PCOD9547564 Si02
#       7
#     8   4   4   8   8   4   8
#     4  10  19  34  54  75 118 158 189 223 297 354
#     4  10  18  36  52  78 118 162 186 232 304 362
#     4  10  22  34  54  90 112 146 202 260 274 356
#     4  10  18  31  54  79 113 150 190 227 281 352
#     4   9  20  31  53  84 115 148 195 233 296 337
#     4  10  22  30  52  88 118 140 182 246 294 314
#     4  10  19  35  48  81 118 160 180 232 294 358
#
# _framework density 20.252558000000001
#
# number of rings (size 3 to 8) (size 9 to 14) (size 15 to 20)
#    0.000    2.182    3.636    0.545    7.636    0.727 
#    9.818    0.000    0.000    0.000    0.000   25.455 
#    0.000    0.000    0.000    0.000    0.000    0.000 
#
# Total GULP energy -245185.393830 kJ/mol
# GULP energy per Si atom -5572.395314 kJ/mol
# Density = 2.020646 g / cm^3
# Si number density = 20.252558 Si / 1000 Ang^3
#
#
#
# Elastic Constant Matrix: (Units=GPa)
#
#
# Indices 1 2 3 4 5 6 
#
# 1 62.5428 7.4570 10.3948 0.0000 0.0000 0.0000
# 2 7.4570 62.5428 10.3948 0.0000 0.0000 0.0000
# 3 10.3948 10.3948 130.3393 0.0000 0.0000 0.0000
# 4 0.0000 0.0000 0.0000 29.3496 0.0000 0.0000
# 5 0.0000 0.0000 0.0000 0.0000 29.3496 0.0000
# 6 0.0000 0.0000 0.0000 0.0000 0.0000 -0.7013
#
#
#
# Elastic Compliance Matrix: (Units=1/GPa)
#
#
# Indices 1 2 3 4 5 6 
#
# 1 0.016393 -0.001761 -0.001167 0.000000 0.000000 0.000000
# 2 -0.001761 0.016393 -0.001167 0.000000 0.000000 0.000000
# 3 -0.001167 -0.001167 0.007858 0.000000 0.000000 0.000000
# 4 0.000000 0.000000 0.000000 0.034072 0.000000 0.000000
# 5 0.000000 0.000000 0.000000 0.000000 0.034072 0.000000
# 6 0.000000 0.000000 0.000000 0.000000 0.000000 -1.425976
#
#
# Mechanical properties :
#
#
# Convention : Reuss Voigt Hill
#
# Bulk Modulus (GPa) = 30.81164 34.65757 32.73461
# Shear Modulus (GPa) = -3.85155 26.74482 11.44664
#
# Velocity S-wave (km/s) = -1.38054 3.63790 2.37996
# Velocity P-wave (km/s) = 3.56448 5.89878 4.87346
#
# Compressibility (1/GPa) = 0.03245527
#
# Stress axis : x y z
#
# Youngs Moduli (GPa) = 61.00197 61.00197 127.25207
#
# Poissons Ratio (x) = 0.10740 0.14850
# Poissons Ratio (y) = 0.10740 0.14850
# Poissons Ratio (z) = 0.07119 0.07119
#
# Static dielectric constant tensor:
#      x y z
#    x 1.716840 0.000000 0.000000 
#    y 0.000000 1.716840 0.000000 
#    z 0.000000 0.000000 1.834800 
# 
# From -- ./inp_files/6270.got.cif
#   From: 2010.05.17/outbox.cif.g08.bks.cpg/sg91_4_cif.got.tgz:6270.got - 2010.06.03 19:20:03.
