data_PCOD9547932
_publ_section_title
;
Structure prediction by ZEFSAII (Michael W. Deem and Ramdas Pophale) SiO2 
 PCOD9547932
Probable space group: P 41 2 2
;
_chemical_formula_sum "Si O2"
_cell_formula_units_Z 36
_cell_length_a 14.338517
_cell_length_b 14.338517
_cell_length_c 10.069068
_cell_angle_alpha 90.000000
_cell_angle_beta 90.000000
_cell_angle_gamma 90.000000
_cell_volume 2070.130600
_symmetry_space_group_name_H-M "P 41 2 2"
_symmetry_group_IT_number 91
_symmetry_cell_setting 'tetragonal'
loop_
_space_group_symop_operation_xyz
x,y,z
-y,x,1/4+z
-x,-y,1/2+z
y,-x,3/4+z
x,-y,1/2-z
-x,y,-z
y,x,3/4-z
-y,-x,1/4-z
loop_
_atom_site_type_symbol
_atom_site_label
_atom_site_fract_x
_atom_site_fract_y
_atom_site_fract_z
Si Si1 0.245955 0.051120 0.958125
Si Si2 0.500000 0.400585 0.500000
Si Si3 0.352109 0.238831 0.480787
Si Si4 0.866994 0.222330 0.931578
Si Si5 0.419626 0.037950 0.396326
O O1 0.271955 0.099476 0.817687
O O2 0.197542 0.956411 0.908074
O O3 0.184179 0.127220 0.031433
O O4 0.328680 0.015922 0.050719
O O5 0.535962 0.464039 0.625000
O O6 0.416552 0.325782 0.526070
O O7 0.280490 0.280490 0.375000
O O8 0.294256 0.196693 0.602359
O O9 0.403488 0.150051 0.411322
O O10 0.500000 0.014482 0.500000
O O11 0.441259 0.000000 0.250000
#
# Coordination Sequence:
#
# PCOD9547932 Si02
#       5
#     8   4   8   8   8
#     4   9  19  35  58  81 119 152 199 235 291 345
#     4  10  22  42  62  84 116 152 198 248 304 362
#     4  10  20  37  63  81 116 155 194 240 306 351
#     4   9  18  35  60  82 116 160 192 244 288 348
#     4  11  23  35  59  89 119 150 196 240 295 354
#
# _framework density 17.390208000000001
#
# number of rings (size 3 to 8) (size 9 to 14) (size 15 to 20)
#    0.000    2.222    1.111    1.333    6.222    0.000 
#    4.000    0.000   97.778    0.000    0.000    0.000 
#    0.000    0.000    0.000    0.000    0.000    0.000 
#
# Total GULP energy -200474.670909 kJ/mol
# GULP energy per Si atom -5568.740859 kJ/mol
# Density = 1.735063 g / cm^3
# Si number density = 17.390208 Si / 1000 Ang^3
#
#
#
# Elastic Constant Matrix: (Units=GPa)
#
#
# Indices 1 2 3 4 5 6 
#
# 1 78.4608 45.4120 73.7762 0.0000 0.0000 0.0000
# 2 45.4120 78.4599 73.7762 0.0000 0.0000 0.0000
# 3 73.7762 73.7762 129.5522 0.0000 0.0000 0.0000
# 4 0.0000 0.0000 0.0000 22.1591 0.0000 0.0000
# 5 0.0000 0.0000 0.0000 0.0000 22.1590 0.0000
# 6 0.0000 0.0000 0.0000 0.0000 0.0000 3.7194
#
#
#
# Elastic Compliance Matrix: (Units=1/GPa)
#
#
# Indices 1 2 3 4 5 6 
#
# 1 0.027677 -0.002581 -0.014292 0.000000 0.000000 0.000000
# 2 -0.002581 0.027678 -0.014292 0.000000 0.000000 0.000000
# 3 -0.014292 -0.014292 0.023997 0.000000 0.000000 0.000000
# 4 0.000000 0.000000 0.000000 0.045128 0.000000 0.000000
# 5 0.000000 0.000000 0.000000 0.000000 0.045128 0.000000
# 6 0.000000 0.000000 0.000000 0.000000 0.000000 0.268862
#
#
# Mechanical properties :
#
#
# Convention : Reuss Voigt Hill
#
# Bulk Modulus (GPa) = 58.74548 74.71129 66.72839
# Shear Modulus (GPa) = 9.87217 15.84139 12.85678
#
# Velocity S-wave (km/s) = 2.38520 3.02145 2.72198
# Velocity P-wave (km/s) = 6.43737 7.43150 6.95222
#
# Compressibility (1/GPa) = 0.01702259
#
# Stress axis : x y z
#
# Youngs Moduli (GPa) = 36.13050 36.12958 41.67255
#
# Poissons Ratio (x) = 0.09325 0.59557
# Poissons Ratio (y) = 0.09325 0.59559
# Poissons Ratio (z) = 0.51637 0.51637
#
# Static dielectric constant tensor:
#      x y z
#    x 1.597160 0.000000 0.000000 
#    y 0.000000 1.597160 0.000000 
#    z 0.000000 0.000000 1.588350 
# 
# From -- ./inp_files/2200.got.cif
#   From: 2010.05.17/outbox.cif.g08.bks.cpg/sg91_2_cif.got.tgz:2200.got - 2010.06.03 19:20:03.
