data_PCOD9547469
_publ_section_title
;
Structure prediction by ZEFSAII (Michael W. Deem and Ramdas Pophale) SiO2 
 PCOD9547469
Probable space group: P 41 2 2
;
_chemical_formula_sum "Si O2"
_cell_formula_units_Z 48
_cell_length_a 15.583335
_cell_length_b 15.583335
_cell_length_c 10.398776
_cell_angle_alpha 90.000000
_cell_angle_beta 90.000000
_cell_angle_gamma 90.000000
_cell_volume 2525.242193
_symmetry_space_group_name_H-M "P 41 2 2"
_symmetry_group_IT_number 91
_symmetry_cell_setting 'tetragonal'
loop_
_space_group_symop_operation_xyz
x,y,z
-y,x,1/4+z
-x,-y,1/2+z
y,-x,3/4+z
x,-y,1/2-z
-x,y,-z
y,x,3/4-z
-y,-x,1/4-z
loop_
_atom_site_type_symbol
_atom_site_label
_atom_site_fract_x
_atom_site_fract_y
_atom_site_fract_z
Si Si1 0.503695 0.370454 0.355980
Si Si2 0.403184 0.035053 0.555884
Si Si3 0.175337 0.302720 0.322346
Si Si4 0.711273 0.320874 0.936579
Si Si5 0.228205 0.580952 0.943775
Si Si6 0.860334 0.600227 0.425637
O O1 0.500000 0.331058 0.500000
O O2 0.465263 0.465263 0.375000
O O3 0.596613 0.350560 0.300895
O O4 0.441511 0.320294 0.258957
O O5 0.500000 0.044479 0.500000
O O6 0.325755 0.081288 0.479633
O O7 0.406359 0.085556 0.690977
O O8 0.383849 0.934552 0.572974
O O9 0.211163 0.211163 0.375000
O O10 0.239355 0.323248 0.202204
O O11 0.183702 0.368861 0.440166
O O12 0.646092 0.242150 0.923450
O O13 0.785399 0.331750 0.041693
O O14 0.183239 0.492683 0.908429
#
# Coordination Sequence:
#
# PCOD9547469 Si02
#       6
#     8   8   8   8   8   8
#     4  11  16  22  35  60  85 114 155 212 286 312
#     4  10  17  29  43  63  97 121 158 218 265 331
#     4   9  15  24  42  64  88 116 147 210 280 321
#     4   9  17  25  39  62  90 116 162 219 276 316
#     4  10  15  25  41  61  88 116 158 219 272 315
#     4   9  19  26  42  68  88 125 165 213 276 321
#
# _framework density 19.008078000000001
#
# number of rings (size 3 to 8) (size 9 to 14) (size 15 to 20)
#    0.000    2.333    5.000    0.500    0.000    0.000 
#    0.000    0.000    0.000    2.000    0.000    0.000 
#    0.000    0.000    0.000    0.000    0.000    0.000 
#
# Total GULP energy -267361.827048 kJ/mol
# GULP energy per Si atom -5570.038063 kJ/mol
# Density = 1.896481 g / cm^3
# Si number density = 19.008078 Si / 1000 Ang^3
#
#
#
# Elastic Constant Matrix: (Units=GPa)
#
#
# Indices 1 2 3 4 5 6 
#
# 1 86.2576 66.7938 27.2448 0.0000 0.0000 0.0000
# 2 66.7938 86.2576 27.2448 0.0000 0.0000 0.0000
# 3 27.2448 27.2448 64.2359 0.0000 0.0000 0.0000
# 4 0.0000 0.0000 0.0000 26.2910 0.0000 0.0000
# 5 0.0000 0.0000 0.0000 0.0000 26.2910 0.0000
# 6 0.0000 0.0000 0.0000 0.0000 0.0000 20.6427
#
#
#
# Elastic Compliance Matrix: (Units=1/GPa)
#
#
# Indices 1 2 3 4 5 6 
#
# 1 0.029537 -0.021841 -0.003264 0.000000 0.000000 0.000000
# 2 -0.021841 0.029537 -0.003264 0.000000 0.000000 0.000000
# 3 -0.003264 -0.003264 0.018336 0.000000 0.000000 0.000000
# 4 0.000000 0.000000 0.000000 0.038036 0.000000 0.000000
# 5 0.000000 0.000000 0.000000 0.000000 0.038036 0.000000
# 6 0.000000 0.000000 0.000000 0.000000 0.000000 0.048443
#
#
# Mechanical properties :
#
#
# Convention : Reuss Voigt Hill
#
# Bulk Modulus (GPa) = 48.37514 53.25756 50.81635
# Shear Modulus (GPa) = 18.82863 22.34277 20.58570
#
# Velocity S-wave (km/s) = 3.15073 3.43218 3.29446
# Velocity P-wave (km/s) = 6.22424 6.61708 6.42366
#
# Compressibility (1/GPa) = 0.02067178
#
# Stress axis : x y z
#
# Youngs Moduli (GPa) = 33.85635 33.85635 54.53618
#
# Poissons Ratio (x) = 0.73945 0.17801
# Poissons Ratio (y) = 0.73945 0.17801
# Poissons Ratio (z) = 0.11051 0.11051
#
# Static dielectric constant tensor:
#      x y z
#    x 1.680490 0.000000 0.000000 
#    y 0.000000 1.680490 0.000000 
#    z 0.000000 0.000000 1.767260 
# 
# From -- ./inp_files/10740.got.cif
#   From: 2010.05.17/outbox.cif.g08.bks.cpg/sg91_6_cif.got.tgz:10740.got - 2010.06.03 19:20:03.
