data_PCOD9547638
_publ_section_title
;
Structure prediction by ZEFSAII (Michael W. Deem and Ramdas Pophale) SiO2 
 PCOD9547638
Probable space group: P 41 2 2
;
_chemical_formula_sum "Si O2"
_cell_formula_units_Z 44
_cell_length_a 8.101829
_cell_length_b 8.101829
_cell_length_c 27.772313
_cell_angle_alpha 90.000000
_cell_angle_beta 90.000000
_cell_angle_gamma 90.000000
_cell_volume 1822.964437
_symmetry_space_group_name_H-M "P 41 2 2"
_symmetry_group_IT_number 91
_symmetry_cell_setting 'tetragonal'
loop_
_space_group_symop_operation_xyz
x,y,z
-y,x,1/4+z
-x,-y,1/2+z
y,-x,3/4+z
x,-y,1/2-z
-x,y,-z
y,x,3/4-z
-y,-x,1/4-z
loop_
_atom_site_type_symbol
_atom_site_label
_atom_site_fract_x
_atom_site_fract_y
_atom_site_fract_z
Si Si1 0.023306 0.395881 0.066432
Si Si2 0.186238 0.302580 0.548384
Si Si3 0.167961 0.500000 0.250000
Si Si4 0.613630 0.638852 0.146918
Si Si5 0.431163 0.903002 0.573727
Si Si6 0.041302 0.060036 0.817489
O O1 0.902343 0.523177 0.040363
O O2 0.945550 0.402183 0.120379
O O3 0.040932 0.203429 0.051682
O O4 0.208064 0.457121 0.074063
O O5 0.336941 0.269759 0.512363
O O6 0.271960 0.301059 0.601850
O O7 0.059327 0.147276 0.549212
O O8 0.046616 0.473693 0.295651
O O9 0.470758 0.529243 0.125000
O O10 0.731576 0.524822 0.179110
O O11 0.246019 0.901469 0.554203
O O12 0.032076 0.032076 0.875000
#
# Coordination Sequence:
#
# PCOD9547638 Si02
#       6
#     8   8   4   8   8   8
#     4  10  19  35  58  93 117 155 212 260 305 384
#     4  10  20  35  61  90 119 161 208 261 314 392
#     4  10  18  38  62  90 118 166 208 262 334 382
#     4  11  20  35  57  92 123 155 214 271 309 378
#     4   9  18  33  60  83 114 154 209 257 308 375
#     4   9  15  33  55  82 113 148 204 249 301 360
#
# _framework density 24.136510000000001
#
# number of rings (size 3 to 8) (size 9 to 14) (size 15 to 20)
#    0.000    2.182    5.455    2.727    0.000    0.727 
#    0.000    8.182    0.000   14.182    0.000    0.000 
#    0.000    0.000    0.000    0.000    0.000    0.000 
#
# Total GULP energy -245774.468860 kJ/mol
# GULP energy per Si atom -5585.783383 kJ/mol
# Density = 2.408157 g / cm^3
# Si number density = 24.136510 Si / 1000 Ang^3
#
#
#
# Elastic Constant Matrix: (Units=GPa)
#
#
# Indices 1 2 3 4 5 6 
#
# 1 60.8212 25.7936 -2.6693 0.0000 0.0000 0.0000
# 2 25.7936 60.8203 -2.6696 0.0000 0.0000 0.0000
# 3 -2.6693 -2.6696 78.2943 0.0000 0.0000 0.0000
# 4 0.0000 0.0000 0.0000 -71.9332 0.0000 0.0000
# 5 0.0000 0.0000 0.0000 0.0000 -71.9405 0.0000
# 6 0.0000 0.0000 0.0000 0.0000 0.0000 105.0713
#
#
#
# Elastic Compliance Matrix: (Units=1/GPa)
#
#
# Indices 1 2 3 4 5 6 
#
# 1 0.020059 -0.008490 0.000394 0.000000 0.000000 0.000000
# 2 -0.008490 0.020060 0.000395 0.000000 0.000000 0.000000
# 3 0.000394 0.000395 0.012799 0.000000 0.000000 0.000000
# 4 0.000000 0.000000 0.000000 -0.013902 0.000000 0.000000
# 5 0.000000 0.000000 0.000000 0.000000 -0.013900 0.000000
# 6 0.000000 0.000000 0.000000 0.000000 0.000000 0.009517
#
#
# Mechanical properties :
#
#
# Convention : Reuss Voigt Hill
#
# Bulk Modulus (GPa) = 26.65488 26.76059 26.70774
# Shear Modulus (GPa) = 79.94806 4.20494 42.07650
#
# Velocity S-wave (km/s) = 5.76153 1.32134 4.17978
# Velocity P-wave (km/s) = 7.43825 3.66595 5.86374
#
# Compressibility (1/GPa) = 0.03751658
#
# Stress axis : x y z
#
# Youngs Moduli (GPa) = 49.85205 49.85126 78.12980
#
# Poissons Ratio (x) = 0.42323 -0.03082
# Poissons Ratio (y) = 0.42323 -0.03082
# Poissons Ratio (z) = -0.01966 -0.01967
#
# Static dielectric constant tensor:
#      x y z
#    x 1.936800 0.000000 0.000000 
#    y 0.000000 1.936800 0.000000 
#    z 0.000000 0.000000 1.992870 
# 
# From -- ./inp_files/22224.got.cif
#   From: 2010.05.17/outbox.cif.g08.bks.cpg/sg91_12_cif.got.tgz:22224.got - 2010.06.03 19:20:03.
