data_PCOD9547482
_publ_section_title
;
Structure prediction by ZEFSAII (Michael W. Deem and Ramdas Pophale) SiO2 
 PCOD9547482
Probable space group: P 41 2 2
;
_chemical_formula_sum "Si O2"
_cell_formula_units_Z 40
_cell_length_a 23.320379
_cell_length_b 23.320379
_cell_length_c 5.326663
_cell_angle_alpha 90.000000
_cell_angle_beta 90.000000
_cell_angle_gamma 90.000000
_cell_volume 2896.852814
_symmetry_space_group_name_H-M "P 41 2 2"
_symmetry_group_IT_number 91
_symmetry_cell_setting 'tetragonal'
loop_
_space_group_symop_operation_xyz
x,y,z
-y,x,1/4+z
-x,-y,1/2+z
y,-x,3/4+z
x,-y,1/2-z
-x,y,-z
y,x,3/4-z
-y,-x,1/4-z
loop_
_atom_site_type_symbol
_atom_site_label
_atom_site_fract_x
_atom_site_fract_y
_atom_site_fract_z
Si Si1 0.778334 0.564196 0.661444
Si Si2 0.608716 0.837414 0.588392
Si Si3 0.283849 0.240094 0.122150
Si Si4 0.963006 0.568134 0.248973
Si Si5 0.660330 0.634291 0.627492
O O1 0.764957 0.500000 0.750000
O O2 0.806573 0.573086 0.387085
O O3 0.720013 0.600870 0.646837
O O4 0.820333 0.586179 0.884110
O O5 0.673304 0.812819 0.592620
O O6 0.602761 0.904220 0.527999
O O7 0.246881 0.246881 0.375000
O O8 0.324442 0.297227 0.124512
O O9 0.245789 0.245789 0.875000
O O10 0.948232 0.500000 0.250000
O O11 0.000000 0.579878 0.500000
O O12 0.000000 0.578516 0.000000
O O13 0.625543 0.625543 0.375000
O O14 0.624164 0.624164 0.875000
#
# Coordination Sequence:
#
# PCOD9547482 Si02
#       5
#     8   8   8   8   8
#     4  12  21  28  43  68  88 106 138 169 206 270
#     4  12  20  32  48  63  83 115 144 175 219 266
#     4  10  16  29  46  63  83 108 131 165 222 269
#     4  10  21  35  45  57  82 114 149 187 216 241
#     4  10  16  30  43  57  86 113 122 159 216 260
#
# _framework density 13.808087
#
# number of rings (size 3 to 8) (size 9 to 14) (size 15 to 20)
#    0.000    1.200    8.000    3.000    0.000    1.600 
#    0.000    0.000    0.000    0.000    0.000    0.000 
#    0.000    1.600    0.000    0.000    0.000    0.000 
#
# Total GULP energy -222811.334828 kJ/mol
# GULP energy per Si atom -5570.283371 kJ/mol
# Density = 1.377666 g / cm^3
# Si number density = 13.808087 Si / 1000 Ang^3
#
#
#
# Elastic Constant Matrix: (Units=GPa)
#
#
# Indices 1 2 3 4 5 6 
#
# 1 59.7415 51.8056 26.4601 0.0000 0.0000 0.0000
# 2 51.8056 59.7415 26.4601 0.0000 0.0000 0.0000
# 3 26.4601 26.4601 130.7347 0.0000 0.0000 0.0000
# 4 0.0000 0.0000 0.0000 12.4955 0.0000 0.0000
# 5 0.0000 0.0000 0.0000 0.0000 12.4955 0.0000
# 6 0.0000 0.0000 0.0000 0.0000 0.0000 15.6549
#
#
#
# Elastic Compliance Matrix: (Units=1/GPa)
#
#
# Indices 1 2 3 4 5 6 
#
# 1 0.067964 -0.058046 -0.002007 0.000000 0.000000 0.000000
# 2 -0.058046 0.067964 -0.002007 0.000000 0.000000 0.000000
# 3 -0.002007 -0.002007 0.008462 0.000000 0.000000 0.000000
# 4 0.000000 0.000000 0.000000 0.080029 0.000000 0.000000
# 5 0.000000 0.000000 0.000000 0.000000 0.080029 0.000000
# 6 0.000000 0.000000 0.000000 0.000000 0.000000 0.063878
#
#
# Mechanical properties :
#
#
# Convention : Reuss Voigt Hill
#
# Bulk Modulus (GPa) = 49.34126 51.07438 50.20782
# Shear Modulus (GPa) = 10.01599 17.82862 13.92231
#
# Velocity S-wave (km/s) = 2.69619 3.59719 3.17877
# Velocity P-wave (km/s) = 6.74565 7.37035 7.06491
#
# Compressibility (1/GPa) = 0.02026701
#
# Stress axis : x y z
#
# Youngs Moduli (GPa) = 14.71378 14.71378 118.18149
#
# Poissons Ratio (x) = 0.85408 0.23721
# Poissons Ratio (y) = 0.85408 0.23721
# Poissons Ratio (z) = 0.02953 0.02953
#
# Static dielectric constant tensor:
#      x y z
#    x 1.439690 0.000000 0.000000 
#    y 0.000000 1.439690 0.000000 
#    z 0.000000 0.000000 1.560950 
# 
# From -- ./inp_files/1053.got.cif
#   From: 2010.05.17/outbox.cif.g08.bks.cpg/sg91_1_cif.got.tgz:1053.got - 2010.06.03 19:20:03.
