data_PCOD9547798
_publ_section_title
;
Structure prediction by ZEFSAII (Michael W. Deem and Ramdas Pophale) SiO2 
 PCOD9547798
Probable space group: P 41 2 2
;
_chemical_formula_sum "Si O2"
_cell_formula_units_Z 40
_cell_length_a 10.558824
_cell_length_b 10.558824
_cell_length_c 17.231148
_cell_angle_alpha 90.000000
_cell_angle_beta 90.000000
_cell_angle_gamma 90.000000
_cell_volume 1921.079397
_symmetry_space_group_name_H-M "P 41 2 2"
_symmetry_group_IT_number 91
_symmetry_cell_setting 'tetragonal'
loop_
_space_group_symop_operation_xyz
x,y,z
-y,x,1/4+z
-x,-y,1/2+z
y,-x,3/4+z
x,-y,1/2-z
-x,y,-z
y,x,3/4-z
-y,-x,1/4-z
loop_
_atom_site_type_symbol
_atom_site_label
_atom_site_fract_x
_atom_site_fract_y
_atom_site_fract_z
Si Si1 0.375145 0.150286 0.763962
Si Si2 0.611940 0.503991 0.561624
Si Si3 0.885124 0.230953 0.322500
Si Si4 0.483660 0.779704 0.407713
Si Si5 0.003210 0.882111 0.308393
O O1 0.472457 0.249938 0.723812
O O2 0.241672 0.190853 0.725658
O O3 0.398576 0.183891 0.854396
O O4 0.392384 0.000000 0.750000
O O5 0.500000 0.480277 0.500000
O O6 0.605313 0.394688 0.625000
O O7 0.565582 0.635970 0.601852
O O8 0.870288 0.366741 0.361041
O O9 0.895615 0.129997 0.391737
O O10 0.989142 0.230121 0.253503
O O11 0.500000 0.791964 0.500000
O O12 0.988914 0.000000 0.250000
O O13 0.896192 0.896192 0.375000
#
# Coordination Sequence:
#
# PCOD9547798 Si02
#       5
#     8   8   8   8   8
#     4  11  23  39  60  96 133 160 211 276 330 371
#     4  10  19  39  65  89 119 170 222 258 310 391
#     4  10  22  36  62  88 124 164 208 262 322 387
#     4  10  23  36  58  87 120 164 210 261 316 380
#     4   9  18  35  59  88 117 159 208 254 310 387
#
# _framework density 20.821629000000001
#
# number of rings (size 3 to 8) (size 9 to 14) (size 15 to 20)
#    0.000    2.000    2.000    1.800    5.600    0.800 
#    0.000    3.000    0.000    0.000    0.000    0.000 
#    0.000    0.000    0.000    0.000    0.000    0.000 
#
# Total GULP energy -222831.918482 kJ/mol
# GULP energy per Si atom -5570.797962 kJ/mol
# Density = 2.077424 g / cm^3
# Si number density = 20.821629 Si / 1000 Ang^3
#
#
#
# Elastic Constant Matrix: (Units=GPa)
#
#
# Indices 1 2 3 4 5 6 
#
# 1 60.5930 4.0298 24.6301 0.0000 0.0000 0.0000
# 2 4.0298 60.5935 24.6303 0.0000 0.0000 0.0000
# 3 24.6301 24.6303 107.3196 0.0000 0.0000 0.0000
# 4 0.0000 0.0000 0.0000 27.0363 0.0000 0.0000
# 5 0.0000 0.0000 0.0000 0.0000 27.0357 0.0000
# 6 0.0000 0.0000 0.0000 0.0000 0.0000 14.8762
#
#
#
# Elastic Compliance Matrix: (Units=1/GPa)
#
#
# Indices 1 2 3 4 5 6 
#
# 1 0.018217 0.000538 -0.004304 0.000000 0.000000 0.000000
# 2 0.000538 0.018217 -0.004304 0.000000 0.000000 0.000000
# 3 -0.004304 -0.004304 0.011294 0.000000 0.000000 0.000000
# 4 0.000000 0.000000 0.000000 0.036987 0.000000 0.000000
# 5 0.000000 0.000000 0.000000 0.000000 0.036988 0.000000
# 6 0.000000 0.000000 0.000000 0.000000 0.000000 0.067222
#
#
# Mechanical properties :
#
#
# Convention : Reuss Voigt Hill
#
# Bulk Modulus (GPa) = 31.65862 37.23182 34.44522
# Shear Modulus (GPa) = 23.19150 25.47068 24.33109
#
# Velocity S-wave (km/s) = 3.34101 3.50134 3.42211
# Velocity P-wave (km/s) = 5.48824 5.85371 5.67392
#
# Compressibility (1/GPa) = 0.03158698
#
# Stress axis : x y z
#
# Youngs Moduli (GPa) = 54.89243 54.89277 88.54467
#
# Poissons Ratio (x) = -0.02954 0.38114
# Poissons Ratio (y) = -0.02954 0.38114
# Poissons Ratio (z) = 0.23628 0.23628
#
# Static dielectric constant tensor:
#      x y z
#    x 1.788320 0.000000 0.000000 
#    y 0.000000 1.788320 0.000000 
#    z 0.000000 0.000000 1.782620 
# 
# From -- ./inp_files/4742.got.cif
#   From: 2010.05.17/outbox.cif.g08.bks.cpg/sg91_3_cif.got.tgz:4742.got - 2010.06.03 19:20:03.
