data_PCOD9547322
_publ_section_title
;
Structure prediction by ZEFSAII (Michael W. Deem and Ramdas Pophale) SiO2 
 PCOD9547322
Probable space group: P 4 21 2
;
_chemical_formula_sum "Si O2"
_cell_formula_units_Z 48
_cell_length_a 8.069946
_cell_length_b 8.069946
_cell_length_c 32.555507
_cell_angle_alpha 90.000000
_cell_angle_beta 90.000000
_cell_angle_gamma 90.000000
_cell_volume 2120.145764
_symmetry_space_group_name_H-M "P 4 21 2"
_symmetry_group_IT_number 90
_symmetry_cell_setting 'tetragonal'
loop_
_space_group_symop_operation_xyz
x,y,z
1/2-y,1/2+x,z
-x,-y,z
1/2+y,1/2-x,z
1/2+x,1/2-y,-z
1/2-x,1/2+y,-z
y,x,-z
-y,-x,-z
loop_
_atom_site_type_symbol
_atom_site_label
_atom_site_fract_x
_atom_site_fract_y
_atom_site_fract_z
Si Si1 0.586527 0.735525 0.701304
Si Si2 0.402436 0.263979 0.128582
Si Si3 0.585461 0.734528 0.378967
Si Si4 0.235837 0.903469 0.217749
Si Si5 0.764965 0.090398 0.040089
Si Si6 0.086274 0.765497 0.459594
O O1 0.399412 0.798783 0.699197
O O2 0.638083 0.625228 0.662704
O O3 0.624454 0.646368 0.744132
O O4 0.593413 0.202992 0.128585
O O5 0.371480 0.344682 0.172848
O O6 0.373475 0.348258 0.084521
O O7 0.398532 0.799445 0.379931
O O8 0.634293 0.629380 0.418683
O O9 0.406164 0.796538 0.220114
O O10 0.598171 0.201520 0.038881
O O11 0.868177 0.131824 0.000000
O O12 0.200897 0.600980 0.459845
O O13 0.132275 0.867726 0.500000
#
# Coordination Sequence:
#
# PCOD9547322 Si02
#       6
#     8   8   8   8   8   8
#     4  11  24  39  54  77 111 147 179 213 260 319
#     4   7  12  26  48  71  95 125 164 210 256 304
#     4  11  24  41  62  88 114 143 185 232 274 319
#     4   9  17  32  56  81 100 125 169 220 264 310
#     4   9  17  30  48  70  97 130 167 208 256 308
#     4  11  24  41  62  90 122 155 192 231 272 321
#
# _framework density 22.639949999999999
#
# number of rings (size 3 to 8) (size 9 to 14) (size 15 to 20)
#    0.000    2.333    0.000    5.000    0.000   10.667 
#    0.000    1.667    0.000    8.000    0.000    0.000 
#    0.000    0.000    0.000    0.000    0.000    0.000 
#
# Total GULP energy -268687.360373 kJ/mol
# GULP energy per Si atom -5597.653341 kJ/mol
# Density = 2.258842 g / cm^3
# Si number density = 22.639950 Si / 1000 Ang^3
#
#
#
# Elastic Constant Matrix: (Units=GPa)
#
#
# Indices 1 2 3 4 5 6 
#
# 1 74.8354 49.0054 57.3678 0.0000 0.0000 0.0000
# 2 49.0054 74.8350 57.3677 0.0000 0.0000 0.0000
# 3 57.3678 57.3677 246.9195 0.0000 0.0000 0.0000
# 4 0.0000 0.0000 0.0000 100.6677 0.0000 0.0000
# 5 0.0000 0.0000 0.0000 0.0000 100.6665 0.0000
# 6 0.0000 0.0000 0.0000 0.0000 0.0000 39.1444
#
#
#
# Elastic Compliance Matrix: (Units=1/GPa)
#
#
# Indices 1 2 3 4 5 6 
#
# 1 0.024502 -0.014213 -0.002391 0.000000 0.000000 0.000000
# 2 -0.014213 0.024502 -0.002391 0.000000 0.000000 0.000000
# 3 -0.002391 -0.002391 0.005161 0.000000 0.000000 0.000000
# 4 0.000000 0.000000 0.000000 0.009934 0.000000 0.000000
# 5 0.000000 0.000000 0.000000 0.000000 0.009934 0.000000
# 6 0.000000 0.000000 0.000000 0.000000 0.000000 0.025546
#
#
# Mechanical properties :
#
#
# Convention : Reuss Voigt Hill
#
# Bulk Modulus (GPa) = 61.81351 80.45239 71.13295
# Shear Modulus (GPa) = 34.97487 63.61899 49.29693
#
# Velocity S-wave (km/s) = 3.93470 5.30672 4.67136
# Velocity P-wave (km/s) = 6.92853 8.55343 7.78350
#
# Compressibility (1/GPa) = 0.01617769
#
# Stress axis : x y z
#
# Youngs Moduli (GPa) = 40.81248 40.81228 193.76966
#
# Poissons Ratio (x) = 0.58005 0.46324
# Poissons Ratio (y) = 0.58005 0.46324
# Poissons Ratio (z) = 0.09757 0.09757
#
# Static dielectric constant tensor:
#      x y z
#    x 1.824380 0.000000 0.000000 
#    y 0.000000 1.824380 0.000000 
#    z 0.000000 0.000000 1.825930 
# 
# From -- ./inp_files/3041.got.cif
#   From: 2010.05.17/outbox.cif.g08.bks.cpg/sg90_2_cif.got.tgz:3041.got - 2010.06.03 19:17:45.
