data_PCOD9547004
_publ_section_title
;
Structure prediction by ZEFSAII (Michael W. Deem and Ramdas Pophale) SiO2 
 PCOD9547004
Probable space group: P 4 2 2
;
_chemical_formula_sum "Si O2"
_cell_formula_units_Z 48
_cell_length_a 9.251480
_cell_length_b 9.251480
_cell_length_c 32.404313
_cell_angle_alpha 90.000000
_cell_angle_beta 90.000000
_cell_angle_gamma 90.000000
_cell_volume 2773.481332
_symmetry_space_group_name_H-M "P 4 2 2"
_symmetry_group_IT_number 89
_symmetry_cell_setting 'tetragonal'
loop_
_space_group_symop_operation_xyz
x,y,z
-y,x,z
-x,-y,z
y,-x,z
x,-y,-z
-x,y,-z
y,x,-z
-y,-x,-z
loop_
_atom_site_type_symbol
_atom_site_label
_atom_site_fract_x
_atom_site_fract_y
_atom_site_fract_z
Si Si1 0.328171 0.328169 0.831538
Si Si2 0.827310 0.827307 0.243342
Si Si3 0.327411 0.672589 0.075145
Si Si4 0.826810 0.826807 0.333176
Si Si5 0.671958 0.328043 0.500000
Si Si6 0.826334 0.826338 0.576015
Si Si7 0.828568 0.171433 0.000000
O O1 0.500001 0.303518 0.828146
O O2 0.247426 0.247422 0.795111
O O3 0.284757 0.284755 0.878133
O O4 0.773418 0.773414 0.288588
O O5 0.000002 0.803726 0.241553
O O6 0.303746 0.500000 0.070824
O O7 0.242643 0.757356 0.040253
O O8 0.776127 0.776122 0.378143
O O9 0.000002 0.804715 0.333074
O O10 0.697486 0.500000 0.500000
O O11 0.744256 0.255747 0.540028
O O12 0.999998 0.803688 0.572741
O O13 0.000000 0.197292 0.000000
#
# Coordination Sequence:
#
# PCOD9547004 Si02
#       7
#     8   8   8   8   4   8   4
#     4   9  19  35  52  72 100 133 169 207 243 282
#     4   9  17  30  50  76 104 132 161 197 244 293
#     4   9  19  37  58  75  94 128 173 211 242 284
#     4   7  12  26  48  73  99 124 154 197 244 287
#     4  11  24  37  46  64 100 137 162 191 240 298
#     4   9  17  32  56  79  94 117 161 209 246 286
#     4  11  24  37  50  76 110 133 154 195 250 302
#
# _framework density 17.30677
#
# number of rings (size 3 to 8) (size 9 to 14) (size 15 to 20)
#    0.000    3.000    0.000    4.000    0.000    6.000 
#    0.000    6.667    0.000    8.000    0.000    0.000 
#    0.000    0.000    0.000    0.000    0.000    0.000 
#
# Total GULP energy -267374.587683 kJ/mol
# GULP energy per Si atom -5570.303910 kJ/mol
# Density = 1.726738 g / cm^3
# Si number density = 17.306770 Si / 1000 Ang^3
#
#
#
# Elastic Constant Matrix: (Units=GPa)
#
#
# Indices 1 2 3 4 5 6 
#
# 1 45.4701 46.9561 82.9477 0.0000 0.0000 0.0000
# 2 46.9561 45.4700 82.9477 0.0000 0.0000 0.0000
# 3 82.9477 82.9477 242.9199 0.0000 0.0000 0.0000
# 4 0.0000 0.0000 0.0000 75.8285 0.0000 0.0000
# 5 0.0000 0.0000 0.0000 0.0000 75.8195 0.0000
# 6 0.0000 0.0000 0.0000 0.0000 0.0000 28.9852
#
#
#
# Elastic Compliance Matrix: (Units=1/GPa)
#
#
# Indices 1 2 3 4 5 6 
#
# 1 -0.322497 0.350446 -0.009543 0.000000 0.000000 0.000000
# 2 0.350446 -0.322497 -0.009544 0.000000 0.000000 0.000000
# 3 -0.009543 -0.009544 0.010634 0.000000 0.000000 0.000000
# 4 0.000000 0.000000 0.000000 0.013188 0.000000 0.000000
# 5 0.000000 0.000000 0.000000 0.000000 0.013189 0.000000
# 6 0.000000 0.000000 0.000000 0.000000 0.000000 0.034500
#
#
# Mechanical properties :
#
#
# Convention : Reuss Voigt Hill
#
# Bulk Modulus (GPa) = 35.26323 84.39588 59.82956
# Shear Modulus (GPa) = -4.07582 44.19389 20.05903
#
# Velocity S-wave (km/s) = -1.53628 5.05876 3.40814
# Velocity P-wave (km/s) = 4.15605 9.10999 7.08042
#
# Compressibility (1/GPa) = 0.02835815
#
# Stress axis : x y z
#
# Youngs Moduli (GPa) = -3.10081 -3.10081 94.03744
#
# Poissons Ratio (x) = 1.08666 0.89744
# Poissons Ratio (y) = 1.08666 0.89745
# Poissons Ratio (z) = -0.02959 -0.02959
#
# Static dielectric constant tensor:
#      x y z
#    x 1.569890 0.000000 0.000000 
#    y 0.000000 1.569890 0.000000 
#    z 0.000000 0.000000 1.613310 
# 
# From -- ./inp_files/3027.got.cif
#   From: 2010.05.17/outbox.cif.g08.bks.cpg/sg89_2_cif.got.tgz:3027.got - 2010.06.03 19:15:31.
