data_PCOD9547385
_publ_section_title
;
Structure prediction by ZEFSAII (Michael W. Deem and Ramdas Pophale) SiO2 
 PCOD9547385
Probable space group: P 4 21 2
;
_chemical_formula_sum "Si O2"
_cell_formula_units_Z 48
_cell_length_a 7.906147
_cell_length_b 7.906147
_cell_length_c 34.526596
_cell_angle_alpha 90.000000
_cell_angle_beta 90.000000
_cell_angle_gamma 90.000000
_cell_volume 2158.159474
_symmetry_space_group_name_H-M "P 4 21 2"
_symmetry_group_IT_number 90
_symmetry_cell_setting 'tetragonal'
loop_
_space_group_symop_operation_xyz
x,y,z
1/2-y,1/2+x,z
-x,-y,z
1/2+y,1/2-x,z
1/2+x,1/2-y,-z
1/2-x,1/2+y,-z
y,x,-z
-y,-x,-z
loop_
_atom_site_type_symbol
_atom_site_label
_atom_site_fract_x
_atom_site_fract_y
_atom_site_fract_z
Si Si1 0.233118 0.098055 0.040082
Si Si2 0.500000 0.500000 0.312924
Si Si3 0.901448 0.233206 0.168665
Si Si4 0.899968 0.768156 0.376521
Si Si5 0.000000 0.000000 0.895618
Si Si6 0.098563 0.766751 0.751057
Si Si7 0.092625 0.231260 0.461282
O O1 0.402636 0.208941 0.041693
O O2 0.107679 0.120508 0.076116
O O3 0.141417 0.141417 0.000000
O O4 0.603863 0.377046 0.341411
O O5 0.621865 0.606006 0.284648
O O6 0.790895 0.402996 0.167109
O O7 0.879401 0.107777 0.132612
O O8 0.857346 0.141310 0.208685
O O9 0.791958 0.596447 0.374153
O O10 0.871888 0.848088 0.419120
O O11 0.209188 0.597033 0.749236
O O12 0.205842 0.400433 0.462052
O O13 0.131236 0.131236 0.500000
#
# Coordination Sequence:
#
# PCOD9547385 Si02
#       7
#     8   4   8   8   4   8   8
#     4  11  24  42  65  93 129 175 221 265 316 372
#     4  12  21  36  61  87 112 151 201 242 289 360
#     4  11  24  42  66  95 126 164 210 256 306 372
#     4   9  20  37  55  80 114 148 186 236 289 344
#     4  12  22  40  64  95 132 165 208 268 318 368
#     4  11  24  42  63  89 124 161 199 252 313 369
#     4   9  19  35  54  78 108 142 183 229 280 340
#
# _framework density 22.241174999999998
#
# number of rings (size 3 to 8) (size 9 to 14) (size 15 to 20)
#    0.000    1.500    0.000    6.750    0.000    3.000 
#    0.000    5.000    0.000    2.000    0.000    0.000 
#    0.000    0.000    0.000    0.000    0.000    0.000 
#
# Total GULP energy -268572.894072 kJ/mol
# GULP energy per Si atom -5595.268626 kJ/mol
# Density = 2.219055 g / cm^3
# Si number density = 22.241175 Si / 1000 Ang^3
#
#
#
# Elastic Constant Matrix: (Units=GPa)
#
#
# Indices 1 2 3 4 5 6 
#
# 1 51.4837 8.0372 35.7963 0.0000 0.0000 0.0000
# 2 8.0372 51.4837 35.7963 0.0000 0.0000 0.0000
# 3 35.7963 35.7963 199.5545 0.0000 0.0000 0.0000
# 4 0.0000 0.0000 0.0000 34.4432 0.0000 0.0000
# 5 0.0000 0.0000 0.0000 0.0000 34.4432 0.0000
# 6 0.0000 0.0000 0.0000 0.0000 0.0000 31.0738
#
#
#
# Elastic Compliance Matrix: (Units=1/GPa)
#
#
# Indices 1 2 3 4 5 6 
#
# 1 0.022220 -0.000797 -0.003843 0.000000 0.000000 0.000000
# 2 -0.000797 0.022220 -0.003843 0.000000 0.000000 0.000000
# 3 -0.003843 -0.003843 0.006390 0.000000 0.000000 0.000000
# 4 0.000000 0.000000 0.000000 0.029033 0.000000 0.000000
# 5 0.000000 0.000000 0.000000 0.000000 0.029033 0.000000
# 6 0.000000 0.000000 0.000000 0.000000 0.000000 0.032181
#
#
# Mechanical properties :
#
#
# Convention : Reuss Voigt Hill
#
# Bulk Modulus (GPa) = 29.52949 51.30908 40.41928
# Shear Modulus (GPa) = 29.52790 34.85149 32.18970
#
# Velocity S-wave (km/s) = 3.64761 3.96281 3.80847
# Velocity P-wave (km/s) = 5.57188 6.63761 6.12796
#
# Compressibility (1/GPa) = 0.03386445
#
# Stress axis : x y z
#
# Youngs Moduli (GPa) = 45.00458 45.00458 156.49810
#
# Poissons Ratio (x) = 0.03586 0.60141
# Poissons Ratio (y) = 0.03586 0.60141
# Poissons Ratio (z) = 0.17295 0.17295
#
# Static dielectric constant tensor:
#      x y z
#    x 1.881410 0.000000 0.000000 
#    y 0.000000 1.881410 0.000000 
#    z 0.000000 0.000000 1.800500 
# 
# From -- ./inp_files/3115.got.cif
#   From: 2010.05.17/outbox.cif.g08.bks.cpg/sg90_2_cif.got.tgz:3115.got - 2010.06.03 19:17:45.
