data_PCOD9547852
_publ_section_title
;
Structure prediction by ZEFSAII (Michael W. Deem and Ramdas Pophale) SiO2 
 PCOD9547852
Probable space group: P 41 2 2
;
_chemical_formula_sum "Si O2"
_cell_formula_units_Z 40
_cell_length_a 17.684677
_cell_length_b 17.684677
_cell_length_c 5.682170
_cell_angle_alpha 90.000000
_cell_angle_beta 90.000000
_cell_angle_gamma 90.000000
_cell_volume 1777.086170
_symmetry_space_group_name_H-M "P 41 2 2"
_symmetry_group_IT_number 91
_symmetry_cell_setting 'tetragonal'
loop_
_space_group_symop_operation_xyz
x,y,z
-y,x,1/4+z
-x,-y,1/2+z
y,-x,3/4+z
x,-y,1/2-z
-x,y,-z
y,x,3/4-z
-y,-x,1/4-z
loop_
_atom_site_type_symbol
_atom_site_label
_atom_site_fract_x
_atom_site_fract_y
_atom_site_fract_z
Si Si1 0.500000 0.780779 0.000000
Si Si2 0.234377 0.234377 0.875000
Si Si3 0.098614 0.284783 0.153438
Si Si4 0.898734 0.431254 0.119837
Si Si5 0.000000 0.816574 0.000000
Si Si6 0.786873 0.642946 0.008581
Si Si7 0.919487 0.080514 0.125000
O O1 0.466797 0.835589 0.800677
O O2 0.573703 0.743833 0.873365
O O3 0.241345 0.147166 0.793984
O O4 0.253160 0.296834 0.676245
O O5 0.038858 0.236685 0.300199
O O6 0.165337 0.309112 0.326216
O O7 0.070795 0.363065 0.039067
O O8 0.944019 0.500000 0.250000
O O9 0.851785 0.393085 0.327931
O O10 0.935650 0.864630 0.142492
O O11 0.910795 0.000000 0.250000
#
# Coordination Sequence:
#
# PCOD9547852 Si02
#       7
#     4   4   8   8   4   8   4
#     4   8  14  28  50  82 118 158 206 252 304 378
#     4  10  20  35  54  84 126 160 212 272 336 392
#     4  10  22  38  59  95 125 162 214 284 338 409
#     4   8  15  31  57  90 125 164 203 255 311 395
#     4  12  28  46  70  94 126 162 226 300 378 454
#     4   9  17  30  53  85 116 160 205 267 316 390
#     4  12  26  51  68  86 114 168 226 294 390 470
#
# _framework density 22.508758
#
# number of rings (size 3 to 8) (size 9 to 14) (size 15 to 20)
#    0.000    2.400    1.000    0.600    0.000    8.000 
#    0.000    0.000    0.000    0.000   80.600    0.000 
#    0.000    0.000    0.000    0.000    0.000    0.000 
#
# Total GULP energy -222723.949527 kJ/mol
# GULP energy per Si atom -5568.098738 kJ/mol
# Density = 2.245753 g / cm^3
# Si number density = 22.508758 Si / 1000 Ang^3
#
#
#
# Elastic Constant Matrix: (Units=GPa)
#
#
# Indices 1 2 3 4 5 6 
#
# 1 106.3618 52.5205 53.0887 0.0000 0.0000 0.0000
# 2 52.5205 106.3619 53.0882 0.0000 0.0000 0.0000
# 3 53.0887 53.0882 108.8506 0.0000 0.0000 0.0000
# 4 0.0000 0.0000 0.0000 50.5871 0.0000 0.0000
# 5 0.0000 0.0000 0.0000 0.0000 50.5872 0.0000
# 6 0.0000 0.0000 0.0000 0.0000 0.0000 3.1008
#
#
#
# Elastic Compliance Matrix: (Units=1/GPa)
#
#
# Indices 1 2 3 4 5 6 
#
# 1 0.013955 -0.004618 -0.004554 0.000000 0.000000 0.000000
# 2 -0.004618 0.013955 -0.004554 0.000000 0.000000 0.000000
# 3 -0.004554 -0.004554 0.013629 0.000000 0.000000 0.000000
# 4 0.000000 0.000000 0.000000 0.019768 0.000000 0.000000
# 5 0.000000 0.000000 0.000000 0.000000 0.019768 0.000000
# 6 0.000000 0.000000 0.000000 0.000000 0.000000 0.322496
#
#
# Mechanical properties :
#
#
# Convention : Reuss Voigt Hill
#
# Bulk Modulus (GPa) = 70.98393 70.99657 70.99025
# Shear Modulus (GPa) = 11.47530 31.71348 21.59439
#
# Velocity S-wave (km/s) = 2.26036 3.75766 3.10074
# Velocity P-wave (km/s) = 6.19814 7.10189 6.66535
#
# Compressibility (1/GPa) = 0.01408770
#
# Stress axis : x y z
#
# Youngs Moduli (GPa) = 71.65773 71.65834 73.37297
#
# Poissons Ratio (x) = 0.33091 0.33414
# Poissons Ratio (y) = 0.33091 0.33413
# Poissons Ratio (z) = 0.32633 0.32632
#
# Static dielectric constant tensor:
#      x y z
#    x 1.884720 0.000000 0.000000 
#    y 0.000000 1.884720 0.000000 
#    z 0.000000 0.000000 1.759220 
# 
# From -- ./inp_files/14143.got.cif
#   From: 2010.05.17/outbox.cif.g08.bks.cpg/sg91_8_cif.got.tgz:14143.got - 2010.06.03 19:20:03.
