data_PCOD9547693
_publ_section_title
;
Structure prediction by ZEFSAII (Michael W. Deem and Ramdas Pophale) SiO2 
 PCOD9547693
Probable space group: P 41 2 2
;
_chemical_formula_sum "Si O2"
_cell_formula_units_Z 48
_cell_length_a 14.672742
_cell_length_b 14.672742
_cell_length_c 12.630183
_cell_angle_alpha 90.000000
_cell_angle_beta 90.000000
_cell_angle_gamma 90.000000
_cell_volume 2719.143987
_symmetry_space_group_name_H-M "P 41 2 2"
_symmetry_group_IT_number 91
_symmetry_cell_setting 'tetragonal'
loop_
_space_group_symop_operation_xyz
x,y,z
-y,x,1/4+z
-x,-y,1/2+z
y,-x,3/4+z
x,-y,1/2-z
-x,y,-z
y,x,3/4-z
-y,-x,1/4-z
loop_
_atom_site_type_symbol
_atom_site_label
_atom_site_fract_x
_atom_site_fract_y
_atom_site_fract_z
Si Si1 0.901154 0.380908 0.542812
Si Si2 0.242506 0.087331 0.691822
Si Si3 0.286171 0.824333 0.394835
Si Si4 0.887841 0.429695 0.075485
Si Si5 0.706417 0.406897 0.208370
Si Si6 0.989704 0.643983 0.743098
O O1 0.832772 0.314334 0.478841
O O2 0.887005 0.482849 0.499063
O O3 0.914841 0.380535 0.668794
O O4 0.000000 0.351070 0.500000
O O5 0.187668 0.180190 0.674053
O O6 0.333844 0.108450 0.762336
O O7 0.276711 0.052098 0.578770
O O8 0.197326 0.000000 0.750000
O O9 0.340125 0.740382 0.448574
O O10 0.323110 0.916679 0.450932
O O11 0.798101 0.434121 0.145900
O O12 0.973651 0.429460 0.156589
O O13 0.663723 0.500000 0.250000
O O14 0.644374 0.355627 0.125000
#
# Coordination Sequence:
#
# PCOD9547693 Si02
#       6
#     8   8   8   8   8   8
#     4  10  19  32  51  78 114 144 179 232 295 361
#     4  10  20  34  53  79 112 145 190 242 287 345
#     4  10  20  34  55  80 108 145 192 231 286 347
#     4  10  19  32  53  84 111 143 183 232 298 351
#     4  11  20  35  60  85 111 147 190 234 283 338
#     4   9  21  33  52  78 112 150 177 237 301 351
#
# _framework density 17.652615999999998
#
# number of rings (size 3 to 8) (size 9 to 14) (size 15 to 20)
#    0.000    2.000    3.333    1.500    0.000    4.000 
#    0.000    0.000    0.000   11.000    0.000    0.000 
#    0.000    0.000    0.000    0.000    0.000    0.000 
#
# Total GULP energy -267450.041495 kJ/mol
# GULP energy per Si atom -5571.875864 kJ/mol
# Density = 1.761244 g / cm^3
# Si number density = 17.652616 Si / 1000 Ang^3
#
#
#
# Elastic Constant Matrix: (Units=GPa)
#
#
# Indices 1 2 3 4 5 6 
#
# 1 73.0073 18.0971 25.4769 0.0000 0.0000 0.0000
# 2 18.0971 73.0084 25.4770 0.0000 0.0000 0.0000
# 3 25.4769 25.4770 83.1347 0.0000 0.0000 0.0000
# 4 0.0000 0.0000 0.0000 20.3210 0.0000 0.0000
# 5 0.0000 0.0000 0.0000 0.0000 20.3213 0.0000
# 6 0.0000 0.0000 0.0000 0.0000 0.0000 4.8072
#
#
#
# Elastic Compliance Matrix: (Units=1/GPa)
#
#
# Indices 1 2 3 4 5 6 
#
# 1 0.015729 -0.002482 -0.004060 0.000000 0.000000 0.000000
# 2 -0.002482 0.015729 -0.004060 0.000000 0.000000 0.000000
# 3 -0.004060 -0.004060 0.014517 0.000000 0.000000 0.000000
# 4 0.000000 0.000000 0.000000 0.049210 0.000000 0.000000
# 5 0.000000 0.000000 0.000000 0.000000 0.049209 0.000000
# 6 0.000000 0.000000 0.000000 0.000000 0.000000 0.208020
#
#
# Mechanical properties :
#
#
# Convention : Reuss Voigt Hill
#
# Bulk Modulus (GPa) = 40.36774 40.80583 40.58678
# Shear Modulus (GPa) = 13.09331 19.76319 16.42825
#
# Velocity S-wave (km/s) = 2.72641 3.34962 3.05395
# Velocity P-wave (km/s) = 5.72962 6.17463 5.95629
#
# Compressibility (1/GPa) = 0.02477226
#
# Stress axis : x y z
#
# Youngs Moduli (GPa) = 63.57597 63.57698 68.88572
#
# Poissons Ratio (x) = 0.15782 0.27965
# Poissons Ratio (y) = 0.15781 0.27964
# Poissons Ratio (z) = 0.25809 0.25809
#
# Static dielectric constant tensor:
#      x y z
#    x 1.625160 0.000000 0.000000 
#    y 0.000000 1.625160 0.000000 
#    z 0.000000 0.000000 1.670700 
# 
# From -- ./inp_files/15861.got.cif
#   From: 2010.05.17/outbox.cif.g08.bks.cpg/sg91_8_cif.got.tgz:15861.got - 2010.06.03 19:20:03.
