data_PCOD9547791
_publ_section_title
;
Structure prediction by ZEFSAII (Michael W. Deem and Ramdas Pophale) SiO2 
 PCOD9547791
Probable space group: P 41 2 2
;
_chemical_formula_sum "Si O2"
_cell_formula_units_Z 64
_cell_length_a 18.342299
_cell_length_b 18.342299
_cell_length_c 11.964837
_cell_angle_alpha 90.000000
_cell_angle_beta 90.000000
_cell_angle_gamma 90.000000
_cell_volume 4025.448954
_symmetry_space_group_name_H-M "P 41 2 2"
_symmetry_group_IT_number 91
_symmetry_cell_setting 'tetragonal'
loop_
_space_group_symop_operation_xyz
x,y,z
-y,x,1/4+z
-x,-y,1/2+z
y,-x,3/4+z
x,-y,1/2-z
-x,y,-z
y,x,3/4-z
-y,-x,1/4-z
loop_
_atom_site_type_symbol
_atom_site_label
_atom_site_fract_x
_atom_site_fract_y
_atom_site_fract_z
Si Si1 0.848684 0.275178 0.633272
Si Si2 0.348428 0.878137 0.893283
Si Si3 0.913238 0.534141 0.475626
Si Si4 0.081230 0.367939 0.552854
Si Si5 0.341938 0.051633 0.940821
Si Si6 0.849360 0.041251 0.564100
Si Si7 0.099446 0.929963 0.818599
Si Si8 0.766214 0.857158 0.301546
O O1 0.781326 0.218675 0.625000
O O2 0.841859 0.331081 0.737475
O O3 0.865604 0.317323 0.519314
O O4 0.921267 0.226909 0.658470
O O5 0.425999 0.872870 0.829168
O O6 0.287695 0.850808 0.804637
O O7 0.342613 0.965460 0.915022
O O8 0.891208 0.451496 0.453357
O O9 0.910925 0.588611 0.370240
O O10 0.000000 0.530854 0.500000
O O11 0.070596 0.344161 0.679902
O O12 0.000000 0.365407 0.500000
O O13 0.271653 0.085055 0.882602
O O14 0.908509 0.091492 0.625000
O O15 0.863109 0.043371 0.431812
O O16 0.869477 0.960194 0.600549
O O17 0.159474 0.891257 0.743638
O O18 0.068664 0.000000 0.750000
O O19 0.786441 0.786441 0.375000
#
# Coordination Sequence:
#
# PCOD9547791 Si02
#       8
#     8   8   8   8   8   8   8   8
#     4  11  25  37  48  69 105 137 168 205 260 323
#     4  10  19  39  51  69 102 126 161 218 267 305
#     4   8  18  34  58  80  95 119 158 217 268 309
#     4  11  21  34  56  79  96 129 167 205 265 320
#     4  10  20  35  53  73 104 121 160 223 268 309
#     4  11  24  38  47  62  87 121 167 227 275 301
#     4  12  22  35  50  63  80 116 176 224 268 310
#     4  11  23  31  50  68  90 130 171 209 260 314
#
# _framework density 15.898847999999999
#
# number of rings (size 3 to 8) (size 9 to 14) (size 15 to 20)
#    0.000    1.500    2.500    4.500    3.500    2.500 
#    0.000    0.000    0.000    0.000    0.000    0.000 
#    0.000    0.000    0.000    0.000    0.000   20.000 
#
# Total GULP energy -357305.220175 kJ/mol
# GULP energy per Si atom -5582.894065 kJ/mol
# Density = 1.586266 g / cm^3
# Si number density = 15.898848 Si / 1000 Ang^3
#
#
#
# Elastic Constant Matrix: (Units=GPa)
#
#
# Indices 1 2 3 4 5 6 
#
# 1 47.8634 11.9534 14.2134 0.0000 0.0000 0.0000
# 2 11.9534 47.8622 14.2134 0.0000 0.0000 0.0000
# 3 14.2134 14.2134 89.1670 0.0000 0.0000 0.0000
# 4 0.0000 0.0000 0.0000 10.5213 0.0000 0.0000
# 5 0.0000 0.0000 0.0000 0.0000 10.5211 0.0000
# 6 0.0000 0.0000 0.0000 0.0000 0.0000 9.7404
#
#
#
# Elastic Compliance Matrix: (Units=1/GPa)
#
#
# Indices 1 2 3 4 5 6 
#
# 1 0.022968 -0.004880 -0.002883 0.000000 0.000000 0.000000
# 2 -0.004880 0.022968 -0.002883 0.000000 0.000000 0.000000
# 3 -0.002883 -0.002883 0.012134 0.000000 0.000000 0.000000
# 4 0.000000 0.000000 0.000000 0.095045 0.000000 0.000000
# 5 0.000000 0.000000 0.000000 0.000000 0.095047 0.000000
# 6 0.000000 0.000000 0.000000 0.000000 0.000000 0.102665
#
#
# Mechanical properties :
#
#
# Convention : Reuss Voigt Hill
#
# Bulk Modulus (GPa) = 27.19074 29.51699 28.35387
# Shear Modulus (GPa) = 13.00799 15.79073 14.39936
#
# Velocity S-wave (km/s) = 2.86347 3.15493 3.01273
# Velocity P-wave (km/s) = 5.29831 5.64599 5.47491
#
# Compressibility (1/GPa) = 0.03677722
#
# Stress axis : x y z
#
# Youngs Moduli (GPa) = 43.53945 43.53830 82.41225
#
# Poissons Ratio (x) = 0.21246 0.23761
# Poissons Ratio (y) = 0.21247 0.23762
# Poissons Ratio (z) = 0.12553 0.12554
#
# Static dielectric constant tensor:
#      x y z
#    x 1.542120 0.000000 0.000000 
#    y 0.000000 1.542110 0.000000 
#    z 0.000000 0.000000 1.580700 
# 
# From -- ./inp_files/4064.got.cif
#   From: 2010.05.17/outbox.cif.g08.bks.cpg/sg91_3_cif.got.tgz:4064.got - 2010.06.03 19:20:03.
