data_PCOD9547162
_publ_section_title
;
Structure prediction by ZEFSAII (Michael W. Deem and Ramdas Pophale) SiO2 
 PCOD9547162
Probable space group: P 4 21 2
;
_chemical_formula_sum "Si O2"
_cell_formula_units_Z 34
_cell_length_a 13.035978
_cell_length_b 13.035978
_cell_length_c 9.066168
_cell_angle_alpha 90.000000
_cell_angle_beta 90.000000
_cell_angle_gamma 90.000000
_cell_volume 1540.674875
_symmetry_space_group_name_H-M "P 4 21 2"
_symmetry_group_IT_number 90
_symmetry_cell_setting 'tetragonal'
loop_
_space_group_symop_operation_xyz
x,y,z
1/2-y,1/2+x,z
-x,-y,z
1/2+y,1/2-x,z
1/2+x,1/2-y,-z
1/2-x,1/2+y,-z
y,x,-z
-y,-x,-z
loop_
_atom_site_type_symbol
_atom_site_label
_atom_site_fract_x
_atom_site_fract_y
_atom_site_fract_z
Si Si1 0.643613 0.095288 0.414988
Si Si2 0.871392 0.232499 0.871593
Si Si3 0.556691 0.701955 0.661081
Si Si4 0.000000 0.000000 0.500000
Si Si5 0.491842 0.827949 0.922705
O O1 0.528593 0.136489 0.428287
O O2 0.680682 0.131552 0.253820
O O3 0.725272 0.116894 0.544854
O O4 0.855457 0.132350 0.773345
O O5 0.785416 0.214585 0.000000
O O6 0.981640 0.244829 0.952272
O O7 0.499931 0.608975 0.582877
O O8 0.488549 0.775371 0.763963
O O9 0.398481 0.905614 0.937583
#
# Coordination Sequence:
#
# PCOD9547162 Si02
#       5
#     8   8   8   2   8
#     4  11  22  41  70 100 134 181 236 294 349 403
#     4  10  21  40  63  94 138 179 217 285 335 418
#     4  11  23  44  64  95 140 181 231 277 342 415
#     4  12  24  48  62  84 136 188 208 290 336 408
#     4  10  21  42  70 103 140 176 225 289 346 401
#
# _framework density 22.068252999999999
#
# number of rings (size 3 to 8) (size 9 to 14) (size 15 to 20)
#    0.000    1.412    2.353    2.824    0.000    3.765 
#   12.706    7.647    0.000    0.000    0.000    0.000 
#    0.000    0.000    0.000    0.000    0.000    0.000 
#
# Total GULP energy -189536.932873 kJ/mol
# GULP energy per Si atom -5574.615673 kJ/mol
# Density = 2.201802 g / cm^3
# Si number density = 22.068253 Si / 1000 Ang^3
#
#
#
# Elastic Constant Matrix: (Units=GPa)
#
#
# Indices 1 2 3 4 5 6 
#
# 1 68.1375 34.2817 32.6618 0.0000 0.0000 0.0000
# 2 34.2817 68.1361 32.6612 0.0000 0.0000 0.0000
# 3 32.6618 32.6612 131.6995 0.0000 0.0000 0.0000
# 4 0.0000 0.0000 0.0000 0.9512 0.0000 0.0000
# 5 0.0000 0.0000 0.0000 0.0000 0.9521 0.0000
# 6 0.0000 0.0000 0.0000 0.0000 0.0000 40.4247
#
#
#
# Elastic Compliance Matrix: (Units=1/GPa)
#
#
# Indices 1 2 3 4 5 6 
#
# 1 0.020568 -0.008970 -0.002876 0.000000 0.000000 0.000000
# 2 -0.008970 0.020568 -0.002876 0.000000 0.000000 0.000000
# 3 -0.002876 -0.002876 0.009020 0.000000 0.000000 0.000000
# 4 0.000000 0.000000 0.000000 1.051347 0.000000 0.000000
# 5 0.000000 0.000000 0.000000 0.000000 1.050321 0.000000
# 6 0.000000 0.000000 0.000000 0.000000 0.000000 0.024737
#
#
# Mechanical properties :
#
#
# Convention : Reuss Voigt Hill
#
# Bulk Modulus (GPa) = 48.28357 51.90918 50.09637
# Shear Modulus (GPa) = 2.25947 19.69014 10.97481
#
# Velocity S-wave (km/s) = 1.01295 2.99028 2.23247
# Velocity P-wave (km/s) = 4.82647 5.95781 5.42173
#
# Compressibility (1/GPa) = 0.02071098
#
# Stress axis : x y z
#
# Youngs Moduli (GPa) = 48.61953 48.61858 110.86787
#
# Poissons Ratio (x) = 0.43609 0.31890
# Poissons Ratio (y) = 0.43610 0.31890
# Poissons Ratio (z) = 0.13985 0.13985
#
# Static dielectric constant tensor:
#      x y z
#    x 1.820840 0.000000 0.000000 
#    y 0.000000 1.820840 0.000000 
#    z 0.000000 0.000000 1.890370 
# 
# From -- ./inp_files/1102.got.cif
#   From: 2010.05.17/outbox.cif.g08.bks.cpg/sg90_1_cif.got.tgz:1102.got - 2010.06.03 19:17:45.
