data_PCOD9547806
_publ_section_title
;
Structure prediction by ZEFSAII (Michael W. Deem and Ramdas Pophale) SiO2 
 PCOD9547806
Probable space group: P 41 2 2
;
_chemical_formula_sum "Si O2"
_cell_formula_units_Z 56
_cell_length_a 15.369356
_cell_length_b 15.369356
_cell_length_c 12.129181
_cell_angle_alpha 90.000000
_cell_angle_beta 90.000000
_cell_angle_gamma 90.000000
_cell_volume 2865.120008
_symmetry_space_group_name_H-M "P 41 2 2"
_symmetry_group_IT_number 91
_symmetry_cell_setting 'tetragonal'
loop_
_space_group_symop_operation_xyz
x,y,z
-y,x,1/4+z
-x,-y,1/2+z
y,-x,3/4+z
x,-y,1/2-z
-x,y,-z
y,x,3/4-z
-y,-x,1/4-z
loop_
_atom_site_type_symbol
_atom_site_label
_atom_site_fract_x
_atom_site_fract_y
_atom_site_fract_z
Si Si1 0.782712 0.925275 0.340782
Si Si2 0.089044 0.623754 0.048408
Si Si3 0.502732 0.238846 0.366989
Si Si4 0.054678 0.773759 0.216261
Si Si5 0.959370 0.959370 0.875000
Si Si6 0.664908 0.335093 0.625000
Si Si7 0.318627 0.239212 0.770250
Si Si8 0.783371 0.753575 0.056431
O O1 0.864683 0.864683 0.375000
O O2 0.705476 0.859754 0.305395
O O3 0.802826 0.000000 0.250000
O O4 0.757809 0.980011 0.446849
O O5 0.154034 0.546535 0.073171
O O6 0.072498 0.684768 0.153173
O O7 0.135559 0.692479 0.967804
O O8 0.000000 0.590670 0.000000
O O9 0.500000 0.231182 0.500000
O O10 0.434732 0.317120 0.347659
O O11 0.591719 0.247724 0.298368
O O12 0.027373 0.855764 0.141429
O O13 0.146119 0.799399 0.275072
O O14 0.982710 0.000000 0.750000
O O15 0.720364 0.295304 0.726894
O O16 0.301907 0.301907 0.875000
O O17 0.244284 0.257927 0.680872
#
# Coordination Sequence:
#
# PCOD9547806 Si02
#       8
#     8   8   8   8   4   4   8   8
#     4  11  27  40  60  94 141 194 246 290 359 427
#     4  11  24  39  64 100 127 163 234 291 335 384
#     4  11  22  45  76  99 129 175 227 277 336 430
#     4  12  22  40  63  88 125 186 246 296 337 402
#     4  12  29  40  58  90 132 182 245 312 358 414
#     4  10  19  40  76 106 116 160 229 282 324 400
#     4  11  25  44  69  99 146 187 215 274 373 440
#     4  11  19  42  67  93 124 179 236 274 332 405
#
# _framework density 19.545431000000001
#
# number of rings (size 3 to 8) (size 9 to 14) (size 15 to 20)
#    0.000    0.857    7.143    0.429    7.000    0.571 
#    0.000    2.857    1.571    0.000    0.000    0.000 
#    0.000    0.000    0.000    0.000    0.000    0.000 
#
# Total GULP energy -312471.608030 kJ/mol
# GULP energy per Si atom -5579.850143 kJ/mol
# Density = 1.950094 g / cm^3
# Si number density = 19.545431 Si / 1000 Ang^3
#
#
#
# Elastic Constant Matrix: (Units=GPa)
#
#
# Indices 1 2 3 4 5 6 
#
# 1 94.2950 58.3263 46.8198 0.0000 0.0000 0.0000
# 2 58.3263 94.2952 46.8205 0.0000 0.0000 0.0000
# 3 46.8198 46.8205 119.2388 0.0000 0.0000 0.0000
# 4 0.0000 0.0000 0.0000 6.7262 0.0000 0.0000
# 5 0.0000 0.0000 0.0000 0.0000 6.7382 0.0000
# 6 0.0000 0.0000 0.0000 0.0000 0.0000 11.7453
#
#
#
# Elastic Compliance Matrix: (Units=1/GPa)
#
#
# Indices 1 2 3 4 5 6 
#
# 1 0.018217 -0.009585 -0.003389 0.000000 0.000000 0.000000
# 2 -0.009585 0.018217 -0.003389 0.000000 0.000000 0.000000
# 3 -0.003389 -0.003389 0.011048 0.000000 0.000000 0.000000
# 4 0.000000 0.000000 0.000000 0.148672 0.000000 0.000000
# 5 0.000000 0.000000 0.000000 0.000000 0.148408 0.000000
# 6 0.000000 0.000000 0.000000 0.000000 0.000000 0.085141
#
#
# Mechanical properties :
#
#
# Convention : Reuss Voigt Hill
#
# Bulk Modulus (GPa) = 67.77670 67.97357 67.87513
# Shear Modulus (GPa) = 10.69867 15.43276 13.06572
#
# Velocity S-wave (km/s) = 2.34214 2.81300 2.58830
# Velocity P-wave (km/s) = 6.48583 6.73820 6.61322
#
# Compressibility (1/GPa) = 0.01475433
#
# Stress axis : x y z
#
# Youngs Moduli (GPa) = 54.89462 54.89442 90.51241
#
# Poissons Ratio (x) = 0.52617 0.30676
# Poissons Ratio (y) = 0.52617 0.30678
# Poissons Ratio (z) = 0.18605 0.18606
#
# Static dielectric constant tensor:
#      x y z
#    x 1.722740 0.000000 0.000000 
#    y 0.000000 1.722740 0.000000 
#    z 0.000000 0.000000 1.801250 
# 
# From -- ./inp_files/3962.got.cif
#   From: 2010.05.17/outbox.cif.g08.bks.cpg/sg91_2_cif.got.tgz:3962.got - 2010.06.03 19:20:03.
