data_PCOD9547315
_publ_section_title
;
Structure prediction by ZEFSAII (Michael W. Deem and Ramdas Pophale) SiO2 
 PCOD9547315
Probable space group: P 4 21 2
;
_chemical_formula_sum "Si O2"
_cell_formula_units_Z 48
_cell_length_a 8.079528
_cell_length_b 8.079528
_cell_length_c 32.490409
_cell_angle_alpha 90.000000
_cell_angle_beta 90.000000
_cell_angle_gamma 90.000000
_cell_volume 2120.934024
_symmetry_space_group_name_H-M "P 4 21 2"
_symmetry_group_IT_number 90
_symmetry_cell_setting 'tetragonal'
loop_
_space_group_symop_operation_xyz
x,y,z
1/2-y,1/2+x,z
-x,-y,z
1/2+y,1/2-x,z
1/2+x,1/2-y,-z
1/2-x,1/2+y,-z
y,x,-z
-y,-x,-z
loop_
_atom_site_type_symbol
_atom_site_label
_atom_site_fract_x
_atom_site_fract_y
_atom_site_fract_z
Si Si1 0.594738 0.264413 0.120195
Si Si2 0.916330 0.765626 0.540082
Si Si3 0.596927 0.263752 0.298817
Si Si4 0.764351 0.914036 0.620191
Si Si5 0.265161 0.582525 0.039734
Si Si6 0.262865 0.598784 0.790528
O O1 0.405042 0.202566 0.117886
O O2 0.642176 0.376385 0.081961
O O3 0.628423 0.344450 0.165164
O O4 0.800357 0.602563 0.539395
O O5 0.869912 0.869912 0.500000
O O6 0.875134 0.863147 0.581572
O O7 0.406640 0.203397 0.301232
O O8 0.646700 0.375626 0.336905
O O9 0.629438 0.343807 0.253804
O O10 0.600819 0.799203 0.618067
O O11 0.199464 0.396719 0.038489
O O12 0.371477 0.628524 0.000000
O O13 0.203277 0.407797 0.790528
#
# Coordination Sequence:
#
# PCOD9547315 Si02
#       6
#     8   8   8   8   8   8
#     4   9  17  32  56  83 108 136 172 214 261 313
#     4  11  24  41  62  88 114 141 177 220 266 318
#     4   9  17  32  56  83 108 138 180 226 269 314
#     4  11  24  39  54  77 111 149 187 225 267 316
#     4  11  24  39  54  75 103 135 172 214 261 313
#     4   7  12  26  50  79 108 136 170 215 262 309
#
# _framework density 22.631537999999999
#
# number of rings (size 3 to 8) (size 9 to 14) (size 15 to 20)
#    0.000    2.333    0.000    5.000    0.000   10.667 
#    0.000    1.667    0.000    8.000    0.000    0.000 
#    0.000    0.000    0.000    0.000    0.000    0.000 
#
# Total GULP energy -268712.183354 kJ/mol
# GULP energy per Si atom -5598.170487 kJ/mol
# Density = 2.258003 g / cm^3
# Si number density = 22.631538 Si / 1000 Ang^3
#
#
#
# Elastic Constant Matrix: (Units=GPa)
#
#
# Indices 1 2 3 4 5 6 
#
# 1 76.4996 54.1117 60.6897 0.0000 0.0000 0.0000
# 2 54.1117 76.4999 60.6901 0.0000 0.0000 0.0000
# 3 60.6897 60.6901 245.4614 0.0000 0.0000 0.0000
# 4 0.0000 0.0000 0.0000 86.8493 0.0000 0.0000
# 5 0.0000 0.0000 0.0000 0.0000 86.8496 0.0000
# 6 0.0000 0.0000 0.0000 0.0000 0.0000 39.3103
#
#
#
# Elastic Compliance Matrix: (Units=1/GPa)
#
#
# Indices 1 2 3 4 5 6 
#
# 1 0.027304 -0.017363 -0.002458 0.000000 0.000000 0.000000
# 2 -0.017363 0.027303 -0.002458 0.000000 0.000000 0.000000
# 3 -0.002458 -0.002458 0.005289 0.000000 0.000000 0.000000
# 4 0.000000 0.000000 0.000000 0.011514 0.000000 0.000000
# 5 0.000000 0.000000 0.000000 0.000000 0.011514 0.000000
# 6 0.000000 0.000000 0.000000 0.000000 0.000000 0.025439
#
#
# Mechanical properties :
#
#
# Convention : Reuss Voigt Hill
#
# Bulk Modulus (GPa) = 65.19325 83.27156 74.23240
# Shear Modulus (GPa) = 31.63882 57.46646 44.55264
#
# Velocity S-wave (km/s) = 3.74304 5.04453 4.44171
# Velocity P-wave (km/s) = 6.89560 8.41452 7.69264
#
# Compressibility (1/GPa) = 0.01533901
#
# Stress axis : x y z
#
# Youngs Moduli (GPa) = 36.62524 36.62535 189.06113
#
# Poissons Ratio (x) = 0.63593 0.46465
# Poissons Ratio (y) = 0.63593 0.46467
# Poissons Ratio (z) = 0.09001 0.09002
#
# Static dielectric constant tensor:
#      x y z
#    x 1.824600 0.000000 0.000000 
#    y 0.000000 1.824600 0.000000 
#    z 0.000000 0.000000 1.822850 
# 
# From -- ./inp_files/3036.got.cif
#   From: 2010.05.17/outbox.cif.g08.bks.cpg/sg90_2_cif.got.tgz:3036.got - 2010.06.03 19:17:45.
