data_PCOD9547989
_publ_section_title
;
Structure prediction by ZEFSAII (Michael W. Deem and Ramdas Pophale) SiO2 
 PCOD9547989
Probable space group: P 41 2 2
;
_chemical_formula_sum "Si O2"
_cell_formula_units_Z 48
_cell_length_a 8.878835
_cell_length_b 8.878835
_cell_length_c 31.953946
_cell_angle_alpha 90.000000
_cell_angle_beta 90.000000
_cell_angle_gamma 90.000000
_cell_volume 2519.048143
_symmetry_space_group_name_H-M "P 41 2 2"
_symmetry_group_IT_number 91
_symmetry_cell_setting 'tetragonal'
loop_
_space_group_symop_operation_xyz
x,y,z
-y,x,1/4+z
-x,-y,1/2+z
y,-x,3/4+z
x,-y,1/2-z
-x,y,-z
y,x,3/4-z
-y,-x,1/4-z
loop_
_atom_site_type_symbol
_atom_site_label
_atom_site_fract_x
_atom_site_fract_y
_atom_site_fract_z
Si Si1 0.792235 0.695869 0.574656
Si Si2 0.399388 0.582093 0.041222
Si Si3 0.618846 0.301058 0.840107
Si Si4 0.178463 0.219973 0.508942
Si Si5 0.298477 0.848878 0.662959
Si Si6 0.180936 0.876806 0.505054
O O1 0.710182 0.549843 0.555972
O O2 0.718924 0.726907 0.619306
O O3 0.760406 0.823028 0.539777
O O4 0.972375 0.677336 0.580232
O O5 0.522941 0.616857 0.076802
O O6 0.287238 0.715254 0.027145
O O7 0.500000 0.542587 0.000000
O O8 0.686075 0.214185 0.800320
O O9 0.452406 0.236869 0.847280
O O10 0.000000 0.230704 0.500000
O O11 0.222214 0.046698 0.515680
O O12 0.183567 0.816434 0.625000
O O13 0.232748 0.783052 0.706436
O O14 0.000000 0.873218 0.500000
#
# Coordination Sequence:
#
# PCOD9547989 Si02
#       6
#     8   8   8   8   8   8
#     4  11  22  38  60  86 117 155 194 238 293 350
#     4  10  21  37  57  83 117 155 193 236 286 346
#     4  11  23  38  57  87 121 151 192 241 289 345
#     4  10  20  39  62  84 113 152 195 240 288 340
#     4  11  22  39  61  85 116 155 196 240 291 347
#     4   9  20  37  59  85 113 148 192 239 288 342
#
# _framework density 19.054818000000001
#
# number of rings (size 3 to 8) (size 9 to 14) (size 15 to 20)
#    0.000    1.667    0.000    5.500    0.000    2.667 
#    0.000   10.833    0.000    0.000    0.000    0.000 
#    0.000    0.000    0.000    0.000    0.000    0.000 
#
# Total GULP energy -267982.927833 kJ/mol
# GULP energy per Si atom -5582.977663 kJ/mol
# Density = 1.901145 g / cm^3
# Si number density = 19.054818 Si / 1000 Ang^3
#
#
#
# Elastic Constant Matrix: (Units=GPa)
#
#
# Indices 1 2 3 4 5 6 
#
# 1 95.9187 32.9763 26.2610 0.0000 0.0000 0.0000
# 2 32.9763 95.9180 26.2608 0.0000 0.0000 0.0000
# 3 26.2610 26.2608 72.2469 0.0000 0.0000 0.0000
# 4 0.0000 0.0000 0.0000 27.3967 0.0000 0.0000
# 5 0.0000 0.0000 0.0000 0.0000 27.3968 0.0000
# 6 0.0000 0.0000 0.0000 0.0000 0.0000 22.4820
#
#
#
# Elastic Compliance Matrix: (Units=1/GPa)
#
#
# Indices 1 2 3 4 5 6 
#
# 1 0.012497 -0.003390 -0.003310 0.000000 0.000000 0.000000
# 2 -0.003390 0.012497 -0.003310 0.000000 0.000000 0.000000
# 3 -0.003310 -0.003310 0.016248 0.000000 0.000000 0.000000
# 4 0.000000 0.000000 0.000000 0.036501 0.000000 0.000000
# 5 0.000000 0.000000 0.000000 0.000000 0.036501 0.000000
# 6 0.000000 0.000000 0.000000 0.000000 0.000000 0.044480
#
#
# Mechanical properties :
#
#
# Convention : Reuss Voigt Hill
#
# Bulk Modulus (GPa) = 47.12331 48.34219 47.73275
# Shear Modulus (GPa) = 26.90781 27.36080 27.13430
#
# Velocity S-wave (km/s) = 3.76190 3.79344 3.77770
# Velocity P-wave (km/s) = 6.60706 6.67922 6.64324
#
# Compressibility (1/GPa) = 0.02122092
#
# Stress axis : x y z
#
# Youngs Moduli (GPa) = 80.01684 80.01635 61.54613
#
# Poissons Ratio (x) = 0.27127 0.20374
# Poissons Ratio (y) = 0.27128 0.20374
# Poissons Ratio (z) = 0.26488 0.26488
#
# Static dielectric constant tensor:
#      x y z
#    x 1.659390 0.000000 0.000000 
#    y 0.000000 1.659390 0.000000 
#    z 0.000000 0.000000 1.663040 
# 
# From -- ./inp_files/7948.got.cif
#   From: 2010.05.17/outbox.cif.g08.bks.cpg/sg91_4_cif.got.tgz:7948.got - 2010.06.03 19:20:03.
