data_PCOD9547629
_publ_section_title
;
Structure prediction by ZEFSAII (Michael W. Deem and Ramdas Pophale) SiO2 
 PCOD9547629
Probable space group: P 41 2 2
;
_chemical_formula_sum "Si O2"
_cell_formula_units_Z 36
_cell_length_a 11.990162
_cell_length_b 11.990162
_cell_length_c 14.073777
_cell_angle_alpha 90.000000
_cell_angle_beta 90.000000
_cell_angle_gamma 90.000000
_cell_volume 2023.302263
_symmetry_space_group_name_H-M "P 41 2 2"
_symmetry_group_IT_number 91
_symmetry_cell_setting 'tetragonal'
loop_
_space_group_symop_operation_xyz
x,y,z
-y,x,1/4+z
-x,-y,1/2+z
y,-x,3/4+z
x,-y,1/2-z
-x,y,-z
y,x,3/4-z
-y,-x,1/4-z
loop_
_atom_site_type_symbol
_atom_site_label
_atom_site_fract_x
_atom_site_fract_y
_atom_site_fract_z
Si Si1 0.019217 0.500000 0.250000
Si Si2 0.106887 0.569351 0.932286
Si Si3 0.078687 0.702537 0.364498
Si Si4 0.672335 0.826305 0.312756
Si Si5 0.192200 0.868017 0.233200
O O1 0.092884 0.586734 0.308483
O O2 0.943281 0.430389 0.325156
O O3 0.185473 0.461496 0.935772
O O4 0.155616 0.683819 0.974072
O O5 0.000000 0.543326 0.000000
O O6 0.160987 0.709593 0.453923
O O7 0.102586 0.803780 0.295740
O O8 0.949651 0.698139 0.395513
O O9 0.736022 0.736022 0.375000
O O10 0.171820 0.828181 0.125000
O O11 0.179023 0.000000 0.250000
#
# Coordination Sequence:
#
# PCOD9547629 Si02
#       5
#     4   8   8   8   8
#     4  10  18  36  64  80 116 156 214 246 280 360
#     4  10  19  38  58  85 113 157 207 249 292 365
#     4  10  21  37  58  86 114 159 191 243 299 360
#     4  10  21  36  59  85 117 151 201 244 294 359
#     4  11  25  38  58  89 126 158 197 248 313 377
#
# _framework density 17.792694000000001
#
# number of rings (size 3 to 8) (size 9 to 14) (size 15 to 20)
#    0.000    1.778    4.444    2.667    9.333    0.889 
#    0.000    0.000    0.000    0.000    5.778    0.000 
#    0.000    0.000    0.000    0.000    0.000    0.000 
#
# Total GULP energy -200687.934952 kJ/mol
# GULP energy per Si atom -5574.664860 kJ/mol
# Density = 1.775220 g / cm^3
# Si number density = 17.792694 Si / 1000 Ang^3
#
#
#
# Elastic Constant Matrix: (Units=GPa)
#
#
# Indices 1 2 3 4 5 6 
#
# 1 62.4716 33.4840 33.6262 0.0000 0.0000 0.0000
# 2 33.4840 62.4722 33.6264 0.0000 0.0000 0.0000
# 3 33.6262 33.6264 135.2450 0.0000 0.0000 0.0000
# 4 0.0000 0.0000 0.0000 31.3731 0.0000 0.0000
# 5 0.0000 0.0000 0.0000 0.0000 31.3728 0.0000
# 6 0.0000 0.0000 0.0000 0.0000 0.0000 -16.2171
#
#
#
# Elastic Compliance Matrix: (Units=1/GPa)
#
#
# Indices 1 2 3 4 5 6 
#
# 1 0.023559 -0.010938 -0.003138 0.000000 0.000000 0.000000
# 2 -0.010938 0.023559 -0.003138 0.000000 0.000000 0.000000
# 3 -0.003138 -0.003138 0.008954 0.000000 0.000000 0.000000
# 4 0.000000 0.000000 0.000000 0.031874 0.000000 0.000000
# 5 0.000000 0.000000 0.000000 0.000000 0.031875 0.000000
# 6 0.000000 0.000000 0.000000 0.000000 0.000000 -0.061663
#
#
# Mechanical properties :
#
#
# Convention : Reuss Voigt Hill
#
# Bulk Modulus (GPa) = 46.20189 51.29578 48.74883
# Shear Modulus (GPa) = 50.09977 19.93591 35.01784
#
# Velocity S-wave (km/s) = 5.31212 3.35095 4.44114
# Velocity P-wave (km/s) = 7.97797 6.62300 7.33185
#
# Compressibility (1/GPa) = 0.02164414
#
# Stress axis : x y z
#
# Youngs Moduli (GPa) = 42.44650 42.44686 111.67727
#
# Poissons Ratio (x) = 0.46429 0.35043
# Poissons Ratio (y) = 0.46429 0.35044
# Poissons Ratio (z) = 0.13319 0.13320
#
# Static dielectric constant tensor:
#      x y z
#    x 1.611750 0.000000 0.000000 
#    y 0.000000 1.611750 0.000000 
#    z 0.000000 0.000000 1.540300 
# 
# From -- ./inp_files/16320.got.cif
#   From: 2010.05.17/outbox.cif.g08.bks.cpg/sg91_9_cif.got.tgz:16320.got - 2010.06.03 19:20:03.
