data_PCOD9547637
_publ_section_title
;
Structure prediction by ZEFSAII (Michael W. Deem and Ramdas Pophale) SiO2 
 PCOD9547637
Probable space group: P 41 2 2
;
_chemical_formula_sum "Si O2"
_cell_formula_units_Z 36
_cell_length_a 11.028719
_cell_length_b 11.028719
_cell_length_c 15.595805
_cell_angle_alpha 90.000000
_cell_angle_beta 90.000000
_cell_angle_gamma 90.000000
_cell_volume 1896.958978
_symmetry_space_group_name_H-M "P 41 2 2"
_symmetry_group_IT_number 91
_symmetry_cell_setting 'tetragonal'
loop_
_space_group_symop_operation_xyz
x,y,z
-y,x,1/4+z
-x,-y,1/2+z
y,-x,3/4+z
x,-y,1/2-z
-x,y,-z
y,x,3/4-z
-y,-x,1/4-z
loop_
_atom_site_type_symbol
_atom_site_label
_atom_site_fract_x
_atom_site_fract_y
_atom_site_fract_z
Si Si1 0.805939 0.990453 0.608369
Si Si2 0.627757 0.732951 0.994524
Si Si3 0.619436 0.000000 0.250000
Si Si4 0.749311 0.946014 0.083222
Si Si5 0.605682 0.140453 0.689879
O O1 0.894911 0.105090 0.625000
O O2 0.775576 0.986105 0.506882
O O3 0.687019 0.021988 0.664613
O O4 0.876651 0.871937 0.639213
O O5 0.754075 0.662280 0.998713
O O6 0.611920 0.794213 0.902074
O O7 0.500000 0.662880 0.000000
O O8 0.648755 0.844943 0.058848
O O9 0.700883 0.019738 0.165268
O O10 0.524764 0.894249 0.225944
#
# Coordination Sequence:
#
# PCOD9547637 Si02
#       5
#     8   8   4   8   8
#     4  11  22  39  64  93 121 166 211 262 316 393
#     4  10  18  38  60  89 114 153 213 265 296 357
#     4  12  24  36  56  94 128 164 200 264 334 382
#     4  11  24  36  57  91 132 162 199 257 327 392
#     4  10  20  36  63  87 116 153 215 261 304 365
#
# _framework density 18.977743
#
# number of rings (size 3 to 8) (size 9 to 14) (size 15 to 20)
#    0.000    1.333    6.667    2.000    3.111    0.000 
#    0.000    0.000    0.000    5.333    0.000    0.000 
#    0.000    0.000    0.000    0.000    0.000    0.000 
#
# Total GULP energy -200410.914438 kJ/mol
# GULP energy per Si atom -5566.969845 kJ/mol
# Density = 1.893455 g / cm^3
# Si number density = 18.977743 Si / 1000 Ang^3
#
#
#
# Elastic Constant Matrix: (Units=GPa)
#
#
# Indices 1 2 3 4 5 6 
#
# 1 67.9468 3.9719 25.6725 0.0000 0.0000 0.0000
# 2 3.9719 67.9453 25.6726 0.0000 0.0000 0.0000
# 3 25.6725 25.6726 138.3189 0.0000 0.0000 0.0000
# 4 0.0000 0.0000 0.0000 26.8165 0.0000 0.0000
# 5 0.0000 0.0000 0.0000 0.0000 26.8164 0.0000
# 6 0.0000 0.0000 0.0000 0.0000 0.0000 15.1290
#
#
#
# Elastic Compliance Matrix: (Units=1/GPa)
#
#
# Indices 1 2 3 4 5 6 
#
# 1 0.015830 0.000199 -0.002975 0.000000 0.000000 0.000000
# 2 0.000199 0.015830 -0.002975 0.000000 0.000000 0.000000
# 3 -0.002975 -0.002975 0.008334 0.000000 0.000000 0.000000
# 4 0.000000 0.000000 0.000000 0.037290 0.000000 0.000000
# 5 0.000000 0.000000 0.000000 0.000000 0.037291 0.000000
# 6 0.000000 0.000000 0.000000 0.000000 0.000000 0.066098
#
#
# Mechanical properties :
#
#
# Convention : Reuss Voigt Hill
#
# Bulk Modulus (GPa) = 35.09824 42.76056 38.92940
# Shear Modulus (GPa) = 24.79259 28.34531 26.56895
#
# Velocity S-wave (km/s) = 3.61834 3.86892 3.74572
# Velocity P-wave (km/s) = 5.99926 6.52218 6.26618
#
# Compressibility (1/GPa) = 0.02849146
#
# Stress axis : x y z
#
# Youngs Moduli (GPa) = 63.17190 63.17035 119.99021
#
# Poissons Ratio (x) = -0.01255 0.35697
# Poissons Ratio (y) = -0.01255 0.35698
# Poissons Ratio (z) = 0.18793 0.18793
#
# Static dielectric constant tensor:
#      x y z
#    x 1.715690 0.000000 0.000000 
#    y 0.000000 1.715690 0.000000 
#    z 0.000000 0.000000 1.736920 
# 
# From -- ./inp_files/4590.got.cif
#   From: 2010.05.17/outbox.cif.g08.bks.cpg/sg91_3_cif.got.tgz:4590.got - 2010.06.03 19:20:03.
