data_PCOD9547817
_publ_section_title
;
Structure prediction by ZEFSAII (Michael W. Deem and Ramdas Pophale) SiO2 
 PCOD9547817
Probable space group: P 41 2 2
;
_chemical_formula_sum "Si O2"
_cell_formula_units_Z 56
_cell_length_a 16.471529
_cell_length_b 16.471529
_cell_length_c 12.587694
_cell_angle_alpha 90.000000
_cell_angle_beta 90.000000
_cell_angle_gamma 90.000000
_cell_volume 3415.183215
_symmetry_space_group_name_H-M "P 41 2 2"
_symmetry_group_IT_number 91
_symmetry_cell_setting 'tetragonal'
loop_
_space_group_symop_operation_xyz
x,y,z
-y,x,1/4+z
-x,-y,1/2+z
y,-x,3/4+z
x,-y,1/2-z
-x,y,-z
y,x,3/4-z
-y,-x,1/4-z
loop_
_atom_site_type_symbol
_atom_site_label
_atom_site_fract_x
_atom_site_fract_y
_atom_site_fract_z
Si Si1 0.715795 0.935496 0.492022
Si Si2 0.803107 0.329946 0.631693
Si Si3 0.959236 0.548724 0.156602
Si Si4 0.873508 0.490469 0.558147
Si Si5 0.098388 0.666451 0.512167
Si Si6 0.108052 0.767960 0.311589
Si Si7 0.776456 0.905337 0.717016
O O1 0.636396 0.974157 0.546596
O O2 0.689070 0.888586 0.385632
O O3 0.755222 0.892754 0.592876
O O4 0.768103 0.012115 0.456792
O O5 0.715273 0.284728 0.625000
O O6 0.810688 0.426913 0.611224
O O7 0.845258 0.299931 0.740689
O O8 0.859671 0.288047 0.541642
O O9 0.916164 0.500000 0.250000
O O10 0.045295 0.508446 0.129908
O O11 0.905419 0.548784 0.052013
O O12 0.857010 0.584013 0.526771
O O13 0.119872 0.739514 0.432941
O O14 0.000000 0.651385 0.500000
O O15 0.141870 0.853721 0.272058
O O16 0.779864 0.000000 0.750000
#
# Coordination Sequence:
#
# PCOD9547817 Si02
#       7
#     8   8   8   8   8   8   8
#     4  11  19  32  50  67  97 126 166 216 264 311
#     4  10  20  31  46  72  98 125 169 215 251 296
#     4  11  17  26  42  72  97 122 157 204 250 312
#     4  11  18  27  46  70 100 125 164 195 250 329
#     4  10  20  32  46  73  97 129 157 205 267 332
#     4  10  21  33  47  69  97 124 170 223 267 311
#     4  11  20  33  52  69  87 131 181 215 260 302
#
# _framework density 16.397362999999999
#
# number of rings (size 3 to 8) (size 9 to 14) (size 15 to 20)
#    0.000    1.429    7.143    0.857    0.000    0.571 
#    0.000    0.000    0.000    7.714    0.000    0.000 
#    0.000    0.000    0.000    0.000   92.286    0.857 
#
# Total GULP energy -311757.809958 kJ/mol
# GULP energy per Si atom -5567.103749 kJ/mol
# Density = 1.636004 g / cm^3
# Si number density = 16.397363 Si / 1000 Ang^3
#
#
#
# Elastic Constant Matrix: (Units=GPa)
#
#
# Indices 1 2 3 4 5 6 
#
# 1 40.6929 18.3185 4.8145 0.0000 0.0000 0.0000
# 2 18.3185 40.6920 4.8142 0.0000 0.0000 0.0000
# 3 4.8145 4.8142 104.6030 0.0000 0.0000 0.0000
# 4 0.0000 0.0000 0.0000 13.8220 0.0000 0.0000
# 5 0.0000 0.0000 0.0000 0.0000 13.8221 0.0000
# 6 0.0000 0.0000 0.0000 0.0000 0.0000 25.0236
#
#
#
# Elastic Compliance Matrix: (Units=1/GPa)
#
#
# Indices 1 2 3 4 5 6 
#
# 1 0.030884 -0.013810 -0.000786 0.000000 0.000000 0.000000
# 2 -0.013810 0.030885 -0.000786 0.000000 0.000000 0.000000
# 3 -0.000786 -0.000786 0.009632 0.000000 0.000000 0.000000
# 4 0.000000 0.000000 0.000000 0.072349 0.000000 0.000000
# 5 0.000000 0.000000 0.000000 0.000000 0.072348 0.000000
# 6 0.000000 0.000000 0.000000 0.000000 0.000000 0.039962
#
#
# Mechanical properties :
#
#
# Convention : Reuss Voigt Hill
#
# Bulk Modulus (GPa) = 24.60786 26.87580 25.74183
# Shear Modulus (GPa) = 16.64613 21.06957 18.85785
#
# Velocity S-wave (km/s) = 3.18963 3.58849 3.39492
# Velocity P-wave (km/s) = 5.34834 5.79617 5.57675
#
# Compressibility (1/GPa) = 0.04063743
#
# Stress axis : x y z
#
# Youngs Moduli (GPa) = 32.37903 32.37831 103.81740
#
# Poissons Ratio (x) = 0.44715 0.08159
# Poissons Ratio (y) = 0.44716 0.08158
# Poissons Ratio (z) = 0.02545 0.02544
#
# Static dielectric constant tensor:
#      x y z
#    x 1.580120 0.000000 0.000000 
#    y 0.000000 1.580120 0.000000 
#    z 0.000000 0.000000 1.618150 
# 
# From -- ./inp_files/4007.got.cif
#   From: 2010.05.17/outbox.cif.g08.bks.cpg/sg91_3_cif.got.tgz:4007.got - 2010.06.03 19:20:03.
