data_PCOD9547394
_publ_section_title
;
Structure prediction by ZEFSAII (Michael W. Deem and Ramdas Pophale) SiO2 
 PCOD9547394
Probable space group: P 4 21 2
;
_chemical_formula_sum "Si O2"
_cell_formula_units_Z 30
_cell_length_a 8.341352
_cell_length_b 8.341352
_cell_length_c 18.785407
_cell_angle_alpha 90.000000
_cell_angle_beta 90.000000
_cell_angle_gamma 90.000000
_cell_volume 1307.053926
_symmetry_space_group_name_H-M "P 4 21 2"
_symmetry_group_IT_number 90
_symmetry_cell_setting 'tetragonal'
loop_
_space_group_symop_operation_xyz
x,y,z
1/2-y,1/2+x,z
-x,-y,z
1/2+y,1/2-x,z
1/2+x,1/2-y,-z
1/2-x,1/2+y,-z
y,x,-z
-y,-x,-z
loop_
_atom_site_type_symbol
_atom_site_label
_atom_site_fract_x
_atom_site_fract_y
_atom_site_fract_z
Si Si1 0.429926 0.262071 0.148981
Si Si2 0.808878 0.191123 0.000000
Si Si3 0.500000 0.000000 0.980362
Si Si4 0.579142 0.741542 0.563898
Si Si5 0.919431 0.240818 0.276673
O O1 0.606956 0.188401 0.151164
O O2 0.380568 0.368779 0.215736
O O3 0.396762 0.345987 0.074146
O O4 0.622091 0.154137 0.983893
O O5 0.399020 0.808025 0.558734
O O6 0.626792 0.626792 0.500000
O O7 0.602478 0.673992 0.643459
O O8 0.807806 0.399897 0.270016
#
# Coordination Sequence:
#
# PCOD9547394 Si02
#       5
#     8   4   2   8   8
#     4  11  24  43  61  89 129 165 213 269 329 395
#     4  12  24  50  68 102 132 190 224 294 340 426
#     4  12  28  48  76 100 148 176 246 284 372 400
#     4   9  19  37  58  84 117 155 198 251 311 385
#     4   9  21  39  60  85 118 158 206 256 317 388
#
# _framework density 22.952378
#
# number of rings (size 3 to 8) (size 9 to 14) (size 15 to 20)
#    0.000    1.867    2.667    1.600    3.733    4.267 
#    0.000    8.000    0.000    0.000    0.000    0.000 
#    0.000    0.000    0.000    0.000    0.000    0.000 
#
# Total GULP energy -167361.884759 kJ/mol
# GULP energy per Si atom -5578.729492 kJ/mol
# Density = 2.290014 g / cm^3
# Si number density = 22.952378 Si / 1000 Ang^3
#
#
#
# Elastic Constant Matrix: (Units=GPa)
#
#
# Indices 1 2 3 4 5 6 
#
# 1 80.5750 69.9675 71.3772 0.0000 0.0000 0.0000
# 2 69.9675 80.5764 71.3768 0.0000 0.0000 0.0000
# 3 71.3772 71.3768 208.9554 0.0000 0.0000 0.0000
# 4 0.0000 0.0000 0.0000-1288.1962 0.0000 0.0000
# 5 0.0000 0.0000 0.0000 0.0000-1288.6146 0.0000
# 6 0.0000 0.0000 0.0000 0.0000 0.0000 59.8906
#
#
#
# Elastic Compliance Matrix: (Units=1/GPa)
#
#
# Indices 1 2 3 4 5 6 
#
# 1 0.052047 -0.042221 -0.003357 0.000000 0.000000 0.000000
# 2 -0.042221 0.052045 -0.003356 0.000000 0.000000 0.000000
# 3 -0.003357 -0.003356 0.007079 0.000000 0.000000 0.000000
# 4 0.000000 0.000000 0.000000 -0.000776 0.000000 0.000000
# 5 0.000000 0.000000 0.000000 0.000000 -0.000776 0.000000
# 6 0.000000 0.000000 0.000000 0.000000 0.000000 0.016697
#
#
# Mechanical properties :
#
#
# Convention : Reuss Voigt Hill
#
# Bulk Modulus (GPa) = 75.16440 88.39443 81.77941
# Shear Modulus (GPa) = 21.87070 -492.89169 -235.51049
#
# Velocity S-wave (km/s) = 3.09021 -14.67009 -10.14057
# Velocity P-wave (km/s) = 6.74919 15.75922 10.06979
#
# Compressibility (1/GPa) = 0.01330417
#
# Stress axis : x y z
#
# Youngs Moduli (GPa) = 19.21351 19.21406 141.27151
#
# Poissons Ratio (x) = 0.81123 0.47418
# Poissons Ratio (y) = 0.81121 0.47408
# Poissons Ratio (z) = 0.06449 0.06448
#
# Static dielectric constant tensor:
#      x y z
#    x 1.848670 0.000000 0.000000 
#    y 0.000000 1.848670 0.000000 
#    z 0.000000 0.000000 1.848650 
# 
# From -- ./inp_files/2703.got.cif
#   From: 2010.05.17/outbox.cif.g08.bks.cpg/sg90_2_cif.got.tgz:2703.got - 2010.06.03 19:17:45.
