data_PCOD9547417
_publ_section_title
;
Structure prediction by ZEFSAII (Michael W. Deem and Ramdas Pophale) SiO2 
 PCOD9547417
Probable space group: P 4 21 2
;
_chemical_formula_sum "Si O2"
_cell_formula_units_Z 50
_cell_length_a 8.642031
_cell_length_b 8.642031
_cell_length_c 31.743641
_cell_angle_alpha 90.000000
_cell_angle_beta 90.000000
_cell_angle_gamma 90.000000
_cell_volume 2370.764299
_symmetry_space_group_name_H-M "P 4 21 2"
_symmetry_group_IT_number 90
_symmetry_cell_setting 'tetragonal'
loop_
_space_group_symop_operation_xyz
x,y,z
1/2-y,1/2+x,z
-x,-y,z
1/2+y,1/2-x,z
1/2+x,1/2-y,-z
1/2-x,1/2+y,-z
y,x,-z
-y,-x,-z
loop_
_atom_site_type_symbol
_atom_site_label
_atom_site_fract_x
_atom_site_fract_y
_atom_site_fract_z
Si Si1 0.000000 0.500000 0.270713
Si Si2 0.750436 0.579077 0.035435
Si Si3 0.272119 0.870803 0.367307
Si Si4 0.910161 0.161297 0.284596
Si Si5 0.591806 0.761306 0.199826
Si Si6 0.886328 0.265461 0.539182
Si Si7 0.578159 0.751401 0.869877
O O1 0.012611 0.308850 0.271595
O O2 0.813478 0.404200 0.031474
O O3 0.687266 0.599477 0.082903
O O4 0.631498 0.631498 0.000000
O O5 0.443751 0.797825 0.363937
O O6 0.169378 0.808550 0.329583
O O7 0.204180 0.845516 0.414139
O O8 0.790823 0.124739 0.247229
O O9 0.000000 0.000000 0.289554
O O10 0.415079 0.807775 0.192592
O O11 0.640823 0.628968 0.167345
O O12 0.801643 0.431707 0.536802
O O13 0.836588 0.163413 0.500000
O O14 0.404374 0.814547 0.866285
#
# Coordination Sequence:
#
# PCOD9547417 Si02
#       7
#     2   8   8   8   8   8   8
#     4  12  28  44  68 104 132 168 232 272 328 408
#     4   9  19  37  58  86 119 159 205 256 317 379
#     4   9  18  39  67  88 125 176 217 264 333 399
#     4  12  26  45  67  97 134 171 218 277 335 395
#     4  11  25  41  61  92 127 165 212 263 329 396
#     4   9  19  38  60  88 123 166 211 259 322 385
#     4   9  21  39  62  86 119 164 210 261 321 387
#
# _framework density 21.090243000000001
#
# number of rings (size 3 to 8) (size 9 to 14) (size 15 to 20)
#    0.000    2.080    0.000    4.800    4.480    3.200 
#    8.640    4.800    0.000    0.000    0.000    0.000 
#    0.000    0.000    0.000    0.000    0.000    0.000 
#
# Total GULP energy -279049.062299 kJ/mol
# GULP energy per Si atom -5580.981246 kJ/mol
# Density = 2.104224 g / cm^3
# Si number density = 21.090243 Si / 1000 Ang^3
#
#
#
# Elastic Constant Matrix: (Units=GPa)
#
#
# Indices 1 2 3 4 5 6 
#
# 1 36.8446 21.1507 24.6214 0.0000 0.0000 0.0000
# 2 21.1507 36.8444 24.6219 0.0000 0.0000 0.0000
# 3 24.6214 24.6219 105.8643 0.0000 0.0000 0.0000
# 4 0.0000 0.0000 0.0000 60.8331 0.0000 0.0000
# 5 0.0000 0.0000 0.0000 0.0000 60.8331 0.0000
# 6 0.0000 0.0000 0.0000 0.0000 0.0000 62.8353
#
#
#
# Elastic Compliance Matrix: (Units=1/GPa)
#
#
# Indices 1 2 3 4 5 6 
#
# 1 0.042602 -0.021117 -0.004997 0.000000 0.000000 0.000000
# 2 -0.021117 0.042603 -0.004997 0.000000 0.000000 0.000000
# 3 -0.004997 -0.004997 0.011770 0.000000 0.000000 0.000000
# 4 0.000000 0.000000 0.000000 0.016438 0.000000 0.000000
# 5 0.000000 0.000000 0.000000 0.000000 0.016438 0.000000
# 6 0.000000 0.000000 0.000000 0.000000 0.000000 0.015915
#
#
# Mechanical properties :
#
#
# Convention : Reuss Voigt Hill
#
# Bulk Modulus (GPa) = 28.77393 35.59345 32.18369
# Shear Modulus (GPa) = 22.77143 44.17758 33.47450
#
# Velocity S-wave (km/s) = 3.28946 4.58175 3.98829
# Velocity P-wave (km/s) = 5.30097 6.70099 6.04167
#
# Compressibility (1/GPa) = 0.03475369
#
# Stress axis : x y z
#
# Youngs Moduli (GPa) = 23.47294 23.47265 84.95831
#
# Poissons Ratio (x) = 0.49566 0.42453
# Poissons Ratio (y) = 0.49567 0.42456
# Poissons Ratio (z) = 0.11729 0.11730
#
# Static dielectric constant tensor:
#      x y z
#    x 1.759530 0.000000 0.000000 
#    y 0.000000 1.759530 0.000000 
#    z 0.000000 0.000000 1.747530 
# 
# From -- ./inp_files/3079.got.cif
#   From: 2010.05.17/outbox.cif.g08.bks.cpg/sg90_2_cif.got.tgz:3079.got - 2010.06.03 19:17:45.
