data_PCOD9547060
_publ_section_title
;
Structure prediction by ZEFSAII (Michael W. Deem and Ramdas Pophale) SiO2 
 PCOD9547060
Probable space group: P 4 2 2
;
_chemical_formula_sum "Si O2"
_cell_formula_units_Z 40
_cell_length_a 15.000000
_cell_length_b 15.000000
_cell_length_c 9.000000
_cell_angle_alpha 90.000000
_cell_angle_beta 90.000000
_cell_angle_gamma 90.000000
_cell_volume 2025.000000
_symmetry_space_group_name_H-M "P 4 2 2"
_symmetry_group_IT_number 89
_symmetry_cell_setting 'tetragonal'
loop_
_space_group_symop_operation_xyz
x,y,z
-y,x,z
-x,-y,z
y,-x,z
x,-y,-z
-x,y,-z
y,x,-z
-y,-x,-z
loop_
_atom_site_type_symbol
_atom_site_label
_atom_site_fract_x
_atom_site_fract_y
_atom_site_fract_z
Si Si1 0.594586 0.738948 0.684120
Si Si2 0.256368 0.395330 0.671499
Si Si3 0.898261 0.589323 0.099254
Si Si4 0.012075 0.853823 0.321846
Si Si5 0.669603 0.076042 0.815282
O O1 0.672326 0.673777 0.733652
O O2 0.493410 0.710879 0.715918
O O3 0.605122 0.746189 0.507182
O O4 0.600942 0.831380 0.767553
O O5 0.157846 0.368683 0.722293
O O6 0.996090 0.598709 0.168580
O O7 0.881008 0.500000 0.000000
O O8 0.889768 0.672049 0.984900
O O9 0.093074 0.921482 0.283425
O O10 0.000000 0.841260 0.500000
O O11 0.035114 0.760281 0.247041
#
# Coordination Sequence:
#
# PCOD9547060 Si02
#       5
#     8   8   8   8   8
#     4  10  23  43  65  96 130 165 213 277 320 391
#     4  10  23  41  68  97 125 166 221 265 330 381
#     4  11  24  44  60  87 136 168 206 259 324 383
#     4   9  21  41  63  91 129 168 212 266 319 379
#     4  11  23  38  63  94 122 170 212 259 315 386
#
# _framework density 19.753086
#
# number of rings (size 3 to 8) (size 9 to 14) (size 15 to 20)
#    0.000    1.800    2.000    1.800    5.600    2.800 
#    3.600    4.000    0.000    4.800    0.000    0.000 
#    0.000    0.000    0.000    0.000    0.000    0.000 
#
# Total GULP energy -222791.975055 kJ/mol
# GULP energy per Si atom -5569.799376 kJ/mol
# Density = 1.970813 g / cm^3
# Si number density = 19.753086 Si / 1000 Ang^3
#
#
#
# Elastic Constant Matrix: (Units=GPa)
#
#
# Indices 1 2 3 4 5 6 
#
# 1 97.1285 41.0650 29.3713 0.0000 0.0000 0.0000
# 2 41.0650 97.1285 29.3713 0.0000 0.0000 0.0000
# 3 29.3713 29.3713 -2.1977 0.0000 0.0000 0.0000
# 4 0.0000 0.0000 0.0000 -3.2754 0.0000 0.0000
# 5 0.0000 0.0000 0.0000 0.0000 -3.2754 0.0000
# 6 0.0000 0.0000 0.0000 0.0000 0.0000 21.9881
#
#
#
# Elastic Compliance Matrix: (Units=1/GPa)
#
#
# Indices 1 2 3 4 5 6 
#
# 1 0.009460 -0.008377 0.014475 0.000000 0.000000 0.000000
# 2 -0.008377 0.009460 0.014475 0.000000 0.000000 0.000000
# 3 0.014475 0.014475 -0.068107 0.000000 0.000000 0.000000
# 4 0.000000 0.000000 0.000000 -0.305308 0.000000 0.000000
# 5 0.000000 0.000000 0.000000 0.000000 -0.305308 0.000000
# 6 0.000000 0.000000 0.000000 0.000000 0.000000 0.045479
#
#
# Mechanical properties :
#
#
# Convention : Reuss Voigt Hill
#
# Bulk Modulus (GPa) = -124.38265 43.51940 -40.43162
# Shear Modulus (GPa) = -7.59702 9.23758 0.82028
#
# Velocity S-wave (km/s) = -1.96325 2.16487 0.64511
# Velocity P-wave (km/s) = 8.26103 5.32245 4.46744
#
# Compressibility (1/GPa) = -0.00803971
#
# Stress axis : x y z
#
# Youngs Moduli (GPa) = 105.70816 105.70816 -14.68269
#
# Poissons Ratio (x) = 0.88551 0.21254
# Poissons Ratio (y) = 0.88551 0.21254
# Poissons Ratio (z) = -1.53017 -1.53017
#
# Static dielectric constant tensor:
#      x y z
#    x 1.718690 0.000000 0.000000 
#    y 0.000000 1.718690 0.000000 
#    z 0.000000 0.000000 1.710110 
# 
# From -- ./inp_files/1043.got.cif
#   From: 2010.05.17/outbox.ucp.g08.bks.cvg/sg89_1_cif.got.tgz:1043.got - 2010.06.11 10:35:57.
