data_PCOD9547660
_publ_section_title
;
Structure prediction by ZEFSAII (Michael W. Deem and Ramdas Pophale) SiO2 
 PCOD9547660
Probable space group: P 41 2 2
;
_chemical_formula_sum "Si O2"
_cell_formula_units_Z 40
_cell_length_a 21.509500
_cell_length_b 21.509500
_cell_length_c 5.328900
_cell_angle_alpha 90.000000
_cell_angle_beta 90.000000
_cell_angle_gamma 90.000000
_cell_volume 2465.461362
_symmetry_space_group_name_H-M "P 41 2 2"
_symmetry_group_IT_number 91
_symmetry_cell_setting 'tetragonal'
loop_
_space_group_symop_operation_xyz
x,y,z
-y,x,1/4+z
-x,-y,1/2+z
y,-x,3/4+z
x,-y,1/2-z
-x,y,-z
y,x,3/4-z
-y,-x,1/4-z
loop_
_atom_site_type_symbol
_atom_site_label
_atom_site_fract_x
_atom_site_fract_y
_atom_site_fract_z
Si Si1 0.068846 0.428406 0.002015
Si Si2 0.117933 0.223175 0.383101
Si Si3 0.887787 0.634593 0.001267
Si Si4 0.480594 0.808938 0.250786
Si Si5 0.933651 0.170650 0.114559
O O1 0.078021 0.384020 0.760137
O O2 0.074978 0.389216 0.257194
O O3 0.125464 0.478555 0.998302
O O4 0.000000 0.457430 0.000000
O O5 0.178867 0.178867 0.375000
O O6 0.128327 0.293930 0.463226
O O7 0.071928 0.197584 0.603319
O O8 0.091394 0.217952 0.100412
O O9 0.827122 0.590922 0.002701
O O10 0.500000 0.774910 0.500000
O O11 0.500000 0.775653 0.000000
O O12 0.888522 0.111479 0.125000
O O13 0.000000 0.152748 0.000000
#
# Coordination Sequence:
#
# PCOD9547660 Si02
#       5
#     8   8   8   8   8
#     4  10  19  28  39  59  85 107 130 161 191 224
#     4  10  21  35  49  65  86 106 129 165 203 240
#     4  10  19  29  42  58  77 107 135 153 187 232
#     4   8  16  27  38  54  79 106 131 157 184 215
#     4  10  21  37  52  66  82  98 119 156 205 255
#
# _framework density 16.224145
#
# number of rings (size 3 to 8) (size 9 to 14) (size 15 to 20)
#    0.000    2.400    0.000    2.400    0.000   12.000 
#    0.000    3.000    0.000    0.000    0.000    0.000 
#    0.000    0.000    0.000    0.000    0.000    0.000 
#
# Total GULP energy -222733.696351 kJ/mol
# GULP energy per Si atom -5568.342409 kJ/mol
# Density = 1.618722 g / cm^3
# Si number density = 16.224145 Si / 1000 Ang^3
#
#
#
# Elastic Constant Matrix: (Units=GPa)
#
#
# Indices 1 2 3 4 5 6 
#
# 1 52.3426 19.3726 22.4249 0.0000 0.0000 0.0000
# 2 19.3726 52.3331 22.4271 0.0000 0.0000 0.0000
# 3 22.4249 22.4271 141.7970 0.0000 0.0000 0.0000
# 4 0.0000 0.0000 0.0000 16.1366 0.0000 0.0000
# 5 0.0000 0.0000 0.0000 0.0000 16.1334 0.0000
# 6 0.0000 0.0000 0.0000 0.0000 0.0000 -7.2102
#
#
#
# Elastic Compliance Matrix: (Units=1/GPa)
#
#
# Indices 1 2 3 4 5 6 
#
# 1 0.022903 -0.007430 -0.002447 0.000000 0.000000 0.000000
# 2 -0.007430 0.022908 -0.002448 0.000000 0.000000 0.000000
# 3 -0.002447 -0.002448 0.007827 0.000000 0.000000 0.000000
# 4 0.000000 0.000000 0.000000 0.061971 0.000000 0.000000
# 5 0.000000 0.000000 0.000000 0.000000 0.061983 0.000000
# 6 0.000000 0.000000 0.000000 0.000000 0.000000 -0.138693
#
#
# Mechanical properties :
#
#
# Convention : Reuss Voigt Hill
#
# Bulk Modulus (GPa) = 34.49722 41.65799 38.07760
# Shear Modulus (GPa) = 68.29635 17.16185 42.72910
#
# Velocity S-wave (km/s) = 6.49514 3.25591 5.13750
# Velocity P-wave (km/s) = 8.80671 6.31402 7.66241
#
# Compressibility (1/GPa) = 0.02898784
#
# Stress axis : x y z
#
# Youngs Moduli (GPa) = 43.66242 43.65327 127.77042
#
# Poissons Ratio (x) = 0.32432 0.31265
# Poissons Ratio (y) = 0.32439 0.31281
# Poissons Ratio (z) = 0.10684 0.10687
#
# Static dielectric constant tensor:
#      x y z
#    x 1.531140 0.000000 0.000000 
#    y 0.000000 1.531140 0.000000 
#    z 0.000000 0.000000 1.638140 
# 
# From -- ./inp_files/1067.got.cif
#   From: 2010.05.17/outbox.cif.g08.bks.cpg/sg91_1_cif.got.tgz:1067.got - 2010.06.03 19:20:03.
