data_PCOD9547130
_publ_section_title
;
Structure prediction by ZEFSAII (Michael W. Deem and Ramdas Pophale) SiO2 
 PCOD9547130
Probable space group: P 4 21 2
;
_chemical_formula_sum "Si O2"
_cell_formula_units_Z 48
_cell_length_a 11.576500
_cell_length_b 11.576500
_cell_length_c 17.792845
_cell_angle_alpha 90.000000
_cell_angle_beta 90.000000
_cell_angle_gamma 90.000000
_cell_volume 2384.514390
_symmetry_space_group_name_H-M "P 4 21 2"
_symmetry_group_IT_number 90
_symmetry_cell_setting 'tetragonal'
loop_
_space_group_symop_operation_xyz
x,y,z
1/2-y,1/2+x,z
-x,-y,z
1/2+y,1/2-x,z
1/2+x,1/2-y,-z
1/2-x,1/2+y,-z
y,x,-z
-y,-x,-z
loop_
_atom_site_type_symbol
_atom_site_label
_atom_site_fract_x
_atom_site_fract_y
_atom_site_fract_z
Si Si1 0.050060 0.681319 0.533966
Si Si2 0.698521 0.791084 0.124375
Si Si3 0.108631 0.934239 0.357854
Si Si4 0.455829 0.182942 0.647156
Si Si5 0.008629 0.141081 0.803840
Si Si6 0.863159 0.622644 0.034716
O O1 0.137514 0.578261 0.553493
O O2 0.080003 0.793168 0.580717
O O3 0.049650 0.694012 0.443871
O O4 0.603516 0.716652 0.170228
O O5 0.776179 0.700462 0.079706
O O6 0.786227 0.881005 0.165039
O O7 0.634505 0.854635 0.055287
O O8 0.072598 0.809724 0.324726
O O9 0.145801 0.009964 0.286566
O O10 0.000000 0.000000 0.393209
O O11 0.582393 0.134842 0.667951
O O12 0.000000 0.000000 0.823381
O O13 0.842201 0.491473 0.056264
#
# Coordination Sequence:
#
# PCOD9547130 Si02
#       6
#     8   8   8   8   8   8
#     4   9  20  38  60  90 121 157 207 263 325 383
#     4  11  22  41  64  92 131 172 204 271 323 376
#     4  11  25  38  59  89 124 166 213 259 309 390
#     4   9  20  40  64  88 119 159 211 270 322 372
#     4  11  26  43  61  93 132 173 222 256 324 395
#     4  10  20  38  65  97 124 158 217 264 316 380
#
# _framework density 20.129885999999999
#
# number of rings (size 3 to 8) (size 9 to 14) (size 15 to 20)
#    0.000    1.833    1.667    2.500    4.667    3.000 
#    0.000    0.000    0.000    2.000    0.000    0.000 
#    0.000    0.000    0.000    0.000    0.000    0.000 
#
# Total GULP energy -267711.602057 kJ/mol
# GULP energy per Si atom -5577.325043 kJ/mol
# Density = 2.008407 g / cm^3
# Si number density = 20.129886 Si / 1000 Ang^3
#
#
#
# Elastic Constant Matrix: (Units=GPa)
#
#
# Indices 1 2 3 4 5 6 
#
# 1 90.5415 22.0381 4.7151 0.0000 0.0000 0.0000
# 2 22.0381 90.5415 4.7151 0.0000 0.0000 0.0000
# 3 4.7151 4.7151 21.8683 0.0000 0.0000 0.0000
# 4 0.0000 0.0000 0.0000 26.8148 0.0000 0.0000
# 5 0.0000 0.0000 0.0000 0.0000 26.8148 0.0000
# 6 0.0000 0.0000 0.0000 0.0000 0.0000 14.5939
#
#
#
# Elastic Compliance Matrix: (Units=1/GPa)
#
#
# Indices 1 2 3 4 5 6 
#
# 1 0.011822 -0.002776 -0.001950 0.000000 0.000000 0.000000
# 2 -0.002776 0.011822 -0.001950 0.000000 0.000000 0.000000
# 3 -0.001950 -0.001950 0.046569 0.000000 0.000000 0.000000
# 4 0.000000 0.000000 0.000000 0.037293 0.000000 0.000000
# 5 0.000000 0.000000 0.000000 0.000000 0.037293 0.000000
# 6 0.000000 0.000000 0.000000 0.000000 0.000000 0.068522
#
#
# Mechanical properties :
#
#
# Convention : Reuss Voigt Hill
#
# Bulk Modulus (GPa) = 17.58720 29.54311 23.56516
# Shear Modulus (GPa) = 20.35605 25.07690 22.71648
#
# Velocity S-wave (km/s) = 3.18344 3.53335 3.36295
# Velocity P-wave (km/s) = 4.71892 5.59948 5.17796
#
# Compressibility (1/GPa) = 0.05685953
#
# Stress axis : x y z
#
# Youngs Moduli (GPa) = 84.58881 84.58881 21.47338
#
# Poissons Ratio (x) = 0.23481 0.04188
# Poissons Ratio (y) = 0.23481 0.04188
# Poissons Ratio (z) = 0.16498 0.16498
#
# Static dielectric constant tensor:
#      x y z
#    x 1.732170 0.000000 0.000000 
#    y 0.000000 1.732170 0.000000 
#    z 0.000000 0.000000 1.683860 
# 
# From -- ./inp_files/2658.got.cif
#   From: 2010.05.17/outbox.cif.g08.bks.cpg/sg90_2_cif.got.tgz:2658.got - 2010.06.03 19:17:45.
