data_PCOD9547487
_publ_section_title
;
Structure prediction by ZEFSAII (Michael W. Deem and Ramdas Pophale) SiO2 
 PCOD9547487
Probable space group: P 41 2 2
;
_chemical_formula_sum "Si O2"
_cell_formula_units_Z 64
_cell_length_a 11.063253
_cell_length_b 11.063253
_cell_length_c 27.823683
_cell_angle_alpha 90.000000
_cell_angle_beta 90.000000
_cell_angle_gamma 90.000000
_cell_volume 3405.495455
_symmetry_space_group_name_H-M "P 41 2 2"
_symmetry_group_IT_number 91
_symmetry_cell_setting 'tetragonal'
loop_
_space_group_symop_operation_xyz
x,y,z
-y,x,1/4+z
-x,-y,1/2+z
y,-x,3/4+z
x,-y,1/2-z
-x,y,-z
y,x,3/4-z
-y,-x,1/4-z
loop_
_atom_site_type_symbol
_atom_site_label
_atom_site_fract_x
_atom_site_fract_y
_atom_site_fract_z
Si Si1 0.033989 0.230502 0.889107
Si Si2 0.910044 0.204812 0.567111
Si Si3 0.414454 0.927546 0.116294
Si Si4 0.936468 0.551786 0.450059
Si Si5 0.925665 0.892349 0.210911
Si Si6 0.301580 0.169742 0.217704
Si Si7 0.633407 0.129469 0.438056
Si Si8 0.060911 0.622368 0.770672
O O1 0.928315 0.170273 0.920597
O O2 0.970722 0.298015 0.844717
O O3 0.102391 0.329093 0.921947
O O4 0.124825 0.124825 0.875000
O O5 0.886441 0.285245 0.614400
O O6 0.835326 0.264302 0.523435
O O7 0.051217 0.235320 0.554870
O O8 0.892670 0.060862 0.562192
O O9 0.505293 0.842833 0.086674
O O10 0.396536 0.034441 0.077222
O O11 0.486958 0.970217 0.163393
O O12 0.843600 0.444483 0.461259
O O13 0.000000 0.584830 0.500000
O O14 0.894405 0.760822 0.232889
O O15 0.925727 0.000000 0.250000
O O16 0.246298 0.285583 0.193004
O O17 0.624281 0.062953 0.489386
O O18 0.124354 0.500000 0.750000
#
# Coordination Sequence:
#
# PCOD9547487 Si02
#       8
#     8   8   8   8   8   8   8   8
#     4  11  24  34  53  85 126 157 198 245 311 375
#     4  10  17  31  52  82 110 143 196 237 293 367
#     4   9  20  33  52  80 111 150 199 243 293 369
#     4  10  19  36  56  81 114 157 205 249 297 363
#     4  12  22  35  56  88 127 159 192 254 322 364
#     4  10  16  32  57  76 109 147 196 239 292 348
#     4  10  20  37  51  78 118 153 193 248 299 352
#     4  10  21  36  53  78 121 164 199 238 310 374
#
# _framework density 18.793153
#
# number of rings (size 3 to 8) (size 9 to 14) (size 15 to 20)
#    0.000    1.750    5.000    1.875    5.250    0.000 
#    0.000    0.000    0.000    0.000    6.500    0.000 
#    0.000    1.250    0.000    0.000    0.000    0.000 
#
# Total GULP energy -356727.142379 kJ/mol
# GULP energy per Si atom -5573.861600 kJ/mol
# Density = 1.875038 g / cm^3
# Si number density = 18.793153 Si / 1000 Ang^3
#
#
#
# Elastic Constant Matrix: (Units=GPa)
#
#
# Indices 1 2 3 4 5 6 
#
# 1 72.8706 0.8716 15.2536 0.0000 0.0000 0.0000
# 2 0.8716 72.8706 15.2536 0.0000 0.0000 0.0000
# 3 15.2536 15.2536 79.5702 0.0000 0.0000 0.0000
# 4 0.0000 0.0000 0.0000 25.2127 0.0000 0.0000
# 5 0.0000 0.0000 0.0000 0.0000 25.2127 0.0000
# 6 0.0000 0.0000 0.0000 0.0000 0.0000 5.5742
#
#
#
# Elastic Compliance Matrix: (Units=1/GPa)
#
#
# Indices 1 2 3 4 5 6 
#
# 1 0.014309 0.000420 -0.002824 0.000000 0.000000 0.000000
# 2 0.000420 0.014309 -0.002824 0.000000 0.000000 0.000000
# 3 -0.002824 -0.002824 0.013650 0.000000 0.000000 0.000000
# 4 0.000000 0.000000 0.000000 0.039663 0.000000 0.000000
# 5 0.000000 0.000000 0.000000 0.000000 0.039663 0.000000
# 6 0.000000 0.000000 0.000000 0.000000 0.000000 0.179396
#
#
# Mechanical properties :
#
#
# Convention : Reuss Voigt Hill
#
# Bulk Modulus (GPa) = 31.43303 32.00767 31.72035
# Shear Modulus (GPa) = 15.52562 24.12877 19.82720
#
# Velocity S-wave (km/s) = 2.87737 3.58706 3.25163
# Velocity P-wave (km/s) = 5.27267 5.85017 5.56892
#
# Compressibility (1/GPa) = 0.03181367
#
# Stress axis : x y z
#
# Youngs Moduli (GPa) = 69.88623 69.88623 73.25976
#
# Poissons Ratio (x) = -0.02934 0.20685
# Poissons Ratio (y) = -0.02934 0.20685
# Poissons Ratio (z) = 0.19733 0.19733
#
# Static dielectric constant tensor:
#      x y z
#    x 1.669970 0.000000 0.000000 
#    y 0.000000 1.669970 0.000000 
#    z 0.000000 0.000000 1.712680 
# 
# From -- ./inp_files/17887.got.cif
#   From: 2010.05.17/outbox.cif.g08.bks.cpg/sg91_9_cif.got.tgz:17887.got - 2010.06.03 19:20:03.
