data_PCOD9547826
_publ_section_title
;
Structure prediction by ZEFSAII (Michael W. Deem and Ramdas Pophale) SiO2 
 PCOD9547826
Probable space group: P 41 2 2
;
_chemical_formula_sum "Si O2"
_cell_formula_units_Z 48
_cell_length_a 14.840599
_cell_length_b 14.840599
_cell_length_c 14.020960
_cell_angle_alpha 90.000000
_cell_angle_beta 90.000000
_cell_angle_gamma 90.000000
_cell_volume 3088.023603
_symmetry_space_group_name_H-M "P 41 2 2"
_symmetry_group_IT_number 91
_symmetry_cell_setting 'tetragonal'
loop_
_space_group_symop_operation_xyz
x,y,z
-y,x,1/4+z
-x,-y,1/2+z
y,-x,3/4+z
x,-y,1/2-z
-x,y,-z
y,x,3/4-z
-y,-x,1/4-z
loop_
_atom_site_type_symbol
_atom_site_label
_atom_site_fract_x
_atom_site_fract_y
_atom_site_fract_z
Si Si1 0.099490 0.406030 0.207495
Si Si2 0.787406 0.835264 0.983980
Si Si3 0.883983 0.403078 0.210292
Si Si4 0.774343 0.169454 0.929840
Si Si5 0.893875 0.663556 0.501749
Si Si6 0.001441 0.904571 0.787841
O O1 0.132367 0.500000 0.250000
O O2 0.142021 0.317498 0.254674
O O3 0.115633 0.400003 0.094130
O O4 0.992161 0.399750 0.224339
O O5 0.808423 0.808423 0.875000
O O6 0.846225 0.924051 0.014930
O O7 0.812720 0.764713 0.066619
O O8 0.853144 0.500000 0.250000
O O9 0.841848 0.320601 0.268560
O O10 0.869980 0.384370 0.097698
O O11 0.833711 0.079349 0.942897
O O12 0.831693 0.250205 0.977259
O O13 0.000000 0.690548 0.500000
O O14 0.039660 0.000000 0.750000
O O15 0.943548 0.943548 0.875000
#
# Coordination Sequence:
#
# PCOD9547826 Si02
#       6
#     8   8   8   8   8   8
#     4   9  18  34  51  68  98 135 175 215 253 303
#     4  10  21  33  46  71 102 133 176 210 251 305
#     4  10  20  34  50  71  98 132 177 216 260 306
#     4  11  20  33  50  71 101 137 173 215 254 302
#     4   9  19  33  50  74 100 129 172 214 257 309
#     4  11  20  30  44  67 101 139 176 203 245 289
#
# _framework density 15.543922999999999
#
# number of rings (size 3 to 8) (size 9 to 14) (size 15 to 20)
#    0.000    2.000    3.333    1.000    0.000    2.667 
#    0.000    1.667    0.000    0.000    0.000    0.000 
#    0.000   37.333    0.000    0.000    0.000    0.000 
#
# Total GULP energy -267243.584319 kJ/mol
# GULP energy per Si atom -5567.574673 kJ/mol
# Density = 1.550854 g / cm^3
# Si number density = 15.543923 Si / 1000 Ang^3
#
#
#
# Elastic Constant Matrix: (Units=GPa)
#
#
# Indices 1 2 3 4 5 6 
#
# 1 97.0025 32.9832 56.0498 0.0000 0.0000 0.0000
# 2 32.9832 97.0025 56.0498 0.0000 0.0000 0.0000
# 3 56.0498 56.0498 123.8248 0.0000 0.0000 0.0000
# 4 0.0000 0.0000 0.0000 17.8420 0.0000 0.0000
# 5 0.0000 0.0000 0.0000 0.0000 17.8420 0.0000
# 6 0.0000 0.0000 0.0000 0.0000 0.0000 11.8787
#
#
#
# Elastic Compliance Matrix: (Units=1/GPa)
#
#
# Indices 1 2 3 4 5 6 
#
# 1 0.014120 -0.001500 -0.005712 0.000000 0.000000 0.000000
# 2 -0.001500 0.014120 -0.005712 0.000000 0.000000 0.000000
# 3 -0.005712 -0.005712 0.013247 0.000000 0.000000 0.000000
# 4 0.000000 0.000000 0.000000 0.056048 0.000000 0.000000
# 5 0.000000 0.000000 0.000000 0.000000 0.056048 0.000000
# 6 0.000000 0.000000 0.000000 0.000000 0.000000 0.084184
#
#
# Mechanical properties :
#
#
# Convention : Reuss Voigt Hill
#
# Bulk Modulus (GPa) = 63.95034 67.55502 65.75268
# Shear Modulus (GPa) = 18.59924 21.02901 19.81413
#
# Velocity S-wave (km/s) = 3.46289 3.68214 3.57419
# Velocity P-wave (km/s) = 7.56438 7.85064 7.70884
#
# Compressibility (1/GPa) = 0.01563713
#
# Stress axis : x y z
#
# Youngs Moduli (GPa) = 70.82244 70.82244 75.48746
#
# Poissons Ratio (x) = 0.10627 0.43120
# Poissons Ratio (y) = 0.10627 0.43120
# Poissons Ratio (z) = 0.40455 0.40455
#
# Static dielectric constant tensor:
#      x y z
#    x 1.510380 0.000000 0.000000 
#    y 0.000000 1.510380 0.000000 
#    z 0.000000 0.000000 1.567070 
# 
# From -- ./inp_files/4906.got.cif
#   From: 2010.05.17/outbox.cif.g08.bks.cpg/sg91_3_cif.got.tgz:4906.got - 2010.06.03 19:20:03.
