data_PCOD9547124
_publ_section_title
;
Structure prediction by ZEFSAII (Michael W. Deem and Ramdas Pophale) SiO2 
 PCOD9547124
Probable space group: P 4 21 2
;
_chemical_formula_sum "Si O2"
_cell_formula_units_Z 52
_cell_length_a 16.577061
_cell_length_b 16.577061
_cell_length_c 8.756086
_cell_angle_alpha 90.000000
_cell_angle_beta 90.000000
_cell_angle_gamma 90.000000
_cell_volume 2406.163251
_symmetry_space_group_name_H-M "P 4 21 2"
_symmetry_group_IT_number 90
_symmetry_cell_setting 'tetragonal'
loop_
_space_group_symop_operation_xyz
x,y,z
1/2-y,1/2+x,z
-x,-y,z
1/2+y,1/2-x,z
1/2+x,1/2-y,-z
1/2-x,1/2+y,-z
y,x,-z
-y,-x,-z
loop_
_atom_site_type_symbol
_atom_site_label
_atom_site_fract_x
_atom_site_fract_y
_atom_site_fract_z
Si Si1 0.881891 0.438394 0.396507
Si Si2 0.699006 0.002512 0.312606
Si Si3 0.672033 0.373676 0.665000
Si Si4 0.994112 0.368367 0.018426
Si Si5 0.732479 0.732479 0.000000
Si Si6 0.099416 0.254580 0.155025
Si Si7 0.681638 0.744663 0.341421
O O1 0.895929 0.533513 0.360486
O O2 0.853771 0.450296 0.569719
O O3 0.809622 0.395223 0.307767
O O4 0.784564 0.956969 0.296276
O O5 0.648913 0.007497 0.159021
O O6 0.717881 0.093340 0.361116
O O7 0.629785 0.370216 0.500000
O O8 0.612641 0.336568 0.791810
O O9 0.746373 0.310040 0.661430
O O10 0.074074 0.420209 0.056923
O O11 0.012350 0.281820 0.092767
O O12 0.828327 0.723385 0.038274
O O13 0.688982 0.711619 0.163034
O O14 0.695322 0.695322 0.500000
#
# Coordination Sequence:
#
# PCOD9547124 Si02
#       7
#     8   8   8   8   4   8   8
#     4  11  23  35  56  95 139 178 210 254 331 427
#     4  12  22  38  63  93 128 176 219 277 346 399
#     4  10  20  38  58  89 122 166 225 280 324 402
#     4  11  22  36  56  91 140 179 209 255 331 421
#     4  10  22  40  64  92 124 177 243 288 324 390
#     4  11  21  38  58  84 130 176 222 277 319 390
#     4  10  23  42  69  96 131 177 232 288 344 406
#
# _framework density 21.611167999999999
#
# number of rings (size 3 to 8) (size 9 to 14) (size 15 to 20)
#    0.000    1.231    1.538    6.462    4.308    2.462 
#    0.000    0.000    0.000    0.462    0.000    0.000 
#    0.000    0.000    0.000    0.000    0.000    0.000 
#
# Total GULP energy -290047.976786 kJ/mol
# GULP energy per Si atom -5577.845707 kJ/mol
# Density = 2.156198 g / cm^3
# Si number density = 21.611168 Si / 1000 Ang^3
#
#
#
# Elastic Constant Matrix: (Units=GPa)
#
#
# Indices 1 2 3 4 5 6 
#
# 1 42.0060 29.0236 22.7561 0.0000 0.0000 0.0000
# 2 29.0236 42.0057 22.7559 0.0000 0.0000 0.0000
# 3 22.7561 22.7559 111.1556 0.0000 0.0000 0.0000
# 4 0.0000 0.0000 0.0000 35.4553 0.0000 0.0000
# 5 0.0000 0.0000 0.0000 0.0000 35.4552 0.0000
# 6 0.0000 0.0000 0.0000 0.0000 0.0000 44.9833
#
#
#
# Elastic Compliance Matrix: (Units=1/GPa)
#
#
# Indices 1 2 3 4 5 6 
#
# 1 0.046616 -0.030412 -0.003317 0.000000 0.000000 0.000000
# 2 -0.030412 0.046616 -0.003317 0.000000 0.000000 0.000000
# 3 -0.003317 -0.003317 0.010355 0.000000 0.000000 0.000000
# 4 0.000000 0.000000 0.000000 0.028205 0.000000 0.000000
# 5 0.000000 0.000000 0.000000 0.000000 0.028205 0.000000
# 6 0.000000 0.000000 0.000000 0.000000 0.000000 0.022230
#
#
# Mechanical properties :
#
#
# Convention : Reuss Voigt Hill
#
# Bulk Modulus (GPa) = 33.90549 38.24869 36.07709
# Shear Modulus (GPa) = 18.78633 31.22087 25.00360
#
# Velocity S-wave (km/s) = 2.95157 3.80500 3.40513
# Velocity P-wave (km/s) = 5.22863 6.08613 5.67361
#
# Compressibility (1/GPa) = 0.02949375
#
# Stress axis : x y z
#
# Youngs Moduli (GPa) = 21.45186 21.45176 96.57478
#
# Poissons Ratio (x) = 0.65239 0.32038
# Poissons Ratio (y) = 0.65239 0.32037
# Poissons Ratio (z) = 0.07116 0.07116
#
# Static dielectric constant tensor:
#      x y z
#    x 1.788190 0.000000 0.000000 
#    y 0.000000 1.788190 0.000000 
#    z 0.000000 0.000000 1.933860 
# 
# From -- ./inp_files/1579.got.cif
#   From: 2010.05.17/outbox.cif.g08.bks.cpg/sg90_1_cif.got.tgz:1579.got - 2010.06.03 19:17:45.
