data_PCOD9547766
_publ_section_title
;
Structure prediction by ZEFSAII (Michael W. Deem and Ramdas Pophale) SiO2 
 PCOD9547766
Probable space group: P 41 2 2
;
_chemical_formula_sum "Si O2"
_cell_formula_units_Z 48
_cell_length_a 11.590885
_cell_length_b 11.590885
_cell_length_c 15.984360
_cell_angle_alpha 90.000000
_cell_angle_beta 90.000000
_cell_angle_gamma 90.000000
_cell_volume 2147.476629
_symmetry_space_group_name_H-M "P 41 2 2"
_symmetry_group_IT_number 91
_symmetry_cell_setting 'tetragonal'
loop_
_space_group_symop_operation_xyz
x,y,z
-y,x,1/4+z
-x,-y,1/2+z
y,-x,3/4+z
x,-y,1/2-z
-x,y,-z
y,x,3/4-z
-y,-x,1/4-z
loop_
_atom_site_type_symbol
_atom_site_label
_atom_site_fract_x
_atom_site_fract_y
_atom_site_fract_z
Si Si1 0.790666 0.209335 0.625000
Si Si2 0.500000 0.276602 0.000000
Si Si3 0.910546 0.401003 0.370420
Si Si4 0.681092 0.318909 0.125000
Si Si5 0.922577 0.922577 0.375000
Si Si6 0.835078 0.022113 0.954579
Si Si7 0.589847 0.869376 0.255844
Si Si8 0.476580 0.163047 0.405523
O O1 0.881135 0.167494 0.698262
O O2 0.805221 0.347699 0.624714
O O3 0.427469 0.194370 0.060077
O O4 0.587894 0.344579 0.054928
O O5 0.879933 0.457956 0.458940
O O6 0.940713 0.268501 0.356280
O O7 0.023480 0.472066 0.342197
O O8 0.800361 0.340241 0.076365
O O9 0.930642 0.829781 0.299657
O O10 0.048230 0.924913 0.418368
O O11 0.573761 0.811490 0.164821
O O12 0.635845 0.000000 0.250000
O O13 0.500000 0.205552 0.500000
#
# Coordination Sequence:
#
# PCOD9547766 Si02
#       8
#     4   4   8   4   4   8   8   8
#     4   9  20  34  57  89 121 178 218 274 345 400
#     4  10  20  40  66  92 124 172 220 268 336 402
#     4   9  18  35  63  89 123 169 217 272 323 387
#     4  10  22  43  67  99 139 174 226 272 346 415
#     4   9  18  31  50  86 140 176 216 262 321 409
#     4   9  18  32  54  85 131 178 220 264 330 399
#     4   9  20  39  69  98 130 170 226 280 343 401
#     4  10  19  37  61  94 130 159 223 289 330 401
#
# _framework density 22.351815999999999
#
# number of rings (size 3 to 8) (size 9 to 14) (size 15 to 20)
#    0.000    2.667    0.833    0.000    2.333    0.667 
#    6.000    0.833    3.667    0.000    0.000    0.000 
#    0.000    0.000    0.000    0.000    0.000    0.000 
#
# Total GULP energy -267460.738410 kJ/mol
# GULP energy per Si atom -5572.098717 kJ/mol
# Density = 2.230094 g / cm^3
# Si number density = 22.351816 Si / 1000 Ang^3
#
#
#
# Elastic Constant Matrix: (Units=GPa)
#
#
# Indices 1 2 3 4 5 6 
#
# 1 53.8610 28.7963 36.5974 0.0000 0.0000 0.0000
# 2 28.7963 53.8610 36.5974 0.0000 0.0000 0.0000
# 3 36.5974 36.5974 134.5453 0.0000 0.0000 0.0000
# 4 0.0000 0.0000 0.0000 25.0952 0.0000 0.0000
# 5 0.0000 0.0000 0.0000 0.0000 25.0956 0.0000
# 6 0.0000 0.0000 0.0000 0.0000 0.0000 5.8542
#
#
#
# Elastic Compliance Matrix: (Units=1/GPa)
#
#
# Indices 1 2 3 4 5 6 
#
# 1 0.027917 -0.011980 -0.004335 0.000000 0.000000 0.000000
# 2 -0.011980 0.027917 -0.004335 0.000000 0.000000 0.000000
# 3 -0.004335 -0.004335 0.009791 0.000000 0.000000 0.000000
# 4 0.000000 0.000000 0.000000 0.039848 0.000000 0.000000
# 5 0.000000 0.000000 0.000000 0.000000 0.039848 0.000000
# 6 0.000000 0.000000 0.000000 0.000000 0.000000 0.170817
#
#
# Mechanical properties :
#
#
# Convention : Reuss Voigt Hill
#
# Bulk Modulus (GPa) = 41.11062 49.58326 45.34694
# Shear Modulus (GPa) = 13.67821 20.56075 17.11948
#
# Velocity S-wave (km/s) = 2.47645 3.03623 2.77051
# Velocity P-wave (km/s) = 5.15844 5.87561 5.52867
#
# Compressibility (1/GPa) = 0.02432462
#
# Stress axis : x y z
#
# Youngs Moduli (GPa) = 35.82074 35.82076 102.13750
#
# Poissons Ratio (x) = 0.42913 0.44276
# Poissons Ratio (y) = 0.42913 0.44276
# Poissons Ratio (z) = 0.15528 0.15528
#
# Static dielectric constant tensor:
#      x y z
#    x 1.867890 0.000000 0.000000 
#    y 0.000000 1.867890 0.000000 
#    z 0.000000 0.000000 1.842980 
# 
# From -- ./inp_files/5683.got.cif
#   From: 2010.05.17/outbox.cif.g08.bks.cpg/sg91_3_cif.got.tgz:5683.got - 2010.06.03 19:20:03.
