data_PCOD9547119
_publ_section_title
;
Structure prediction by ZEFSAII (Michael W. Deem and Ramdas Pophale) SiO2 
 PCOD9547119
Probable space group: P 4 21 2
;
_chemical_formula_sum "Si O2"
_cell_formula_units_Z 50
_cell_length_a 12.044600
_cell_length_b 12.044600
_cell_length_c 17.828773
_cell_angle_alpha 90.000000
_cell_angle_beta 90.000000
_cell_angle_gamma 90.000000
_cell_volume 2586.462695
_symmetry_space_group_name_H-M "P 4 21 2"
_symmetry_group_IT_number 90
_symmetry_cell_setting 'tetragonal'
loop_
_space_group_symop_operation_xyz
x,y,z
1/2-y,1/2+x,z
-x,-y,z
1/2+y,1/2-x,z
1/2+x,1/2-y,-z
1/2-x,1/2+y,-z
y,x,-z
-y,-x,-z
loop_
_atom_site_type_symbol
_atom_site_label
_atom_site_fract_x
_atom_site_fract_y
_atom_site_fract_z
Si Si1 0.823074 0.539063 0.868357
Si Si2 0.676463 0.042904 0.950431
Si Si3 0.134293 0.622982 0.542545
Si Si4 0.005881 0.757145 0.278902
Si Si5 0.210565 0.700702 0.379827
Si Si6 0.397891 0.426782 0.142184
Si Si7 0.500000 0.000000 0.769496
O O1 0.917901 0.628709 0.846737
O O2 0.699689 0.565962 0.841791
O O3 0.817013 0.542262 0.959384
O O4 0.629082 0.921247 0.928384
O O5 0.793644 0.071745 0.914580
O O6 0.151350 0.493446 0.557233
O O7 0.159560 0.645448 0.454839
O O8 0.213374 0.698361 0.592231
O O9 0.894896 0.761552 0.327894
O O10 0.016623 0.852136 0.217498
O O11 0.008191 0.636829 0.238746
O O12 0.111341 0.757759 0.334167
O O13 0.500000 0.500000 0.112376
#
# Coordination Sequence:
#
# PCOD9547119 Si02
#       7
#     8   8   8   8   8   8   2
#     4   9  21  44  66  88 123 168 213 261 317 376
#     4   9  21  40  66  94 122 159 211 270 323 372
#     4  10  20  36  64  92 116 153 207 252 301 367
#     4  10  22  38  61  88 126 163 203 257 313 370
#     4  10  20  38  61  88 122 160 198 253 313 363
#     4  12  27  38  60  95 129 167 211 260 310 384
#     4   8  20  36  64  88 108 164 212 256 306 360
#
# _framework density 19.331422
#
# number of rings (size 3 to 8) (size 9 to 14) (size 15 to 20)
#    0.000    2.080    1.600    1.440    6.720    2.560 
#    0.000    0.000    0.000    1.920    0.000    0.000 
#    0.000    0.000    0.000    0.000    0.000    0.000 
#
# Total GULP energy -278823.695582 kJ/mol
# GULP energy per Si atom -5576.473912 kJ/mol
# Density = 1.928742 g / cm^3
# Si number density = 19.331422 Si / 1000 Ang^3
#
#
#
# Elastic Constant Matrix: (Units=GPa)
#
#
# Indices 1 2 3 4 5 6 
#
# 1 66.8947 38.6252 -11.1769 0.0000 0.0000 0.0000
# 2 38.6252 66.8947 -11.1769 0.0000 0.0000 0.0000
# 3 -11.1769 -11.1769 21.0824 0.0000 0.0000 0.0000
# 4 0.0000 0.0000 0.0000 14.5628 0.0000 0.0000
# 5 0.0000 0.0000 0.0000 0.0000 14.5628 0.0000
# 6 0.0000 0.0000 0.0000 0.0000 0.0000 5.1502
#
#
#
# Elastic Compliance Matrix: (Units=1/GPa)
#
#
# Indices 1 2 3 4 5 6 
#
# 1 0.023025 -0.012349 0.005660 0.000000 0.000000 0.000000
# 2 -0.012349 0.023025 0.005660 0.000000 0.000000 0.000000
# 3 0.005660 0.005660 0.053434 0.000000 0.000000 0.000000
# 4 0.000000 0.000000 0.000000 0.068668 0.000000 0.000000
# 5 0.000000 0.000000 0.000000 0.000000 0.068668 0.000000
# 6 0.000000 0.000000 0.000000 0.000000 0.000000 0.194167
#
#
# Mechanical properties :
#
#
# Convention : Reuss Voigt Hill
#
# Bulk Modulus (GPa) = 10.26426 20.82384 15.54405
# Shear Modulus (GPa) = 10.74064 16.09516 13.41790
#
# Velocity S-wave (km/s) = 2.35969 2.88859 2.63743
# Velocity P-wave (km/s) = 3.57006 4.68196 4.16329
#
# Compressibility (1/GPa) = 0.09742542
#
# Stress axis : x y z
#
# Youngs Moduli (GPa) = 43.43127 43.43127 18.71460
#
# Poissons Ratio (x) = 0.53633 -0.10592
# Poissons Ratio (y) = 0.53633 -0.10592
# Poissons Ratio (z) = -0.24581 -0.24581
#
# Static dielectric constant tensor:
#      x y z
#    x 1.656060 0.000000 0.000000 
#    y 0.000000 1.656060 0.000000 
#    z 0.000000 0.000000 1.697320 
# 
# From -- ./inp_files/2806.got.cif
#   From: 2010.05.17/outbox.cif.g08.bks.cpg/sg90_2_cif.got.tgz:2806.got - 2010.06.03 19:17:45.
