data_PCOD9547515
_publ_section_title
;
Structure prediction by ZEFSAII (Michael W. Deem and Ramdas Pophale) SiO2 
 PCOD9547515
Probable space group: P 41 2 2
;
_chemical_formula_sum "Si O2"
_cell_formula_units_Z 56
_cell_length_a 13.879055
_cell_length_b 13.879055
_cell_length_c 17.146312
_cell_angle_alpha 90.000000
_cell_angle_beta 90.000000
_cell_angle_gamma 90.000000
_cell_volume 3302.862663
_symmetry_space_group_name_H-M "P 41 2 2"
_symmetry_group_IT_number 91
_symmetry_cell_setting 'tetragonal'
loop_
_space_group_symop_operation_xyz
x,y,z
-y,x,1/4+z
-x,-y,1/2+z
y,-x,3/4+z
x,-y,1/2-z
-x,y,-z
y,x,3/4-z
-y,-x,1/4-z
loop_
_atom_site_type_symbol
_atom_site_label
_atom_site_fract_x
_atom_site_fract_y
_atom_site_fract_z
Si Si1 0.408541 0.741655 0.302436
Si Si2 0.235264 0.462176 0.092744
Si Si3 0.978764 0.608441 0.586232
Si Si4 0.409412 0.548087 0.833542
Si Si5 0.355165 0.743948 0.052145
Si Si6 0.951312 0.613209 0.081930
Si Si7 0.955390 0.618557 0.753753
O O1 0.471120 0.781644 0.231888
O O2 0.472861 0.683074 0.363219
O O3 0.335587 0.665868 0.263126
O O4 0.361891 0.838322 0.335035
O O5 0.136846 0.403732 0.097736
O O6 0.336583 0.411379 0.077382
O O7 0.252507 0.536902 0.163330
O O8 0.005080 0.650320 0.672136
O O9 0.000000 0.652278 0.500000
O O10 0.029076 0.502745 0.582541
O O11 0.403191 0.500000 0.750000
O O12 0.504715 0.504715 0.875000
O O13 0.286400 0.713601 0.125000
O O14 0.340393 0.847831 0.014547
O O15 0.996010 0.645843 0.164020
O O16 0.000000 0.647374 0.000000
O O17 0.951876 0.500000 0.750000
#
# Coordination Sequence:
#
# PCOD9547515 Si02
#       7
#     8   8   8   8   8   8   8
#     4  11  21  32  49  68  97 133 170 212 259 294
#     4  11  19  34  49  69  91 127 180 216 250 296
#     4  10  18  31  52  69  92 121 173 225 263 304
#     4  12  25  36  45  63  97 142 183 211 240 294
#     4  10  19  30  50  74  96 125 163 217 266 307
#     4  10  17  32  49  71  95 121 162 212 271 314
#     4  10  18  30  51  74  94 129 175 206 262 326
#
# _framework density 16.954988
#
# number of rings (size 3 to 8) (size 9 to 14) (size 15 to 20)
#    0.000    1.429    7.143    3.000    0.000    1.714 
#    0.000    0.000    0.000    0.000    0.000    0.000 
#    0.000    0.000    0.000   30.857    0.000    0.143 
#
# Total GULP energy -311746.202680 kJ/mol
# GULP energy per Si atom -5566.896476 kJ/mol
# Density = 1.691640 g / cm^3
# Si number density = 16.954988 Si / 1000 Ang^3
#
#
#
# Elastic Constant Matrix: (Units=GPa)
#
#
# Indices 1 2 3 4 5 6 
#
# 1 31.7376 13.5490 23.5631 0.0000 0.0000 0.0000
# 2 13.5490 31.7376 23.5631 0.0000 0.0000 0.0000
# 3 23.5631 23.5631 156.9657 0.0000 0.0000 0.0000
# 4 0.0000 0.0000 0.0000 4.9041 0.0000 0.0000
# 5 0.0000 0.0000 0.0000 0.0000 4.9043 0.0000
# 6 0.0000 0.0000 0.0000 0.0000 0.0000 2.0003
#
#
#
# Elastic Compliance Matrix: (Units=1/GPa)
#
#
# Indices 1 2 3 4 5 6 
#
# 1 0.040574 -0.014405 -0.003928 0.000000 0.000000 0.000000
# 2 -0.014405 0.040575 -0.003929 0.000000 0.000000 0.000000
# 3 -0.003928 -0.003929 0.007550 0.000000 0.000000 0.000000
# 4 0.000000 0.000000 0.000000 0.203911 0.000000 0.000000
# 5 0.000000 0.000000 0.000000 0.000000 0.203903 0.000000
# 6 0.000000 0.000000 0.000000 0.000000 0.000000 0.499932
#
#
# Mechanical properties :
#
#
# Convention : Reuss Voigt Hill
#
# Bulk Modulus (GPa) = 22.63689 37.97681 30.30685
# Shear Modulus (GPa) = 4.73622 13.01278 8.87450
#
# Velocity S-wave (km/s) = 1.67316 2.77337 2.29031
# Velocity P-wave (km/s) = 4.13676 5.71862 4.99076
#
# Compressibility (1/GPa) = 0.04417568
#
# Stress axis : x y z
#
# Youngs Moduli (GPa) = 24.64602 24.64596 132.44532
#
# Poissons Ratio (x) = 0.35502 0.52031
# Poissons Ratio (y) = 0.35502 0.52031
# Poissons Ratio (z) = 0.09682 0.09682
#
# Static dielectric constant tensor:
#      x y z
#    x 1.591780 0.000000 0.000000 
#    y 0.000000 1.591780 0.000000 
#    z 0.000000 0.000000 1.669990 
# 
# From -- ./inp_files/5704.got.cif
#   From: 2010.05.17/outbox.cif.g08.bks.cpg/sg91_3_cif.got.tgz:5704.got - 2010.06.03 19:20:03.
