data_PCOD9547685
_publ_section_title
;
Structure prediction by ZEFSAII (Michael W. Deem and Ramdas Pophale) SiO2 
 PCOD9547685
Probable space group: P 41 2 2
;
_chemical_formula_sum "Si O2"
_cell_formula_units_Z 40
_cell_length_a 21.725845
_cell_length_b 21.725845
_cell_length_c 5.057182
_cell_angle_alpha 90.000000
_cell_angle_beta 90.000000
_cell_angle_gamma 90.000000
_cell_volume 2387.052315
_symmetry_space_group_name_H-M "P 41 2 2"
_symmetry_group_IT_number 91
_symmetry_cell_setting 'tetragonal'
loop_
_space_group_symop_operation_xyz
x,y,z
-y,x,1/4+z
-x,-y,1/2+z
y,-x,3/4+z
x,-y,1/2-z
-x,y,-z
y,x,3/4-z
-y,-x,1/4-z
loop_
_atom_site_type_symbol
_atom_site_label
_atom_site_fract_x
_atom_site_fract_y
_atom_site_fract_z
Si Si1 0.561499 0.776657 0.401912
Si Si2 0.735149 0.677266 0.634694
Si Si3 0.654475 0.154237 0.714654
Si Si4 0.959154 0.340513 0.240699
Si Si5 0.556787 0.093005 0.340219
O O1 0.500000 0.743857 0.500000
O O2 0.606512 0.740103 0.207713
O O3 0.607726 0.801033 0.628773
O O4 0.537701 0.839596 0.264219
O O5 0.716544 0.716544 0.375000
O O6 0.801676 0.692295 0.768719
O O7 0.688547 0.688547 0.875000
O O8 0.685220 0.108471 0.928528
O O9 0.612858 0.109543 0.535250
O O10 0.000000 0.337102 0.500000
O O11 0.943779 0.410884 0.147047
O O12 0.000000 0.313810 0.000000
O O13 0.500000 0.065414 0.500000
#
# Coordination Sequence:
#
# PCOD9547685 Si02
#       5
#     8   8   8   8   8
#     4  10  19  32  55  74  96 129 162 193 250 311
#     4  11  22  36  53  75  98 126 160 202 254 314
#     4  10  20  36  50  69  95 127 162 203 248 298
#     4  11  22  36  46  65  92 129 171 208 243 286
#     4  10  19  32  48  65  92 125 169 203 242 285
#
# _framework density 16.757069000000001
#
# number of rings (size 3 to 8) (size 9 to 14) (size 15 to 20)
#    0.000    1.600    6.000    0.000    0.000    0.000 
#    3.600    0.000    0.000    0.000    0.000    0.000 
#    0.000    0.000    6.800    1.200    0.000    0.000 
#
# Total GULP energy -222795.493215 kJ/mol
# GULP energy per Si atom -5569.887330 kJ/mol
# Density = 1.671893 g / cm^3
# Si number density = 16.757069 Si / 1000 Ang^3
#
#
#
# Elastic Constant Matrix: (Units=GPa)
#
#
# Indices 1 2 3 4 5 6 
#
# 1 43.9925 33.9340 33.5117 0.0000 0.0000 0.0000
# 2 33.9340 43.9925 33.5117 0.0000 0.0000 0.0000
# 3 33.5117 33.5117 124.7537 0.0000 0.0000 0.0000
# 4 0.0000 0.0000 0.0000 27.0004 0.0000 0.0000
# 5 0.0000 0.0000 0.0000 0.0000 27.0004 0.0000
# 6 0.0000 0.0000 0.0000 0.0000 0.0000 0.2160
#
#
#
# Elastic Compliance Matrix: (Units=1/GPa)
#
#
# Indices 1 2 3 4 5 6 
#
# 1 0.058053 -0.041365 -0.004483 0.000000 0.000000 0.000000
# 2 -0.041365 0.058053 -0.004483 0.000000 0.000000 0.000000
# 3 -0.004483 -0.004483 0.010424 0.000000 0.000000 0.000000
# 4 0.000000 0.000000 0.000000 0.037037 0.000000 0.000000
# 5 0.000000 0.000000 0.000000 0.000000 0.037037 0.000000
# 6 0.000000 0.000000 0.000000 0.000000 0.000000 4.630433
#
#
# Mechanical properties :
#
#
# Convention : Reuss Voigt Hill
#
# Bulk Modulus (GPa) = 38.65591 46.07263 42.36427
# Shear Modulus (GPa) = 1.01208 18.29542 9.65375
#
# Velocity S-wave (km/s) = 0.77800 3.30783 2.40281
# Velocity P-wave (km/s) = 4.89137 6.49177 5.74755
#
# Compressibility (1/GPa) = 0.02586927
#
# Stress axis : x y z
#
# Youngs Moduli (GPa) = 17.22551 17.22551 95.93081
#
# Poissons Ratio (x) = 0.71254 0.43004
# Poissons Ratio (y) = 0.71254 0.43004
# Poissons Ratio (z) = 0.07722 0.07722
#
# Static dielectric constant tensor:
#      x y z
#    x 1.614080 0.000000 0.000000 
#    y 0.000000 1.614080 0.000000 
#    z 0.000000 0.000000 1.715480 
# 
# From -- ./inp_files/1064.got.cif
#   From: 2010.05.17/outbox.cif.g08.bks.cpg/sg91_1_cif.got.tgz:1064.got - 2010.06.03 19:20:03.
