data_PCOD9547597
_publ_section_title
;
Structure prediction by ZEFSAII (Michael W. Deem and Ramdas Pophale) SiO2 
 PCOD9547597
Probable space group: P 41 2 2
;
_chemical_formula_sum "Si O2"
_cell_formula_units_Z 44
_cell_length_a 21.713171
_cell_length_b 21.713171
_cell_length_c 5.533339
_cell_angle_alpha 90.000000
_cell_angle_beta 90.000000
_cell_angle_gamma 90.000000
_cell_volume 2608.757937
_symmetry_space_group_name_H-M "P 41 2 2"
_symmetry_group_IT_number 91
_symmetry_cell_setting 'tetragonal'
loop_
_space_group_symop_operation_xyz
x,y,z
-y,x,1/4+z
-x,-y,1/2+z
y,-x,3/4+z
x,-y,1/2-z
-x,y,-z
y,x,3/4-z
-y,-x,1/4-z
loop_
_atom_site_type_symbol
_atom_site_label
_atom_site_fract_x
_atom_site_fract_y
_atom_site_fract_z
Si Si1 0.908868 0.091133 0.625000
Si Si2 0.747611 0.196733 0.873164
Si Si3 0.000000 0.873428 0.500000
Si Si4 0.589873 0.690111 0.150963
Si Si5 0.938901 0.783944 0.117121
Si Si6 0.724483 0.375058 0.394924
Si Si7 0.406995 0.500000 0.250000
O O1 0.838227 0.080125 0.685205
O O2 0.916512 0.044777 0.405475
O O3 0.783763 0.216238 0.625000
O O4 0.745204 0.122756 0.900294
O O5 0.680764 0.227515 0.843292
O O6 0.777335 0.222666 0.125000
O O7 0.041704 0.825532 0.653797
O O8 0.590364 0.731262 0.389992
O O9 0.656446 0.656295 0.127453
O O10 0.585434 0.723763 0.890879
O O11 0.537987 0.638060 0.174079
O O12 0.000000 0.753663 0.000000
O O13 0.450175 0.450175 0.375000
#
# Coordination Sequence:
#
# PCOD9547597 Si02
#       7
#     4   8   4   8   8   8   4
#     4  10  18  34  50  58  88 124 160 210 256 308
#     4  12  20  33  59  79  91 134 181 216 276 337
#     4  10  20  34  50  62  92 122 162 218 256 310
#     4  10  20  37  49  72 109 135 189 236 256 284
#     4  10  22  34  50  70  99 122 164 217 269 331
#     4  10  18  37  52  74 102 129 184 241 269 294
#     4  12  26  34  52  80 112 174 208 218 252 296
#
# _framework density 16.866264999999999
#
# number of rings (size 3 to 8) (size 9 to 14) (size 15 to 20)
#    0.000    1.455    6.364    1.636    5.091    0.727 
#    0.000    0.000   72.000    0.000    0.000    0.000 
#    0.000    0.000    0.000    3.273    0.364    0.000 
#
# Total GULP energy -245162.487610 kJ/mol
# GULP energy per Si atom -5571.874718 kJ/mol
# Density = 1.682788 g / cm^3
# Si number density = 16.866265 Si / 1000 Ang^3
#
#
#
# Elastic Constant Matrix: (Units=GPa)
#
#
# Indices 1 2 3 4 5 6 
#
# 1 54.0488 60.4062 22.3995 0.0000 0.0000 0.0000
# 2 60.4062 54.0495 22.3999 0.0000 0.0000 0.0000
# 3 22.3995 22.3999 127.7979 0.0000 0.0000 0.0000
# 4 0.0000 0.0000 0.0000 7.4628 0.0000 0.0000
# 5 0.0000 0.0000 0.0000 0.0000 7.4618 0.0000
# 6 0.0000 0.0000 0.0000 0.0000 0.0000 31.1656
#
#
#
# Elastic Compliance Matrix: (Units=1/GPa)
#
#
# Indices 1 2 3 4 5 6 
#
# 1 -0.073963 0.083343 -0.001644 0.000000 0.000000 0.000000
# 2 0.083343 -0.073962 -0.001644 0.000000 0.000000 0.000000
# 3 -0.001644 -0.001644 0.008401 0.000000 0.000000 0.000000
# 4 0.000000 0.000000 0.000000 0.133998 0.000000 0.000000
# 5 0.000000 0.000000 0.000000 0.000000 0.134015 0.000000
# 6 0.000000 0.000000 0.000000 0.000000 0.000000 0.032087
#
#
# Mechanical properties :
#
#
# Convention : Reuss Voigt Hill
#
# Bulk Modulus (GPa) = 48.57746 49.58972 49.08359
# Shear Modulus (GPa) = 682.26021 17.93075 350.09548
#
# Velocity S-wave (km/s) = 20.13430 3.26408 14.42297
# Velocity P-wave (km/s) = 23.86177 6.60842 17.50793
#
# Compressibility (1/GPa) = 0.02058568
#
# Stress axis : x y z
#
# Youngs Moduli (GPa) = -13.52026 -13.52042 119.03029
#
# Poissons Ratio (x) = 1.12684 0.19573
# Poissons Ratio (y) = 1.12682 0.19569
# Poissons Ratio (z) = -0.02223 -0.02223
#
# Static dielectric constant tensor:
#      x y z
#    x 1.575150 0.000000 0.000000 
#    y 0.000000 1.575150 0.000000 
#    z 0.000000 0.000000 1.720730 
# 
# From -- ./inp_files/8863.got.cif
#   From: 2010.05.17/outbox.cif.g08.bks.cpg/sg91_5_cif.got.tgz:8863.got - 2010.06.03 19:20:03.
