data_PCOD9547844
_publ_section_title
;
Structure prediction by ZEFSAII (Michael W. Deem and Ramdas Pophale) SiO2 
 PCOD9547844
Probable space group: P 41 2 2
;
_chemical_formula_sum "Si O2"
_cell_formula_units_Z 40
_cell_length_a 11.990537
_cell_length_b 11.990537
_cell_length_c 14.075311
_cell_angle_alpha 90.000000
_cell_angle_beta 90.000000
_cell_angle_gamma 90.000000
_cell_volume 2023.649372
_symmetry_space_group_name_H-M "P 41 2 2"
_symmetry_group_IT_number 91
_symmetry_cell_setting 'tetragonal'
loop_
_space_group_symop_operation_xyz
x,y,z
-y,x,1/4+z
-x,-y,1/2+z
y,-x,3/4+z
x,-y,1/2-z
-x,y,-z
y,x,3/4-z
-y,-x,1/4-z
loop_
_atom_site_type_symbol
_atom_site_label
_atom_site_fract_x
_atom_site_fract_y
_atom_site_fract_z
Si Si1 0.865683 0.131988 0.515112
Si Si2 0.905237 0.243548 0.193107
Si Si3 0.888832 0.574398 0.464573
Si Si4 0.248644 0.274473 0.103446
Si Si5 0.485853 0.326234 0.109916
O O1 0.843247 0.156754 0.625000
O O2 0.795638 0.210006 0.444223
O O3 0.000000 0.135472 0.500000
O O4 0.816834 0.010078 0.489818
O O5 0.845881 0.154120 0.125000
O O6 0.925622 0.347343 0.123695
O O7 0.818321 0.278448 0.274149
O O8 0.845009 0.652045 0.550905
O O9 0.779779 0.511832 0.426367
O O10 0.000000 0.511373 0.500000
O O11 0.355618 0.350946 0.124311
O O12 0.572952 0.427049 0.125000
O O13 0.500000 0.294565 0.000000
#
# Coordination Sequence:
#
# PCOD9547844 Si02
#       5
#     8   8   8   8   8
#     4  12  23  36  59  93 145 194 220 263 339 424
#     4  10  20  34  59  96 134 171 221 270 321 409
#     4  11  21  39  69 101 128 170 215 284 335 395
#     4  11  23  40  65  96 133 168 231 283 332 394
#     4  12  23  44  72 100 127 175 236 284 335 391
#
# _framework density 19.766271
#
# number of rings (size 3 to 8) (size 9 to 14) (size 15 to 20)
#    0.000    0.800    8.000    1.200    0.000    0.800 
#    0.000    1.000    0.000    0.000    0.000    0.000 
#    0.000    0.000    0.000    0.000    0.000    0.000 
#
# Total GULP energy -223165.491068 kJ/mol
# GULP energy per Si atom -5579.137277 kJ/mol
# Density = 1.972128 g / cm^3
# Si number density = 19.766271 Si / 1000 Ang^3
#
#
#
# Elastic Constant Matrix: (Units=GPa)
#
#
# Indices 1 2 3 4 5 6 
#
# 1 97.0492 -2.1557 33.9334 0.0000 0.0000 0.0000
# 2 -2.1557 97.0488 33.9354 0.0000 0.0000 0.0000
# 3 33.9334 33.9354 124.9178 0.0000 0.0000 0.0000
# 4 0.0000 0.0000 0.0000 20.6535 0.0000 0.0000
# 5 0.0000 0.0000 0.0000 0.0000 20.6535 0.0000
# 6 0.0000 0.0000 0.0000 0.0000 0.0000 11.8161
#
#
#
# Elastic Compliance Matrix: (Units=1/GPa)
#
#
# Indices 1 2 3 4 5 6 
#
# 1 0.011580 0.001500 -0.003553 0.000000 0.000000 0.000000
# 2 0.001500 0.011580 -0.003553 0.000000 0.000000 0.000000
# 3 -0.003553 -0.003553 0.009936 0.000000 0.000000 0.000000
# 4 0.000000 0.000000 0.000000 0.048418 0.000000 0.000000
# 5 0.000000 0.000000 0.000000 0.000000 0.048418 0.000000
# 6 0.000000 0.000000 0.000000 0.000000 0.000000 0.084630
#
#
# Mechanical properties :
#
#
# Convention : Reuss Voigt Hill
#
# Bulk Modulus (GPa) = 45.69939 50.04910 47.87425
# Shear Modulus (GPa) = 21.45292 27.51146 24.48219
#
# Velocity S-wave (km/s) = 3.29801 3.73478 3.52317
# Velocity P-wave (km/s) = 6.13780 6.63126 6.38929
#
# Compressibility (1/GPa) = 0.02188213
#
# Stress axis : x y z
#
# Youngs Moduli (GPa) = 86.35836 86.35688 100.64753
#
# Poissons Ratio (x) = -0.12950 0.35759
# Poissons Ratio (y) = -0.12950 0.35762
# Poissons Ratio (z) = 0.30683 0.30684
#
# Static dielectric constant tensor:
#      x y z
#    x 1.722300 0.000000 0.000000 
#    y 0.000000 1.722300 0.000000 
#    z 0.000000 0.000000 1.694490 
# 
# From -- ./inp_files/11325.got.cif
#   From: 2010.05.17/outbox.cif.g08.bks.cpg/sg91_6_cif.got.tgz:11325.got - 2010.06.03 19:20:03.
