data_PCOD9547478
_publ_section_title
;
Structure prediction by ZEFSAII (Michael W. Deem and Ramdas Pophale) SiO2 
 PCOD9547478
Probable space group: P 41 2 2
;
_chemical_formula_sum "Si O2"
_cell_formula_units_Z 56
_cell_length_a 25.403089
_cell_length_b 25.403089
_cell_length_c 5.247414
_cell_angle_alpha 90.000000
_cell_angle_beta 90.000000
_cell_angle_gamma 90.000000
_cell_volume 3386.245097
_symmetry_space_group_name_H-M "P 41 2 2"
_symmetry_group_IT_number 91
_symmetry_cell_setting 'tetragonal'
loop_
_space_group_symop_operation_xyz
x,y,z
-y,x,1/4+z
-x,-y,1/2+z
y,-x,3/4+z
x,-y,1/2-z
-x,y,-z
y,x,3/4-z
-y,-x,1/4-z
loop_
_atom_site_type_symbol
_atom_site_label
_atom_site_fract_x
_atom_site_fract_y
_atom_site_fract_z
Si Si1 0.924529 0.530566 0.501021
Si Si2 0.156550 0.365549 0.460828
Si Si3 0.184920 0.863104 0.379581
Si Si4 0.273808 0.772608 0.375712
Si Si5 0.807544 0.514716 0.996134
Si Si6 0.247317 0.032114 0.987649
Si Si7 0.910772 0.648472 0.458320
O O1 0.942455 0.500000 0.250000
O O2 0.860412 0.522496 0.496767
O O3 0.937516 0.592109 0.518508
O O4 0.942237 0.500000 0.750000
O O5 0.203894 0.330766 0.570441
O O6 0.173345 0.426036 0.463354
O O7 0.113093 0.360818 0.679272
O O8 0.132209 0.346121 0.189298
O O9 0.149832 0.850169 0.625000
O O10 0.234667 0.823048 0.389965
O O11 0.210012 0.920750 0.411128
O O12 0.152394 0.847607 0.125000
O O13 0.261877 0.738123 0.625000
O O14 0.258489 0.741511 0.125000
O O15 0.778262 0.500000 0.250000
O O16 0.775390 0.500000 0.750000
O O17 0.298921 0.055864 0.841041
O O18 0.221584 0.000000 0.750000
O O19 0.260901 0.000000 0.250000
#
# Coordination Sequence:
#
# PCOD9547478 Si02
#       7
#     8   8   8   8   8   8   8
#     4  10  16  29  45  72  95 123 173 232 261 297
#     4  12  19  30  52  72 100 133 173 213 269 314
#     4  10  21  38  61  81 105 138 171 201 239 290
#     4  10  21  33  48  74 102 129 168 210 251 316
#     4  10  16  27  42  73  95 119 167 232 269 296
#     4  12  26  41  57  84 118 142 171 203 245 312
#     4  12  21  32  53  75 100 138 174 205 265 310
#
# _framework density 16.537490999999999
#
# number of rings (size 3 to 8) (size 9 to 14) (size 15 to 20)
#    0.000    1.143    7.143    2.571    4.000    0.000 
#    0.000    0.000    0.000    1.714    0.000    0.000 
#    0.000   16.000    0.000    0.000    0.000    0.000 
#
# Total GULP energy -311993.665301 kJ/mol
# GULP energy per Si atom -5571.315452 kJ/mol
# Density = 1.649985 g / cm^3
# Si number density = 16.537491 Si / 1000 Ang^3
#
#
#
# Elastic Constant Matrix: (Units=GPa)
#
#
# Indices 1 2 3 4 5 6 
#
# 1 63.5204 35.4241 30.2181 0.0000 0.0000 0.0000
# 2 35.4241 63.5204 30.2185 0.0000 0.0000 0.0000
# 3 30.2181 30.2185 151.5166 0.0000 0.0000 0.0000
# 4 0.0000 0.0000 0.0000 22.1342 0.0000 0.0000
# 5 0.0000 0.0000 0.0000 0.0000 22.1332 0.0000
# 6 0.0000 0.0000 0.0000 0.0000 0.0000 -28.8771
#
#
#
# Elastic Compliance Matrix: (Units=1/GPa)
#
#
# Indices 1 2 3 4 5 6 
#
# 1 0.023550 -0.012042 -0.002295 0.000000 0.000000 0.000000
# 2 -0.012042 0.023550 -0.002295 0.000000 0.000000 0.000000
# 3 -0.002295 -0.002295 0.007515 0.000000 0.000000 0.000000
# 4 0.000000 0.000000 0.000000 0.045179 0.000000 0.000000
# 5 0.000000 0.000000 0.000000 0.000000 0.045181 0.000000
# 6 0.000000 0.000000 0.000000 0.000000 0.000000 -0.034629
#
#
# Mechanical properties :
#
#
# Convention : Reuss Voigt Hill
#
# Bulk Modulus (GPa) = 46.83468 52.25320 49.54394
# Shear Modulus (GPa) = 33.17234 15.25783 24.21509
#
# Velocity S-wave (km/s) = 4.48357 3.04076 3.83071
# Velocity P-wave (km/s) = 7.42866 6.63278 7.04197
#
# Compressibility (1/GPa) = 0.02135170
#
# Stress axis : x y z
#
# Youngs Moduli (GPa) = 42.46247 42.46232 133.05884
#
# Poissons Ratio (x) = 0.51131 0.30540
# Poissons Ratio (y) = 0.51132 0.30541
# Poissons Ratio (z) = 0.09746 0.09747
#
# Static dielectric constant tensor:
#      x y z
#    x 1.562650 0.000000 0.000000 
#    y 0.000000 1.562650 0.000000 
#    z 0.000000 0.000000 1.638110 
# 
# From -- ./inp_files/1496.got.cif
#   From: 2010.05.17/outbox.cif.g08.bks.cpg/sg91_1_cif.got.tgz:1496.got - 2010.06.03 19:20:03.
