data_PCOD9547205
_publ_section_title
;
Structure prediction by ZEFSAII (Michael W. Deem and Ramdas Pophale) SiO2 
 PCOD9547205
Probable space group: P 4 21 2
;
_chemical_formula_sum "Si O2"
_cell_formula_units_Z 48
_cell_length_a 8.415327
_cell_length_b 8.415327
_cell_length_c 34.382401
_cell_angle_alpha 90.000000
_cell_angle_beta 90.000000
_cell_angle_gamma 90.000000
_cell_volume 2434.883540
_symmetry_space_group_name_H-M "P 4 21 2"
_symmetry_group_IT_number 90
_symmetry_cell_setting 'tetragonal'
loop_
_space_group_symop_operation_xyz
x,y,z
1/2-y,1/2+x,z
-x,-y,z
1/2+y,1/2-x,z
1/2+x,1/2-y,-z
1/2-x,1/2+y,-z
y,x,-z
-y,-x,-z
loop_
_atom_site_type_symbol
_atom_site_label
_atom_site_fract_x
_atom_site_fract_y
_atom_site_fract_z
Si Si1 0.500000 0.500000 0.810756
Si Si2 0.462623 0.737788 0.881014
Si Si3 0.452315 0.739063 0.259512
Si Si4 0.246691 0.389413 0.460998
Si Si5 0.753658 0.092007 0.384784
Si Si6 0.936197 0.762162 0.033372
Si Si7 0.500000 0.500000 0.324228
O O1 0.471026 0.639112 0.841893
O O2 0.645477 0.471485 0.780947
O O3 0.629396 0.827882 0.880689
O O4 0.431740 0.662246 0.923418
O O5 0.622755 0.823680 0.263056
O O6 0.414476 0.618129 0.294280
O O7 0.203103 0.576565 0.459833
O O8 0.337991 0.337991 0.500000
O O9 0.355627 0.335678 0.424938
O O10 0.592040 0.195718 0.382049
O O11 0.887324 0.107271 0.351501
O O12 0.816162 0.610840 0.030233
O O13 0.881000 0.881000 0.000000
#
# Coordination Sequence:
#
# PCOD9547205 Si02
#       7
#     4   8   8   8   8   8   4
#     4  11  20  34  61  88 110 146 191 232 280 345
#     4   9  19  35  53  78 114 150 186 233 290 348
#     4  10  22  40  61  87 118 149 185 233 290 354
#     4  11  24  41  62  92 130 173 221 271 320 370
#     4  11  23  40  64  93 125 163 207 257 314 372
#     4   9  19  34  51  74 106 145 190 239 288 339
#     4  11  22  38  63  88 114 152 193 234 292 361
#
# _framework density 19.713467000000001
#
# number of rings (size 3 to 8) (size 9 to 14) (size 15 to 20)
#    0.000    1.833    0.000    5.000    0.000    7.333 
#    0.000    0.000    0.000   20.500    0.000    0.000 
#    0.000    0.000    0.000    0.000    0.000    0.000 
#
# Total GULP energy -267549.188462 kJ/mol
# GULP energy per Si atom -5573.941426 kJ/mol
# Density = 1.966860 g / cm^3
# Si number density = 19.713467 Si / 1000 Ang^3
#
#
#
# Elastic Constant Matrix: (Units=GPa)
#
#
# Indices 1 2 3 4 5 6 
#
# 1 86.3466 44.2213 77.6159 0.0000 0.0000 0.0000
# 2 44.2213 86.3466 77.6159 0.0000 0.0000 0.0000
# 3 77.6159 77.6159 198.3954 0.0000 0.0000 0.0000
# 4 0.0000 0.0000 0.0000 33.1935 0.0000 0.0000
# 5 0.0000 0.0000 0.0000 0.0000 33.1935 0.0000
# 6 0.0000 0.0000 0.0000 0.0000 0.0000 18.8160
#
#
#
# Elastic Compliance Matrix: (Units=1/GPa)
#
#
# Indices 1 2 3 4 5 6 
#
# 1 0.019029 -0.004710 -0.005602 0.000000 0.000000 0.000000
# 2 -0.004710 0.019029 -0.005602 0.000000 0.000000 0.000000
# 3 -0.005602 -0.005602 0.009423 0.000000 0.000000 0.000000
# 4 0.000000 0.000000 0.000000 0.030126 0.000000 0.000000
# 5 0.000000 0.000000 0.000000 0.000000 0.030126 0.000000
# 6 0.000000 0.000000 0.000000 0.000000 0.000000 0.053146
#
#
# Mechanical properties :
#
#
# Convention : Reuss Voigt Hill
#
# Bulk Modulus (GPa) = 63.88163 85.55499 74.71831
# Shear Modulus (GPa) = 25.26210 28.48295 26.87252
#
# Velocity S-wave (km/s) = 3.58364 3.80524 3.69610
# Velocity P-wave (km/s) = 7.04263 7.92464 7.49662
#
# Compressibility (1/GPa) = 0.01565395
#
# Stress axis : x y z
#
# Youngs Moduli (GPa) = 52.55213 52.55213 106.11796
#
# Poissons Ratio (x) = 0.24752 0.59445
# Poissons Ratio (y) = 0.24752 0.59445
# Poissons Ratio (z) = 0.29439 0.29439
#
# Static dielectric constant tensor:
#      x y z
#    x 1.724530 0.000000 0.000000 
#    y 0.000000 1.724530 0.000000 
#    z 0.000000 0.000000 1.697780 
# 
# From -- ./inp_files/3072.got.cif
#   From: 2010.05.17/outbox.cif.g08.bks.cpg/sg90_2_cif.got.tgz:3072.got - 2010.06.03 19:17:45.
