data_PCOD9547746
_publ_section_title
;
Structure prediction by ZEFSAII (Michael W. Deem and Ramdas Pophale) SiO2 
 PCOD9547746
Probable space group: P 41 2 2
;
_chemical_formula_sum "Si O2"
_cell_formula_units_Z 56
_cell_length_a 11.930264
_cell_length_b 11.930264
_cell_length_c 21.820584
_cell_angle_alpha 90.000000
_cell_angle_beta 90.000000
_cell_angle_gamma 90.000000
_cell_volume 3105.749886
_symmetry_space_group_name_H-M "P 41 2 2"
_symmetry_group_IT_number 91
_symmetry_cell_setting 'tetragonal'
loop_
_space_group_symop_operation_xyz
x,y,z
-y,x,1/4+z
-x,-y,1/2+z
y,-x,3/4+z
x,-y,1/2-z
-x,y,-z
y,x,3/4-z
-y,-x,1/4-z
loop_
_atom_site_type_symbol
_atom_site_label
_atom_site_fract_x
_atom_site_fract_y
_atom_site_fract_z
Si Si1 0.145018 0.281656 0.824565
Si Si2 0.302702 0.111144 0.589525
Si Si3 0.533615 0.776870 0.762651
Si Si4 0.832724 0.538247 0.131017
Si Si5 0.914992 0.434592 0.626651
Si Si6 0.745259 0.370796 0.728054
Si Si7 0.277761 0.267447 0.699520
O O1 0.207802 0.207802 0.875000
O O2 0.162894 0.412610 0.842278
O O3 0.200033 0.259293 0.758888
O O4 0.012401 0.258136 0.825970
O O5 0.434955 0.095866 0.604148
O O6 0.300156 0.192263 0.531044
O O7 0.252615 0.172218 0.648857
O O8 0.535192 0.804609 0.690896
O O9 0.569737 0.880811 0.805671
O O10 0.622024 0.679634 0.778887
O O11 0.407176 0.744509 0.780932
O O12 0.744548 0.614029 0.166971
O O13 0.955911 0.593733 0.138837
O O14 0.824594 0.370265 0.668305
O O15 0.737531 0.500000 0.750000
#
# Coordination Sequence:
#
# PCOD9547746 Si02
#       7
#     8   8   8   8   8   8   8
#     4  11  22  38  60  87 115 153 202 243 298 354
#     4   9  20  37  59  82 115 155 200 244 284 348
#     4  11  21  36  58  90 122 153 195 244 300 356
#     4  11  21  39  59  85 121 152 199 248 292 358
#     4   9  20  35  59  84 111 159 206 239 281 343
#     4  10  19  36  56  85 121 160 194 233 297 358
#     4  11  22  38  60  90 120 157 192 244 307 355
#
# _framework density 18.031072999999999
#
# number of rings (size 3 to 8) (size 9 to 14) (size 15 to 20)
#    0.000    1.714    2.857    2.143    0.000    4.000 
#    0.000    0.000    0.000    5.143    0.000    0.000 
#    0.000    0.000    0.000    0.000    0.000    0.000 
#
# Total GULP energy -312529.081369 kJ/mol
# GULP energy per Si atom -5580.876453 kJ/mol
# Density = 1.799003 g / cm^3
# Si number density = 18.031073 Si / 1000 Ang^3
#
#
#
# Elastic Constant Matrix: (Units=GPa)
#
#
# Indices 1 2 3 4 5 6 
#
# 1 83.2665 33.3897 35.1071 0.0000 0.0000 0.0000
# 2 33.3897 83.2665 35.1071 0.0000 0.0000 0.0000
# 3 35.1071 35.1071 119.4676 0.0000 0.0000 0.0000
# 4 0.0000 0.0000 0.0000 21.5028 0.0000 0.0000
# 5 0.0000 0.0000 0.0000 0.0000 21.5028 0.0000
# 6 0.0000 0.0000 0.0000 0.0000 0.0000 -1.4988
#
#
#
# Elastic Compliance Matrix: (Units=1/GPa)
#
#
# Indices 1 2 3 4 5 6 
#
# 1 0.015232 -0.004818 -0.003060 0.000000 0.000000 0.000000
# 2 -0.004818 0.015232 -0.003060 0.000000 0.000000 0.000000
# 3 -0.003060 -0.003060 0.010169 0.000000 0.000000 0.000000
# 4 0.000000 0.000000 0.000000 0.046505 0.000000 0.000000
# 5 0.000000 0.000000 0.000000 0.000000 0.046505 0.000000
# 6 0.000000 0.000000 0.000000 0.000000 0.000000 -0.667207
#
#
# Mechanical properties :
#
#
# Convention : Reuss Voigt Hill
#
# Bulk Modulus (GPa) = 53.31596 54.80095 54.05846
# Shear Modulus (GPa) = -9.89248 20.46116 5.28434
#
# Velocity S-wave (km/s) = -2.34484 3.37229 1.71378
# Velocity P-wave (km/s) = 4.72251 6.75438 5.82768
#
# Compressibility (1/GPa) = 0.01875611
#
# Stress axis : x y z
#
# Youngs Moduli (GPa) = 65.65210 65.65210 98.33701
#
# Poissons Ratio (x) = 0.31629 0.30095
# Poissons Ratio (y) = 0.31629 0.30095
# Poissons Ratio (z) = 0.20092 0.20092
#
# Static dielectric constant tensor:
#      x y z
#    x 1.602670 0.000000 0.000000 
#    y 0.000000 1.602670 0.000000 
#    z 0.000000 0.000000 1.626800 
# 
# From -- ./inp_files/6393.got.cif
#   From: 2010.05.17/outbox.cif.g08.bks.cpg/sg91_4_cif.got.tgz:6393.got - 2010.06.03 19:20:03.
