data_PCOD9547664
_publ_section_title
;
Structure prediction by ZEFSAII (Michael W. Deem and Ramdas Pophale) SiO2 
 PCOD9547664
Probable space group: P 41 2 2
;
_chemical_formula_sum "Si O2"
_cell_formula_units_Z 64
_cell_length_a 12.349380
_cell_length_b 12.349380
_cell_length_c 26.159479
_cell_angle_alpha 90.000000
_cell_angle_beta 90.000000
_cell_angle_gamma 90.000000
_cell_volume 3989.508540
_symmetry_space_group_name_H-M "P 41 2 2"
_symmetry_group_IT_number 91
_symmetry_cell_setting 'tetragonal'
loop_
_space_group_symop_operation_xyz
x,y,z
-y,x,1/4+z
-x,-y,1/2+z
y,-x,3/4+z
x,-y,1/2-z
-x,y,-z
y,x,3/4-z
-y,-x,1/4-z
loop_
_atom_site_type_symbol
_atom_site_label
_atom_site_fract_x
_atom_site_fract_y
_atom_site_fract_z
Si Si1 0.564242 0.616538 0.228163
Si Si2 0.740310 0.181494 0.810502
Si Si3 0.163545 0.506145 0.525260
Si Si4 0.212560 0.177923 0.453572
Si Si5 0.030184 0.718466 0.118658
Si Si6 0.040625 0.473924 0.082890
Si Si7 0.684224 0.569106 0.799633
Si Si8 0.390432 0.746065 0.871591
O O1 0.605446 0.500000 0.250000
O O2 0.551345 0.714349 0.269624
O O3 0.442592 0.591146 0.208590
O O4 0.622915 0.673624 0.179711
O O5 0.621231 0.163557 0.786987
O O6 0.823250 0.183512 0.763258
O O7 0.730282 0.293732 0.839473
O O8 0.760192 0.085949 0.850517
O O9 0.105655 0.512497 0.470348
O O10 0.081286 0.558800 0.566585
O O11 0.243212 0.067635 0.424457
O O12 0.116770 0.233626 0.421571
O O13 0.318110 0.253627 0.448524
O O14 0.033542 0.588601 0.112114
O O15 0.124744 0.397856 0.112133
O O16 0.720811 0.500000 0.750000
O O17 0.708498 0.500153 0.850113
#
# Coordination Sequence:
#
# PCOD9547664 Si02
#       8
#     8   8   8   8   8   8   8   8
#     4  10  19  30  45  70 100 137 173 205 257 311
#     4  11  19  32  47  74 107 134 170 214 258 312
#     4   9  16  28  45  67  98 130 162 211 248 307
#     4  11  18  30  48  73 107 132 160 206 263 318
#     4  10  20  28  49  76 102 134 166 200 262 318
#     4   9  16  28  45  69  97 127 170 203 252 304
#     4  11  18  27  43  76 111 135 154 200 278 318
#     4  11  20  29  47  72 107 136 169 213 254 321
#
# _framework density 16.042076999999999
#
# number of rings (size 3 to 8) (size 9 to 14) (size 15 to 20)
#    0.000    1.750    5.000    2.250    1.750    0.000 
#    0.000    0.000    0.000    3.750   26.000    0.000 
#    0.000    0.000    0.000    0.000    0.000    0.000 
#
# Total GULP energy -356465.406861 kJ/mol
# GULP energy per Si atom -5569.771982 kJ/mol
# Density = 1.600556 g / cm^3
# Si number density = 16.042077 Si / 1000 Ang^3
#
#
#
# Elastic Constant Matrix: (Units=GPa)
#
#
# Indices 1 2 3 4 5 6 
#
# 1 36.1511 4.9427 3.7955 0.0000 0.0000 0.0000
# 2 4.9427 36.1511 3.7955 0.0000 0.0000 0.0000
# 3 3.7955 3.7955 39.7963 0.0000 0.0000 0.0000
# 4 0.0000 0.0000 0.0000 7.7534 0.0000 0.0000
# 5 0.0000 0.0000 0.0000 0.0000 7.7534 0.0000
# 6 0.0000 0.0000 0.0000 0.0000 0.0000 0.5906
#
#
#
# Elastic Compliance Matrix: (Units=1/GPa)
#
#
# Indices 1 2 3 4 5 6 
#
# 1 0.028407 -0.003636 -0.002363 0.000000 0.000000 0.000000
# 2 -0.003636 0.028407 -0.002363 0.000000 0.000000 0.000000
# 3 -0.002363 -0.002363 0.025579 0.000000 0.000000 0.000000
# 4 0.000000 0.000000 0.000000 0.128976 0.000000 0.000000
# 5 0.000000 0.000000 0.000000 0.000000 0.128976 0.000000
# 6 0.000000 0.000000 0.000000 0.000000 0.000000 1.693280
#
#
# Mechanical properties :
#
#
# Convention : Reuss Voigt Hill
#
# Bulk Modulus (GPa) = 15.22753 15.24068 15.23410
# Shear Modulus (GPa) = 2.41285 9.85712 6.13499
#
# Velocity S-wave (km/s) = 1.22774 2.48151 1.95771
# Velocity P-wave (km/s) = 3.39450 4.21089 3.82454
#
# Compressibility (1/GPa) = 0.06567052
#
# Stress axis : x y z
#
# Youngs Moduli (GPa) = 35.20276 35.20276 39.09521
#
# Poissons Ratio (x) = 0.12799 0.09236
# Poissons Ratio (y) = 0.12799 0.09236
# Poissons Ratio (z) = 0.08317 0.08317
#
# Static dielectric constant tensor:
#      x y z
#    x 1.554880 0.000000 0.000000 
#    y 0.000000 1.554880 0.000000 
#    z 0.000000 0.000000 1.540890 
# 
# From -- ./inp_files/12942.got.cif
#   From: 2010.05.17/outbox.cif.g08.bks.cpg/sg91_7_cif.got.tgz:12942.got - 2010.06.03 19:20:03.
