data_PCOD9547823
_publ_section_title
;
Structure prediction by ZEFSAII (Michael W. Deem and Ramdas Pophale) SiO2 
 PCOD9547823
Probable space group: P 41 2 2
;
_chemical_formula_sum "Si O2"
_cell_formula_units_Z 28
_cell_length_a 18.726939
_cell_length_b 18.726939
_cell_length_c 5.257646
_cell_angle_alpha 90.000000
_cell_angle_beta 90.000000
_cell_angle_gamma 90.000000
_cell_volume 1843.847221
_symmetry_space_group_name_H-M "P 41 2 2"
_symmetry_group_IT_number 91
_symmetry_cell_setting 'tetragonal'
loop_
_space_group_symop_operation_xyz
x,y,z
-y,x,1/4+z
-x,-y,1/2+z
y,-x,3/4+z
x,-y,1/2-z
-x,y,-z
y,x,3/4-z
-y,-x,1/4-z
loop_
_atom_site_type_symbol
_atom_site_label
_atom_site_fract_x
_atom_site_fract_y
_atom_site_fract_z
Si Si1 0.957382 0.586925 0.247301
Si Si2 0.412556 0.791835 0.485054
Si Si3 0.421870 0.578131 0.625000
Si Si4 0.585107 0.287773 0.478187
O O1 0.957434 0.500000 0.250000
O O2 0.874661 0.607639 0.219824
O O3 0.000000 0.609576 0.500000
O O4 0.000000 0.610707 0.000000
O O5 0.500000 0.788410 0.500000
O O6 0.385837 0.761124 0.751446
O O7 0.388242 0.742236 0.248864
O O8 0.413531 0.500000 0.750000
O O9 0.409566 0.633317 0.855740
O O10 0.500000 0.276831 0.500000
#
# Coordination Sequence:
#
# PCOD9547823 Si02
#       4
#     8   8   4   8
#     4   9  15  23  38  60  81  99 117 135 158 207
#     4   9  17  29  43  58  78  99 117 140 183 244
#     4  12  24  36  50  62  74  94 138 198 248 286
#     4  10  20  33  45  57  73  95 121 160 216 266
#
# _framework density 15.185639999999999
#
# number of rings (size 3 to 8) (size 9 to 14) (size 15 to 20)
#    0.000    2.286    0.000    5.143    0.000   10.286 
#    0.000    0.000    0.000    0.000    0.000    0.000 
#    0.000    0.000    0.000    0.000    0.000    0.000 
#
# Total GULP energy -156028.238421 kJ/mol
# GULP energy per Si atom -5572.437086 kJ/mol
# Density = 1.515108 g / cm^3
# Si number density = 15.185640 Si / 1000 Ang^3
#
#
#
# Elastic Constant Matrix: (Units=GPa)
#
#
# Indices 1 2 3 4 5 6 
#
# 1 94.0628 -0.0268 52.6283 0.0000 0.0000 0.0000
# 2 -0.0268 94.0623 52.6279 0.0000 0.0000 0.0000
# 3 52.6283 52.6279 165.2899 0.0000 0.0000 0.0000
# 4 0.0000 0.0000 0.0000 15.7506 0.0000 0.0000
# 5 0.0000 0.0000 0.0000 0.0000 15.7506 0.0000
# 6 0.0000 0.0000 0.0000 0.0000 0.0000 -0.0992
#
#
#
# Elastic Compliance Matrix: (Units=1/GPa)
#
#
# Indices 1 2 3 4 5 6 
#
# 1 0.013575 0.002947 -0.005261 0.000000 0.000000 0.000000
# 2 0.002947 0.013576 -0.005261 0.000000 0.000000 0.000000
# 3 -0.005261 -0.005261 0.009400 0.000000 0.000000 0.000000
# 4 0.000000 0.000000 0.000000 0.063489 0.000000 0.000000
# 5 0.000000 0.000000 0.000000 0.000000 0.063490 0.000000
# 6 0.000000 0.000000 0.000000 0.000000 0.000000-10.079066
#
#
# Mechanical properties :
#
#
# Convention : Reuss Voigt Hill
#
# Bulk Modulus (GPa) = 46.72389 62.65265 54.68827
# Shear Modulus (GPa) = -0.50539 22.82611 11.16036
#
# Velocity S-wave (km/s) = -0.57752 3.88124 2.71390
# Velocity P-wave (km/s) = 5.51276 7.83790 6.77581
#
# Compressibility (1/GPa) = 0.02140233
#
# Stress axis : x y z
#
# Youngs Moduli (GPa) = 73.66221 73.66188 106.38216
#
# Poissons Ratio (x) = -0.21710 0.55966
# Poissons Ratio (y) = -0.21711 0.55966
# Poissons Ratio (z) = 0.38753 0.38752
#
# Static dielectric constant tensor:
#      x y z
#    x 1.524170 0.000000 0.000000 
#    y 0.000000 1.524170 0.000000 
#    z 0.000000 0.000000 1.565260 
# 
# From -- ./inp_files/8386.got.cif
#   From: 2010.05.17/outbox.cif.g08.bks.cpg/sg91_5_cif.got.tgz:8386.got - 2010.06.03 19:20:03.
