data_PCOD9547296
_publ_section_title
;
Structure prediction by ZEFSAII (Michael W. Deem and Ramdas Pophale) SiO2 
 PCOD9547296
Probable space group: P 4 21 2
;
_chemical_formula_sum "Si O2"
_cell_formula_units_Z 56
_cell_length_a 14.748480
_cell_length_b 14.748480
_cell_length_c 11.864928
_cell_angle_alpha 90.000000
_cell_angle_beta 90.000000
_cell_angle_gamma 90.000000
_cell_volume 2580.831402
_symmetry_space_group_name_H-M "P 4 21 2"
_symmetry_group_IT_number 90
_symmetry_cell_setting 'tetragonal'
loop_
_space_group_symop_operation_xyz
x,y,z
1/2-y,1/2+x,z
-x,-y,z
1/2+y,1/2-x,z
1/2+x,1/2-y,-z
1/2-x,1/2+y,-z
y,x,-z
-y,-x,-z
loop_
_atom_site_type_symbol
_atom_site_label
_atom_site_fract_x
_atom_site_fract_y
_atom_site_fract_z
Si Si1 0.722907 0.594952 0.436472
Si Si2 0.692378 0.168165 0.977624
Si Si3 0.944968 0.093975 0.248187
Si Si4 0.424457 0.132651 0.754337
Si Si5 0.241070 0.440290 0.835079
Si Si6 0.318486 0.548789 0.046354
Si Si7 0.349555 0.991950 0.390628
O O1 0.683439 0.683439 0.500000
O O2 0.639502 0.550451 0.370078
O O3 0.798400 0.612673 0.339736
O O4 0.767543 0.526190 0.524733
O O5 0.670279 0.096867 0.879517
O O6 0.633971 0.253043 0.933624
O O7 0.794196 0.205805 0.000000
O O8 0.673924 0.132042 0.103778
O O9 0.837725 0.089380 0.218169
O O10 0.992029 0.158424 0.156059
O O11 0.000000 0.000000 0.245129
O O12 0.532693 0.119062 0.741475
O O13 0.187554 0.488824 0.736002
O O14 0.271593 0.496830 0.943960
O O15 0.413092 0.586909 0.000000
O O16 0.418038 0.907565 0.409750
#
# Coordination Sequence:
#
# PCOD9547296 Si02
#       7
#     8   8   8   8   8   8   8
#     4  12  25  46  70 102 139 186 242 308 362 419
#     4  11  23  38  66 106 149 185 229 291 350 423
#     4  12  25  45  73 103 144 195 237 292 361 428
#     4  11  24  46  76 107 141 188 245 302 364 433
#     4  12  22  42  67 103 146 186 230 286 353 423
#     4  11  23  40  67 108 144 185 237 280 348 437
#     4  11  26  49  74 101 140 192 243 297 367 432
#
# _framework density 21.698433000000001
#
# number of rings (size 3 to 8) (size 9 to 14) (size 15 to 20)
#    0.000    0.571    2.857    6.429    0.000    1.429 
#    0.000    2.857    0.000    0.000    0.000    0.000 
#    0.000    0.000    0.000    0.000    0.000    0.000 
#
# Total GULP energy -312821.408085 kJ/mol
# GULP energy per Si atom -5586.096573 kJ/mol
# Density = 2.164905 g / cm^3
# Si number density = 21.698433 Si / 1000 Ang^3
#
#
#
# Elastic Constant Matrix: (Units=GPa)
#
#
# Indices 1 2 3 4 5 6 
#
# 1 85.2251 48.1024 40.2294 0.0000 0.0000 0.0000
# 2 48.1024 85.2261 40.2298 0.0000 0.0000 0.0000
# 3 40.2294 40.2298 127.8882 0.0000 0.0000 0.0000
# 4 0.0000 0.0000 0.0000 38.7677 0.0000 0.0000
# 5 0.0000 0.0000 0.0000 0.0000 38.7671 0.0000
# 6 0.0000 0.0000 0.0000 0.0000 0.0000 31.0352
#
#
#
# Elastic Compliance Matrix: (Units=1/GPa)
#
#
# Indices 1 2 3 4 5 6 
#
# 1 0.018098 -0.008840 -0.002912 0.000000 0.000000 0.000000
# 2 -0.008840 0.018097 -0.002912 0.000000 0.000000 0.000000
# 3 -0.002912 -0.002912 0.009651 0.000000 0.000000 0.000000
# 4 0.000000 0.000000 0.000000 0.025795 0.000000 0.000000
# 5 0.000000 0.000000 0.000000 0.000000 0.025795 0.000000
# 6 0.000000 0.000000 0.000000 0.000000 0.000000 0.032221
#
#
# Mechanical properties :
#
#
# Convention : Reuss Voigt Hill
#
# Bulk Modulus (GPa) = 60.53936 61.71805 61.12871
# Shear Modulus (GPa) = 30.39659 33.03253 31.71456
#
# Velocity S-wave (km/s) = 3.74687 3.90596 3.82724
# Velocity P-wave (km/s) = 6.83225 6.98909 6.91111
#
# Compressibility (1/GPa) = 0.01651818
#
# Stress axis : x y z
#
# Youngs Moduli (GPa) = 55.25593 55.25647 103.61093
#
# Poissons Ratio (x) = 0.48846 0.30173
# Poissons Ratio (y) = 0.48845 0.30174
# Poissons Ratio (z) = 0.16091 0.16092
#
# Static dielectric constant tensor:
#      x y z
#    x 1.850640 0.000000 0.000000 
#    y 0.000000 1.850640 0.000000 
#    z 0.000000 0.000000 1.784300 
# 
# From -- ./inp_files/2237.got.cif
#   From: 2010.05.17/outbox.cif.g08.bks.cpg/sg90_2_cif.got.tgz:2237.got - 2010.06.03 19:17:45.
