data_PCOD9547479
_publ_section_title
;
Structure prediction by ZEFSAII (Michael W. Deem and Ramdas Pophale) SiO2 
 PCOD9547479
Probable space group: P 41 2 2
;
_chemical_formula_sum "Si O2"
_cell_formula_units_Z 28
_cell_length_a 7.122197
_cell_length_b 7.122197
_cell_length_c 19.497541
_cell_angle_alpha 90.000000
_cell_angle_beta 90.000000
_cell_angle_gamma 90.000000
_cell_volume 989.026223
_symmetry_space_group_name_H-M "P 41 2 2"
_symmetry_group_IT_number 91
_symmetry_cell_setting 'tetragonal'
loop_
_space_group_symop_operation_xyz
x,y,z
-y,x,1/4+z
-x,-y,1/2+z
y,-x,3/4+z
x,-y,1/2-z
-x,y,-z
y,x,3/4-z
-y,-x,1/4-z
loop_
_atom_site_type_symbol
_atom_site_label
_atom_site_fract_x
_atom_site_fract_y
_atom_site_fract_z
Si Si1 0.653978 0.346023 0.625000
Si Si2 0.220897 0.715032 0.695996
Si Si3 0.202485 0.637468 0.983759
Si Si4 0.784103 0.709223 0.158627
O O1 0.706952 0.262377 0.549920
O O2 0.440498 0.294002 0.644104
O O3 0.180933 0.819068 0.625000
O O4 0.450143 0.688504 0.707273
O O5 0.165168 0.799544 0.768967
O O6 0.494963 0.845786 0.573121
O O7 0.153235 0.763679 0.917259
O O8 0.000000 0.555521 0.000000
#
# Coordination Sequence:
#
# PCOD9547479 Si02
#       4
#     4   8   8   8
#     4  10  16  28  48  68  94 128 158 184 246 294
#     4   8  14  25  47  65  90 123 156 181 233 294
#     4  10  18  26  43  73 104 118 156 206 235 269
#     4   9  14  26  49  69  90 127 155 181 240 299
#
# _framework density 28.310676000000001
#
# number of rings (size 3 to 8) (size 9 to 14) (size 15 to 20)
#    0.000    2.857    4.286    0.857    0.000    0.000 
#    0.000    0.000   50.286    0.000    0.000    8.000 
#    0.000    0.000    0.000    0.000    0.000    0.000 
#
# Total GULP energy -155896.291311 kJ/mol
# GULP energy per Si atom -5567.724690 kJ/mol
# Density = 2.824624 g / cm^3
# Si number density = 28.310676 Si / 1000 Ang^3
#
#
#
# Elastic Constant Matrix: (Units=GPa)
#
#
# Indices 1 2 3 4 5 6 
#
# 1 79.9999 -1.9548 7.8072 0.0000 0.0000 0.0000
# 2 -1.9548 80.0005 7.8074 0.0000 0.0000 0.0000
# 3 7.8072 7.8074 333.7388 0.0000 0.0000 0.0000
# 4 0.0000 0.0000 0.0000 8.5138 0.0000 0.0000
# 5 0.0000 0.0000 0.0000 0.0000 8.5135 0.0000
# 6 0.0000 0.0000 0.0000 0.0000 0.0000 -5.6141
#
#
#
# Elastic Compliance Matrix: (Units=1/GPa)
#
#
# Indices 1 2 3 4 5 6 
#
# 1 0.012538 0.000336 -0.000301 0.000000 0.000000 0.000000
# 2 0.000336 0.012538 -0.000301 0.000000 0.000000 0.000000
# 3 -0.000301 -0.000301 0.003010 0.000000 0.000000 0.000000
# 4 0.000000 0.000000 0.000000 0.117457 0.000000 0.000000
# 5 0.000000 0.000000 0.000000 0.000000 0.117461 0.000000
# 6 0.000000 0.000000 0.000000 0.000000 0.000000 -0.178122
#
#
# Mechanical properties :
#
#
# Convention : Reuss Voigt Hill
#
# Bulk Modulus (GPa) = 36.29441 57.89543 47.09492
# Shear Modulus (GPa) = 52.85461 34.28791 43.57126
#
# Velocity S-wave (km/s) = 4.32551 3.48390 3.92732
# Velocity P-wave (km/s) = 6.14773 6.05623 6.10215
#
# Compressibility (1/GPa) = 0.02755245
#
# Stress axis : x y z
#
# Youngs Moduli (GPa) = 79.76004 79.76063 332.17680
#
# Poissons Ratio (x) = -0.02678 0.10003
# Poissons Ratio (y) = -0.02678 0.10004
# Poissons Ratio (z) = 0.02402 0.02402
#
# Static dielectric constant tensor:
#      x y z
#    x 2.234540 0.000000 0.000000 
#    y 0.000000 2.234530 0.000000 
#    z 0.000000 0.000000 2.618410 
# 
# From -- ./inp_files/20951.got.cif
#   From: 2010.05.17/outbox.cif.g08.bks.cpg/sg91_11_cif.got.tgz:20951.got - 2010.06.03 19:20:03.
