data_PCOD9547054
_publ_section_title
;
Structure prediction by ZEFSAII (Michael W. Deem and Ramdas Pophale) SiO2 
 PCOD9547054
Probable space group: P 4 2 2
;
_chemical_formula_sum "Si O2"
_cell_formula_units_Z 38
_cell_length_a 11.491356
_cell_length_b 11.491356
_cell_length_c 14.618767
_cell_angle_alpha 90.000000
_cell_angle_beta 90.000000
_cell_angle_gamma 90.000000
_cell_volume 1930.426642
_symmetry_space_group_name_H-M "P 4 2 2"
_symmetry_group_IT_number 89
_symmetry_cell_setting 'tetragonal'
loop_
_space_group_symop_operation_xyz
x,y,z
-y,x,z
-x,-y,z
y,-x,z
x,-y,-z
-x,y,-z
y,x,-z
-y,-x,-z
loop_
_atom_site_type_symbol
_atom_site_label
_atom_site_fract_x
_atom_site_fract_y
_atom_site_fract_z
Si Si1 0.698519 0.301482 0.500000
Si Si2 0.000000 0.000000 0.663233
Si Si3 0.764175 0.935865 0.406677
Si Si4 0.620900 0.935401 0.740536
Si Si5 0.804819 0.991432 0.894933
Si Si6 0.678533 0.570850 0.318717
O O1 0.814679 0.292606 0.437475
O O2 0.594093 0.302516 0.427166
O O3 0.120365 0.921976 0.654607
O O4 0.803326 0.000000 0.500000
O O5 0.672772 0.014738 0.353886
O O6 0.607374 0.796541 0.731744
O O7 0.500000 0.000000 0.755222
O O8 0.705251 0.974138 0.821952
O O9 0.884450 0.105497 0.882084
O O10 0.763605 0.000000 0.000000
O O11 0.562906 0.646181 0.297756
#
# Coordination Sequence:
#
# PCOD9547054 Si02
#       6
#     4   2   8   8   8   8
#     4  12  22  40  58  82 130 178 234 268 321 365
#     4  12  21  36  56  88 121 170 225 260 340 388
#     4  12  22  35  56  89 132 170 212 275 318 391
#     4  12  27  40  65  98 130 166 216 269 327 382
#     4   9  22  45  72 102 132 161 201 259 331 406
#     4  11  25  44  62  85 125 180 234 271 309 375
#
# _framework density 19.684767000000001
#
# number of rings (size 3 to 8) (size 9 to 14) (size 15 to 20)
#    0.000    0.842    4.211    2.842    8.842    1.684 
#    0.000    0.000    0.000    0.000    0.000    0.000 
#    0.000    0.000    0.000    0.000    0.000    0.000 
#
# Total GULP energy -212046.713893 kJ/mol
# GULP energy per Si atom -5580.176681 kJ/mol
# Density = 1.963996 g / cm^3
# Si number density = 19.684767 Si / 1000 Ang^3
#
#
#
# Elastic Constant Matrix: (Units=GPa)
#
#
# Indices 1 2 3 4 5 6 
#
# 1 103.1090 50.9467 46.7286 0.0000 0.0000 0.0000
# 2 50.9467 103.1084 46.7287 0.0000 0.0000 0.0000
# 3 46.7286 46.7287 84.8273 0.0000 0.0000 0.0000
# 4 0.0000 0.0000 0.0000 27.2020 0.0000 0.0000
# 5 0.0000 0.0000 0.0000 0.0000 27.2020 0.0000
# 6 0.0000 0.0000 0.0000 0.0000 0.0000 35.7376
#
#
#
# Elastic Compliance Matrix: (Units=1/GPa)
#
#
# Indices 1 2 3 4 5 6 
#
# 1 0.014460 -0.004711 -0.005370 0.000000 0.000000 0.000000
# 2 -0.004711 0.014460 -0.005371 0.000000 0.000000 0.000000
# 3 -0.005370 -0.005371 0.017706 0.000000 0.000000 0.000000
# 4 0.000000 0.000000 0.000000 0.036762 0.000000 0.000000
# 5 0.000000 0.000000 0.000000 0.000000 0.036762 0.000000
# 6 0.000000 0.000000 0.000000 0.000000 0.000000 0.027982
#
#
# Mechanical properties :
#
#
# Convention : Reuss Voigt Hill
#
# Bulk Modulus (GPa) = 63.60572 64.42807 64.01689
# Shear Modulus (GPa) = 27.13321 27.80437 27.46879
#
# Velocity S-wave (km/s) = 3.71669 3.76238 3.73960
# Velocity P-wave (km/s) = 7.12746 7.18853 7.15806
#
# Compressibility (1/GPa) = 0.01572186
#
# Stress axis : x y z
#
# Youngs Moduli (GPa) = 69.15604 69.15544 56.47949
#
# Poissons Ratio (x) = 0.32579 0.30332
# Poissons Ratio (y) = 0.32579 0.30333
# Poissons Ratio (z) = 0.37140 0.37140
#
# Static dielectric constant tensor:
#      x y z
#    x 1.720130 0.000000 0.000000 
#    y 0.000000 1.720130 0.000000 
#    z 0.000000 0.000000 1.733180 
# 
# From -- ./inp_files/2150.got.cif
#   From: 2010.05.17/outbox.cif.g08.bks.cpg/sg89_2_cif.got.tgz:2150.got - 2010.06.03 19:15:31.
