data_PCOD9547009
_publ_section_title
;
Structure prediction by ZEFSAII (Michael W. Deem and Ramdas Pophale) SiO2 
 PCOD9547009
Probable space group: P 4 2 2
;
_chemical_formula_sum "Si O2"
_cell_formula_units_Z 38
_cell_length_a 8.450402
_cell_length_b 8.450402
_cell_length_c 25.773452
_cell_angle_alpha 90.000000
_cell_angle_beta 90.000000
_cell_angle_gamma 90.000000
_cell_volume 1840.464010
_symmetry_space_group_name_H-M "P 4 2 2"
_symmetry_group_IT_number 89
_symmetry_cell_setting 'tetragonal'
loop_
_space_group_symop_operation_xyz
x,y,z
-y,x,z
-x,-y,z
y,-x,z
x,-y,-z
-x,y,-z
y,x,-z
-y,-x,-z
loop_
_atom_site_type_symbol
_atom_site_label
_atom_site_fract_x
_atom_site_fract_y
_atom_site_fract_z
Si Si1 0.330168 0.296572 0.107761
Si Si2 0.237080 0.883087 0.675876
Si Si3 0.500000 0.000000 0.500000
Si Si4 0.751464 0.586110 0.579740
Si Si5 0.651365 0.276705 0.779053
Si Si6 0.814763 0.814763 0.000000
O O1 0.519178 0.286278 0.108220
O O2 0.289007 0.222876 0.163796
O O3 0.262295 0.238821 0.053711
O O4 0.367789 0.821805 0.635490
O O5 0.289371 0.836156 0.733689
O O6 0.068710 0.795230 0.667701
O O7 0.395528 0.887218 0.536886
O O8 0.594714 0.692584 0.574016
O O9 0.710767 0.459579 0.774607
O O10 0.000000 0.783997 0.000000
#
# Coordination Sequence:
#
# PCOD9547009 Si02
#       6
#     8   8   2   8   8   4
#     4   9  19  37  60  84 110 145 195 251 302 359
#     4  11  24  40  59  89 129 168 207 257 314 367
#     4  12  24  42  68  98 128 158 204 262 314 366
#     4  11  24  43  68  96 127 167 213 257 308 378
#     4   9  19  37  61  88 116 150 197 251 307 369
#     4  11  24  37  50  76 116 155 192 239 298 364
#
# _framework density 20.646965999999999
#
# number of rings (size 3 to 8) (size 9 to 14) (size 15 to 20)
#    0.000    1.789    0.000    5.053    0.000    9.263 
#    0.000    6.316    0.000    1.263    0.000    0.000 
#    0.000    0.000    0.000    0.000    0.000    0.000 
#
# Total GULP energy -212172.473482 kJ/mol
# GULP energy per Si atom -5583.486144 kJ/mol
# Density = 2.059997 g / cm^3
# Si number density = 20.646966 Si / 1000 Ang^3
#
#
#
# Elastic Constant Matrix: (Units=GPa)
#
#
# Indices 1 2 3 4 5 6 
#
# 1 94.0733 4.7410 63.8535 0.0000 0.0000 0.0000
# 2 4.7410 94.0733 63.8535 0.0000 0.0000 0.0000
# 3 63.8535 63.8535 201.3214 0.0000 0.0000 0.0000
# 4 0.0000 0.0000 0.0000 28.3848 0.0000 0.0000
# 5 0.0000 0.0000 0.0000 0.0000 28.3848 0.0000
# 6 0.0000 0.0000 0.0000 0.0000 0.0000 25.0378
#
#
#
# Elastic Compliance Matrix: (Units=1/GPa)
#
#
# Indices 1 2 3 4 5 6 
#
# 1 0.014172 0.002978 -0.005439 0.000000 0.000000 0.000000
# 2 0.002978 0.014172 -0.005439 0.000000 0.000000 0.000000
# 3 -0.005439 -0.005439 0.008418 0.000000 0.000000 0.000000
# 4 0.000000 0.000000 0.000000 0.035230 0.000000 0.000000
# 5 0.000000 0.000000 0.000000 0.000000 0.035230 0.000000
# 6 0.000000 0.000000 0.000000 0.000000 0.000000 0.039940
#
#
# Mechanical properties :
#
#
# Convention : Reuss Voigt Hill
#
# Bulk Modulus (GPa) = 47.71070 72.70711 60.20890
# Shear Modulus (GPa) = 29.42036 33.49615 31.45825
#
# Velocity S-wave (km/s) = 3.77891 4.03218 3.90760
# Velocity P-wave (km/s) = 6.49602 7.54777 7.04156
#
# Compressibility (1/GPa) = 0.02095966
#
# Stress axis : x y z
#
# Youngs Moduli (GPa) = 70.56137 70.56137 118.79746
#
# Poissons Ratio (x) = -0.21012 0.64620
# Poissons Ratio (y) = -0.21012 0.64620
# Poissons Ratio (z) = 0.38382 0.38382
#
# Static dielectric constant tensor:
#      x y z
#    x 1.734780 0.000000 0.000000 
#    y 0.000000 1.734780 0.000000 
#    z 0.000000 0.000000 1.790490 
# 
# From -- ./inp_files/2741.got.cif
#   From: 2010.05.17/outbox.cif.g08.bks.cpg/sg89_2_cif.got.tgz:2741.got - 2010.06.03 19:15:31.
