data_PCOD9547480
_publ_section_title
;
Structure prediction by ZEFSAII (Michael W. Deem and Ramdas Pophale) SiO2 
 PCOD9547480
Probable space group: P 41 2 2
;
_chemical_formula_sum "Si O2"
_cell_formula_units_Z 48
_cell_length_a 10.857537
_cell_length_b 10.857537
_cell_length_c 23.117034
_cell_angle_alpha 90.000000
_cell_angle_beta 90.000000
_cell_angle_gamma 90.000000
_cell_volume 2725.177206
_symmetry_space_group_name_H-M "P 41 2 2"
_symmetry_group_IT_number 91
_symmetry_cell_setting 'tetragonal'
loop_
_space_group_symop_operation_xyz
x,y,z
-y,x,1/4+z
-x,-y,1/2+z
y,-x,3/4+z
x,-y,1/2-z
-x,y,-z
y,x,3/4-z
-y,-x,1/4-z
loop_
_atom_site_type_symbol
_atom_site_label
_atom_site_fract_x
_atom_site_fract_y
_atom_site_fract_z
Si Si1 0.305697 0.500000 0.750000
Si Si2 0.328909 0.730305 0.688817
Si Si3 0.746846 0.036647 0.032165
Si Si4 0.911218 0.000000 0.250000
Si Si5 0.122166 0.635796 0.830426
Si Si6 0.977771 0.507225 0.437775
Si Si7 0.891919 0.263867 0.901340
O O1 0.375451 0.623644 0.731890
O O2 0.217076 0.536677 0.803604
O O3 0.325056 0.674944 0.625000
O O4 0.184219 0.750981 0.704187
O O5 0.405059 0.855924 0.690656
O O6 0.721147 0.958104 0.089097
O O7 0.884356 0.005621 0.013879
O O8 0.665436 0.033116 0.974251
O O9 0.826190 0.967111 0.194766
O O10 0.048883 0.582967 0.884713
O O11 0.202515 0.756618 0.847889
O O12 0.000000 0.446687 0.500000
O O13 0.092401 0.599716 0.427261
#
# Coordination Sequence:
#
# PCOD9547480 Si02
#       7
#     4   8   8   4   8   8   8
#     4  10  18  32  50  82 116 128 178 246 282 340
#     4  11  17  30  54  83 108 140 177 237 300 332
#     4  10  18  31  52  79 114 138 179 225 287 346
#     4  10  16  28  50  84 108 140 172 228 282 344
#     4  10  22  33  52  86 111 149 195 227 291 350
#     4  12  20  35  57  81 117 150 188 243 294 347
#     4  11  19  33  53  82 114 146 185 230 295 356
#
# _framework density 17.613534999999999
#
# number of rings (size 3 to 8) (size 9 to 14) (size 15 to 20)
#    0.000    1.333    5.833    3.500    0.000    0.000 
#    1.500    0.000    0.000    2.000    0.000    0.000 
#    0.000    0.000    0.000    0.000    0.000    0.000 
#
# Total GULP energy -267416.228137 kJ/mol
# GULP energy per Si atom -5571.171420 kJ/mol
# Density = 1.757345 g / cm^3
# Si number density = 17.613535 Si / 1000 Ang^3
#
#
#
# Elastic Constant Matrix: (Units=GPa)
#
#
# Indices 1 2 3 4 5 6 
#
# 1 51.9060 5.3132 26.2505 0.0000 0.0000 0.0000
# 2 5.3132 51.9060 26.2505 0.0000 0.0000 0.0000
# 3 26.2505 26.2505 147.2487 0.0000 0.0000 0.0000
# 4 0.0000 0.0000 0.0000 28.8891 0.0000 0.0000
# 5 0.0000 0.0000 0.0000 0.0000 28.8891 0.0000
# 6 0.0000 0.0000 0.0000 0.0000 0.0000 12.5640
#
#
#
# Elastic Compliance Matrix: (Units=1/GPa)
#
#
# Indices 1 2 3 4 5 6 
#
# 1 0.021178 -0.000284 -0.003725 0.000000 0.000000 0.000000
# 2 -0.000284 0.021178 -0.003725 0.000000 0.000000 0.000000
# 3 -0.003725 -0.003725 0.008119 0.000000 0.000000 0.000000
# 4 0.000000 0.000000 0.000000 0.034615 0.000000 0.000000
# 5 0.000000 0.000000 0.000000 0.000000 0.034615 0.000000
# 6 0.000000 0.000000 0.000000 0.000000 0.000000 0.079592
#
#
# Mechanical properties :
#
#
# Convention : Reuss Voigt Hill
#
# Bulk Modulus (GPa) = 28.56450 40.74325 34.65387
# Shear Modulus (GPa) = 22.08127 26.95154 24.51641
#
# Velocity S-wave (km/s) = 3.54454 3.91597 3.73487
# Velocity P-wave (km/s) = 5.74493 6.60518 6.19002
#
# Compressibility (1/GPa) = 0.03500849
#
# Stress axis : x y z
#
# Youngs Moduli (GPa) = 47.21770 47.21775 123.16271
#
# Poissons Ratio (x) = 0.01341 0.45877
# Poissons Ratio (y) = 0.01341 0.45877
# Poissons Ratio (z) = 0.17588 0.17588
#
# Static dielectric constant tensor:
#      x y z
#    x 1.626080 0.000000 0.000000 
#    y 0.000000 1.626080 0.000000 
#    z 0.000000 0.000000 1.668870 
# 
# From -- ./inp_files/17286.got.cif
#   From: 2010.05.17/outbox.cif.g08.bks.cpg/sg91_9_cif.got.tgz:17286.got - 2010.06.03 19:20:03.
