data_PCOD9547333
_publ_section_title
;
Structure prediction by ZEFSAII (Michael W. Deem and Ramdas Pophale) SiO2 
 PCOD9547333
Probable space group: P 4 21 2
;
_chemical_formula_sum "Si O2"
_cell_formula_units_Z 44
_cell_length_a 8.669992
_cell_length_b 8.669992
_cell_length_c 29.883036
_cell_angle_alpha 90.000000
_cell_angle_beta 90.000000
_cell_angle_gamma 90.000000
_cell_volume 2246.270799
_symmetry_space_group_name_H-M "P 4 21 2"
_symmetry_group_IT_number 90
_symmetry_cell_setting 'tetragonal'
loop_
_space_group_symop_operation_xyz
x,y,z
1/2-y,1/2+x,z
-x,-y,z
1/2+y,1/2-x,z
1/2+x,1/2-y,-z
1/2-x,1/2+y,-z
y,x,-z
-y,-x,-z
loop_
_atom_site_type_symbol
_atom_site_label
_atom_site_fract_x
_atom_site_fract_y
_atom_site_fract_z
Si Si1 0.500000 0.500000 0.712206
Si Si2 0.255724 0.450732 0.789750
Si Si3 0.446684 0.257230 0.534411
Si Si4 0.924125 0.252474 0.035981
Si Si5 0.243321 0.984748 0.634027
Si Si6 0.749218 0.078082 0.860745
O O1 0.355783 0.465852 0.744665
O O2 0.500794 0.639598 0.677328
O O3 0.172490 0.616110 0.792547
O O4 0.369030 0.385326 0.828179
O O5 0.613446 0.174233 0.529393
O O6 0.383719 0.383719 0.500000
O O7 0.457746 0.326051 0.584645
O O8 0.815070 0.402864 0.030165
O O9 0.906907 0.201260 0.087472
O O10 0.871838 0.128163 0.000000
O O11 0.361429 0.843882 0.635590
O O12 0.596557 0.186094 0.853962
#
# Coordination Sequence:
#
# PCOD9547333 Si02
#       6
#     4   8   8   8   8   8
#     4  12  22  38  61  82 107 148 192 236 294 354
#     4  11  24  39  56  83 115 144 183 242 305 358
#     4   9  19  35  55  83 118 153 193 238 282 334
#     4   9  19  35  55  82 116 153 194 237 280 332
#     4   9  20  38  58  83 115 151 194 238 279 335
#     4   9  19  38  61  83 112 154 200 240 285 352
#
# _framework density 19.588021000000001
#
# number of rings (size 3 to 8) (size 9 to 14) (size 15 to 20)
#    0.000    2.364    0.000    4.364    0.000    5.091 
#    0.000    7.273    0.000    2.182    0.000    0.000 
#    0.000    0.000    0.000    0.000    0.000    0.000 
#
# Total GULP energy -245198.465319 kJ/mol
# GULP energy per Si atom -5572.692394 kJ/mol
# Density = 1.954344 g / cm^3
# Si number density = 19.588021 Si / 1000 Ang^3
#
#
#
# Elastic Constant Matrix: (Units=GPa)
#
#
# Indices 1 2 3 4 5 6 
#
# 1 82.5117 67.9548 87.2466 0.0000 0.0000 0.0000
# 2 67.9548 82.5122 87.2472 0.0000 0.0000 0.0000
# 3 87.2466 87.2472 169.4141 0.0000 0.0000 0.0000
# 4 0.0000 0.0000 0.0000 33.1769 0.0000 0.0000
# 5 0.0000 0.0000 0.0000 0.0000 33.1766 0.0000
# 6 0.0000 0.0000 0.0000 0.0000 0.0000 39.8513
#
#
#
# Elastic Compliance Matrix: (Units=1/GPa)
#
#
# Indices 1 2 3 4 5 6 
#
# 1 0.042598 -0.026097 -0.008498 0.000000 0.000000 0.000000
# 2 -0.026097 0.042598 -0.008498 0.000000 0.000000 0.000000
# 3 -0.008498 -0.008498 0.014655 0.000000 0.000000 0.000000
# 4 0.000000 0.000000 0.000000 0.030141 0.000000 0.000000
# 5 0.000000 0.000000 0.000000 0.000000 0.030142 0.000000
# 6 0.000000 0.000000 0.000000 0.000000 0.000000 0.025093
#
#
# Mechanical properties :
#
#
# Convention : Reuss Voigt Hill
#
# Bulk Modulus (GPa) = 73.17613 91.03725 82.10669
# Shear Modulus (GPa) = 18.11811 27.37360 22.74586
#
# Velocity S-wave (km/s) = 3.04461 3.74233 3.41135
# Velocity P-wave (km/s) = 7.05679 8.07776 7.58447
#
# Compressibility (1/GPa) = 0.01366566
#
# Stress axis : x y z
#
# Youngs Moduli (GPa) = 23.47551 23.47544 68.23532
#
# Poissons Ratio (x) = 0.61264 0.57983
# Poissons Ratio (y) = 0.61264 0.57985
# Poissons Ratio (z) = 0.19948 0.19949
#
# Static dielectric constant tensor:
#      x y z
#    x 1.723030 0.000000 0.000000 
#    y 0.000000 1.723030 0.000000 
#    z 0.000000 0.000000 1.675730 
# 
# From -- ./inp_files/3014.got.cif
#   From: 2010.05.17/outbox.cif.g08.bks.cpg/sg90_2_cif.got.tgz:3014.got - 2010.06.03 19:17:45.
