data_PCOD9547466
_publ_section_title
;
Structure prediction by ZEFSAII (Michael W. Deem and Ramdas Pophale) SiO2 
 PCOD9547466
Probable space group: P 41 2 2
;
_chemical_formula_sum "Si O2"
_cell_formula_units_Z 36
_cell_length_a 7.350035
_cell_length_b 7.350035
_cell_length_c 24.323406
_cell_angle_alpha 90.000000
_cell_angle_beta 90.000000
_cell_angle_gamma 90.000000
_cell_volume 1314.023715
_symmetry_space_group_name_H-M "P 41 2 2"
_symmetry_group_IT_number 91
_symmetry_cell_setting 'tetragonal'
loop_
_space_group_symop_operation_xyz
x,y,z
-y,x,1/4+z
-x,-y,1/2+z
y,-x,3/4+z
x,-y,1/2-z
-x,y,-z
y,x,3/4-z
-y,-x,1/4-z
loop_
_atom_site_type_symbol
_atom_site_label
_atom_site_fract_x
_atom_site_fract_y
_atom_site_fract_z
Si Si1 0.178804 0.519811 0.544209
Si Si2 0.154728 0.932021 0.568297
Si Si3 0.500000 0.681166 0.500000
Si Si4 0.930419 0.412814 0.342376
Si Si5 0.713707 0.213447 0.519696
O O1 0.104378 0.725350 0.549154
O O2 0.394124 0.564928 0.544736
O O3 0.136350 0.391657 0.595762
O O4 0.183275 0.406727 0.486769
O O5 0.042957 0.957044 0.625000
O O6 0.367172 0.934592 0.587352
O O7 0.172262 0.079452 0.520375
O O8 0.629397 0.802563 0.539235
O O9 0.116892 0.314009 0.327711
O O10 0.500000 0.219574 0.500000
#
# Coordination Sequence:
#
# PCOD9547466 Si02
#       5
#     8   8   4   8   8
#     4  10  17  25  47  78 110 149 192 232 296 358
#     4   8  15  28  45  70 109 148 176 239 295 328
#     4  10  14  28  46  72 116 156 178 250 308 330
#     4   9  16  27  43  73 113 147 184 238 295 343
#     4  10  16  27  46  74 114 142 189 245 280 350
#
# _framework density 27.396763
#
# number of rings (size 3 to 8) (size 9 to 14) (size 15 to 20)
#    0.000    2.667    6.667    2.000    0.000    0.000 
#    0.000    0.000    0.000    1.333    0.000    0.000 
#   60.000    0.000    0.000    0.000    0.000    0.000 
#
# Total GULP energy -200418.666477 kJ/mol
# GULP energy per Si atom -5567.185180 kJ/mol
# Density = 2.733441 g / cm^3
# Si number density = 27.396763 Si / 1000 Ang^3
#
#
#
# Elastic Constant Matrix: (Units=GPa)
#
#
# Indices 1 2 3 4 5 6 
#
# 1 112.1672 14.0539 43.6927 0.0000 0.0000 0.0000
# 2 14.0539 112.1671 43.6927 0.0000 0.0000 0.0000
# 3 43.6927 43.6927 121.7402 0.0000 0.0000 0.0000
# 4 0.0000 0.0000 0.0000 40.0115 0.0000 0.0000
# 5 0.0000 0.0000 0.0000 0.0000 40.0116 0.0000
# 6 0.0000 0.0000 0.0000 0.0000 0.0000 -1.8476
#
#
#
# Elastic Compliance Matrix: (Units=1/GPa)
#
#
# Indices 1 2 3 4 5 6 
#
# 1 0.010367 0.000175 -0.003784 0.000000 0.000000 0.000000
# 2 0.000175 0.010367 -0.003784 0.000000 0.000000 0.000000
# 3 -0.003784 -0.003784 0.010930 0.000000 0.000000 0.000000
# 4 0.000000 0.000000 0.000000 0.024993 0.000000 0.000000
# 5 0.000000 0.000000 0.000000 0.000000 0.024993 0.000000
# 6 0.000000 0.000000 0.000000 0.000000 0.000000 -0.541242
#
#
# Mechanical properties :
#
#
# Convention : Reuss Voigt Hill
#
# Bulk Modulus (GPa) = 59.24195 60.99478 60.11836
# Shear Modulus (GPa) = -11.38482 31.94411 10.27964
#
# Velocity S-wave (km/s) = -2.04072 3.41835 1.93914
# Velocity P-wave (km/s) = 4.01471 6.15565 5.19663
#
# Compressibility (1/GPa) = 0.01687993
#
# Stress axis : x y z
#
# Youngs Moduli (GPa) = 96.45838 96.45831 91.49090
#
# Poissons Ratio (x) = -0.01687 0.34616
# Poissons Ratio (y) = -0.01687 0.34616
# Poissons Ratio (z) = 0.36495 0.36495
#
# Static dielectric constant tensor:
#      x y z
#    x 2.258520 0.000000 0.000000 
#    y 0.000000 2.258520 0.000000 
#    z 0.000000 0.000000 2.284850 
# 
# From -- ./inp_files/7273.got.cif
#   From: 2010.05.17/outbox.cif.g08.bks.cpg/sg91_4_cif.got.tgz:7273.got - 2010.06.03 19:20:03.
