data_PCOD9547789
_publ_section_title
;
Structure prediction by ZEFSAII (Michael W. Deem and Ramdas Pophale) SiO2 
 PCOD9547789
Probable space group: P 41 2 2
;
_chemical_formula_sum "Si O2"
_cell_formula_units_Z 48
_cell_length_a 8.829187
_cell_length_b 8.829187
_cell_length_c 28.578770
_cell_angle_alpha 90.000000
_cell_angle_beta 90.000000
_cell_angle_gamma 90.000000
_cell_volume 2227.844957
_symmetry_space_group_name_H-M "P 41 2 2"
_symmetry_group_IT_number 91
_symmetry_cell_setting 'tetragonal'
loop_
_space_group_symop_operation_xyz
x,y,z
-y,x,1/4+z
-x,-y,1/2+z
y,-x,3/4+z
x,-y,1/2-z
-x,y,-z
y,x,3/4-z
-y,-x,1/4-z
loop_
_atom_site_type_symbol
_atom_site_label
_atom_site_fract_x
_atom_site_fract_y
_atom_site_fract_z
Si Si1 0.815949 0.680230 0.421736
Si Si2 0.067699 0.174520 0.607134
Si Si3 0.106507 0.627272 0.801776
Si Si4 0.011653 0.718618 0.706109
Si Si5 0.940517 0.453555 0.553538
Si Si6 0.443600 0.653753 0.759963
O O1 0.722556 0.722556 0.375000
O O2 0.827538 0.843346 0.446556
O O3 0.973552 0.589413 0.418570
O O4 0.723953 0.579324 0.458507
O O5 0.113508 0.272387 0.652215
O O6 0.974004 0.292946 0.576004
O O7 0.206671 0.117942 0.575010
O O8 0.965751 0.034249 0.625000
O O9 0.998904 0.703373 0.762161
O O10 0.053135 0.453853 0.808906
O O11 0.275190 0.623141 0.780120
O O12 0.000000 0.459979 0.500000
O O13 0.763993 0.481404 0.546911
O O14 0.530242 0.500000 0.750000
#
# Coordination Sequence:
#
# PCOD9547789 Si02
#       6
#     8   8   8   8   8   8
#     4  10  19  38  66 100 128 168 227 278 339 403
#     4  12  28  41  68  99 139 187 232 286 352 426
#     4  10  22  43  69 101 142 174 236 292 347 420
#     4  10  22  44  71 101 134 181 231 292 352 414
#     4  10  25  43  65  98 139 179 227 288 347 416
#     4  10  20  42  68  96 132 179 227 285 338 411
#
# _framework density 21.545487000000001
#
# number of rings (size 3 to 8) (size 9 to 14) (size 15 to 20)
#    0.000    1.667    3.333    1.500    9.333    0.000 
#    0.000    4.167    0.000    0.000    0.000    0.000 
#    0.000    0.000    0.000    0.000    0.000    0.000 
#
# Total GULP energy -267876.435743 kJ/mol
# GULP energy per Si atom -5580.759078 kJ/mol
# Density = 2.149645 g / cm^3
# Si number density = 21.545487 Si / 1000 Ang^3
#
#
#
# Elastic Constant Matrix: (Units=GPa)
#
#
# Indices 1 2 3 4 5 6 
#
# 1 95.7671 53.6069 45.5138 0.0000 0.0000 0.0000
# 2 53.6069 95.7679 45.5140 0.0000 0.0000 0.0000
# 3 45.5138 45.5140 121.7593 0.0000 0.0000 0.0000
# 4 0.0000 0.0000 0.0000 33.8056 0.0000 0.0000
# 5 0.0000 0.0000 0.0000 0.0000 33.8055 0.0000
# 6 0.0000 0.0000 0.0000 0.0000 0.0000 18.7105
#
#
#
# Elastic Compliance Matrix: (Units=1/GPa)
#
#
# Indices 1 2 3 4 5 6 
#
# 1 0.016194 -0.007525 -0.003241 0.000000 0.000000 0.000000
# 2 -0.007525 0.016194 -0.003241 0.000000 0.000000 0.000000
# 3 -0.003241 -0.003241 0.010636 0.000000 0.000000 0.000000
# 4 0.000000 0.000000 0.000000 0.029581 0.000000 0.000000
# 5 0.000000 0.000000 0.000000 0.000000 0.029581 0.000000
# 6 0.000000 0.000000 0.000000 0.000000 0.000000 0.053446
#
#
# Mechanical properties :
#
#
# Convention : Reuss Voigt Hill
#
# Bulk Modulus (GPa) = 66.61385 66.95151 66.78268
# Shear Modulus (GPa) = 26.50445 28.50831 27.50638
#
# Velocity S-wave (km/s) = 3.51117 3.64148 3.57692
# Velocity P-wave (km/s) = 6.88641 6.98731 6.93704
#
# Compressibility (1/GPa) = 0.01501189
#
# Stress axis : x y z
#
# Youngs Moduli (GPa) = 61.75054 61.75110 94.02344
#
# Poissons Ratio (x) = 0.46466 0.30470
# Poissons Ratio (y) = 0.46465 0.30470
# Poissons Ratio (z) = 0.20011 0.20011
#
# Static dielectric constant tensor:
#      x y z
#    x 1.812390 0.000000 0.000000 
#    y 0.000000 1.812390 0.000000 
#    z 0.000000 0.000000 1.820190 
# 
# From -- ./inp_files/18181.got.cif
#   From: 2010.05.17/outbox.cif.g08.bks.cpg/sg91_10_cif.got.tgz:18181.got - 2010.06.03 19:20:03.
