data_PCOD9547090
_publ_section_title
;
Structure prediction by ZEFSAII (Michael W. Deem and Ramdas Pophale) SiO2 
 PCOD9547090
Probable space group: P 4 21 2
;
_chemical_formula_sum "Si O2"
_cell_formula_units_Z 24
_cell_length_a 13.693603
_cell_length_b 13.693603
_cell_length_c 5.213035
_cell_angle_alpha 90.000000
_cell_angle_beta 90.000000
_cell_angle_gamma 90.000000
_cell_volume 977.521023
_symmetry_space_group_name_H-M "P 4 21 2"
_symmetry_group_IT_number 90
_symmetry_cell_setting 'tetragonal'
loop_
_space_group_symop_operation_xyz
x,y,z
1/2-y,1/2+x,z
-x,-y,z
1/2+y,1/2-x,z
1/2+x,1/2-y,-z
1/2-x,1/2+y,-z
y,x,-z
-y,-x,-z
loop_
_atom_site_type_symbol
_atom_site_label
_atom_site_fract_x
_atom_site_fract_y
_atom_site_fract_z
Si Si1 0.110310 0.952870 0.246194
Si Si2 0.875293 0.399567 0.340374
Si Si3 0.764681 0.373085 0.832732
O O1 0.111036 0.888964 0.500000
O O2 0.189855 0.036956 0.218629
O O3 0.115430 0.884571 0.000000
O O4 0.000000 0.000000 0.246448
O O5 0.867019 0.515034 0.394135
O O6 0.806863 0.349054 0.552858
O O7 0.850094 0.392851 0.039019
O O8 0.702828 0.297173 0.000000
#
# Coordination Sequence:
#
# PCOD9547090 Si02
#       3
#     8   8   8
#     4  10  19  34  59  96 130 182 209 248 347 444
#     4  11  26  49  72  96 136 196 241 281 350 418
#     4  12  23  42  75 102 139 175 235 302 350 409
#
# _framework density 24.551901000000001
#
# number of rings (size 3 to 8) (size 9 to 14) (size 15 to 20)
#    0.000    1.000    3.333    5.000    4.667    2.667 
#    0.000   16.667    0.000    0.000    0.000    0.000 
#    0.000    0.000    0.000    0.000    0.000    0.000 
#
# Total GULP energy -134169.504604 kJ/mol
# GULP energy per Si atom -5590.396025 kJ/mol
# Density = 2.449602 g / cm^3
# Si number density = 24.551901 Si / 1000 Ang^3
#
#
#
# Elastic Constant Matrix: (Units=GPa)
#
#
# Indices 1 2 3 4 5 6 
#
# 1 40.2469 43.0877 16.7160 0.0000 0.0000 0.0000
# 2 43.0877 40.2478 16.7174 0.0000 0.0000 0.0000
# 3 16.7160 16.7174 197.2405 0.0000 0.0000 0.0000
# 4 0.0000 0.0000 0.0000 26.4595 0.0000 0.0000
# 5 0.0000 0.0000 0.0000 0.0000 26.4590 0.0000
# 6 0.0000 0.0000 0.0000 0.0000 0.0000 10.8829
#
#
#
# Elastic Compliance Matrix: (Units=1/GPa)
#
#
# Indices 1 2 3 4 5 6 
#
# 1 -0.169826 0.182247 -0.001054 0.000000 0.000000 0.000000
# 2 0.182247 -0.169823 -0.001052 0.000000 0.000000 0.000000
# 3 -0.001054 -0.001052 0.005248 0.000000 0.000000 0.000000
# 4 0.000000 0.000000 0.000000 0.037794 0.000000 0.000000
# 5 0.000000 0.000000 0.000000 0.000000 0.037794 0.000000
# 6 0.000000 0.000000 0.000000 0.000000 0.000000 0.091887
#
#
# Mechanical properties :
#
#
# Convention : Reuss Voigt Hill
#
# Bulk Modulus (GPa) = 38.63774 47.86415 43.25095
# Shear Modulus (GPa) = -9.64167 26.17457 8.26645
#
# Velocity S-wave (km/s) = -1.98383 3.26865 1.83691
# Velocity P-wave (km/s) = 3.24405 5.81230 4.70674
#
# Compressibility (1/GPa) = 0.02588143
#
# Stress axis : x y z
#
# Youngs Moduli (GPa) = -5.88836 -5.88847 190.53389
#
# Poissons Ratio (x) = 1.07316 0.20080
# Poissons Ratio (y) = 1.07314 0.20039
# Poissons Ratio (z) = -0.00621 -0.00619
#
# Static dielectric constant tensor:
#      x y z
#    x 1.954200 0.000000 0.000000 
#    y 0.000000 1.954190 0.000000 
#    z 0.000000 0.000000 1.918120 
# 
# From -- ./inp_files/126.got.cif
#   From: 2010.05.17/outbox.cif.g08.bks.cpg/sg90_1_cif.got.tgz:126.got - 2010.06.03 19:17:45.
