data_PCOD9547535
_publ_section_title
;
Structure prediction by ZEFSAII (Michael W. Deem and Ramdas Pophale) SiO2 
 PCOD9547535
Probable space group: P 41 2 2
;
_chemical_formula_sum "Si O2"
_cell_formula_units_Z 56
_cell_length_a 15.154654
_cell_length_b 15.154654
_cell_length_c 13.985261
_cell_angle_alpha 90.000000
_cell_angle_beta 90.000000
_cell_angle_gamma 90.000000
_cell_volume 3211.904519
_symmetry_space_group_name_H-M "P 41 2 2"
_symmetry_group_IT_number 91
_symmetry_cell_setting 'tetragonal'
loop_
_space_group_symop_operation_xyz
x,y,z
-y,x,1/4+z
-x,-y,1/2+z
y,-x,3/4+z
x,-y,1/2-z
-x,y,-z
y,x,3/4-z
-y,-x,1/4-z
loop_
_atom_site_type_symbol
_atom_site_label
_atom_site_fract_x
_atom_site_fract_y
_atom_site_fract_z
Si Si1 0.401321 0.105112 0.536468
Si Si2 0.244557 0.287823 0.690872
Si Si3 0.688570 0.533521 0.973109
Si Si4 0.093023 0.399749 0.786825
Si Si5 0.431928 0.601785 0.413993
Si Si6 0.258941 0.730983 0.228061
Si Si7 0.391918 0.157342 0.749463
O O1 0.500000 0.118404 0.500000
O O2 0.346599 0.188891 0.499031
O O3 0.396076 0.103621 0.651278
O O4 0.374510 0.006431 0.506035
O O5 0.162370 0.330831 0.743576
O O6 0.319006 0.363930 0.684767
O O7 0.220512 0.260851 0.581366
O O8 0.298808 0.210429 0.743772
O O9 0.631680 0.520181 0.068683
O O10 0.775565 0.474883 0.988458
O O11 0.628370 0.484380 0.895069
O O12 0.706210 0.637243 0.962605
O O13 0.110316 0.500000 0.750000
O O14 0.106786 0.399872 0.901156
O O15 0.500000 0.595190 0.500000
O O16 0.230218 0.769783 0.125000
#
# Coordination Sequence:
#
# PCOD9547535 Si02
#       7
#     8   8   8   8   8   8   8
#     4  10  22  35  50  75 105 140 182 219 261 319
#     4   9  19  33  51  73  97 130 170 212 267 317
#     4  10  20  30  46  65  91 132 175 215 255 302
#     4  11  20  32  52  77 106 138 175 220 268 322
#     4  10  18  28  40  63  92 123 166 211 251 297
#     4  10  20  35  51  67  96 136 175 216 260 306
#     4  10  19  35  54  74 104 139 172 217 273 323
#
# _framework density 17.435137999999998
#
# number of rings (size 3 to 8) (size 9 to 14) (size 15 to 20)
#    0.000    2.000    0.000    6.000    0.000    4.000 
#    0.000    2.143    0.000    0.000    0.000    0.000 
#    0.000   27.429    0.000    0.000    0.000    0.000 
#
# Total GULP energy -312034.800288 kJ/mol
# GULP energy per Si atom -5572.050005 kJ/mol
# Density = 1.739545 g / cm^3
# Si number density = 17.435138 Si / 1000 Ang^3
#
#
#
# Elastic Constant Matrix: (Units=GPa)
#
#
# Indices 1 2 3 4 5 6 
#
# 1 57.5321 44.2812 17.9993 0.0000 0.0000 0.0000
# 2 44.2812 57.5312 17.9992 0.0000 0.0000 0.0000
# 3 17.9993 17.9992 71.0589 0.0000 0.0000 0.0000
# 4 0.0000 0.0000 0.0000 15.1660 0.0000 0.0000
# 5 0.0000 0.0000 0.0000 0.0000 15.1661 0.0000
# 6 0.0000 0.0000 0.0000 0.0000 0.0000 -6.5701
#
#
#
# Elastic Compliance Matrix: (Units=1/GPa)
#
#
# Indices 1 2 3 4 5 6 
#
# 1 0.043128 -0.032340 -0.002733 0.000000 0.000000 0.000000
# 2 -0.032340 0.043129 -0.002733 0.000000 0.000000 0.000000
# 3 -0.002733 -0.002733 0.015457 0.000000 0.000000 0.000000
# 4 0.000000 0.000000 0.000000 0.065937 0.000000 0.000000
# 5 0.000000 0.000000 0.000000 0.000000 0.065937 0.000000
# 6 0.000000 0.000000 0.000000 0.000000 0.000000 -0.152204
#
#
# Mechanical properties :
#
#
# Convention : Reuss Voigt Hill
#
# Bulk Modulus (GPa) = 38.30989 38.52016 38.41503
# Shear Modulus (GPa) = 30.17557 11.80855 20.99206
#
# Velocity S-wave (km/s) = 4.16472 2.60529 3.47365
# Velocity P-wave (km/s) = 6.71916 5.58493 6.17813
#
# Compressibility (1/GPa) = 0.02610292
#
# Stress axis : x y z
#
# Youngs Moduli (GPa) = 23.18664 23.18626 64.69480
#
# Poissons Ratio (x) = 0.74986 0.17678
# Poissons Ratio (y) = 0.74987 0.17679
# Poissons Ratio (z) = 0.06336 0.06336
#
# Static dielectric constant tensor:
#      x y z
#    x 1.615950 0.000000 0.000000 
#    y 0.000000 1.615950 0.000000 
#    z 0.000000 0.000000 1.650810 
# 
# From -- ./inp_files/11520.got.cif
#   From: 2010.05.17/outbox.cif.g08.bks.cpg/sg91_6_cif.got.tgz:11520.got - 2010.06.03 19:20:03.
