data_PCOD9547178
_publ_section_title
;
Structure prediction by ZEFSAII (Michael W. Deem and Ramdas Pophale) SiO2 
 PCOD9547178
Probable space group: P 4 21 2
;
_chemical_formula_sum "Si O2"
_cell_formula_units_Z 48
_cell_length_a 14.853885
_cell_length_b 14.853885
_cell_length_c 11.644459
_cell_angle_alpha 90.000000
_cell_angle_beta 90.000000
_cell_angle_gamma 90.000000
_cell_volume 2569.208976
_symmetry_space_group_name_H-M "P 4 21 2"
_symmetry_group_IT_number 90
_symmetry_cell_setting 'tetragonal'
loop_
_space_group_symop_operation_xyz
x,y,z
1/2-y,1/2+x,z
-x,-y,z
1/2+y,1/2-x,z
1/2+x,1/2-y,-z
1/2-x,1/2+y,-z
y,x,-z
-y,-x,-z
loop_
_atom_site_type_symbol
_atom_site_label
_atom_site_fract_x
_atom_site_fract_y
_atom_site_fract_z
Si Si1 0.716275 0.423088 0.049655
Si Si2 0.191092 0.655598 0.705039
Si Si3 0.596597 0.644717 0.872216
Si Si4 0.524944 0.750667 0.182335
Si Si5 0.819263 0.681960 0.236311
Si Si6 0.608558 0.104247 0.527477
O O1 0.644183 0.489502 0.111288
O O2 0.791071 0.390359 0.138573
O O3 0.662872 0.337129 0.000000
O O4 0.756261 0.480888 0.944284
O O5 0.109207 0.684483 0.790084
O O6 0.224927 0.555918 0.733389
O O7 0.270899 0.725430 0.726226
O O8 0.154495 0.659237 0.575692
O O9 0.649549 0.565723 0.806370
O O10 0.621451 0.739737 0.816207
O O11 0.638867 0.638867 0.000000
O O12 0.860935 0.636195 0.347591
O O13 0.502318 0.122374 0.515126
#
# Coordination Sequence:
#
# PCOD9547178 Si02
#       6
#     8   8   8   8   8   8
#     4  11  21  37  61  89 123 158 194 243 300 362
#     4  11  21  41  62  87 117 157 206 250 294 357
#     4   9  21  37  57  88 124 155 195 242 292 362
#     4  10  22  36  62  89 117 155 200 245 294 351
#     4  11  22  38  61  89 121 161 196 245 309 363
#     4  11  23  40  62  85 118 156 203 256 302 354
#
# _framework density 18.682793
#
# number of rings (size 3 to 8) (size 9 to 14) (size 15 to 20)
#    0.000    1.500    3.333    2.000    4.667    3.333 
#    0.000    0.000    0.000    0.000    0.000    2.333 
#    0.000    0.000    0.000    0.000    0.000    0.000 
#
# Total GULP energy -267921.998351 kJ/mol
# GULP energy per Si atom -5581.708299 kJ/mol
# Density = 1.864027 g / cm^3
# Si number density = 18.682793 Si / 1000 Ang^3
#
#
#
# Elastic Constant Matrix: (Units=GPa)
#
#
# Indices 1 2 3 4 5 6 
#
# 1 -304.2087 330.4612 14.7529 0.0000 0.0000 0.0000
# 2 330.4612 -304.3137 14.7371 0.0000 0.0000 0.0000
# 3 14.7529 14.7371 83.3773 0.0000 0.0000 0.0000
# 4 0.0000 0.0000 0.0000 29.8433 0.0000 0.0000
# 5 0.0000 0.0000 0.0000 0.0000 29.8431 0.0000
# 6 0.0000 0.0000 0.0000 0.0000 0.0000 12.3732
#
#
#
# Elastic Compliance Matrix: (Units=1/GPa)
#
#
# Indices 1 2 3 4 5 6 
#
# 1 0.023043 0.024615 -0.008428 0.000000 0.000000 0.000000
# 2 0.024615 0.023035 -0.008427 0.000000 0.000000 0.000000
# 3 -0.008428 -0.008427 0.014974 0.000000 0.000000 0.000000
# 4 0.000000 0.000000 0.000000 0.033508 0.000000 0.000000
# 5 0.000000 0.000000 0.000000 0.000000 0.033509 0.000000
# 6 0.000000 0.000000 0.000000 0.000000 0.000000 0.080820
#
#
# Mechanical properties :
#
#
# Convention : Reuss Voigt Hill
#
# Bulk Modulus (GPa) = 13.05960 21.63970 17.34965
# Shear Modulus (GPa) = 22.84212 -44.59450 -10.87619
#
# Velocity S-wave (km/s) = 3.50040 -4.89092 -2.41540
# Velocity P-wave (km/s) = 4.83140 4.50411 1.23602
#
# Compressibility (1/GPa) = 0.07657201
#
# Stress axis : x y z
#
# Youngs Moduli (GPa) = 43.39757 43.41163 66.78076
#
# Poissons Ratio (x) = -1.06856 0.56282
# Poissons Ratio (y) = -1.06821 0.56275
# Poissons Ratio (z) = 0.36575 0.36582
#
# Static dielectric constant tensor:
#      x y z
#    x 1.650460 0.000000 0.000000 
#    y 0.000000 1.650460 0.000000 
#    z 0.000000 0.000000 1.642210 
# 
# From -- ./inp_files/2150.got.cif
#   From: 2010.05.17/outbox.cif.g08.bks.cpg/sg90_2_cif.got.tgz:2150.got - 2010.06.03 19:17:45.
