data_PCOD9547709
_publ_section_title
;
Structure prediction by ZEFSAII (Michael W. Deem and Ramdas Pophale) SiO2 
 PCOD9547709
Probable space group: P 41 2 2
;
_chemical_formula_sum "Si O2"
_cell_formula_units_Z 24
_cell_length_a 15.311726
_cell_length_b 15.311726
_cell_length_c 4.999301
_cell_angle_alpha 90.000000
_cell_angle_beta 90.000000
_cell_angle_gamma 90.000000
_cell_volume 1172.080886
_symmetry_space_group_name_H-M "P 41 2 2"
_symmetry_group_IT_number 91
_symmetry_cell_setting 'tetragonal'
loop_
_space_group_symop_operation_xyz
x,y,z
-y,x,1/4+z
-x,-y,1/2+z
y,-x,3/4+z
x,-y,1/2-z
-x,y,-z
y,x,3/4-z
-y,-x,1/4-z
loop_
_atom_site_type_symbol
_atom_site_label
_atom_site_fract_x
_atom_site_fract_y
_atom_site_fract_z
Si Si1 0.094010 0.178372 0.622495
Si Si2 0.668621 0.818368 0.386855
Si Si3 0.593734 0.257419 0.612630
O O1 0.160929 0.160929 0.375000
O O2 0.101972 0.276170 0.742660
O O3 0.000000 0.160781 0.500000
O O4 0.117092 0.117092 0.875000
O O5 0.743621 0.743621 0.375000
O O6 0.597383 0.785209 0.596547
O O7 0.629281 0.816262 0.093065
O O8 0.500000 0.285132 0.500000
O O9 0.660825 0.339176 0.625000
#
# Coordination Sequence:
#
# PCOD9547709 Si02
#       3
#     8   8   8
#     4  11  22  37  58  84 113 146 183 225 274 328
#     4   9  18  34  54  76 104 144 189 220 258 328
#     4  10  19  33  54  80 109 142 182 229 278 328
#
# _framework density 20.476402
#
# number of rings (size 3 to 8) (size 9 to 14) (size 15 to 20)
#    0.000    2.000    0.000    7.000    0.000    1.333 
#    0.000    5.000    0.000    4.000    0.000    0.000 
#    0.000    0.000    0.000    0.000    0.000    0.000 
#
# Total GULP energy -133817.771568 kJ/mol
# GULP energy per Si atom -5575.740482 kJ/mol
# Density = 2.042980 g / cm^3
# Si number density = 20.476402 Si / 1000 Ang^3
#
#
#
# Elastic Constant Matrix: (Units=GPa)
#
#
# Indices 1 2 3 4 5 6 
#
# 1 29.6520 72.8659 37.0398 0.0000 0.0000 0.0000
# 2 72.8659 29.6472 37.0409 0.0000 0.0000 0.0000
# 3 37.0398 37.0409 129.9609 0.0000 0.0000 0.0000
# 4 0.0000 0.0000 0.0000 36.6757 0.0000 0.0000
# 5 0.0000 0.0000 0.0000 0.0000 36.6760 0.0000
# 6 0.0000 0.0000 0.0000 0.0000 0.0000 11.6315
#
#
#
# Elastic Compliance Matrix: (Units=1/GPa)
#
#
# Indices 1 2 3 4 5 6 
#
# 1 -0.005427 0.017712 -0.003502 0.000000 0.000000 0.000000
# 2 0.017712 -0.005428 -0.003501 0.000000 0.000000 0.000000
# 3 -0.003502 -0.003501 0.009690 0.000000 0.000000 0.000000
# 4 0.000000 0.000000 0.000000 0.027266 0.000000 0.000000
# 5 0.000000 0.000000 0.000000 0.000000 0.027266 0.000000
# 6 0.000000 0.000000 0.000000 0.000000 0.000000 0.085973
#
#
# Mechanical properties :
#
#
# Convention : Reuss Voigt Hill
#
# Bulk Modulus (GPa) = 49.37109 53.68371 51.52740
# Shear Modulus (GPa) = 40.10476 19.81755 29.96115
#
# Velocity S-wave (km/s) = 4.43039 3.11436 3.82933
# Velocity P-wave (km/s) = 7.09470 6.26152 6.69109
#
# Compressibility (1/GPa) = 0.02025477
#
# Stress axis : x y z
#
# Youngs Moduli (GPa) = -184.27965 -184.22631 103.19444
#
# Poissons Ratio (x) = 3.26303 0.36135
# Poissons Ratio (y) = 3.26398 0.36128
# Poissons Ratio (z) = -0.64528 -0.64497
#
# Static dielectric constant tensor:
#      x y z
#    x 1.769610 0.000000 0.000000 
#    y 0.000000 1.769610 0.000000 
#    z 0.000000 0.000000 1.742820 
# 
# From -- ./inp_files/231.got.cif
#   From: 2010.05.17/outbox.cif.g08.bks.cpg/sg91_1_cif.got.tgz:231.got - 2010.06.03 19:20:03.
