data_PCOD9547918
_publ_section_title
;
Structure prediction by ZEFSAII (Michael W. Deem and Ramdas Pophale) SiO2 
 PCOD9547918
Probable space group: P 41 2 2
;
_chemical_formula_sum "Si O2"
_cell_formula_units_Z 56
_cell_length_a 14.182588
_cell_length_b 14.182588
_cell_length_c 14.177060
_cell_angle_alpha 90.000000
_cell_angle_beta 90.000000
_cell_angle_gamma 90.000000
_cell_volume 2851.656109
_symmetry_space_group_name_H-M "P 41 2 2"
_symmetry_group_IT_number 91
_symmetry_cell_setting 'tetragonal'
loop_
_space_group_symop_operation_xyz
x,y,z
-y,x,1/4+z
-x,-y,1/2+z
y,-x,3/4+z
x,-y,1/2-z
-x,y,-z
y,x,3/4-z
-y,-x,1/4-z
loop_
_atom_site_type_symbol
_atom_site_label
_atom_site_fract_x
_atom_site_fract_y
_atom_site_fract_z
Si Si1 0.806634 0.252902 0.319287
Si Si2 0.871283 0.608456 0.758035
Si Si3 0.296382 0.723756 0.231344
Si Si4 0.521346 0.173769 0.788073
Si Si5 0.096041 0.663267 0.443680
Si Si6 0.290072 0.585176 0.694146
Si Si7 0.980112 0.675919 0.100344
O O1 0.783327 0.256371 0.431292
O O2 0.751572 0.162738 0.280337
O O3 0.759263 0.341592 0.265753
O O4 0.918622 0.265560 0.323963
O O5 0.893961 0.500000 0.750000
O O6 0.758157 0.624903 0.751448
O O7 0.916489 0.660838 0.668416
O O8 0.922682 0.644798 0.852022
O O9 0.260409 0.739591 0.125000
O O10 0.407467 0.747515 0.243212
O O11 0.436744 0.145340 0.718841
O O12 0.468001 0.213810 0.879477
O O13 0.585124 0.084825 0.821068
O O14 0.000000 0.667449 0.500000
O O15 0.339709 0.500000 0.750000
O O16 0.358325 0.641676 0.625000
O O17 0.000000 0.724888 0.000000
#
# Coordination Sequence:
#
# PCOD9547918 Si02
#       7
#     8   8   8   8   8   8   8
#     4  10  23  39  63  92 127 170 210 265 335 394
#     4  11  22  34  56  87 126 162 207 262 325 374
#     4  10  20  37  57  83 126 167 201 259 320 381
#     4  11  22  39  64  90 131 165 216 269 325 386
#     4  11  23  38  60  97 127 158 210 274 329 389
#     4  12  23  42  67  86 130 178 223 267 324 398
#     4  11  22  37  61  94 125 167 215 266 324 392
#
# _framework density 19.637712000000001
#
# number of rings (size 3 to 8) (size 9 to 14) (size 15 to 20)
#    0.000    1.143    4.286    4.714    4.000    0.000 
#    0.000    1.429    0.000    0.000    0.000   34.000 
#    0.000    0.000    0.000    0.000    0.000    0.000 
#
# Total GULP energy -311883.018561 kJ/mol
# GULP energy per Si atom -5569.339617 kJ/mol
# Density = 1.959302 g / cm^3
# Si number density = 19.637712 Si / 1000 Ang^3
#
#
#
# Elastic Constant Matrix: (Units=GPa)
#
#
# Indices 1 2 3 4 5 6 
#
# 1 81.7572 54.4207 32.3217 0.0000 0.0000 0.0000
# 2 54.4207 81.7573 32.3213 0.0000 0.0000 0.0000
# 3 32.3217 32.3213 98.2440 0.0000 0.0000 0.0000
# 4 0.0000 0.0000 0.0000 27.2298 0.0000 0.0000
# 5 0.0000 0.0000 0.0000 0.0000 27.2295 0.0000
# 6 0.0000 0.0000 0.0000 0.0000 0.0000 16.7074
#
#
#
# Elastic Compliance Matrix: (Units=1/GPa)
#
#
# Indices 1 2 3 4 5 6 
#
# 1 0.022642 -0.013939 -0.002863 0.000000 0.000000 0.000000
# 2 -0.013939 0.022642 -0.002863 0.000000 0.000000 0.000000
# 3 -0.002863 -0.002863 0.012063 0.000000 0.000000 0.000000
# 4 0.000000 0.000000 0.000000 0.036724 0.000000 0.000000
# 5 0.000000 0.000000 0.000000 0.000000 0.036725 0.000000
# 6 0.000000 0.000000 0.000000 0.000000 0.000000 0.059854
#
#
# Mechanical properties :
#
#
# Convention : Reuss Voigt Hill
#
# Bulk Modulus (GPa) = 55.50847 55.54289 55.52568
# Shear Modulus (GPa) = 21.18781 23.74635 22.46708
#
# Velocity S-wave (km/s) = 3.28828 3.48116 3.38609
# Velocity P-wave (km/s) = 6.53794 6.67107 6.60484
#
# Compressibility (1/GPa) = 0.01801527
#
# Stress axis : x y z
#
# Youngs Moduli (GPa) = 44.16611 44.16635 82.90120
#
# Poissons Ratio (x) = 0.61565 0.23736
# Poissons Ratio (y) = 0.61565 0.23734
# Poissons Ratio (z) = 0.12645 0.12644
#
# Static dielectric constant tensor:
#      x y z
#    x 1.724030 0.000000 0.000000 
#    y 0.000000 1.724030 0.000000 
#    z 0.000000 0.000000 1.768560 
# 
# From -- ./inp_files/3937.got.cif
#   From: 2010.05.17/outbox.cif.g08.bks.cpg/sg91_2_cif.got.tgz:3937.got - 2010.06.03 19:20:03.
