data_PCOD9547774
_publ_section_title
;
Structure prediction by ZEFSAII (Michael W. Deem and Ramdas Pophale) SiO2 
 PCOD9547774
Probable space group: P 41 2 2
;
_chemical_formula_sum "Si O2"
_cell_formula_units_Z 44
_cell_length_a 8.909503
_cell_length_b 8.909503
_cell_length_c 27.536081
_cell_angle_alpha 90.000000
_cell_angle_beta 90.000000
_cell_angle_gamma 90.000000
_cell_volume 2185.793284
_symmetry_space_group_name_H-M "P 41 2 2"
_symmetry_group_IT_number 91
_symmetry_cell_setting 'tetragonal'
loop_
_space_group_symop_operation_xyz
x,y,z
-y,x,1/4+z
-x,-y,1/2+z
y,-x,3/4+z
x,-y,1/2-z
-x,y,-z
y,x,3/4-z
-y,-x,1/4-z
loop_
_atom_site_type_symbol
_atom_site_label
_atom_site_fract_x
_atom_site_fract_y
_atom_site_fract_z
Si Si1 0.567739 0.344633 0.224317
Si Si2 0.729339 0.912112 0.918157
Si Si3 0.165596 0.681989 0.012689
Si Si4 0.833849 0.467090 0.893849
Si Si5 0.524063 0.524063 0.375000
Si Si6 0.137477 0.787262 0.462495
O O1 0.520911 0.500000 0.250000
O O2 0.423414 0.235409 0.221878
O O3 0.601242 0.398554 0.170769
O O4 0.696906 0.263052 0.255616
O O5 0.830990 0.830990 0.875000
O O6 0.730109 0.810205 0.966404
O O7 0.561843 0.918976 0.896940
O O8 0.798560 0.064960 0.937363
O O9 0.157029 0.570958 0.058454
O O10 0.000000 0.737899 0.000000
O O11 0.657706 0.453778 0.878632
O O12 0.901632 0.315663 0.915567
O O13 0.000000 0.810517 0.500000
#
# Coordination Sequence:
#
# PCOD9547774 Si02
#       6
#     8   8   8   8   4   8
#     4  11  21  40  63  93 132 171 216 276 329 392
#     4  10  21  42  68  94 125 172 226 268 315 405
#     4  10  19  37  65  89 123 169 214 263 327 387
#     4  10  19  39  65  92 123 168 221 261 309 397
#     4  12  20  38  70  92 122 174 222 264 322 400
#     4  11  24  42  63  95 144 169 209 285 342 387
#
# _framework density 20.129991
#
# number of rings (size 3 to 8) (size 9 to 14) (size 15 to 20)
#    0.000    1.455    6.364    2.727    0.000    4.364 
#    1.636    2.727    0.000    0.000    0.000    0.000 
#    0.000    0.000    0.000    0.000    0.000    0.000 
#
# Total GULP energy -245089.315350 kJ/mol
# GULP energy per Si atom -5570.211712 kJ/mol
# Density = 2.008417 g / cm^3
# Si number density = 20.129991 Si / 1000 Ang^3
#
#
#
# Elastic Constant Matrix: (Units=GPa)
#
#
# Indices 1 2 3 4 5 6 
#
# 1 82.9348 -18.7471 29.6275 0.0000 0.0000 0.0000
# 2 -18.7471 82.9348 29.6275 0.0000 0.0000 0.0000
# 3 29.6275 29.6275 61.5834 0.0000 0.0000 0.0000
# 4 0.0000 0.0000 0.0000 47.5970 0.0000 0.0000
# 5 0.0000 0.0000 0.0000 0.0000 47.5970 0.0000
# 6 0.0000 0.0000 0.0000 0.0000 0.0000 9.1926
#
#
#
# Elastic Compliance Matrix: (Units=1/GPa)
#
#
# Indices 1 2 3 4 5 6 
#
# 1 0.018931 0.009096 -0.013483 0.000000 0.000000 0.000000
# 2 0.009096 0.018931 -0.013483 0.000000 0.000000 0.000000
# 3 -0.013483 -0.013483 0.029212 0.000000 0.000000 0.000000
# 4 0.000000 0.000000 0.000000 0.021010 0.000000 0.000000
# 5 0.000000 0.000000 0.000000 0.000000 0.021010 0.000000
# 6 0.000000 0.000000 0.000000 0.000000 0.000000 0.108783
#
#
# Mechanical properties :
#
#
# Convention : Reuss Voigt Hill
#
# Bulk Modulus (GPa) = 31.91714 34.27431 33.09572
# Shear Modulus (GPa) = 18.93504 33.34032 26.13768
#
# Velocity S-wave (km/s) = 3.07031 4.07412 3.60730
# Velocity P-wave (km/s) = 5.33470 6.26057 5.81609
#
# Compressibility (1/GPa) = 0.03133113
#
# Stress axis : x y z
#
# Youngs Moduli (GPa) = 52.82460 52.82460 34.23279
#
# Poissons Ratio (x) = -0.48049 0.46158
# Poissons Ratio (y) = -0.48049 0.46158
# Poissons Ratio (z) = 0.71226 0.71226
#
# Static dielectric constant tensor:
#      x y z
#    x 1.819630 0.000000 0.000000 
#    y 0.000000 1.819630 0.000000 
#    z 0.000000 0.000000 1.772110 
# 
# From -- ./inp_files/18070.got.cif
#   From: 2010.05.17/outbox.cif.g08.bks.cpg/sg91_10_cif.got.tgz:18070.got - 2010.06.03 19:20:03.
