data_PCOD9547585
_publ_section_title
;
Structure prediction by ZEFSAII (Michael W. Deem and Ramdas Pophale) SiO2 
 PCOD9547585
Probable space group: P 41 2 2
;
_chemical_formula_sum "Si O2"
_cell_formula_units_Z 36
_cell_length_a 14.273376
_cell_length_b 14.273376
_cell_length_c 9.507031
_cell_angle_alpha 90.000000
_cell_angle_beta 90.000000
_cell_angle_gamma 90.000000
_cell_volume 1936.860414
_symmetry_space_group_name_H-M "P 41 2 2"
_symmetry_group_IT_number 91
_symmetry_cell_setting 'tetragonal'
loop_
_space_group_symop_operation_xyz
x,y,z
-y,x,1/4+z
-x,-y,1/2+z
y,-x,3/4+z
x,-y,1/2-z
-x,y,-z
y,x,3/4-z
-y,-x,1/4-z
loop_
_atom_site_type_symbol
_atom_site_label
_atom_site_fract_x
_atom_site_fract_y
_atom_site_fract_z
Si Si1 0.500000 0.013378 0.000000
Si Si2 0.087514 0.330609 0.599324
Si Si3 0.159090 0.590221 0.401781
Si Si4 0.245817 0.907987 0.652927
Si Si5 0.243068 0.386658 0.397234
O O1 0.555326 0.943849 0.104080
O O2 0.437055 0.075927 0.098942
O O3 0.072735 0.276305 0.743491
O O4 0.184192 0.327916 0.513092
O O5 0.000000 0.308858 0.500000
O O6 0.149075 0.668990 0.520592
O O7 0.222802 0.497024 0.428647
O O8 0.196854 0.631149 0.254945
O O9 0.155203 0.844798 0.625000
O O10 0.230306 0.000000 0.750000
O O11 0.347992 0.347992 0.375000
#
# Coordination Sequence:
#
# PCOD9547585 Si02
#       5
#     4   8   8   8   8
#     4  10  18  32  58  94 118 146 212 262 320 356
#     4  12  20  32  59  88 121 154 203 259 320 376
#     4  10  20  37  60  86 127 157 210 262 320 380
#     4  12  25  42  62  90 125 164 212 269 325 385
#     4  10  20  34  56  89 125 161 202 256 324 379
#
# _framework density 18.586780999999998
#
# number of rings (size 3 to 8) (size 9 to 14) (size 15 to 20)
#    0.000    1.333    6.667    2.667    0.000    0.000 
#    0.000    1.111    0.000    5.333    0.000    0.000 
#    0.000    0.000    0.000    0.000    0.000    0.000 
#
# Total GULP energy -200541.807505 kJ/mol
# GULP energy per Si atom -5570.605764 kJ/mol
# Density = 1.854448 g / cm^3
# Si number density = 18.586781 Si / 1000 Ang^3
#
#
#
# Elastic Constant Matrix: (Units=GPa)
#
#
# Indices 1 2 3 4 5 6 
#
# 1 82.8079 57.7865 48.0594 0.0000 0.0000 0.0000
# 2 57.7865 82.8041 48.0579 0.0000 0.0000 0.0000
# 3 48.0594 48.0579 147.5343 0.0000 0.0000 0.0000
# 4 0.0000 0.0000 0.0000 9.4576 0.0000 0.0000
# 5 0.0000 0.0000 0.0000 0.0000 9.4580 0.0000
# 6 0.0000 0.0000 0.0000 0.0000 0.0000 40.9872
#
#
#
# Elastic Compliance Matrix: (Units=1/GPa)
#
#
# Indices 1 2 3 4 5 6 
#
# 1 0.024559 -0.015409 -0.002981 0.000000 0.000000 0.000000
# 2 -0.015409 0.024560 -0.002981 0.000000 0.000000 0.000000
# 3 -0.002981 -0.002981 0.008720 0.000000 0.000000 0.000000
# 4 0.000000 0.000000 0.000000 0.105736 0.000000 0.000000
# 5 0.000000 0.000000 0.000000 0.000000 0.105731 0.000000
# 6 0.000000 0.000000 0.000000 0.000000 0.000000 0.024398
#
#
# Mechanical properties :
#
#
# Convention : Reuss Voigt Hill
#
# Bulk Modulus (GPa) = 66.23334 68.99488 67.61411
# Shear Modulus (GPa) = 14.64226 22.59672 18.61949
#
# Velocity S-wave (km/s) = 2.80978 3.49053 3.16849
# Velocity P-wave (km/s) = 6.79989 7.31068 7.05991
#
# Compressibility (1/GPa) = 0.01509814
#
# Stress axis : x y z
#
# Youngs Moduli (GPa) = 40.71801 40.71632 114.67858
#
# Poissons Ratio (x) = 0.62740 0.34183
# Poissons Ratio (y) = 0.62743 0.34182
# Poissons Ratio (z) = 0.12137 0.12136
#
# Static dielectric constant tensor:
#      x y z
#    x 1.704180 0.000000 0.000000 
#    y 0.000000 1.704180 0.000000 
#    z 0.000000 0.000000 1.775940 
# 
# From -- ./inp_files/2209.got.cif
#   From: 2010.05.17/outbox.cif.g08.bks.cpg/sg91_2_cif.got.tgz:2209.got - 2010.06.03 19:20:03.
