data_PCOD9547559
_publ_section_title
;
Structure prediction by ZEFSAII (Michael W. Deem and Ramdas Pophale) SiO2 
 PCOD9547559
Probable space group: P 41 2 2
;
_chemical_formula_sum "Si O2"
_cell_formula_units_Z 48
_cell_length_a 11.139931
_cell_length_b 11.139931
_cell_length_c 17.951127
_cell_angle_alpha 90.000000
_cell_angle_beta 90.000000
_cell_angle_gamma 90.000000
_cell_volume 2227.700084
_symmetry_space_group_name_H-M "P 41 2 2"
_symmetry_group_IT_number 91
_symmetry_cell_setting 'tetragonal'
loop_
_space_group_symop_operation_xyz
x,y,z
-y,x,1/4+z
-x,-y,1/2+z
y,-x,3/4+z
x,-y,1/2-z
-x,y,-z
y,x,3/4-z
-y,-x,1/4-z
loop_
_atom_site_type_symbol
_atom_site_label
_atom_site_fract_x
_atom_site_fract_y
_atom_site_fract_z
Si Si1 0.705866 0.210524 0.325499
Si Si2 0.749777 0.414472 0.074392
Si Si3 0.580864 0.096124 0.928064
Si Si4 0.385086 0.548767 0.325949
Si Si5 0.863932 0.039774 0.412635
Si Si6 0.787400 0.055965 0.587089
O O1 0.642251 0.190900 0.247630
O O2 0.814120 0.305637 0.309335
O O3 0.619367 0.285790 0.378590
O O4 0.751730 0.091563 0.366685
O O5 0.689312 0.310689 0.125000
O O6 0.844625 0.496046 0.117265
O O7 0.639119 0.504412 0.055782
O O8 0.647790 0.973712 0.909296
O O9 0.500000 0.085469 0.000000
O O10 0.333004 0.500000 0.250000
O O11 0.444908 0.444908 0.375000
O O12 0.835025 0.037852 0.501263
O O13 0.964912 0.140033 0.392229
O O14 0.919165 0.919165 0.375000
O O15 0.817844 0.182157 0.625000
#
# Coordination Sequence:
#
# PCOD9547559 Si02
#       6
#     8   8   8   8   8   8
#     4  10  20  35  61  96 129 180 222 266 335 403
#     4  10  18  31  58  94 139 175 212 262 331 400
#     4  10  20  36  60 101 139 169 215 277 334 398
#     4  10  18  30  54  88 131 181 223 254 311 402
#     4  10  21  42  68  97 125 166 236 292 346 399
#     4  10  21  42  72  94 125 175 228 284 346 403
#
# _framework density 21.546886000000001
#
# number of rings (size 3 to 8) (size 9 to 14) (size 15 to 20)
#    0.000    2.000    3.333    2.000    0.000    0.000 
#    9.000    2.500   22.000    0.000    0.000    0.000 
#    0.000    0.000    0.000    0.500    0.000    0.167 
#
# Total GULP energy -268063.597353 kJ/mol
# GULP energy per Si atom -5584.658278 kJ/mol
# Density = 2.149784 g / cm^3
# Si number density = 21.546886 Si / 1000 Ang^3
#
#
#
# Elastic Constant Matrix: (Units=GPa)
#
#
# Indices 1 2 3 4 5 6 
#
# 1 80.8561 41.5245 49.8825 0.0000 0.0000 0.0000
# 2 41.5245 80.8562 49.8826 0.0000 0.0000 0.0000
# 3 49.8825 49.8826 119.4645 0.0000 0.0000 0.0000
# 4 0.0000 0.0000 0.0000 13.9775 0.0000 0.0000
# 5 0.0000 0.0000 0.0000 0.0000 13.9766 0.0000
# 6 0.0000 0.0000 0.0000 0.0000 0.0000 1.5917
#
#
#
# Elastic Compliance Matrix: (Units=1/GPa)
#
#
# Indices 1 2 3 4 5 6 
#
# 1 0.018906 -0.006518 -0.005173 0.000000 0.000000 0.000000
# 2 -0.006518 0.018906 -0.005173 0.000000 0.000000 0.000000
# 3 -0.005173 -0.005173 0.012690 0.000000 0.000000 0.000000
# 4 0.000000 0.000000 0.000000 0.071543 0.000000 0.000000
# 5 0.000000 0.000000 0.000000 0.000000 0.071548 0.000000
# 6 0.000000 0.000000 0.000000 0.000000 0.000000 0.628273
#
#
# Mechanical properties :
#
#
# Convention : Reuss Voigt Hill
#
# Bulk Modulus (GPa) = 59.60956 62.63954 61.12455
# Shear Modulus (GPa) = 5.80594 15.23498 10.52046
#
# Velocity S-wave (km/s) = 1.64329 2.66195 2.21206
# Velocity P-wave (km/s) = 5.59693 6.21147 5.91219
#
# Compressibility (1/GPa) = 0.01677583
#
# Stress axis : x y z
#
# Youngs Moduli (GPa) = 52.89217 52.89226 78.80012
#
# Poissons Ratio (x) = 0.34477 0.40760
# Poissons Ratio (y) = 0.34477 0.40760
# Poissons Ratio (z) = 0.27359 0.27359
#
# Static dielectric constant tensor:
#      x y z
#    x 1.850250 0.000000 0.000000 
#    y 0.000000 1.850250 0.000000 
#    z 0.000000 0.000000 1.813880 
# 
# From -- ./inp_files/5603.got.cif
#   From: 2010.05.17/outbox.cif.g08.bks.cpg/sg91_3_cif.got.tgz:5603.got - 2010.06.03 19:20:03.
