data_PCOD9547457
_publ_section_title
;
Structure prediction by ZEFSAII (Michael W. Deem and Ramdas Pophale) SiO2 
 PCOD9547457
Probable space group: P 4 21 2
;
_chemical_formula_sum "Si O2"
_cell_formula_units_Z 38
_cell_length_a 9.000000
_cell_length_b 9.000000
_cell_length_c 24.000000
_cell_angle_alpha 90.000000
_cell_angle_beta 90.000000
_cell_angle_gamma 90.000000
_cell_volume 1944.000000
_symmetry_space_group_name_H-M "P 4 21 2"
_symmetry_group_IT_number 90
_symmetry_cell_setting 'tetragonal'
loop_
_space_group_symop_operation_xyz
x,y,z
1/2-y,1/2+x,z
-x,-y,z
1/2+y,1/2-x,z
1/2+x,1/2-y,-z
1/2-x,1/2+y,-z
y,x,-z
-y,-x,-z
loop_
_atom_site_type_symbol
_atom_site_label
_atom_site_fract_x
_atom_site_fract_y
_atom_site_fract_z
Si Si1 0.076552 0.270122 0.841829
Si Si2 0.985044 0.251190 0.592164
Si Si3 0.438731 0.769892 0.024781
Si Si4 0.500000 0.500000 0.317001
Si Si5 0.000000 0.000000 0.500000
Si Si6 0.551088 0.246540 0.772123
O O1 0.181944 0.409667 0.824087
O O2 0.069264 0.265094 0.908546
O O3 0.143258 0.116919 0.819338
O O4 0.134297 0.348936 0.592820
O O5 0.969461 0.141837 0.644420
O O6 0.993595 0.144925 0.538697
O O7 0.598994 0.826461 0.006632
O O8 0.381723 0.618278 0.000000
O O9 0.355912 0.541927 0.280643
O O10 0.390808 0.167259 0.774194
#
# Coordination Sequence:
#
# PCOD9547457 Si02
#       6
#     8   8   8   4   2   8
#     4   9  19  37  58  78 105 145 188 230 284 352
#     4  10  21  37  59  87 117 153 196 234 274 330
#     4   9  19  35  54  78 108 141 179 223 273 334
#     4  11  22  39  58  80 113 152 189 234 284 336
#     4  10  20  36  60  88 124 156 186 236 286 320
#     4  11  23  37  55  81 111 143 184 237 292 342
#
# _framework density 19.547325000000001
#
# number of rings (size 3 to 8) (size 9 to 14) (size 15 to 20)
#    0.000    2.105    0.000    4.421    0.000    2.105 
#    0.000    8.421    0.000   10.105    0.000    0.000 
#    0.000    0.000    0.000    0.000    0.000    0.000 
#
# Total GULP energy -211912.925754 kJ/mol
# GULP energy per Si atom -5576.655941 kJ/mol
# Density = 1.950283 g / cm^3
# Si number density = 19.547325 Si / 1000 Ang^3
#
#
#
# Elastic Constant Matrix: (Units=GPa)
#
#
# Indices 1 2 3 4 5 6 
#
# 1 104.5340 77.8432 29.6560 0.0000 0.0000 0.0000
# 2 77.8432 104.5363 29.6564 0.0000 0.0000 0.0000
# 3 29.6560 29.6564 6.9572 0.0000 0.0000 0.0000
# 4 0.0000 0.0000 0.0000 -109.1749 0.0000 0.0000
# 5 0.0000 0.0000 0.0000 0.0000 -109.1821 0.0000
# 6 0.0000 0.0000 0.0000 0.0000 0.0000 42.8797
#
#
#
# Elastic Compliance Matrix: (Units=1/GPa)
#
#
# Indices 1 2 3 4 5 6 
#
# 1 0.011635 -0.025829 0.060506 0.000000 0.000000 0.000000
# 2 -0.025829 0.011635 0.060507 0.000000 0.000000 0.000000
# 3 0.060506 0.060507 -0.372098 0.000000 0.000000 0.000000
# 4 0.000000 0.000000 0.000000 -0.009160 0.000000 0.000000
# 5 0.000000 0.000000 0.000000 0.000000 -0.009159 0.000000
# 6 0.000000 0.000000 0.000000 0.000000 0.000000 0.023321
#
#
# Mechanical properties :
#
#
# Convention : Reuss Voigt Hill
#
# Bulk Modulus (GPa) = -6.31064 54.48208 24.08572
# Shear Modulus (GPa) = -8.51771 -29.83734 -19.17752
#
# Velocity S-wave (km/s) = -2.08972 -3.91118 -3.13562
# Velocity P-wave (km/s) = 3.00965 2.74518 0.87235
#
# Compressibility (1/GPa) = -0.15846260
#
# Stress axis : x y z
#
# Youngs Moduli (GPa) = 85.94483 85.95011 -2.68746
#
# Poissons Ratio (x) = 2.22005 0.16261
# Poissons Ratio (y) = 2.21991 0.16261
# Poissons Ratio (z) = -5.20016 -5.20054
#
# Static dielectric constant tensor:
#      x y z
#    x 1.681300 0.000000 0.000000 
#    y 0.000000 1.681300 0.000000 
#    z 0.000000 0.000000 1.665250 
# 
# From -- ./inp_files/2912.got.cif
#   From: 2010.05.17/outbox.ucp.g08.bks.cvg/sg90_2_cif.got.tgz:2912.got - 2010.06.11 10:36:03.
