data_PCOD9547867
_publ_section_title
;
Structure prediction by ZEFSAII (Michael W. Deem and Ramdas Pophale) SiO2 
 PCOD9547867
Probable space group: P 41 2 2
;
_chemical_formula_sum "Si O2"
_cell_formula_units_Z 60
_cell_length_a 18.295468
_cell_length_b 18.295468
_cell_length_c 9.080912
_cell_angle_alpha 90.000000
_cell_angle_beta 90.000000
_cell_angle_gamma 90.000000
_cell_volume 3039.600544
_symmetry_space_group_name_H-M "P 41 2 2"
_symmetry_group_IT_number 91
_symmetry_cell_setting 'tetragonal'
loop_
_space_group_symop_operation_xyz
x,y,z
-y,x,1/4+z
-x,-y,1/2+z
y,-x,3/4+z
x,-y,1/2-z
-x,y,-z
y,x,3/4-z
-y,-x,1/4-z
loop_
_atom_site_type_symbol
_atom_site_label
_atom_site_fract_x
_atom_site_fract_y
_atom_site_fract_z
Si Si1 0.289613 0.692598 0.956725
Si Si2 0.415489 0.680484 0.534485
Si Si3 0.440684 0.933965 0.867148
Si Si4 0.322723 0.979538 0.100011
Si Si5 0.343875 0.189482 0.771068
Si Si6 0.777698 0.100282 0.043967
Si Si7 0.938471 0.938471 0.375000
Si Si8 0.238488 0.150493 0.253963
O O1 0.322172 0.626049 0.869347
O O2 0.315682 0.766225 0.872701
O O3 0.201282 0.693450 0.956065
O O4 0.310815 0.689186 0.125000
O O5 0.500000 0.689575 0.500000
O O6 0.391316 0.608685 0.625000
O O7 0.377921 0.748883 0.620973
O O8 0.409759 0.865347 0.772976
O O9 0.457057 0.000000 0.750000
O O10 0.500000 0.921309 0.000000
O O11 0.370978 0.952760 0.967289
O O12 0.265602 0.921188 0.163422
O O13 0.366091 0.000000 0.250000
O O14 0.279341 0.046209 0.031152
O O15 0.273423 0.148951 0.847088
O O16 0.849768 0.058400 0.099162
O O17 0.805909 0.141731 0.896821
O O18 0.000000 0.953472 0.500000
O O19 0.194837 0.194837 0.375000
#
# Coordination Sequence:
#
# PCOD9547867 Si02
#       8
#     8   8   8   8   8   8   4   8
#     4  10  20  38  65  98 133 169 228 281 320 394
#     4  10  23  44  71 103 141 181 225 278 338 408
#     4  12  25  41  62  94 141 179 227 279 348 421
#     4  10  23  41  62  90 128 176 230 272 345 424
#     4  11  23  42  69  99 136 184 234 280 346 418
#     4  11  23  44  68  96 128 180 232 290 353 437
#     4  12  32  48  70  96 138 182 240 312 388 424
#     4  10  20  35  66  99 127 163 224 291 339 400
#
# _framework density 19.739436000000001
#
# number of rings (size 3 to 8) (size 9 to 14) (size 15 to 20)
#    0.000    1.333    2.667    2.800    4.667    4.267 
#    0.000    2.667    0.000    0.000    0.000    0.000 
#    0.000    0.000    0.000    0.000    0.000    0.000 
#
# Total GULP energy -334056.691862 kJ/mol
# GULP energy per Si atom -5567.611531 kJ/mol
# Density = 1.969451 g / cm^3
# Si number density = 19.739436 Si / 1000 Ang^3
#
#
#
# Elastic Constant Matrix: (Units=GPa)
#
#
# Indices 1 2 3 4 5 6 
#
# 1 92.5566 29.3869 55.3901 0.0000 0.0000 0.0000
# 2 29.3869 92.5572 55.3901 0.0000 0.0000 0.0000
# 3 55.3901 55.3901 148.0559 0.0000 0.0000 0.0000
# 4 0.0000 0.0000 0.0000 24.5293 0.0000 0.0000
# 5 0.0000 0.0000 0.0000 0.0000 24.5287 0.0000
# 6 0.0000 0.0000 0.0000 0.0000 0.0000 14.6552
#
#
#
# Elastic Compliance Matrix: (Units=1/GPa)
#
#
# Indices 1 2 3 4 5 6 
#
# 1 0.014126 -0.001704 -0.004647 0.000000 0.000000 0.000000
# 2 -0.001704 0.014126 -0.004647 0.000000 0.000000 0.000000
# 3 -0.004647 -0.004647 0.010232 0.000000 0.000000 0.000000
# 4 0.000000 0.000000 0.000000 0.040768 0.000000 0.000000
# 5 0.000000 0.000000 0.000000 0.000000 0.040769 0.000000
# 6 0.000000 0.000000 0.000000 0.000000 0.000000 0.068235
#
#
# Mechanical properties :
#
#
# Convention : Reuss Voigt Hill
#
# Bulk Modulus (GPa) = 60.65478 68.16711 64.41095
# Shear Modulus (GPa) = 23.17509 25.60948 24.39229
#
# Velocity S-wave (km/s) = 3.43016 3.60582 3.51909
# Velocity P-wave (km/s) = 6.81780 7.20724 7.01522
#
# Compressibility (1/GPa) = 0.01648675
#
# Stress axis : x y z
#
# Youngs Moduli (GPa) = 70.78912 70.78975 97.73658
#
# Poissons Ratio (x) = 0.12062 0.45423
# Poissons Ratio (y) = 0.12062 0.45422
# Poissons Ratio (z) = 0.32899 0.32899
#
# Static dielectric constant tensor:
#      x y z
#    x 1.756320 0.000000 0.000000 
#    y 0.000000 1.756320 0.000000 
#    z 0.000000 0.000000 1.602140 
# 
# From -- ./inp_files/2795.got.cif
#   From: 2010.05.17/outbox.cif.g08.bks.cpg/sg91_2_cif.got.tgz:2795.got - 2010.06.03 19:20:03.
