data_PCOD9547876
_publ_section_title
;
Structure prediction by ZEFSAII (Michael W. Deem and Ramdas Pophale) SiO2 
 PCOD9547876
Probable space group: P 41 2 2
;
_chemical_formula_sum "Si O2"
_cell_formula_units_Z 52
_cell_length_a 21.424536
_cell_length_b 21.424536
_cell_length_c 5.996414
_cell_angle_alpha 90.000000
_cell_angle_beta 90.000000
_cell_angle_gamma 90.000000
_cell_volume 2752.418444
_symmetry_space_group_name_H-M "P 41 2 2"
_symmetry_group_IT_number 91
_symmetry_cell_setting 'tetragonal'
loop_
_space_group_symop_operation_xyz
x,y,z
-y,x,1/4+z
-x,-y,1/2+z
y,-x,3/4+z
x,-y,1/2-z
-x,y,-z
y,x,3/4-z
-y,-x,1/4-z
loop_
_atom_site_type_symbol
_atom_site_label
_atom_site_fract_x
_atom_site_fract_y
_atom_site_fract_z
Si Si1 0.235149 0.839380 0.938932
Si Si2 0.200118 0.443397 0.124594
Si Si3 0.177929 0.332928 0.837430
Si Si4 0.159341 0.933222 0.636420
Si Si5 0.069954 0.272024 0.551605
Si Si6 0.290520 0.500000 0.750000
Si Si7 0.621239 0.715060 0.749319
O O1 0.280062 0.804955 0.767669
O O2 0.185679 0.878559 0.796958
O O3 0.204541 0.795460 0.125000
O O4 0.271637 0.892356 0.072498
O O5 0.166033 0.500000 0.250000
O O6 0.240571 0.406963 0.308348
O O7 0.162481 0.394652 0.978407
O O8 0.248068 0.473720 0.949218
O O9 0.115423 0.310421 0.714066
O O10 0.236054 0.346361 0.672719
O O11 0.087171 0.912830 0.625000
O O12 0.202658 0.933543 0.414746
O O13 0.167491 0.000000 0.750000
O O14 0.000000 0.293386 0.500000
O O15 0.318454 0.436620 0.635639
O O16 0.667170 0.667170 0.875000
#
# Coordination Sequence:
#
# PCOD9547876 Si02
#       7
#     8   8   8   8   8   4   8
#     4  11  22  37  56  80 117 154 186 244 309 372
#     4   9  18  36  56  80 125 156 199 243 294 351
#     4  10  23  34  53  87 118 151 203 240 307 378
#     4  11  22  39  58  80 106 152 202 246 300 367
#     4  11  22  37  56  77 114 150 196 247 310 376
#     4   8  18  34  56  82 124 166 206 234 292 352
#     4  10  20  36  56  89 132 162 199 253 301 362
#
# _framework density 18.892475000000001
#
# number of rings (size 3 to 8) (size 9 to 14) (size 15 to 20)
#    0.000    1.846    3.077    0.923    0.000    6.154 
#    0.000    1.538    0.000    0.000    0.000    0.000 
#  454.615    0.000    0.000    0.000    0.000    0.000 
#
# Total GULP energy -289807.578111 kJ/mol
# GULP energy per Si atom -5573.222656 kJ/mol
# Density = 1.884948 g / cm^3
# Si number density = 18.892475 Si / 1000 Ang^3
#
#
#
# Elastic Constant Matrix: (Units=GPa)
#
#
# Indices 1 2 3 4 5 6 
#
# 1 84.7100 57.2550 46.9163 0.0000 0.0000 0.0000
# 2 57.2550 84.7057 46.9145 0.0000 0.0000 0.0000
# 3 46.9163 46.9145 117.1418 0.0000 0.0000 0.0000
# 4 0.0000 0.0000 0.0000 26.6564 0.0000 0.0000
# 5 0.0000 0.0000 0.0000 0.0000 26.6573 0.0000
# 6 0.0000 0.0000 0.0000 0.0000 0.0000 8.6219
#
#
#
# Elastic Compliance Matrix: (Units=1/GPa)
#
#
# Indices 1 2 3 4 5 6 
#
# 1 0.023003 -0.013423 -0.003837 0.000000 0.000000 0.000000
# 2 -0.013423 0.023004 -0.003837 0.000000 0.000000 0.000000
# 3 -0.003837 -0.003837 0.011610 0.000000 0.000000 0.000000
# 4 0.000000 0.000000 0.000000 0.037514 0.000000 0.000000
# 5 0.000000 0.000000 0.000000 0.000000 0.037513 0.000000
# 6 0.000000 0.000000 0.000000 0.000000 0.000000 0.115983
#
#
# Mechanical properties :
#
#
# Convention : Reuss Voigt Hill
#
# Bulk Modulus (GPa) = 64.83910 65.41433 65.12672
# Shear Modulus (GPa) = 16.89411 21.41857 19.15634
#
# Velocity S-wave (km/s) = 2.99360 3.37071 3.18774
# Velocity P-wave (km/s) = 6.80760 7.06036 6.93513
#
# Compressibility (1/GPa) = 0.01542279
#
# Stress axis : x y z
#
# Youngs Moduli (GPa) = 43.47347 43.47157 86.13296
#
# Poissons Ratio (x) = 0.58352 0.33048
# Poissons Ratio (y) = 0.58354 0.33047
# Poissons Ratio (z) = 0.16680 0.16679
#
# Static dielectric constant tensor:
#      x y z
#    x 1.697570 0.000000 0.000000 
#    y 0.000000 1.697570 0.000000 
#    z 0.000000 0.000000 1.704950 
# 
# From -- ./inp_files/18913.got.cif
#   From: 2010.05.17/outbox.cif.g08.bks.cpg/sg91_10_cif.got.tgz:18913.got - 2010.06.03 19:20:03.
