data_PCOD9547225
_publ_section_title
;
Structure prediction by ZEFSAII (Michael W. Deem and Ramdas Pophale) SiO2 
 PCOD9547225
Probable space group: P 4 21 2
;
_chemical_formula_sum "Si O2"
_cell_formula_units_Z 58
_cell_length_a 15.496818
_cell_length_b 15.496818
_cell_length_c 9.904637
_cell_angle_alpha 90.000000
_cell_angle_beta 90.000000
_cell_angle_gamma 90.000000
_cell_volume 2378.612126
_symmetry_space_group_name_H-M "P 4 21 2"
_symmetry_group_IT_number 90
_symmetry_cell_setting 'tetragonal'
loop_
_space_group_symop_operation_xyz
x,y,z
1/2-y,1/2+x,z
-x,-y,z
1/2+y,1/2-x,z
1/2+x,1/2-y,-z
1/2-x,1/2+y,-z
y,x,-z
-y,-x,-z
loop_
_atom_site_type_symbol
_atom_site_label
_atom_site_fract_x
_atom_site_fract_y
_atom_site_fract_z
Si Si1 0.000000 0.500000 0.094207
Si Si2 0.053788 0.771273 0.972125
Si Si3 0.160239 0.626075 0.669805
Si Si4 0.683094 0.594896 0.667018
Si Si5 0.394917 0.856146 0.037544
Si Si6 0.347878 0.596060 0.638284
Si Si7 0.359971 0.029540 0.607774
Si Si8 0.485375 0.320786 0.735209
O O1 0.931097 0.577800 0.070740
O O2 0.067344 0.811141 0.825384
O O3 0.961314 0.721962 0.967124
O O4 0.136711 0.707047 0.988231
O O5 0.043194 0.823026 0.109141
O O6 0.110469 0.600037 0.806269
O O7 0.261201 0.627595 0.711057
O O8 0.153683 0.555833 0.550270
O O9 0.131428 0.722542 0.629055
O O10 0.661576 0.503766 0.599485
O O11 0.659856 0.603170 0.345623
O O12 0.350832 0.649169 0.500000
O O13 0.437867 0.611407 0.712176
O O14 0.436907 0.096852 0.637907
O O15 0.270543 0.027197 0.688126
#
# Coordination Sequence:
#
# PCOD9547225 Si02
#       8
#     2   8   8   8   8   8   8   8
#     4   8  16  28  60 100 130 172 212 288 352 414
#     4  10  22  42  69 107 141 191 244 308 368 445
#     4  11  23  46  77 102 136 183 254 310 365 434
#     4  11  26  48  77 106 144 195 255 305 370 446
#     4   9  19  37  67 103 137 177 239 297 367 427
#     4  12  26  50  69 107 147 191 249 300 372 452
#     4  11  27  46  69 107 149 190 240 309 377 446
#     4  12  28  45  72 103 154 197 241 305 378 462
#
# _framework density 24.383969
#
# number of rings (size 3 to 8) (size 9 to 14) (size 15 to 20)
#    0.000    1.241    2.759    1.655    7.724    1.655 
#    0.000    2.759    0.000    0.000    0.000    0.000 
#    0.000    0.000    0.000    0.000    0.000    0.000 
#
# Total GULP energy -323392.249553 kJ/mol
# GULP energy per Si atom -5575.728441 kJ/mol
# Density = 2.432847 g / cm^3
# Si number density = 24.383969 Si / 1000 Ang^3
#
#
#
# Elastic Constant Matrix: (Units=GPa)
#
#
# Indices 1 2 3 4 5 6 
#
# 1 94.6115 37.7763 24.6337 0.0000 0.0000 0.0000
# 2 37.7763 94.6103 24.6332 0.0000 0.0000 0.0000
# 3 24.6337 24.6332 89.6112 0.0000 0.0000 0.0000
# 4 0.0000 0.0000 0.0000 27.9238 0.0000 0.0000
# 5 0.0000 0.0000 0.0000 0.0000 27.9239 0.0000
# 6 0.0000 0.0000 0.0000 0.0000 0.0000 45.6301
#
#
#
# Elastic Compliance Matrix: (Units=1/GPa)
#
#
# Indices 1 2 3 4 5 6 
#
# 1 0.013005 -0.004590 -0.002313 0.000000 0.000000 0.000000
# 2 -0.004590 0.013005 -0.002313 0.000000 0.000000 0.000000
# 3 -0.002313 -0.002313 0.012431 0.000000 0.000000 0.000000
# 4 0.000000 0.000000 0.000000 0.035812 0.000000 0.000000
# 5 0.000000 0.000000 0.000000 0.000000 0.035812 0.000000
# 6 0.000000 0.000000 0.000000 0.000000 0.000000 0.021915
#
#
# Mechanical properties :
#
#
# Convention : Reuss Voigt Hill
#
# Bulk Modulus (GPa) = 49.98111 50.32439 50.15275
# Shear Modulus (GPa) = 31.83074 33.08157 32.45615
#
# Velocity S-wave (km/s) = 3.61695 3.68733 3.65231
# Velocity P-wave (km/s) = 6.16320 6.22990 6.19664
#
# Compressibility (1/GPa) = 0.02000756
#
# Stress axis : x y z
#
# Youngs Moduli (GPa) = 76.89600 76.89515 80.44406
#
# Poissons Ratio (x) = 0.35297 0.18607
# Poissons Ratio (y) = 0.35297 0.18607
# Poissons Ratio (z) = 0.17787 0.17786
#
# Static dielectric constant tensor:
#      x y z
#    x 1.984600 0.000000 0.000000 
#    y 0.000000 1.984600 0.000000 
#    z 0.000000 0.000000 2.326100 
# 
# From -- ./inp_files/1726.got.cif
#   From: 2010.05.17/outbox.cif.g08.bks.cpg/sg90_1_cif.got.tgz:1726.got - 2010.06.03 19:17:45.
