data_PCOD9547247
_publ_section_title
;
Structure prediction by ZEFSAII (Michael W. Deem and Ramdas Pophale) SiO2 
 PCOD9547247
Probable space group: P 4 21 2
;
_chemical_formula_sum "Si O2"
_cell_formula_units_Z 42
_cell_length_a 14.845757
_cell_length_b 14.845757
_cell_length_c 8.295880
_cell_angle_alpha 90.000000
_cell_angle_beta 90.000000
_cell_angle_gamma 90.000000
_cell_volume 1828.382924
_symmetry_space_group_name_H-M "P 4 21 2"
_symmetry_group_IT_number 90
_symmetry_cell_setting 'tetragonal'
loop_
_space_group_symop_operation_xyz
x,y,z
1/2-y,1/2+x,z
-x,-y,z
1/2+y,1/2-x,z
1/2+x,1/2-y,-z
1/2-x,1/2+y,-z
y,x,-z
-y,-x,-z
loop_
_atom_site_type_symbol
_atom_site_label
_atom_site_fract_x
_atom_site_fract_y
_atom_site_fract_z
Si Si1 0.000000 0.500000 0.866960
Si Si2 0.899779 0.806170 0.740306
Si Si3 0.101917 0.276097 0.401439
Si Si4 0.725499 0.084743 0.722358
Si Si5 0.909327 0.136658 0.818496
Si Si6 0.334574 0.862947 0.081955
O O1 0.908894 0.563939 0.873378
O O2 0.924514 0.748018 0.582380
O O3 0.812430 0.862015 0.688554
O O4 0.873495 0.736254 0.880992
O O5 0.986304 0.866589 0.775561
O O6 0.180908 0.348583 0.404329
O O7 0.015140 0.310656 0.305857
O O8 0.833733 0.085896 0.714471
O O9 0.694668 0.122224 0.896256
O O10 0.879295 0.241990 0.820330
O O11 0.898304 0.101697 0.000000
#
# Coordination Sequence:
#
# PCOD9547247 Si02
#       6
#     2   8   8   8   8   8
#     4  12  20  32  72 110 128 176 240 306 344 404
#     4  11  25  46  72 106 141 194 238 297 366 447
#     4  11  27  44  72 104 149 189 242 300 371 432
#     4  11  25  46  69 103 145 192 237 303 357 430
#     4  10  23  44  71 103 138 187 238 294 359 425
#     4  11  22  41  69 102 141 182 242 293 358 425
#
# _framework density 22.971117
#
# number of rings (size 3 to 8) (size 9 to 14) (size 15 to 20)
#    0.000    1.143    3.810    1.143    5.333    1.905 
#    0.000    4.762    0.000    0.000    0.000    0.000 
#    0.000    0.000    0.000    0.000    0.000    0.000 
#
# Total GULP energy -234631.360827 kJ/mol
# GULP energy per Si atom -5586.460972 kJ/mol
# Density = 2.291883 g / cm^3
# Si number density = 22.971117 Si / 1000 Ang^3
#
#
#
# Elastic Constant Matrix: (Units=GPa)
#
#
# Indices 1 2 3 4 5 6 
#
# 1 82.8736 -6.2976 13.3324 0.0000 0.0000 0.0000
# 2 -6.2976 82.8746 13.3320 0.0000 0.0000 0.0000
# 3 13.3324 13.3320 62.6442 0.0000 0.0000 0.0000
# 4 0.0000 0.0000 0.0000 15.0880 0.0000 0.0000
# 5 0.0000 0.0000 0.0000 0.0000 15.0879 0.0000
# 6 0.0000 0.0000 0.0000 0.0000 0.0000 32.3001
#
#
#
# Elastic Compliance Matrix: (Units=1/GPa)
#
#
# Indices 1 2 3 4 5 6 
#
# 1 0.012659 0.001445 -0.003002 0.000000 0.000000 0.000000
# 2 0.001445 0.012659 -0.003002 0.000000 0.000000 0.000000
# 3 -0.003002 -0.003002 0.017241 0.000000 0.000000 0.000000
# 4 0.000000 0.000000 0.000000 0.066278 0.000000 0.000000
# 5 0.000000 0.000000 0.000000 0.000000 0.066278 0.000000
# 6 0.000000 0.000000 0.000000 0.000000 0.000000 0.030960
#
#
# Mechanical properties :
#
#
# Convention : Reuss Voigt Hill
#
# Bulk Modulus (GPa) = 29.90237 29.90291 29.90264
# Shear Modulus (GPa) = 22.09072 26.36357 24.22714
#
# Velocity S-wave (km/s) = 3.10445 3.39142 3.25110
# Velocity P-wave (km/s) = 5.08879 5.32743 5.20948
#
# Compressibility (1/GPa) = 0.03344217
#
# Stress axis : x y z
#
# Youngs Moduli (GPa) = 78.99354 78.99459 58.00187
#
# Poissons Ratio (x) = -0.11414 0.17411
# Poissons Ratio (y) = -0.11413 0.17410
# Poissons Ratio (z) = 0.23712 0.23711
#
# Static dielectric constant tensor:
#      x y z
#    x 1.843490 0.000000 0.000000 
#    y 0.000000 1.843490 0.000000 
#    z 0.000000 0.000000 1.871230 
# 
# From -- ./inp_files/1344.got.cif
#   From: 2010.05.17/outbox.cif.g08.bks.cpg/sg90_1_cif.got.tgz:1344.got - 2010.06.03 19:17:45.
