data_PCOD9547220
_publ_section_title
;
Structure prediction by ZEFSAII (Michael W. Deem and Ramdas Pophale) SiO2 
 PCOD9547220
Probable space group: P 4 21 2
;
_chemical_formula_sum "Si O2"
_cell_formula_units_Z 42
_cell_length_a 13.767260
_cell_length_b 13.767260
_cell_length_c 9.759178
_cell_angle_alpha 90.000000
_cell_angle_beta 90.000000
_cell_angle_gamma 90.000000
_cell_volume 1849.729692
_symmetry_space_group_name_H-M "P 4 21 2"
_symmetry_group_IT_number 90
_symmetry_cell_setting 'tetragonal'
loop_
_space_group_symop_operation_xyz
x,y,z
1/2-y,1/2+x,z
-x,-y,z
1/2+y,1/2-x,z
1/2+x,1/2-y,-z
1/2-x,1/2+y,-z
y,x,-z
-y,-x,-z
loop_
_atom_site_type_symbol
_atom_site_label
_atom_site_fract_x
_atom_site_fract_y
_atom_site_fract_z
Si Si1 0.500000 0.000000 0.806293
Si Si2 0.853659 0.321803 0.151072
Si Si3 0.450820 0.265313 0.370707
Si Si4 0.333172 0.677081 0.344621
Si Si5 0.629298 0.100156 0.138927
Si Si6 0.547950 0.678490 0.664480
O O1 0.592706 0.922829 0.811472
O O2 0.753255 0.311657 0.235268
O O3 0.923894 0.235919 0.200460
O O4 0.847772 0.318575 0.986977
O O5 0.563106 0.271298 0.325440
O O6 0.392712 0.186459 0.282259
O O7 0.444237 0.248733 0.533502
O O8 0.404035 0.371111 0.350301
O O9 0.298949 0.701052 0.500000
O O10 0.357284 0.561772 0.341631
O O11 0.516879 0.127766 0.122645
#
# Coordination Sequence:
#
# PCOD9547220 Si02
#       6
#     2   8   8   8   8   8
#     4  12  20  44  68 102 140 180 236 278 348 416
#     4  12  22  42  71  98 136 188 231 287 350 423
#     4  10  24  41  66  98 139 174 231 289 350 418
#     4  10  22  41  70 102 138 178 238 294 353 419
#     4  11  23  44  64  95 138 185 230 286 346 410
#     4  10  22  42  66  96 135 182 224 288 354 414
#
# _framework density 22.706018
#
# number of rings (size 3 to 8) (size 9 to 14) (size 15 to 20)
#    0.000    1.333    3.810    0.571    5.333    4.571 
#    0.000    2.857    0.000    4.571    0.000    0.000 
#    0.000    0.000    0.000    0.000    0.000    0.000 
#
# Total GULP energy -234221.854959 kJ/mol
# GULP energy per Si atom -5576.710832 kJ/mol
# Density = 2.265434 g / cm^3
# Si number density = 22.706018 Si / 1000 Ang^3
#
#
#
# Elastic Constant Matrix: (Units=GPa)
#
#
# Indices 1 2 3 4 5 6 
#
# 1 119.8194 7.3930 35.8117 0.0000 0.0000 0.0000
# 2 7.3930 119.8193 35.8117 0.0000 0.0000 0.0000
# 3 35.8117 35.8117 89.9073 0.0000 0.0000 0.0000
# 4 0.0000 0.0000 0.0000 26.6955 0.0000 0.0000
# 5 0.0000 0.0000 0.0000 0.0000 26.6955 0.0000
# 6 0.0000 0.0000 0.0000 0.0000 0.0000 43.7147
#
#
#
# Elastic Compliance Matrix: (Units=1/GPa)
#
#
# Indices 1 2 3 4 5 6 
#
# 1 0.009514 0.000619 -0.004036 0.000000 0.000000 0.000000
# 2 0.000619 0.009514 -0.004036 0.000000 0.000000 0.000000
# 3 -0.004036 -0.004036 0.014338 0.000000 0.000000 0.000000
# 4 0.000000 0.000000 0.000000 0.037459 0.000000 0.000000
# 5 0.000000 0.000000 0.000000 0.000000 0.037460 0.000000
# 6 0.000000 0.000000 0.000000 0.000000 0.000000 0.022876
#
#
# Mechanical properties :
#
#
# Convention : Reuss Voigt Hill
#
# Bulk Modulus (GPa) = 54.17240 54.17542 54.17391
# Shear Modulus (GPa) = 32.84707 36.12311 34.48509
#
# Velocity S-wave (km/s) = 3.80758 3.99294 3.90136
# Velocity P-wave (km/s) = 6.57572 6.72082 6.64867
#
# Compressibility (1/GPa) = 0.01845959
#
# Stress axis : x y z
#
# Youngs Moduli (GPa) = 105.10762 105.10753 69.74445
#
# Poissons Ratio (x) = -0.06510 0.28151
# Poissons Ratio (y) = -0.06510 0.28151
# Poissons Ratio (z) = 0.42425 0.42425
#
# Static dielectric constant tensor:
#      x y z
#    x 1.858200 0.000000 0.000000 
#    y 0.000000 1.858200 0.000000 
#    z 0.000000 0.000000 1.891340 
# 
# From -- ./inp_files/1379.got.cif
#   From: 2010.05.17/outbox.cif.g08.bks.cpg/sg90_1_cif.got.tgz:1379.got - 2010.06.03 19:17:45.
