data_PCOD9547415
_publ_section_title
;
Structure prediction by ZEFSAII (Michael W. Deem and Ramdas Pophale) SiO2 
 PCOD9547415
Probable space group: P 4 21 2
;
_chemical_formula_sum "Si O2"
_cell_formula_units_Z 50
_cell_length_a 13.870186
_cell_length_b 13.870186
_cell_length_c 10.973817
_cell_angle_alpha 90.000000
_cell_angle_beta 90.000000
_cell_angle_gamma 90.000000
_cell_volume 2111.165517
_symmetry_space_group_name_H-M "P 4 21 2"
_symmetry_group_IT_number 90
_symmetry_cell_setting 'tetragonal'
loop_
_space_group_symop_operation_xyz
x,y,z
1/2-y,1/2+x,z
-x,-y,z
1/2+y,1/2-x,z
1/2+x,1/2-y,-z
1/2-x,1/2+y,-z
y,x,-z
-y,-x,-z
loop_
_atom_site_type_symbol
_atom_site_label
_atom_site_fract_x
_atom_site_fract_y
_atom_site_fract_z
Si Si1 0.690057 0.278757 0.730539
Si Si2 0.500000 0.000000 0.695442
Si Si3 0.654664 0.017419 0.061139
Si Si4 0.843073 0.972667 0.919258
Si Si5 0.293889 0.014664 0.594584
Si Si6 0.351597 0.376207 0.281708
Si Si7 0.725233 0.987902 0.325644
O O1 0.614205 0.297671 0.838717
O O2 0.623545 0.240059 0.620504
O O3 0.772702 0.202360 0.760844
O O4 0.739922 0.379158 0.696360
O O5 0.618286 0.010573 0.683783
O O6 0.582281 0.102113 0.024235
O O7 0.665794 0.019089 0.207082
O O8 0.758619 0.018496 0.000790
O O9 0.880329 0.053803 0.827975
O O10 0.923497 0.923497 0.000000
O O11 0.204826 0.944174 0.623170
O O12 0.326500 0.003622 0.455326
O O13 0.442824 0.318428 0.330207
#
# Coordination Sequence:
#
# PCOD9547415 Si02
#       7
#     8   2   8   8   8   8   8
#     4  11  24  48  71 105 144 191 242 299 368 431
#     4  12  24  44  72 116 146 196 244 292 356 442
#     4  11  25  44  68 104 142 186 241 305 371 435
#     4  11  24  48  72 100 139 188 250 304 367 440
#     4  11  26  43  75 108 148 194 240 300 356 446
#     4  11  26  47  73 106 147 196 244 304 368 438
#     4  12  26  43  71 105 148 190 239 298 362 446
#
# _framework density 23.683599000000001
#
# number of rings (size 3 to 8) (size 9 to 14) (size 15 to 20)
#    0.000    0.800    3.200    2.880    4.480    4.480 
#    2.880    3.200    0.000    0.000    0.000    0.000 
#    0.000    0.000    0.000    0.000    0.000    0.000 
#
# Total GULP energy -279790.679986 kJ/mol
# GULP energy per Si atom -5595.813600 kJ/mol
# Density = 2.362969 g / cm^3
# Si number density = 23.683599 Si / 1000 Ang^3
#
#
#
# Elastic Constant Matrix: (Units=GPa)
#
#
# Indices 1 2 3 4 5 6 
#
# 1 96.7635 10.6110 14.0738 0.0000 0.0000 0.0000
# 2 10.6110 96.7635 14.0738 0.0000 0.0000 0.0000
# 3 14.0738 14.0738 66.3581 0.0000 0.0000 0.0000
# 4 0.0000 0.0000 0.0000 -18.9259 0.0000 0.0000
# 5 0.0000 0.0000 0.0000 0.0000 -18.9259 0.0000
# 6 0.0000 0.0000 0.0000 0.0000 0.0000 39.4928
#
#
#
# Elastic Compliance Matrix: (Units=1/GPa)
#
#
# Indices 1 2 3 4 5 6 
#
# 1 0.010734 -0.000873 -0.002092 0.000000 0.000000 0.000000
# 2 -0.000873 0.010734 -0.002092 0.000000 0.000000 0.000000
# 3 -0.002092 -0.002092 0.015957 0.000000 0.000000 0.000000
# 4 0.000000 0.000000 0.000000 -0.052838 0.000000 0.000000
# 5 0.000000 0.000000 0.000000 0.000000 -0.052838 0.000000
# 6 0.000000 0.000000 0.000000 0.000000 0.000000 0.025321
#
#
# Mechanical properties :
#
#
# Convention : Reuss Voigt Hill
#
# Bulk Modulus (GPa) = 36.61148 37.48915 37.05031
# Shear Modulus (GPa) = -210.86498 15.06997 -97.89751
#
# Velocity S-wave (km/s) = -9.44603 2.52524 -6.43625
# Velocity P-wave (km/s) = 10.17240 4.93619 6.28935
#
# Compressibility (1/GPa) = 0.02731384
#
# Stress axis : x y z
#
# Youngs Moduli (GPa) = 93.15850 93.15850 62.66874
#
# Poissons Ratio (x) = 0.08132 0.13107
# Poissons Ratio (y) = 0.08132 0.13107
# Poissons Ratio (z) = 0.19484 0.19484
#
# Static dielectric constant tensor:
#      x y z
#    x 1.869080 0.000000 0.000000 
#    y 0.000000 1.869080 0.000000 
#    z 0.000000 0.000000 1.928660 
# 
# From -- ./inp_files/2193.got.cif
#   From: 2010.05.17/outbox.cif.g08.bks.cpg/sg90_2_cif.got.tgz:2193.got - 2010.06.03 19:17:45.
