data_PCOD9547895
_publ_section_title
;
Structure prediction by ZEFSAII (Michael W. Deem and Ramdas Pophale) SiO2 
 PCOD9547895
Probable space group: P 41 2 2
;
_chemical_formula_sum "Si O2"
_cell_formula_units_Z 60
_cell_length_a 12.808513
_cell_length_b 12.808513
_cell_length_c 18.560557
_cell_angle_alpha 90.000000
_cell_angle_beta 90.000000
_cell_angle_gamma 90.000000
_cell_volume 3045.007958
_symmetry_space_group_name_H-M "P 41 2 2"
_symmetry_group_IT_number 91
_symmetry_cell_setting 'tetragonal'
loop_
_space_group_symop_operation_xyz
x,y,z
-y,x,1/4+z
-x,-y,1/2+z
y,-x,3/4+z
x,-y,1/2-z
-x,y,-z
y,x,3/4-z
-y,-x,1/4-z
loop_
_atom_site_type_symbol
_atom_site_label
_atom_site_fract_x
_atom_site_fract_y
_atom_site_fract_z
Si Si1 0.045451 0.503559 0.671427
Si Si2 0.184532 0.667732 0.080268
Si Si3 0.827045 0.432431 0.883941
Si Si4 0.036536 0.123738 0.240310
Si Si5 0.633045 0.887249 0.289648
Si Si6 0.021854 0.274101 0.636295
Si Si7 0.750655 0.233312 0.812213
Si Si8 0.849131 0.849131 0.375000
O O1 0.098781 0.500000 0.750000
O O2 0.110005 0.542195 0.601273
O O3 0.941018 0.572504 0.656009
O O4 0.003920 0.385232 0.673109
O O5 0.247743 0.752258 0.125000
O O6 0.197294 0.554906 0.115665
O O7 0.065788 0.712096 0.074851
O O8 0.228489 0.667072 0.000666
O O9 0.759123 0.348307 0.842768
O O10 0.824088 0.398875 0.968234
O O11 0.000505 0.173970 0.315620
O O12 0.137955 0.190155 0.217563
O O13 0.945408 0.141568 0.181186
O O14 0.056012 0.000000 0.250000
O O15 0.740731 0.857371 0.329980
O O16 0.645796 0.000000 0.250000
O O17 0.142851 0.276004 0.618015
#
# Coordination Sequence:
#
# PCOD9547895 Si02
#       8
#     8   8   8   8   8   8   8   4
#     4  10  20  36  61  86 120 166 221 275 313 378
#     4  11  23  40  62  94 123 157 209 275 336 392
#     4  10  23  39  61  90 127 161 219 275 334 394
#     4  12  23  35  53  87 134 175 213 256 318 407
#     4  10  20  38  56  86 126 171 223 276 325 386
#     4  11  22  38  58  88 126 165 208 256 328 386
#     4  12  23  38  61  88 124 169 209 260 328 394
#     4  12  22  34  56  84 126 184 222 262 328 396
#
# _framework density 19.704383
#
# number of rings (size 3 to 8) (size 9 to 14) (size 15 to 20)
#    0.000    1.067    1.333    7.200    1.867    2.133 
#    0.000    0.000    0.000    0.000   17.333    0.000 
#    0.000    0.000    0.000    0.000    0.000    0.000 
#
# Total GULP energy -334225.068634 kJ/mol
# GULP energy per Si atom -5570.417811 kJ/mol
# Density = 1.965954 g / cm^3
# Si number density = 19.704383 Si / 1000 Ang^3
#
#
#
# Elastic Constant Matrix: (Units=GPa)
#
#
# Indices 1 2 3 4 5 6 
#
# 1 72.2576 5.4764 4.5399 0.0000 0.0000 0.0000
# 2 5.4764 72.2584 4.5430 0.0000 0.0000 0.0000
# 3 4.5399 4.5430 58.4336 0.0000 0.0000 0.0000
# 4 0.0000 0.0000 0.0000 824.9156 0.0000 0.0000
# 5 0.0000 0.0000 0.0000 0.0000 827.7492 0.0000
# 6 0.0000 0.0000 0.0000 0.0000 0.0000 -58.7612
#
#
#
# Elastic Compliance Matrix: (Units=1/GPa)
#
#
# Indices 1 2 3 4 5 6 
#
# 1 0.013978 -0.000996 -0.001009 0.000000 0.000000 0.000000
# 2 -0.000996 0.013978 -0.001009 0.000000 0.000000 0.000000
# 3 -0.001009 -0.001009 0.017270 0.000000 0.000000 0.000000
# 4 0.000000 0.000000 0.000000 0.001212 0.000000 0.000000
# 5 0.000000 0.000000 0.000000 0.000000 0.001208 0.000000
# 6 0.000000 0.000000 0.000000 0.000000 0.000000 -0.017018
#
#
# Mechanical properties :
#
#
# Convention : Reuss Voigt Hill
#
# Bulk Modulus (GPa) = 25.51099 25.78536 25.64818
# Shear Modulus (GPa) = 100.55676 331.34006 215.94841
#
# Velocity S-wave (km/s) = 7.15147 12.98155 10.48008
# Velocity P-wave (km/s) = 9.00923 15.42104 12.62883
#
# Compressibility (1/GPa) = 0.03919879
#
# Stress axis : x y z
#
# Youngs Moduli (GPa) = 71.53981 71.54016 57.90291
#
# Poissons Ratio (x) = 0.07125 0.05840
# Poissons Ratio (y) = 0.07125 0.05844
# Poissons Ratio (z) = 0.07215 0.07221
#
# Static dielectric constant tensor:
#      x y z
#    x 0.355610 0.000000 0.000000 
#    y 0.000000 0.350690 0.000000 
#    z 0.000000 0.000000 1.813870 
# 
# From -- ./inp_files/12517.got.cif
#   From: 2010.05.17/outbox.cif.g08.bks.cpg/sg91_7_cif.got.tgz:12517.got - 2010.06.03 19:20:03.
