data_PCOD9547553
_publ_section_title
;
Structure prediction by ZEFSAII (Michael W. Deem and Ramdas Pophale) SiO2 
 PCOD9547553
Probable space group: P 41 2 2
;
_chemical_formula_sum "Si O2"
_cell_formula_units_Z 48
_cell_length_a 9.050399
_cell_length_b 9.050399
_cell_length_c 32.615780
_cell_angle_alpha 90.000000
_cell_angle_beta 90.000000
_cell_angle_gamma 90.000000
_cell_volume 2671.549475
_symmetry_space_group_name_H-M "P 41 2 2"
_symmetry_group_IT_number 91
_symmetry_cell_setting 'tetragonal'
loop_
_space_group_symop_operation_xyz
x,y,z
-y,x,1/4+z
-x,-y,1/2+z
y,-x,3/4+z
x,-y,1/2-z
-x,y,-z
y,x,3/4-z
-y,-x,1/4-z
loop_
_atom_site_type_symbol
_atom_site_label
_atom_site_fract_x
_atom_site_fract_y
_atom_site_fract_z
Si Si1 0.173788 0.317077 0.081838
Si Si2 0.167514 0.674860 0.909022
Si Si3 0.676141 0.670094 0.498588
Si Si4 0.681904 0.173433 0.164637
Si Si5 0.347152 0.178507 0.248897
Si Si6 0.671280 0.823840 0.837653
O O1 0.249870 0.253432 0.122258
O O2 0.188512 0.494588 0.083998
O O3 0.999833 0.284144 0.080641
O O4 0.252444 0.264659 0.039990
O O5 0.187963 0.496558 0.909249
O O6 0.208612 0.727637 0.955133
O O7 0.994292 0.706486 0.903607
O O8 0.500000 0.679792 0.500000
O O9 0.741349 0.729646 0.455904
O O10 0.730514 0.499297 0.498455
O O11 0.759687 0.240314 0.125000
O O12 0.268837 0.213501 0.291981
O O13 0.381085 0.000000 0.250000
O O14 0.727775 0.727775 0.875000
#
# Coordination Sequence:
#
# PCOD9547553 Si02
#       6
#     8   8   8   8   8   8
#     4  10  20  34  52  76 106 138 171 213 264 311
#     4   9  18  33  52  73  99 134 175 216 254 307
#     4  10  18  30  52  79 104 133 171 215 263 311
#     4  10  20  35  53  75 104 138 176 216 260 309
#     4   8  16  32  50  71 103 138 171 211 260 308
#     4   9  18  32  51  74 101 133 170 213 260 310
#
# _framework density 17.967099999999999
#
# number of rings (size 3 to 8) (size 9 to 14) (size 15 to 20)
#    0.000    2.667    0.000    4.500    0.000    6.667 
#    0.000    1.667    0.000    8.000    0.000    0.000 
#    0.000    0.000    0.000    0.000    0.000    0.000 
#
# Total GULP energy -267432.175297 kJ/mol
# GULP energy per Si atom -5571.503652 kJ/mol
# Density = 1.792621 g / cm^3
# Si number density = 17.967100 Si / 1000 Ang^3
#
#
#
# Elastic Constant Matrix: (Units=GPa)
#
#
# Indices 1 2 3 4 5 6 
#
# 1 43.6356 30.8007 62.9542 0.0000 0.0000 0.0000
# 2 30.8007 43.6344 62.9534 0.0000 0.0000 0.0000
# 3 62.9542 62.9534 211.3125 0.0000 0.0000 0.0000
# 4 0.0000 0.0000 0.0000 -22.9002 0.0000 0.0000
# 5 0.0000 0.0000 0.0000 0.0000 -22.9023 0.0000
# 6 0.0000 0.0000 0.0000 0.0000 0.0000 11.5612
#
#
#
# Elastic Compliance Matrix: (Units=1/GPa)
#
#
# Indices 1 2 3 4 5 6 
#
# 1 0.052498 -0.025417 -0.008068 0.000000 0.000000 0.000000
# 2 -0.025417 0.052500 -0.008068 0.000000 0.000000 0.000000
# 3 -0.008068 -0.008068 0.009540 0.000000 0.000000 0.000000
# 4 0.000000 0.000000 0.000000 -0.043668 0.000000 0.000000
# 5 0.000000 0.000000 0.000000 0.000000 -0.043664 0.000000
# 6 0.000000 0.000000 0.000000 0.000000 0.000000 0.086496
#
#
# Mechanical properties :
#
#
# Convention : Reuss Voigt Hill
#
# Bulk Modulus (GPa) = 31.81639 67.99988 49.90814
# Shear Modulus (GPa) = 24.12134 2.61003 13.36568
#
# Velocity S-wave (km/s) = 3.66803 1.20658 2.73041
# Velocity P-wave (km/s) = 5.97376 6.31428 6.14638
#
# Compressibility (1/GPa) = 0.03143034
#
# Stress axis : x y z
#
# Youngs Moduli (GPa) = 19.04834 19.04774 104.82645
#
# Poissons Ratio (x) = 0.48414 0.84574
# Poissons Ratio (y) = 0.48416 0.84576
# Poissons Ratio (z) = 0.15368 0.15368
#
# Static dielectric constant tensor:
#      x y z
#    x 1.602050 0.000000 0.000000 
#    y 0.000000 1.602050 0.000000 
#    z 0.000000 0.000000 1.652850 
# 
# From -- ./inp_files/18187.got.cif
#   From: 2010.05.17/outbox.cif.g08.bks.cpg/sg91_10_cif.got.tgz:18187.got - 2010.06.03 19:20:03.
