data_PCOD9547373
_publ_section_title
;
Structure prediction by ZEFSAII (Michael W. Deem and Ramdas Pophale) SiO2 
 PCOD9547373
Probable space group: P 4 21 2
;
_chemical_formula_sum "Si O2"
_cell_formula_units_Z 34
_cell_length_a 8.183072
_cell_length_b 8.183072
_cell_length_c 22.794773
_cell_angle_alpha 90.000000
_cell_angle_beta 90.000000
_cell_angle_gamma 90.000000
_cell_volume 1526.398802
_symmetry_space_group_name_H-M "P 4 21 2"
_symmetry_group_IT_number 90
_symmetry_cell_setting 'tetragonal'
loop_
_space_group_symop_operation_xyz
x,y,z
1/2-y,1/2+x,z
-x,-y,z
1/2+y,1/2-x,z
1/2+x,1/2-y,-z
1/2-x,1/2+y,-z
y,x,-z
-y,-x,-z
loop_
_atom_site_type_symbol
_atom_site_label
_atom_site_fract_x
_atom_site_fract_y
_atom_site_fract_z
Si Si1 0.500000 0.500000 0.500000
Si Si2 0.735610 0.578159 0.713187
Si Si3 0.267220 0.445859 0.391729
Si Si4 0.910912 0.238457 0.173703
Si Si5 0.259972 0.405776 0.941846
O O1 0.350954 0.470158 0.454886
O O2 0.805030 0.395376 0.713952
O O3 0.627824 0.608650 0.655653
O O4 0.633930 0.630458 0.770134
O O5 0.182784 0.620185 0.383690
O O6 0.800293 0.403061 0.174844
O O7 0.864018 0.142090 0.115005
O O8 0.201696 0.593175 0.941244
O O9 0.358765 0.358765 0.000000
#
# Coordination Sequence:
#
# PCOD9547373 Si02
#       5
#     2   8   8   8   8
#     4  12  24  44  68  96 132 172 214 268 324 388
#     4  11  24  42  66  98 135 176 224 279 341 409
#     4  11  24  42  66  96 130 171 218 268 327 395
#     4  11  24  41  63  94 131 173 224 281 342 409
#     4  11  24  41  62  91 127 170 224 283 344 413
#
# _framework density 22.274649
#
# number of rings (size 3 to 8) (size 9 to 14) (size 15 to 20)
#    0.000    0.941    0.000    6.353    0.000   13.647 
#    0.000    2.353    0.000    0.000    0.000    0.000 
#    0.000    0.000    0.000    0.000    0.000    0.000 
#
# Total GULP energy -190337.803162 kJ/mol
# GULP energy per Si atom -5598.170681 kJ/mol
# Density = 2.222395 g / cm^3
# Si number density = 22.274649 Si / 1000 Ang^3
#
#
#
# Elastic Constant Matrix: (Units=GPa)
#
#
# Indices 1 2 3 4 5 6 
#
# 1 114.8370 50.9638 47.1801 0.0000 0.0000 0.0000
# 2 50.9638 114.8370 47.1801 0.0000 0.0000 0.0000
# 3 47.1801 47.1801 140.2679 0.0000 0.0000 0.0000
# 4 0.0000 0.0000 0.0000 55.7801 0.0000 0.0000
# 5 0.0000 0.0000 0.0000 0.0000 55.7801 0.0000
# 6 0.0000 0.0000 0.0000 0.0000 0.0000 47.6010
#
#
#
# Elastic Compliance Matrix: (Units=1/GPa)
#
#
# Indices 1 2 3 4 5 6 
#
# 1 0.011558 -0.004098 -0.002509 0.000000 0.000000 0.000000
# 2 -0.004098 0.011558 -0.002509 0.000000 0.000000 0.000000
# 3 -0.002509 -0.002509 0.008817 0.000000 0.000000 0.000000
# 4 0.000000 0.000000 0.000000 0.017928 0.000000 0.000000
# 5 0.000000 0.000000 0.000000 0.000000 0.017928 0.000000
# 6 0.000000 0.000000 0.000000 0.000000 0.000000 0.021008
#
#
# Mechanical properties :
#
#
# Convention : Reuss Voigt Hill
#
# Bulk Modulus (GPa) = 72.99468 73.39890 73.19679
# Shear Modulus (GPa) = 44.80505 46.80674 45.80590
#
# Velocity S-wave (km/s) = 4.48982 4.58902 4.53969
# Velocity P-wave (km/s) = 7.72783 7.81678 7.77243
#
# Compressibility (1/GPa) = 0.01369963
#
# Stress axis : x y z
#
# Youngs Moduli (GPa) = 86.52297 86.52297 113.41679
#
# Poissons Ratio (x) = 0.35461 0.28456
# Poissons Ratio (y) = 0.35461 0.28456
# Poissons Ratio (z) = 0.21708 0.21708
#
# Static dielectric constant tensor:
#      x y z
#    x 1.994410 0.000000 0.000000 
#    y 0.000000 1.994410 0.000000 
#    z 0.000000 0.000000 1.754280 
# 
# From -- ./inp_files/2752.got.cif
#   From: 2010.05.17/outbox.cif.g08.bks.cpg/sg90_2_cif.got.tgz:2752.got - 2010.06.03 19:17:45.
