data_PCOD9547639
_publ_section_title
;
Structure prediction by ZEFSAII (Michael W. Deem and Ramdas Pophale) SiO2 
 PCOD9547639
Probable space group: P 41 2 2
;
_chemical_formula_sum "Si O2"
_cell_formula_units_Z 48
_cell_length_a 11.318239
_cell_length_b 11.318239
_cell_length_c 16.560612
_cell_angle_alpha 90.000000
_cell_angle_beta 90.000000
_cell_angle_gamma 90.000000
_cell_volume 2121.456363
_symmetry_space_group_name_H-M "P 41 2 2"
_symmetry_group_IT_number 91
_symmetry_cell_setting 'tetragonal'
loop_
_space_group_symop_operation_xyz
x,y,z
-y,x,1/4+z
-x,-y,1/2+z
y,-x,3/4+z
x,-y,1/2-z
-x,y,-z
y,x,3/4-z
-y,-x,1/4-z
loop_
_atom_site_type_symbol
_atom_site_label
_atom_site_fract_x
_atom_site_fract_y
_atom_site_fract_z
Si Si1 0.838667 0.269783 0.284500
Si Si2 0.274619 0.725382 0.125000
Si Si3 0.317483 0.751825 0.296010
Si Si4 0.368640 0.051440 0.880308
Si Si5 0.825830 0.000000 0.250000
Si Si6 0.700424 0.416891 0.054634
Si Si7 0.522476 0.170816 0.411915
O O1 0.840916 0.310338 0.377909
O O2 0.924739 0.339341 0.223864
O O3 0.702171 0.295742 0.251347
O O4 0.873916 0.131389 0.272024
O O5 0.255885 0.790077 0.211463
O O6 0.248305 0.589640 0.143421
O O7 0.448497 0.700920 0.274011
O O8 0.244994 0.641008 0.330926
O O9 0.250337 0.026990 0.830089
O O10 0.414992 0.174078 0.848410
O O11 0.452754 0.942546 0.857920
O O12 0.603864 0.396136 0.125000
O O13 0.500000 0.120304 0.500000
#
# Coordination Sequence:
#
# PCOD9547639 Si02
#       7
#     8   4   8   8   4   8   8
#     4  10  21  38  62  99 125 165 219 284 342 397
#     4  10  24  40  56  88 132 184 222 254 330 422
#     4  11  21  38  60  89 128 174 220 268 333 405
#     4  10  21  37  62  96 126 162 220 273 337 396
#     4  10  18  38  62  92 130 160 210 280 342 400
#     4   9  21  36  58  93 131 160 206 278 342 399
#     4  10  22  39  60  88 127 174 220 261 323 407
#
# _framework density 22.625964
#
# number of rings (size 3 to 8) (size 9 to 14) (size 15 to 20)
#    0.000    2.000    1.667    2.500    5.833    2.000 
#    3.000    0.000    0.000    0.000   26.000    0.000 
#    0.000    0.000    0.000    0.000    0.000    0.000 
#
# Total GULP energy -267218.870865 kJ/mol
# GULP energy per Si atom -5567.059810 kJ/mol
# Density = 2.257447 g / cm^3
# Si number density = 22.625964 Si / 1000 Ang^3
#
#
#
# Elastic Constant Matrix: (Units=GPa)
#
#
# Indices 1 2 3 4 5 6 
#
# 1 60.0428 15.7902 20.0704 0.0000 0.0000 0.0000
# 2 15.7902 60.0409 20.0702 0.0000 0.0000 0.0000
# 3 20.0704 20.0702 153.0056 0.0000 0.0000 0.0000
# 4 0.0000 0.0000 0.0000 -41.8981 0.0000 0.0000
# 5 0.0000 0.0000 0.0000 0.0000 -41.8964 0.0000
# 6 0.0000 0.0000 0.0000 0.0000 0.0000 27.1909
#
#
#
# Elastic Compliance Matrix: (Units=1/GPa)
#
#
# Indices 1 2 3 4 5 6 
#
# 1 0.018384 -0.004214 -0.001859 0.000000 0.000000 0.000000
# 2 -0.004214 0.018385 -0.001859 0.000000 0.000000 0.000000
# 3 -0.001859 -0.001859 0.007023 0.000000 0.000000 0.000000
# 4 0.000000 0.000000 0.000000 -0.023867 0.000000 0.000000
# 5 0.000000 0.000000 0.000000 0.000000 -0.023868 0.000000
# 6 0.000000 0.000000 0.000000 0.000000 0.000000 0.036777
#
#
# Mechanical properties :
#
#
# Convention : Reuss Voigt Hill
#
# Bulk Modulus (GPa) = 35.80387 42.77231 39.28809
# Shear Modulus (GPa) = 86.19779 3.15649 44.67714
#
# Velocity S-wave (km/s) = 6.17896 1.18241 4.44846
# Velocity P-wave (km/s) = 8.17096 4.56172 6.61717
#
# Compressibility (1/GPa) = 0.02792994
#
# Stress axis : x y z
#
# Youngs Moduli (GPa) = 54.39447 54.39270 142.38167
#
# Poissons Ratio (x) = 0.22918 0.26466
# Poissons Ratio (y) = 0.22919 0.26467
# Poissons Ratio (z) = 0.10111 0.10111
#
# Static dielectric constant tensor:
#      x y z
#    x 1.866320 0.000000 0.000000 
#    y 0.000000 1.866320 0.000000 
#    z 0.000000 0.000000 1.944080 
# 
# From -- ./inp_files/5650.got.cif
#   From: 2010.05.17/outbox.cif.g08.bks.cpg/sg91_3_cif.got.tgz:5650.got - 2010.06.03 19:20:03.
