data_PCOD9547100
_publ_section_title
;
Structure prediction by ZEFSAII (Michael W. Deem and Ramdas Pophale) SiO2 
 PCOD9547100
Probable space group: P 4 21 2
;
_chemical_formula_sum "Si O2"
_cell_formula_units_Z 40
_cell_length_a 14.715183
_cell_length_b 14.715183
_cell_length_c 8.563519
_cell_angle_alpha 90.000000
_cell_angle_beta 90.000000
_cell_angle_gamma 90.000000
_cell_volume 1854.315380
_symmetry_space_group_name_H-M "P 4 21 2"
_symmetry_group_IT_number 90
_symmetry_cell_setting 'tetragonal'
loop_
_space_group_symop_operation_xyz
x,y,z
1/2-y,1/2+x,z
-x,-y,z
1/2+y,1/2-x,z
1/2+x,1/2-y,-z
1/2-x,1/2+y,-z
y,x,-z
-y,-x,-z
loop_
_atom_site_type_symbol
_atom_site_label
_atom_site_fract_x
_atom_site_fract_y
_atom_site_fract_z
Si Si1 0.500000 0.500000 0.255727
Si Si2 0.709400 0.290601 0.500000
Si Si3 0.816759 0.992165 0.525130
Si Si4 0.914549 0.171655 0.799723
Si Si5 0.133975 0.436434 0.951425
Si Si6 0.619869 0.780276 0.737169
O O1 0.408546 0.514207 0.365184
O O2 0.484956 0.408388 0.156607
O O3 0.603542 0.287968 0.448745
O O4 0.713586 0.211520 0.631293
O O5 0.825821 0.064085 0.385846
O O6 0.736608 0.032194 0.630185
O O7 0.916435 0.272543 0.863652
O O8 0.814867 0.133071 0.827094
O O9 0.115700 0.541707 0.912208
O O10 0.147787 0.406583 0.132241
#
# Coordination Sequence:
#
# PCOD9547100 Si02
#       6
#     4   4   8   8   8   8
#     4  10  19  40  67 104 141 169 208 287 370 415
#     4  12  22  35  74 103 126 178 232 284 366 422
#     4  11  21  37  68 100 134 167 216 288 355 416
#     4  11  21  40  68  97 139 173 225 285 350 418
#     4  11  27  48  65  88 137 195 239 283 338 420
#     4  11  23  44  63  99 132 176 225 288 350 422
#
# _framework density 21.571306
#
# number of rings (size 3 to 8) (size 9 to 14) (size 15 to 20)
#    0.000    1.000    4.000    4.200    2.800    0.000 
#    0.000    8.000    0.000    2.400    0.000    0.000 
#    0.000    0.000    0.000    0.000    0.000    0.000 
#
# Total GULP energy -222739.822718 kJ/mol
# GULP energy per Si atom -5568.495568 kJ/mol
# Density = 2.152221 g / cm^3
# Si number density = 21.571306 Si / 1000 Ang^3
#
#
#
# Elastic Constant Matrix: (Units=GPa)
#
#
# Indices 1 2 3 4 5 6 
#
# 1 91.8884 5.5631 12.4172 0.0000 0.0000 0.0000
# 2 5.5631 91.8883 12.4167 0.0000 0.0000 0.0000
# 3 12.4172 12.4167 46.0834 0.0000 0.0000 0.0000
# 4 0.0000 0.0000 0.0000 29.1921 0.0000 0.0000
# 5 0.0000 0.0000 0.0000 0.0000 29.1921 0.0000
# 6 0.0000 0.0000 0.0000 0.0000 0.0000 15.8123
#
#
#
# Elastic Compliance Matrix: (Units=1/GPa)
#
#
# Indices 1 2 3 4 5 6 
#
# 1 0.011301 -0.000283 -0.002969 0.000000 0.000000 0.000000
# 2 -0.000283 0.011301 -0.002969 0.000000 0.000000 0.000000
# 3 -0.002969 -0.002969 0.023300 0.000000 0.000000 0.000000
# 4 0.000000 0.000000 0.000000 0.034256 0.000000 0.000000
# 5 0.000000 0.000000 0.000000 0.000000 0.034256 0.000000
# 6 0.000000 0.000000 0.000000 0.000000 0.000000 0.063242
#
#
# Mechanical properties :
#
#
# Convention : Reuss Voigt Hill
#
# Bulk Modulus (GPa) = 29.88580 32.29490 31.09035
# Shear Modulus (GPa) = 24.84472 28.13684 26.49078
#
# Velocity S-wave (km/s) = 3.39742 3.61552 3.50817
# Velocity P-wave (km/s) = 5.41059 5.69500 5.55461
#
# Compressibility (1/GPa) = 0.03346070
#
# Stress axis : x y z
#
# Youngs Moduli (GPa) = 88.48709 88.48722 42.91911
#
# Poissons Ratio (x) = 0.02504 0.12742
# Poissons Ratio (y) = 0.02504 0.12741
# Poissons Ratio (z) = 0.26270 0.26269
#
# Static dielectric constant tensor:
#      x y z
#    x 1.834800 0.000000 0.000000 
#    y 0.000000 1.834800 0.000000 
#    z 0.000000 0.000000 1.885240 
# 
# From -- ./inp_files/1342.got.cif
#   From: 2010.05.17/outbox.cif.g08.bks.cpg/sg90_1_cif.got.tgz:1342.got - 2010.06.03 19:17:45.
