data_PCOD9547914
_publ_section_title
;
Structure prediction by ZEFSAII (Michael W. Deem and Ramdas Pophale) SiO2 
 PCOD9547914
Probable space group: P 41 2 2
;
_chemical_formula_sum "Si O2"
_cell_formula_units_Z 36
_cell_length_a 12.116655
_cell_length_b 12.116655
_cell_length_c 12.282993
_cell_angle_alpha 90.000000
_cell_angle_beta 90.000000
_cell_angle_gamma 90.000000
_cell_volume 1803.307085
_symmetry_space_group_name_H-M "P 41 2 2"
_symmetry_group_IT_number 91
_symmetry_cell_setting 'tetragonal'
loop_
_space_group_symop_operation_xyz
x,y,z
-y,x,1/4+z
-x,-y,1/2+z
y,-x,3/4+z
x,-y,1/2-z
-x,y,-z
y,x,3/4-z
-y,-x,1/4-z
loop_
_atom_site_type_symbol
_atom_site_label
_atom_site_fract_x
_atom_site_fract_y
_atom_site_fract_z
Si Si1 0.783079 0.824247 0.705371
Si Si2 0.556175 0.273238 0.112002
Si Si3 0.723497 0.032908 0.582945
Si Si4 0.367485 0.634685 0.000460
Si Si5 0.943417 0.500000 0.250000
O O1 0.905573 0.793960 0.741553
O O2 0.730868 0.890033 0.809402
O O3 0.720368 0.708989 0.684194
O O4 0.769942 0.912065 0.610221
O O5 0.677710 0.322291 0.125000
O O6 0.482815 0.322411 0.209353
O O7 0.543661 0.142255 0.093171
O O8 0.500000 0.318332 0.000000
O O9 0.598521 0.015994 0.545835
O O10 0.340436 0.659565 0.125000
O O11 0.500000 0.639775 0.000000
#
# Coordination Sequence:
#
# PCOD9547914 Si02
#       5
#     8   8   8   8   4
#     4  10  21  38  63  90 123 163 227 275 339 389
#     4  10  20  37  55  84 129 179 202 252 322 408
#     4  10  20  40  61  91 120 171 213 284 329 397
#     4  12  22  34  56  99 127 165 214 258 326 421
#     4  10  22  36  64  84 132 166 210 266 342 394
#
# _framework density 19.963321000000001
#
# number of rings (size 3 to 8) (size 9 to 14) (size 15 to 20)
#    0.667    0.889    4.444    2.667    1.556    0.000 
#    0.000    0.000   14.667    0.000    0.000    0.000 
#    0.000    0.000    0.000    0.000    0.000    0.000 
#
# Total GULP energy -200669.480016 kJ/mol
# GULP energy per Si atom -5574.152223 kJ/mol
# Density = 1.991788 g / cm^3
# Si number density = 19.963321 Si / 1000 Ang^3
#
#
#
# Elastic Constant Matrix: (Units=GPa)
#
#
# Indices 1 2 3 4 5 6 
#
# 1 103.9691 57.6102 16.1699 0.0000 0.0000 0.0000
# 2 57.6102 103.9701 16.1699 0.0000 0.0000 0.0000
# 3 16.1699 16.1699 23.0978 0.0000 0.0000 0.0000
# 4 0.0000 0.0000 0.0000 21.0772 0.0000 0.0000
# 5 0.0000 0.0000 0.0000 0.0000 21.0769 0.0000
# 6 0.0000 0.0000 0.0000 0.0000 0.0000 40.4106
#
#
#
# Elastic Compliance Matrix: (Units=1/GPa)
#
#
# Indices 1 2 3 4 5 6 
#
# 1 0.014384 -0.007187 -0.005039 0.000000 0.000000 0.000000
# 2 -0.007187 0.014384 -0.005039 0.000000 0.000000 0.000000
# 3 -0.005039 -0.005039 0.050349 0.000000 0.000000 0.000000
# 4 0.000000 0.000000 0.000000 0.047445 0.000000 0.000000
# 5 0.000000 0.000000 0.000000 0.000000 0.047445 0.000000
# 6 0.000000 0.000000 0.000000 0.000000 0.000000 0.024746
#
#
# Mechanical properties :
#
#
# Convention : Reuss Voigt Hill
#
# Bulk Modulus (GPa) = 22.42700 45.65966 34.04333
# Shear Modulus (GPa) = 20.14966 25.91875 23.03421
#
# Velocity S-wave (km/s) = 3.18045 3.60713 3.40049
# Velocity P-wave (km/s) = 4.97448 6.34586 5.70155
#
# Compressibility (1/GPa) = 0.04458912
#
# Stress axis : x y z
#
# Youngs Moduli (GPa) = 69.52150 69.52221 19.86147
#
# Poissons Ratio (x) = 0.49963 0.10007
# Poissons Ratio (y) = 0.49962 0.10007
# Poissons Ratio (z) = 0.35029 0.35029
#
# Static dielectric constant tensor:
#      x y z
#    x 1.730690 0.000000 0.000000 
#    y 0.000000 1.730690 0.000000 
#    z 0.000000 0.000000 1.733560 
# 
# From -- ./inp_files/20608.got.cif
#   From: 2010.05.17/outbox.cif.g08.bks.cpg/sg91_11_cif.got.tgz:20608.got - 2010.06.03 19:20:03.
