data_PCOD9547663
_publ_section_title
;
Structure prediction by ZEFSAII (Michael W. Deem and Ramdas Pophale) SiO2 
 PCOD9547663
Probable space group: P 41 2 2
;
_chemical_formula_sum "Si O2"
_cell_formula_units_Z 48
_cell_length_a 22.459540
_cell_length_b 22.459540
_cell_length_c 5.375916
_cell_angle_alpha 90.000000
_cell_angle_beta 90.000000
_cell_angle_gamma 90.000000
_cell_volume 2711.778345
_symmetry_space_group_name_H-M "P 41 2 2"
_symmetry_group_IT_number 91
_symmetry_cell_setting 'tetragonal'
loop_
_space_group_symop_operation_xyz
x,y,z
-y,x,1/4+z
-x,-y,1/2+z
y,-x,3/4+z
x,-y,1/2-z
-x,y,-z
y,x,3/4-z
-y,-x,1/4-z
loop_
_atom_site_type_symbol
_atom_site_label
_atom_site_fract_x
_atom_site_fract_y
_atom_site_fract_z
Si Si1 0.670887 0.991209 0.498305
Si Si2 0.036444 0.872296 0.239611
Si Si3 0.226882 0.131306 0.403300
Si Si4 0.565782 0.091736 0.490906
Si Si5 0.136776 0.608367 0.757070
Si Si6 0.729341 0.830691 0.398434
O O1 0.616494 0.039737 0.493953
O O2 0.707655 0.000000 0.250000
O O3 0.641600 0.927259 0.501777
O O4 0.706022 0.000000 0.750000
O O5 0.068818 0.931183 0.125000
O O6 0.087508 0.822566 0.266706
O O7 0.000000 0.881082 0.500000
O O8 0.000000 0.850941 0.000000
O O9 0.194445 0.194445 0.375000
O O10 0.274680 0.139216 0.623557
O O11 0.247195 0.124461 0.116962
O O12 0.500000 0.063602 0.500000
O O13 0.575532 0.133492 0.730943
O O14 0.570203 0.131282 0.242208
O O15 0.183665 0.662116 0.732830
O O16 0.775575 0.775575 0.375000
#
# Coordination Sequence:
#
# PCOD9547663 Si02
#       6
#     8   8   8   8   8   8
#     4   8  16  27  39  57  81 109 139 172 208 249
#     4  11  22  37  53  71  90 109 136 168 210 273
#     4   9  19  35  53  68  85 111 142 173 217 279
#     4  10  19  31  46  64  91 125 153 181 225 274
#     4  10  19  30  45  67  90 114 151 188 218 268
#     4  10  19  34  53  69  88 116 147 188 235 267
#
# _framework density 17.700562000000001
#
# number of rings (size 3 to 8) (size 9 to 14) (size 15 to 20)
#    0.000    2.333    0.000    3.000    0.000    9.333 
#    0.000   15.000    0.000    0.000    0.000    0.000 
#    0.000    0.000    0.000    0.000    0.000    0.000 
#
# Total GULP energy -267202.596799 kJ/mol
# GULP energy per Si atom -5566.720767 kJ/mol
# Density = 1.766027 g / cm^3
# Si number density = 17.700562 Si / 1000 Ang^3
#
#
#
# Elastic Constant Matrix: (Units=GPa)
#
#
# Indices 1 2 3 4 5 6 
#
# 1 48.9255 17.2982 18.8758 0.0000 0.0000 0.0000
# 2 17.2982 48.9243 18.8763 0.0000 0.0000 0.0000
# 3 18.8758 18.8763 154.2103 0.0000 0.0000 0.0000
# 4 0.0000 0.0000 0.0000 14.4471 0.0000 0.0000
# 5 0.0000 0.0000 0.0000 0.0000 14.4473 0.0000
# 6 0.0000 0.0000 0.0000 0.0000 0.0000 7.2698
#
#
#
# Elastic Compliance Matrix: (Units=1/GPa)
#
#
# Indices 1 2 3 4 5 6 
#
# 1 0.023926 -0.007693 -0.001987 0.000000 0.000000 0.000000
# 2 -0.007693 0.023926 -0.001987 0.000000 0.000000 0.000000
# 3 -0.001987 -0.001987 0.006971 0.000000 0.000000 0.000000
# 4 0.000000 0.000000 0.000000 0.069218 0.000000 0.000000
# 5 0.000000 0.000000 0.000000 0.000000 0.069217 0.000000
# 6 0.000000 0.000000 0.000000 0.000000 0.000000 0.137555
#
#
# Mechanical properties :
#
#
# Convention : Reuss Voigt Hill
#
# Bulk Modulus (GPa) = 31.75668 40.24009 35.99839
# Shear Modulus (GPa) = 13.71201 20.36682 17.03941
#
# Velocity S-wave (km/s) = 2.78630 3.39578 3.10602
# Velocity P-wave (km/s) = 5.32272 6.17723 5.76583
#
# Compressibility (1/GPa) = 0.03148944
#
# Stress axis : x y z
#
# Youngs Moduli (GPa) = 41.79603 41.79490 143.44950
#
# Poissons Ratio (x) = 0.32152 0.28502
# Poissons Ratio (y) = 0.32153 0.28505
# Poissons Ratio (z) = 0.08305 0.08305
#
# Static dielectric constant tensor:
#      x y z
#    x 1.645500 0.000000 0.000000 
#    y 0.000000 1.645510 0.000000 
#    z 0.000000 0.000000 1.774270 
# 
# From -- ./inp_files/14532.got.cif
#   From: 2010.05.17/outbox.cif.g08.bks.cpg/sg91_8_cif.got.tgz:14532.got - 2010.06.03 19:20:03.
