data_PCOD9547583
_publ_section_title
;
Structure prediction by ZEFSAII (Michael W. Deem and Ramdas Pophale) SiO2 
 PCOD9547583
Probable space group: P 41 2 2
;
_chemical_formula_sum "Si O2"
_cell_formula_units_Z 48
_cell_length_a 14.196149
_cell_length_b 14.196149
_cell_length_c 12.130457
_cell_angle_alpha 90.000000
_cell_angle_beta 90.000000
_cell_angle_gamma 90.000000
_cell_volume 2444.658841
_symmetry_space_group_name_H-M "P 41 2 2"
_symmetry_group_IT_number 91
_symmetry_cell_setting 'tetragonal'
loop_
_space_group_symop_operation_xyz
x,y,z
-y,x,1/4+z
-x,-y,1/2+z
y,-x,3/4+z
x,-y,1/2-z
-x,y,-z
y,x,3/4-z
-y,-x,1/4-z
loop_
_atom_site_type_symbol
_atom_site_label
_atom_site_fract_x
_atom_site_fract_y
_atom_site_fract_z
Si Si1 0.118899 0.521653 0.130232
Si Si2 0.318056 0.659303 0.912946
Si Si3 0.393373 0.820969 0.520556
Si Si4 0.331119 0.006154 0.622600
Si Si5 0.538303 0.280832 0.228037
Si Si6 0.844449 0.276331 0.698802
O O1 0.166082 0.500000 0.250000
O O2 0.037644 0.442291 0.130319
O O3 0.110785 0.634966 0.130721
O O4 0.180305 0.494039 0.026125
O O5 0.222897 0.647153 0.840873
O O6 0.395757 0.680087 0.822036
O O7 0.337946 0.557653 0.964505
O O8 0.307065 0.743610 0.999047
O O9 0.500000 0.855574 0.500000
O O10 0.410187 0.740451 0.613118
O O11 0.329768 0.904049 0.567246
O O12 0.272304 0.082750 0.551780
O O13 0.302669 0.000000 0.750000
O O14 0.814261 0.185740 0.625000
#
# Coordination Sequence:
#
# PCOD9547583 Si02
#       6
#     8   8   8   8   8   8
#     4  10  18  32  57  81 110 150 199 247 306 356
#     4  11  22  36  59  75 118 162 204 256 304 357
#     4  10  21  36  55  80 111 153 199 250 313 371
#     4  11  20  36  61  88 116 154 205 255 316 377
#     4  11  20  36  58  77 113 161 210 254 307 358
#     4  11  21  35  57  87 118 156 200 255 312 364
#
# _framework density 19.634641999999999
#
# number of rings (size 3 to 8) (size 9 to 14) (size 15 to 20)
#    0.000    1.333    6.667    2.000    0.000    0.000 
#    0.000    0.833   36.667    0.000    0.000    0.000 
#    0.000   13.333    0.000    1.500    0.000    0.000 
#
# Total GULP energy -267482.370543 kJ/mol
# GULP energy per Si atom -5572.549386 kJ/mol
# Density = 1.958995 g / cm^3
# Si number density = 19.634642 Si / 1000 Ang^3
#
#
#
# Elastic Constant Matrix: (Units=GPa)
#
#
# Indices 1 2 3 4 5 6 
#
# 1 37.1949 24.8154 21.7321 0.0000 0.0000 0.0000
# 2 24.8154 37.1952 21.7322 0.0000 0.0000 0.0000
# 3 21.7321 21.7322 76.8417 0.0000 0.0000 0.0000
# 4 0.0000 0.0000 0.0000 34.7891 0.0000 0.0000
# 5 0.0000 0.0000 0.0000 0.0000 34.7888 0.0000
# 6 0.0000 0.0000 0.0000 0.0000 0.0000 20.6731
#
#
#
# Elastic Compliance Matrix: (Units=1/GPa)
#
#
# Indices 1 2 3 4 5 6 
#
# 1 0.050446 -0.030332 -0.005688 0.000000 0.000000 0.000000
# 2 -0.030332 0.050445 -0.005688 0.000000 0.000000 0.000000
# 3 -0.005688 -0.005688 0.016231 0.000000 0.000000 0.000000
# 4 0.000000 0.000000 0.000000 0.028745 0.000000 0.000000
# 5 0.000000 0.000000 0.000000 0.000000 0.028745 0.000000
# 6 0.000000 0.000000 0.000000 0.000000 0.000000 0.048372
#
#
# Mechanical properties :
#
#
# Convention : Reuss Voigt Hill
#
# Bulk Modulus (GPa) = 29.66959 31.97678 30.82318
# Shear Modulus (GPa) = 15.74126 23.58036 19.66081
#
# Velocity S-wave (km/s) = 2.83452 3.46924 3.16782
# Velocity P-wave (km/s) = 5.08491 5.68936 5.39560
#
# Compressibility (1/GPa) = 0.03370455
#
# Stress axis : x y z
#
# Youngs Moduli (GPa) = 19.82327 19.82345 61.60918
#
# Poissons Ratio (x) = 0.60129 0.35046
# Poissons Ratio (y) = 0.60128 0.35046
# Poissons Ratio (z) = 0.11276 0.11276
#
# Static dielectric constant tensor:
#      x y z
#    x 1.734990 0.000000 0.000000 
#    y 0.000000 1.734990 0.000000 
#    z 0.000000 0.000000 1.714550 
# 
# From -- ./inp_files/10773.got.cif
#   From: 2010.05.17/outbox.cif.g08.bks.cpg/sg91_6_cif.got.tgz:10773.got - 2010.06.03 19:20:03.
