data_PCOD9547070
_publ_section_title
;
Structure prediction by ZEFSAII (Michael W. Deem and Ramdas Pophale) SiO2 
 PCOD9547070
Probable space group: P 4 21 2
;
_chemical_formula_sum "Si O2"
_cell_formula_units_Z 38
_cell_length_a 14.790429
_cell_length_b 14.790429
_cell_length_c 7.969522
_cell_angle_alpha 90.000000
_cell_angle_beta 90.000000
_cell_angle_gamma 90.000000
_cell_volume 1743.387051
_symmetry_space_group_name_H-M "P 4 21 2"
_symmetry_group_IT_number 90
_symmetry_cell_setting 'tetragonal'
loop_
_space_group_symop_operation_xyz
x,y,z
1/2-y,1/2+x,z
-x,-y,z
1/2+y,1/2-x,z
1/2+x,1/2-y,-z
1/2-x,1/2+y,-z
y,x,-z
-y,-x,-z
loop_
_atom_site_type_symbol
_atom_site_label
_atom_site_fract_x
_atom_site_fract_y
_atom_site_fract_z
Si Si1 0.828705 0.415182 0.258037
Si Si2 0.500000 0.000000 0.893669
Si Si3 0.500000 0.500000 0.000000
Si Si4 0.537270 0.655479 0.752682
Si Si5 0.595867 0.111702 0.351545
Si Si6 0.000000 0.000000 0.500000
Si Si7 0.720972 0.733690 0.297236
O O1 0.753686 0.493511 0.261480
O O2 0.873707 0.405184 0.445062
O O3 0.778888 0.320720 0.224236
O O4 0.907593 0.438583 0.129750
O O5 0.594419 0.502052 0.097044
O O6 0.504002 0.593712 0.599222
O O7 0.645942 0.663830 0.757104
O O8 0.490942 0.122598 0.305915
O O9 0.668878 0.176918 0.268156
O O10 0.727125 0.727125 0.500000
#
# Coordination Sequence:
#
# PCOD9547070 Si02
#       7
#     8   2   2   8   8   2   8
#     4  11  19  32  57  89 125 160 207 260 325 384
#     4  12  16  32  56  88 120 158 204 268 312 390
#     4  10  28  46  60  82 132 178 220 278 324 390
#     4  11  22  41  60  90 126 171 217 269 325 390
#     4  10  18  30  49  85 130 165 193 253 325 382
#     4  10  24  34  60  90 124 166 212 266 328 382
#     4  10  20  31  57  93 125 159 208 263 321 391
#
# _framework density 21.796651000000001
#
# number of rings (size 3 to 8) (size 9 to 14) (size 15 to 20)
#    0.000    1.474    5.263    1.263    4.421    1.684 
#    0.000    1.053    0.000    0.000    0.000    0.000 
#    0.000    0.000    0.000    0.000    0.000    0.000 
#
# Total GULP energy -211724.871234 kJ/mol
# GULP energy per Si atom -5571.707138 kJ/mol
# Density = 2.174704 g / cm^3
# Si number density = 21.796651 Si / 1000 Ang^3
#
#
#
# Elastic Constant Matrix: (Units=GPa)
#
#
# Indices 1 2 3 4 5 6 
#
# 1 144.6612 63.9688 15.3116 0.0000 0.0000 0.0000
# 2 63.9688 144.6612 15.3116 0.0000 0.0000 0.0000
# 3 15.3116 15.3116 17.6324 0.0000 0.0000 0.0000
# 4 0.0000 0.0000 0.0000 16.5375 0.0000 0.0000
# 5 0.0000 0.0000 0.0000 0.0000 16.5375 0.0000
# 6 0.0000 0.0000 0.0000 0.0000 0.0000 64.3628
#
#
#
# Elastic Compliance Matrix: (Units=1/GPa)
#
#
# Indices 1 2 3 4 5 6 
#
# 1 0.008943 -0.003450 -0.004770 0.000000 0.000000 0.000000
# 2 -0.003450 0.008943 -0.004770 0.000000 0.000000 0.000000
# 3 -0.004770 -0.004770 0.064999 0.000000 0.000000 0.000000
# 4 0.000000 0.000000 0.000000 0.060469 0.000000 0.000000
# 5 0.000000 0.000000 0.000000 0.000000 0.060469 0.000000
# 6 0.000000 0.000000 0.000000 0.000000 0.000000 0.015537
#
#
# Mechanical properties :
#
#
# Convention : Reuss Voigt Hill
#
# Bulk Modulus (GPa) = 17.57345 55.12654 36.35000
# Shear Modulus (GPa) = 18.91735 33.64507 26.28121
#
# Velocity S-wave (km/s) = 2.94921 3.93312 3.47615
# Velocity P-wave (km/s) = 4.43589 6.78027 5.72927
#
# Compressibility (1/GPa) = 0.05690401
#
# Stress axis : x y z
#
# Youngs Moduli (GPa) = 111.81861 111.81861 15.38496
#
# Poissons Ratio (x) = 0.38574 0.07339
# Poissons Ratio (y) = 0.38574 0.07339
# Poissons Ratio (z) = 0.53341 0.53341
#
# Static dielectric constant tensor:
#      x y z
#    x 1.759700 0.000000 0.000000 
#    y 0.000000 1.759700 0.000000 
#    z 0.000000 0.000000 1.973750 
# 
# From -- ./inp_files/1234.got.cif
#   From: 2010.05.17/outbox.cif.g08.bks.cpg/sg90_1_cif.got.tgz:1234.got - 2010.06.03 19:17:45.
