data_PCOD9547575
_publ_section_title
;
Structure prediction by ZEFSAII (Michael W. Deem and Ramdas Pophale) SiO2 
 PCOD9547575
Probable space group: P 41 2 2
;
_chemical_formula_sum "Si O2"
_cell_formula_units_Z 40
_cell_length_a 9.228480
_cell_length_b 9.228480
_cell_length_c 27.825378
_cell_angle_alpha 90.000000
_cell_angle_beta 90.000000
_cell_angle_gamma 90.000000
_cell_volume 2369.743952
_symmetry_space_group_name_H-M "P 41 2 2"
_symmetry_group_IT_number 91
_symmetry_cell_setting 'tetragonal'
loop_
_space_group_symop_operation_xyz
x,y,z
-y,x,1/4+z
-x,-y,1/2+z
y,-x,3/4+z
x,-y,1/2-z
-x,y,-z
y,x,3/4-z
-y,-x,1/4-z
loop_
_atom_site_type_symbol
_atom_site_label
_atom_site_fract_x
_atom_site_fract_y
_atom_site_fract_z
Si Si1 0.109449 0.642047 0.841281
Si Si2 0.131445 0.690271 0.084234
Si Si3 0.557810 0.321371 0.363635
Si Si4 0.100487 0.414637 0.201310
Si Si5 0.954647 0.846220 0.764813
O O1 0.281398 0.644559 0.845580
O O2 0.025904 0.666980 0.891922
O O3 0.040426 0.494873 0.820050
O O4 0.052715 0.764240 0.804096
O O5 0.224845 0.775156 0.125000
O O6 0.218919 0.539906 0.078712
O O7 0.131003 0.796837 0.039224
O O8 0.464495 0.464495 0.375000
O O9 0.572822 0.225736 0.412096
O O10 0.142956 0.500000 0.250000
O O11 0.064744 0.254285 0.218450
O O12 0.016399 0.000000 0.750000
#
# Coordination Sequence:
#
# PCOD9547575 Si02
#       5
#     8   8   8   8   8
#     4   9  18  32  48  72 103 129 156 201 253 290
#     4   8  16  31  51  70  92 126 166 197 229 286
#     4  10  18  32  52  72  95 128 163 196 237 290
#     4   9  18  33  51  72  99 128 161 199 240 289
#     4  10  18  32  52  72  93 127 167 201 238 285
#
# _framework density 16.879463000000001
#
# number of rings (size 3 to 8) (size 9 to 14) (size 15 to 20)
#    0.000    2.800    0.000    4.800    0.000    0.000 
#    0.000   14.000    0.000    0.000    0.000    0.000 
#    0.000    0.000    0.000    0.000    0.000    0.000 
#
# Total GULP energy -222879.333234 kJ/mol
# GULP energy per Si atom -5571.983331 kJ/mol
# Density = 1.684104 g / cm^3
# Si number density = 16.879463 Si / 1000 Ang^3
#
#
#
# Elastic Constant Matrix: (Units=GPa)
#
#
# Indices 1 2 3 4 5 6 
#
# 1 123.2017 42.8774 30.7201 0.0000 0.0000 0.0000
# 2 42.8774 123.2019 30.7201 0.0000 0.0000 0.0000
# 3 30.7201 30.7201 43.0721 0.0000 0.0000 0.0000
# 4 0.0000 0.0000 0.0000 9.0519 0.0000 0.0000
# 5 0.0000 0.0000 0.0000 0.0000 9.0518 0.0000
# 6 0.0000 0.0000 0.0000 0.0000 0.0000 8.6803
#
#
#
# Elastic Compliance Matrix: (Units=1/GPa)
#
#
# Indices 1 2 3 4 5 6 
#
# 1 0.010314 -0.002135 -0.005834 0.000000 0.000000 0.000000
# 2 -0.002135 0.010314 -0.005834 0.000000 0.000000 0.000000
# 3 -0.005834 -0.005834 0.031538 0.000000 0.000000 0.000000
# 4 0.000000 0.000000 0.000000 0.110474 0.000000 0.000000
# 5 0.000000 0.000000 0.000000 0.000000 0.110475 0.000000
# 6 0.000000 0.000000 0.000000 0.000000 0.000000 0.115204
#
#
# Mechanical properties :
#
#
# Convention : Reuss Voigt Hill
#
# Bulk Modulus (GPa) = 40.71293 55.34565 48.02929
# Shear Modulus (GPa) = 11.78931 17.70067 14.74499
#
# Velocity S-wave (km/s) = 2.64567 3.24180 2.95879
# Velocity P-wave (km/s) = 5.78834 6.84633 6.33945
#
# Compressibility (1/GPa) = 0.02456222
#
# Stress axis : x y z
#
# Youngs Moduli (GPa) = 96.95123 96.95145 31.70740
#
# Poissons Ratio (x) = 0.20700 0.18497
# Poissons Ratio (y) = 0.20700 0.18497
# Poissons Ratio (z) = 0.56559 0.56559
#
# Static dielectric constant tensor:
#      x y z
#    x 1.577180 0.000000 0.000000 
#    y 0.000000 1.577180 0.000000 
#    z 0.000000 0.000000 1.572330 
# 
# From -- ./inp_files/7343.got.cif
#   From: 2010.05.17/outbox.cif.g08.bks.cpg/sg91_4_cif.got.tgz:7343.got - 2010.06.03 19:20:03.
