data_PCOD9547194
_publ_section_title
;
Structure prediction by ZEFSAII (Michael W. Deem and Ramdas Pophale) SiO2 
 PCOD9547194
Probable space group: P 4 21 2
;
_chemical_formula_sum "Si O2"
_cell_formula_units_Z 48
_cell_length_a 8.004133
_cell_length_b 8.004133
_cell_length_c 34.537046
_cell_angle_alpha 90.000000
_cell_angle_beta 90.000000
_cell_angle_gamma 90.000000
_cell_volume 2212.655400
_symmetry_space_group_name_H-M "P 4 21 2"
_symmetry_group_IT_number 90
_symmetry_cell_setting 'tetragonal'
loop_
_space_group_symop_operation_xyz
x,y,z
1/2-y,1/2+x,z
-x,-y,z
1/2+y,1/2-x,z
1/2+x,1/2-y,-z
1/2-x,1/2+y,-z
y,x,-z
-y,-x,-z
loop_
_atom_site_type_symbol
_atom_site_label
_atom_site_fract_x
_atom_site_fract_y
_atom_site_fract_z
Si Si1 0.000000 0.000000 0.818340
Si Si2 0.733322 0.410906 0.462093
Si Si3 0.410115 0.734220 0.883357
Si Si4 0.090194 0.766899 0.752243
Si Si5 0.234296 0.092280 0.038938
Si Si6 0.905311 0.765972 0.377118
Si Si7 0.000000 0.000000 0.686613
O O1 0.892174 0.118266 0.790163
O O2 0.114153 0.110785 0.846660
O O3 0.797587 0.600219 0.463269
O O4 0.629838 0.370162 0.500000
O O5 0.655678 0.378094 0.419750
O O6 0.601281 0.796205 0.882191
O O7 0.368588 0.640040 0.923018
O O8 0.204070 0.603122 0.751964
O O9 0.110603 0.885105 0.714938
O O10 0.402057 0.204766 0.039289
O O11 0.136143 0.136143 0.000000
O O12 0.795789 0.598317 0.374825
O O13 0.884086 0.891375 0.341834
#
# Coordination Sequence:
#
# PCOD9547194 Si02
#       7
#     4   8   8   8   8   8   4
#     4  11  22  40  63  86 114 154 193 230 288 357
#     4   9  19  34  51  74 105 141 183 228 272 322
#     4  11  23  39  61  90 122 156 200 252 299 348
#     4  10  22  39  59  85 116 146 181 230 285 343
#     4  11  24  41  62  90 125 167 212 255 302 353
#     4   9  19  35  53  77 110 145 183 228 276 329
#     4  11  20  34  59  84 108 144 187 226 276 337
#
# _framework density 21.693390000000001
#
# number of rings (size 3 to 8) (size 9 to 14) (size 15 to 20)
#    0.000    1.833    0.000    5.000    0.000    6.000 
#    0.000    1.667    0.000   10.000    0.000    0.000 
#    0.000    0.000    0.000    0.000    0.000    0.000 
#
# Total GULP energy -268519.181120 kJ/mol
# GULP energy per Si atom -5594.149607 kJ/mol
# Density = 2.164402 g / cm^3
# Si number density = 21.693390 Si / 1000 Ang^3
#
#
#
# Elastic Constant Matrix: (Units=GPa)
#
#
# Indices 1 2 3 4 5 6 
#
# 1 56.3800 8.2150 39.3999 0.0000 0.0000 0.0000
# 2 8.2150 56.3800 39.3997 0.0000 0.0000 0.0000
# 3 39.3999 39.3997 198.2090 0.0000 0.0000 0.0000
# 4 0.0000 0.0000 0.0000 36.7595 0.0000 0.0000
# 5 0.0000 0.0000 0.0000 0.0000 36.7593 0.0000
# 6 0.0000 0.0000 0.0000 0.0000 0.0000 30.7382
#
#
#
# Elastic Compliance Matrix: (Units=1/GPa)
#
#
# Indices 1 2 3 4 5 6 
#
# 1 0.020599 -0.000163 -0.004062 0.000000 0.000000 0.000000
# 2 -0.000163 0.020599 -0.004062 0.000000 0.000000 0.000000
# 3 -0.004062 -0.004062 0.006660 0.000000 0.000000 0.000000
# 4 0.000000 0.000000 0.000000 0.027204 0.000000 0.000000
# 5 0.000000 0.000000 0.000000 0.000000 0.027204 0.000000
# 6 0.000000 0.000000 0.000000 0.000000 0.000000 0.032533
#
#
# Mechanical properties :
#
#
# Convention : Reuss Voigt Hill
#
# Bulk Modulus (GPa) = 31.96499 53.88869 42.92684
# Shear Modulus (GPa) = 30.90186 35.78170 33.34178
#
# Velocity S-wave (km/s) = 3.77833 4.06572 3.92466
# Velocity P-wave (km/s) = 5.81388 6.85092 6.35359
#
# Compressibility (1/GPa) = 0.03128423
#
# Stress axis : x y z
#
# Youngs Moduli (GPa) = 48.54509 48.54513 150.14511
#
# Poissons Ratio (x) = 0.00789 0.60995
# Poissons Ratio (y) = 0.00789 0.60995
# Poissons Ratio (z) = 0.19721 0.19721
#
# Static dielectric constant tensor:
#      x y z
#    x 1.772530 0.000000 0.000000 
#    y 0.000000 1.772530 0.000000 
#    z 0.000000 0.000000 1.770000 
# 
# From -- ./inp_files/3071.got.cif
#   From: 2010.05.17/outbox.cif.g08.bks.cpg/sg90_2_cif.got.tgz:3071.got - 2010.06.03 19:17:45.
