data_PCOD9547677
_publ_section_title
;
Structure prediction by ZEFSAII (Michael W. Deem and Ramdas Pophale) SiO2 
 PCOD9547677
Probable space group: P 41 2 2
;
_chemical_formula_sum "Si O2"
_cell_formula_units_Z 32
_cell_length_a 7.854912
_cell_length_b 7.854912
_cell_length_c 21.656275
_cell_angle_alpha 90.000000
_cell_angle_beta 90.000000
_cell_angle_gamma 90.000000
_cell_volume 1336.184426
_symmetry_space_group_name_H-M "P 41 2 2"
_symmetry_group_IT_number 91
_symmetry_cell_setting 'tetragonal'
loop_
_space_group_symop_operation_xyz
x,y,z
-y,x,1/4+z
-x,-y,1/2+z
y,-x,3/4+z
x,-y,1/2-z
-x,y,-z
y,x,3/4-z
-y,-x,1/4-z
loop_
_atom_site_type_symbol
_atom_site_label
_atom_site_fract_x
_atom_site_fract_y
_atom_site_fract_z
Si Si1 0.474304 0.235851 0.333746
Si Si2 0.731184 0.487410 0.333876
Si Si3 0.935515 0.637870 0.700386
Si Si4 0.779658 0.968438 0.664222
O O1 0.355577 0.355577 0.375000
O O2 0.601072 0.360584 0.298350
O O3 0.584015 0.131309 0.383295
O O4 0.346842 0.103764 0.303753
O O5 0.609897 0.609897 0.375000
O O6 0.863075 0.610583 0.300075
O O7 0.854793 0.353003 0.371699
O O8 0.865547 0.500000 0.750000
O O9 0.881476 0.832660 0.705445
O O10 0.917357 0.082644 0.625000
#
# Coordination Sequence:
#
# PCOD9547677 Si02
#       4
#     8   8   8   8
#     4   8  16  33  53  71  97 138 174 199 245 315
#     4   9  17  32  53  73  98 133 167 198 247 312
#     4  10  19  31  52  80 104 128 168 220 258 290
#     4   9  17  32  55  74  96 135 173 201 244 307
#
# _framework density 23.948788
#
# number of rings (size 3 to 8) (size 9 to 14) (size 15 to 20)
#    0.000    3.000    0.000    0.750    0.000    0.000 
#    0.000   22.500    0.000   15.000    0.000    0.000 
#    0.000    0.000    0.000    0.000    0.000    0.000 
#
# Total GULP energy -178168.641076 kJ/mol
# GULP energy per Si atom -5567.770034 kJ/mol
# Density = 2.389428 g / cm^3
# Si number density = 23.948788 Si / 1000 Ang^3
#
#
#
# Elastic Constant Matrix: (Units=GPa)
#
#
# Indices 1 2 3 4 5 6 
#
# 1 174.6801 90.9071 33.4897 0.0000 0.0000 0.0000
# 2 90.9071 174.6798 33.4897 0.0000 0.0000 0.0000
# 3 33.4897 33.4897 48.3081 0.0000 0.0000 0.0000
# 4 0.0000 0.0000 0.0000 33.9467 0.0000 0.0000
# 5 0.0000 0.0000 0.0000 0.0000 33.9468 0.0000
# 6 0.0000 0.0000 0.0000 0.0000 0.0000 84.2266
#
#
#
# Elastic Compliance Matrix: (Units=1/GPa)
#
#
# Indices 1 2 3 4 5 6 
#
# 1 0.008250 -0.003687 -0.003163 0.000000 0.000000 0.000000
# 2 -0.003687 0.008250 -0.003163 0.000000 0.000000 0.000000
# 3 -0.003163 -0.003163 0.025086 0.000000 0.000000 0.000000
# 4 0.000000 0.000000 0.000000 0.029458 0.000000 0.000000
# 5 0.000000 0.000000 0.000000 0.000000 0.029458 0.000000
# 6 0.000000 0.000000 0.000000 0.000000 0.000000 0.011873
#
#
# Mechanical properties :
#
#
# Convention : Reuss Voigt Hill
#
# Bulk Modulus (GPa) = 46.38399 79.27121 62.82760
# Shear Modulus (GPa) = 35.81953 46.40945 41.11449
#
# Velocity S-wave (km/s) = 3.87159 4.40689 4.14788
# Velocity P-wave (km/s) = 6.27659 7.68547 7.01648
#
# Compressibility (1/GPa) = 0.02155916
#
# Stress axis : x y z
#
# Youngs Moduli (GPa) = 121.21188 121.21159 39.86222
#
# Poissons Ratio (x) = 0.44691 0.12610
# Poissons Ratio (y) = 0.44691 0.12610
# Poissons Ratio (z) = 0.38343 0.38343
#
# Static dielectric constant tensor:
#      x y z
#    x 1.904800 0.000000 0.000000 
#    y 0.000000 1.904800 0.000000 
#    z 0.000000 0.000000 1.876740 
# 
# From -- ./inp_files/5997.got.cif
#   From: 2010.05.17/outbox.cif.g08.bks.cpg/sg91_3_cif.got.tgz:5997.got - 2010.06.03 19:20:03.
