data_PCOD9547827
_publ_section_title
;
Structure prediction by ZEFSAII (Michael W. Deem and Ramdas Pophale) SiO2 
 PCOD9547827
Probable space group: P 41 2 2
;
_chemical_formula_sum "Si O2"
_cell_formula_units_Z 52
_cell_length_a 21.053457
_cell_length_b 21.053457
_cell_length_c 6.213307
_cell_angle_alpha 90.000000
_cell_angle_beta 90.000000
_cell_angle_gamma 90.000000
_cell_volume 2754.036222
_symmetry_space_group_name_H-M "P 41 2 2"
_symmetry_group_IT_number 91
_symmetry_cell_setting 'tetragonal'
loop_
_space_group_symop_operation_xyz
x,y,z
-y,x,1/4+z
-x,-y,1/2+z
y,-x,3/4+z
x,-y,1/2-z
-x,y,-z
y,x,3/4-z
-y,-x,1/4-z
loop_
_atom_site_type_symbol
_atom_site_label
_atom_site_fract_x
_atom_site_fract_y
_atom_site_fract_z
Si Si1 0.562049 0.193214 0.132316
Si Si2 0.383128 0.000000 0.250000
Si Si3 0.386703 0.112135 0.510279
Si Si4 0.433968 0.566033 0.625000
Si Si5 0.173553 0.309675 0.617711
Si Si6 0.702347 0.297654 0.625000
Si Si7 0.431434 0.689100 0.891588
Si Si8 0.057918 0.295616 0.873261
O O1 0.567234 0.159581 0.365020
O O2 0.564959 0.267451 0.180425
O O3 0.500000 0.174903 0.000000
O O4 0.624991 0.178539 0.999524
O O5 0.419218 0.057834 0.364127
O O6 0.336512 0.971130 0.428741
O O7 0.333858 0.145559 0.360429
O O8 0.346185 0.079615 0.698564
O O9 0.428619 0.500000 0.750000
O O10 0.424611 0.618046 0.809597
O O11 0.244276 0.285839 0.559644
O O12 0.122431 0.268464 0.757817
O O13 0.630444 0.292067 0.532211
O O14 0.500000 0.697216 0.000000
O O15 0.000000 0.259274 0.000000
#
# Coordination Sequence:
#
# PCOD9547827 Si02
#       8
#     8   4   8   4   8   4   8   8
#     4  11  22  35  53  76  98 131 174 213 263 338
#     4   8  14  28  54  78 100 128 168 212 256 322
#     4   9  17  32  50  81  97 132 170 212 265 326
#     4  12  24  41  58  76  94 124 166 222 288 352
#     4  10  20  34  51  80 101 135 172 212 281 329
#     4  12  22  37  56  76 112 138 170 236 280 362
#     4  12  24  40  57  77 102 132 174 219 284 353
#     4   8  15  29  52  79 102 131 171 213 257 327
#
# _framework density 18.881378999999999
#
# number of rings (size 3 to 8) (size 9 to 14) (size 15 to 20)
#    0.000    1.846    1.538    3.692    0.000    0.000 
#    0.000    0.000    0.000    0.000  314.000    0.000 
#    0.000    0.000    0.000    0.000    0.000    0.000 
#
# Total GULP energy -289659.297411 kJ/mol
# GULP energy per Si atom -5570.371104 kJ/mol
# Density = 1.883840 g / cm^3
# Si number density = 18.881379 Si / 1000 Ang^3
#
#
#
# Elastic Constant Matrix: (Units=GPa)
#
#
# Indices 1 2 3 4 5 6 
#
# 1 -34.6703 115.5911 19.8072 0.0000 0.0000 0.0000
# 2 115.5911 -34.6941 19.8182 0.0000 0.0000 0.0000
# 3 19.8072 19.8182 80.6601 0.0000 0.0000 0.0000
# 4 0.0000 0.0000 0.0000 70.3608 0.0000 0.0000
# 5 0.0000 0.0000 0.0000 0.0000 70.3493 0.0000
# 6 0.0000 0.0000 0.0000 0.0000 0.0000 0.4879
#
#
#
# Elastic Compliance Matrix: (Units=1/GPa)
#
#
# Indices 1 2 3 4 5 6 
#
# 1 0.003699 0.010352 -0.003452 0.000000 0.000000 0.000000
# 2 0.010352 0.003696 -0.003450 0.000000 0.000000 0.000000
# 3 -0.003452 -0.003450 0.014093 0.000000 0.000000 0.000000
# 4 0.000000 0.000000 0.000000 0.014212 0.000000 0.000000
# 5 0.000000 0.000000 0.000000 0.000000 0.014215 0.000000
# 6 0.000000 0.000000 0.000000 0.000000 0.000000 2.049704
#
#
# Mechanical properties :
#
#
# Convention : Reuss Voigt Hill
#
# Bulk Modulus (GPa) = 35.22575 35.74763 35.48669
# Shear Modulus (GPa) = 2.37848 18.64488 10.51168
#
# Velocity S-wave (km/s) = 1.12358 3.14582 2.36206
# Velocity P-wave (km/s) = 4.51443 5.67175 5.12586
#
# Compressibility (1/GPa) = 0.02838832
#
# Stress axis : x y z
#
# Youngs Moduli (GPa) = 270.34595 270.54606 70.95683
#
# Poissons Ratio (x) = -2.80073 0.24493
# Poissons Ratio (y) = -2.79866 0.24482
# Poissons Ratio (z) = 0.93319 0.93346
#
# Static dielectric constant tensor:
#      x y z
#    x 1.711810 0.000000 0.000000 
#    y 0.000000 1.711810 0.000000 
#    z 0.000000 0.000000 1.715420 
# 
# From -- ./inp_files/9059.got.cif
#   From: 2010.05.17/outbox.cif.g08.bks.cpg/sg91_5_cif.got.tgz:9059.got - 2010.06.03 19:20:03.
