data_PCOD9547376
_publ_section_title
;
Structure prediction by ZEFSAII (Michael W. Deem and Ramdas Pophale) SiO2 
 PCOD9547376
Probable space group: P 4 21 2
;
_chemical_formula_sum "Si O2"
_cell_formula_units_Z 28
_cell_length_a 7.982191
_cell_length_b 7.982191
_cell_length_c 19.724374
_cell_angle_alpha 90.000000
_cell_angle_beta 90.000000
_cell_angle_gamma 90.000000
_cell_volume 1256.745850
_symmetry_space_group_name_H-M "P 4 21 2"
_symmetry_group_IT_number 90
_symmetry_cell_setting 'tetragonal'
loop_
_space_group_symop_operation_xyz
x,y,z
1/2-y,1/2+x,z
-x,-y,z
1/2+y,1/2-x,z
1/2+x,1/2-y,-z
1/2-x,1/2+y,-z
y,x,-z
-y,-x,-z
loop_
_atom_site_type_symbol
_atom_site_label
_atom_site_fract_x
_atom_site_fract_y
_atom_site_fract_z
Si Si1 0.500000 0.500000 0.681904
Si Si2 0.265853 0.591779 0.794445
Si Si3 0.405592 0.734316 0.931352
Si Si4 0.234544 0.904565 0.569306
O O1 0.390427 0.615726 0.731646
O O2 0.616112 0.610705 0.632660
O O3 0.204997 0.399658 0.791208
O O4 0.356243 0.630726 0.865037
O O5 0.596779 0.793970 0.930345
O O6 0.362426 0.637575 0.000000
O O7 0.402136 0.793601 0.571585
O O8 0.140479 0.859522 0.500000
#
# Coordination Sequence:
#
# PCOD9547376 Si02
#       4
#     4   8   8   8
#     4  12  23  42  65  94 132 172 214 266 325 392
#     4  11  24  41  63  93 128 169 216 267 327 393
#     4  11  24  42  65  93 126 167 217 273 332 394
#     4  11  24  43  69  99 132 172 219 271 328 393
#
# _framework density 22.279762000000002
#
# number of rings (size 3 to 8) (size 9 to 14) (size 15 to 20)
#    0.000    0.857    0.000    7.286    0.000    5.143 
#    0.000    5.714    0.000    0.000    0.000    0.000 
#    0.000    0.000    0.000    0.000    0.000    0.000 
#
# Total GULP energy -156941.328611 kJ/mol
# GULP energy per Si atom -5605.047450 kJ/mol
# Density = 2.222905 g / cm^3
# Si number density = 22.279762 Si / 1000 Ang^3
#
#
#
# Elastic Constant Matrix: (Units=GPa)
#
#
# Indices 1 2 3 4 5 6 
#
# 1 81.1385 33.5171 53.0560 0.0000 0.0000 0.0000
# 2 33.5171 81.1371 53.0562 0.0000 0.0000 0.0000
# 3 53.0560 53.0562 209.1811 0.0000 0.0000 0.0000
# 4 0.0000 0.0000 0.0000 39.1328 0.0000 0.0000
# 5 0.0000 0.0000 0.0000 0.0000 39.1328 0.0000
# 6 0.0000 0.0000 0.0000 0.0000 0.0000 39.7203
#
#
#
# Elastic Compliance Matrix: (Units=1/GPa)
#
#
# Indices 1 2 3 4 5 6 
#
# 1 0.016198 -0.004801 -0.002891 0.000000 0.000000 0.000000
# 2 -0.004801 0.016198 -0.002891 0.000000 0.000000 0.000000
# 3 -0.002891 -0.002891 0.006247 0.000000 0.000000 0.000000
# 4 0.000000 0.000000 0.000000 0.025554 0.000000 0.000000
# 5 0.000000 0.000000 0.000000 0.000000 0.025554 0.000000
# 6 0.000000 0.000000 0.000000 0.000000 0.000000 0.025176
#
#
# Mechanical properties :
#
#
# Convention : Reuss Voigt Hill
#
# Bulk Modulus (GPa) = 57.21369 72.30169 64.75769
# Shear Modulus (GPa) = 35.23144 39.05233 37.14189
#
# Velocity S-wave (km/s) = 3.98090 4.19121 4.08740
# Velocity P-wave (km/s) = 6.84584 7.47956 7.16970
#
# Compressibility (1/GPa) = 0.01747833
#
# Stress axis : x y z
#
# Youngs Moduli (GPa) = 61.73579 61.73442 160.07810
#
# Poissons Ratio (x) = 0.29639 0.46274
# Poissons Ratio (y) = 0.29640 0.46276
# Poissons Ratio (z) = 0.17846 0.17846
#
# Static dielectric constant tensor:
#      x y z
#    x 1.833840 0.000000 0.000000 
#    y 0.000000 1.833840 0.000000 
#    z 0.000000 0.000000 1.758330 
# 
# From -- ./inp_files/2594.got.cif
#   From: 2010.05.17/outbox.cif.g08.bks.cpg/sg90_2_cif.got.tgz:2594.got - 2010.06.03 19:17:45.
