data_PCOD9547595
_publ_section_title
;
Structure prediction by ZEFSAII (Michael W. Deem and Ramdas Pophale) SiO2 
 PCOD9547595
Probable space group: P 41 2 2
;
_chemical_formula_sum "Si O2"
_cell_formula_units_Z 40
_cell_length_a 8.356201
_cell_length_b 8.356201
_cell_length_c 26.084898
_cell_angle_alpha 90.000000
_cell_angle_beta 90.000000
_cell_angle_gamma 90.000000
_cell_volume 1821.406570
_symmetry_space_group_name_H-M "P 41 2 2"
_symmetry_group_IT_number 91
_symmetry_cell_setting 'tetragonal'
loop_
_space_group_symop_operation_xyz
x,y,z
-y,x,1/4+z
-x,-y,1/2+z
y,-x,3/4+z
x,-y,1/2-z
-x,y,-z
y,x,3/4-z
-y,-x,1/4-z
loop_
_atom_site_type_symbol
_atom_site_label
_atom_site_fract_x
_atom_site_fract_y
_atom_site_fract_z
Si Si1 0.161162 0.827385 0.184330
Si Si2 0.319360 0.564540 0.866749
Si Si3 0.681663 0.169244 0.975980
Si Si4 0.203499 0.777583 0.955407
Si Si5 0.737393 0.114083 0.080980
O O1 0.204963 0.795038 0.125000
O O2 0.257539 0.767318 0.234708
O O3 0.986388 0.752366 0.197062
O O4 0.172188 0.019428 0.193322
O O5 0.493144 0.493144 0.875000
O O6 0.304515 0.676854 0.817220
O O7 0.256200 0.638550 0.918573
O O8 0.199954 0.418164 0.853495
O O9 0.500000 0.151393 0.000000
O O10 0.783986 0.198443 0.027340
O O11 0.298220 0.934564 0.936434
O O12 0.869808 0.130193 0.125000
#
# Coordination Sequence:
#
# PCOD9547595 Si02
#       5
#     8   8   8   8   8
#     4  10  18  33  63  95 127 164 209 278 320 368
#     4  10  20  37  63  82 126 168 206 263 318 395
#     4   9  18  34  60  86 124 169 204 256 334 381
#     4  10  20  34  64  98 127 159 219 268 322 380
#     4   9  19  35  62  89 119 158 212 265 311 375
#
# _framework density 21.961048999999999
#
# number of rings (size 3 to 8) (size 9 to 14) (size 15 to 20)
#    0.000    2.400    2.000    0.600    0.000    0.000 
#    0.000    0.000   48.400   24.000    0.000    0.000 
#    0.000    0.000    0.000    0.000    0.000    0.000 
#
# Total GULP energy -222837.519997 kJ/mol
# GULP energy per Si atom -5570.938000 kJ/mol
# Density = 2.191106 g / cm^3
# Si number density = 21.961049 Si / 1000 Ang^3
#
#
#
# Elastic Constant Matrix: (Units=GPa)
#
#
# Indices 1 2 3 4 5 6 
#
# 1 23.5177 11.1288 50.6334 0.0000 0.0000 0.0000
# 2 11.1288 23.5177 50.6336 0.0000 0.0000 0.0000
# 3 50.6334 50.6336 276.9541 0.0000 0.0000 0.0000
# 4 0.0000 0.0000 0.0000 25.6288 0.0000 0.0000
# 5 0.0000 0.0000 0.0000 0.0000 25.6286 0.0000
# 6 0.0000 0.0000 0.0000 0.0000 0.0000 16.4893
#
#
#
# Elastic Compliance Matrix: (Units=1/GPa)
#
#
# Indices 1 2 3 4 5 6 
#
# 1 0.071352 -0.009366 -0.011332 0.000000 0.000000 0.000000
# 2 -0.009366 0.071352 -0.011333 0.000000 0.000000 0.000000
# 3 -0.011332 -0.011333 0.007754 0.000000 0.000000 0.000000
# 4 0.000000 0.000000 0.000000 0.039019 0.000000 0.000000
# 5 0.000000 0.000000 0.000000 0.000000 0.039019 0.000000
# 6 0.000000 0.000000 0.000000 0.000000 0.000000 0.060645
#
#
# Mechanical properties :
#
#
# Convention : Reuss Voigt Hill
#
# Bulk Modulus (GPa) = 11.57449 60.97567 36.27508
# Shear Modulus (GPa) = 13.08894 27.65560 20.37227
#
# Velocity S-wave (km/s) = 2.44397 3.55251 3.04905
# Velocity P-wave (km/s) = 3.63949 6.68227 5.38046
#
# Compressibility (1/GPa) = 0.08639693
#
# Stress axis : x y z
#
# Youngs Moduli (GPa) = 14.01504 14.01496 128.95941
#
# Poissons Ratio (x) = 0.13126 1.46142
# Poissons Ratio (y) = 0.13126 1.46144
# Poissons Ratio (z) = 0.15882 0.15883
#
# Static dielectric constant tensor:
#      x y z
#    x 1.911060 0.000000 0.000000 
#    y 0.000000 1.911060 0.000000 
#    z 0.000000 0.000000 1.884320 
# 
# From -- ./inp_files/12747.got.cif
#   From: 2010.05.17/outbox.cif.g08.bks.cpg/sg91_7_cif.got.tgz:12747.got - 2010.06.03 19:20:03.
