data_PCOD9547256
_publ_section_title
;
Structure prediction by ZEFSAII (Michael W. Deem and Ramdas Pophale) SiO2 
 PCOD9547256
Probable space group: P 4 21 2
;
_chemical_formula_sum "Si O2"
_cell_formula_units_Z 48
_cell_length_a 14.304905
_cell_length_b 14.304905
_cell_length_c 11.640241
_cell_angle_alpha 90.000000
_cell_angle_beta 90.000000
_cell_angle_gamma 90.000000
_cell_volume 2381.946090
_symmetry_space_group_name_H-M "P 4 21 2"
_symmetry_group_IT_number 90
_symmetry_cell_setting 'tetragonal'
loop_
_space_group_symop_operation_xyz
x,y,z
1/2-y,1/2+x,z
-x,-y,z
1/2+y,1/2-x,z
1/2+x,1/2-y,-z
1/2-x,1/2+y,-z
y,x,-z
-y,-x,-z
loop_
_atom_site_type_symbol
_atom_site_label
_atom_site_fract_x
_atom_site_fract_y
_atom_site_fract_z
Si Si1 0.734902 0.144464 0.717055
Si Si2 0.575730 0.863594 0.941856
Si Si3 0.931215 0.080595 0.636720
Si Si4 0.816387 0.655612 0.826119
Si Si5 0.025469 0.277087 0.700146
Si Si6 0.132337 0.586579 0.465778
O O1 0.676628 0.094192 0.816244
O O2 0.821985 0.081420 0.672907
O O3 0.789119 0.229493 0.776212
O O4 0.660789 0.180037 0.620463
O O5 0.465523 0.878146 0.954960
O O6 0.620563 0.803785 0.044491
O O7 0.928333 0.071668 0.500000
O O8 0.979794 0.178699 0.667807
O O9 0.000000 0.000000 0.683270
O O10 0.903280 0.723856 0.805608
O O11 0.836056 0.562260 0.749359
O O12 0.082154 0.317616 0.590164
O O13 0.123114 0.474685 0.449225
#
# Coordination Sequence:
#
# PCOD9547256 Si02
#       6
#     8   8   8   8   8   8
#     4  11  25  40  63  97 137 172 217 275 346 411
#     4  11  23  42  69  96 129 168 219 287 355 402
#     4  10  24  44  64  92 136 185 228 272 326 414
#     4  11  23  41  65  93 129 172 228 274 331 415
#     4  11  22  39  67  95 126 174 224 277 337 400
#     4  11  22  37  62  97 136 167 211 279 348 401
#
# _framework density 20.151589999999999
#
# number of rings (size 3 to 8) (size 9 to 14) (size 15 to 20)
#    0.000    1.167    3.333    2.500    2.333    7.000 
#    0.000    0.000    0.000    4.000    0.000    0.000 
#    0.000    0.000    0.000    0.000    0.000    0.000 
#
# Total GULP energy -267447.236714 kJ/mol
# GULP energy per Si atom -5571.817432 kJ/mol
# Density = 2.010572 g / cm^3
# Si number density = 20.151590 Si / 1000 Ang^3
#
#
#
# Elastic Constant Matrix: (Units=GPa)
#
#
# Indices 1 2 3 4 5 6 
#
# 1 48.1838 8.5068 17.5026 0.0000 0.0000 0.0000
# 2 8.5068 48.1842 17.5027 0.0000 0.0000 0.0000
# 3 17.5026 17.5027 91.1582 0.0000 0.0000 0.0000
# 4 0.0000 0.0000 0.0000 33.0849 0.0000 0.0000
# 5 0.0000 0.0000 0.0000 0.0000 33.0849 0.0000
# 6 0.0000 0.0000 0.0000 0.0000 0.0000 25.3977
#
#
#
# Elastic Compliance Matrix: (Units=1/GPa)
#
#
# Indices 1 2 3 4 5 6 
#
# 1 0.022608 -0.002596 -0.003842 0.000000 0.000000 0.000000
# 2 -0.002596 0.022608 -0.003842 0.000000 0.000000 0.000000
# 3 -0.003842 -0.003842 0.012445 0.000000 0.000000 0.000000
# 4 0.000000 0.000000 0.000000 0.030225 0.000000 0.000000
# 5 0.000000 0.000000 0.000000 0.000000 0.030225 0.000000
# 6 0.000000 0.000000 0.000000 0.000000 0.000000 0.039374
#
#
# Mechanical properties :
#
#
# Convention : Reuss Voigt Hill
#
# Bulk Modulus (GPa) = 26.95404 30.50558 28.72981
# Shear Modulus (GPa) = 26.25876 27.91445 27.08660
#
# Velocity S-wave (km/s) = 3.61371 3.72590 3.67023
# Velocity P-wave (km/s) = 5.55127 5.80350 5.67878
#
# Compressibility (1/GPa) = 0.03710019
#
# Stress axis : x y z
#
# Youngs Moduli (GPa) = 44.23244 44.23274 80.35071
#
# Poissons Ratio (x) = 0.11481 0.30874
# Poissons Ratio (y) = 0.11481 0.30874
# Poissons Ratio (z) = 0.16996 0.16996
#
# Static dielectric constant tensor:
#      x y z
#    x 1.756230 0.000000 0.000000 
#    y 0.000000 1.756230 0.000000 
#    z 0.000000 0.000000 1.760150 
# 
# From -- ./inp_files/2153.got.cif
#   From: 2010.05.17/outbox.cif.g08.bks.cpg/sg90_2_cif.got.tgz:2153.got - 2010.06.03 19:17:45.
