data_PCOD9547909
_publ_section_title
;
Structure prediction by ZEFSAII (Michael W. Deem and Ramdas Pophale) SiO2 
 PCOD9547909
Probable space group: P 41 2 2
;
_chemical_formula_sum "Si O2"
_cell_formula_units_Z 40
_cell_length_a 8.115358
_cell_length_b 8.115358
_cell_length_c 24.531538
_cell_angle_alpha 90.000000
_cell_angle_beta 90.000000
_cell_angle_gamma 90.000000
_cell_volume 1615.623431
_symmetry_space_group_name_H-M "P 41 2 2"
_symmetry_group_IT_number 91
_symmetry_cell_setting 'tetragonal'
loop_
_space_group_symop_operation_xyz
x,y,z
-y,x,1/4+z
-x,-y,1/2+z
y,-x,3/4+z
x,-y,1/2-z
-x,y,-z
y,x,3/4-z
-y,-x,1/4-z
loop_
_atom_site_type_symbol
_atom_site_label
_atom_site_fract_x
_atom_site_fract_y
_atom_site_fract_z
Si Si1 0.724415 0.770468 0.042088
Si Si2 0.048859 0.312636 0.941021
Si Si3 0.877945 0.383855 0.181041
Si Si4 0.649912 0.735473 0.931697
Si Si5 0.733939 0.887754 0.591645
O O1 0.539782 0.713275 0.053173
O O2 0.836499 0.740207 0.094405
O O3 0.686442 0.966149 0.035372
O O4 0.764815 0.693661 0.983338
O O5 0.908144 0.171416 0.933111
O O6 0.238408 0.251734 0.939624
O O7 0.046877 0.396855 0.881134
O O8 0.000000 0.385663 0.000000
O O9 0.813452 0.570214 0.188278
O O10 0.648446 0.648446 0.875000
O O11 0.706193 0.919817 0.916199
#
# Coordination Sequence:
#
# PCOD9547909 Si02
#       5
#     8   8   8   8   8
#     4   9  20  40  59  84 133 160 204 273 320 385
#     4  10  20  36  63  91 125 161 210 265 312 380
#     4   9  20  39  59  92 128 163 212 258 324 388
#     4  10  21  37  62  91 120 163 213 262 321 392
#     4  10  21  39  63  89 126 169 204 266 329 379
#
# _framework density 24.758244000000001
#
# number of rings (size 3 to 8) (size 9 to 14) (size 15 to 20)
#    0.000    2.400    0.000    1.200    5.600    3.200 
#   14.400    0.000    0.000    2.400    0.000    0.000 
#    0.000    0.000    0.000    0.000    0.000    0.000 
#
# Total GULP energy -222836.728889 kJ/mol
# GULP energy per Si atom -5570.918222 kJ/mol
# Density = 2.470189 g / cm^3
# Si number density = 24.758244 Si / 1000 Ang^3
#
#
#
# Elastic Constant Matrix: (Units=GPa)
#
#
# Indices 1 2 3 4 5 6 
#
# 1 -173.0899 263.4230 17.7163 0.0000 0.0000 0.0000
# 2 263.4230 -173.0899 17.7163 0.0000 0.0000 0.0000
# 3 17.7163 17.7163 166.6324 0.0000 0.0000 0.0000
# 4 0.0000 0.0000 0.0000 -25.8739 0.0000 0.0000
# 5 0.0000 0.0000 0.0000 0.0000 -25.8739 0.0000
# 6 0.0000 0.0000 0.0000 0.0000 0.0000 18.2730
#
#
#
# Elastic Compliance Matrix: (Units=1/GPa)
#
#
# Indices 1 2 3 4 5 6 
#
# 1 0.004631 0.006921 -0.001228 0.000000 0.000000 0.000000
# 2 0.006921 0.004631 -0.001228 0.000000 0.000000 0.000000
# 3 -0.001228 -0.001228 0.006262 0.000000 0.000000 0.000000
# 4 0.000000 0.000000 0.000000 -0.038649 0.000000 0.000000
# 5 0.000000 0.000000 0.000000 0.000000 -0.038649 0.000000
# 6 0.000000 0.000000 0.000000 0.000000 0.000000 0.054726
#
#
# Mechanical properties :
#
#
# Convention : Reuss Voigt Hill
#
# Bulk Modulus (GPa) = 40.89409 46.46263 43.67836
# Shear Modulus (GPa) = -638.74395 -38.58848 -338.66622
#
# Velocity S-wave (km/s) = -16.07957 -3.95221 -11.70838
# Velocity P-wave (km/s) = 18.11583 1.42103 12.84918
#
# Compressibility (1/GPa) = 0.02445341
#
# Stress axis : x y z
#
# Youngs Moduli (GPa) = 215.95923 215.95923 159.68336
#
# Poissons Ratio (x) = -1.49474 0.19612
# Poissons Ratio (y) = -1.49474 0.19612
# Poissons Ratio (z) = 0.26524 0.26524
#
# Static dielectric constant tensor:
#      x y z
#    x 2.540180 0.000000 0.000000 
#    y 0.000000 2.540180 0.000000 
#    z 0.000000 0.000000 2.602220 
# 
# From -- ./inp_files/17516.got.cif
#   From: 2010.05.17/outbox.cif.g08.bks.cpg/sg91_9_cif.got.tgz:17516.got - 2010.06.03 19:20:03.
