data_PCOD9547849
_publ_section_title
;
Structure prediction by ZEFSAII (Michael W. Deem and Ramdas Pophale) SiO2 
 PCOD9547849
Probable space group: P 41 2 2
;
_chemical_formula_sum "Si O2"
_cell_formula_units_Z 36
_cell_length_a 9.193154
_cell_length_b 9.193154
_cell_length_c 17.376765
_cell_angle_alpha 90.000000
_cell_angle_beta 90.000000
_cell_angle_gamma 90.000000
_cell_volume 1468.581315
_symmetry_space_group_name_H-M "P 41 2 2"
_symmetry_group_IT_number 91
_symmetry_cell_setting 'tetragonal'
loop_
_space_group_symop_operation_xyz
x,y,z
-y,x,1/4+z
-x,-y,1/2+z
y,-x,3/4+z
x,-y,1/2-z
-x,y,-z
y,x,3/4-z
-y,-x,1/4-z
loop_
_atom_site_type_symbol
_atom_site_label
_atom_site_fract_x
_atom_site_fract_y
_atom_site_fract_z
Si Si1 0.700363 0.318811 0.452109
Si Si2 0.043236 0.043236 0.375000
Si Si3 0.954351 0.700698 0.618825
Si Si4 0.424978 0.311335 0.708280
Si Si5 0.267485 0.000000 0.250000
Si Si6 0.297629 0.297629 0.875000
O O1 0.675334 0.145828 0.445085
O O2 0.639832 0.375425 0.370345
O O3 0.651253 0.406397 0.526882
O O4 0.873748 0.346304 0.454060
O O5 0.157447 0.075588 0.308976
O O6 0.874100 0.061148 0.350591
O O7 0.860457 0.609156 0.557574
O O8 0.123221 0.674128 0.627426
O O9 0.354592 0.346248 0.790737
#
# Coordination Sequence:
#
# PCOD9547849 Si02
#       6
#     8   4   8   8   4   4
#     4   9  22  36  62  94 137 174 227 285 353 399
#     4   9  18  32  58  97 134 168 212 267 368 418
#     4   8  20  32  57 100 129 171 214 288 342 414
#     4  10  22  39  61 100 130 185 228 291 340 425
#     4  10  20  34  64  96 142 174 218 300 352 428
#     4  11  20  34  68  97 140 166 232 279 360 426
#
# _framework density 24.513452999999998
#
# number of rings (size 3 to 8) (size 9 to 14) (size 15 to 20)
#    1.333    1.333    0.000    0.667   12.444    0.889 
#    0.000    0.000    0.000    5.333    5.778    0.000 
#    0.000    0.000    0.000    0.000    0.000    0.000 
#
# Total GULP energy -200616.511444 kJ/mol
# GULP energy per Si atom -5572.680873 kJ/mol
# Density = 2.445766 g / cm^3
# Si number density = 24.513453 Si / 1000 Ang^3
#
#
#
# Elastic Constant Matrix: (Units=GPa)
#
#
# Indices 1 2 3 4 5 6 
#
# 1 87.7349 17.0485 49.7407 0.0000 0.0000 0.0000
# 2 17.0485 87.7349 49.7407 0.0000 0.0000 0.0000
# 3 49.7407 49.7407 156.8898 0.0000 0.0000 0.0000
# 4 0.0000 0.0000 0.0000 51.3043 0.0000 0.0000
# 5 0.0000 0.0000 0.0000 0.0000 51.3043 0.0000
# 6 0.0000 0.0000 0.0000 0.0000 0.0000 4.7928
#
#
#
# Elastic Compliance Matrix: (Units=1/GPa)
#
#
# Indices 1 2 3 4 5 6 
#
# 1 0.013900 -0.000247 -0.004329 0.000000 0.000000 0.000000
# 2 -0.000247 0.013900 -0.004329 0.000000 0.000000 0.000000
# 3 -0.004329 -0.004329 0.009119 0.000000 0.000000 0.000000
# 4 0.000000 0.000000 0.000000 0.019492 0.000000 0.000000
# 5 0.000000 0.000000 0.000000 0.000000 0.019492 0.000000
# 6 0.000000 0.000000 0.000000 0.000000 0.000000 0.208645
#
#
# Mechanical properties :
#
#
# Convention : Reuss Voigt Hill
#
# Bulk Modulus (GPa) = 52.32772 62.82441 57.57607
# Shear Modulus (GPa) = 16.19565 35.86893 26.03229
#
# Velocity S-wave (km/s) = 2.57317 3.82937 3.26231
# Velocity P-wave (km/s) = 5.49737 6.72580 6.14237
#
# Compressibility (1/GPa) = 0.01911033
#
# Stress axis : x y z
#
# Youngs Moduli (GPa) = 71.94230 71.94230 109.66590
#
# Poissons Ratio (x) = 0.01777 0.47470
# Poissons Ratio (y) = 0.01777 0.47470
# Poissons Ratio (z) = 0.31141 0.31141
#
# Static dielectric constant tensor:
#      x y z
#    x 1.998390 0.000000 0.000000 
#    y 0.000000 1.998390 0.000000 
#    z 0.000000 0.000000 1.924810 
# 
# From -- ./inp_files/16804.got.cif
#   From: 2010.05.17/outbox.cif.g08.bks.cpg/sg91_9_cif.got.tgz:16804.got - 2010.06.03 19:20:03.
