data_PCOD9547521
_publ_section_title
;
Structure prediction by ZEFSAII (Michael W. Deem and Ramdas Pophale) SiO2 
 PCOD9547521
Probable space group: P 41 2 2
;
_chemical_formula_sum "Si O2"
_cell_formula_units_Z 40
_cell_length_a 8.608261
_cell_length_b 8.608261
_cell_length_c 24.537774
_cell_angle_alpha 90.000000
_cell_angle_beta 90.000000
_cell_angle_gamma 90.000000
_cell_volume 1818.301992
_symmetry_space_group_name_H-M "P 41 2 2"
_symmetry_group_IT_number 91
_symmetry_cell_setting 'tetragonal'
loop_
_space_group_symop_operation_xyz
x,y,z
-y,x,1/4+z
-x,-y,1/2+z
y,-x,3/4+z
x,-y,1/2-z
-x,y,-z
y,x,3/4-z
-y,-x,1/4-z
loop_
_atom_site_type_symbol
_atom_site_label
_atom_site_fract_x
_atom_site_fract_y
_atom_site_fract_z
Si Si1 0.771688 0.341912 0.276948
Si Si2 0.735240 0.666459 0.045562
Si Si3 0.898042 0.641500 0.447510
Si Si4 0.134086 0.881994 0.868195
Si Si5 0.374330 0.408508 0.435838
O O1 0.829633 0.500000 0.250000
O O2 0.751172 0.229883 0.224970
O O3 0.870455 0.255483 0.323089
O O4 0.596535 0.366603 0.303151
O O5 0.816201 0.514675 0.071625
O O6 0.806533 0.812616 0.075158
O O7 0.552061 0.642908 0.054759
O O8 0.743434 0.661770 0.980079
O O9 0.000000 0.595923 0.500000
O O10 0.001193 0.734085 0.405069
O O11 0.976760 0.976760 0.875000
O O12 0.349291 0.349291 0.375000
#
# Coordination Sequence:
#
# PCOD9547521 Si02
#       5
#     8   8   8   8   8
#     4  10  18  37  70 105 127 179 249 300 350 416
#     4  10  20  37  69 102 141 183 243 296 358 426
#     4   9  20  39  66  97 133 181 232 292 360 422
#     4  11  24  39  64  97 153 194 226 290 367 445
#     4  10  17  33  71 115 135 164 247 329 353 389
#
# _framework density 21.998548
#
# number of rings (size 3 to 8) (size 9 to 14) (size 15 to 20)
#    0.000    2.000    6.000    0.000    0.000    2.400 
#    0.000    3.000   48.400    0.000    0.000    4.200 
#    0.000    0.000    0.000    0.000    0.000    0.000 
#
# Total GULP energy -223367.937148 kJ/mol
# GULP energy per Si atom -5584.198429 kJ/mol
# Density = 2.194848 g / cm^3
# Si number density = 21.998548 Si / 1000 Ang^3
#
#
#
# Elastic Constant Matrix: (Units=GPa)
#
#
# Indices 1 2 3 4 5 6 
#
# 1 98.2305 44.7959 60.6308 0.0000 0.0000 0.0000
# 2 44.7959 98.2305 60.6308 0.0000 0.0000 0.0000
# 3 60.6308 60.6308 134.2889 0.0000 0.0000 0.0000
# 4 0.0000 0.0000 0.0000 -112.1219 0.0000 0.0000
# 5 0.0000 0.0000 0.0000 0.0000 -112.1219 0.0000
# 6 0.0000 0.0000 0.0000 0.0000 0.0000 79.9601
#
#
#
# Elastic Compliance Matrix: (Units=1/GPa)
#
#
# Indices 1 2 3 4 5 6 
#
# 1 0.015021 -0.003693 -0.005115 0.000000 0.000000 0.000000
# 2 -0.003693 0.015021 -0.005115 0.000000 0.000000 0.000000
# 3 -0.005115 -0.005115 0.012065 0.000000 0.000000 0.000000
# 4 0.000000 0.000000 0.000000 -0.008919 0.000000 0.000000
# 5 0.000000 0.000000 0.000000 0.000000 -0.008919 0.000000
# 6 0.000000 0.000000 0.000000 0.000000 0.000000 0.012506
#
#
# Mechanical properties :
#
#
# Convention : Reuss Voigt Hill
#
# Bulk Modulus (GPa) = 70.11240 73.65168 71.88204
# Shear Modulus (GPa) = 72.07233 -17.87726 27.09754
#
# Velocity S-wave (km/s) = 5.73005 -2.85381 3.51349
# Velocity P-wave (km/s) = 8.70164 4.76382 7.01472
#
# Compressibility (1/GPa) = 0.01426281
#
# Stress axis : x y z
#
# Youngs Moduli (GPa) = 66.57258 66.57258 82.88445
#
# Poissons Ratio (x) = 0.24587 0.42391
# Poissons Ratio (y) = 0.24587 0.42391
# Poissons Ratio (z) = 0.34049 0.34049
#
# Static dielectric constant tensor:
#      x y z
#    x 1.833310 0.000000 0.000000 
#    y 0.000000 1.833310 0.000000 
#    z 0.000000 0.000000 1.837130 
# 
# From -- ./inp_files/21714.got.cif
#   From: 2010.05.17/outbox.cif.g08.bks.cpg/sg91_11_cif.got.tgz:21714.got - 2010.06.03 19:20:03.
