data_PCOD9547669
_publ_section_title
;
Structure prediction by ZEFSAII (Michael W. Deem and Ramdas Pophale) SiO2 
 PCOD9547669
Probable space group: P 41 2 2
;
_chemical_formula_sum "Si O2"
_cell_formula_units_Z 56
_cell_length_a 19.705088
_cell_length_b 19.705088
_cell_length_c 5.743940
_cell_angle_alpha 90.000000
_cell_angle_beta 90.000000
_cell_angle_gamma 90.000000
_cell_volume 2230.317295
_symmetry_space_group_name_H-M "P 41 2 2"
_symmetry_group_IT_number 91
_symmetry_cell_setting 'tetragonal'
loop_
_space_group_symop_operation_xyz
x,y,z
-y,x,1/4+z
-x,-y,1/2+z
y,-x,3/4+z
x,-y,1/2-z
-x,y,-z
y,x,3/4-z
-y,-x,1/4-z
loop_
_atom_site_type_symbol
_atom_site_label
_atom_site_fract_x
_atom_site_fract_y
_atom_site_fract_z
Si Si1 0.998335 0.874079 0.748297
Si Si2 0.765091 0.881330 0.993527
Si Si3 0.259147 0.642246 0.213908
Si Si4 0.240499 0.883525 0.508918
Si Si5 0.898967 0.601153 0.275421
Si Si6 0.578579 0.736617 0.473131
Si Si7 0.095193 0.617259 0.222980
O O1 0.058872 0.817624 0.741442
O O2 0.000000 0.909998 0.500000
O O3 0.929951 0.829790 0.746491
O O4 0.000000 0.907753 0.000000
O O5 0.766454 0.849018 0.740183
O O6 0.696157 0.927738 0.983970
O O7 0.762069 0.846037 0.243942
O O8 0.283517 0.716484 0.125000
O O9 0.282681 0.615253 0.473234
O O10 0.177709 0.629534 0.219791
O O11 0.285735 0.605189 0.978686
O O12 0.317730 0.909323 0.513072
O O13 0.818675 0.585356 0.277637
O O14 0.923289 0.581882 0.534054
O O15 0.923277 0.580328 0.017675
O O16 0.500000 0.718322 0.500000
#
# Coordination Sequence:
#
# PCOD9547669 Si02
#       7
#     8   8   8   8   8   8   8
#     4   8  12  16  24  38  58  81 108 142 174 199
#     4   8  12  18  27  41  61  84 111 141 170 198
#     4  10  19  31  46  64  85 104 120 140 167 197
#     4   8  12  18  27  41  61  84 111 141 171 197
#     4   8  14  23  35  50  70  93 116 140 164 191
#     4  10  19  31  46  64  85 105 124 143 165 198
#     4   8  14  23  35  50  70  93 116 139 165 198
#
# _framework density 25.108533000000001
#
# number of rings (size 3 to 8) (size 9 to 14) (size 15 to 20)
#    0.000    3.429    0.000    0.857    0.000    0.000 
#    0.000    0.000    0.000    0.000    0.000    0.000 
#    0.000   72.000    0.000    0.286    0.000   37.714 
#
# Total GULP energy -311796.567989 kJ/mol
# GULP energy per Si atom -5567.795857 kJ/mol
# Density = 2.505139 g / cm^3
# Si number density = 25.108533 Si / 1000 Ang^3
#
#
#
# Elastic Constant Matrix: (Units=GPa)
#
#
# Indices 1 2 3 4 5 6 
#
# 1 390.5446 -300.3962 47.4049 0.0000 0.0000 0.0000
# 2 -300.3962 390.4386 47.3983 0.0000 0.0000 0.0000
# 3 47.4049 47.3983 353.6039 0.0000 0.0000 0.0000
# 4 0.0000 0.0000 0.0000 -10.0682 0.0000 0.0000
# 5 0.0000 0.0000 0.0000 0.0000 -10.0707 0.0000
# 6 0.0000 0.0000 0.0000 0.0000 0.0000 21.6084
#
#
#
# Elastic Compliance Matrix: (Units=1/GPa)
#
#
# Indices 1 2 3 4 5 6 
#
# 1 0.007184 0.005737 -0.001732 0.000000 0.000000 0.000000
# 2 0.005737 0.007186 -0.001732 0.000000 0.000000 0.000000
# 3 -0.001732 -0.001732 0.003292 0.000000 0.000000 0.000000
# 4 0.000000 0.000000 0.000000 -0.099322 0.000000 0.000000
# 5 0.000000 0.000000 0.000000 0.000000 -0.099298 0.000000
# 6 0.000000 0.000000 0.000000 0.000000 0.000000 0.046278
#
#
# Mechanical properties :
#
#
# Convention : Reuss Voigt Hill
#
# Bulk Modulus (GPa) = 45.02947 80.37790 62.70369
# Shear Modulus (GPa) = -37.92966 89.63923 25.85479
#
# Velocity S-wave (km/s) = -3.89090 5.98149 3.21241
# Velocity P-wave (km/s) = 1.48747 8.93230 6.22790
#
# Compressibility (1/GPa) = 0.02220768
#
# Stress axis : x y z
#
# Youngs Moduli (GPa) = 139.20239 139.16461 303.72537
#
# Poissons Ratio (x) = -0.79844 0.52609
# Poissons Ratio (y) = -0.79865 0.52616
# Poissons Ratio (z) = 0.24112 0.24108
#
# Static dielectric constant tensor:
#      x y z
#    x 2.078340 0.000000 0.000000 
#    y 0.000000 2.078340 0.000000 
#    z 0.000000 0.000000 2.060090 
# 
# From -- ./inp_files/9163.got.cif
#   From: 2010.05.17/outbox.cif.g08.bks.cpg/sg91_5_cif.got.tgz:9163.got - 2010.06.03 19:20:03.
