data_PCOD9547985
_publ_section_title
;
Structure prediction by ZEFSAII (Michael W. Deem and Ramdas Pophale) SiO2 
 PCOD9547985
Probable space group: P 41 2 2
;
_chemical_formula_sum "Si O2"
_cell_formula_units_Z 56
_cell_length_a 11.409177
_cell_length_b 11.409177
_cell_length_c 22.225030
_cell_angle_alpha 90.000000
_cell_angle_beta 90.000000
_cell_angle_gamma 90.000000
_cell_volume 2893.017038
_symmetry_space_group_name_H-M "P 41 2 2"
_symmetry_group_IT_number 91
_symmetry_cell_setting 'tetragonal'
loop_
_space_group_symop_operation_xyz
x,y,z
-y,x,1/4+z
-x,-y,1/2+z
y,-x,3/4+z
x,-y,1/2-z
-x,y,-z
y,x,3/4-z
-y,-x,1/4-z
loop_
_atom_site_type_symbol
_atom_site_label
_atom_site_fract_x
_atom_site_fract_y
_atom_site_fract_z
Si Si1 0.726168 0.329915 0.236660
Si Si2 0.352709 0.531289 0.847039
Si Si3 0.086291 0.617747 0.553064
Si Si4 0.862405 0.859029 0.748734
Si Si5 0.836785 0.639426 0.068469
Si Si6 0.075212 0.223956 0.682610
Si Si7 0.809788 0.005681 0.375907
O O1 0.641845 0.378186 0.290822
O O2 0.725377 0.428288 0.184612
O O3 0.671561 0.213314 0.209350
O O4 0.850106 0.296453 0.267584
O O5 0.466214 0.466214 0.875000
O O6 0.283575 0.597824 0.899792
O O7 0.096858 0.479217 0.553834
O O8 0.000000 0.653635 0.500000
O O9 0.032638 0.678626 0.611477
O O10 0.728201 0.822140 0.737116
O O11 0.932145 0.819481 0.689451
O O12 0.940911 0.803703 0.801405
O O13 0.866096 0.000000 0.750000
O O14 0.908752 0.708149 0.120020
O O15 0.139821 0.099154 0.672334
O O16 0.893081 0.893081 0.375000
#
# Coordination Sequence:
#
# PCOD9547985 Si02
#       7
#     8   8   8   8   8   8   8
#     4  10  21  35  62  92 115 159 202 264 325 360
#     4  10  20  39  61  86 120 157 213 262 310 371
#     4  12  23  38  60  89 131 153 205 271 323 367
#     4  11  22  39  61  87 133 171 202 249 317 399
#     4  10  24  38  59  91 123 168 211 251 320 378
#     4  10  21  40  59  92 125 158 211 255 311 399
#     4  11  22  33  60  94 118 157 205 253 319 383
#
# _framework density 19.356956
#
# number of rings (size 3 to 8) (size 9 to 14) (size 15 to 20)
#    0.000    1.429    4.286    1.286    4.000    0.000 
#    0.000    0.000    3.143    3.429    0.000    0.000 
#    0.000    0.000    0.000    0.000    0.000    0.000 
#
# Total GULP energy -312528.909702 kJ/mol
# GULP energy per Si atom -5580.873388 kJ/mol
# Density = 1.931290 g / cm^3
# Si number density = 19.356956 Si / 1000 Ang^3
#
#
#
# Elastic Constant Matrix: (Units=GPa)
#
#
# Indices 1 2 3 4 5 6 
#
# 1 76.3803 4.2658 12.1195 0.0000 0.0000 0.0000
# 2 4.2658 76.3803 12.1195 0.0000 0.0000 0.0000
# 3 12.1195 12.1195 31.9326 0.0000 0.0000 0.0000
# 4 0.0000 0.0000 0.0000 49.3865 0.0000 0.0000
# 5 0.0000 0.0000 0.0000 0.0000 49.3865 0.0000
# 6 0.0000 0.0000 0.0000 0.0000 0.0000 26.9081
#
#
#
# Elastic Compliance Matrix: (Units=1/GPa)
#
#
# Indices 1 2 3 4 5 6 
#
# 1 0.013932 0.000065 -0.005312 0.000000 0.000000 0.000000
# 2 0.000065 0.013932 -0.005312 0.000000 0.000000 0.000000
# 3 -0.005312 -0.005312 0.035348 0.000000 0.000000 0.000000
# 4 0.000000 0.000000 0.000000 0.020248 0.000000 0.000000
# 5 0.000000 0.000000 0.000000 0.000000 0.020248 0.000000
# 6 0.000000 0.000000 0.000000 0.000000 0.000000 0.037164
#
#
# Mechanical properties :
#
#
# Convention : Reuss Voigt Hill
#
# Bulk Modulus (GPa) = 23.75713 26.85586 25.30649
# Shear Modulus (GPa) = 28.40558 35.54878 31.97718
#
# Velocity S-wave (km/s) = 3.83490 4.29007 4.06886
# Velocity P-wave (km/s) = 5.64876 6.20030 5.93094
#
# Compressibility (1/GPa) = 0.04209263
#
# Stress axis : x y z
#
# Youngs Moduli (GPa) = 71.77895 71.77895 28.28999
#
# Poissons Ratio (x) = -0.00465 0.15028
# Poissons Ratio (y) = -0.00465 0.15028
# Poissons Ratio (z) = 0.38130 0.38130
#
# Static dielectric constant tensor:
#      x y z
#    x 1.678170 0.000000 0.000000 
#    y 0.000000 1.678170 0.000000 
#    z 0.000000 0.000000 1.716450 
# 
# From -- ./inp_files/6388.got.cif
#   From: 2010.05.17/outbox.cif.g08.bks.cpg/sg91_4_cif.got.tgz:6388.got - 2010.06.03 19:20:03.
