data_PCOD9547797
_publ_section_title
;
Structure prediction by ZEFSAII (Michael W. Deem and Ramdas Pophale) SiO2 
 PCOD9547797
Probable space group: P 41 2 2
;
_chemical_formula_sum "Si O2"
_cell_formula_units_Z 40
_cell_length_a 9.470393
_cell_length_b 9.470393
_cell_length_c 22.365622
_cell_angle_alpha 90.000000
_cell_angle_beta 90.000000
_cell_angle_gamma 90.000000
_cell_volume 2005.935590
_symmetry_space_group_name_H-M "P 41 2 2"
_symmetry_group_IT_number 91
_symmetry_cell_setting 'tetragonal'
loop_
_space_group_symop_operation_xyz
x,y,z
-y,x,1/4+z
-x,-y,1/2+z
y,-x,3/4+z
x,-y,1/2-z
-x,y,-z
y,x,3/4-z
-y,-x,1/4-z
loop_
_atom_site_type_symbol
_atom_site_label
_atom_site_fract_x
_atom_site_fract_y
_atom_site_fract_z
Si Si1 0.877528 0.343442 0.777855
Si Si2 0.830310 0.280793 0.566314
Si Si3 0.455807 0.158205 0.768637
Si Si4 0.189215 0.658510 0.751227
Si Si5 0.152046 0.302750 0.609076
O O1 0.842426 0.500000 0.750000
O O2 0.837283 0.226292 0.728622
O O3 0.792301 0.282660 0.834733
O O4 0.045072 0.340602 0.786680
O O5 0.737390 0.262610 0.625000
O O6 0.802151 0.428051 0.532327
O O7 0.995778 0.261900 0.583148
O O8 0.313555 0.243701 0.770457
O O9 0.542335 0.170658 0.830206
O O10 0.419577 0.000000 0.750000
O O11 0.244948 0.500000 0.750000
O O12 0.150195 0.695600 0.819774
#
# Coordination Sequence:
#
# PCOD9547797 Si02
#       5
#     8   8   8   8   8
#     4  10  22  38  64  94 122 160 211 251 309 375
#     4  10  19  39  65  89 117 158 206 257 306 364
#     4   9  22  39  60  88 122 159 201 252 315 368
#     4  11  24  41  60  91 128 162 208 253 311 378
#     4  10  22  42  63  89 125 160 205 266 303 363
#
# _framework density 19.940818
#
# number of rings (size 3 to 8) (size 9 to 14) (size 15 to 20)
#    0.000    2.000    2.000    1.800    2.800    7.200 
#    0.000    0.000    0.000    0.000    0.000    0.000 
#    0.000    0.000    0.000    0.000    0.000    0.000 
#
# Total GULP energy -223091.599905 kJ/mol
# GULP energy per Si atom -5577.289998 kJ/mol
# Density = 1.989543 g / cm^3
# Si number density = 19.940818 Si / 1000 Ang^3
#
#
#
# Elastic Constant Matrix: (Units=GPa)
#
#
# Indices 1 2 3 4 5 6 
#
# 1 58.5350 68.1210 1.1298 0.0000 0.0000 0.0000
# 2 68.1210 58.5349 1.1293 0.0000 0.0000 0.0000
# 3 1.1298 1.1293 22.2794 0.0000 0.0000 0.0000
# 4 0.0000 0.0000 0.0000 -148.4689 0.0000 0.0000
# 5 0.0000 0.0000 0.0000 0.0000 -148.5856 0.0000
# 6 0.0000 0.0000 0.0000 0.0000 0.0000 35.8263
#
#
#
# Elastic Compliance Matrix: (Units=1/GPa)
#
#
# Indices 1 2 3 4 5 6 
#
# 1 -0.048208 0.056110 -0.000399 0.000000 0.000000 0.000000
# 2 0.056110 -0.048208 -0.000402 0.000000 0.000000 0.000000
# 3 -0.000399 -0.000402 0.044925 0.000000 0.000000 0.000000
# 4 0.000000 0.000000 0.000000 -0.006735 0.000000 0.000000
# 5 0.000000 0.000000 0.000000 0.000000 -0.006730 0.000000
# 6 0.000000 0.000000 0.000000 0.000000 0.000000 0.027912
#
#
# Mechanical properties :
#
#
# Convention : Reuss Voigt Hill
#
# Bulk Modulus (GPa) = 16.91253 31.12326 24.01790
# Shear Modulus (GPa) = -39.07736 -47.64772 -43.36254
#
# Velocity S-wave (km/s) = -4.43162 -4.89351 -4.66828
# Velocity P-wave (km/s) = 4.20545 4.03570 4.12145
#
# Compressibility (1/GPa) = 0.05912774
#
# Stress axis : x y z
#
# Youngs Moduli (GPa) = -20.74365 -20.74363 22.25921
#
# Poissons Ratio (x) = 1.16393 0.00889
# Poissons Ratio (y) = 1.16393 0.00895
# Poissons Ratio (z) = -0.00828 -0.00834
#
# Static dielectric constant tensor:
#      x y z
#    x 2.384010 0.000000 0.000000 
#    y 0.000000 2.384450 0.000000 
#    z 0.000000 0.000000 1.766700 
# 
# From -- ./inp_files/6720.got.cif
#   From: 2010.05.17/outbox.cif.g08.bks.cpg/sg91_4_cif.got.tgz:6720.got - 2010.06.03 19:20:03.
