data_PCOD9547326
_publ_section_title
;
Structure prediction by ZEFSAII (Michael W. Deem and Ramdas Pophale) SiO2 
 PCOD9547326
Probable space group: P 4 21 2
;
_chemical_formula_sum "Si O2"
_cell_formula_units_Z 42
_cell_length_a 8.533521
_cell_length_b 8.533521
_cell_length_c 28.450048
_cell_angle_alpha 90.000000
_cell_angle_beta 90.000000
_cell_angle_gamma 90.000000
_cell_volume 2071.760395
_symmetry_space_group_name_H-M "P 4 21 2"
_symmetry_group_IT_number 90
_symmetry_cell_setting 'tetragonal'
loop_
_space_group_symop_operation_xyz
x,y,z
1/2-y,1/2+x,z
-x,-y,z
1/2+y,1/2-x,z
1/2+x,1/2-y,-z
1/2-x,1/2+y,-z
y,x,-z
-y,-x,-z
loop_
_atom_site_type_symbol
_atom_site_label
_atom_site_fract_x
_atom_site_fract_y
_atom_site_fract_z
Si Si1 0.748863 0.419095 0.765220
Si Si2 0.034705 0.240471 0.416405
Si Si3 0.751003 0.914474 0.957237
Si Si4 0.000000 0.000000 0.500000
Si Si5 0.741637 0.438944 0.313075
Si Si6 0.751811 0.408958 0.873465
O O1 0.810611 0.596229 0.758970
O O2 0.618119 0.370460 0.728151
O O3 0.698842 0.396391 0.819350
O O4 0.168540 0.370997 0.417234
O O5 0.064364 0.165671 0.365087
O O6 0.026838 0.138488 0.462763
O O7 0.592865 0.808322 0.959518
O O8 0.844085 0.874368 0.909680
O O9 0.861170 0.861170 0.000000
O O10 0.819601 0.610204 0.309731
O O11 0.806922 0.588679 0.880554
#
# Coordination Sequence:
#
# PCOD9547326 Si02
#       6
#     8   8   8   2   8   8
#     4   9  19  35  55  81 112 144 182 230 277 324
#     4   9  20  37  53  76 110 141 175 223 274 322
#     4  11  24  39  56  81 111 143 183 232 283 338
#     4  12  20  32  60  84 100 140 188 224 266 324
#     4   9  19  35  53  74 105 143 179 219 269 325
#     4   9  19  37  58  80 109 144 182 227 279 332
#
# _framework density 20.272613
#
# number of rings (size 3 to 8) (size 9 to 14) (size 15 to 20)
#    0.000    2.476    0.000    4.000    0.000    9.524 
#    0.000    5.714    0.000    2.286    0.000    0.000 
#    0.000    0.000    0.000    0.000    0.000    0.000 
#
# Total GULP energy -234426.322878 kJ/mol
# GULP energy per Si atom -5581.579116 kJ/mol
# Density = 2.022647 g / cm^3
# Si number density = 20.272613 Si / 1000 Ang^3
#
#
#
# Elastic Constant Matrix: (Units=GPa)
#
#
# Indices 1 2 3 4 5 6 
#
# 1 55.8857 37.1689 67.5177 0.0000 0.0000 0.0000
# 2 37.1689 55.8857 67.5177 0.0000 0.0000 0.0000
# 3 67.5177 67.5177 163.9463 0.0000 0.0000 0.0000
# 4 0.0000 0.0000 0.0000 14.8165 0.0000 0.0000
# 5 0.0000 0.0000 0.0000 0.0000 14.8165 0.0000
# 6 0.0000 0.0000 0.0000 0.0000 0.0000 39.1950
#
#
#
# Elastic Compliance Matrix: (Units=1/GPa)
#
#
# Indices 1 2 3 4 5 6 
#
# 1 0.040068 -0.013360 -0.010999 0.000000 0.000000 0.000000
# 2 -0.013360 0.040068 -0.010999 0.000000 0.000000 0.000000
# 3 -0.010999 -0.010999 0.015159 0.000000 0.000000 0.000000
# 4 0.000000 0.000000 0.000000 0.067492 0.000000 0.000000
# 5 0.000000 0.000000 0.000000 0.000000 0.067492 0.000000
# 6 0.000000 0.000000 0.000000 0.000000 0.000000 0.025513
#
#
# Mechanical properties :
#
#
# Convention : Reuss Voigt Hill
#
# Bulk Modulus (GPa) = 40.68677 68.90290 54.79483
# Shear Modulus (GPa) = 14.93874 20.66650 17.80262
#
# Velocity S-wave (km/s) = 2.71752 3.19631 2.96659
# Velocity P-wave (km/s) = 5.47357 6.90535 6.23072
#
# Compressibility (1/GPa) = 0.02457801
#
# Stress axis : x y z
#
# Youngs Moduli (GPa) = 24.95788 24.95788 65.96859
#
# Poissons Ratio (x) = 0.33345 0.72557
# Poissons Ratio (y) = 0.33345 0.72557
# Poissons Ratio (z) = 0.27451 0.27451
#
# Static dielectric constant tensor:
#      x y z
#    x 1.715910 0.000000 0.000000 
#    y 0.000000 1.715910 0.000000 
#    z 0.000000 0.000000 1.809230 
# 
# From -- ./inp_files/2984.got.cif
#   From: 2010.05.17/outbox.cif.g08.bks.cpg/sg90_2_cif.got.tgz:2984.got - 2010.06.03 19:17:45.
