data_PCOD9547925
_publ_section_title
;
Structure prediction by ZEFSAII (Michael W. Deem and Ramdas Pophale) SiO2 
 PCOD9547925
Probable space group: P 41 2 2
;
_chemical_formula_sum "Si O2"
_cell_formula_units_Z 36
_cell_length_a 10.281780
_cell_length_b 10.281780
_cell_length_c 15.661009
_cell_angle_alpha 90.000000
_cell_angle_beta 90.000000
_cell_angle_gamma 90.000000
_cell_volume 1655.603566
_symmetry_space_group_name_H-M "P 41 2 2"
_symmetry_group_IT_number 91
_symmetry_cell_setting 'tetragonal'
loop_
_space_group_symop_operation_xyz
x,y,z
-y,x,1/4+z
-x,-y,1/2+z
y,-x,3/4+z
x,-y,1/2-z
-x,y,-z
y,x,3/4-z
-y,-x,1/4-z
loop_
_atom_site_type_symbol
_atom_site_label
_atom_site_fract_x
_atom_site_fract_y
_atom_site_fract_z
Si Si1 0.105636 0.442688 0.437441
Si Si2 0.767723 0.500000 0.250000
Si Si3 0.700010 0.039235 0.956549
Si Si4 0.211456 0.207752 0.204172
Si Si5 0.571992 0.643588 0.132855
O O1 0.139922 0.301601 0.475744
O O2 0.233802 0.528507 0.438754
O O3 0.000000 0.503593 0.500000
O O4 0.042166 0.409717 0.346494
O O5 0.859194 0.623702 0.265901
O O6 0.675812 0.545478 0.173657
O O7 0.774383 0.124870 0.883809
O O8 0.778456 0.933519 0.010420
O O9 0.281705 0.348675 0.191286
O O10 0.442751 0.557250 0.125000
#
# Coordination Sequence:
#
# PCOD9547925 Si02
#       5
#     8   4   8   8   8
#     4  10  21  37  60  87 118 158 206 259 309 371
#     4  10  22  36  56  90 124 154 194 250 312 378
#     4  10  20  37  60  87 123 161 207 261 317 371
#     4  10  21  36  60  89 119 162 211 266 314 373
#     4  11  21  35  60  91 124 159 200 250 316 385
#
# _framework density 21.744337000000002
#
# number of rings (size 3 to 8) (size 9 to 14) (size 15 to 20)
#    0.000    1.778    0.000    4.667    0.000    1.778 
#    0.000    0.000    0.000   48.000    0.000    0.000 
#    0.000    0.000    0.000    0.000    0.000    0.000 
#
# Total GULP energy -200859.107653 kJ/mol
# GULP energy per Si atom -5579.419657 kJ/mol
# Density = 2.169485 g / cm^3
# Si number density = 21.744337 Si / 1000 Ang^3
#
#
#
# Elastic Constant Matrix: (Units=GPa)
#
#
# Indices 1 2 3 4 5 6 
#
# 1 100.1345 56.9366 45.5251 0.0000 0.0000 0.0000
# 2 56.9366 100.1346 45.5263 0.0000 0.0000 0.0000
# 3 45.5251 45.5263 54.6298 0.0000 0.0000 0.0000
# 4 0.0000 0.0000 0.0000 24.9219 0.0000 0.0000
# 5 0.0000 0.0000 0.0000 0.0000 24.9204 0.0000
# 6 0.0000 0.0000 0.0000 0.0000 0.0000 35.1411
#
#
#
# Elastic Compliance Matrix: (Units=1/GPa)
#
#
# Indices 1 2 3 4 5 6 
#
# 1 0.017733 -0.005417 -0.010263 0.000000 0.000000 0.000000
# 2 -0.005417 0.017733 -0.010264 0.000000 0.000000 0.000000
# 3 -0.010263 -0.010264 0.035412 0.000000 0.000000 0.000000
# 4 0.000000 0.000000 0.000000 0.040125 0.000000 0.000000
# 5 0.000000 0.000000 0.000000 0.000000 0.040128 0.000000
# 6 0.000000 0.000000 0.000000 0.000000 0.000000 0.028457
#
#
# Mechanical properties :
#
#
# Convention : Reuss Voigt Hill
#
# Bulk Modulus (GPa) = 52.66171 61.20832 56.93501
# Shear Modulus (GPa) = 21.02567 24.12408 22.57487
#
# Velocity S-wave (km/s) = 3.11295 3.33444 3.22560
# Velocity P-wave (km/s) = 6.09851 6.56010 6.33351
#
# Compressibility (1/GPa) = 0.01898913
#
# Stress axis : x y z
#
# Youngs Moduli (GPa) = 56.39363 56.39200 28.23936
#
# Poissons Ratio (x) = 0.30545 0.28983
# Poissons Ratio (y) = 0.30546 0.28985
# Poissons Ratio (z) = 0.57878 0.57882
#
# Static dielectric constant tensor:
#      x y z
#    x 1.813410 0.000000 0.000000 
#    y 0.000000 1.813410 0.000000 
#    z 0.000000 0.000000 1.874380 
# 
# From -- ./inp_files/17199.got.cif
#   From: 2010.05.17/outbox.cif.g08.bks.cpg/sg91_9_cif.got.tgz:17199.got - 2010.06.03 19:20:03.
