data_PCOD9547212
_publ_section_title
;
Structure prediction by ZEFSAII (Michael W. Deem and Ramdas Pophale) SiO2 
 PCOD9547212
Probable space group: P 4 21 2
;
_chemical_formula_sum "Si O2"
_cell_formula_units_Z 40
_cell_length_a 16.959158
_cell_length_b 16.959158
_cell_length_c 5.251039
_cell_angle_alpha 90.000000
_cell_angle_beta 90.000000
_cell_angle_gamma 90.000000
_cell_volume 1510.267290
_symmetry_space_group_name_H-M "P 4 21 2"
_symmetry_group_IT_number 90
_symmetry_cell_setting 'tetragonal'
loop_
_space_group_symop_operation_xyz
x,y,z
1/2-y,1/2+x,z
-x,-y,z
1/2+y,1/2-x,z
1/2+x,1/2-y,-z
1/2-x,1/2+y,-z
y,x,-z
-y,-x,-z
loop_
_atom_site_type_symbol
_atom_site_label
_atom_site_fract_x
_atom_site_fract_y
_atom_site_fract_z
Si Si1 0.779178 0.553389 0.593777
Si Si2 0.789861 0.723457 0.756422
Si Si3 0.966186 0.624659 0.237906
Si Si4 0.288977 0.562996 0.979897
Si Si5 0.130784 0.944126 0.745603
O O1 0.812737 0.633322 0.708522
O O2 0.847091 0.490515 0.523323
O O3 0.723780 0.510532 0.793805
O O4 0.720563 0.573579 0.356493
O O5 0.748166 0.748166 0.500000
O O6 0.860461 0.784688 0.805668
O O7 0.733943 0.733943 0.000000
O O8 0.053652 0.592162 0.171222
O O9 0.931897 0.705497 0.129007
O O10 0.358395 0.535621 0.168296
O O11 0.076907 0.923093 0.500000
O O12 0.100313 0.899687 0.000000
#
# Coordination Sequence:
#
# PCOD9547212 Si02
#       5
#     8   8   8   8   8
#     4  11  24  41  73 103 150 191 255 302 382 442
#     4  12  31  46  73 113 158 202 260 320 396 467
#     4  10  22  40  67 103 152 201 247 294 366 465
#     4  11  25  44  70 104 152 196 248 312 388 447
#     4  11  23  40  70 107 135 180 247 309 368 435
#
# _framework density 26.485375999999999
#
# number of rings (size 3 to 8) (size 9 to 14) (size 15 to 20)
#    0.000    1.000    2.000    3.000   16.800    0.000 
#    0.000    2.000    0.000    0.600    5.200    0.000 
#    0.000    0.000    0.000    0.000    0.000    0.000 
#
# Total GULP energy -223403.540006 kJ/mol
# GULP energy per Si atom -5585.088500 kJ/mol
# Density = 2.642509 g / cm^3
# Si number density = 26.485376 Si / 1000 Ang^3
#
#
#
# Elastic Constant Matrix: (Units=GPa)
#
#
# Indices 1 2 3 4 5 6 
#
# 1 49.3135 12.3470 19.9316 0.0000 0.0000 0.0000
# 2 12.3470 49.3135 19.9316 0.0000 0.0000 0.0000
# 3 19.9316 19.9316 118.5019 0.0000 0.0000 0.0000
# 4 0.0000 0.0000 0.0000 28.3857 0.0000 0.0000
# 5 0.0000 0.0000 0.0000 0.0000 28.3857 0.0000
# 6 0.0000 0.0000 0.0000 0.0000 0.0000 29.7852
#
#
#
# Elastic Compliance Matrix: (Units=1/GPa)
#
#
# Indices 1 2 3 4 5 6 
#
# 1 0.022624 -0.004428 -0.003061 0.000000 0.000000 0.000000
# 2 -0.004428 0.022624 -0.003061 0.000000 0.000000 0.000000
# 3 -0.003061 -0.003061 0.009468 0.000000 0.000000 0.000000
# 4 0.000000 0.000000 0.000000 0.035229 0.000000 0.000000
# 5 0.000000 0.000000 0.000000 0.000000 0.035229 0.000000
# 6 0.000000 0.000000 0.000000 0.000000 0.000000 0.033574
#
#
# Mechanical properties :
#
#
# Convention : Reuss Voigt Hill
#
# Bulk Modulus (GPa) = 29.74519 35.72770 32.73645
# Shear Modulus (GPa) = 26.17094 28.30591 27.23842
#
# Velocity S-wave (km/s) = 3.14686 3.27270 3.21040
# Velocity P-wave (km/s) = 4.94559 5.27254 5.11168
#
# Compressibility (1/GPa) = 0.03361888
#
# Stress axis : x y z
#
# Youngs Moduli (GPa) = 44.20083 44.20083 105.61619
#
# Poissons Ratio (x) = 0.19570 0.32325
# Poissons Ratio (y) = 0.19570 0.32325
# Poissons Ratio (z) = 0.13528 0.13528
#
# Static dielectric constant tensor:
#      x y z
#    x 2.173150 0.000000 0.000000 
#    y 0.000000 2.173150 0.000000 
#    z 0.000000 0.000000 2.147950 
# 
# From -- ./inp_files/450.got.cif
#   From: 2010.05.17/outbox.cif.g08.bks.cpg/sg90_1_cif.got.tgz:450.got - 2010.06.03 19:17:45.
