data_PCOD9547563
_publ_section_title
;
Structure prediction by ZEFSAII (Michael W. Deem and Ramdas Pophale) SiO2 
 PCOD9547563
Probable space group: P 41 2 2
;
_chemical_formula_sum "Si O2"
_cell_formula_units_Z 48
_cell_length_a 14.417596
_cell_length_b 14.417596
_cell_length_c 12.961994
_cell_angle_alpha 90.000000
_cell_angle_beta 90.000000
_cell_angle_gamma 90.000000
_cell_volume 2694.371771
_symmetry_space_group_name_H-M "P 41 2 2"
_symmetry_group_IT_number 91
_symmetry_cell_setting 'tetragonal'
loop_
_space_group_symop_operation_xyz
x,y,z
-y,x,1/4+z
-x,-y,1/2+z
y,-x,3/4+z
x,-y,1/2-z
-x,y,-z
y,x,3/4-z
-y,-x,1/4-z
loop_
_atom_site_type_symbol
_atom_site_label
_atom_site_fract_x
_atom_site_fract_y
_atom_site_fract_z
Si Si1 0.164905 0.806914 0.736318
Si Si2 0.864751 0.399112 0.289188
Si Si3 0.161479 0.008531 0.370673
Si Si4 0.104059 0.355037 0.045111
Si Si5 0.650208 0.077825 0.535572
Si Si6 0.887451 0.436375 0.510048
O O1 0.146990 0.853011 0.625000
O O2 0.161978 0.694781 0.730333
O O3 0.267761 0.835974 0.764605
O O4 0.090323 0.840428 0.821209
O O5 0.832582 0.500000 0.250000
O O6 0.843220 0.387347 0.410961
O O7 0.976497 0.397483 0.283965
O O8 0.066507 0.066507 0.375000
O O9 0.243064 0.063065 0.430723
O O10 0.187780 0.000000 0.250000
O O11 0.109052 0.359580 0.168866
O O12 0.133697 0.454851 0.002611
O O13 0.000000 0.339891 0.000000
O O14 0.603009 0.135528 0.627436
O O15 0.000000 0.426769 0.500000
#
# Coordination Sequence:
#
# PCOD9547563 Si02
#       6
#     8   8   8   8   8   8
#     4  11  23  37  52  75 104 137 180 225 261 309
#     4  10  18  33  53  74  99 131 169 219 273 314
#     4  11  23  37  50  68 100 144 186 221 258 309
#     4  11  20  32  50  75 105 136 167 209 261 316
#     4  10  18  31  51  73  96 128 169 214 263 310
#     4   9  17  30  51  75  99 128 165 212 268 318
#
# _framework density 17.814913000000001
#
# number of rings (size 3 to 8) (size 9 to 14) (size 15 to 20)
#    0.000    1.667    0.000   10.000    0.000    1.333 
#    0.000    0.000    0.000    0.000    0.000    0.000 
#    0.000   25.333    0.000    0.000    0.000    0.000 
#
# Total GULP energy -267734.701257 kJ/mol
# GULP energy per Si atom -5577.806276 kJ/mol
# Density = 1.777437 g / cm^3
# Si number density = 17.814913 Si / 1000 Ang^3
#
#
#
# Elastic Constant Matrix: (Units=GPa)
#
#
# Indices 1 2 3 4 5 6 
#
# 1 44.6036 24.8124 21.3065 0.0000 0.0000 0.0000
# 2 24.8124 44.6029 21.3062 0.0000 0.0000 0.0000
# 3 21.3065 21.3062 113.5285 0.0000 0.0000 0.0000
# 4 0.0000 0.0000 0.0000 21.2904 0.0000 0.0000
# 5 0.0000 0.0000 0.0000 0.0000 21.2905 0.0000
# 6 0.0000 0.0000 0.0000 0.0000 0.0000 -2.4117
#
#
#
# Elastic Compliance Matrix: (Units=1/GPa)
#
#
# Indices 1 2 3 4 5 6 
#
# 1 0.033405 -0.017123 -0.003056 0.000000 0.000000 0.000000
# 2 -0.017123 0.033405 -0.003056 0.000000 0.000000 0.000000
# 3 -0.003056 -0.003056 0.009955 0.000000 0.000000 0.000000
# 4 0.000000 0.000000 0.000000 0.046970 0.000000 0.000000
# 5 0.000000 0.000000 0.000000 0.000000 0.046969 0.000000
# 6 0.000000 0.000000 0.000000 0.000000 0.000000 -0.414650
#
#
# Mechanical properties :
#
#
# Convention : Reuss Voigt Hill
#
# Bulk Modulus (GPa) = 33.00745 37.50946 35.25845
# Shear Modulus (GPa) = -26.68411 17.05450 -4.81480
#
# Velocity S-wave (km/s) = -3.87441 3.09741 -1.64577
# Velocity P-wave (km/s) = 1.20271 5.82175 4.02779
#
# Compressibility (1/GPa) = 0.03029619
#
# Stress axis : x y z
#
# Youngs Moduli (GPa) = 29.93573 29.93528 100.44899
#
# Poissons Ratio (x) = 0.51259 0.30694
# Poissons Ratio (y) = 0.51260 0.30694
# Poissons Ratio (z) = 0.09147 0.09147
#
# Static dielectric constant tensor:
#      x y z
#    x 1.619230 0.000000 0.000000 
#    y 0.000000 1.619230 0.000000 
#    z 0.000000 0.000000 1.707990 
# 
# From -- ./inp_files/3845.got.cif
#   From: 2010.05.17/outbox.cif.g08.bks.cpg/sg91_2_cif.got.tgz:3845.got - 2010.06.03 19:20:03.
