data_PCOD9547561
_publ_section_title
;
Structure prediction by ZEFSAII (Michael W. Deem and Ramdas Pophale) SiO2 
 PCOD9547561
Probable space group: P 41 2 2
;
_chemical_formula_sum "Si O2"
_cell_formula_units_Z 44
_cell_length_a 23.421535
_cell_length_b 23.421535
_cell_length_c 5.200637
_cell_angle_alpha 90.000000
_cell_angle_beta 90.000000
_cell_angle_gamma 90.000000
_cell_volume 2852.904607
_symmetry_space_group_name_H-M "P 41 2 2"
_symmetry_group_IT_number 91
_symmetry_cell_setting 'tetragonal'
loop_
_space_group_symop_operation_xyz
x,y,z
-y,x,1/4+z
-x,-y,1/2+z
y,-x,3/4+z
x,-y,1/2-z
-x,y,-z
y,x,3/4-z
-y,-x,1/4-z
loop_
_atom_site_type_symbol
_atom_site_label
_atom_site_fract_x
_atom_site_fract_y
_atom_site_fract_z
Si Si1 0.749232 0.152878 0.618963
Si Si2 0.937896 0.937896 0.875000
Si Si3 0.438943 0.341918 0.388642
Si Si4 0.201274 0.299319 0.869586
Si Si5 0.183932 0.038733 0.506401
Si Si6 0.390811 0.292900 0.884897
O O1 0.801826 0.198174 0.625000
O O2 0.705787 0.172728 0.397423
O O3 0.775020 0.091893 0.546077
O O4 0.719102 0.158292 0.894713
O O5 0.937016 0.880777 0.702532
O O6 0.935999 0.000000 0.750000
O O7 0.500000 0.360951 0.500000
O O8 0.395483 0.395483 0.375000
O O9 0.417700 0.297031 0.603298
O O10 0.433697 0.311997 0.110796
O O11 0.251220 0.251220 0.875000
O O12 0.233449 0.358671 0.817594
O O13 0.199226 0.000000 0.750000
O O14 0.183824 0.000000 0.250000
O O15 0.341287 0.341287 0.875000
#
# Coordination Sequence:
#
# PCOD9547561 Si02
#       6
#     8   4   8   8   8   8
#     4  10  18  31  44  65  84 107 142 184 232 279
#     4  10  20  34  46  60  76 112 158 200 234 266
#     4  10  19  31  46  65  95 129 169 202 228 252
#     4   9  17  28  48  65  85 106 139 188 232 277
#     4  11  22  33  46  61  84 113 147 189 236 277
#     4   9  17  30  46  67  87 116 155 196 234 271
#
# _framework density 15.422879
#
# number of rings (size 3 to 8) (size 9 to 14) (size 15 to 20)
#    0.000    2.182    0.909    3.273    0.000    6.545 
#    0.000    2.727    0.000    0.000    0.000    0.000 
#    0.000    0.000    0.000    0.000    0.000  229.091 
#
# Total GULP energy -245078.376128 kJ/mol
# GULP energy per Si atom -5569.963094 kJ/mol
# Density = 1.538778 g / cm^3
# Si number density = 15.422879 Si / 1000 Ang^3
#
#
#
# Elastic Constant Matrix: (Units=GPa)
#
#
# Indices 1 2 3 4 5 6 
#
# 1 52.1371 39.4552 27.4486 0.0000 0.0000 0.0000
# 2 39.4552 52.1377 27.4488 0.0000 0.0000 0.0000
# 3 27.4486 27.4488 102.1727 0.0000 0.0000 0.0000
# 4 0.0000 0.0000 0.0000 22.3077 0.0000 0.0000
# 5 0.0000 0.0000 0.0000 0.0000 22.3075 0.0000
# 6 0.0000 0.0000 0.0000 0.0000 0.0000 14.4189
#
#
#
# Elastic Compliance Matrix: (Units=1/GPa)
#
#
# Indices 1 2 3 4 5 6 
#
# 1 0.045932 -0.032919 -0.003496 0.000000 0.000000 0.000000
# 2 -0.032919 0.045932 -0.003496 0.000000 0.000000 0.000000
# 3 -0.003496 -0.003496 0.011666 0.000000 0.000000 0.000000
# 4 0.000000 0.000000 0.000000 0.044828 0.000000 0.000000
# 5 0.000000 0.000000 0.000000 0.000000 0.044828 0.000000
# 6 0.000000 0.000000 0.000000 0.000000 0.000000 0.069354
#
#
# Mechanical properties :
#
#
# Convention : Reuss Voigt Hill
#
# Bulk Modulus (GPa) = 42.17938 43.90587 43.04263
# Shear Modulus (GPa) = 14.27499 19.27982 16.77740
#
# Velocity S-wave (km/s) = 3.04562 3.53948 3.30180
# Velocity P-wave (km/s) = 6.30680 6.72560 6.51956
#
# Compressibility (1/GPa) = 0.02370827
#
# Stress axis : x y z
#
# Youngs Moduli (GPa) = 21.77121 21.77144 85.72093
#
# Poissons Ratio (x) = 0.71669 0.29968
# Poissons Ratio (y) = 0.71668 0.29968
# Poissons Ratio (z) = 0.07611 0.07611
#
# Static dielectric constant tensor:
#      x y z
#    x 1.518640 0.000000 0.000000 
#    y 0.000000 1.518640 0.000000 
#    z 0.000000 0.000000 1.534400 
# 
# From -- ./inp_files/18776.got.cif
#   From: 2010.05.17/outbox.cif.g08.bks.cpg/sg91_10_cif.got.tgz:18776.got - 2010.06.03 19:20:03.
