data_PCOD9547172
_publ_section_title
;
Structure prediction by ZEFSAII (Michael W. Deem and Ramdas Pophale) SiO2 
 PCOD9547172
Probable space group: P 4 21 2
;
_chemical_formula_sum "Si O2"
_cell_formula_units_Z 48
_cell_length_a 19.708083
_cell_length_b 19.708083
_cell_length_c 5.206504
_cell_angle_alpha 90.000000
_cell_angle_beta 90.000000
_cell_angle_gamma 90.000000
_cell_volume 2022.250594
_symmetry_space_group_name_H-M "P 4 21 2"
_symmetry_group_IT_number 90
_symmetry_cell_setting 'tetragonal'
loop_
_space_group_symop_operation_xyz
x,y,z
1/2-y,1/2+x,z
-x,-y,z
1/2+y,1/2-x,z
1/2+x,1/2-y,-z
1/2-x,1/2+y,-z
y,x,-z
-y,-x,-z
loop_
_atom_site_type_symbol
_atom_site_label
_atom_site_fract_x
_atom_site_fract_y
_atom_site_fract_z
Si Si1 0.300058 0.846472 0.400377
Si Si2 0.765095 0.497766 0.072175
Si Si3 0.764511 0.338631 0.100458
Si Si4 0.925418 0.967684 0.256227
Si Si5 0.456898 0.106881 0.657150
Si Si6 0.048275 0.801911 0.579493
O O1 0.306848 0.794789 0.638553
O O2 0.347134 0.911938 0.466040
O O3 0.224679 0.876398 0.374304
O O4 0.322863 0.814364 0.135553
O O5 0.765134 0.418856 0.141669
O O6 0.837885 0.534263 0.112402
O O7 0.713556 0.530833 0.282192
O O8 0.742664 0.503218 0.777947
O O9 0.694768 0.305233 0.000000
O O10 0.918879 0.918879 0.500000
O O11 0.875346 0.029304 0.314554
O O12 0.923520 0.923520 0.000000
O O13 0.000000 0.000000 0.252608
O O14 0.535507 0.083189 0.641790
#
# Coordination Sequence:
#
# PCOD9547172 Si02
#       6
#     8   8   8   8   8   8
#     4  11  24  46  68 105 145 186 249 289 356 448
#     4  11  24  43  69 106 145 188 242 296 353 448
#     4  12  26  47  69 100 143 192 245 298 350 423
#     4  10  22  43  68 100 137 171 224 297 366 425
#     4  10  21  42  73 107 147 193 234 301 373 433
#     4  11  24  43  72 101 139 186 230 298 361 422
#
# _framework density 23.735932999999999
#
# number of rings (size 3 to 8) (size 9 to 14) (size 15 to 20)
#    0.000    1.167    1.667    4.500    2.333    2.000 
#    9.000    0.000    0.000    0.000    0.000    0.000 
#    0.000    0.000    0.000    0.000    0.000    0.000 
#
# Total GULP energy -267819.912033 kJ/mol
# GULP energy per Si atom -5579.581501 kJ/mol
# Density = 2.368191 g / cm^3
# Si number density = 23.735933 Si / 1000 Ang^3
#
#
#
# Elastic Constant Matrix: (Units=GPa)
#
#
# Indices 1 2 3 4 5 6 
#
# 1 75.6550 26.7590 12.9447 0.0000 0.0000 0.0000
# 2 26.7590 75.6487 12.9477 0.0000 0.0000 0.0000
# 3 12.9447 12.9477 112.8297 0.0000 0.0000 0.0000
# 4 0.0000 0.0000 0.0000 23.3827 0.0000 0.0000
# 5 0.0000 0.0000 0.0000 0.0000 23.3834 0.0000
# 6 0.0000 0.0000 0.0000 0.0000 0.0000 44.4394
#
#
#
# Elastic Compliance Matrix: (Units=1/GPa)
#
#
# Indices 1 2 3 4 5 6 
#
# 1 0.015254 -0.005198 -0.001154 0.000000 0.000000 0.000000
# 2 -0.005198 0.015255 -0.001154 0.000000 0.000000 0.000000
# 3 -0.001154 -0.001154 0.009128 0.000000 0.000000 0.000000
# 4 0.000000 0.000000 0.000000 0.042767 0.000000 0.000000
# 5 0.000000 0.000000 0.000000 0.000000 0.042765 0.000000
# 6 0.000000 0.000000 0.000000 0.000000 0.000000 0.022503
#
#
# Mechanical properties :
#
#
# Convention : Reuss Voigt Hill
#
# Bulk Modulus (GPa) = 40.60938 41.04848 40.82893
# Shear Modulus (GPa) = 29.25828 32.33990 30.79909
#
# Velocity S-wave (km/s) = 3.51473 3.69519 3.60609
# Velocity P-wave (km/s) = 5.79802 5.96132 5.88024
#
# Compressibility (1/GPa) = 0.02462485
#
# Stress axis : x y z
#
# Youngs Moduli (GPa) = 65.55704 65.55091 109.55649
#
# Poissons Ratio (x) = 0.34075 0.12638
# Poissons Ratio (y) = 0.34078 0.12645
# Poissons Ratio (z) = 0.07562 0.07566
#
# Static dielectric constant tensor:
#      x y z
#    x 1.958110 0.000000 0.000000 
#    y 0.000000 1.958120 0.000000 
#    z 0.000000 0.000000 1.571180 
# 
# From -- ./inp_files/605.got.cif
#   From: 2010.05.17/outbox.cif.g08.bks.cpg/sg90_1_cif.got.tgz:605.got - 2010.06.03 19:17:45.
