data_PCOD9547074
_publ_section_title
;
Structure prediction by ZEFSAII (Michael W. Deem and Ramdas Pophale) SiO2 
 PCOD9547074
Probable space group: P 4 21 2
;
_chemical_formula_sum "Si O2"
_cell_formula_units_Z 48
_cell_length_a 12.084819
_cell_length_b 12.084819
_cell_length_c 17.095194
_cell_angle_alpha 90.000000
_cell_angle_beta 90.000000
_cell_angle_gamma 90.000000
_cell_volume 2496.630858
_symmetry_space_group_name_H-M "P 4 21 2"
_symmetry_group_IT_number 90
_symmetry_cell_setting 'tetragonal'
loop_
_space_group_symop_operation_xyz
x,y,z
1/2-y,1/2+x,z
-x,-y,z
1/2+y,1/2-x,z
1/2+x,1/2-y,-z
1/2-x,1/2+y,-z
y,x,-z
-y,-x,-z
loop_
_atom_site_type_symbol
_atom_site_label
_atom_site_fract_x
_atom_site_fract_y
_atom_site_fract_z
Si Si1 0.146555 0.911522 0.254125
Si Si2 0.733860 0.209988 0.123651
Si Si3 0.149537 0.095768 0.783854
Si Si4 0.653574 0.097491 0.970587
Si Si5 0.548513 0.180272 0.649856
Si Si6 0.877941 0.054404 0.580741
O O1 0.241376 0.854091 0.203888
O O2 0.128888 0.866759 0.341448
O O3 0.032368 0.884299 0.207314
O O4 0.151110 0.044044 0.258987
O O5 0.668806 0.323241 0.143470
O O6 0.678701 0.129750 0.060386
O O7 0.844874 0.255468 0.082986
O O8 0.258668 0.084832 0.730184
O O9 0.532152 0.146811 0.954804
O O10 0.628116 0.074823 0.644064
O O11 0.538461 0.281985 0.588166
O O12 0.878763 0.121238 0.500000
O O13 0.000000 0.000000 0.586630
#
# Coordination Sequence:
#
# PCOD9547074 Si02
#       6
#     8   8   8   8   8   8
#     4  10  19  34  54  83 115 149 201 252 296 384
#     4  11  21  34  58  83 111 152 202 252 314 377
#     4  10  18  33  53  81 113 149 190 248 308 366
#     4  10  22  39  54  78 114 153 197 251 314 382
#     4  10  20  36  58  89 123 156 204 262 317 372
#     4  10  19  38  59  84 122 165 206 248 312 382
#
# _framework density 19.225909000000001
#
# number of rings (size 3 to 8) (size 9 to 14) (size 15 to 20)
#    0.000    1.833    3.333    4.000    0.000    0.000 
#    3.000    3.333    0.000    8.000    0.000    2.333 
#    0.000    0.000    0.000    0.000    0.000    0.000 
#
# Total GULP energy -267254.899869 kJ/mol
# GULP energy per Si atom -5567.810414 kJ/mol
# Density = 1.918215 g / cm^3
# Si number density = 19.225909 Si / 1000 Ang^3
#
#
#
# Elastic Constant Matrix: (Units=GPa)
#
#
# Indices 1 2 3 4 5 6 
#
# 1 68.3331 14.6973 2.9296 0.0000 0.0000 0.0000
# 2 14.6973 68.3329 2.9295 0.0000 0.0000 0.0000
# 3 2.9296 2.9295 65.9316 0.0000 0.0000 0.0000
# 4 0.0000 0.0000 0.0000 21.0066 0.0000 0.0000
# 5 0.0000 0.0000 0.0000 0.0000 21.0069 0.0000
# 6 0.0000 0.0000 0.0000 0.0000 0.0000 17.7325
#
#
#
# Elastic Compliance Matrix: (Units=1/GPa)
#
#
# Indices 1 2 3 4 5 6 
#
# 1 0.015363 -0.003281 -0.000537 0.000000 0.000000 0.000000
# 2 -0.003281 0.015363 -0.000537 0.000000 0.000000 0.000000
# 3 -0.000537 -0.000537 0.015215 0.000000 0.000000 0.000000
# 4 0.000000 0.000000 0.000000 0.047604 0.000000 0.000000
# 5 0.000000 0.000000 0.000000 0.000000 0.047603 0.000000
# 6 0.000000 0.000000 0.000000 0.000000 0.000000 0.056394
#
#
# Mechanical properties :
#
#
# Convention : Reuss Voigt Hill
#
# Bulk Modulus (GPa) = 26.85934 27.07893 26.96914
# Shear Modulus (GPa) = 22.86630 24.08527 23.47578
#
# Velocity S-wave (km/s) = 3.45243 3.54326 3.49814
# Velocity P-wave (km/s) = 5.46746 5.55471 5.51126
#
# Compressibility (1/GPa) = 0.03723099
#
# Stress axis : x y z
#
# Youngs Moduli (GPa) = 65.09154 65.09134 65.72483
#
# Poissons Ratio (x) = 0.21359 0.03528
# Poissons Ratio (y) = 0.21359 0.03528
# Poissons Ratio (z) = 0.03494 0.03494
#
# Static dielectric constant tensor:
#      x y z
#    x 1.692240 0.000000 0.000000 
#    y 0.000000 1.692240 0.000000 
#    z 0.000000 0.000000 1.682290 
# 
# From -- ./inp_files/2644.got.cif
#   From: 2010.05.17/outbox.cif.g08.bks.cpg/sg90_2_cif.got.tgz:2644.got - 2010.06.03 19:17:45.
