data_PCOD9547700
_publ_section_title
;
Structure prediction by ZEFSAII (Michael W. Deem and Ramdas Pophale) SiO2 
 PCOD9547700
Probable space group: P 41 2 2
;
_chemical_formula_sum "Si O2"
_cell_formula_units_Z 32
_cell_length_a 9.196638
_cell_length_b 9.196638
_cell_length_c 18.811290
_cell_angle_alpha 90.000000
_cell_angle_beta 90.000000
_cell_angle_gamma 90.000000
_cell_volume 1591.024117
_symmetry_space_group_name_H-M "P 41 2 2"
_symmetry_group_IT_number 91
_symmetry_cell_setting 'tetragonal'
loop_
_space_group_symop_operation_xyz
x,y,z
-y,x,1/4+z
-x,-y,1/2+z
y,-x,3/4+z
x,-y,1/2-z
-x,y,-z
y,x,3/4-z
-y,-x,1/4-z
loop_
_atom_site_type_symbol
_atom_site_label
_atom_site_fract_x
_atom_site_fract_y
_atom_site_fract_z
Si Si1 0.368264 0.830490 0.404829
Si Si2 0.409413 0.334423 0.227784
Si Si3 0.257192 0.911024 0.181989
Si Si4 0.696469 0.754738 0.449033
O O1 0.333902 0.704218 0.347613
O O2 0.532197 0.800017 0.429306
O O3 0.270214 0.830090 0.475732
O O4 0.360117 0.978295 0.360712
O O5 0.389304 0.500000 0.250000
O O6 0.343477 0.226221 0.286196
O O7 0.581747 0.305741 0.216283
O O8 0.140554 0.859447 0.125000
O O9 0.198666 0.000000 0.250000
O O10 0.781349 0.781349 0.375000
#
# Coordination Sequence:
#
# PCOD9547700 Si02
#       4
#     8   8   8   8
#     4   9  18  35  53  83 136 164 197 259 324 384
#     4  10  19  32  61  99 123 156 204 272 328 377
#     4  10  23  41  60  89 133 173 216 268 328 390
#     4   9  17  32  60  89 126 159 203 258 324 376
#
# _framework density 20.112829000000001
#
# number of rings (size 3 to 8) (size 9 to 14) (size 15 to 20)
#    0.000    2.500    2.500    0.000    3.500    0.000 
#    4.500    1.250    0.000    4.500    0.000    0.000 
#    0.000    0.000    0.000    0.000    0.000    0.000 
#
# Total GULP energy -178230.198506 kJ/mol
# GULP energy per Si atom -5569.693703 kJ/mol
# Density = 2.006705 g / cm^3
# Si number density = 20.112829 Si / 1000 Ang^3
#
#
#
# Elastic Constant Matrix: (Units=GPa)
#
#
# Indices 1 2 3 4 5 6 
#
# 1 47.5625 22.0451 40.5400 0.0000 0.0000 0.0000
# 2 22.0451 47.5624 40.5405 0.0000 0.0000 0.0000
# 3 40.5400 40.5405 186.9834 0.0000 0.0000 0.0000
# 4 0.0000 0.0000 0.0000 16.9148 0.0000 0.0000
# 5 0.0000 0.0000 0.0000 0.0000 16.9166 0.0000
# 6 0.0000 0.0000 0.0000 0.0000 0.0000 40.6538
#
#
#
# Elastic Compliance Matrix: (Units=1/GPa)
#
#
# Indices 1 2 3 4 5 6 
#
# 1 0.029205 -0.009984 -0.004167 0.000000 0.000000 0.000000
# 2 -0.009984 0.029205 -0.004167 0.000000 0.000000 0.000000
# 3 -0.004167 -0.004167 0.007155 0.000000 0.000000 0.000000
# 4 0.000000 0.000000 0.000000 0.059120 0.000000 0.000000
# 5 0.000000 0.000000 0.000000 0.000000 0.059113 0.000000
# 6 0.000000 0.000000 0.000000 0.000000 0.000000 0.024598
#
#
# Mechanical properties :
#
#
# Convention : Reuss Voigt Hill
#
# Bulk Modulus (GPa) = 34.56990 54.26218 44.41604
# Shear Modulus (GPa) = 19.63285 26.82923 23.23104
#
# Velocity S-wave (km/s) = 3.12771 3.65627 3.40227
# Velocity P-wave (km/s) = 5.50170 6.69790 6.12905
#
# Compressibility (1/GPa) = 0.02892690
#
# Stress axis : x y z
#
# Youngs Moduli (GPa) = 34.24130 34.24098 139.76108
#
# Poissons Ratio (x) = 0.34187 0.58240
# Poissons Ratio (y) = 0.34188 0.58242
# Poissons Ratio (z) = 0.14269 0.14269
#
# Static dielectric constant tensor:
#      x y z
#    x 1.706130 0.000000 0.000000 
#    y 0.000000 1.706130 0.000000 
#    z 0.000000 0.000000 1.796900 
# 
# From -- ./inp_files/12224.got.cif
#   From: 2010.05.17/outbox.cif.g08.bks.cpg/sg91_7_cif.got.tgz:12224.got - 2010.06.03 19:20:03.
