data_PCOD9547565
_publ_section_title
;
Structure prediction by ZEFSAII (Michael W. Deem and Ramdas Pophale) SiO2 
 PCOD9547565
Probable space group: P 41 2 2
;
_chemical_formula_sum "Si O2"
_cell_formula_units_Z 48
_cell_length_a 13.898192
_cell_length_b 13.898192
_cell_length_c 13.775906
_cell_angle_alpha 90.000000
_cell_angle_beta 90.000000
_cell_angle_gamma 90.000000
_cell_volume 2660.950433
_symmetry_space_group_name_H-M "P 41 2 2"
_symmetry_group_IT_number 91
_symmetry_cell_setting 'tetragonal'
loop_
_space_group_symop_operation_xyz
x,y,z
-y,x,1/4+z
-x,-y,1/2+z
y,-x,3/4+z
x,-y,1/2-z
-x,y,-z
y,x,3/4-z
-y,-x,1/4-z
loop_
_atom_site_type_symbol
_atom_site_label
_atom_site_fract_x
_atom_site_fract_y
_atom_site_fract_z
Si Si1 0.274880 0.946492 0.981911
Si Si2 0.591517 0.962194 0.643953
Si Si3 0.113642 0.912824 0.513963
Si Si4 0.911845 0.626762 0.400616
Si Si5 0.769033 0.393191 0.276396
Si Si6 0.282215 0.807880 0.827367
O O1 0.288524 0.840376 0.939365
O O2 0.170293 0.988117 0.009356
O O3 0.296830 0.011227 0.886456
O O4 0.351657 0.975960 0.063629
O O5 0.475665 0.964812 0.640796
O O6 0.606235 0.850821 0.611286
O O7 0.621608 0.000000 0.750000
O O8 0.121215 0.878786 0.625000
O O9 0.161976 0.827140 0.452267
O O10 0.000000 0.924064 0.500000
O O11 0.827247 0.632556 0.321409
O O12 0.866436 0.648511 0.504308
O O13 0.730615 0.500000 0.250000
O O14 0.702191 0.304590 0.305227
#
# Coordination Sequence:
#
# PCOD9547565 Si02
#       6
#     8   8   8   8   8   8
#     4  11  21  32  51  76 110 147 186 232 273 337
#     4  10  20  35  51  73 112 150 187 238 285 334
#     4  12  20  32  48  73 109 147 185 225 265 324
#     4  10  18  31  55  83 108 139 177 238 295 338
#     4   9  19  33  51  74 108 144 182 238 289 339
#     4  12  18  32  55  80 107 144 186 233 294 340
#
# _framework density 18.038668999999999
#
# number of rings (size 3 to 8) (size 9 to 14) (size 15 to 20)
#    0.000    1.333    6.667    3.500    0.000    0.000 
#    0.000    4.167    0.000    0.000    0.000    0.000 
#    0.000   90.667    0.000    0.167    0.000    0.000 
#
# Total GULP energy -267278.332027 kJ/mol
# GULP energy per Si atom -5568.298584 kJ/mol
# Density = 1.799761 g / cm^3
# Si number density = 18.038669 Si / 1000 Ang^3
#
#
#
# Elastic Constant Matrix: (Units=GPa)
#
#
# Indices 1 2 3 4 5 6 
#
# 1 79.0878 27.9790 28.8339 0.0000 0.0000 0.0000
# 2 27.9790 79.0880 28.8340 0.0000 0.0000 0.0000
# 3 28.8339 28.8340 79.2709 0.0000 0.0000 0.0000
# 4 0.0000 0.0000 0.0000 16.6565 0.0000 0.0000
# 5 0.0000 0.0000 0.0000 0.0000 16.6565 0.0000
# 6 0.0000 0.0000 0.0000 0.0000 0.0000 9.1211
#
#
#
# Elastic Compliance Matrix: (Units=1/GPa)
#
#
# Indices 1 2 3 4 5 6 
#
# 1 0.015591 -0.003975 -0.004225 0.000000 0.000000 0.000000
# 2 -0.003975 0.015591 -0.004225 0.000000 0.000000 0.000000
# 3 -0.004225 -0.004225 0.015689 0.000000 0.000000 0.000000
# 4 0.000000 0.000000 0.000000 0.060037 0.000000 0.000000
# 5 0.000000 0.000000 0.000000 0.000000 0.060037 0.000000
# 6 0.000000 0.000000 0.000000 0.000000 0.000000 0.109636
#
#
# Mechanical properties :
#
#
# Convention : Reuss Voigt Hill
#
# Bulk Modulus (GPa) = 45.41403 45.41562 45.41482
# Shear Modulus (GPa) = 16.19325 18.60679 17.40002
#
# Velocity S-wave (km/s) = 2.99941 3.21517 3.10916
# Velocity P-wave (km/s) = 6.10130 6.24617 6.17416
#
# Compressibility (1/GPa) = 0.02201963
#
# Stress axis : x y z
#
# Youngs Moduli (GPa) = 64.14014 64.14018 63.74043
#
# Poissons Ratio (x) = 0.25497 0.26931
# Poissons Ratio (y) = 0.25497 0.26931
# Poissons Ratio (z) = 0.27100 0.27100
#
# Static dielectric constant tensor:
#      x y z
#    x 1.688060 0.000000 0.000000 
#    y 0.000000 1.688060 0.000000 
#    z 0.000000 0.000000 1.660580 
# 
# From -- ./inp_files/16480.got.cif
#   From: 2010.05.17/outbox.cif.g08.bks.cpg/sg91_9_cif.got.tgz:16480.got - 2010.06.03 19:20:03.
