data_PCOD9547495
_publ_section_title
;
Structure prediction by ZEFSAII (Michael W. Deem and Ramdas Pophale) SiO2 
 PCOD9547495
Probable space group: P 41 2 2
;
_chemical_formula_sum "Si O2"
_cell_formula_units_Z 48
_cell_length_a 9.531102
_cell_length_b 9.531102
_cell_length_c 28.236002
_cell_angle_alpha 90.000000
_cell_angle_beta 90.000000
_cell_angle_gamma 90.000000
_cell_volume 2565.012221
_symmetry_space_group_name_H-M "P 41 2 2"
_symmetry_group_IT_number 91
_symmetry_cell_setting 'tetragonal'
loop_
_space_group_symop_operation_xyz
x,y,z
-y,x,1/4+z
-x,-y,1/2+z
y,-x,3/4+z
x,-y,1/2-z
-x,y,-z
y,x,3/4-z
-y,-x,1/4-z
loop_
_atom_site_type_symbol
_atom_site_label
_atom_site_fract_x
_atom_site_fract_y
_atom_site_fract_z
Si Si1 0.020551 0.372263 0.105234
Si Si2 0.500000 0.385763 0.000000
Si Si3 0.472211 0.269127 0.899217
Si Si4 0.882721 0.692075 0.908687
Si Si5 0.000000 0.616018 0.500000
Si Si6 0.252422 0.209188 0.154790
Si Si7 0.594197 0.748359 0.748773
O O1 0.864379 0.395020 0.125537
O O2 0.028235 0.314079 0.050929
O O3 0.094763 0.526878 0.104633
O O4 0.105485 0.271315 0.139476
O O5 0.456689 0.291729 0.955229
O O6 0.623266 0.492948 0.985705
O O7 0.406792 0.406792 0.875000
O O8 0.634324 0.247386 0.885749
O O9 0.784629 0.784629 0.875000
O O10 0.806994 0.688831 0.959300
O O11 0.041347 0.749942 0.911233
O O12 0.127465 0.513671 0.513615
O O13 0.314159 0.278933 0.202421
#
# Coordination Sequence:
#
# PCOD9547495 Si02
#       7
#     8   4   8   8   4   8   8
#     4  10  22  36  65  89 122 160 209 249 301 364
#     4  12  24  34  62  94 122 156 202 260 312 360
#     4  11  21  40  59  87 124 158 202 253 301 366
#     4  10  22  40  62  86 123 159 202 251 300 366
#     4  10  16  42  62  82 118 172 190 236 306 376
#     4  11  21  40  62  90 119 159 204 253 300 363
#     4  11  20  38  63  87 117 163 201 241 312 369
#
# _framework density 18.713362
#
# number of rings (size 3 to 8) (size 9 to 14) (size 15 to 20)
#    0.000    1.333    6.667    2.000    2.333    2.000 
#    6.000    0.000    3.667    0.000    0.000    0.000 
#    0.000    0.000    0.000    0.000    0.000    0.000 
#
# Total GULP energy -267734.304832 kJ/mol
# GULP energy per Si atom -5577.798017 kJ/mol
# Density = 1.867077 g / cm^3
# Si number density = 18.713362 Si / 1000 Ang^3
#
#
#
# Elastic Constant Matrix: (Units=GPa)
#
#
# Indices 1 2 3 4 5 6 
#
# 1 35.4709 24.5679 14.0758 0.0000 0.0000 0.0000
# 2 24.5679 35.4709 14.0758 0.0000 0.0000 0.0000
# 3 14.0758 14.0758 118.4160 0.0000 0.0000 0.0000
# 4 0.0000 0.0000 0.0000 56.8606 0.0000 0.0000
# 5 0.0000 0.0000 0.0000 0.0000 56.8606 0.0000
# 6 0.0000 0.0000 0.0000 0.0000 0.0000 22.9493
#
#
#
# Elastic Compliance Matrix: (Units=1/GPa)
#
#
# Indices 1 2 3 4 5 6 
#
# 1 0.054678 -0.037039 -0.002097 0.000000 0.000000 0.000000
# 2 -0.037039 0.054678 -0.002097 0.000000 0.000000 0.000000
# 3 -0.002097 -0.002097 0.008943 0.000000 0.000000 0.000000
# 4 0.000000 0.000000 0.000000 0.017587 0.000000 0.000000
# 5 0.000000 0.000000 0.000000 0.000000 0.017587 0.000000
# 6 0.000000 0.000000 0.000000 0.000000 0.000000 0.043574
#
#
# Mechanical properties :
#
#
# Convention : Reuss Voigt Hill
#
# Bulk Modulus (GPa) = 27.90610 32.75522 30.33066
# Shear Modulus (GPa) = 17.15509 36.44331 26.79920
#
# Velocity S-wave (km/s) = 3.03104 4.41778 3.78840
# Velocity P-wave (km/s) = 5.21482 6.60030 5.94804
#
# Compressibility (1/GPa) = 0.03583446
#
# Stress axis : x y z
#
# Youngs Moduli (GPa) = 18.28875 18.28875 111.81605
#
# Poissons Ratio (x) = 0.67740 0.23444
# Poissons Ratio (y) = 0.67740 0.23444
# Poissons Ratio (z) = 0.03835 0.03835
#
# Static dielectric constant tensor:
#      x y z
#    x 1.531640 0.000000 0.000000 
#    y 0.000000 1.531640 0.000000 
#    z 0.000000 0.000000 1.692280 
# 
# From -- ./inp_files/22307.got.cif
#   From: 2010.05.17/outbox.cif.g08.bks.cpg/sg91_12_cif.got.tgz:22307.got - 2010.06.03 19:20:03.
