data_PCOD9547014
_publ_section_title
;
Structure prediction by ZEFSAII (Michael W. Deem and Ramdas Pophale) SiO2 
 PCOD9547014
Probable space group: P 4 2 2
;
_chemical_formula_sum "Si O2"
_cell_formula_units_Z 48
_cell_length_a 11.428095
_cell_length_b 11.428095
_cell_length_c 18.143033
_cell_angle_alpha 90.000000
_cell_angle_beta 90.000000
_cell_angle_gamma 90.000000
_cell_volume 2369.504700
_symmetry_space_group_name_H-M "P 4 2 2"
_symmetry_group_IT_number 89
_symmetry_cell_setting 'tetragonal'
loop_
_space_group_symop_operation_xyz
x,y,z
-y,x,z
-x,-y,z
y,-x,z
x,-y,-z
-x,y,-z
y,x,-z
-y,-x,-z
loop_
_atom_site_type_symbol
_atom_site_label
_atom_site_fract_x
_atom_site_fract_y
_atom_site_fract_z
Si Si1 0.969310 0.193843 0.201344
Si Si2 0.979961 0.365649 0.914409
Si Si3 0.591808 0.261401 0.058088
Si Si4 0.452493 0.314897 0.775223
Si Si5 0.813205 0.031966 0.412963
Si Si6 0.616983 0.928755 0.693547
O O1 0.947931 0.268389 0.127494
O O2 0.987001 0.297612 0.259241
O O3 0.873320 0.093631 0.206586
O O4 0.843514 0.332530 0.908856
O O5 0.000000 0.500000 0.886929
O O6 0.000000 0.359698 0.000000
O O7 0.541420 0.310510 0.134477
O O8 0.500000 0.205146 0.000000
O O9 0.652103 0.347898 0.000000
O O10 0.582462 0.360427 0.754168
O O11 0.413844 0.192181 0.737230
O O12 0.691951 0.079351 0.381282
O O13 0.909190 0.128495 0.387753
O O14 0.806254 0.000000 0.500000
O O15 0.500000 0.000000 0.680356
#
# Coordination Sequence:
#
# PCOD9547014 Si02
#       6
#     8   8   8   8   8   8
#     4  11  26  42  60  87 122 165 215 274 340 409
#     4  11  24  38  56  81 113 153 205 270 336 417
#     4  12  23  37  62  85 111 163 226 297 350 391
#     4  11  26  43  61  94 134 175 232 291 343 408
#     4   9  20  43  75 109 143 176 215 270 327 392
#     4  12  26  39  70  99 136 175 218 269 336 409
#
# _framework density 20.257398999999999
#
# number of rings (size 3 to 8) (size 9 to 14) (size 15 to 20)
#    0.000    1.000    5.000    2.000    7.000    1.833 
#    0.000    0.833    0.000    0.000    0.000    0.000 
#    0.000    0.000    0.000    0.000    0.000    0.000 
#
# Total GULP energy -267283.611557 kJ/mol
# GULP energy per Si atom -5568.408574 kJ/mol
# Density = 2.021129 g / cm^3
# Si number density = 20.257399 Si / 1000 Ang^3
#
#
#
# Elastic Constant Matrix: (Units=GPa)
#
#
# Indices 1 2 3 4 5 6 
#
# 1 96.0407 38.1770 36.0114 0.0000 0.0000 0.0000
# 2 38.1770 96.0392 36.0117 0.0000 0.0000 0.0000
# 3 36.0114 36.0117 62.3753 0.0000 0.0000 0.0000
# 4 0.0000 0.0000 0.0000 31.4656 0.0000 0.0000
# 5 0.0000 0.0000 0.0000 0.0000 31.4627 0.0000
# 6 0.0000 0.0000 0.0000 0.0000 0.0000 20.4799
#
#
#
# Elastic Compliance Matrix: (Units=1/GPa)
#
#
# Indices 1 2 3 4 5 6 
#
# 1 0.014038 -0.003244 -0.006232 0.000000 0.000000 0.000000
# 2 -0.003244 0.014039 -0.006233 0.000000 0.000000 0.000000
# 3 -0.006232 -0.006233 0.023228 0.000000 0.000000 0.000000
# 4 0.000000 0.000000 0.000000 0.031781 0.000000 0.000000
# 5 0.000000 0.000000 0.000000 0.000000 0.031784 0.000000
# 6 0.000000 0.000000 0.000000 0.000000 0.000000 0.048828
#
#
# Mechanical properties :
#
#
# Convention : Reuss Voigt Hill
#
# Bulk Modulus (GPa) = 50.27927 52.76173 51.52050
# Shear Modulus (GPa) = 24.78381 26.29865 25.54123
#
# Velocity S-wave (km/s) = 3.50157 3.60700 3.55468
# Velocity P-wave (km/s) = 6.42044 6.59162 6.50659
#
# Compressibility (1/GPa) = 0.01988891
#
# Stress axis : x y z
#
# Youngs Moduli (GPa) = 71.23300 71.23121 43.05091
#
# Poissons Ratio (x) = 0.23105 0.26830
# Poissons Ratio (y) = 0.23105 0.26832
# Poissons Ratio (z) = 0.44394 0.44395
#
# Static dielectric constant tensor:
#      x y z
#    x 1.855480 0.000000 0.000000 
#    y 0.000000 1.855490 0.000000 
#    z 0.000000 0.000000 1.893680 
# 
# From -- ./inp_files/2413.got.cif
#   From: 2010.05.17/outbox.cif.g08.bks.cpg/sg89_2_cif.got.tgz:2413.got - 2010.06.03 19:15:31.
