data_PCOD9547018
_publ_section_title
;
Structure prediction by ZEFSAII (Michael W. Deem and Ramdas Pophale) SiO2 
 PCOD9547018
Probable space group: P 4 2 2
;
_chemical_formula_sum "Si O2"
_cell_formula_units_Z 48
_cell_length_a 8.502201
_cell_length_b 8.502201
_cell_length_c 30.656738
_cell_angle_alpha 90.000000
_cell_angle_beta 90.000000
_cell_angle_gamma 90.000000
_cell_volume 2216.096552
_symmetry_space_group_name_H-M "P 4 2 2"
_symmetry_group_IT_number 89
_symmetry_cell_setting 'tetragonal'
loop_
_space_group_symop_operation_xyz
x,y,z
-y,x,z
-x,-y,z
y,-x,z
x,-y,-z
-x,y,-z
y,x,-z
-y,-x,-z
loop_
_atom_site_type_symbol
_atom_site_label
_atom_site_fract_x
_atom_site_fract_y
_atom_site_fract_z
Si Si1 0.244108 0.572679 0.116328
Si Si2 0.034537 0.262723 0.951093
Si Si3 0.204790 0.167433 0.449842
Si Si4 0.753167 0.422276 0.215581
Si Si5 0.918684 0.250325 0.290794
Si Si6 0.268118 0.383735 0.632519
O O1 0.313869 0.396986 0.111354
O O2 0.110196 0.613830 0.081965
O O3 0.186572 0.594178 0.166084
O O4 0.873747 0.166487 0.945256
O O5 0.000000 0.323835 0.000000
O O6 0.221802 0.221802 0.500000
O O7 0.333350 0.236289 0.417224
O O8 0.021380 0.211675 0.442307
O O9 0.688306 0.598807 0.220372
O O10 0.872784 0.367924 0.252232
O O11 0.872430 0.324376 0.337102
O O12 0.095443 0.190590 0.287377
O O13 0.433557 0.297440 0.642218
#
# Coordination Sequence:
#
# PCOD9547018 Si02
#       6
#     8   8   8   8   8   8
#     4   9  19  37  61  89 118 148 187 235 283 334
#     4   9  19  37  55  77 111 148 185 226 272 322
#     4   9  19  37  60  85 113 147 191 243 296 351
#     4   9  19  37  60  86 117 150 185 229 281 338
#     4  11  24  39  56  83 117 151 191 237 284 340
#     4  11  24  39  56  81 114 152 194 242 294 347
#
# _framework density 21.659706
#
# number of rings (size 3 to 8) (size 9 to 14) (size 15 to 20)
#    0.000    2.333    0.000    4.000    0.000   10.000 
#    0.000   15.833    0.000    4.000    0.000    0.000 
#    0.000    0.000    0.000    0.000    0.000    0.000 
#
# Total GULP energy -267950.230281 kJ/mol
# GULP energy per Si atom -5582.296464 kJ/mol
# Density = 2.161041 g / cm^3
# Si number density = 21.659706 Si / 1000 Ang^3
#
#
#
# Elastic Constant Matrix: (Units=GPa)
#
#
# Indices 1 2 3 4 5 6 
#
# 1 39.8265 45.9650 37.8366 0.0000 0.0000 0.0000
# 2 45.9650 39.8265 37.8366 0.0000 0.0000 0.0000
# 3 37.8366 37.8366 108.3867 0.0000 0.0000 0.0000
# 4 0.0000 0.0000 0.0000 28.6060 0.0000 0.0000
# 5 0.0000 0.0000 0.0000 0.0000 28.6060 0.0000
# 6 0.0000 0.0000 0.0000 0.0000 0.0000 42.7982
#
#
#
# Elastic Compliance Matrix: (Units=1/GPa)
#
#
# Indices 1 2 3 4 5 6 
#
# 1 -0.073032 0.089874 -0.005879 0.000000 0.000000 0.000000
# 2 0.089874 -0.073032 -0.005879 0.000000 0.000000 0.000000
# 3 -0.005879 -0.005879 0.013331 0.000000 0.000000 0.000000
# 4 0.000000 0.000000 0.000000 0.034958 0.000000 0.000000
# 5 0.000000 0.000000 0.000000 0.000000 0.034958 0.000000
# 6 0.000000 0.000000 0.000000 0.000000 0.000000 0.023365
#
#
# Mechanical properties :
#
#
# Convention : Reuss Voigt Hill
#
# Bulk Modulus (GPa) = 42.55726 47.92403 45.24065
# Shear Modulus (GPa) = -26.61714 24.42879 -1.09418
#
# Velocity S-wave (km/s) = -3.50934 3.36198 -0.71152
# Velocity P-wave (km/s) = 1.80836 6.10283 4.50081
#
# Compressibility (1/GPa) = 0.02349775
#
# Stress axis : x y z
#
# Youngs Moduli (GPa) = -13.69268 -13.69268 75.01251
#
# Poissons Ratio (x) = 1.23061 0.44103
# Poissons Ratio (y) = 1.23061 0.44103
# Poissons Ratio (z) = -0.08050 -0.08050
#
# Static dielectric constant tensor:
#      x y z
#    x 1.803030 0.000000 0.000000 
#    y 0.000000 1.803030 0.000000 
#    z 0.000000 0.000000 1.781270 
# 
# From -- ./inp_files/2964.got.cif
#   From: 2010.05.17/outbox.cif.g08.bks.cpg/sg89_2_cif.got.tgz:2964.got - 2010.06.03 19:15:31.
