data_PCOD9547682
_publ_section_title
;
Structure prediction by ZEFSAII (Michael W. Deem and Ramdas Pophale) SiO2 
 PCOD9547682
Probable space group: P 41 2 2
;
_chemical_formula_sum "Si O2"
_cell_formula_units_Z 44
_cell_length_a 22.507158
_cell_length_b 22.507158
_cell_length_c 5.274411
_cell_angle_alpha 90.000000
_cell_angle_beta 90.000000
_cell_angle_gamma 90.000000
_cell_volume 2671.869780
_symmetry_space_group_name_H-M "P 41 2 2"
_symmetry_group_IT_number 91
_symmetry_cell_setting 'tetragonal'
loop_
_space_group_symop_operation_xyz
x,y,z
-y,x,1/4+z
-x,-y,1/2+z
y,-x,3/4+z
x,-y,1/2-z
-x,y,-z
y,x,3/4-z
-y,-x,1/4-z
loop_
_atom_site_type_symbol
_atom_site_label
_atom_site_fract_x
_atom_site_fract_y
_atom_site_fract_z
Si Si1 0.252040 0.650932 0.181294
Si Si2 0.606021 0.200871 0.066291
Si Si3 0.755631 0.848156 0.956320
Si Si4 0.561027 0.000000 0.750000
Si Si5 0.000000 0.360929 0.000000
Si Si6 0.109303 0.500000 0.750000
Si Si7 0.714134 0.891229 0.453911
O O1 0.312771 0.687230 0.125000
O O2 0.244248 0.615341 0.444364
O O3 0.201315 0.702682 0.200657
O O4 0.236446 0.607448 0.948021
O O5 0.552253 0.153700 0.089268
O O6 0.664916 0.160568 0.046408
O O7 0.814322 0.814322 0.875000
O O8 0.738206 0.895282 0.738660
O O9 0.760679 0.872637 0.238963
O O10 0.598957 0.012304 0.496749
O O11 0.525257 0.938800 0.701242
O O12 0.052823 0.319687 0.906899
#
# Coordination Sequence:
#
# PCOD9547682 Si02
#       7
#     8   8   8   4   4   4   8
#     4   9  18  33  51  70  88 113 150 205 266 308
#     4  10  21  32  50  68  93 121 163 211 249 294
#     4   9  17  30  49  68  87 109 147 205 260 303
#     4  12  27  38  50  62  96 144 184 222 245 282
#     4  12  23  38  50  66  94 136 176 216 249 280
#     4  12  26  38  50  72  98 140 186 218 258 270
#     4  10  19  32  46  67  89 120 162 202 251 291
#
# _framework density 16.467870000000001
#
# number of rings (size 3 to 8) (size 9 to 14) (size 15 to 20)
#    0.000    1.818    1.818    2.727    5.091    6.545 
#    0.000    0.000    0.000    0.000    0.000    0.000 
#    0.000    0.000    0.000    0.000    0.000   50.909 
#
# Total GULP energy -245151.071229 kJ/mol
# GULP energy per Si atom -5571.615255 kJ/mol
# Density = 1.643039 g / cm^3
# Si number density = 16.467870 Si / 1000 Ang^3
#
#
#
# Elastic Constant Matrix: (Units=GPa)
#
#
# Indices 1 2 3 4 5 6 
#
# 1 27.9112 24.4168 14.3634 0.0000 0.0000 0.0000
# 2 24.4168 27.9110 14.3641 0.0000 0.0000 0.0000
# 3 14.3634 14.3641 64.1867 0.0000 0.0000 0.0000
# 4 0.0000 0.0000 0.0000 15.0831 0.0000 0.0000
# 5 0.0000 0.0000 0.0000 0.0000 15.0829 0.0000
# 6 0.0000 0.0000 0.0000 0.0000 0.0000 19.8263
#
#
#
# Elastic Compliance Matrix: (Units=1/GPa)
#
#
# Indices 1 2 3 4 5 6 
#
# 1 0.153980 -0.132195 -0.004873 0.000000 0.000000 0.000000
# 2 -0.132195 0.153984 -0.004877 0.000000 0.000000 0.000000
# 3 -0.004873 -0.004877 0.017762 0.000000 0.000000 0.000000
# 4 0.000000 0.000000 0.000000 0.066300 0.000000 0.000000
# 5 0.000000 0.000000 0.000000 0.000000 0.066300 0.000000
# 6 0.000000 0.000000 0.000000 0.000000 0.000000 0.050438
#
#
# Mechanical properties :
#
#
# Convention : Reuss Voigt Hill
#
# Bulk Modulus (GPa) = 23.90430 25.14414 24.52422
# Shear Modulus (GPa) = 6.19886 14.45610 10.32748
#
# Velocity S-wave (km/s) = 1.94226 2.96605 2.50697
# Velocity P-wave (km/s) = 4.42460 5.19920 4.82746
#
# Compressibility (1/GPa) = 0.04183347
#
# Stress axis : x y z
#
# Youngs Moduli (GPa) = 6.49434 6.49418 56.30123
#
# Poissons Ratio (x) = 0.85850 0.27438
# Poissons Ratio (y) = 0.85852 0.27461
# Poissons Ratio (z) = 0.03165 0.03167
#
# Static dielectric constant tensor:
#      x y z
#    x 1.544850 0.000000 0.000000 
#    y 0.000000 1.544850 0.000000 
#    z 0.000000 0.000000 1.615590 
# 
# From -- ./inp_files/18803.got.cif
#   From: 2010.05.17/outbox.cif.g08.bks.cpg/sg91_10_cif.got.tgz:18803.got - 2010.06.03 19:20:03.
