data_PCOD9547533
_publ_section_title
;
Structure prediction by ZEFSAII (Michael W. Deem and Ramdas Pophale) SiO2 
 PCOD9547533
Probable space group: P 41 2 2
;
_chemical_formula_sum "Si O2"
_cell_formula_units_Z 56
_cell_length_a 20.553382
_cell_length_b 20.553382
_cell_length_c 10.216334
_cell_angle_alpha 90.000000
_cell_angle_beta 90.000000
_cell_angle_gamma 90.000000
_cell_volume 4315.803578
_symmetry_space_group_name_H-M "P 41 2 2"
_symmetry_group_IT_number 91
_symmetry_cell_setting 'tetragonal'
loop_
_space_group_symop_operation_xyz
x,y,z
-y,x,1/4+z
-x,-y,1/2+z
y,-x,3/4+z
x,-y,1/2-z
-x,y,-z
y,x,3/4-z
-y,-x,1/4-z
loop_
_atom_site_type_symbol
_atom_site_label
_atom_site_fract_x
_atom_site_fract_y
_atom_site_fract_z
Si Si1 0.594501 0.645161 0.238061
Si Si2 0.439789 0.630158 0.236073
Si Si3 0.122150 0.420313 0.257552
Si Si4 0.578664 0.842774 0.518790
Si Si5 0.224329 0.570640 0.025687
Si Si6 0.205404 0.413740 0.013599
Si Si7 0.563028 0.985908 0.595365
O O1 0.627225 0.627225 0.375000
O O2 0.516933 0.634891 0.256732
O O3 0.608762 0.721060 0.208813
O O4 0.615683 0.598472 0.119628
O O5 0.421696 0.578305 0.125000
O O6 0.418560 0.701486 0.185431
O O7 0.120395 0.500000 0.250000
O O8 0.172750 0.403135 0.371188
O O9 0.049440 0.399132 0.294047
O O10 0.152551 0.396060 0.122639
O O11 0.500000 0.841413 0.500000
O O12 0.595862 0.791347 0.631002
O O13 0.605510 0.821246 0.378767
O O14 0.594511 0.915141 0.572193
O O15 0.212146 0.492650 0.019050
O O16 0.500000 0.983169 0.500000
O O17 0.547614 0.000000 0.750000
#
# Coordination Sequence:
#
# PCOD9547533 Si02
#       7
#     8   8   8   8   8   8   8
#     4  11  22  35  47  60  74  91 121 159 209 258
#     4  11  22  33  47  60  74  91 119 159 208 260
#     4   9  16  25  39  54  77  97 118 138 164 202
#     4   9  16  25  39  54  75  95 119 135 162 202
#     4   9  16  29  41  53  70  95 116 143 179 227
#     4   9  18  29  41  55  70  95 118 144 178 227
#     4  10  18  24  36  58  82 101 119 137 158 191
#
# _framework density 12.975567
#
# number of rings (size 3 to 8) (size 9 to 14) (size 15 to 20)
#    0.000    2.286    1.429    2.571    6.000    6.286 
#    0.000    0.000    0.000    0.000    0.000    0.000 
#    0.000    0.000    0.000    0.000    0.000    0.000 
#
# Total GULP energy -311776.105179 kJ/mol
# GULP energy per Si atom -5567.430450 kJ/mol
# Density = 1.294603 g / cm^3
# Si number density = 12.975567 Si / 1000 Ang^3
#
#
#
# Elastic Constant Matrix: (Units=GPa)
#
#
# Indices 1 2 3 4 5 6 
#
# 1 27.9379 5.1538 -1.7202 0.0000 0.0000 0.0000
# 2 5.1538 27.9393 -1.7162 0.0000 0.0000 0.0000
# 3 -1.7202 -1.7162 52.3465 0.0000 0.0000 0.0000
# 4 0.0000 0.0000 0.0000 16.2746 0.0000 0.0000
# 5 0.0000 0.0000 0.0000 0.0000 16.2745 0.0000
# 6 0.0000 0.0000 0.0000 0.0000 0.0000 -0.4226
#
#
#
# Elastic Compliance Matrix: (Units=1/GPa)
#
#
# Indices 1 2 3 4 5 6 
#
# 1 0.037106 -0.006784 0.000997 0.000000 0.000000 0.000000
# 2 -0.006784 0.037104 0.000994 0.000000 0.000000 0.000000
# 3 0.000997 0.000994 0.019169 0.000000 0.000000 0.000000
# 4 0.000000 0.000000 0.000000 0.061445 0.000000 0.000000
# 5 0.000000 0.000000 0.000000 0.000000 0.061446 0.000000
# 6 0.000000 0.000000 0.000000 0.000000 0.000000 -2.366062
#
#
# Mechanical properties :
#
#
# Convention : Reuss Voigt Hill
#
# Bulk Modulus (GPa) = 11.93409 12.40648 12.17029
# Shear Modulus (GPa) = -2.36712 13.52571 5.57930
#
# Velocity S-wave (km/s) = -1.35213 3.23212 2.07586
# Velocity P-wave (km/s) = 2.60378 4.84881 3.89170
#
# Compressibility (1/GPa) = 0.08379357
#
# Stress axis : x y z
#
# Youngs Moduli (GPa) = 26.94948 26.95110 52.16806
#
# Poissons Ratio (x) = 0.18282 -0.05201
# Poissons Ratio (y) = 0.18281 -0.05183
# Poissons Ratio (z) = -0.02687 -0.02678
#
# Static dielectric constant tensor:
#      x y z
#    x 1.421430 0.000000 0.000000 
#    y 0.000000 1.421430 0.000000 
#    z 0.000000 0.000000 1.494250 
# 
# From -- ./inp_files/2895.got.cif
#   From: 2010.05.17/outbox.cif.g08.bks.cpg/sg91_2_cif.got.tgz:2895.got - 2010.06.03 19:20:03.
