data_PCOD9547737
_publ_section_title
;
Structure prediction by ZEFSAII (Michael W. Deem and Ramdas Pophale) SiO2 
 PCOD9547737
Probable space group: P 41 2 2
;
_chemical_formula_sum "Si O2"
_cell_formula_units_Z 60
_cell_length_a 14.745560
_cell_length_b 14.745560
_cell_length_c 15.306456
_cell_angle_alpha 90.000000
_cell_angle_beta 90.000000
_cell_angle_gamma 90.000000
_cell_volume 3328.106296
_symmetry_space_group_name_H-M "P 41 2 2"
_symmetry_group_IT_number 91
_symmetry_cell_setting 'tetragonal'
loop_
_space_group_symop_operation_xyz
x,y,z
-y,x,1/4+z
-x,-y,1/2+z
y,-x,3/4+z
x,-y,1/2-z
-x,y,-z
y,x,3/4-z
-y,-x,1/4-z
loop_
_atom_site_type_symbol
_atom_site_label
_atom_site_fract_x
_atom_site_fract_y
_atom_site_fract_z
Si Si1 0.092458 0.134914 0.038398
Si Si2 0.363384 0.114759 0.966786
Si Si3 0.546861 0.098714 0.863588
Si Si4 0.087422 0.686692 0.344880
Si Si5 0.312847 0.173476 0.414370
Si Si6 0.202938 0.797063 0.625000
Si Si7 0.175550 0.025582 0.351898
Si Si8 0.512711 0.114141 0.666036
O O1 0.076122 0.220684 0.101509
O O2 0.155070 0.061505 0.087232
O O3 0.136478 0.179325 0.953676
O O4 0.000000 0.091524 0.000000
O O5 0.458417 0.125444 0.917889
O O6 0.298426 0.184125 0.918514
O O7 0.333633 0.011241 0.946772
O O8 0.372098 0.125304 0.071277
O O9 0.539795 0.135402 0.765818
O O10 0.540031 0.990015 0.853999
O O11 0.159162 0.701189 0.267369
O O12 0.116172 0.595719 0.398470
O O13 0.258502 0.258502 0.375000
O O14 0.265854 0.083653 0.371807
O O15 0.419986 0.172474 0.394131
O O16 0.094856 0.094856 0.375000
O O17 0.174164 0.000000 0.250000
#
# Coordination Sequence:
#
# PCOD9547737 Si02
#       8
#     8   8   8   8   8   4   8   8
#     4  12  25  35  54  73 106 148 196 238 277 331
#     4  10  19  35  53  79 105 146 185 238 278 346
#     4   9  19  33  56  77 104 137 198 223 285 341
#     4  11  21  39  54  78 109 148 191 237 296 336
#     4  11  23  37  54  81 112 148 192 235 284 347
#     4  12  24  34  54  78 110 142 186 234 294 324
#     4  11  25  39  52  71 108 157 206 244 280 330
#     4  10  20  34  59  78 103 148 183 239 290 342
#
# _framework density 18.028271
#
# number of rings (size 3 to 8) (size 9 to 14) (size 15 to 20)
#    0.000    1.333    2.667    4.000    6.533    1.067 
#    0.000    0.000    0.000    0.000    0.000    0.000 
#    0.000    0.000  108.800    0.533    0.000    0.000 
#
# Total GULP energy -334821.029075 kJ/mol
# GULP energy per Si atom -5580.350485 kJ/mol
# Density = 1.798724 g / cm^3
# Si number density = 18.028271 Si / 1000 Ang^3
#
#
#
# Elastic Constant Matrix: (Units=GPa)
#
#
# Indices 1 2 3 4 5 6 
#
# 1 60.9693 1.2995 6.1182 0.0000 0.0000 0.0000
# 2 1.2995 60.9720 6.1184 0.0000 0.0000 0.0000
# 3 6.1182 6.1184 100.8482 0.0000 0.0000 0.0000
# 4 0.0000 0.0000 0.0000 25.1860 0.0000 0.0000
# 5 0.0000 0.0000 0.0000 0.0000 25.1859 0.0000
# 6 0.0000 0.0000 0.0000 0.0000 0.0000 -33.4776
#
#
#
# Elastic Compliance Matrix: (Units=1/GPa)
#
#
# Indices 1 2 3 4 5 6 
#
# 1 0.016506 -0.000253 -0.000986 0.000000 0.000000 0.000000
# 2 -0.000253 0.016505 -0.000986 0.000000 0.000000 0.000000
# 3 -0.000986 -0.000986 0.010036 0.000000 0.000000 0.000000
# 4 0.000000 0.000000 0.000000 0.039705 0.000000 0.000000
# 5 0.000000 0.000000 0.000000 0.000000 0.039705 0.000000
# 6 0.000000 0.000000 0.000000 0.000000 0.000000 -0.029871
#
#
# Mechanical properties :
#
#
# Convention : Reuss Voigt Hill
#
# Bulk Modulus (GPa) = 25.90870 27.76239 26.83555
# Shear Modulus (GPa) = 45.49547 17.32909 31.41228
#
# Velocity S-wave (km/s) = 5.02896 3.10371 4.17872
# Velocity P-wave (km/s) = 6.93707 5.31760 6.18060
#
# Compressibility (1/GPa) = 0.03859707
#
# Stress axis : x y z
#
# Youngs Moduli (GPa) = 60.58395 60.58656 99.64593
#
# Poissons Ratio (x) = 0.01532 0.09825
# Poissons Ratio (y) = 0.01532 0.09825
# Poissons Ratio (z) = 0.05974 0.05974
#
# Static dielectric constant tensor:
#      x y z
#    x 1.654970 0.000000 0.000000 
#    y 0.000000 1.654980 0.000000 
#    z 0.000000 0.000000 1.655480 
# 
# From -- ./inp_files/11579.got.cif
#   From: 2010.05.17/outbox.cif.g08.bks.cpg/sg91_6_cif.got.tgz:11579.got - 2010.06.03 19:20:03.
