data_PCOD9547366
_publ_section_title
;
Structure prediction by ZEFSAII (Michael W. Deem and Ramdas Pophale) SiO2 
 PCOD9547366
Probable space group: P 4 21 2
;
_chemical_formula_sum "Si O2"
_cell_formula_units_Z 48
_cell_length_a 9.454310
_cell_length_b 9.454310
_cell_length_c 25.289013
_cell_angle_alpha 90.000000
_cell_angle_beta 90.000000
_cell_angle_gamma 90.000000
_cell_volume 2260.432571
_symmetry_space_group_name_H-M "P 4 21 2"
_symmetry_group_IT_number 90
_symmetry_cell_setting 'tetragonal'
loop_
_space_group_symop_operation_xyz
x,y,z
1/2-y,1/2+x,z
-x,-y,z
1/2+y,1/2-x,z
1/2+x,1/2-y,-z
1/2-x,1/2+y,-z
y,x,-z
-y,-x,-z
loop_
_atom_site_type_symbol
_atom_site_label
_atom_site_fract_x
_atom_site_fract_y
_atom_site_fract_z
Si Si1 0.923771 0.716779 0.476057
Si Si2 0.923154 0.717769 0.348786
Si Si3 0.932947 0.275765 0.026063
Si Si4 0.333020 0.617013 0.817892
Si Si5 0.331884 0.383060 0.141777
Si Si6 0.275979 0.067026 0.297979
O O1 0.825660 0.582650 0.492184
O O2 0.857687 0.857687 0.500000
O O3 0.921836 0.724553 0.412478
O O4 0.825078 0.582875 0.332771
O O5 0.858130 0.861866 0.326344
O O6 0.829920 0.409207 0.012890
O O7 0.935491 0.240018 0.088457
O O8 0.862979 0.137022 0.000000
O O9 0.249109 0.748910 0.838251
O O10 0.337782 0.495413 0.862480
O O11 0.495704 0.664609 0.813548
O O12 0.263278 0.565377 0.764078
O O13 0.409620 0.169706 0.310530
#
# Coordination Sequence:
#
# PCOD9547366 Si02
#       6
#     8   8   8   8   8   8
#     4   9  19  37  59  86 122 160 206 258 311 371
#     4   9  21  40  61  87 121 163 208 258 311 369
#     4  11  26  46  69  99 132 167 207 258 313 368
#     4  11  24  41  65  94 125 167 205 255 309 363
#     4  11  24  43  67  95 129 164 206 254 305 365
#     4  11  24  41  60  89 127 163 203 256 312 372
#
# _framework density 21.234874999999999
#
# number of rings (size 3 to 8) (size 9 to 14) (size 15 to 20)
#    0.000    1.667    3.333    1.000    4.667    3.333 
#    0.000    5.000    0.000    0.000    0.000    0.000 
#    0.000    0.000    0.000    0.000    0.000    0.000 
#
# Total GULP energy -267933.197433 kJ/mol
# GULP energy per Si atom -5581.941613 kJ/mol
# Density = 2.118654 g / cm^3
# Si number density = 21.234875 Si / 1000 Ang^3
#
#
#
# Elastic Constant Matrix: (Units=GPa)
#
#
# Indices 1 2 3 4 5 6 
#
# 1 59.0212 43.4017 -0.4748 0.0000 0.0000 0.0000
# 2 43.4017 59.0218 -0.4754 0.0000 0.0000 0.0000
# 3 -0.4748 -0.4754 11.1615 0.0000 0.0000 0.0000
# 4 0.0000 0.0000 0.0000 76.6695 0.0000 0.0000
# 5 0.0000 0.0000 0.0000 0.0000 76.6613 0.0000
# 6 0.0000 0.0000 0.0000 0.0000 0.0000 48.4135
#
#
#
# Elastic Compliance Matrix: (Units=1/GPa)
#
#
# Indices 1 2 3 4 5 6 
#
# 1 0.036894 -0.027127 0.000414 0.000000 0.000000 0.000000
# 2 -0.027127 0.036894 0.000417 0.000000 0.000000 0.000000
# 3 0.000414 0.000417 0.089629 0.000000 0.000000 0.000000
# 4 0.000000 0.000000 0.000000 0.013043 0.000000 0.000000
# 5 0.000000 0.000000 0.000000 0.000000 0.013044 0.000000
# 6 0.000000 0.000000 0.000000 0.000000 0.000000 0.020655
#
#
# Mechanical properties :
#
#
# Convention : Reuss Voigt Hill
#
# Bulk Modulus (GPa) = 9.02308 23.78972 16.40640
# Shear Modulus (GPa) = 16.68368 46.13238 31.40803
#
# Velocity S-wave (km/s) = 2.80603 4.66605 3.85005
# Velocity P-wave (km/s) = 3.84146 6.34482 5.24469
#
# Compressibility (1/GPa) = 0.11082692
#
# Stress axis : x y z
#
# Youngs Moduli (GPa) = 27.10435 27.10464 11.15705
#
# Poissons Ratio (x) = 0.73527 -0.00462
# Poissons Ratio (y) = 0.73526 -0.00466
# Poissons Ratio (z) = -0.01122 -0.01131
#
# Static dielectric constant tensor:
#      x y z
#    x 1.821090 0.000000 0.000000 
#    y 0.000000 1.821090 0.000000 
#    z 0.000000 0.000000 1.730050 
# 
# From -- ./inp_files/3048.got.cif
#   From: 2010.05.17/outbox.cif.g08.bks.cpg/sg90_2_cif.got.tgz:3048.got - 2010.06.03 19:17:45.
