data_PCOD9547034
_publ_section_title
;
Structure prediction by ZEFSAII (Michael W. Deem and Ramdas Pophale) SiO2 
 PCOD9547034
Probable space group: P 4 2 2
;
_chemical_formula_sum "Si O2"
_cell_formula_units_Z 34
_cell_length_a 8.122624
_cell_length_b 8.122624
_cell_length_c 23.488990
_cell_angle_alpha 90.000000
_cell_angle_beta 90.000000
_cell_angle_gamma 90.000000
_cell_volume 1549.733578
_symmetry_space_group_name_H-M "P 4 2 2"
_symmetry_group_IT_number 89
_symmetry_cell_setting 'tetragonal'
loop_
_space_group_symop_operation_xyz
x,y,z
-y,x,z
-x,-y,z
y,-x,z
x,-y,-z
-x,y,-z
y,x,-z
-y,-x,-z
loop_
_atom_site_type_symbol
_atom_site_label
_atom_site_fract_x
_atom_site_fract_y
_atom_site_fract_z
Si Si1 0.390475 0.250506 0.800070
Si Si2 0.085183 0.260070 0.091771
Si Si3 0.235144 0.847777 0.316448
Si Si4 0.211789 0.184289 0.560504
Si Si5 0.500000 0.000000 0.000000
O O1 0.580495 0.290965 0.809634
O O2 0.330783 0.118008 0.845689
O O3 0.349847 0.202094 0.735497
O O4 0.898763 0.198965 0.085214
O O5 0.110295 0.391224 0.042295
O O6 0.291529 0.779783 0.378368
O O7 0.046613 0.782209 0.312577
O O8 0.262912 0.262912 0.500000
O O9 0.015554 0.221559 0.560544
#
# Coordination Sequence:
#
# PCOD9547034 Si02
#       5
#     8   8   8   8   2
#     4  11  24  40  57  81 116 157 202 253 308 362
#     4  11  24  43  68  96 125 160 201 242 291 357
#     4   9  17  30  52  82 111 143 188 240 298 366
#     4   7  10  19  39  70 106 139 175 228 292 354
#     4  12  24  42  68  98 128 154 188 240 296 350
#
# _framework density 21.939256
#
# number of rings (size 3 to 8) (size 9 to 14) (size 15 to 20)
#    0.000    2.353    0.000    5.647    0.000    5.647 
#    0.000    0.000    0.000    2.824    0.000    8.235 
#    0.000    0.000    0.000    0.000    0.000    0.000 
#
# Total GULP energy -189754.902010 kJ/mol
# GULP energy per Si atom -5581.026530 kJ/mol
# Density = 2.188932 g / cm^3
# Si number density = 21.939256 Si / 1000 Ang^3
#
#
#
# Elastic Constant Matrix: (Units=GPa)
#
#
# Indices 1 2 3 4 5 6 
#
# 1 53.8739 29.5064 47.7895 0.0000 0.0000 0.0000
# 2 29.5064 53.8739 47.7895 0.0000 0.0000 0.0000
# 3 47.7895 47.7895 207.6347 0.0000 0.0000 0.0000
# 4 0.0000 0.0000 0.0000 12.7827 0.0000 0.0000
# 5 0.0000 0.0000 0.0000 0.0000 12.7827 0.0000
# 6 0.0000 0.0000 0.0000 0.0000 0.0000 10.7241
#
#
#
# Elastic Compliance Matrix: (Units=1/GPa)
#
#
# Indices 1 2 3 4 5 6 
#
# 1 0.028665 -0.012373 -0.003750 0.000000 0.000000 0.000000
# 2 -0.012373 0.028665 -0.003750 0.000000 0.000000 0.000000
# 3 -0.003750 -0.003750 0.006542 0.000000 0.000000 0.000000
# 4 0.000000 0.000000 0.000000 0.078231 0.000000 0.000000
# 5 0.000000 0.000000 0.000000 0.000000 0.078231 0.000000
# 6 0.000000 0.000000 0.000000 0.000000 0.000000 0.093248
#
#
# Mechanical properties :
#
#
# Convention : Reuss Voigt Hill
#
# Bulk Modulus (GPa) = 41.44821 62.83929 52.14375
# Shear Modulus (GPa) = 13.83626 19.94437 16.89031
#
# Velocity S-wave (km/s) = 2.51402 3.01835 2.77766
# Velocity P-wave (km/s) = 5.23071 6.39155 5.84004
#
# Compressibility (1/GPa) = 0.02412649
#
# Stress axis : x y z
#
# Youngs Moduli (GPa) = 34.88588 34.88588 152.85352
#
# Poissons Ratio (x) = 0.43166 0.57315
# Poissons Ratio (y) = 0.43166 0.57315
# Poissons Ratio (z) = 0.13081 0.13081
#
# Static dielectric constant tensor:
#      x y z
#    x 1.800650 0.000000 0.000000 
#    y 0.000000 1.800650 0.000000 
#    z 0.000000 0.000000 1.857970 
# 
# From -- ./inp_files/2544.got.cif
#   From: 2010.05.17/outbox.cif.g08.bks.cpg/sg89_2_cif.got.tgz:2544.got - 2010.06.03 19:15:31.
