data_PCOD9547431
_publ_section_title
;
Structure prediction by ZEFSAII (Michael W. Deem and Ramdas Pophale) SiO2 
 PCOD9547431
Probable space group: P 4 21 2
;
_chemical_formula_sum "Si O2"
_cell_formula_units_Z 50
_cell_length_a 8.593197
_cell_length_b 8.593197
_cell_length_c 31.643483
_cell_angle_alpha 90.000000
_cell_angle_beta 90.000000
_cell_angle_gamma 90.000000
_cell_volume 2336.650813
_symmetry_space_group_name_H-M "P 4 21 2"
_symmetry_group_IT_number 90
_symmetry_cell_setting 'tetragonal'
loop_
_space_group_symop_operation_xyz
x,y,z
1/2-y,1/2+x,z
-x,-y,z
1/2+y,1/2-x,z
1/2+x,1/2-y,-z
1/2-x,1/2+y,-z
y,x,-z
-y,-x,-z
loop_
_atom_site_type_symbol
_atom_site_label
_atom_site_fract_x
_atom_site_fract_y
_atom_site_fract_z
Si Si1 0.748290 0.421989 0.703042
Si Si2 0.905857 0.737883 0.132763
Si Si3 0.749244 0.421751 0.464332
Si Si4 0.749503 0.423381 0.797225
Si Si5 0.421082 0.749267 0.631271
Si Si6 0.000000 0.500000 0.942862
Si Si7 0.600412 0.342335 0.046480
O O1 0.813157 0.597444 0.699591
O O2 0.681112 0.400617 0.750305
O O3 0.631484 0.371032 0.666654
O O4 0.806043 0.583480 0.141139
O O5 0.856206 0.874787 0.164032
O O6 0.872330 0.781291 0.084505
O O7 0.812913 0.597110 0.468483
O O8 0.629717 0.370284 0.500000
O O9 0.688027 0.401440 0.416545
O O10 0.814329 0.597521 0.799994
O O11 0.596721 0.812578 0.635531
O O12 0.003863 0.691894 0.943648
O O13 0.500000 0.500000 0.045341
O O14 0.675439 0.324561 0.000000
#
# Coordination Sequence:
#
# PCOD9547431 Si02
#       7
#     8   8   8   8   8   2   8
#     4   9  19  37  57  83 115 149 194 249 298 354
#     4  11  26  43  64  95 134 167 205 266 322 374
#     4   9  19  35  52  74 107 144 186 234 291 353
#     4   9  21  40  63  87 118 161 209 252 303 375
#     4   9  19  35  54  77 108 148 189 236 292 359
#     4  12  28  44  80 100 132 192 220 264 344 384
#     4  11  28  48  72 107 137 174 228 274 322 391
#
# _framework density 21.398149
#
# number of rings (size 3 to 8) (size 9 to 14) (size 15 to 20)
#    0.000    2.240    0.000    2.880    8.960    3.520 
#    0.000    9.600    0.000    0.000    0.000    0.000 
#    0.000    0.000    0.000    0.000    0.000    0.000 
#
# Total GULP energy -279083.203417 kJ/mol
# GULP energy per Si atom -5581.664068 kJ/mol
# Density = 2.134945 g / cm^3
# Si number density = 21.398149 Si / 1000 Ang^3
#
#
#
# Elastic Constant Matrix: (Units=GPa)
#
#
# Indices 1 2 3 4 5 6 
#
# 1 51.2315 30.8395 31.2773 0.0000 0.0000 0.0000
# 2 30.8395 51.2312 31.2770 0.0000 0.0000 0.0000
# 3 31.2773 31.2770 111.9550 0.0000 0.0000 0.0000
# 4 0.0000 0.0000 0.0000 49.1748 0.0000 0.0000
# 5 0.0000 0.0000 0.0000 0.0000 49.1748 0.0000
# 6 0.0000 0.0000 0.0000 0.0000 0.0000 4.7966
#
#
#
# Elastic Compliance Matrix: (Units=1/GPa)
#
#
# Indices 1 2 3 4 5 6 
#
# 1 0.032260 -0.016779 -0.004325 0.000000 0.000000 0.000000
# 2 -0.016779 0.032260 -0.004325 0.000000 0.000000 0.000000
# 3 -0.004325 -0.004325 0.011349 0.000000 0.000000 0.000000
# 4 0.000000 0.000000 0.000000 0.020336 0.000000 0.000000
# 5 0.000000 0.000000 0.000000 0.000000 0.020336 0.000000
# 6 0.000000 0.000000 0.000000 0.000000 0.000000 0.208481
#
#
# Mechanical properties :
#
#
# Convention : Reuss Voigt Hill
#
# Bulk Modulus (GPa) = 39.98247 44.57837 42.28042
# Shear Modulus (GPa) = 13.01350 28.69751 20.85550
#
# Velocity S-wave (km/s) = 2.46877 3.66610 3.12531
# Velocity P-wave (km/s) = 5.18189 6.22884 5.72933
#
# Compressibility (1/GPa) = 0.02501096
#
# Stress axis : x y z
#
# Youngs Moduli (GPa) = 30.99804 30.99793 88.11553
#
# Poissons Ratio (x) = 0.52012 0.38110
# Poissons Ratio (y) = 0.52012 0.38110
# Poissons Ratio (z) = 0.13407 0.13406
#
# Static dielectric constant tensor:
#      x y z
#    x 1.769090 0.000000 0.000000 
#    y 0.000000 1.769090 0.000000 
#    z 0.000000 0.000000 1.767140 
# 
# From -- ./inp_files/3060.got.cif
#   From: 2010.05.17/outbox.cif.g08.bks.cpg/sg90_2_cif.got.tgz:3060.got - 2010.06.03 19:17:45.
