data_PCOD9547819
_publ_section_title
;
Structure prediction by ZEFSAII (Michael W. Deem and Ramdas Pophale) SiO2 
 PCOD9547819
Probable space group: P 41 2 2
;
_chemical_formula_sum "Si O2"
_cell_formula_units_Z 48
_cell_length_a 21.823581
_cell_length_b 21.823581
_cell_length_c 5.189737
_cell_angle_alpha 90.000000
_cell_angle_beta 90.000000
_cell_angle_gamma 90.000000
_cell_volume 2471.709230
_symmetry_space_group_name_H-M "P 41 2 2"
_symmetry_group_IT_number 91
_symmetry_cell_setting 'tetragonal'
loop_
_space_group_symop_operation_xyz
x,y,z
-y,x,1/4+z
-x,-y,1/2+z
y,-x,3/4+z
x,-y,1/2-z
-x,y,-z
y,x,3/4-z
-y,-x,1/4-z
loop_
_atom_site_type_symbol
_atom_site_label
_atom_site_fract_x
_atom_site_fract_y
_atom_site_fract_z
Si Si1 0.670076 0.500000 0.250000
Si Si2 0.627685 0.730258 0.464777
Si Si3 0.113682 0.793722 0.753734
Si Si4 0.594050 0.500000 0.750000
Si Si5 0.064067 0.688641 0.387093
Si Si6 0.217595 0.000000 0.250000
Si Si7 0.654184 0.804424 0.990359
Si Si8 0.779422 0.220579 0.625000
O O1 0.704915 0.437325 0.316660
O O2 0.632927 0.520315 0.504445
O O3 0.675107 0.675107 0.375000
O O4 0.614721 0.770670 0.208370
O O5 0.648926 0.774889 0.702905
O O6 0.154983 0.845018 0.625000
O O7 0.095550 0.732631 0.599451
O O8 0.049114 0.820442 0.843376
O O9 0.156229 0.773980 0.987702
O O10 0.552061 0.447940 0.625000
O O11 0.121498 0.650266 0.270289
O O12 0.000000 0.659300 0.500000
O O13 0.037812 0.736835 0.181880
O O14 0.722919 0.781729 0.068399
#
# Coordination Sequence:
#
# PCOD9547819 Si02
#       8
#     4   8   8   4   8   4   8   4
#     4  12  27  46  64  94 146 175 224 278 336 396
#     4  12  25  41  64  95 130 179 215 265 330 391
#     4  11  19  31  50  76 118 161 194 244 323 382
#     4  12  23  42  72 100 124 177 234 284 318 364
#     4  10  22  34  54  85 130 161 196 259 330 390
#     4  10  20  32  46  78 118 152 200 246 318 384
#     4  12  23  38  61  94 128 167 212 263 325 404
#     4  12  20  32  54  86 124 152 192 254 322 388
#
# _framework density 19.419758999999999
#
# number of rings (size 3 to 8) (size 9 to 14) (size 15 to 20)
#    0.000    0.667    5.000    4.000    2.333    0.000 
#    0.000    0.000    0.000    0.000    0.000    2.333 
#  282.500    0.000    0.000    0.000    0.000    0.000 
#
# Total GULP energy -267243.353387 kJ/mol
# GULP energy per Si atom -5567.569862 kJ/mol
# Density = 1.937556 g / cm^3
# Si number density = 19.419759 Si / 1000 Ang^3
#
#
#
# Elastic Constant Matrix: (Units=GPa)
#
#
# Indices 1 2 3 4 5 6 
#
# 1 80.3303 36.8735 21.8439 0.0000 0.0000 0.0000
# 2 36.8735 80.3291 21.8439 0.0000 0.0000 0.0000
# 3 21.8439 21.8439 90.4018 0.0000 0.0000 0.0000
# 4 0.0000 0.0000 0.0000 65.3015 0.0000 0.0000
# 5 0.0000 0.0000 0.0000 0.0000 65.1017 0.0000
# 6 0.0000 0.0000 0.0000 0.0000 0.0000 -2.9502
#
#
#
# Elastic Compliance Matrix: (Units=1/GPa)
#
#
# Indices 1 2 3 4 5 6 
#
# 1 0.016194 -0.006817 -0.002266 0.000000 0.000000 0.000000
# 2 -0.006817 0.016194 -0.002266 0.000000 0.000000 0.000000
# 3 -0.002266 -0.002266 0.012157 0.000000 0.000000 0.000000
# 4 0.000000 0.000000 0.000000 0.015314 0.000000 0.000000
# 5 0.000000 0.000000 0.000000 0.000000 0.015361 0.000000
# 6 0.000000 0.000000 0.000000 0.000000 0.000000 -0.338961
#
#
# Mechanical properties :
#
#
# Convention : Reuss Voigt Hill
#
# Bulk Modulus (GPa) = 45.77227 45.79820 45.78524
# Shear Modulus (GPa) = -21.38930 36.85726 7.73398
#
# Velocity S-wave (km/s) = -3.32236 4.36125 1.99779
# Velocity P-wave (km/s) = 2.98390 6.99965 5.38046
#
# Compressibility (1/GPa) = 0.02184729
#
# Stress axis : x y z
#
# Youngs Moduli (GPa) = 61.75094 61.74995 82.25943
#
# Poissons Ratio (x) = 0.42098 0.18637
# Poissons Ratio (y) = 0.42099 0.18638
# Poissons Ratio (z) = 0.13991 0.13991
#
# Static dielectric constant tensor:
#      x y z
#    x 1.485090 0.000000 0.000000 
#    y 0.000000 1.487230 0.000000 
#    z 0.000000 0.000000 1.841620 
# 
# From -- ./inp_files/18885.got.cif
#   From: 2010.05.17/outbox.cif.g08.bks.cpg/sg91_10_cif.got.tgz:18885.got - 2010.06.03 19:20:03.
