data_PCOD9547950
_publ_section_title
;
Structure prediction by ZEFSAII (Michael W. Deem and Ramdas Pophale) SiO2 
 PCOD9547950
Probable space group: P 41 2 2
;
_chemical_formula_sum "Si O2"
_cell_formula_units_Z 36
_cell_length_a 11.760647
_cell_length_b 11.760647
_cell_length_c 13.400969
_cell_angle_alpha 90.000000
_cell_angle_beta 90.000000
_cell_angle_gamma 90.000000
_cell_volume 1853.525784
_symmetry_space_group_name_H-M "P 41 2 2"
_symmetry_group_IT_number 91
_symmetry_cell_setting 'tetragonal'
loop_
_space_group_symop_operation_xyz
x,y,z
-y,x,1/4+z
-x,-y,1/2+z
y,-x,3/4+z
x,-y,1/2-z
-x,y,-z
y,x,3/4-z
-y,-x,1/4-z
loop_
_atom_site_type_symbol
_atom_site_label
_atom_site_fract_x
_atom_site_fract_y
_atom_site_fract_z
Si Si1 0.126216 0.349747 0.032732
Si Si2 0.798652 0.072910 0.477326
Si Si3 0.531086 0.286056 0.617443
Si Si4 0.297421 0.907500 0.180939
Si Si5 0.149818 0.850183 0.625000
O O1 0.106770 0.279197 0.134458
O O2 0.233988 0.430007 0.062510
O O3 0.151698 0.261256 0.944000
O O4 0.000000 0.397211 0.000000
O O5 0.727070 0.038661 0.574078
O O6 0.871102 0.180828 0.513837
O O7 0.861533 0.960085 0.444589
O O8 0.500000 0.268275 0.500000
O O9 0.586704 0.413297 0.625000
O O10 0.630714 0.203009 0.655695
O O11 0.355301 0.000000 0.250000
#
# Coordination Sequence:
#
# PCOD9547950 Si02
#       5
#     8   8   8   8   4
#     4  10  21  40  65  93 133 169 211 263 328 388
#     4  10  20  38  60  95 132 171 203 252 314 392
#     4  12  23  44  67  87 122 168 223 275 328 377
#     4  11  21  35  62  94 128 168 213 254 313 388
#     4  10  22  38  64  98 136 172 204 258 326 398
#
# _framework density 19.422443000000001
#
# number of rings (size 3 to 8) (size 9 to 14) (size 15 to 20)
#    0.000    1.333    4.444    2.000    0.000    4.444 
#    2.000    0.000    0.000    0.000    0.000    0.000 
#    0.000    0.000    0.000    0.000    0.000    0.000 
#
# Total GULP energy -200407.236884 kJ/mol
# GULP energy per Si atom -5566.867691 kJ/mol
# Density = 1.937824 g / cm^3
# Si number density = 19.422443 Si / 1000 Ang^3
#
#
#
# Elastic Constant Matrix: (Units=GPa)
#
#
# Indices 1 2 3 4 5 6 
#
# 1 51.5920 84.9936 40.2696 0.0000 0.0000 0.0000
# 2 84.9936 51.5910 40.2638 0.0000 0.0000 0.0000
# 3 40.2696 40.2638 116.1856 0.0000 0.0000 0.0000
# 4 0.0000 0.0000 0.0000 11.6981 0.0000 0.0000
# 5 0.0000 0.0000 0.0000 0.0000 11.6956 0.0000
# 6 0.0000 0.0000 0.0000 0.0000 0.0000 -27.2637
#
#
#
# Elastic Compliance Matrix: (Units=1/GPa)
#
#
# Indices 1 2 3 4 5 6 
#
# 1 -0.010369 0.019570 -0.003188 0.000000 0.000000 0.000000
# 2 0.019570 -0.010368 -0.003190 0.000000 0.000000 0.000000
# 3 -0.003188 -0.003190 0.010817 0.000000 0.000000 0.000000
# 4 0.000000 0.000000 0.000000 0.085484 0.000000 0.000000
# 5 0.000000 0.000000 0.000000 0.000000 0.085502 0.000000
# 6 0.000000 0.000000 0.000000 0.000000 0.000000 -0.036679
#
#
# Mechanical properties :
#
#
# Convention : Reuss Voigt Hill
#
# Bulk Modulus (GPa) = 60.73615 61.15807 60.94711
# Shear Modulus (GPa) = 48.31258 2.81545 25.56401
#
# Velocity S-wave (km/s) = 4.99286 1.20529 3.63190
# Velocity P-wave (km/s) = 8.03599 5.78737 7.00253
#
# Compressibility (1/GPa) = 0.01646466
#
# Stress axis : x y z
#
# Youngs Moduli (GPa) = -96.44442 -96.45223 92.44356
#
# Poissons Ratio (x) = 1.88757 0.29473
# Poissons Ratio (y) = 1.88742 0.29489
# Poissons Ratio (z) = -0.30748 -0.30768
#
# Static dielectric constant tensor:
#      x y z
#    x 1.736290 0.000000 0.000000 
#    y 0.000000 1.736300 0.000000 
#    z 0.000000 0.000000 1.512020 
# 
# From -- ./inp_files/20047.got.cif
#   From: 2010.05.17/outbox.cif.g08.bks.cpg/sg91_11_cif.got.tgz:20047.got - 2010.06.03 19:20:03.
