data_PCOD9547945
_publ_section_title
;
Structure prediction by ZEFSAII (Michael W. Deem and Ramdas Pophale) SiO2 
 PCOD9547945
Probable space group: P 41 2 2
;
_chemical_formula_sum "Si O2"
_cell_formula_units_Z 48
_cell_length_a 20.792812
_cell_length_b 20.792812
_cell_length_c 5.521358
_cell_angle_alpha 90.000000
_cell_angle_beta 90.000000
_cell_angle_gamma 90.000000
_cell_volume 2387.109610
_symmetry_space_group_name_H-M "P 41 2 2"
_symmetry_group_IT_number 91
_symmetry_cell_setting 'tetragonal'
loop_
_space_group_symop_operation_xyz
x,y,z
-y,x,1/4+z
-x,-y,1/2+z
y,-x,3/4+z
x,-y,1/2-z
-x,y,-z
y,x,3/4-z
-y,-x,1/4-z
loop_
_atom_site_type_symbol
_atom_site_label
_atom_site_fract_x
_atom_site_fract_y
_atom_site_fract_z
Si Si1 0.224967 0.873679 0.041122
Si Si2 0.463032 0.281335 0.753256
Si Si3 0.087126 0.318157 0.906381
Si Si4 0.568716 0.148608 0.426706
Si Si5 0.333113 0.796765 0.284551
Si Si6 0.325991 0.674010 0.625000
Si Si7 0.000000 0.279478 0.500000
O O1 0.248309 0.899698 0.779328
O O2 0.158690 0.841311 0.125000
O O3 0.278111 0.818557 0.096023
O O4 0.237851 0.937411 0.195470
O O5 0.500000 0.292981 0.500000
O O6 0.447242 0.204795 0.764996
O O7 0.394801 0.316984 0.751746
O O8 0.500000 0.299272 0.000000
O O9 0.147678 0.328026 0.732387
O O10 0.023513 0.318133 0.738690
O O11 0.097813 0.377763 0.091011
O O12 0.500000 0.119551 0.500000
O O13 0.600653 0.190846 0.643084
O O14 0.322471 0.729786 0.420408
#
# Coordination Sequence:
#
# PCOD9547945 Si02
#       7
#     8   8   8   8   8   4   4
#     4  10  21  37  61  93 129 156 210 263 327 394
#     4  11  25  40  58  93 132 171 216 276 350 416
#     4  10  20  38  57  93 124 167 211 264 334 394
#     4  10  21  35  56  88 128 166 212 270 338 400
#     4  10  21  33  56  97 119 156 201 274 336 398
#     4  12  20  38  66  86 134 166 214 280 354 410
#     4  10  22  38  60  90 126 174 202 264 330 392
#
# _framework density 20.108000000000001
#
# number of rings (size 3 to 8) (size 9 to 14) (size 15 to 20)
#    0.000    1.667    1.667    3.500    2.333    4.000 
#    0.000    0.000    0.000    1.000  160.333    0.000 
#    0.000    0.000    0.000    0.000    0.000    0.000 
#
# Total GULP energy -267554.900274 kJ/mol
# GULP energy per Si atom -5574.060422 kJ/mol
# Density = 2.006223 g / cm^3
# Si number density = 20.108000 Si / 1000 Ang^3
#
#
#
# Elastic Constant Matrix: (Units=GPa)
#
#
# Indices 1 2 3 4 5 6 
#
# 1 126.4537 60.5649 50.2985 0.0000 0.0000 0.0000
# 2 60.5649 126.4534 50.2983 0.0000 0.0000 0.0000
# 3 50.2985 50.2983 114.1218 0.0000 0.0000 0.0000
# 4 0.0000 0.0000 0.0000 29.4822 0.0000 0.0000
# 5 0.0000 0.0000 0.0000 0.0000 29.4814 0.0000
# 6 0.0000 0.0000 0.0000 0.0000 0.0000 25.5185
#
#
#
# Elastic Compliance Matrix: (Units=1/GPa)
#
#
# Indices 1 2 3 4 5 6 
#
# 1 0.011093 -0.004084 -0.003089 0.000000 0.000000 0.000000
# 2 -0.004084 0.011093 -0.003089 0.000000 0.000000 0.000000
# 3 -0.003089 -0.003089 0.011485 0.000000 0.000000 0.000000
# 4 0.000000 0.000000 0.000000 0.033919 0.000000 0.000000
# 5 0.000000 0.000000 0.000000 0.000000 0.033920 0.000000
# 6 0.000000 0.000000 0.000000 0.000000 0.000000 0.039187
#
#
# Mechanical properties :
#
#
# Convention : Reuss Voigt Hill
#
# Bulk Modulus (GPa) = 76.06459 76.59472 76.32965
# Shear Modulus (GPa) = 30.19255 30.62089 30.40672
#
# Velocity S-wave (km/s) = 3.87915 3.90657 3.89288
# Velocity P-wave (km/s) = 7.61406 7.65001 7.63206
#
# Compressibility (1/GPa) = 0.01314672
#
# Stress axis : x y z
#
# Youngs Moduli (GPa) = 90.14793 90.14786 87.06641
#
# Poissons Ratio (x) = 0.36819 0.26895
# Poissons Ratio (y) = 0.36819 0.26895
# Poissons Ratio (z) = 0.27847 0.27847
#
# Static dielectric constant tensor:
#      x y z
#    x 1.732700 0.000000 0.000000 
#    y 0.000000 1.732700 0.000000 
#    z 0.000000 0.000000 1.861280 
# 
# From -- ./inp_files/1272.got.cif
#   From: 2010.05.17/outbox.cif.g08.bks.cpg/sg91_1_cif.got.tgz:1272.got - 2010.06.03 19:20:03.
