data_PCOD9547863
_publ_section_title
;
Structure prediction by ZEFSAII (Michael W. Deem and Ramdas Pophale) SiO2 
 PCOD9547863
Probable space group: P 41 2 2
;
_chemical_formula_sum "Si O2"
_cell_formula_units_Z 40
_cell_length_a 11.922651
_cell_length_b 11.922651
_cell_length_c 13.589413
_cell_angle_alpha 90.000000
_cell_angle_beta 90.000000
_cell_angle_gamma 90.000000
_cell_volume 1931.729716
_symmetry_space_group_name_H-M "P 41 2 2"
_symmetry_group_IT_number 91
_symmetry_cell_setting 'tetragonal'
loop_
_space_group_symop_operation_xyz
x,y,z
-y,x,1/4+z
-x,-y,1/2+z
y,-x,3/4+z
x,-y,1/2-z
-x,y,-z
y,x,3/4-z
-y,-x,1/4-z
loop_
_atom_site_type_symbol
_atom_site_label
_atom_site_fract_x
_atom_site_fract_y
_atom_site_fract_z
Si Si1 0.620452 0.085092 0.945002
Si Si2 0.163949 0.521249 0.002132
Si Si3 0.675439 0.293267 0.238356
Si Si4 0.388148 0.363365 0.560317
Si Si5 0.319208 0.157000 0.434143
O O1 0.583833 0.090055 0.829771
O O2 0.690184 0.971972 0.964284
O O3 0.500000 0.085221 0.000000
O O4 0.689822 0.195122 0.978036
O O5 0.171479 0.386516 0.995904
O O6 0.287424 0.556918 0.967487
O O7 0.155143 0.574275 0.109673
O O8 0.669461 0.330540 0.125000
O O9 0.611366 0.364397 0.322526
O O10 0.500000 0.387862 0.500000
O O11 0.348886 0.240121 0.522784
O O12 0.216417 0.216417 0.375000
#
# Coordination Sequence:
#
# PCOD9547863 Si02
#       5
#     8   8   8   8   8
#     4  11  22  36  60  93 129 171 210 259 329 394
#     4  10  21  37  60  88 129 167 206 260 322 387
#     4  11  22  38  54  91 139 165 204 257 330 400
#     4  10  20  35  59  88 121 168 213 255 313 388
#     4  10  21  40  62  92 117 161 225 278 310 368
#
# _framework density 20.70683
#
# number of rings (size 3 to 8) (size 9 to 14) (size 15 to 20)
#    0.000    1.600    4.000    1.200    0.000    0.800 
#    0.000    1.000    0.000    0.000    0.000   61.600 
#    0.000    0.000    0.000    0.000    0.000    0.000 
#
# Total GULP energy -222970.480592 kJ/mol
# GULP energy per Si atom -5574.262015 kJ/mol
# Density = 2.065970 g / cm^3
# Si number density = 20.706830 Si / 1000 Ang^3
#
#
#
# Elastic Constant Matrix: (Units=GPa)
#
#
# Indices 1 2 3 4 5 6 
#
# 1 109.7708 22.0031 17.4782 0.0000 0.0000 0.0000
# 2 22.0031 109.7711 17.4783 0.0000 0.0000 0.0000
# 3 17.4782 17.4783 120.4323 0.0000 0.0000 0.0000
# 4 0.0000 0.0000 0.0000 17.4459 0.0000 0.0000
# 5 0.0000 0.0000 0.0000 0.0000 17.4457 0.0000
# 6 0.0000 0.0000 0.0000 0.0000 0.0000 8.9182
#
#
#
# Elastic Compliance Matrix: (Units=1/GPa)
#
#
# Indices 1 2 3 4 5 6 
#
# 1 0.009643 -0.001751 -0.001145 0.000000 0.000000 0.000000
# 2 -0.001751 0.009643 -0.001145 0.000000 0.000000 0.000000
# 3 -0.001145 -0.001145 0.008636 0.000000 0.000000 0.000000
# 4 0.000000 0.000000 0.000000 0.057320 0.000000 0.000000
# 5 0.000000 0.000000 0.000000 0.000000 0.057321 0.000000
# 6 0.000000 0.000000 0.000000 0.000000 0.000000 0.112130
#
#
# Mechanical properties :
#
#
# Convention : Reuss Voigt Hill
#
# Bulk Modulus (GPa) = 50.40494 50.43258 50.41876
# Shear Modulus (GPa) = 18.56053 27.62961 23.09507
#
# Velocity S-wave (km/s) = 2.99716 3.65680 3.34329
# Velocity P-wave (km/s) = 6.03094 6.49908 6.26938
#
# Compressibility (1/GPa) = 0.01983933
#
# Stress axis : x y z
#
# Youngs Moduli (GPa) = 103.70040 103.70065 115.79573
#
# Poissons Ratio (x) = 0.18153 0.13264
# Poissons Ratio (y) = 0.18153 0.13264
# Poissons Ratio (z) = 0.11878 0.11878
#
# Static dielectric constant tensor:
#      x y z
#    x 1.819790 0.000000 0.000000 
#    y 0.000000 1.819790 0.000000 
#    z 0.000000 0.000000 1.836870 
# 
# From -- ./inp_files/11336.got.cif
#   From: 2010.05.17/outbox.cif.g08.bks.cpg/sg91_6_cif.got.tgz:11336.got - 2010.06.03 19:20:03.
