data_PCOD9547525
_publ_section_title
;
Structure prediction by ZEFSAII (Michael W. Deem and Ramdas Pophale) SiO2 
 PCOD9547525
Probable space group: P 41 2 2
;
_chemical_formula_sum "Si O2"
_cell_formula_units_Z 56
_cell_length_a 16.775066
_cell_length_b 16.775066
_cell_length_c 11.035865
_cell_angle_alpha 90.000000
_cell_angle_beta 90.000000
_cell_angle_gamma 90.000000
_cell_volume 3105.523745
_symmetry_space_group_name_H-M "P 41 2 2"
_symmetry_group_IT_number 91
_symmetry_cell_setting 'tetragonal'
loop_
_space_group_symop_operation_xyz
x,y,z
-y,x,1/4+z
-x,-y,1/2+z
y,-x,3/4+z
x,-y,1/2-z
-x,y,-z
y,x,3/4-z
-y,-x,1/4-z
loop_
_atom_site_type_symbol
_atom_site_label
_atom_site_fract_x
_atom_site_fract_y
_atom_site_fract_z
Si Si1 0.562595 0.066831 0.145015
Si Si2 0.850595 0.690973 0.517709
Si Si3 0.860463 0.860463 0.875000
Si Si4 0.365592 0.066914 0.501926
Si Si5 0.094301 0.389322 0.512462
Si Si6 0.010548 0.189146 0.738141
Si Si7 0.827738 0.233915 0.379937
Si Si8 0.000000 0.189269 0.000000
O O1 0.628184 0.136747 0.159059
O O2 0.475194 0.099636 0.174508
O O3 0.577333 0.000000 0.250000
O O4 0.580167 0.010165 0.030714
O O5 0.871848 0.639740 0.637289
O O6 0.776304 0.746588 0.553303
O O7 0.922411 0.753934 0.496854
O O8 0.817238 0.825512 0.755280
O O9 0.954255 0.848004 0.862476
O O10 0.391095 0.112647 0.380960
O O11 0.278037 0.027102 0.496798
O O12 0.144013 0.321704 0.580367
O O13 0.000000 0.366602 0.500000
O O14 0.101124 0.196544 0.699402
O O15 0.999854 0.148037 0.869327
#
# Coordination Sequence:
#
# PCOD9547525 Si02
#       8
#     8   8   4   8   8   8   8   4
#     4   9  19  32  49  70 102 134 175 216 269 329
#     4  10  18  33  54  70  98 139 176 216 271 321
#     4  12  20  36  54  74 104 136 172 230 276 308
#     4  10  17  35  50  71 101 135 172 215 264 324
#     4  11  20  31  49  81 101 131 178 223 275 323
#     4  11  21  35  55  71 100 134 181 218 270 321
#     4  12  21  34  56  77 102 134 185 228 272 327
#     4  10  18  38  50  74  94 132 176 218 266 312
#
# _framework density 18.032384
#
# number of rings (size 3 to 8) (size 9 to 14) (size 15 to 20)
#    0.000    1.429    9.286    0.429    0.000    5.714 
#    0.000    0.000    3.143    0.000    0.000    0.000 
#    0.000    0.000    0.000    0.000   59.714    0.143 
#
# Total GULP energy -312230.379396 kJ/mol
# GULP energy per Si atom -5575.542489 kJ/mol
# Density = 1.799134 g / cm^3
# Si number density = 18.032384 Si / 1000 Ang^3
#
#
#
# Elastic Constant Matrix: (Units=GPa)
#
#
# Indices 1 2 3 4 5 6 
#
# 1 83.3743 36.9302 13.7643 0.0000 0.0000 0.0000
# 2 36.9302 83.3743 13.7643 0.0000 0.0000 0.0000
# 3 13.7643 13.7643 44.5612 0.0000 0.0000 0.0000
# 4 0.0000 0.0000 0.0000 14.2437 0.0000 0.0000
# 5 0.0000 0.0000 0.0000 0.0000 14.2437 0.0000
# 6 0.0000 0.0000 0.0000 0.0000 0.0000 13.6185
#
#
#
# Elastic Compliance Matrix: (Units=1/GPa)
#
#
# Indices 1 2 3 4 5 6 
#
# 1 0.015238 -0.006293 -0.002763 0.000000 0.000000 0.000000
# 2 -0.006293 0.015238 -0.002763 0.000000 0.000000 0.000000
# 3 -0.002763 -0.002763 0.024148 0.000000 0.000000 0.000000
# 4 0.000000 0.000000 0.000000 0.070206 0.000000 0.000000
# 5 0.000000 0.000000 0.000000 0.000000 0.070206 0.000000
# 6 0.000000 0.000000 0.000000 0.000000 0.000000 0.073430
#
#
# Mechanical properties :
#
#
# Convention : Reuss Voigt Hill
#
# Bulk Modulus (GPa) = 32.27315 37.80303 35.03809
# Shear Modulus (GPa) = 16.53259 18.21123 17.37191
#
# Velocity S-wave (km/s) = 3.03120 3.18137 3.10719
# Velocity P-wave (km/s) = 5.49428 5.87403 5.68733
#
# Compressibility (1/GPa) = 0.03098551
#
# Stress axis : x y z
#
# Youngs Moduli (GPa) = 65.62599 65.62599 41.41157
#
# Poissons Ratio (x) = 0.41301 0.11441
# Poissons Ratio (y) = 0.41301 0.11441
# Poissons Ratio (z) = 0.18131 0.18131
#
# Static dielectric constant tensor:
#      x y z
#    x 1.646000 0.000000 0.000000 
#    y 0.000000 1.646000 0.000000 
#    z 0.000000 0.000000 1.802710 
# 
# From -- ./inp_files/4027.got.cif
#   From: 2010.05.17/outbox.cif.g08.bks.cpg/sg91_3_cif.got.tgz:4027.got - 2010.06.03 19:20:03.
