data_PCOD9547632
_publ_section_title
;
Structure prediction by ZEFSAII (Michael W. Deem and Ramdas Pophale) SiO2 
 PCOD9547632
Probable space group: P 41 2 2
;
_chemical_formula_sum "Si O2"
_cell_formula_units_Z 36
_cell_length_a 8.584909
_cell_length_b 8.584909
_cell_length_c 25.111564
_cell_angle_alpha 90.000000
_cell_angle_beta 90.000000
_cell_angle_gamma 90.000000
_cell_volume 1850.738904
_symmetry_space_group_name_H-M "P 41 2 2"
_symmetry_group_IT_number 91
_symmetry_cell_setting 'tetragonal'
loop_
_space_group_symop_operation_xyz
x,y,z
-y,x,1/4+z
-x,-y,1/2+z
y,-x,3/4+z
x,-y,1/2-z
-x,y,-z
y,x,3/4-z
-y,-x,1/4-z
loop_
_atom_site_type_symbol
_atom_site_label
_atom_site_fract_x
_atom_site_fract_y
_atom_site_fract_z
Si Si1 0.629692 0.370309 0.625000
Si Si2 0.000000 0.947749 0.500000
Si Si3 0.763832 0.185733 0.533384
Si Si4 0.754189 0.256940 0.187757
Si Si5 0.594296 0.364193 0.795236
Si Si6 0.958120 0.500000 0.250000
O O1 0.745879 0.318568 0.577813
O O2 0.457325 0.361584 0.599146
O O3 0.116105 0.837193 0.531859
O O4 0.094400 0.067520 0.462521
O O5 0.752493 0.274283 0.476557
O O6 0.613646 0.072371 0.532666
O O7 0.766351 0.233650 0.125000
O O8 0.572234 0.282892 0.200201
O O9 0.849243 0.405970 0.209489
O O10 0.582399 0.500000 0.750000
#
# Coordination Sequence:
#
# PCOD9547632 Si02
#       6
#     4   4   8   8   8   4
#     4  10  18  36  68  92 114 154 224 258 312 364
#     4  10  26  44  56  92 144 164 208 256 320 408
#     4  10  21  42  62  91 125 168 207 264 319 373
#     4  11  23  42  65  94 129 173 212 263 336 379
#     4  10  19  38  65  96 117 153 215 274 301 366
#     4  10  20  42  62  86 134 162 202 278 316 384
#
# _framework density 19.451689999999999
#
# number of rings (size 3 to 8) (size 9 to 14) (size 15 to 20)
#    0.000    1.778    5.556    0.000    1.556    0.889 
#   12.000    2.222    0.000    0.000    0.000    0.000 
#    0.000    0.000    0.000    0.000    0.000    0.000 
#
# Total GULP energy -200669.490537 kJ/mol
# GULP energy per Si atom -5574.152515 kJ/mol
# Density = 1.940742 g / cm^3
# Si number density = 19.451690 Si / 1000 Ang^3
#
#
#
# Elastic Constant Matrix: (Units=GPa)
#
#
# Indices 1 2 3 4 5 6 
#
# 1 98.6969 60.3814 35.1148 0.0000 0.0000 0.0000
# 2 60.3814 98.6972 35.1152 0.0000 0.0000 0.0000
# 3 35.1148 35.1152 92.8930 0.0000 0.0000 0.0000
# 4 0.0000 0.0000 0.0000 6.1516 0.0000 0.0000
# 5 0.0000 0.0000 0.0000 0.0000 6.1513 0.0000
# 6 0.0000 0.0000 0.0000 0.0000 0.0000 30.4572
#
#
#
# Elastic Compliance Matrix: (Units=1/GPa)
#
#
# Indices 1 2 3 4 5 6 
#
# 1 0.016822 -0.009277 -0.002852 0.000000 0.000000 0.000000
# 2 -0.009277 0.016822 -0.002852 0.000000 0.000000 0.000000
# 3 -0.002852 -0.002852 0.012921 0.000000 0.000000 0.000000
# 4 0.000000 0.000000 0.000000 0.162560 0.000000 0.000000
# 5 0.000000 0.000000 0.000000 0.000000 0.162568 0.000000
# 6 0.000000 0.000000 0.000000 0.000000 0.000000 0.032833
#
#
# Mechanical properties :
#
#
# Convention : Reuss Voigt Hill
#
# Bulk Modulus (GPa) = 60.22934 61.27886 60.75410
# Shear Modulus (GPa) = 11.36302 19.19706 15.28004
#
# Velocity S-wave (km/s) = 2.41957 3.14492 2.80579
# Velocity P-wave (km/s) = 6.23190 6.69021 6.46511
#
# Compressibility (1/GPa) = 0.01660320
#
# Stress axis : x y z
#
# Youngs Moduli (GPa) = 59.44525 59.44527 77.39046
#
# Poissons Ratio (x) = 0.55146 0.22074
# Poissons Ratio (y) = 0.55146 0.22074
# Poissons Ratio (z) = 0.16955 0.16956
#
# Static dielectric constant tensor:
#      x y z
#    x 1.704360 0.000000 0.000000 
#    y 0.000000 1.704360 0.000000 
#    z 0.000000 0.000000 1.692170 
# 
# From -- ./inp_files/13112.got.cif
#   From: 2010.05.17/outbox.cif.g08.bks.cpg/sg91_7_cif.got.tgz:13112.got - 2010.06.03 19:20:03.
