data_PCOD9547316
_publ_section_title
;
Structure prediction by ZEFSAII (Michael W. Deem and Ramdas Pophale) SiO2 
 PCOD9547316
Probable space group: P 4 21 2
;
_chemical_formula_sum "Si O2"
_cell_formula_units_Z 48
_cell_length_a 7.997355
_cell_length_b 7.997355
_cell_length_c 33.105261
_cell_angle_alpha 90.000000
_cell_angle_beta 90.000000
_cell_angle_gamma 90.000000
_cell_volume 2117.335921
_symmetry_space_group_name_H-M "P 4 21 2"
_symmetry_group_IT_number 90
_symmetry_cell_setting 'tetragonal'
loop_
_space_group_symop_operation_xyz
x,y,z
1/2-y,1/2+x,z
-x,-y,z
1/2+y,1/2-x,z
1/2+x,1/2-y,-z
1/2-x,1/2+y,-z
y,x,-z
-y,-x,-z
loop_
_atom_site_type_symbol
_atom_site_label
_atom_site_fract_x
_atom_site_fract_y
_atom_site_fract_z
Si Si1 0.735118 0.396372 0.713263
Si Si2 0.907050 0.766397 0.540023
Si Si3 0.897540 0.765691 0.626929
Si Si4 0.765849 0.901423 0.199175
Si Si5 0.917717 0.768262 0.960418
Si Si6 0.266814 0.585507 0.118778
O O1 0.793370 0.590438 0.713273
O O2 0.648364 0.362198 0.670113
O O3 0.653160 0.366022 0.756785
O O4 0.796005 0.597684 0.539105
O O5 0.867285 0.867285 0.500000
O O6 0.868559 0.850728 0.583572
O O7 0.793843 0.591428 0.626940
O O8 0.593708 0.794362 0.197061
O O9 0.876631 0.854036 0.161217
O O10 0.799227 0.605063 0.961155
O O11 0.877672 0.864542 0.919345
O O12 0.872224 0.872224 0.000000
O O13 0.202310 0.397328 0.116623
#
# Coordination Sequence:
#
# PCOD9547316 Si02
#       6
#     8   8   8   8   8   8
#     4   7  10  19  39  67  94 116 144 190 244 291
#     4   9  17  28  43  64  89 118 154 194 237 288
#     4   7  10  19  37  61  87 114 146 188 237 285
#     4   9  17  30  51  79 104 125 156 201 252 302
#     4  11  24  41  62  88 114 139 171 210 251 296
#     4  11  24  39  54  75 105 142 181 213 242 284
#
# _framework density 22.669998
#
# number of rings (size 3 to 8) (size 9 to 14) (size 15 to 20)
#    0.000    3.000    0.000    5.000    0.000    7.333 
#    0.000    0.000    0.000    2.000    0.000   11.667 
#    0.000    0.000    0.000    0.000    0.000    0.000 
#
# Total GULP energy -268224.701456 kJ/mol
# GULP energy per Si atom -5588.014614 kJ/mol
# Density = 2.261840 g / cm^3
# Si number density = 22.669998 Si / 1000 Ang^3
#
#
#
# Elastic Constant Matrix: (Units=GPa)
#
#
# Indices 1 2 3 4 5 6 
#
# 1 56.0883 38.5071 53.8628 0.0000 0.0000 0.0000
# 2 38.5071 56.0883 53.8628 0.0000 0.0000 0.0000
# 3 53.8628 53.8628 275.2424 0.0000 0.0000 0.0000
# 4 0.0000 0.0000 0.0000 46.1427 0.0000 0.0000
# 5 0.0000 0.0000 0.0000 0.0000 46.1427 0.0000
# 6 0.0000 0.0000 0.0000 0.0000 0.0000 29.8169
#
#
#
# Elastic Compliance Matrix: (Units=1/GPa)
#
#
# Indices 1 2 3 4 5 6 
#
# 1 0.035241 -0.021638 -0.002662 0.000000 0.000000 0.000000
# 2 -0.021638 0.035241 -0.002662 0.000000 0.000000 0.000000
# 3 -0.002662 -0.002662 0.004675 0.000000 0.000000 0.000000
# 4 0.000000 0.000000 0.000000 0.021672 0.000000 0.000000
# 5 0.000000 0.000000 0.000000 0.000000 0.021672 0.000000
# 6 0.000000 0.000000 0.000000 0.000000 0.000000 0.033538
#
#
# Mechanical properties :
#
#
# Convention : Reuss Voigt Hill
#
# Bulk Modulus (GPa) = 47.09707 75.54272 61.31989
# Shear Modulus (GPa) = 23.46973 40.49956 31.98465
#
# Velocity S-wave (km/s) = 3.22106 4.23127 3.76024
# Velocity P-wave (km/s) = 5.88675 7.56747 6.77940
#
# Compressibility (1/GPa) = 0.02123275
#
# Stress axis : x y z
#
# Youngs Moduli (GPa) = 28.37610 28.37610 213.90324
#
# Poissons Ratio (x) = 0.61401 0.56940
# Poissons Ratio (y) = 0.61401 0.56940
# Poissons Ratio (z) = 0.07554 0.07554
#
# Static dielectric constant tensor:
#      x y z
#    x 1.841480 0.000000 0.000000 
#    y 0.000000 1.841480 0.000000 
#    z 0.000000 0.000000 1.878260 
# 
# From -- ./inp_files/3047.got.cif
#   From: 2010.05.17/outbox.cif.g08.bks.cpg/sg90_2_cif.got.tgz:3047.got - 2010.06.03 19:17:45.
