data_PCOD9547243
_publ_section_title
;
Structure prediction by ZEFSAII (Michael W. Deem and Ramdas Pophale) SiO2 
 PCOD9547243
Probable space group: P 4 21 2
;
_chemical_formula_sum "Si O2"
_cell_formula_units_Z 40
_cell_length_a 13.639435
_cell_length_b 13.639435
_cell_length_c 9.262205
_cell_angle_alpha 90.000000
_cell_angle_beta 90.000000
_cell_angle_gamma 90.000000
_cell_volume 1723.086778
_symmetry_space_group_name_H-M "P 4 21 2"
_symmetry_group_IT_number 90
_symmetry_cell_setting 'tetragonal'
loop_
_space_group_symop_operation_xyz
x,y,z
1/2-y,1/2+x,z
-x,-y,z
1/2+y,1/2-x,z
1/2+x,1/2-y,-z
1/2-x,1/2+y,-z
y,x,-z
-y,-x,-z
loop_
_atom_site_type_symbol
_atom_site_label
_atom_site_fract_x
_atom_site_fract_y
_atom_site_fract_z
Si Si1 0.267552 0.918410 0.313027
Si Si2 0.000000 0.500000 0.001491
Si Si3 0.401682 0.598319 0.000000
Si Si4 0.000000 0.000000 0.500000
Si Si5 0.555695 0.843296 0.635688
Si Si6 0.814709 0.405375 0.874335
Si Si7 0.366126 0.449830 0.255662
O O1 0.296608 0.915612 0.479922
O O2 0.306087 0.830321 0.213928
O O3 0.153145 0.921314 0.278363
O O4 0.324604 0.011234 0.248240
O O5 0.070849 0.400801 0.987613
O O6 0.409075 0.706280 0.067229
O O7 0.398818 0.512711 0.119187
O O8 0.005069 0.095628 0.398598
O O9 0.442623 0.880334 0.649663
O O10 0.567317 0.750598 0.741605
#
# Coordination Sequence:
#
# PCOD9547243 Si02
#       7
#     8   2   4   2   8   8   8
#     4  11  21  44  77 109 144 199 267 325 399 471
#     4   8  20  44  72 104 138 188 268 308 366 472
#     4  12  30  49  70 108 162 213 254 328 412 489
#     4  12  24  46  76 108 140 194 262 326 392 454
#     4  11  24  46  79 115 153 199 264 338 402 470
#     4  10  23  42  75 108 144 202 256 323 390 482
#     4  12  28  48  73 114 154 209 259 331 401 490
#
# _framework density 23.214154000000001
#
# number of rings (size 3 to 8) (size 9 to 14) (size 15 to 20)
#    0.000    1.000    4.000    1.200    2.800    6.800 
#    0.000    0.000    0.000    0.000    0.000    0.000 
#    0.000    0.000    0.000    0.000    0.000    0.000 
#
# Total GULP energy -223026.430498 kJ/mol
# GULP energy per Si atom -5575.660762 kJ/mol
# Density = 2.316132 g / cm^3
# Si number density = 23.214154 Si / 1000 Ang^3
#
#
#
# Elastic Constant Matrix: (Units=GPa)
#
#
# Indices 1 2 3 4 5 6 
#
# 1 97.6460 38.4341 34.3022 0.0000 0.0000 0.0000
# 2 38.4341 97.6454 34.3038 0.0000 0.0000 0.0000
# 3 34.3022 34.3038 90.1633 0.0000 0.0000 0.0000
# 4 0.0000 0.0000 0.0000 24.5131 0.0000 0.0000
# 5 0.0000 0.0000 0.0000 0.0000 24.5117 0.0000
# 6 0.0000 0.0000 0.0000 0.0000 0.0000 30.3792
#
#
#
# Elastic Compliance Matrix: (Units=1/GPa)
#
#
# Indices 1 2 3 4 5 6 
#
# 1 0.012991 -0.003898 -0.003459 0.000000 0.000000 0.000000
# 2 -0.003898 0.012991 -0.003460 0.000000 0.000000 0.000000
# 3 -0.003459 -0.003460 0.013723 0.000000 0.000000 0.000000
# 4 0.000000 0.000000 0.000000 0.040794 0.000000 0.000000
# 5 0.000000 0.000000 0.000000 0.000000 0.040797 0.000000
# 6 0.000000 0.000000 0.000000 0.000000 0.000000 0.032917
#
#
# Mechanical properties :
#
#
# Convention : Reuss Voigt Hill
#
# Bulk Modulus (GPa) = 55.33661 55.50387 55.42024
# Shear Modulus (GPa) = 27.49215 27.77512 27.63363
#
# Velocity S-wave (km/s) = 3.44508 3.46276 3.45393
# Velocity P-wave (km/s) = 6.30190 6.32052 6.31122
#
# Compressibility (1/GPa) = 0.01807122
#
# Stress axis : x y z
#
# Youngs Moduli (GPa) = 76.97929 76.97765 72.86910
#
# Poissons Ratio (x) = 0.30005 0.25207
# Poissons Ratio (y) = 0.30006 0.25209
# Poissons Ratio (z) = 0.26628 0.26631
#
# Static dielectric constant tensor:
#      x y z
#    x 1.884370 0.000000 0.000000 
#    y 0.000000 1.884370 0.000000 
#    z 0.000000 0.000000 1.981570 
# 
# From -- ./inp_files/1405.got.cif
#   From: 2010.05.17/outbox.cif.g08.bks.cpg/sg90_1_cif.got.tgz:1405.got - 2010.06.03 19:17:45.
