data_PCOD9547345
_publ_section_title
;
Structure prediction by ZEFSAII (Michael W. Deem and Ramdas Pophale) SiO2 
 PCOD9547345
Probable space group: P 4 21 2
;
_chemical_formula_sum "Si O2"
_cell_formula_units_Z 40
_cell_length_a 8.726144
_cell_length_b 8.726144
_cell_length_c 22.406837
_cell_angle_alpha 90.000000
_cell_angle_beta 90.000000
_cell_angle_gamma 90.000000
_cell_volume 1706.181803
_symmetry_space_group_name_H-M "P 4 21 2"
_symmetry_group_IT_number 90
_symmetry_cell_setting 'tetragonal'
loop_
_space_group_symop_operation_xyz
x,y,z
1/2-y,1/2+x,z
-x,-y,z
1/2+y,1/2-x,z
1/2+x,1/2-y,-z
1/2-x,1/2+y,-z
y,x,-z
-y,-x,-z
loop_
_atom_site_type_symbol
_atom_site_label
_atom_site_fract_x
_atom_site_fract_y
_atom_site_fract_z
Si Si1 0.252921 0.075008 0.286218
Si Si2 0.732799 0.931310 0.635307
Si Si3 0.024391 0.733634 0.503420
Si Si4 0.756380 0.412291 0.185553
Si Si5 0.918594 0.744354 0.048500
O O1 0.404128 0.182480 0.285574
O O2 0.145720 0.112096 0.343240
O O3 0.148327 0.128732 0.230762
O O4 0.598477 0.817423 0.658027
O O5 0.720393 0.960919 0.564767
O O6 0.158211 0.626544 0.531937
O O7 0.104530 0.895471 0.500000
O O8 0.811294 0.588122 0.193759
O O9 0.703704 0.397340 0.116905
O O10 0.813866 0.592151 0.041147
O O11 0.866373 0.866373 0.000000
#
# Coordination Sequence:
#
# PCOD9547345 Si02
#       5
#     8   8   8   8   8
#     4  11  24  39  57  89 126 156 196 253 311 363
#     4   9  19  39  63  89 119 154 197 239 286 353
#     4   9  19  39  64  94 127 158 197 241 287 346
#     4   9  19  37  60  84 114 157 208 257 308 372
#     4   9  19  35  54  80 116 158 205 257 311 368
#
# _framework density 23.444158000000002
#
# number of rings (size 3 to 8) (size 9 to 14) (size 15 to 20)
#    0.000    2.600    0.000    3.600    0.000    7.200 
#    0.000   26.000    0.000    9.600    0.000    0.000 
#    0.000    0.000    0.000    0.000    0.000    0.000 
#
# Total GULP energy -223100.219495 kJ/mol
# GULP energy per Si atom -5577.505487 kJ/mol
# Density = 2.339080 g / cm^3
# Si number density = 23.444158 Si / 1000 Ang^3
#
#
#
# Elastic Constant Matrix: (Units=GPa)
#
#
# Indices 1 2 3 4 5 6 
#
# 1 46.1393 86.3819 10.2284 0.0000 0.0000 0.0000
# 2 86.3819 46.1358 10.2263 0.0000 0.0000 0.0000
# 3 10.2284 10.2263 71.2305 0.0000 0.0000 0.0000
# 4 0.0000 0.0000 0.0000 -2.1078 0.0000 0.0000
# 5 0.0000 0.0000 0.0000 0.0000 -2.1065 0.0000
# 6 0.0000 0.0000 0.0000 0.0000 0.0000 67.6240
#
#
#
# Elastic Compliance Matrix: (Units=1/GPa)
#
#
# Indices 1 2 3 4 5 6 
#
# 1 -0.008565 0.016283 -0.001108 0.000000 0.000000 0.000000
# 2 0.016283 -0.008566 -0.001108 0.000000 0.000000 0.000000
# 3 -0.001108 -0.001108 0.014357 0.000000 0.000000 0.000000
# 4 0.000000 0.000000 0.000000 -0.474436 0.000000 0.000000
# 5 0.000000 0.000000 0.000000 0.000000 -0.474724 0.000000
# 6 0.000000 0.000000 0.000000 0.000000 0.000000 0.014788
#
#
# Mechanical properties :
#
#
# Convention : Reuss Voigt Hill
#
# Bulk Modulus (GPa) = 39.43345 41.90875 40.67110
# Shear Modulus (GPa) = -5.22561 16.45989 5.61714
#
# Velocity S-wave (km/s) = -1.49459 2.65257 1.54957
# Velocity P-wave (km/s) = 3.72536 5.22459 4.53732
#
# Compressibility (1/GPa) = 0.02535918
#
# Stress axis : x y z
#
# Youngs Moduli (GPa) = -116.75012 -116.74258 69.65187
#
# Poissons Ratio (x) = 1.90088 0.07715
# Poissons Ratio (y) = 1.90100 0.07720
# Poissons Ratio (z) = -0.12933 -0.12939
#
# Static dielectric constant tensor:
#      x y z
#    x 1.950880 0.000000 0.000000 
#    y 0.000000 1.950880 0.000000 
#    z 0.000000 0.000000 1.914440 
# 
# From -- ./inp_files/2880.got.cif
#   From: 2010.05.17/outbox.cif.g08.bks.cpg/sg90_2_cif.got.tgz:2880.got - 2010.06.03 19:17:45.
