data_PCOD9547113
_publ_section_title
;
Structure prediction by ZEFSAII (Michael W. Deem and Ramdas Pophale) SiO2 
 PCOD9547113
Probable space group: P 4 21 2
;
_chemical_formula_sum "Si O2"
_cell_formula_units_Z 38
_cell_length_a 8.436963
_cell_length_b 8.436963
_cell_length_c 26.925676
_cell_angle_alpha 90.000000
_cell_angle_beta 90.000000
_cell_angle_gamma 90.000000
_cell_volume 1916.632749
_symmetry_space_group_name_H-M "P 4 21 2"
_symmetry_group_IT_number 90
_symmetry_cell_setting 'tetragonal'
loop_
_space_group_symop_operation_xyz
x,y,z
1/2-y,1/2+x,z
-x,-y,z
1/2+y,1/2-x,z
1/2+x,1/2-y,-z
1/2-x,1/2+y,-z
y,x,-z
-y,-x,-z
loop_
_atom_site_type_symbol
_atom_site_label
_atom_site_fract_x
_atom_site_fract_y
_atom_site_fract_z
Si Si1 0.589810 0.252777 0.863662
Si Si2 0.739674 0.544480 0.589550
Si Si3 0.254419 0.584213 0.954193
Si Si4 0.500000 0.500000 0.327409
Si Si5 0.000000 0.000000 0.500000
Si Si6 0.580391 0.253994 0.750801
O O1 0.408422 0.194142 0.869805
O O2 0.651302 0.375648 0.903993
O O3 0.605129 0.313026 0.807133
O O4 0.824779 0.375042 0.593267
O O5 0.620363 0.581214 0.634446
O O6 0.645487 0.526110 0.537974
O O7 0.193029 0.404400 0.956338
O O8 0.363979 0.636022 0.000000
O O9 0.384158 0.597489 0.291351
O O10 0.399889 0.190791 0.745877
#
# Coordination Sequence:
#
# PCOD9547113 Si02
#       6
#     8   8   8   4   2   8
#     4   9  19  36  57  80 106 138 178 223 269 319
#     4  10  21  36  54  81 115 146 184 234 280 324
#     4  11  24  39  56  81 110 139 176 221 270 329
#     4  11  20  33  56  82 109 148 185 220 276 334
#     4  10  20  36  60  80 104 152 198 228 274 332
#     4   9  19  35  54  78 108 142 183 227 268 322
#
# _framework density 19.826440000000002
#
# number of rings (size 3 to 8) (size 9 to 14) (size 15 to 20)
#    0.000    2.105    0.000    4.421    0.000    8.000 
#    0.000    0.000    0.000   12.632    0.000    0.000 
#    0.000    0.000    0.000    0.000    0.000    0.000 
#
# Total GULP energy -212155.224321 kJ/mol
# GULP energy per Si atom -5583.032219 kJ/mol
# Density = 1.978131 g / cm^3
# Si number density = 19.826440 Si / 1000 Ang^3
#
#
#
# Elastic Constant Matrix: (Units=GPa)
#
#
# Indices 1 2 3 4 5 6 
#
# 1 50.6787 0.4444 31.2057 0.0000 0.0000 0.0000
# 2 0.4444 50.6793 31.2062 0.0000 0.0000 0.0000
# 3 31.2057 31.2062 133.2038 0.0000 0.0000 0.0000
# 4 0.0000 0.0000 0.0000 -16.0437 0.0000 0.0000
# 5 0.0000 0.0000 0.0000 0.0000 -16.0355 0.0000
# 6 0.0000 0.0000 0.0000 0.0000 0.0000 14.0735
#
#
#
# Elastic Compliance Matrix: (Units=1/GPa)
#
#
# Indices 1 2 3 4 5 6 
#
# 1 0.023651 0.003745 -0.006418 0.000000 0.000000 0.000000
# 2 0.003745 0.023651 -0.006418 0.000000 0.000000 0.000000
# 3 -0.006418 -0.006418 0.010514 0.000000 0.000000 0.000000
# 4 0.000000 0.000000 0.000000 -0.062330 0.000000 0.000000
# 5 0.000000 0.000000 0.000000 0.000000 -0.062362 0.000000
# 6 0.000000 0.000000 0.000000 0.000000 0.000000 0.071056
#
#
# Mechanical properties :
#
#
# Convention : Reuss Voigt Hill
#
# Bulk Modulus (GPa) = 25.23107 40.03047 32.63077
# Shear Modulus (GPa) = 140.54721 7.84590 74.19655
#
# Velocity S-wave (km/s) = 8.42868 1.99145 6.12407
# Velocity P-wave (km/s) = 10.36712 5.05194 8.15473
#
# Compressibility (1/GPa) = 0.03963367
#
# Stress axis : x y z
#
# Youngs Moduli (GPa) = 42.28108 42.28139 95.10735
#
# Poissons Ratio (x) = -0.15833 0.61040
# Poissons Ratio (y) = -0.15832 0.61041
# Poissons Ratio (z) = 0.27136 0.27136
#
# Static dielectric constant tensor:
#      x y z
#    x 1.757120 0.000000 0.000000 
#    y 0.000000 1.757120 0.000000 
#    z 0.000000 0.000000 1.673170 
# 
# From -- ./inp_files/2913.got.cif
#   From: 2010.05.17/outbox.cif.g08.bks.cpg/sg90_2_cif.got.tgz:2913.got - 2010.06.03 19:17:45.
