data_PCOD9547422
_publ_section_title
;
Structure prediction by ZEFSAII (Michael W. Deem and Ramdas Pophale) SiO2 
 PCOD9547422
Probable space group: P 4 21 2
;
_chemical_formula_sum "Si O2"
_cell_formula_units_Z 38
_cell_length_a 8.490415
_cell_length_b 8.490415
_cell_length_c 24.681756
_cell_angle_alpha 90.000000
_cell_angle_beta 90.000000
_cell_angle_gamma 90.000000
_cell_volume 1779.237370
_symmetry_space_group_name_H-M "P 4 21 2"
_symmetry_group_IT_number 90
_symmetry_cell_setting 'tetragonal'
loop_
_space_group_symop_operation_xyz
x,y,z
1/2-y,1/2+x,z
-x,-y,z
1/2+y,1/2-x,z
1/2+x,1/2-y,-z
1/2-x,1/2+y,-z
y,x,-z
-y,-x,-z
loop_
_atom_site_type_symbol
_atom_site_label
_atom_site_fract_x
_atom_site_fract_y
_atom_site_fract_z
Si Si1 0.092946 0.741426 0.828758
Si Si2 0.922565 0.753843 0.453424
Si Si3 0.754353 0.921922 0.669409
Si Si4 0.000000 0.500000 0.074229
Si Si5 0.500000 0.500000 0.246625
Si Si6 0.841709 0.102535 0.940504
O O1 0.195613 0.588156 0.817572
O O2 0.112932 0.895274 0.791760
O O3 0.126441 0.779982 0.891182
O O4 0.811427 0.599435 0.458502
O O5 0.872708 0.872708 0.500000
O O6 0.902463 0.815104 0.392093
O O7 0.601223 0.810998 0.675336
O O8 0.889643 0.898699 0.713334
O O9 0.193247 0.507177 0.072607
O O10 0.821459 0.178542 0.000000
O O11 0.000000 0.000000 0.942605
#
# Coordination Sequence:
#
# PCOD9547422 Si02
#       6
#     8   8   8   2   4   8
#     4  11  25  44  66  94 135 173 212 284 354 399
#     4   9  19  35  56  86 122 156 198 250 313 378
#     4   9  20  39  60  86 123 164 207 265 321 379
#     4  12  28  44  80 108 136 196 240 272 356 462
#     4  12  22  40  64  92 118 168 230 268 318 410
#     4  11  26  46  70 108 143 177 233 288 347 427
#
# _framework density 21.357462999999999
#
# number of rings (size 3 to 8) (size 9 to 14) (size 15 to 20)
#    0.000    1.684    1.053    3.789    5.895    3.789 
#    0.000    0.000    0.000    2.526    0.000    0.000 
#    0.000    0.000    0.000    0.000    0.000    0.000 
#
# Total GULP energy -211818.932167 kJ/mol
# GULP energy per Si atom -5574.182425 kJ/mol
# Density = 2.130885 g / cm^3
# Si number density = 21.357463 Si / 1000 Ang^3
#
#
#
# Elastic Constant Matrix: (Units=GPa)
#
#
# Indices 1 2 3 4 5 6 
#
# 1 63.6554 14.6841 36.3445 0.0000 0.0000 0.0000
# 2 14.6841 63.6552 36.3445 0.0000 0.0000 0.0000
# 3 36.3445 36.3445 149.0172 0.0000 0.0000 0.0000
# 4 0.0000 0.0000 0.0000 26.2269 0.0000 0.0000
# 5 0.0000 0.0000 0.0000 0.0000 26.2269 0.0000
# 6 0.0000 0.0000 0.0000 0.0000 0.0000 -176.9922
#
#
#
# Elastic Compliance Matrix: (Units=1/GPa)
#
#
# Indices 1 2 3 4 5 6 
#
# 1 0.018459 -0.001961 -0.004024 0.000000 0.000000 0.000000
# 2 -0.001961 0.018459 -0.004024 0.000000 0.000000 0.000000
# 3 -0.004024 -0.004024 0.008673 0.000000 0.000000 0.000000
# 4 0.000000 0.000000 0.000000 0.038129 0.000000 0.000000
# 5 0.000000 0.000000 0.000000 0.000000 0.038129 0.000000
# 6 0.000000 0.000000 0.000000 0.000000 0.000000 -0.005650
#
#
# Mechanical properties :
#
#
# Convention : Reuss Voigt Hill
#
# Bulk Modulus (GPa) = 39.10060 50.11934 44.60997
# Shear Modulus (GPa) = 34.54417 -12.31070 11.11673
#
# Velocity S-wave (km/s) = 4.02609 -2.40346 2.28394
# Velocity P-wave (km/s) = 6.32139 3.97689 5.28089
#
# Compressibility (1/GPa) = 0.02557506
#
# Stress axis : x y z
#
# Youngs Moduli (GPa) = 54.17301 54.17280 115.29409
#
# Poissons Ratio (x) = 0.10622 0.46394
# Poissons Ratio (y) = 0.10622 0.46394
# Poissons Ratio (z) = 0.21799 0.21799
#
# Static dielectric constant tensor:
#      x y z
#    x 1.777840 0.000000 0.000000 
#    y 0.000000 1.777840 0.000000 
#    z 0.000000 0.000000 1.780630 
# 
# From -- ./inp_files/2902.got.cif
#   From: 2010.05.17/outbox.cif.g08.bks.cpg/sg90_2_cif.got.tgz:2902.got - 2010.06.03 19:17:45.
