data_PCOD9547894
_publ_section_title
;
Structure prediction by ZEFSAII (Michael W. Deem and Ramdas Pophale) SiO2 
 PCOD9547894
Probable space group: P 41 2 2
;
_chemical_formula_sum "Si O2"
_cell_formula_units_Z 36
_cell_length_a 11.915927
_cell_length_b 11.915927
_cell_length_c 14.599919
_cell_angle_alpha 90.000000
_cell_angle_beta 90.000000
_cell_angle_gamma 90.000000
_cell_volume 2073.032516
_symmetry_space_group_name_H-M "P 41 2 2"
_symmetry_group_IT_number 91
_symmetry_cell_setting 'tetragonal'
loop_
_space_group_symop_operation_xyz
x,y,z
-y,x,1/4+z
-x,-y,1/2+z
y,-x,3/4+z
x,-y,1/2-z
-x,y,-z
y,x,3/4-z
-y,-x,1/4-z
loop_
_atom_site_type_symbol
_atom_site_label
_atom_site_fract_x
_atom_site_fract_y
_atom_site_fract_z
Si Si1 0.715590 0.553377 0.434740
Si Si2 0.867393 0.302192 0.172393
Si Si3 0.817288 0.100811 0.436951
Si Si4 0.684508 0.288948 0.902439
Si Si5 0.063026 0.936975 0.125000
O O1 0.623375 0.623375 0.375000
O O2 0.835460 0.596076 0.395238
O O3 0.702124 0.597881 0.537845
O O4 0.702218 0.424159 0.411103
O O5 0.802197 0.197804 0.125000
O O6 0.807159 0.329058 0.268835
O O7 0.994192 0.264667 0.182721
O O8 0.748978 0.208249 0.404685
O O9 0.873561 0.110125 0.536644
O O10 0.928628 0.082135 0.374814
#
# Coordination Sequence:
#
# PCOD9547894 Si02
#       5
#     8   8   8   8   4
#     4   9  19  35  62  85 108 143 191 260 293 332
#     4   9  17  30  55  88 114 143 195 246 283 335
#     4  11  19  34  56  85 119 157 195 233 291 356
#     4  10  20  36  61  85 113 147 197 242 293 350
#     4  10  22  32  54  84 130 160 184 230 292 368
#
# _framework density 17.365863000000001
#
# number of rings (size 3 to 8) (size 9 to 14) (size 15 to 20)
#    0.000    2.667    3.333    2.667    0.000    3.556 
#    0.000    4.444    7.333    0.000    0.000    0.000 
#    0.000    0.000    0.000    0.000    0.000    0.000 
#
# Total GULP energy -200566.201415 kJ/mol
# GULP energy per Si atom -5571.283373 kJ/mol
# Density = 1.732634 g / cm^3
# Si number density = 17.365863 Si / 1000 Ang^3
#
#
#
# Elastic Constant Matrix: (Units=GPa)
#
#
# Indices 1 2 3 4 5 6 
#
# 1 103.8174 63.4908 43.9078 0.0000 0.0000 0.0000
# 2 63.4908 103.8198 43.9067 0.0000 0.0000 0.0000
# 3 43.9078 43.9067 67.5736 0.0000 0.0000 0.0000
# 4 0.0000 0.0000 0.0000 16.4680 0.0000 0.0000
# 5 0.0000 0.0000 0.0000 0.0000 16.4682 0.0000
# 6 0.0000 0.0000 0.0000 0.0000 0.0000 8.0030
#
#
#
# Elastic Compliance Matrix: (Units=1/GPa)
#
#
# Indices 1 2 3 4 5 6 
#
# 1 0.016934 -0.007863 -0.005894 0.000000 0.000000 0.000000
# 2 -0.007863 0.016933 -0.005893 0.000000 0.000000 0.000000
# 3 -0.005894 -0.005893 0.022458 0.000000 0.000000 0.000000
# 4 0.000000 0.000000 0.000000 0.060724 0.000000 0.000000
# 5 0.000000 0.000000 0.000000 0.000000 0.060723 0.000000
# 6 0.000000 0.000000 0.000000 0.000000 0.000000 0.124953
#
#
# Mechanical properties :
#
#
# Convention : Reuss Voigt Hill
#
# Bulk Modulus (GPa) = 58.74120 64.20240 61.47180
# Shear Modulus (GPa) = 14.38022 16.44821 15.41421
#
# Velocity S-wave (km/s) = 2.88075 3.08093 2.98252
# Velocity P-wave (km/s) = 6.70552 7.05031 6.88008
#
# Compressibility (1/GPa) = 0.01702383
#
# Stress axis : x y z
#
# Youngs Moduli (GPa) = 59.05292 59.05588 44.52826
#
# Poissons Ratio (x) = 0.46437 0.26245
# Poissons Ratio (y) = 0.46435 0.26241
# Poissons Ratio (z) = 0.34806 0.34802
#
# Static dielectric constant tensor:
#      x y z
#    x 1.589060 0.000000 0.000000 
#    y 0.000000 1.589050 0.000000 
#    z 0.000000 0.000000 1.618180 
# 
# From -- ./inp_files/11797.got.cif
#   From: 2010.05.17/outbox.cif.g08.bks.cpg/sg91_6_cif.got.tgz:11797.got - 2010.06.03 19:20:03.
