data_PCOD9547931
_publ_section_title
;
Structure prediction by ZEFSAII (Michael W. Deem and Ramdas Pophale) SiO2 
 PCOD9547931
Probable space group: P 41 2 2
;
_chemical_formula_sum "Si O2"
_cell_formula_units_Z 40
_cell_length_a 10.393087
_cell_length_b 10.393087
_cell_length_c 15.971316
_cell_angle_alpha 90.000000
_cell_angle_beta 90.000000
_cell_angle_gamma 90.000000
_cell_volume 1725.161780
_symmetry_space_group_name_H-M "P 41 2 2"
_symmetry_group_IT_number 91
_symmetry_cell_setting 'tetragonal'
loop_
_space_group_symop_operation_xyz
x,y,z
-y,x,1/4+z
-x,-y,1/2+z
y,-x,3/4+z
x,-y,1/2-z
-x,y,-z
y,x,3/4-z
-y,-x,1/4-z
loop_
_atom_site_type_symbol
_atom_site_label
_atom_site_fract_x
_atom_site_fract_y
_atom_site_fract_z
Si Si1 0.356181 0.675936 0.027047
Si Si2 0.415016 0.286279 0.800124
Si Si3 0.777182 0.100078 0.817936
Si Si4 0.112174 0.283925 0.065959
Si Si5 0.489523 0.966548 0.399438
O O1 0.322209 0.677792 0.125000
O O2 0.500000 0.722892 0.000000
O O3 0.349339 0.527652 0.001328
O O4 0.235099 0.735600 0.976646
O O5 0.375888 0.375888 0.875000
O O6 0.305016 0.244813 0.734741
O O7 0.458652 0.157021 0.848367
O O8 0.880337 0.154680 0.881662
O O9 0.657616 0.030273 0.866174
O O10 0.824770 0.000000 0.750000
O O11 0.079636 0.415523 0.116791
O O12 0.000000 0.270848 0.000000
O O13 0.500000 0.954964 0.500000
#
# Coordination Sequence:
#
# PCOD9547931 Si02
#       5
#     8   8   8   8   8
#     4  11  23  38  62 100 142 182 228 287 353 419
#     4  10  20  37  62  95 133 175 230 290 347 410
#     4  11  24  43  68 100 138 182 231 289 358 423
#     4  10  22  41  67  97 133 185 239 284 343 422
#     4  10  21  39  67  98 133 178 228 288 354 418
#
# _framework density 23.186229999999998
#
# number of rings (size 3 to 8) (size 9 to 14) (size 15 to 20)
#    0.000    1.600    0.000    6.000    0.000    8.000 
#    0.000    0.000    0.000   45.600    0.000    0.000 
#    0.000    0.000    0.000    0.000    0.000    0.000 
#
# Total GULP energy -223600.125175 kJ/mol
# GULP energy per Si atom -5590.003129 kJ/mol
# Density = 2.313346 g / cm^3
# Si number density = 23.186230 Si / 1000 Ang^3
#
#
#
# Elastic Constant Matrix: (Units=GPa)
#
#
# Indices 1 2 3 4 5 6 
#
# 1 298.1737 -208.6532 35.3839 0.0000 0.0000 0.0000
# 2 -208.6532 298.1859 35.3859 0.0000 0.0000 0.0000
# 3 35.3839 35.3859 140.4360 0.0000 0.0000 0.0000
# 4 0.0000 0.0000 0.0000 31.9143 0.0000 0.0000
# 5 0.0000 0.0000 0.0000 0.0000 31.9145 0.0000
# 6 0.0000 0.0000 0.0000 0.0000 0.0000 -183.2681
#
#
#
# Elastic Compliance Matrix: (Units=1/GPa)
#
#
# Indices 1 2 3 4 5 6 
#
# 1 0.007961 0.005987 -0.003514 0.000000 0.000000 0.000000
# 2 0.005987 0.007960 -0.003514 0.000000 0.000000 0.000000
# 3 -0.003514 -0.003514 0.008892 0.000000 0.000000 0.000000
# 4 0.000000 0.000000 0.000000 0.031334 0.000000 0.000000
# 5 0.000000 0.000000 0.000000 0.000000 0.031334 0.000000
# 6 0.000000 0.000000 0.000000 0.000000 0.000000 -0.005456
#
#
# Mechanical properties :
#
#
# Convention : Reuss Voigt Hill
#
# Bulk Modulus (GPa) = 43.99468 51.22542 47.61005
# Shear Modulus (GPa) = 54.53567 34.42408 44.47987
#
# Velocity S-wave (km/s) = 4.85508 3.85733 4.38468
# Velocity P-wave (km/s) = 7.10244 6.47917 6.79796
#
# Compressibility (1/GPa) = 0.02273002
#
# Stress axis : x y z
#
# Youngs Moduli (GPa) = 125.61800 125.62285 112.46469
#
# Poissons Ratio (x) = -0.75216 0.39525
# Poissons Ratio (y) = -0.75213 0.39524
# Poissons Ratio (z) = 0.44147 0.44148
#
# Static dielectric constant tensor:
#      x y z
#    x 1.899110 0.000000 0.000000 
#    y 0.000000 1.899110 0.000000 
#    z 0.000000 0.000000 1.909490 
# 
# From -- ./inp_files/11358.got.cif
#   From: 2010.05.17/outbox.cif.g08.bks.cpg/sg91_6_cif.got.tgz:11358.got - 2010.06.03 19:20:03.
