data_PCOD9547216
_publ_section_title
;
Structure prediction by ZEFSAII (Michael W. Deem and Ramdas Pophale) SiO2 
 PCOD9547216
Probable space group: P 4 21 2
;
_chemical_formula_sum "Si O2"
_cell_formula_units_Z 26
_cell_length_a 14.637004
_cell_length_b 14.637004
_cell_length_c 5.232195
_cell_angle_alpha 90.000000
_cell_angle_beta 90.000000
_cell_angle_gamma 90.000000
_cell_volume 1120.955325
_symmetry_space_group_name_H-M "P 4 21 2"
_symmetry_group_IT_number 90
_symmetry_cell_setting 'tetragonal'
loop_
_space_group_symop_operation_xyz
x,y,z
1/2-y,1/2+x,z
-x,-y,z
1/2+y,1/2-x,z
1/2+x,1/2-y,-z
1/2-x,1/2+y,-z
y,x,-z
-y,-x,-z
loop_
_atom_site_type_symbol
_atom_site_label
_atom_site_fract_x
_atom_site_fract_y
_atom_site_fract_z
Si Si1 0.883311 0.726701 0.984389
Si Si2 0.172142 0.951443 0.833972
Si Si3 0.500000 0.500000 0.500000
Si Si4 0.157863 0.688237 0.483370
O O1 0.861683 0.657899 0.754175
O O2 0.803262 0.803262 0.000000
O O3 0.881203 0.674144 0.252439
O O4 0.977918 0.780899 0.973770
O O5 0.087720 0.996750 0.684284
O O6 0.242846 0.918883 0.617932
O O7 0.133294 0.866707 0.000000
O O8 0.247163 0.752838 0.500000
#
# Coordination Sequence:
#
# PCOD9547216 Si02
#       4
#     8   8   2   8
#     4  10  23  40  64  97 141 191 240 284 361 445
#     4  12  25  42  68 108 155 188 242 312 384 426
#     4  12  26  36  68 114 156 196 220 318 394 436
#     4  10  22  41  63  93 142 195 233 283 356 450
#
# _framework density 23.194503000000001
#
# number of rings (size 3 to 8) (size 9 to 14) (size 15 to 20)
#    0.000    1.231    1.538    5.077   10.769    0.000 
#    0.000    0.000    0.000    0.923    0.000   12.923 
#    9.231    0.000    0.000    0.000    0.000    0.000 
#
# Total GULP energy -145467.874908 kJ/mol
# GULP energy per Si atom -5594.918266 kJ/mol
# Density = 2.314171 g / cm^3
# Si number density = 23.194503 Si / 1000 Ang^3
#
#
#
# Elastic Constant Matrix: (Units=GPa)
#
#
# Indices 1 2 3 4 5 6 
#
# 1 62.0034 68.7046 55.2582 0.0000 0.0000 0.0000
# 2 68.7046 62.0039 55.2572 0.0000 0.0000 0.0000
# 3 55.2582 55.2572 160.5126 0.0000 0.0000 0.0000
# 4 0.0000 0.0000 0.0000 28.7577 0.0000 0.0000
# 5 0.0000 0.0000 0.0000 0.0000 28.7569 0.0000
# 6 0.0000 0.0000 0.0000 0.0000 0.0000 49.9417
#
#
#
# Elastic Compliance Matrix: (Units=1/GPa)
#
#
# Indices 1 2 3 4 5 6 
#
# 1 -0.069221 0.080012 -0.003714 0.000000 0.000000 0.000000
# 2 0.080012 -0.069219 -0.003716 0.000000 0.000000 0.000000
# 3 -0.003714 -0.003716 0.008788 0.000000 0.000000 0.000000
# 4 0.000000 0.000000 0.000000 0.034773 0.000000 0.000000
# 5 0.000000 0.000000 0.000000 0.000000 0.034774 0.000000
# 6 0.000000 0.000000 0.000000 0.000000 0.000000 0.020023
#
#
# Mechanical properties :
#
#
# Convention : Reuss Voigt Hill
#
# Bulk Modulus (GPa) = 64.47043 71.44000 67.95521
# Shear Modulus (GPa) = -27.76621 28.51125 0.37252
#
# Velocity S-wave (km/s) = -3.46367 3.50983 0.40119
# Velocity P-wave (km/s) = 3.44382 6.87695 5.43840
#
# Compressibility (1/GPa) = 0.01551099
#
# Stress axis : x y z
#
# Youngs Moduli (GPa) = -14.44642 -14.44683 113.79158
#
# Poissons Ratio (x) = 1.15592 0.42266
# Poissons Ratio (y) = 1.15589 0.42285
# Poissons Ratio (z) = -0.05366 -0.05368
#
# Static dielectric constant tensor:
#      x y z
#    x 1.878260 0.000000 0.000000 
#    y 0.000000 1.878260 0.000000 
#    z 0.000000 0.000000 1.892140 
# 
# From -- ./inp_files/274.got.cif
#   From: 2010.05.17/outbox.cif.g08.bks.cpg/sg90_1_cif.got.tgz:274.got - 2010.06.03 19:17:45.
