data_PCOD9547308
_publ_section_title
;
Structure prediction by ZEFSAII (Michael W. Deem and Ramdas Pophale) SiO2 
 PCOD9547308
Probable space group: P 4 21 2
;
_chemical_formula_sum "Si O2"
_cell_formula_units_Z 24
_cell_length_a 11.259216
_cell_length_b 11.259216
_cell_length_c 8.031712
_cell_angle_alpha 90.000000
_cell_angle_beta 90.000000
_cell_angle_gamma 90.000000
_cell_volume 1018.179688
_symmetry_space_group_name_H-M "P 4 21 2"
_symmetry_group_IT_number 90
_symmetry_cell_setting 'tetragonal'
loop_
_space_group_symop_operation_xyz
x,y,z
1/2-y,1/2+x,z
-x,-y,z
1/2+y,1/2-x,z
1/2+x,1/2-y,-z
1/2-x,1/2+y,-z
y,x,-z
-y,-x,-z
loop_
_atom_site_type_symbol
_atom_site_label
_atom_site_fract_x
_atom_site_fract_y
_atom_site_fract_z
Si Si1 0.748917 0.605236 0.143194
Si Si2 0.685578 0.980923 0.171704
Si Si3 0.671591 0.379872 0.308727
O O1 0.678918 0.518953 0.267419
O O2 0.819041 0.705238 0.245866
O O3 0.673498 0.673498 0.000000
O O4 0.818508 0.511084 0.024558
O O5 0.600737 0.875062 0.238288
O O6 0.815970 0.935877 0.210779
O O7 0.648306 0.351695 0.500000
#
# Coordination Sequence:
#
# PCOD9547308 Si02
#       3
#     8   8   8
#     4  12  24  50  78 108 152 207 263 304 379 475
#     4  11  23  47  76 106 146 203 261 302 370 474
#     4  12  29  47  75 123 158 195 255 332 391 444
#
# _framework density 23.571477000000002
#
# number of rings (size 3 to 8) (size 9 to 14) (size 15 to 20)
#    0.000    0.333    6.667    1.000    4.667    3.333 
#    0.000    1.667    0.000    0.000    0.000    0.000 
#    0.000    0.000    0.000    0.000    0.000    0.000 
#
# Total GULP energy -133858.202862 kJ/mol
# GULP energy per Si atom -5577.425119 kJ/mol
# Density = 2.351783 g / cm^3
# Si number density = 23.571477 Si / 1000 Ang^3
#
#
#
# Elastic Constant Matrix: (Units=GPa)
#
#
# Indices 1 2 3 4 5 6 
#
# 1 52.6534 56.5439 27.7823 0.0000 0.0000 0.0000
# 2 56.5439 52.6540 27.7825 0.0000 0.0000 0.0000
# 3 27.7823 27.7825 114.5210 0.0000 0.0000 0.0000
# 4 0.0000 0.0000 0.0000 26.3079 0.0000 0.0000
# 5 0.0000 0.0000 0.0000 0.0000 26.3077 0.0000
# 6 0.0000 0.0000 0.0000 0.0000 0.0000 46.2610
#
#
#
# Elastic Compliance Matrix: (Units=1/GPa)
#
#
# Indices 1 2 3 4 5 6 
#
# 1 -0.123306 0.133753 -0.002535 0.000000 0.000000 0.000000
# 2 0.133753 -0.123305 -0.002534 0.000000 0.000000 0.000000
# 3 -0.002535 -0.002534 0.009962 0.000000 0.000000 0.000000
# 4 0.000000 0.000000 0.000000 0.038011 0.000000 0.000000
# 5 0.000000 0.000000 0.000000 0.000000 0.038012 0.000000
# 6 0.000000 0.000000 0.000000 0.000000 0.000000 0.021616
#
#
# Mechanical properties :
#
#
# Convention : Reuss Voigt Hill
#
# Bulk Modulus (GPa) = 48.26604 49.33844 48.80224
# Shear Modulus (GPa) = -12.83788 26.95664 7.05938
#
# Velocity S-wave (km/s) = -2.33628 3.38540 1.73245
# Velocity P-wave (km/s) = 3.63914 6.02147 4.97501
#
# Compressibility (1/GPa) = 0.02071850
#
# Stress axis : x y z
#
# Youngs Moduli (GPa) = -8.10988 -8.10996 100.38403
#
# Poissons Ratio (x) = 1.08473 0.25443
# Poissons Ratio (y) = 1.08472 0.25441
# Poissons Ratio (z) = -0.02056 -0.02055
#
# Static dielectric constant tensor:
#      x y z
#    x 2.015510 0.000000 0.000000 
#    y 0.000000 2.015510 0.000000 
#    z 0.000000 0.000000 1.877090 
# 
# From -- ./inp_files/903.got.cif
#   From: 2010.05.17/outbox.cif.g08.bks.cpg/sg90_1_cif.got.tgz:903.got - 2010.06.03 19:17:45.
