data_PCOD9547135
_publ_section_title
;
Structure prediction by ZEFSAII (Michael W. Deem and Ramdas Pophale) SiO2 
 PCOD9547135
Probable space group: P 4 21 2
;
_chemical_formula_sum "Si O2"
_cell_formula_units_Z 38
_cell_length_a 18.066561
_cell_length_b 18.066561
_cell_length_c 5.190424
_cell_angle_alpha 90.000000
_cell_angle_beta 90.000000
_cell_angle_gamma 90.000000
_cell_volume 1694.157645
_symmetry_space_group_name_H-M "P 4 21 2"
_symmetry_group_IT_number 90
_symmetry_cell_setting 'tetragonal'
loop_
_space_group_symop_operation_xyz
x,y,z
1/2-y,1/2+x,z
-x,-y,z
1/2+y,1/2-x,z
1/2+x,1/2-y,-z
1/2-x,1/2+y,-z
y,x,-z
-y,-x,-z
loop_
_atom_site_type_symbol
_atom_site_label
_atom_site_fract_x
_atom_site_fract_y
_atom_site_fract_z
Si Si1 0.335853 0.212065 0.987717
Si Si2 0.341204 0.528169 0.186044
Si Si3 0.500000 0.500000 0.000000
Si Si4 0.832398 0.832398 0.500000
Si Si5 0.572148 0.219736 0.225263
Si Si6 0.067072 0.737863 0.522727
O O1 0.379788 0.219895 0.719086
O O2 0.257723 0.257723 0.000000
O O3 0.327776 0.124240 0.039708
O O4 0.382352 0.246020 0.225819
O O5 0.350625 0.612473 0.271057
O O6 0.307070 0.479702 0.415696
O O7 0.422622 0.499138 0.144373
O O8 0.282953 0.533069 0.951423
O O9 0.753374 0.863015 0.410713
O O10 0.503415 0.186677 0.387201
#
# Coordination Sequence:
#
# PCOD9547135 Si02
#       6
#     8   8   2   4   8   8
#     4  12  27  45  76 108 148 203 253 306 386 448
#     4  11  23  43  61 101 144 196 240 299 358 440
#     4  12  24  38  64  96 150 200 238 268 370 456
#     4  10  20  39  64  96 138 194 246 285 342 436
#     4  11  24  47  72 104 152 190 256 307 372 453
#     4  11  27  46  68 110 147 189 245 326 370 426
#
# _framework density 22.430025000000001
#
# number of rings (size 3 to 8) (size 9 to 14) (size 15 to 20)
#    0.000    0.842    4.211    1.895   10.316    2.105 
#    0.000    0.000    0.000    0.632    5.474    0.000 
#    0.000    0.000    0.000    0.000    0.000    0.000 
#
# Total GULP energy -211827.381617 kJ/mol
# GULP energy per Si atom -5574.404779 kJ/mol
# Density = 2.237897 g / cm^3
# Si number density = 22.430025 Si / 1000 Ang^3
#
#
#
# Elastic Constant Matrix: (Units=GPa)
#
#
# Indices 1 2 3 4 5 6 
#
# 1 -4.7132 103.5733 33.8247 0.0000 0.0000 0.0000
# 2 103.5733 -4.7132 33.8247 0.0000 0.0000 0.0000
# 3 33.8247 33.8247 136.5254 0.0000 0.0000 0.0000
# 4 0.0000 0.0000 0.0000 26.4844 0.0000 0.0000
# 5 0.0000 0.0000 0.0000 0.0000 26.4844 0.0000
# 6 0.0000 0.0000 0.0000 0.0000 0.0000 21.0213
#
#
#
# Elastic Compliance Matrix: (Units=1/GPa)
#
#
# Indices 1 2 3 4 5 6 
#
# 1 0.001473 0.010708 -0.003018 0.000000 0.000000 0.000000
# 2 0.010708 0.001473 -0.003018 0.000000 0.000000 0.000000
# 3 -0.003018 -0.003018 0.008820 0.000000 0.000000 0.000000
# 4 0.000000 0.000000 0.000000 0.037758 0.000000 0.000000
# 5 0.000000 0.000000 0.000000 0.000000 0.037758 0.000000
# 6 0.000000 0.000000 0.000000 0.000000 0.000000 0.047571
#
#
# Mechanical properties :
#
#
# Convention : Reuss Voigt Hill
#
# Bulk Modulus (GPa) = 47.37159 52.17159 49.77159
# Shear Modulus (GPa) = 37.72305 11.85642 24.78974
#
# Velocity S-wave (km/s) = 4.10544 2.30162 3.32807
# Velocity P-wave (km/s) = 6.60594 5.51121 6.08325
#
# Compressibility (1/GPa) = 0.02110970
#
# Stress axis : x y z
#
# Youngs Moduli (GPa) = 678.98868 678.98868 113.37931
#
# Poissons Ratio (x) = -7.27030 0.34215
# Poissons Ratio (y) = -7.27030 0.34215
# Poissons Ratio (z) = 2.04900 2.04900
#
# Static dielectric constant tensor:
#      x y z
#    x 1.664540 0.000000 0.000000 
#    y 0.000000 1.664540 0.000000 
#    z 0.000000 0.000000 1.939730 
# 
# From -- ./inp_files/484.got.cif
#   From: 2010.05.17/outbox.cif.g08.bks.cpg/sg90_1_cif.got.tgz:484.got - 2010.06.03 19:17:45.
