data_PCOD9547964
_publ_section_title
;
Structure prediction by ZEFSAII (Michael W. Deem and Ramdas Pophale) SiO2 
 PCOD9547964
Probable space group: P 41 2 2
;
_chemical_formula_sum "Si O2"
_cell_formula_units_Z 48
_cell_length_a 8.925922
_cell_length_b 8.925922
_cell_length_c 31.771283
_cell_angle_alpha 90.000000
_cell_angle_beta 90.000000
_cell_angle_gamma 90.000000
_cell_volume 2531.284314
_symmetry_space_group_name_H-M "P 41 2 2"
_symmetry_group_IT_number 91
_symmetry_cell_setting 'tetragonal'
loop_
_space_group_symop_operation_xyz
x,y,z
-y,x,1/4+z
-x,-y,1/2+z
y,-x,3/4+z
x,-y,1/2-z
-x,y,-z
y,x,3/4-z
-y,-x,1/4-z
loop_
_atom_site_type_symbol
_atom_site_label
_atom_site_fract_x
_atom_site_fract_y
_atom_site_fract_z
Si Si1 0.812221 0.680696 0.252264
Si Si2 0.308869 0.667495 0.078910
Si Si3 0.828497 0.340884 0.921724
Si Si4 0.328361 0.660800 0.914563
Si Si5 0.843168 0.681119 0.746808
Si Si6 0.336043 0.185740 0.835160
O O1 0.799544 0.500000 0.250000
O O2 0.754148 0.755569 0.209330
O O3 0.721064 0.738453 0.292287
O O4 0.985233 0.723879 0.258963
O O5 0.270081 0.729920 0.125000
O O6 0.227257 0.510936 0.071624
O O7 0.490216 0.641876 0.080773
O O8 0.267300 0.776662 0.041103
O O9 0.763054 0.298215 0.876035
O O10 0.007353 0.333385 0.920507
O O11 0.275367 0.740875 0.957324
O O12 0.248293 0.503168 0.907741
O O13 0.840406 0.500000 0.750000
O O14 0.237309 0.237309 0.875000
#
# Coordination Sequence:
#
# PCOD9547964 Si02
#       6
#     8   8   8   8   8   8
#     4  11  22  39  62  88 119 158 198 239 293 350
#     4   9  18  35  59  88 116 150 199 249 289 343
#     4  11  23  38  58  89 121 154 199 245 292 349
#     4  10  20  38  64  88 114 152 199 245 291 346
#     4   9  19  36  61  89 116 150 196 246 291 341
#     4  12  24  40  61  88 121 156 195 242 293 349
#
# _framework density 18.962707000000002
#
# number of rings (size 3 to 8) (size 9 to 14) (size 15 to 20)
#    0.000    1.667    0.000    6.000    0.000    6.667 
#    0.000    5.833    0.000    0.000    0.000    0.000 
#    0.000    0.000    0.000    0.000    0.000    0.000 
#
# Total GULP energy -268173.209935 kJ/mol
# GULP energy per Si atom -5586.941874 kJ/mol
# Density = 1.891955 g / cm^3
# Si number density = 18.962707 Si / 1000 Ang^3
#
#
#
# Elastic Constant Matrix: (Units=GPa)
#
#
# Indices 1 2 3 4 5 6 
#
# 1 81.9839 49.9718 49.2099 0.0000 0.0000 0.0000
# 2 49.9718 81.9834 49.2096 0.0000 0.0000 0.0000
# 3 49.2099 49.2096 129.1881 0.0000 0.0000 0.0000
# 4 0.0000 0.0000 0.0000 16.7723 0.0000 0.0000
# 5 0.0000 0.0000 0.0000 0.0000 16.7722 0.0000
# 6 0.0000 0.0000 0.0000 0.0000 0.0000 -6.7253
#
#
#
# Elastic Compliance Matrix: (Units=1/GPa)
#
#
# Indices 1 2 3 4 5 6 
#
# 1 0.020912 -0.010326 -0.004032 0.000000 0.000000 0.000000
# 2 -0.010326 0.020912 -0.004032 0.000000 0.000000 0.000000
# 3 -0.004032 -0.004032 0.010813 0.000000 0.000000 0.000000
# 4 0.000000 0.000000 0.000000 0.059622 0.000000 0.000000
# 5 0.000000 0.000000 0.000000 0.000000 0.059623 0.000000
# 6 0.000000 0.000000 0.000000 0.000000 0.000000 -0.148691
#
#
# Mechanical properties :
#
#
# Convention : Reuss Voigt Hill
#
# Bulk Modulus (GPa) = 63.07152 65.54867 64.31009
# Shear Modulus (GPa) = 76.61981 15.01476 45.81728
#
# Velocity S-wave (km/s) = 6.36343 2.81695 4.92080
# Velocity P-wave (km/s) = 9.34473 6.72477 8.14084
#
# Compressibility (1/GPa) = 0.01585502
#
# Stress axis : x y z
#
# Youngs Moduli (GPa) = 47.81920 47.81904 92.48483
#
# Poissons Ratio (x) = 0.49379 0.37293
# Poissons Ratio (y) = 0.49380 0.37292
# Poissons Ratio (z) = 0.19282 0.19282
#
# Static dielectric constant tensor:
#      x y z
#    x 1.640030 0.000000 0.000000 
#    y 0.000000 1.640030 0.000000 
#    z 0.000000 0.000000 1.651850 
# 
# From -- ./inp_files/7976.got.cif
#   From: 2010.05.17/outbox.cif.g08.bks.cpg/sg91_4_cif.got.tgz:7976.got - 2010.06.03 19:20:03.
