data_PCOD9547355
_publ_section_title
;
Structure prediction by ZEFSAII (Michael W. Deem and Ramdas Pophale) SiO2 
 PCOD9547355
Probable space group: P 4 21 2
;
_chemical_formula_sum "Si O2"
_cell_formula_units_Z 48
_cell_length_a 8.121357
_cell_length_b 8.121357
_cell_length_c 34.142005
_cell_angle_alpha 90.000000
_cell_angle_beta 90.000000
_cell_angle_gamma 90.000000
_cell_volume 2251.885088
_symmetry_space_group_name_H-M "P 4 21 2"
_symmetry_group_IT_number 90
_symmetry_cell_setting 'tetragonal'
loop_
_space_group_symop_operation_xyz
x,y,z
1/2-y,1/2+x,z
-x,-y,z
1/2+y,1/2-x,z
1/2+x,1/2-y,-z
1/2-x,1/2+y,-z
y,x,-z
-y,-x,-z
loop_
_atom_site_type_symbol
_atom_site_label
_atom_site_fract_x
_atom_site_fract_y
_atom_site_fract_z
Si Si1 0.737263 0.591553 0.039189
Si Si2 0.000000 0.000000 0.104041
Si Si3 0.597125 0.261544 0.666717
Si Si4 0.500000 0.500000 0.607935
Si Si5 0.241934 0.097453 0.757422
Si Si6 0.954836 0.770286 0.466333
Si Si7 0.417068 0.737994 0.168076
O O1 0.797903 0.401838 0.040039
O O2 0.615038 0.609136 0.075866
O O3 0.639791 0.639791 0.000000
O O4 0.889383 0.890337 0.132985
O O5 0.405383 0.203456 0.659717
O O6 0.628552 0.419244 0.639381
O O7 0.616678 0.308854 0.712184
O O8 0.477816 0.645132 0.575786
O O9 0.408692 0.203556 0.762710
O O10 0.115668 0.155555 0.790008
O O11 0.820249 0.627602 0.470114
O O12 0.892611 0.892611 0.500000
O O13 0.603596 0.801078 0.164934
#
# Coordination Sequence:
#
# PCOD9547355 Si02
#       7
#     8   4   8   4   8   8   8
#     4  11  24  43  68  95 124 162 209 262 321 386
#     4  12  23  41  62  88 126 168 210 253 307 388
#     4   9  20  38  60  88 122 164 215 265 316 378
#     4  12  21  33  60  92 124 162 204 257 319 376
#     4   9  19  38  62  86 117 163 215 264 317 379
#     4  11  24  43  66  93 128 170 217 270 328 391
#     4  11  24  39  59  90 126 164 207 263 325 378
#
# _framework density 21.315474999999999
#
# number of rings (size 3 to 8) (size 9 to 14) (size 15 to 20)
#    0.000    1.500    0.000    6.500    0.000    4.667 
#    0.000    3.333    0.000    4.500    0.000    0.000 
#    0.000    0.000    0.000    0.000    0.000    0.000 
#
# Total GULP energy -267637.154804 kJ/mol
# GULP energy per Si atom -5575.774058 kJ/mol
# Density = 2.126696 g / cm^3
# Si number density = 21.315475 Si / 1000 Ang^3
#
#
#
# Elastic Constant Matrix: (Units=GPa)
#
#
# Indices 1 2 3 4 5 6 
#
# 1 84.8670 18.3241 55.5982 0.0000 0.0000 0.0000
# 2 18.3241 84.8670 55.5982 0.0000 0.0000 0.0000
# 3 55.5982 55.5982 154.5778 0.0000 0.0000 0.0000
# 4 0.0000 0.0000 0.0000 17.0991 0.0000 0.0000
# 5 0.0000 0.0000 0.0000 0.0000 17.0991 0.0000
# 6 0.0000 0.0000 0.0000 0.0000 0.0000 35.2570
#
#
#
# Elastic Compliance Matrix: (Units=1/GPa)
#
#
# Indices 1 2 3 4 5 6 
#
# 1 0.015426 0.000398 -0.005691 0.000000 0.000000 0.000000
# 2 0.000398 0.015426 -0.005691 0.000000 0.000000 0.000000
# 3 -0.005691 -0.005691 0.010563 0.000000 0.000000 0.000000
# 4 0.000000 0.000000 0.000000 0.058483 0.000000 0.000000
# 5 0.000000 0.000000 0.000000 0.000000 0.058483 0.000000
# 6 0.000000 0.000000 0.000000 0.000000 0.000000 0.028363
#
#
# Mechanical properties :
#
#
# Convention : Reuss Voigt Hill
#
# Bulk Modulus (GPa) = 51.42684 64.81695 58.12190
# Shear Modulus (GPa) = 23.23471 26.87711 25.05591
#
# Velocity S-wave (km/s) = 3.30516 3.55480 3.43225
# Velocity P-wave (km/s) = 6.22449 6.87918 6.56001
#
# Compressibility (1/GPa) = 0.01944510
#
# Stress axis : x y z
#
# Youngs Moduli (GPa) = 64.82637 64.82637 94.66645
#
# Poissons Ratio (x) = -0.02580 0.53879
# Poissons Ratio (y) = -0.02580 0.53879
# Poissons Ratio (z) = 0.36896 0.36896
#
# Static dielectric constant tensor:
#      x y z
#    x 1.804040 0.000000 0.000000 
#    y 0.000000 1.804040 0.000000 
#    z 0.000000 0.000000 1.747770 
# 
# From -- ./inp_files/3099.got.cif
#   From: 2010.05.17/outbox.cif.g08.bks.cpg/sg90_2_cif.got.tgz:3099.got - 2010.06.03 19:17:45.
