data_PCOD9547785
_publ_section_title
;
Structure prediction by ZEFSAII (Michael W. Deem and Ramdas Pophale) SiO2 
 PCOD9547785
Probable space group: P 41 2 2
;
_chemical_formula_sum "Si O2"
_cell_formula_units_Z 40
_cell_length_a 14.841314
_cell_length_b 14.841314
_cell_length_c 7.427402
_cell_angle_alpha 90.000000
_cell_angle_beta 90.000000
_cell_angle_gamma 90.000000
_cell_volume 1635.993740
_symmetry_space_group_name_H-M "P 41 2 2"
_symmetry_group_IT_number 91
_symmetry_cell_setting 'tetragonal'
loop_
_space_group_symop_operation_xyz
x,y,z
-y,x,1/4+z
-x,-y,1/2+z
y,-x,3/4+z
x,-y,1/2-z
-x,y,-z
y,x,3/4-z
-y,-x,1/4-z
loop_
_atom_site_type_symbol
_atom_site_label
_atom_site_fract_x
_atom_site_fract_y
_atom_site_fract_z
Si Si1 0.589115 0.933058 0.407843
Si Si2 0.695191 0.669023 0.087227
Si Si3 0.800934 0.857265 0.139649
Si Si4 0.767130 0.038917 0.981173
Si Si5 0.522391 0.244520 0.287772
O O1 0.500000 0.968654 0.500000
O O2 0.665479 0.931536 0.559285
O O3 0.568814 0.839685 0.309867
O O4 0.617503 0.000000 0.250000
O O5 0.752460 0.759392 0.139400
O O6 0.600072 0.679390 0.191614
O O7 0.680979 0.680979 0.875000
O O8 0.733127 0.566879 0.079936
O O9 0.907210 0.839490 0.116501
O O10 0.782991 0.909882 0.326549
O O11 0.769915 0.931925 0.997006
O O12 0.500000 0.223008 0.500000
#
# Coordination Sequence:
#
# PCOD9547785 Si02
#       5
#     8   8   8   8   8
#     4  12  22  37  59  97 127 167 213 267 331 397
#     4  10  20  38  65  91 128 169 214 269 332 399
#     4  10  19  38  63  90 122 168 214 260 329 388
#     4  10  20  37  66  86 125 167 211 267 320 392
#     4  10  21  39  63  91 125 169 212 268 331 391
#
# _framework density 24.44997
#
# number of rings (size 3 to 8) (size 9 to 14) (size 15 to 20)
#    0.000    1.600    4.000    1.800    0.000    1.600 
#    0.000    1.000   17.600   30.000    0.000    0.000 
#    0.000    0.000    0.000    0.000    0.000    0.000 
#
# Total GULP energy -223198.739864 kJ/mol
# GULP energy per Si atom -5579.968497 kJ/mol
# Density = 2.439432 g / cm^3
# Si number density = 24.449970 Si / 1000 Ang^3
#
#
#
# Elastic Constant Matrix: (Units=GPa)
#
#
# Indices 1 2 3 4 5 6 
#
# 1 148.0266 92.6093 24.2961 0.0000 0.0000 0.0000
# 2 92.6093 148.0266 24.2961 0.0000 0.0000 0.0000
# 3 24.2961 24.2961 84.9017 0.0000 0.0000 0.0000
# 4 0.0000 0.0000 0.0000 19.6608 0.0000 0.0000
# 5 0.0000 0.0000 0.0000 0.0000 19.6608 0.0000
# 6 0.0000 0.0000 0.0000 0.0000 0.0000 30.4521
#
#
#
# Elastic Compliance Matrix: (Units=1/GPa)
#
#
# Indices 1 2 3 4 5 6 
#
# 1 0.011228 -0.006817 -0.001262 0.000000 0.000000 0.000000
# 2 -0.006817 0.011228 -0.001262 0.000000 0.000000 0.000000
# 3 -0.001262 -0.001262 0.012501 0.000000 0.000000 0.000000
# 4 0.000000 0.000000 0.000000 0.050863 0.000000 0.000000
# 5 0.000000 0.000000 0.000000 0.000000 0.050863 0.000000
# 6 0.000000 0.000000 0.000000 0.000000 0.000000 0.032838
#
#
# Mechanical properties :
#
#
# Convention : Reuss Voigt Hill
#
# Bulk Modulus (GPa) = 61.45092 73.70645 67.57869
# Shear Modulus (GPa) = 25.82282 29.93830 27.88056
#
# Velocity S-wave (km/s) = 3.25337 3.50304 3.38051
# Velocity P-wave (km/s) = 6.26901 6.82444 6.55261
#
# Compressibility (1/GPa) = 0.01627315
#
# Stress axis : x y z
#
# Youngs Moduli (GPa) = 89.06532 89.06532 79.99554
#
# Poissons Ratio (x) = 0.60718 0.10097
# Poissons Ratio (y) = 0.60718 0.10097
# Poissons Ratio (z) = 0.11241 0.11241
#
# Static dielectric constant tensor:
#      x y z
#    x 1.996270 0.000000 0.000000 
#    y 0.000000 1.996270 0.000000 
#    z 0.000000 0.000000 2.058130 
# 
# From -- ./inp_files/2404.got.cif
#   From: 2010.05.17/outbox.cif.g08.bks.cpg/sg91_2_cif.got.tgz:2404.got - 2010.06.03 19:20:03.
