data_PCOD9547327
_publ_section_title
;
Structure prediction by ZEFSAII (Michael W. Deem and Ramdas Pophale) SiO2 
 PCOD9547327
Probable space group: P 4 21 2
;
_chemical_formula_sum "Si O2"
_cell_formula_units_Z 40
_cell_length_a 8.156762
_cell_length_b 8.156762
_cell_length_c 26.513258
_cell_angle_alpha 90.000000
_cell_angle_beta 90.000000
_cell_angle_gamma 90.000000
_cell_volume 1764.000399
_symmetry_space_group_name_H-M "P 4 21 2"
_symmetry_group_IT_number 90
_symmetry_cell_setting 'tetragonal'
loop_
_space_group_symop_operation_xyz
x,y,z
1/2-y,1/2+x,z
-x,-y,z
1/2+y,1/2-x,z
1/2+x,1/2-y,-z
1/2-x,1/2+y,-z
y,x,-z
-y,-x,-z
loop_
_atom_site_type_symbol
_atom_site_label
_atom_site_fract_x
_atom_site_fract_y
_atom_site_fract_z
Si Si1 0.736651 0.584033 0.951295
Si Si2 0.263321 0.419654 0.452174
Si Si3 0.761151 0.092741 0.355840
Si Si4 0.915147 0.237785 0.145703
Si Si5 0.094527 0.760603 0.757253
O O1 0.801786 0.399104 0.952198
O O2 0.638382 0.625167 0.900718
O O3 0.631668 0.631668 0.000000
O O4 0.196931 0.603299 0.454210
O O5 0.372107 0.372107 0.500000
O O6 0.354842 0.380160 0.400237
O O7 0.594615 0.200451 0.360344
O O8 0.827808 0.118729 0.299298
O O9 0.801274 0.399915 0.142592
O O10 0.878883 0.149634 0.198445
O O11 0.201143 0.593311 0.761838
#
# Coordination Sequence:
#
# PCOD9547327 Si02
#       5
#     8   8   8   8   8
#     4  11  24  41  62  88 116 147 187 233 280 334
#     4  11  24  39  56  81 112 145 184 230 278 331
#     4   9  19  37  60  85 113 145 184 230 278 331
#     4  11  24  39  56  83 118 153 191 234 278 328
#     4   9  19  37  60  85 113 147 188 232 278 330
#
# _framework density 22.675733999999999
#
# number of rings (size 3 to 8) (size 9 to 14) (size 15 to 20)
#    0.000    1.800    0.000    4.800    0.000   14.400 
#    0.000    6.000    0.000    0.000    0.000    0.000 
#    0.000    0.000    0.000    0.000    0.000    0.000 
#
# Total GULP energy -224287.671968 kJ/mol
# GULP energy per Si atom -5607.191799 kJ/mol
# Density = 2.262412 g / cm^3
# Si number density = 22.675734 Si / 1000 Ang^3
#
#
#
# Elastic Constant Matrix: (Units=GPa)
#
#
# Indices 1 2 3 4 5 6 
#
# 1 89.0161 60.4065 66.2212 0.0000 0.0000 0.0000
# 2 60.4065 89.0161 66.2212 0.0000 0.0000 0.0000
# 3 66.2212 66.2212 189.4448 0.0000 0.0000 0.0000
# 4 0.0000 0.0000 0.0000 340.5669 0.0000 0.0000
# 5 0.0000 0.0000 0.0000 0.0000 340.5669 0.0000
# 6 0.0000 0.0000 0.0000 0.0000 0.0000 47.8296
#
#
#
# Elastic Compliance Matrix: (Units=1/GPa)
#
#
# Indices 1 2 3 4 5 6 
#
# 1 0.022325 -0.012628 -0.003390 0.000000 0.000000 0.000000
# 2 -0.012628 0.022325 -0.003390 0.000000 0.000000 0.000000
# 3 -0.003390 -0.003390 0.007648 0.000000 0.000000 0.000000
# 4 0.000000 0.000000 0.000000 0.002936 0.000000 0.000000
# 5 0.000000 0.000000 0.000000 0.000000 0.002936 0.000000
# 6 0.000000 0.000000 0.000000 0.000000 0.000000 0.020908
#
#
# Mechanical properties :
#
#
# Convention : Reuss Voigt Hill
#
# Bulk Modulus (GPa) = 74.16402 83.68607 78.92504
# Shear Modulus (GPa) = 40.85373 157.43454 99.14414
#
# Velocity S-wave (km/s) = 4.24919 8.34142 6.61948
# Velocity P-wave (km/s) = 7.53999 11.39114 9.65944
#
# Compressibility (1/GPa) = 0.01348363
#
# Stress axis : x y z
#
# Youngs Moduli (GPa) = 44.79267 44.79267 130.74889
#
# Poissons Ratio (x) = 0.56565 0.44318
# Poissons Ratio (y) = 0.56565 0.44318
# Poissons Ratio (z) = 0.15183 0.15183
#
# Static dielectric constant tensor:
#      x y z
#    x 1.817620 0.000000 0.000000 
#    y 0.000000 1.817620 0.000000 
#    z 0.000000 0.000000 1.778370 
# 
# From -- ./inp_files/2875.got.cif
#   From: 2010.05.17/outbox.cif.g08.bks.cpg/sg90_2_cif.got.tgz:2875.got - 2010.06.03 19:17:45.
