data_PCOD9547098
_publ_section_title
;
Structure prediction by ZEFSAII (Michael W. Deem and Ramdas Pophale) SiO2 
 PCOD9547098
Probable space group: P 4 21 2
;
_chemical_formula_sum "Si O2"
_cell_formula_units_Z 40
_cell_length_a 12.233298
_cell_length_b 12.233298
_cell_length_c 14.061868
_cell_angle_alpha 90.000000
_cell_angle_beta 90.000000
_cell_angle_gamma 90.000000
_cell_volume 2104.408887
_symmetry_space_group_name_H-M "P 4 21 2"
_symmetry_group_IT_number 90
_symmetry_cell_setting 'tetragonal'
loop_
_space_group_symop_operation_xyz
x,y,z
1/2-y,1/2+x,z
-x,-y,z
1/2+y,1/2-x,z
1/2+x,1/2-y,-z
1/2-x,1/2+y,-z
y,x,-z
-y,-x,-z
loop_
_atom_site_type_symbol
_atom_site_label
_atom_site_fract_x
_atom_site_fract_y
_atom_site_fract_z
Si Si1 0.320886 0.981504 0.460486
Si Si2 0.015634 0.321976 0.197290
Si Si3 0.823953 0.003435 0.633137
Si Si4 0.330617 0.507608 0.701304
Si Si5 0.088144 0.096999 0.107868
O O1 0.405284 0.884027 0.479419
O O2 0.214653 0.970974 0.527275
O O3 0.282031 0.984351 0.351174
O O4 0.114392 0.404272 0.175681
O O5 0.033807 0.207976 0.145059
O O6 0.012335 0.287062 0.307478
O O7 0.899146 0.095357 0.684311
O O8 0.896741 0.894701 0.643733
O O9 0.329852 0.551722 0.809882
O O10 0.122616 0.122616 0.000000
O O11 0.000000 0.000000 0.103997
#
# Coordination Sequence:
#
# PCOD9547098 Si02
#       5
#     8   8   8   8   8
#     4  11  24  37  51  80 122 163 199 239 294 364
#     4  10  20  36  60  93 124 152 199 260 309 351
#     4  10  19  36  58  85 113 157 196 243 292 354
#     4  10  20  37  57  86 112 147 201 253 295 356
#     4  10  20  42  64  86 116 156 203 251 304 376
#
# _framework density 19.007711
#
# number of rings (size 3 to 8) (size 9 to 14) (size 15 to 20)
#    0.000    1.800    4.000    2.400    0.000    9.600 
#    3.600    0.000    0.000    2.400    0.000    0.000 
#    0.000    0.000    0.000    0.000    0.000    0.000 
#
# Total GULP energy -222947.069435 kJ/mol
# GULP energy per Si atom -5573.676736 kJ/mol
# Density = 1.896445 g / cm^3
# Si number density = 19.007711 Si / 1000 Ang^3
#
#
#
# Elastic Constant Matrix: (Units=GPa)
#
#
# Indices 1 2 3 4 5 6 
#
# 1 76.7414 26.4019 31.4893 0.0000 0.0000 0.0000
# 2 26.4019 76.7414 31.4893 0.0000 0.0000 0.0000
# 3 31.4893 31.4893 129.5626 0.0000 0.0000 0.0000
# 4 0.0000 0.0000 0.0000 9.3953 0.0000 0.0000
# 5 0.0000 0.0000 0.0000 0.0000 9.3953 0.0000
# 6 0.0000 0.0000 0.0000 0.0000 0.0000 3.3330
#
#
#
# Elastic Compliance Matrix: (Units=1/GPa)
#
#
# Indices 1 2 3 4 5 6 
#
# 1 0.015625 -0.004240 -0.002767 0.000000 0.000000 0.000000
# 2 -0.004240 0.015625 -0.002767 0.000000 0.000000 0.000000
# 3 -0.002767 -0.002767 0.009063 0.000000 0.000000 0.000000
# 4 0.000000 0.000000 0.000000 0.106436 0.000000 0.000000
# 5 0.000000 0.000000 0.000000 0.000000 0.106436 0.000000
# 6 0.000000 0.000000 0.000000 0.000000 0.000000 0.300032
#
#
# Mechanical properties :
#
#
# Convention : Reuss Voigt Hill
#
# Bulk Modulus (GPa) = 48.15835 51.31183 49.73509
# Shear Modulus (GPa) = 8.62535 17.33571 12.98053
#
# Velocity S-wave (km/s) = 2.13253 3.02327 2.61609
# Velocity P-wave (km/s) = 5.60846 6.26424 5.94540
#
# Compressibility (1/GPa) = 0.02076483
#
# Stress axis : x y z
#
# Youngs Moduli (GPa) = 64.00020 64.00020 110.33535
#
# Poissons Ratio (x) = 0.27137 0.30530
# Poissons Ratio (y) = 0.27137 0.30530
# Poissons Ratio (z) = 0.17709 0.17709
#
# Static dielectric constant tensor:
#      x y z
#    x 1.653690 0.000000 0.000000 
#    y 0.000000 1.653690 0.000000 
#    z 0.000000 0.000000 1.764400 
# 
# From -- ./inp_files/2464.got.cif
#   From: 2010.05.17/outbox.cif.g08.bks.cpg/sg90_2_cif.got.tgz:2464.got - 2010.06.03 19:17:45.
