data_PCOD9547111
_publ_section_title
;
Structure prediction by ZEFSAII (Michael W. Deem and Ramdas Pophale) SiO2 
 PCOD9547111
Probable space group: P 4 21 2
;
_chemical_formula_sum "Si O2"
_cell_formula_units_Z 42
_cell_length_a 10.559944
_cell_length_b 10.559944
_cell_length_c 17.245124
_cell_angle_alpha 90.000000
_cell_angle_beta 90.000000
_cell_angle_gamma 90.000000
_cell_volume 1923.045464
_symmetry_space_group_name_H-M "P 4 21 2"
_symmetry_group_IT_number 90
_symmetry_cell_setting 'tetragonal'
loop_
_space_group_symop_operation_xyz
x,y,z
1/2-y,1/2+x,z
-x,-y,z
1/2+y,1/2-x,z
1/2+x,1/2-y,-z
1/2-x,1/2+y,-z
y,x,-z
-y,-x,-z
loop_
_atom_site_type_symbol
_atom_site_label
_atom_site_fract_x
_atom_site_fract_y
_atom_site_fract_z
Si Si1 0.409736 0.611924 0.369039
Si Si2 0.708218 0.029320 0.040565
Si Si3 0.500000 0.000000 0.725985
Si Si4 0.788514 0.482609 0.493048
Si Si5 0.740418 0.364547 0.227721
Si Si6 0.676314 0.594252 0.125610
O O1 0.500000 0.500000 0.340544
O O2 0.305115 0.540472 0.421730
O O3 0.476824 0.707211 0.428518
O O4 0.347602 0.683651 0.296927
O O5 0.603396 0.138982 0.053753
O O6 0.829801 0.055440 0.093718
O O7 0.750268 0.045655 0.951326
O O8 0.641058 0.935350 0.732520
O O9 0.868006 0.610923 0.489609
O O10 0.666510 0.472583 0.179844
O O11 0.802912 0.261767 0.171286
#
# Coordination Sequence:
#
# PCOD9547111 Si02
#       6
#     8   8   2   8   8   8
#     4  11  26  40  65  97 133 165 205 267 321 374
#     4  10  20  36  60  84 119 162 212 259 307 370
#     4   8  20  32  60  96 112 160 208 254 316 360
#     4  10  24  43  69  95 125 168 215 254 312 385
#     4  10  21  37  61  90 127 158 210 268 309 378
#     4  10  20  36  59  89 119 164 207 257 317 370
#
# _framework density 21.840358999999999
#
# number of rings (size 3 to 8) (size 9 to 14) (size 15 to 20)
#    0.000    1.905    1.905    1.143   10.667    1.524 
#    0.000    0.000    0.000    2.286    0.000    0.000 
#    0.000    0.000    0.000    0.000    0.000    0.000 
#
# Total GULP energy -234322.878156 kJ/mol
# GULP energy per Si atom -5579.116147 kJ/mol
# Density = 2.179065 g / cm^3
# Si number density = 21.840359 Si / 1000 Ang^3
#
#
#
# Elastic Constant Matrix: (Units=GPa)
#
#
# Indices 1 2 3 4 5 6 
#
# 1 32.3109 17.0315 13.2463 0.0000 0.0000 0.0000
# 2 17.0315 32.3109 13.2463 0.0000 0.0000 0.0000
# 3 13.2463 13.2463 91.3509 0.0000 0.0000 0.0000
# 4 0.0000 0.0000 0.0000 9.1417 0.0000 0.0000
# 5 0.0000 0.0000 0.0000 0.0000 9.1417 0.0000
# 6 0.0000 0.0000 0.0000 0.0000 0.0000 26.3663
#
#
#
# Elastic Compliance Matrix: (Units=1/GPa)
#
#
# Indices 1 2 3 4 5 6 
#
# 1 0.043713 -0.021735 -0.003187 0.000000 0.000000 0.000000
# 2 -0.021735 0.043713 -0.003187 0.000000 0.000000 0.000000
# 3 -0.003187 -0.003187 0.011871 0.000000 0.000000 0.000000
# 4 0.000000 0.000000 0.000000 0.109389 0.000000 0.000000
# 5 0.000000 0.000000 0.000000 0.000000 0.109389 0.000000
# 6 0.000000 0.000000 0.000000 0.000000 0.000000 0.037927
#
#
# Mechanical properties :
#
#
# Convention : Reuss Voigt Hill
#
# Bulk Modulus (GPa) = 23.21328 27.00233 25.10781
# Shear Modulus (GPa) = 11.72119 16.42651 14.07385
#
# Velocity S-wave (km/s) = 2.31914 2.74545 2.54125
# Velocity P-wave (km/s) = 4.22172 4.73712 4.48683
#
# Compressibility (1/GPa) = 0.04307878
#
# Stress axis : x y z
#
# Youngs Moduli (GPa) = 22.87668 22.87668 84.23875
#
# Poissons Ratio (x) = 0.49723 0.26846
# Poissons Ratio (y) = 0.49723 0.26846
# Poissons Ratio (z) = 0.07290 0.07290
#
# Static dielectric constant tensor:
#      x y z
#    x 1.773640 0.000000 0.000000 
#    y 0.000000 1.773640 0.000000 
#    z 0.000000 0.000000 1.788930 
# 
# From -- ./inp_files/2622.got.cif
#   From: 2010.05.17/outbox.cif.g08.bks.cpg/sg90_2_cif.got.tgz:2622.got - 2010.06.03 19:17:45.
