data_PCOD9547739
_publ_section_title
;
Structure prediction by ZEFSAII (Michael W. Deem and Ramdas Pophale) SiO2 
 PCOD9547739
Probable space group: P 41 2 2
;
_chemical_formula_sum "Si O2"
_cell_formula_units_Z 56
_cell_length_a 12.110752
_cell_length_b 12.110752
_cell_length_c 19.717269
_cell_angle_alpha 90.000000
_cell_angle_beta 90.000000
_cell_angle_gamma 90.000000
_cell_volume 2891.938036
_symmetry_space_group_name_H-M "P 41 2 2"
_symmetry_group_IT_number 91
_symmetry_cell_setting 'tetragonal'
loop_
_space_group_symop_operation_xyz
x,y,z
-y,x,1/4+z
-x,-y,1/2+z
y,-x,3/4+z
x,-y,1/2-z
-x,y,-z
y,x,3/4-z
-y,-x,1/4-z
loop_
_atom_site_type_symbol
_atom_site_label
_atom_site_fract_x
_atom_site_fract_y
_atom_site_fract_z
Si Si1 0.359585 0.979918 0.595435
Si Si2 0.431884 0.038008 0.174534
Si Si3 0.405778 0.220578 0.597242
Si Si4 0.820255 0.354108 0.613947
Si Si5 0.724002 0.583808 0.033436
Si Si6 0.793522 0.793522 0.375000
Si Si7 0.341184 0.700412 0.754564
Si Si8 0.500000 0.184527 0.000000
O O1 0.439549 0.987557 0.660943
O O2 0.244652 0.918528 0.609494
O O3 0.433267 0.898043 0.549192
O O4 0.356512 0.105123 0.569506
O O5 0.415590 0.167774 0.168481
O O6 0.405429 0.000000 0.250000
O O7 0.359817 0.953079 0.130337
O O8 0.538904 0.217897 0.593178
O O9 0.360335 0.325670 0.558404
O O10 0.366393 0.232445 0.676263
O O11 0.762527 0.237474 0.625000
O O12 0.774631 0.385650 0.539465
O O13 0.674171 0.461644 0.026709
O O14 0.759460 0.723368 0.442310
O O15 0.268734 0.594583 0.775027
#
# Coordination Sequence:
#
# PCOD9547739 Si02
#       8
#     8   8   8   8   8   4   8   4
#     4  10  20  35  55  81 111 149 191 230 289 346
#     4   9  17  33  57  76  99 139 190 229 265 336
#     4  10  22  34  55  82 113 151 187 233 285 355
#     4   9  20  34  51  80 106 143 185 224 278 337
#     4  10  19  35  55  79 109 144 182 231 283 342
#     4  10  20  34  58  80 110 148 184 248 290 332
#     4  10  21  35  55  86 112 148 190 237 297 350
#     4  10  22  36  52  84 122 146 184 240 302 348
#
# _framework density 19.364177999999999
#
# number of rings (size 3 to 8) (size 9 to 14) (size 15 to 20)
#    0.000    2.286    1.429    1.714    2.000    5.143 
#    0.000    0.000    1.571    0.000    7.429    0.000 
#    0.000    0.000    0.000    0.000    0.000    0.000 
#
# Total GULP energy -311831.877159 kJ/mol
# GULP energy per Si atom -5568.426378 kJ/mol
# Density = 1.932010 g / cm^3
# Si number density = 19.364178 Si / 1000 Ang^3
#
#
#
# Elastic Constant Matrix: (Units=GPa)
#
#
# Indices 1 2 3 4 5 6 
#
# 1 98.1443 49.6212 19.5449 0.0000 0.0000 0.0000
# 2 49.6212 98.1459 19.5456 0.0000 0.0000 0.0000
# 3 19.5449 19.5456 26.9967 0.0000 0.0000 0.0000
# 4 0.0000 0.0000 0.0000 18.7790 0.0000 0.0000
# 5 0.0000 0.0000 0.0000 0.0000 18.7789 0.0000
# 6 0.0000 0.0000 0.0000 0.0000 0.0000 32.7589
#
#
#
# Elastic Compliance Matrix: (Units=1/GPa)
#
#
# Indices 1 2 3 4 5 6 
#
# 1 0.014490 -0.006119 -0.006060 0.000000 0.000000 0.000000
# 2 -0.006119 0.014489 -0.006060 0.000000 0.000000 0.000000
# 3 -0.006060 -0.006060 0.045817 0.000000 0.000000 0.000000
# 4 0.000000 0.000000 0.000000 0.053251 0.000000 0.000000
# 5 0.000000 0.000000 0.000000 0.000000 0.053251 0.000000
# 6 0.000000 0.000000 0.000000 0.000000 0.000000 0.030526
#
#
# Mechanical properties :
#
#
# Convention : Reuss Voigt Hill
#
# Bulk Modulus (GPa) = 26.09808 44.52337 35.31073
# Shear Modulus (GPa) = 19.15159 23.03504 21.09332
#
# Velocity S-wave (km/s) = 3.14828 3.45276 3.30403
# Velocity P-wave (km/s) = 5.16937 6.24003 5.72976
#
# Compressibility (1/GPa) = 0.03831699
#
# Stress axis : x y z
#
# Youngs Moduli (GPa) = 69.01520 69.01572 21.82613
#
# Poissons Ratio (x) = 0.42230 0.13227
# Poissons Ratio (y) = 0.42230 0.13228
# Poissons Ratio (z) = 0.41823 0.41827
#
# Static dielectric constant tensor:
#      x y z
#    x 1.688990 0.000000 0.000000 
#    y 0.000000 1.688990 0.000000 
#    z 0.000000 0.000000 1.776060 
# 
# From -- ./inp_files/21539.got.cif
#   From: 2010.05.17/outbox.cif.g08.bks.cpg/sg91_11_cif.got.tgz:21539.got - 2010.06.03 19:20:03.
