data_PCOD9547936
_publ_section_title
;
Structure prediction by ZEFSAII (Michael W. Deem and Ramdas Pophale) SiO2 
 PCOD9547936
Probable space group: P 41 2 2
;
_chemical_formula_sum "Si O2"
_cell_formula_units_Z 40
_cell_length_a 18.956388
_cell_length_b 18.956388
_cell_length_c 5.245700
_cell_angle_alpha 90.000000
_cell_angle_beta 90.000000
_cell_angle_gamma 90.000000
_cell_volume 1885.014210
_symmetry_space_group_name_H-M "P 41 2 2"
_symmetry_group_IT_number 91
_symmetry_cell_setting 'tetragonal'
loop_
_space_group_symop_operation_xyz
x,y,z
-y,x,1/4+z
-x,-y,1/2+z
y,-x,3/4+z
x,-y,1/2-z
-x,y,-z
y,x,3/4-z
-y,-x,1/4-z
loop_
_atom_site_type_symbol
_atom_site_label
_atom_site_fract_x
_atom_site_fract_y
_atom_site_fract_z
Si Si1 0.414582 0.238689 0.981908
Si Si2 0.112663 0.112663 0.875000
Si Si3 0.671941 0.791669 0.951983
Si Si4 0.619191 0.380810 0.125000
Si Si5 0.861416 0.000000 0.750000
Si Si6 0.249248 0.070093 0.636343
Si Si7 0.393706 0.500000 0.250000
O O1 0.377130 0.194481 0.204634
O O2 0.500000 0.230827 0.000000
O O3 0.377185 0.229322 0.701495
O O4 0.386464 0.316637 0.068526
O O5 0.058836 0.094951 0.649804
O O6 0.196055 0.102211 0.844381
O O7 0.734836 0.734836 0.875000
O O8 0.705829 0.866343 0.028838
O O9 0.546253 0.363814 0.272394
O O10 0.807704 0.041413 0.564827
O O11 0.286298 0.000000 0.750000
O O12 0.443579 0.443579 0.375000
#
# Coordination Sequence:
#
# PCOD9547936 Si02
#       7
#     8   4   8   4   4   8   4
#     4  12  28  46  68 102 145 187 239 303 371 427
#     4  10  20  37  64 100 142 190 226 285 334 418
#     4  12  25  46  74 109 140 189 243 299 361 433
#     4  12  26  41  64  90 138 184 236 289 360 432
#     4  10  20  38  64  98 142 184 228 278 344 412
#     4  10  24  41  74 103 140 182 232 298 352 430
#     4  12  22  38  56  86 122 184 234 278 336 432
#
# _framework density 21.219999000000001
#
# number of rings (size 3 to 8) (size 9 to 14) (size 15 to 20)
#    0.000    0.800    3.000    3.600   14.000    0.000 
#    0.000    0.000   79.200    2.400    0.000    0.000 
#    0.000    0.000    0.000    0.000    0.000    0.000 
#
# Total GULP energy -222711.427304 kJ/mol
# GULP energy per Si atom -5567.785683 kJ/mol
# Density = 2.117170 g / cm^3
# Si number density = 21.219999 Si / 1000 Ang^3
#
#
#
# Elastic Constant Matrix: (Units=GPa)
#
#
# Indices 1 2 3 4 5 6 
#
# 1 122.4478 68.7626 37.8279 0.0000 0.0000 0.0000
# 2 68.7626 122.4478 37.8281 0.0000 0.0000 0.0000
# 3 37.8279 37.8281 95.8639 0.0000 0.0000 0.0000
# 4 0.0000 0.0000 0.0000 40.1414 0.0000 0.0000
# 5 0.0000 0.0000 0.0000 0.0000 40.1413 0.0000
# 6 0.0000 0.0000 0.0000 0.0000 0.0000 35.8641
#
#
#
# Elastic Compliance Matrix: (Units=1/GPa)
#
#
# Indices 1 2 3 4 5 6 
#
# 1 0.012412 -0.006215 -0.002446 0.000000 0.000000 0.000000
# 2 -0.006215 0.012412 -0.002446 0.000000 0.000000 0.000000
# 3 -0.002446 -0.002446 0.012361 0.000000 0.000000 0.000000
# 4 0.000000 0.000000 0.000000 0.024912 0.000000 0.000000
# 5 0.000000 0.000000 0.000000 0.000000 0.024912 0.000000
# 6 0.000000 0.000000 0.000000 0.000000 0.000000 0.027883
#
#
# Mechanical properties :
#
#
# Convention : Reuss Voigt Hill
#
# Bulk Modulus (GPa) = 66.78112 69.95519 68.36816
# Shear Modulus (GPa) = 35.18744 36.31876 35.75310
#
# Velocity S-wave (km/s) = 4.07654 4.14156 4.10918
# Velocity P-wave (km/s) = 7.32781 7.47718 7.40287
#
# Compressibility (1/GPa) = 0.01497429
#
# Stress axis : x y z
#
# Youngs Moduli (GPa) = 80.56544 80.56531 80.89653
#
# Poissons Ratio (x) = 0.50070 0.19783
# Poissons Ratio (y) = 0.50070 0.19784
# Poissons Ratio (z) = 0.19702 0.19703
#
# Static dielectric constant tensor:
#      x y z
#    x 1.796710 0.000000 0.000000 
#    y 0.000000 1.796700 0.000000 
#    z 0.000000 0.000000 1.924370 
# 
# From -- ./inp_files/18650.got.cif
#   From: 2010.05.17/outbox.cif.g08.bks.cpg/sg91_10_cif.got.tgz:18650.got - 2010.06.03 19:20:03.
