data_PCOD9547562
_publ_section_title
;
Structure prediction by ZEFSAII (Michael W. Deem and Ramdas Pophale) SiO2 
 PCOD9547562
Probable space group: P 41 2 2
;
_chemical_formula_sum "Si O2"
_cell_formula_units_Z 48
_cell_length_a 14.205469
_cell_length_b 14.205469
_cell_length_c 12.019260
_cell_angle_alpha 90.000000
_cell_angle_beta 90.000000
_cell_angle_gamma 90.000000
_cell_volume 2425.430773
_symmetry_space_group_name_H-M "P 41 2 2"
_symmetry_group_IT_number 91
_symmetry_cell_setting 'tetragonal'
loop_
_space_group_symop_operation_xyz
x,y,z
-y,x,1/4+z
-x,-y,1/2+z
y,-x,3/4+z
x,-y,1/2-z
-x,y,-z
y,x,3/4-z
-y,-x,1/4-z
loop_
_atom_site_type_symbol
_atom_site_label
_atom_site_fract_x
_atom_site_fract_y
_atom_site_fract_z
Si Si1 0.932372 0.672100 0.398726
Si Si2 0.210614 0.662755 0.048675
Si Si3 0.039724 0.859218 0.701799
Si Si4 0.831751 0.492853 0.380772
Si Si5 0.167127 0.103422 0.196697
Si Si6 0.032020 0.410736 0.315010
O O1 0.923390 0.782967 0.387573
O O2 0.844849 0.602206 0.413475
O O3 0.000000 0.650116 0.500000
O O4 0.983637 0.650322 0.281427
O O5 0.296013 0.703988 0.125000
O O6 0.117542 0.636163 0.120887
O O7 0.225720 0.573655 0.964988
O O8 0.174089 0.749693 0.975242
O O9 0.047457 0.952544 0.625000
O O10 0.094706 0.844635 0.814922
O O11 0.931246 0.854245 0.737418
O O12 0.803538 0.500000 0.250000
O O13 0.939594 0.449330 0.381410
O O14 0.183579 0.000000 0.250000
O O15 0.073490 0.500000 0.250000
#
# Coordination Sequence:
#
# PCOD9547562 Si02
#       6
#     8   8   8   8   8   8
#     4  10  18  31  50  69  97 145 197 246 298 349
#     4  12  22  33  55  86 116 145 193 255 312 364
#     4  12  24  36  49  72 110 160 211 252 293 348
#     4   9  18  34  54  74 103 147 196 245 301 362
#     4  12  22  35  51  72 108 157 208 256 300 350
#     4   9  18  33  54  79 109 146 192 248 304 357
#
# _framework density 19.790299999999998
#
# number of rings (size 3 to 8) (size 9 to 14) (size 15 to 20)
#    0.000    1.667    0.000   11.500    0.000    0.000 
#    0.000    0.000    0.000    0.000    0.000    0.000 
#    0.000    2.667    0.000    0.000    0.000    0.333 
#
# Total GULP energy -267589.923904 kJ/mol
# GULP energy per Si atom -5574.790081 kJ/mol
# Density = 1.974526 g / cm^3
# Si number density = 19.790300 Si / 1000 Ang^3
#
#
#
# Elastic Constant Matrix: (Units=GPa)
#
#
# Indices 1 2 3 4 5 6 
#
# 1 56.1908 5.0323 14.6033 0.0000 0.0000 0.0000
# 2 5.0323 56.1894 14.6034 0.0000 0.0000 0.0000
# 3 14.6033 14.6034 86.7664 0.0000 0.0000 0.0000
# 4 0.0000 0.0000 0.0000 29.1443 0.0000 0.0000
# 5 0.0000 0.0000 0.0000 0.0000 29.1445 0.0000
# 6 0.0000 0.0000 0.0000 0.0000 0.0000 16.9794
#
#
#
# Elastic Compliance Matrix: (Units=1/GPa)
#
#
# Indices 1 2 3 4 5 6 
#
# 1 0.018653 -0.000894 -0.002989 0.000000 0.000000 0.000000
# 2 -0.000894 0.018654 -0.002989 0.000000 0.000000 0.000000
# 3 -0.002989 -0.002989 0.012531 0.000000 0.000000 0.000000
# 4 0.000000 0.000000 0.000000 0.034312 0.000000 0.000000
# 5 0.000000 0.000000 0.000000 0.000000 0.034312 0.000000
# 6 0.000000 0.000000 0.000000 0.000000 0.000000 0.058895
#
#
# Mechanical properties :
#
#
# Convention : Reuss Voigt Hill
#
# Bulk Modulus (GPa) = 27.70492 29.73608 28.72050
# Shear Modulus (GPa) = 24.61444 26.04747 25.33096
#
# Velocity S-wave (km/s) = 3.53053 3.63185 3.58155
# Velocity P-wave (km/s) = 5.53617 5.71361 5.62559
#
# Compressibility (1/GPa) = 0.03609468
#
# Stress axis : x y z
#
# Youngs Moduli (GPa) = 53.60963 53.60821 79.79979
#
# Poissons Ratio (x) = 0.04791 0.23852
# Poissons Ratio (y) = 0.04791 0.23853
# Poissons Ratio (z) = 0.16024 0.16024
#
# Static dielectric constant tensor:
#      x y z
#    x 1.778710 0.000000 0.000000 
#    y 0.000000 1.778710 0.000000 
#    z 0.000000 0.000000 1.738520 
# 
# From -- ./inp_files/10738.got.cif
#   From: 2010.05.17/outbox.cif.g08.bks.cpg/sg91_6_cif.got.tgz:10738.got - 2010.06.03 19:20:03.
