data_PCOD9547285
_publ_section_title
;
Structure prediction by ZEFSAII (Michael W. Deem and Ramdas Pophale) SiO2 
 PCOD9547285
Probable space group: P 4 21 2
;
_chemical_formula_sum "Si O2"
_cell_formula_units_Z 56
_cell_length_a 15.117210
_cell_length_b 15.117210
_cell_length_c 12.037149
_cell_angle_alpha 90.000000
_cell_angle_beta 90.000000
_cell_angle_gamma 90.000000
_cell_volume 2750.850121
_symmetry_space_group_name_H-M "P 4 21 2"
_symmetry_group_IT_number 90
_symmetry_cell_setting 'tetragonal'
loop_
_space_group_symop_operation_xyz
x,y,z
1/2-y,1/2+x,z
-x,-y,z
1/2+y,1/2-x,z
1/2+x,1/2-y,-z
1/2-x,1/2+y,-z
y,x,-z
-y,-x,-z
loop_
_atom_site_type_symbol
_atom_site_label
_atom_site_fract_x
_atom_site_fract_y
_atom_site_fract_z
Si Si1 0.831044 0.662927 0.859769
Si Si2 0.638061 0.606072 0.867892
Si Si3 0.538078 0.144892 0.601822
Si Si4 0.065676 0.366246 0.645901
Si Si5 0.140168 0.467749 0.050014
Si Si6 0.016604 0.209202 0.212553
Si Si7 0.340610 0.595155 0.893260
O O1 0.726069 0.663911 0.844372
O O2 0.886426 0.680516 0.747668
O O3 0.867812 0.745073 0.931504
O O4 0.848531 0.568686 0.923020
O O5 0.557722 0.632770 0.786798
O O6 0.662406 0.503641 0.848848
O O7 0.616822 0.616822 0.000000
O O8 0.439784 0.102522 0.616178
O O9 0.566861 0.174133 0.477250
O O10 0.535552 0.225984 0.685629
O O11 0.112856 0.461969 0.655752
O O12 0.099487 0.562556 0.081770
O O13 0.230994 0.470709 0.115202
O O14 0.109929 0.164631 0.184460
O O15 0.404363 0.595638 0.000000
#
# Coordination Sequence:
#
# PCOD9547285 Si02
#       7
#     8   8   8   8   8   8   8
#     4  12  23  38  63  96 127 168 226 281 334 401
#     4  12  24  42  61  92 137 182 221 267 340 424
#     4   9  20  39  66  96 128 169 213 278 348 397
#     4   9  18  37  65  93 125 163 210 269 342 403
#     4  11  22  35  56  92 131 166 206 273 341 399
#     4  12  24  38  62  88 134 179 226 263 327 420
#     4  12  25  40  62  88 132 180 221 263 330 425
#
# _framework density 20.357341999999999
#
# number of rings (size 3 to 8) (size 9 to 14) (size 15 to 20)
#    0.000    1.000    2.857    6.000    4.000    2.286 
#    0.000    0.714    0.000    2.571    0.000    6.000 
#    0.000    0.000    0.000    0.000    0.000    0.000 
#
# Total GULP energy -311896.134948 kJ/mol
# GULP energy per Si atom -5569.573838 kJ/mol
# Density = 2.031101 g / cm^3
# Si number density = 20.357342 Si / 1000 Ang^3
#
#
#
# Elastic Constant Matrix: (Units=GPa)
#
#
# Indices 1 2 3 4 5 6 
#
# 1 92.3914 21.1662 26.7401 0.0000 0.0000 0.0000
# 2 21.1662 92.3916 26.7400 0.0000 0.0000 0.0000
# 3 26.7401 26.7400 95.7875 0.0000 0.0000 0.0000
# 4 0.0000 0.0000 0.0000 23.2115 0.0000 0.0000
# 5 0.0000 0.0000 0.0000 0.0000 23.2114 0.0000
# 6 0.0000 0.0000 0.0000 0.0000 0.0000 23.3346
#
#
#
# Elastic Compliance Matrix: (Units=1/GPa)
#
#
# Indices 1 2 3 4 5 6 
#
# 1 0.012090 -0.001950 -0.002830 0.000000 0.000000 0.000000
# 2 -0.001950 0.012090 -0.002830 0.000000 0.000000 0.000000
# 3 -0.002830 -0.002830 0.012020 0.000000 0.000000 0.000000
# 4 0.000000 0.000000 0.000000 0.043082 0.000000 0.000000
# 5 0.000000 0.000000 0.000000 0.000000 0.043082 0.000000
# 6 0.000000 0.000000 0.000000 0.000000 0.000000 0.042855
#
#
# Mechanical properties :
#
#
# Convention : Reuss Voigt Hill
#
# Bulk Modulus (GPa) = 47.67234 47.76256 47.71745
# Shear Modulus (GPa) = 26.67617 27.67976 27.17796
#
# Velocity S-wave (km/s) = 3.62387 3.69140 3.65779
# Velocity P-wave (km/s) = 6.40144 6.45613 6.42884
#
# Compressibility (1/GPa) = 0.02097653
#
# Stress axis : x y z
#
# Youngs Moduli (GPa) = 82.71610 82.71637 83.19421
#
# Poissons Ratio (x) = 0.16133 0.23548
# Poissons Ratio (y) = 0.16133 0.23547
# Poissons Ratio (z) = 0.23412 0.23412
#
# Static dielectric constant tensor:
#      x y z
#    x 1.773340 0.000000 0.000000 
#    y 0.000000 1.773340 0.000000 
#    z 0.000000 0.000000 1.813150 
# 
# From -- ./inp_files/2242.got.cif
#   From: 2010.05.17/outbox.cif.g08.bks.cpg/sg90_2_cif.got.tgz:2242.got - 2010.06.03 19:17:45.
