data_PCOD9547634
_publ_section_title
;
Structure prediction by ZEFSAII (Michael W. Deem and Ramdas Pophale) SiO2 
 PCOD9547634
Probable space group: P 41 2 2
;
_chemical_formula_sum "Si O2"
_cell_formula_units_Z 60
_cell_length_a 17.591018
_cell_length_b 17.591018
_cell_length_c 10.148544
_cell_angle_alpha 90.000000
_cell_angle_beta 90.000000
_cell_angle_gamma 90.000000
_cell_volume 3140.405180
_symmetry_space_group_name_H-M "P 41 2 2"
_symmetry_group_IT_number 91
_symmetry_cell_setting 'tetragonal'
loop_
_space_group_symop_operation_xyz
x,y,z
-y,x,1/4+z
-x,-y,1/2+z
y,-x,3/4+z
x,-y,1/2-z
-x,y,-z
y,x,3/4-z
-y,-x,1/4-z
loop_
_atom_site_type_symbol
_atom_site_label
_atom_site_fract_x
_atom_site_fract_y
_atom_site_fract_z
Si Si1 0.126396 0.443770 0.629013
Si Si2 0.754401 0.654308 0.008961
Si Si3 0.577513 0.500000 0.750000
Si Si4 0.603820 0.717645 0.039448
Si Si5 0.547333 0.880556 0.128607
Si Si6 0.186816 0.832388 0.270516
Si Si7 0.955641 0.717375 0.134923
Si Si8 0.939403 0.279676 0.883520
O O1 0.123317 0.500000 0.750000
O O2 0.209693 0.411843 0.594314
O O3 0.102673 0.492415 0.501116
O O4 0.082896 0.365111 0.656514
O O5 0.808803 0.725913 0.980391
O O6 0.687675 0.696942 0.086302
O O7 0.734377 0.617665 0.867002
O O8 0.530358 0.530358 0.875000
O O9 0.638002 0.438476 0.801728
O O10 0.564200 0.789911 0.105480
O O11 0.631239 0.915644 0.145345
O O12 0.500000 0.906753 0.000000
O O13 0.209607 0.901334 0.366190
O O14 0.135670 0.772122 0.352858
O O15 0.151412 0.848589 0.125000
O O16 0.013004 0.729718 0.251662
O O17 0.000000 0.709351 0.000000
O O18 0.000000 0.260733 0.000000
#
# Coordination Sequence:
#
# PCOD9547634 Si02
#       8
#     8   8   4   8   8   8   8   8
#     4  11  24  39  56  93 140 167 195 259 337 382
#     4  10  18  37  66  88 110 158 227 274 291 361
#     4  12  24  38  56  82 120 158 206 278 342 380
#     4  11  19  37  65  86 107 155 230 280 293 357
#     4  12  22  38  67  95 121 171 222 252 319 385
#     4  11  20  40  71  96 123 166 225 263 299 376
#     4  11  24  41  68  98 125 172 221 261 312 378
#     4  12  26  42  64 100 138 170 206 261 329 386
#
# _framework density 19.105816000000001
#
# number of rings (size 3 to 8) (size 9 to 14) (size 15 to 20)
#    0.000    0.800    7.333    1.600    0.000    3.733 
#    1.200    0.667    0.000    2.400    0.000    0.000 
#    0.000    0.000    0.000    0.000    0.000    0.000 
#
# Total GULP energy -334279.181343 kJ/mol
# GULP energy per Si atom -5571.319689 kJ/mol
# Density = 1.906233 g / cm^3
# Si number density = 19.105816 Si / 1000 Ang^3
#
#
#
# Elastic Constant Matrix: (Units=GPa)
#
#
# Indices 1 2 3 4 5 6 
#
# 1 109.6587 8.6094 28.1753 0.0000 0.0000 0.0000
# 2 8.6094 109.6597 28.1760 0.0000 0.0000 0.0000
# 3 28.1753 28.1760 90.8602 0.0000 0.0000 0.0000
# 4 0.0000 0.0000 0.0000 -10.8041 0.0000 0.0000
# 5 0.0000 0.0000 0.0000 0.0000 -10.8027 0.0000
# 6 0.0000 0.0000 0.0000 0.0000 0.0000 26.2134
#
#
#
# Elastic Compliance Matrix: (Units=1/GPa)
#
#
# Indices 1 2 3 4 5 6 
#
# 1 0.009909 0.000013 -0.003077 0.000000 0.000000 0.000000
# 2 0.000013 0.009909 -0.003077 0.000000 0.000000 0.000000
# 3 -0.003077 -0.003077 0.012914 0.000000 0.000000 0.000000
# 4 0.000000 0.000000 0.000000 -0.092558 0.000000 0.000000
# 5 0.000000 0.000000 0.000000 0.000000 -0.092569 0.000000
# 6 0.000000 0.000000 0.000000 0.000000 0.000000 0.038148
#
#
# Mechanical properties :
#
#
# Convention : Reuss Voigt Hill
#
# Bulk Modulus (GPa) = 48.89930 48.90000 48.89965
# Shear Modulus (GPa) = -52.54887 17.26918 -17.63984
#
# Velocity S-wave (km/s) = -5.25013 3.00971 -3.04183
# Velocity P-wave (km/s) = 3.33201 6.14228 3.64865
#
# Compressibility (1/GPa) = 0.02045019
#
# Stress axis : x y z
#
# Youngs Moduli (GPa) = 100.92156 100.92209 77.43540
#
# Poissons Ratio (x) = -0.00127 0.23823
# Poissons Ratio (y) = -0.00127 0.23824
# Poissons Ratio (z) = 0.31049 0.31050
#
# Static dielectric constant tensor:
#      x y z
#    x 2.021700 0.000000 0.000000 
#    y 0.000000 2.021690 0.000000 
#    z 0.000000 0.000000 1.653260 
# 
# From -- ./inp_files/2798.got.cif
#   From: 2010.05.17/outbox.cif.g08.bks.cpg/sg91_2_cif.got.tgz:2798.got - 2010.06.03 19:20:03.
