data_PCOD9547133
_publ_section_title
;
Structure prediction by ZEFSAII (Michael W. Deem and Ramdas Pophale) SiO2 
 PCOD9547133
Probable space group: P 4 21 2
;
_chemical_formula_sum "Si O2"
_cell_formula_units_Z 28
_cell_length_a 15.298964
_cell_length_b 15.298964
_cell_length_c 5.116839
_cell_angle_alpha 90.000000
_cell_angle_beta 90.000000
_cell_angle_gamma 90.000000
_cell_volume 1197.638635
_symmetry_space_group_name_H-M "P 4 21 2"
_symmetry_group_IT_number 90
_symmetry_cell_setting 'tetragonal'
loop_
_space_group_symop_operation_xyz
x,y,z
1/2-y,1/2+x,z
-x,-y,z
1/2+y,1/2-x,z
1/2+x,1/2-y,-z
1/2-x,1/2+y,-z
y,x,-z
-y,-x,-z
loop_
_atom_site_type_symbol
_atom_site_label
_atom_site_fract_x
_atom_site_fract_y
_atom_site_fract_z
Si Si1 0.279537 0.105588 0.121593
Si Si2 0.129760 0.129760 0.500000
Si Si3 0.362413 0.493862 0.094085
Si Si4 0.909644 0.613558 0.362192
O O1 0.198288 0.150578 0.271139
O O2 0.352715 0.103260 0.344392
O O3 0.229434 0.015780 0.039553
O O4 0.325637 0.134989 0.855365
O O5 0.030179 0.143516 0.393704
O O6 0.402130 0.402130 0.000000
O O7 0.436089 0.563912 0.000000
O O8 0.882571 0.514049 0.323174
#
# Coordination Sequence:
#
# PCOD9547133 Si02
#       4
#     8   4   8   8
#     4  11  21  39  66  91 127 158 207 261 321 374
#     4  10  20  39  62  98 132 174 202 255 310 394
#     4   9  19  34  60  91 125 165 207 244 297 378
#     4  11  24  43  68  91 116 163 225 275 311 362
#
# _framework density 23.379341
#
# number of rings (size 3 to 8) (size 9 to 14) (size 15 to 20)
#    0.000    1.714    2.857    1.714    0.000   11.429 
#    0.000    0.000   12.571    0.000    0.000    0.000 
#    0.000    0.000    0.000    0.000    0.000    0.000 
#
# Total GULP energy -155899.988779 kJ/mol
# GULP energy per Si atom -5567.856742 kJ/mol
# Density = 2.332613 g / cm^3
# Si number density = 23.379341 Si / 1000 Ang^3
#
#
#
# Elastic Constant Matrix: (Units=GPa)
#
#
# Indices 1 2 3 4 5 6 
#
# 1 12.0259 37.6509 22.1006 0.0000 0.0000 0.0000
# 2 37.6509 12.0256 22.1007 0.0000 0.0000 0.0000
# 3 22.1006 22.1007 148.1467 0.0000 0.0000 0.0000
# 4 0.0000 0.0000 0.0000 17.3617 0.0000 0.0000
# 5 0.0000 0.0000 0.0000 0.0000 17.3618 0.0000
# 6 0.0000 0.0000 0.0000 0.0000 0.0000 -0.9585
#
#
#
# Elastic Compliance Matrix: (Units=1/GPa)
#
#
# Indices 1 2 3 4 5 6 
#
# 1 -0.007906 0.031118 -0.003463 0.000000 0.000000 0.000000
# 2 0.031118 -0.007907 -0.003463 0.000000 0.000000 0.000000
# 3 -0.003463 -0.003463 0.007783 0.000000 0.000000 0.000000
# 4 0.000000 0.000000 0.000000 0.057598 0.000000 0.000000
# 5 0.000000 0.000000 0.000000 0.000000 0.057598 0.000000
# 6 0.000000 0.000000 0.000000 0.000000 0.000000 -1.043319
#
#
# Mechanical properties :
#
#
# Convention : Reuss Voigt Hill
#
# Bulk Modulus (GPa) = 24.78013 37.32253 31.05133
# Shear Modulus (GPa) = -5.14888 12.77606 3.81359
#
# Velocity S-wave (km/s) = -1.48563 2.34020 1.27856
# Velocity P-wave (km/s) = 2.77117 4.82707 3.93573
#
# Compressibility (1/GPa) = 0.04035491
#
# Stress axis : x y z
#
# Youngs Moduli (GPa) = -126.48089 -126.47646 128.48195
#
# Poissons Ratio (x) = 3.93565 0.44490
# Poissons Ratio (y) = 3.93579 0.44489
# Poissons Ratio (z) = -0.43797 -0.43794
#
# Static dielectric constant tensor:
#      x y z
#    x 1.933250 0.000000 0.000000 
#    y 0.000000 1.933250 0.000000 
#    z 0.000000 0.000000 2.046150 
# 
# From -- ./inp_files/337.got.cif
#   From: 2010.05.17/outbox.cif.g08.bks.cpg/sg90_1_cif.got.tgz:337.got - 2010.06.03 19:17:45.
