data_PCOD9547171
_publ_section_title
;
Structure prediction by ZEFSAII (Michael W. Deem and Ramdas Pophale) SiO2 
 PCOD9547171
Probable space group: P 4 21 2
;
_chemical_formula_sum "Si O2"
_cell_formula_units_Z 40
_cell_length_a 14.177847
_cell_length_b 14.177847
_cell_length_c 8.587924
_cell_angle_alpha 90.000000
_cell_angle_beta 90.000000
_cell_angle_gamma 90.000000
_cell_volume 1726.270159
_symmetry_space_group_name_H-M "P 4 21 2"
_symmetry_group_IT_number 90
_symmetry_cell_setting 'tetragonal'
loop_
_space_group_symop_operation_xyz
x,y,z
1/2-y,1/2+x,z
-x,-y,z
1/2+y,1/2-x,z
1/2+x,1/2-y,-z
1/2-x,1/2+y,-z
y,x,-z
-y,-x,-z
loop_
_atom_site_type_symbol
_atom_site_label
_atom_site_fract_x
_atom_site_fract_y
_atom_site_fract_z
Si Si1 0.060753 0.868701 0.665356
Si Si2 0.806207 0.359735 0.328065
Si Si3 0.420539 0.706853 0.115407
Si Si4 0.328227 0.179081 0.338187
Si Si5 0.543983 0.736485 0.835418
O O1 0.078926 0.921075 0.500000
O O2 0.093044 0.759607 0.650187
O O3 0.137328 0.913360 0.781271
O O4 0.958330 0.861933 0.745604
O O5 0.736422 0.270904 0.340927
O O6 0.839543 0.379301 0.503583
O O7 0.885712 0.320327 0.211989
O O8 0.756444 0.450140 0.261605
O O9 0.381996 0.805008 0.186255
O O10 0.346567 0.653434 0.000000
O O11 0.512234 0.729613 0.012463
#
# Coordination Sequence:
#
# PCOD9547171 Si02
#       5
#     8   8   8   8   8
#     4  11  23  45  71  98 139 190 232 281 345 420
#     4  10  21  42  68  97 132 184 235 274 338 423
#     4  12  26  41  69 107 140 175 231 296 348 403
#     4  10  21  43  70  95 128 190 238 265 339 424
#     4  11  23  41  67 100 142 176 227 288 352 400
#
# _framework density 23.171343
#
# number of rings (size 3 to 8) (size 9 to 14) (size 15 to 20)
#    0.000    1.200    6.000    1.800    2.800    2.000 
#    0.000    1.000    0.000    0.600    0.000    0.000 
#    0.000    0.000    0.000    0.000    0.000    0.000 
#
# Total GULP energy -223488.409806 kJ/mol
# GULP energy per Si atom -5587.210245 kJ/mol
# Density = 2.311860 g / cm^3
# Si number density = 23.171343 Si / 1000 Ang^3
#
#
#
# Elastic Constant Matrix: (Units=GPa)
#
#
# Indices 1 2 3 4 5 6 
#
# 1 52.2995 33.1070 25.4639 0.0000 0.0000 0.0000
# 2 33.1070 52.3017 25.4647 0.0000 0.0000 0.0000
# 3 25.4639 25.4647 137.6167 0.0000 0.0000 0.0000
# 4 0.0000 0.0000 0.0000 28.8316 0.0000 0.0000
# 5 0.0000 0.0000 0.0000 0.0000 28.8326 0.0000
# 6 0.0000 0.0000 0.0000 0.0000 0.0000 30.3338
#
#
#
# Elastic Compliance Matrix: (Units=1/GPa)
#
#
# Indices 1 2 3 4 5 6 
#
# 1 0.032631 -0.019470 -0.002435 0.000000 0.000000 0.000000
# 2 -0.019470 0.032630 -0.002435 0.000000 0.000000 0.000000
# 3 -0.002435 -0.002435 0.008168 0.000000 0.000000 0.000000
# 4 0.000000 0.000000 0.000000 0.034684 0.000000 0.000000
# 5 0.000000 0.000000 0.000000 0.000000 0.034683 0.000000
# 6 0.000000 0.000000 0.000000 0.000000 0.000000 0.032967
#
#
# Mechanical properties :
#
#
# Convention : Reuss Voigt Hill
#
# Bulk Modulus (GPa) = 40.40691 45.58769 42.99730
# Shear Modulus (GPa) = 21.48753 28.14508 24.81631
#
# Velocity S-wave (km/s) = 3.04852 3.48896 3.27615
# Velocity P-wave (km/s) = 5.46511 5.99561 5.73650
#
# Compressibility (1/GPa) = 0.02474824
#
# Stress axis : x y z
#
# Youngs Moduli (GPa) = 30.64539 30.64661 122.43226
#
# Poissons Ratio (x) = 0.59669 0.29815
# Poissons Ratio (y) = 0.59667 0.29815
# Poissons Ratio (z) = 0.07463 0.07463
#
# Static dielectric constant tensor:
#      x y z
#    x 1.893140 0.000000 0.000000 
#    y 0.000000 1.893140 0.000000 
#    z 0.000000 0.000000 2.017020 
# 
# From -- ./inp_files/1308.got.cif
#   From: 2010.05.17/outbox.cif.g08.bks.cpg/sg90_1_cif.got.tgz:1308.got - 2010.06.03 19:17:45.
