data_PCOD9547458
_publ_section_title
;
Structure prediction by ZEFSAII (Michael W. Deem and Ramdas Pophale) SiO2 
 PCOD9547458
Probable space group: P 4 21 2
;
_chemical_formula_sum "Si O2"
_cell_formula_units_Z 58
_cell_length_a 18.000000
_cell_length_b 18.000000
_cell_length_c 9.000000
_cell_angle_alpha 90.000000
_cell_angle_beta 90.000000
_cell_angle_gamma 90.000000
_cell_volume 2916.000000
_symmetry_space_group_name_H-M "P 4 21 2"
_symmetry_group_IT_number 90
_symmetry_cell_setting 'tetragonal'
loop_
_space_group_symop_operation_xyz
x,y,z
1/2-y,1/2+x,z
-x,-y,z
1/2+y,1/2-x,z
1/2+x,1/2-y,-z
1/2-x,1/2+y,-z
y,x,-z
-y,-x,-z
loop_
_atom_site_type_symbol
_atom_site_label
_atom_site_fract_x
_atom_site_fract_y
_atom_site_fract_z
Si Si1 0.250107 0.069575 0.501297
Si Si2 0.125659 0.170457 0.208987
Si Si3 0.000000 0.000000 0.500000
Si Si4 0.888523 0.211561 0.897105
Si Si5 0.879026 0.485740 0.300480
Si Si6 0.203924 0.659566 0.763661
Si Si7 0.506460 0.366077 0.278727
Si Si8 0.537079 0.212100 0.987277
O O1 0.192521 0.101031 0.623410
O O2 0.308698 0.022618 0.593684
O O3 0.291924 0.132851 0.406562
O O4 0.207531 0.024331 0.374130
O O5 0.212868 0.186249 0.196898
O O6 0.117215 0.082066 0.188293
O O7 0.080811 0.222135 0.097999
O O8 0.070080 0.997796 0.395672
O O9 0.850483 0.272675 0.792932
O O10 0.932425 0.146290 0.813152
O O11 0.826401 0.173600 0.000000
O O12 0.956437 0.255465 0.974051
O O13 0.920324 0.562502 0.328381
O O14 0.852809 0.475504 0.131094
O O15 0.188859 0.589043 0.873513
#
# Coordination Sequence:
#
# PCOD9547458 Si02
#       8
#     8   8   2   8   8   8   8   8
#     4  10  21  41  69  91 121 170 223 264 313 403
#     4  10  20  42  67  89 116 174 218 249 319 404
#     4  12  24  44  62  88 136 176 196 278 328 396
#     4  12  27  40  60 104 133 162 221 284 323 380
#     4  10  23  40  63  97 132 169 216 269 330 385
#     4  11  22  41  66  91 127 171 219 265 324 388
#     4  11  23  41  63  92 125 163 215 258 328 385
#     4  11  22  41  66  88 128 175 212 263 321 396
#
# _framework density 19.890260999999999
#
# number of rings (size 3 to 8) (size 9 to 14) (size 15 to 20)
#    0.000    1.241    4.138    3.310    3.862    1.103 
#    2.483    0.000    0.000    1.655    0.000    0.000 
#    0.000    0.000    0.000    0.000    0.000    0.000 
#
# Total GULP energy -323788.681355 kJ/mol
# GULP energy per Si atom -5582.563472 kJ/mol
# Density = 1.984499 g / cm^3
# Si number density = 19.890261 Si / 1000 Ang^3
#
#
#
# Elastic Constant Matrix: (Units=GPa)
#
#
# Indices 1 2 3 4 5 6 
#
# 1 37.3258 3.3752 -11.1085 0.0000 0.0000 0.0000
# 2 3.3752 37.3224 -11.1098 0.0000 0.0000 0.0000
# 3 -11.1085 -11.1098 43.3220 0.0000 0.0000 0.0000
# 4 0.0000 0.0000 0.0000 15.7708 0.0000 0.0000
# 5 0.0000 0.0000 0.0000 0.0000 15.7728 0.0000
# 6 0.0000 0.0000 0.0000 0.0000 0.0000 -4.1342
#
#
#
# Elastic Compliance Matrix: (Units=1/GPa)
#
#
# Indices 1 2 3 4 5 6 
#
# 1 0.029011 -0.000443 0.007325 0.000000 0.000000 0.000000
# 2 -0.000443 0.029015 0.007327 0.000000 0.000000 0.000000
# 3 0.007325 0.007327 0.026840 0.000000 0.000000 0.000000
# 4 0.000000 0.000000 0.000000 0.063408 0.000000 0.000000
# 5 0.000000 0.000000 0.000000 0.000000 0.063400 0.000000
# 6 0.000000 0.000000 0.000000 0.000000 0.000000 -0.241884
#
#
# Mechanical properties :
#
#
# Convention : Reuss Voigt Hill
#
# Bulk Modulus (GPa) = 8.82727 8.92044 8.87386
# Shear Modulus (GPa) = -239.62769 14.60276 -112.51246
#
# Velocity S-wave (km/s) = -10.98801 2.71249 -7.52924
# Velocity P-wave (km/s) = 12.51137 3.78216 8.43296
#
# Compressibility (1/GPa) = 0.11328526
#
# Stress axis : x y z
#
# Youngs Moduli (GPa) = 34.46936 34.46528 37.25734
#
# Poissons Ratio (x) = 0.01527 -0.27292
# Poissons Ratio (y) = 0.01527 -0.27299
# Poissons Ratio (z) = -0.25250 -0.25253
#
# Static dielectric constant tensor:
#      x y z
#    x 1.702850 0.000000 0.000000 
#    y 0.000000 1.702850 0.000000 
#    z 0.000000 0.000000 1.734120 
# 
# From -- ./inp_files/1635.got.cif
#   From: 2010.05.17/outbox.ucp.g08.bks.cvg/sg90_1_cif.got.tgz:1635.got - 2010.06.11 10:36:03.
