data_PCOD9547883
_publ_section_title
;
Structure prediction by ZEFSAII (Michael W. Deem and Ramdas Pophale) SiO2 
 PCOD9547883
Probable space group: P 41 2 2
;
_chemical_formula_sum "Si O2"
_cell_formula_units_Z 36
_cell_length_a 15.173905
_cell_length_b 15.173905
_cell_length_c 7.952324
_cell_angle_alpha 90.000000
_cell_angle_beta 90.000000
_cell_angle_gamma 90.000000
_cell_volume 1831.001869
_symmetry_space_group_name_H-M "P 41 2 2"
_symmetry_group_IT_number 91
_symmetry_cell_setting 'tetragonal'
loop_
_space_group_symop_operation_xyz
x,y,z
-y,x,1/4+z
-x,-y,1/2+z
y,-x,3/4+z
x,-y,1/2-z
-x,y,-z
y,x,3/4-z
-y,-x,1/4-z
loop_
_atom_site_type_symbol
_atom_site_label
_atom_site_fract_x
_atom_site_fract_y
_atom_site_fract_z
Si Si1 0.221019 0.263334 0.065394
Si Si2 0.335603 0.335603 0.375000
Si Si3 0.091844 0.298874 0.577511
Si Si4 0.908753 0.392526 0.069320
Si Si5 0.459537 0.803035 0.178862
O O1 0.278370 0.313089 0.206845
O O2 0.223043 0.162322 0.127475
O O3 0.261945 0.261945 0.875000
O O4 0.128328 0.312046 0.043723
O O5 0.299702 0.431869 0.424731
O O6 0.075767 0.353374 0.747877
O O7 0.142745 0.370018 0.461729
O O8 0.000000 0.269877 0.500000
O O9 0.833778 0.466981 0.060548
O O10 0.000000 0.429931 0.000000
O O11 0.500000 0.827729 0.000000
#
# Coordination Sequence:
#
# PCOD9547883 Si02
#       5
#     8   4   8   8   8
#     4   9  20  36  54  80 114 157 195 233 293 364
#     4  10  20  36  58  76 112 156 196 240 294 372
#     4  10  21  35  54  85 119 153 196 240 300 367
#     4  11  21  35  56  86 119 151 190 253 305 365
#     4  11  20  34  55  82 110 149 192 242 304 360
#
# _framework density 19.661368
#
# number of rings (size 3 to 8) (size 9 to 14) (size 15 to 20)
#    0.000    1.778    2.222    2.667    3.111    0.000 
#    0.000    0.000    0.000    0.000    8.667   14.000 
#    0.000    0.000    0.000    0.000    0.000    0.000 
#
# Total GULP energy -200652.910652 kJ/mol
# GULP energy per Si atom -5573.691963 kJ/mol
# Density = 1.961662 g / cm^3
# Si number density = 19.661368 Si / 1000 Ang^3
#
#
#
# Elastic Constant Matrix: (Units=GPa)
#
#
# Indices 1 2 3 4 5 6 
#
# 1 71.7278 48.9344 20.3701 0.0000 0.0000 0.0000
# 2 48.9344 71.7278 20.3701 0.0000 0.0000 0.0000
# 3 20.3701 20.3701 95.5824 0.0000 0.0000 0.0000
# 4 0.0000 0.0000 0.0000 25.0732 0.0000 0.0000
# 5 0.0000 0.0000 0.0000 0.0000 25.0732 0.0000
# 6 0.0000 0.0000 0.0000 0.0000 0.0000 28.3965
#
#
#
# Elastic Compliance Matrix: (Units=1/GPa)
#
#
# Indices 1 2 3 4 5 6 
#
# 1 0.026401 -0.017471 -0.001903 0.000000 0.000000 0.000000
# 2 -0.017471 0.026401 -0.001903 0.000000 0.000000 0.000000
# 3 -0.001903 -0.001903 0.011273 0.000000 0.000000 0.000000
# 4 0.000000 0.000000 0.000000 0.039883 0.000000 0.000000
# 5 0.000000 0.000000 0.000000 0.000000 0.039883 0.000000
# 6 0.000000 0.000000 0.000000 0.000000 0.000000 0.035216
#
#
# Mechanical properties :
#
#
# Convention : Reuss Voigt Hill
#
# Bulk Modulus (GPa) = 46.46604 46.48744 46.47674
# Shear Modulus (GPa) = 21.85443 25.66614 23.76029
#
# Velocity S-wave (km/s) = 3.33760 3.61697 3.48009
# Velocity P-wave (km/s) = 6.20783 6.41394 6.31173
#
# Compressibility (1/GPa) = 0.02152109
#
# Stress axis : x y z
#
# Youngs Moduli (GPa) = 37.87692 37.87692 88.70469
#
# Poissons Ratio (x) = 0.66175 0.16882
# Poissons Ratio (y) = 0.66175 0.16882
# Poissons Ratio (z) = 0.07209 0.07209
#
# Static dielectric constant tensor:
#      x y z
#    x 1.725510 0.000000 0.000000 
#    y 0.000000 1.725510 0.000000 
#    z 0.000000 0.000000 1.748810 
# 
# From -- ./inp_files/9584.got.cif
#   From: 2010.05.17/outbox.cif.g08.bks.cpg/sg91_5_cif.got.tgz:9584.got - 2010.06.03 19:20:03.
