data_PCOD9547845
_publ_section_title
;
Structure prediction by ZEFSAII (Michael W. Deem and Ramdas Pophale) SiO2 
 PCOD9547845
Probable space group: P 41 2 2
;
_chemical_formula_sum "Si O2"
_cell_formula_units_Z 48
_cell_length_a 10.783340
_cell_length_b 10.783340
_cell_length_c 21.761182
_cell_angle_alpha 90.000000
_cell_angle_beta 90.000000
_cell_angle_gamma 90.000000
_cell_volume 2530.399417
_symmetry_space_group_name_H-M "P 41 2 2"
_symmetry_group_IT_number 91
_symmetry_cell_setting 'tetragonal'
loop_
_space_group_symop_operation_xyz
x,y,z
-y,x,1/4+z
-x,-y,1/2+z
y,-x,3/4+z
x,-y,1/2-z
-x,y,-z
y,x,3/4-z
-y,-x,1/4-z
loop_
_atom_site_type_symbol
_atom_site_label
_atom_site_fract_x
_atom_site_fract_y
_atom_site_fract_z
Si Si1 0.908227 0.473576 0.629671
Si Si2 0.476590 0.372283 0.573806
Si Si3 0.986682 0.284190 0.805851
Si Si4 0.973741 0.026260 0.125000
Si Si5 0.422760 0.000000 0.250000
Si Si6 0.951399 0.765212 0.176252
Si Si7 0.716244 0.218899 0.817412
O O1 0.767522 0.488774 0.653224
O O2 0.988188 0.582228 0.662142
O O3 0.933812 0.491766 0.556978
O O4 0.953640 0.335608 0.647616
O O5 0.500000 0.388017 0.500000
O O6 0.540603 0.459398 0.625000
O O7 0.328334 0.379928 0.576519
O O8 0.068720 0.275689 0.745511
O O9 0.842098 0.267175 0.785946
O O10 0.015753 0.162460 0.845800
O O11 0.990947 0.909391 0.171293
O O12 0.338859 0.106785 0.220633
O O13 0.830675 0.753930 0.134152
#
# Coordination Sequence:
#
# PCOD9547845 Si02
#       7
#     8   8   8   4   4   8   8
#     4  10  21  36  59  87 118 157 205 250 312 367
#     4  11  22  39  62  90 124 163 205 265 317 385
#     4  10  20  37  53  87 122 155 194 249 301 368
#     4  10  22  34  56  92 116 152 204 240 310 354
#     4  10  20  38  62  82 120 162 202 254 304 372
#     4  10  20  34  60  83 117 151 196 256 292 358
#     4   9  21  36  57  92 117 151 204 254 302 362
#
# _framework density 18.969336999999999
#
# number of rings (size 3 to 8) (size 9 to 14) (size 15 to 20)
#    0.000    2.000    0.000    4.000    8.167    0.000 
#    9.000    3.333    7.333    0.000    0.000    0.000 
#    0.000    0.000    0.000    0.000    0.000    0.000 
#
# Total GULP energy -267317.940167 kJ/mol
# GULP energy per Si atom -5569.123753 kJ/mol
# Density = 1.892616 g / cm^3
# Si number density = 18.969337 Si / 1000 Ang^3
#
#
#
# Elastic Constant Matrix: (Units=GPa)
#
#
# Indices 1 2 3 4 5 6 
#
# 1 57.5335 6.6150 15.3390 0.0000 0.0000 0.0000
# 2 6.6150 57.5337 15.3386 0.0000 0.0000 0.0000
# 3 15.3390 15.3386 117.9093 0.0000 0.0000 0.0000
# 4 0.0000 0.0000 0.0000 24.2812 0.0000 0.0000
# 5 0.0000 0.0000 0.0000 0.0000 24.2812 0.0000
# 6 0.0000 0.0000 0.0000 0.0000 0.0000 20.2503
#
#
#
# Elastic Compliance Matrix: (Units=1/GPa)
#
#
# Indices 1 2 3 4 5 6 
#
# 1 0.018131 -0.001508 -0.002163 0.000000 0.000000 0.000000
# 2 -0.001508 0.018131 -0.002162 0.000000 0.000000 0.000000
# 3 -0.002163 -0.002162 0.009044 0.000000 0.000000 0.000000
# 4 0.000000 0.000000 0.000000 0.041184 0.000000 0.000000
# 5 0.000000 0.000000 0.000000 0.000000 0.041184 0.000000
# 6 0.000000 0.000000 0.000000 0.000000 0.000000 0.049382
#
#
# Mechanical properties :
#
#
# Convention : Reuss Voigt Hill
#
# Bulk Modulus (GPa) = 29.72674 34.17352 31.95013
# Shear Modulus (GPa) = 25.00807 26.80814 25.90810
#
# Velocity S-wave (km/s) = 3.63484 3.76338 3.69967
# Velocity P-wave (km/s) = 5.77244 6.07769 5.92703
#
# Compressibility (1/GPa) = 0.03363975
#
# Stress axis : x y z
#
# Youngs Moduli (GPa) = 55.15379 55.15408 110.57391
#
# Poissons Ratio (x) = 0.08318 0.23912
# Poissons Ratio (y) = 0.08318 0.23911
# Poissons Ratio (z) = 0.11927 0.11927
#
# Static dielectric constant tensor:
#      x y z
#    x 1.684410 0.000000 0.000000 
#    y 0.000000 1.684410 0.000000 
#    z 0.000000 0.000000 1.721640 
# 
# From -- ./inp_files/16929.got.cif
#   From: 2010.05.17/outbox.cif.g08.bks.cpg/sg91_9_cif.got.tgz:16929.got - 2010.06.03 19:20:03.
