data_PCOD9547926
_publ_section_title
;
Structure prediction by ZEFSAII (Michael W. Deem and Ramdas Pophale) SiO2 
 PCOD9547926
Probable space group: P 41 2 2
;
_chemical_formula_sum "Si O2"
_cell_formula_units_Z 32
_cell_length_a 12.917556
_cell_length_b 12.917556
_cell_length_c 9.866185
_cell_angle_alpha 90.000000
_cell_angle_beta 90.000000
_cell_angle_gamma 90.000000
_cell_volume 1646.303724
_symmetry_space_group_name_H-M "P 41 2 2"
_symmetry_group_IT_number 91
_symmetry_cell_setting 'tetragonal'
loop_
_space_group_symop_operation_xyz
x,y,z
-y,x,1/4+z
-x,-y,1/2+z
y,-x,3/4+z
x,-y,1/2-z
-x,y,-z
y,x,3/4-z
-y,-x,1/4-z
loop_
_atom_site_type_symbol
_atom_site_label
_atom_site_fract_x
_atom_site_fract_y
_atom_site_fract_z
Si Si1 0.752554 0.082863 0.071825
Si Si2 0.861324 0.686279 0.730407
Si Si3 0.165341 0.674141 0.957915
Si Si4 0.119354 0.545557 0.508875
O O1 0.851424 0.148577 0.125000
O O2 0.649762 0.122343 0.151156
O O3 0.726507 0.103424 0.914667
O O4 0.752939 0.957383 0.083219
O O5 0.749197 0.736721 0.715400
O O6 0.856047 0.582808 0.642237
O O7 0.881353 0.676226 0.890294
O O8 0.181442 0.551879 0.933761
O O9 0.000000 0.511139 0.500000
#
# Coordination Sequence:
#
# PCOD9547926 Si02
#       4
#     8   8   8   8
#     4  11  21  37  61  86 122 156 196 241 299 360
#     4  10  22  37  59  89 117 158 192 249 303 344
#     4  11  21  36  61  88 118 150 204 242 291 359
#     4  10  20  37  61  86 115 152 196 249 295 347
#
# _framework density 19.437483
#
# number of rings (size 3 to 8) (size 9 to 14) (size 15 to 20)
#    0.000    1.500    2.500    3.750    0.000    4.000 
#    0.000    0.000   22.000    0.000   19.500    0.000 
#    0.000    0.000    0.000    0.000    0.000    0.000 
#
# Total GULP energy -178261.273482 kJ/mol
# GULP energy per Si atom -5570.664796 kJ/mol
# Density = 1.939324 g / cm^3
# Si number density = 19.437483 Si / 1000 Ang^3
#
#
#
# Elastic Constant Matrix: (Units=GPa)
#
#
# Indices 1 2 3 4 5 6 
#
# 1 80.7676 41.9771 11.9204 0.0000 0.0000 0.0000
# 2 41.9771 80.7711 11.9211 0.0000 0.0000 0.0000
# 3 11.9204 11.9211 67.5822 0.0000 0.0000 0.0000
# 4 0.0000 0.0000 0.0000 28.5273 0.0000 0.0000
# 5 0.0000 0.0000 0.0000 0.0000 28.5269 0.0000
# 6 0.0000 0.0000 0.0000 0.0000 0.0000 18.1771
#
#
#
# Elastic Compliance Matrix: (Units=1/GPa)
#
#
# Indices 1 2 3 4 5 6 
#
# 1 0.017107 -0.008671 -0.001488 0.000000 0.000000 0.000000
# 2 -0.008671 0.017107 -0.001488 0.000000 0.000000 0.000000
# 3 -0.001488 -0.001488 0.015322 0.000000 0.000000 0.000000
# 4 0.000000 0.000000 0.000000 0.035054 0.000000 0.000000
# 5 0.000000 0.000000 0.000000 0.000000 0.035055 0.000000
# 6 0.000000 0.000000 0.000000 0.000000 0.000000 0.055014
#
#
# Mechanical properties :
#
#
# Convention : Reuss Voigt Hill
#
# Bulk Modulus (GPa) = 38.10755 40.08424 39.09589
# Shear Modulus (GPa) = 24.18957 25.93309 25.06133
#
# Velocity S-wave (km/s) = 3.53155 3.65660 3.59462
# Velocity P-wave (km/s) = 6.02303 6.20440 6.11439
#
# Compressibility (1/GPa) = 0.02624152
#
# Stress axis : x y z
#
# Youngs Moduli (GPa) = 58.45393 58.45636 65.26679
#
# Poissons Ratio (x) = 0.50689 0.09711
# Poissons Ratio (y) = 0.50687 0.09712
# Poissons Ratio (z) = 0.08698 0.08699
#
# Static dielectric constant tensor:
#      x y z
#    x 1.695970 0.000000 0.000000 
#    y 0.000000 1.695970 0.000000 
#    z 0.000000 0.000000 1.784150 
# 
# From -- ./inp_files/3343.got.cif
#   From: 2010.05.17/outbox.cif.g08.bks.cpg/sg91_2_cif.got.tgz:3343.got - 2010.06.03 19:20:03.
