data_PCOD9547836
_publ_section_title
;
Structure prediction by ZEFSAII (Michael W. Deem and Ramdas Pophale) SiO2 
 PCOD9547836
Probable space group: P 41 2 2
;
_chemical_formula_sum "Si O2"
_cell_formula_units_Z 48
_cell_length_a 13.970149
_cell_length_b 13.970149
_cell_length_c 11.246899
_cell_angle_alpha 90.000000
_cell_angle_beta 90.000000
_cell_angle_gamma 90.000000
_cell_volume 2195.001753
_symmetry_space_group_name_H-M "P 41 2 2"
_symmetry_group_IT_number 91
_symmetry_cell_setting 'tetragonal'
loop_
_space_group_symop_operation_xyz
x,y,z
-y,x,1/4+z
-x,-y,1/2+z
y,-x,3/4+z
x,-y,1/2-z
-x,y,-z
y,x,3/4-z
-y,-x,1/4-z
loop_
_atom_site_type_symbol
_atom_site_label
_atom_site_fract_x
_atom_site_fract_y
_atom_site_fract_z
Si Si1 0.920947 0.247819 0.400558
Si Si2 0.653124 0.920460 0.989115
Si Si3 0.259039 0.644538 0.514653
Si Si4 0.721906 0.718325 0.008425
Si Si5 0.182152 0.891971 0.740737
Si Si6 0.489032 0.898785 0.805818
O O1 0.829942 0.306925 0.450880
O O2 0.882195 0.150152 0.345945
O O3 0.000000 0.232475 0.500000
O O4 0.977988 0.306545 0.300022
O O5 0.727532 0.834029 0.992271
O O6 0.572394 0.880251 0.900011
O O7 0.602883 0.926719 0.115186
O O8 0.332232 0.667769 0.625000
O O9 0.299320 0.657022 0.377584
O O10 0.181110 0.729739 0.523162
O O11 0.194660 0.546887 0.517351
O O12 0.687621 0.687621 0.875000
O O13 0.117598 0.882402 0.625000
O O14 0.214090 0.000000 0.750000
O O15 0.518976 0.000000 0.750000
#
# Coordination Sequence:
#
# PCOD9547836 Si02
#       6
#     8   8   8   8   8   8
#     4  11  22  35  55  70 109 149 204 250 295 344
#     4  10  22  39  51  83 108 149 210 244 304 356
#     4   9  20  36  56  80 107 144 188 242 309 363
#     4  10  20  34  55  71 106 155 191 250 293 343
#     4  10  23  34  47  71 103 143 197 252 288 344
#     4  10  21  34  61  79 111 146 194 254 299 370
#
# _framework density 21.867865999999999
#
# number of rings (size 3 to 8) (size 9 to 14) (size 15 to 20)
#    0.000    2.000    1.667    1.000   14.000    0.667 
#    0.000    0.000    0.000    0.000    0.000    0.000 
#    0.000    0.000    0.000   24.000    2.000    0.000 
#
# Total GULP energy -267454.948876 kJ/mol
# GULP energy per Si atom -5571.978102 kJ/mol
# Density = 2.181809 g / cm^3
# Si number density = 21.867866 Si / 1000 Ang^3
#
#
#
# Elastic Constant Matrix: (Units=GPa)
#
#
# Indices 1 2 3 4 5 6 
#
# 1 34.5620 20.1473 15.9295 0.0000 0.0000 0.0000
# 2 20.1473 34.5623 15.9296 0.0000 0.0000 0.0000
# 3 15.9295 15.9296 122.2491 0.0000 0.0000 0.0000
# 4 0.0000 0.0000 0.0000 27.8688 0.0000 0.0000
# 5 0.0000 0.0000 0.0000 0.0000 27.8687 0.0000
# 6 0.0000 0.0000 0.0000 0.0000 0.0000 16.2855
#
#
#
# Elastic Compliance Matrix: (Units=1/GPa)
#
#
# Indices 1 2 3 4 5 6 
#
# 1 0.044576 -0.024797 -0.002577 0.000000 0.000000 0.000000
# 2 -0.024797 0.044576 -0.002577 0.000000 0.000000 0.000000
# 3 -0.002577 -0.002577 0.008852 0.000000 0.000000 0.000000
# 4 0.000000 0.000000 0.000000 0.035882 0.000000 0.000000
# 5 0.000000 0.000000 0.000000 0.000000 0.035883 0.000000
# 6 0.000000 0.000000 0.000000 0.000000 0.000000 0.061404
#
#
# Mechanical properties :
#
#
# Convention : Reuss Voigt Hill
#
# Bulk Modulus (GPa) = 26.24614 32.82071 29.53343
# Shear Modulus (GPa) = 16.45947 23.69573 20.07760
#
# Velocity S-wave (km/s) = 2.74647 3.29536 3.03336
# Velocity P-wave (km/s) = 4.69954 5.43327 5.07967
#
# Compressibility (1/GPa) = 0.03810084
#
# Stress axis : x y z
#
# Youngs Moduli (GPa) = 22.43347 22.43365 112.97278
#
# Poissons Ratio (x) = 0.55628 0.29117
# Poissons Ratio (y) = 0.55628 0.29117
# Poissons Ratio (z) = 0.05782 0.05782
#
# Static dielectric constant tensor:
#      x y z
#    x 1.831080 0.000000 0.000000 
#    y 0.000000 1.831080 0.000000 
#    z 0.000000 0.000000 1.943470 
# 
# From -- ./inp_files/15898.got.cif
#   From: 2010.05.17/outbox.cif.g08.bks.cpg/sg91_8_cif.got.tgz:15898.got - 2010.06.03 19:20:03.
