data_PCOD9547840
_publ_section_title
;
Structure prediction by ZEFSAII (Michael W. Deem and Ramdas Pophale) SiO2 
 PCOD9547840
Probable space group: P 41 2 2
;
_chemical_formula_sum "Si O2"
_cell_formula_units_Z 40
_cell_length_a 8.984274
_cell_length_b 8.984274
_cell_length_c 26.177464
_cell_angle_alpha 90.000000
_cell_angle_beta 90.000000
_cell_angle_gamma 90.000000
_cell_volume 2112.971055
_symmetry_space_group_name_H-M "P 41 2 2"
_symmetry_group_IT_number 91
_symmetry_cell_setting 'tetragonal'
loop_
_space_group_symop_operation_xyz
x,y,z
-y,x,1/4+z
-x,-y,1/2+z
y,-x,3/4+z
x,-y,1/2-z
-x,y,-z
y,x,3/4-z
-y,-x,1/4-z
loop_
_atom_site_type_symbol
_atom_site_label
_atom_site_fract_x
_atom_site_fract_y
_atom_site_fract_z
Si Si1 0.823841 0.034274 0.906820
Si Si2 0.503876 0.908100 0.587906
Si Si3 0.263499 0.155002 0.571489
Si Si4 0.942354 0.000000 0.750000
Si Si5 0.320899 0.500000 0.750000
Si Si6 0.345485 0.486411 0.581662
O O1 0.650854 0.993868 0.906052
O O2 0.843575 0.188410 0.877237
O O3 0.902441 0.038141 0.961124
O O4 0.911849 0.911849 0.875000
O O5 0.552426 0.788866 0.544868
O O6 0.475705 0.811190 0.639366
O O7 0.368349 0.010189 0.569129
O O8 0.125025 0.147786 0.531946
O O9 0.346476 0.312456 0.567785
O O10 0.421149 0.380168 0.780305
O O11 0.466199 0.533801 0.625000
#
# Coordination Sequence:
#
# PCOD9547840 Si02
#       6
#     8   8   8   4   4   8
#     4   9  20  36  54  82 115 146 187 233 280 336
#     4  10  20  36  58  82 109 148 189 229 283 339
#     4  10  21  38  59  83 114 150 186 234 285 332
#     4  10  20  34  56  86 116 144 186 232 280 336
#     4  10  20  34  56  82 110 144 188 230 272 334
#     4   9  21  39  57  83 116 147 187 233 279 337
#
# _framework density 18.930690999999999
#
# number of rings (size 3 to 8) (size 9 to 14) (size 15 to 20)
#    0.000    2.400    0.000    1.200    0.000   12.000 
#    0.000   16.000    0.000    6.000    0.000    0.000 
#    0.000    0.000    0.000    0.000    0.000    0.000 
#
# Total GULP energy -222703.919354 kJ/mol
# GULP energy per Si atom -5567.597984 kJ/mol
# Density = 1.888760 g / cm^3
# Si number density = 18.930691 Si / 1000 Ang^3
#
#
#
# Elastic Constant Matrix: (Units=GPa)
#
#
# Indices 1 2 3 4 5 6 
#
# 1 72.5587 53.6959 24.8004 0.0000 0.0000 0.0000
# 2 53.6959 72.5588 24.8000 0.0000 0.0000 0.0000
# 3 24.8004 24.8000 68.3953 0.0000 0.0000 0.0000
# 4 0.0000 0.0000 0.0000 13.5562 0.0000 0.0000
# 5 0.0000 0.0000 0.0000 0.0000 13.5561 0.0000
# 6 0.0000 0.0000 0.0000 0.0000 0.0000 17.3888
#
#
#
# Elastic Compliance Matrix: (Units=1/GPa)
#
#
# Indices 1 2 3 4 5 6 
#
# 1 0.031125 -0.021889 -0.003349 0.000000 0.000000 0.000000
# 2 -0.021889 0.031125 -0.003349 0.000000 0.000000 0.000000
# 3 -0.003349 -0.003349 0.017050 0.000000 0.000000 0.000000
# 4 0.000000 0.000000 0.000000 0.073767 0.000000 0.000000
# 5 0.000000 0.000000 0.000000 0.000000 0.073767 0.000000
# 6 0.000000 0.000000 0.000000 0.000000 0.000000 0.057508
#
#
# Mechanical properties :
#
#
# Convention : Reuss Voigt Hill
#
# Bulk Modulus (GPa) = 45.19606 46.67837 45.93722
# Shear Modulus (GPa) = 14.33108 16.24799 15.28953
#
# Velocity S-wave (km/s) = 2.75440 2.93283 2.84502
# Velocity P-wave (km/s) = 5.83455 6.01496 5.92544
#
# Compressibility (1/GPa) = 0.02212582
#
# Stress axis : x y z
#
# Youngs Moduli (GPa) = 32.12825 32.12846 58.65224
#
# Poissons Ratio (x) = 0.70326 0.19644
# Poissons Ratio (y) = 0.70325 0.19642
# Poissons Ratio (z) = 0.10761 0.10759
#
# Static dielectric constant tensor:
#      x y z
#    x 1.678700 0.000000 0.000000 
#    y 0.000000 1.678700 0.000000 
#    z 0.000000 0.000000 1.700400 
# 
# From -- ./inp_files/7427.got.cif
#   From: 2010.05.17/outbox.cif.g08.bks.cpg/sg91_4_cif.got.tgz:7427.got - 2010.06.03 19:20:03.
