data_PCOD9547738
_publ_section_title
;
Structure prediction by ZEFSAII (Michael W. Deem and Ramdas Pophale) SiO2 
 PCOD9547738
Probable space group: P 41 2 2
;
_chemical_formula_sum "Si O2"
_cell_formula_units_Z 56
_cell_length_a 15.432408
_cell_length_b 15.432408
_cell_length_c 13.224994
_cell_angle_alpha 90.000000
_cell_angle_beta 90.000000
_cell_angle_gamma 90.000000
_cell_volume 3149.654212
_symmetry_space_group_name_H-M "P 41 2 2"
_symmetry_group_IT_number 91
_symmetry_cell_setting 'tetragonal'
loop_
_space_group_symop_operation_xyz
x,y,z
-y,x,1/4+z
-x,-y,1/2+z
y,-x,3/4+z
x,-y,1/2-z
-x,y,-z
y,x,3/4-z
-y,-x,1/4-z
loop_
_atom_site_type_symbol
_atom_site_label
_atom_site_fract_x
_atom_site_fract_y
_atom_site_fract_z
Si Si1 0.535353 0.100919 0.228881
Si Si2 0.909796 0.341588 0.452286
Si Si3 0.809251 0.781637 0.665749
Si Si4 0.624163 0.056802 0.033851
Si Si5 0.852766 0.588123 0.689196
Si Si6 0.103211 0.055392 0.477681
Si Si7 0.812088 0.115397 0.027165
O O1 0.433598 0.110712 0.251266
O O2 0.563049 0.110180 0.111585
O O3 0.578349 0.155872 0.317482
O O4 0.557429 0.000000 0.250000
O O5 0.835827 0.270779 0.461084
O O6 0.921702 0.368105 0.334797
O O7 0.000000 0.308696 0.500000
O O8 0.812058 0.683485 0.706377
O O9 0.896479 0.832765 0.695968
O O10 0.801284 0.800537 0.544569
O O11 0.721164 0.079123 0.067812
O O12 0.599040 0.955851 0.039043
O O13 0.825468 0.500000 0.750000
O O14 0.108853 0.108853 0.375000
O O15 0.000000 0.049864 0.500000
O O16 0.142477 0.960262 0.463526
O O17 0.868737 0.131264 0.125000
#
# Coordination Sequence:
#
# PCOD9547738 Si02
#       7
#     8   8   8   8   8   8   8
#     4   9  18  33  55  77 106 138 183 234 289 342
#     4  10  20  34  54  80 111 146 182 227 285 350
#     4  11  24  36  52  79 111 145 193 238 283 341
#     4  10  19  35  54  78 102 142 188 235 284 341
#     4  11  21  35  54  77 105 143 189 239 294 339
#     4  12  23  36  51  71 105 155 199 232 267 324
#     4  11  23  36  54  76 109 149 199 239 284 331
#
# _framework density 17.779730000000001
#
# number of rings (size 3 to 8) (size 9 to 14) (size 15 to 20)
#    0.000    1.429    2.857    4.714    2.000    1.143 
#    0.000    0.000    0.000    0.000    0.000    0.000 
#    0.000   16.000    0.000    0.000    0.000    0.000 
#
# Total GULP energy -311870.650344 kJ/mol
# GULP energy per Si atom -5569.118756 kJ/mol
# Density = 1.773926 g / cm^3
# Si number density = 17.779730 Si / 1000 Ang^3
#
#
#
# Elastic Constant Matrix: (Units=GPa)
#
#
# Indices 1 2 3 4 5 6 
#
# 1 69.4569 45.6237 20.4339 0.0000 0.0000 0.0000
# 2 45.6237 69.4572 20.4327 0.0000 0.0000 0.0000
# 3 20.4339 20.4327 46.1751 0.0000 0.0000 0.0000
# 4 0.0000 0.0000 0.0000 17.9953 0.0000 0.0000
# 5 0.0000 0.0000 0.0000 0.0000 17.9947 0.0000
# 6 0.0000 0.0000 0.0000 0.0000 0.0000 12.5406
#
#
#
# Elastic Compliance Matrix: (Units=1/GPa)
#
#
# Indices 1 2 3 4 5 6 
#
# 1 0.026134 -0.015824 -0.004563 0.000000 0.000000 0.000000
# 2 -0.015824 0.026134 -0.004562 0.000000 0.000000 0.000000
# 3 -0.004563 -0.004562 0.025694 0.000000 0.000000 0.000000
# 4 0.000000 0.000000 0.000000 0.055570 0.000000 0.000000
# 5 0.000000 0.000000 0.000000 0.000000 0.055572 0.000000
# 6 0.000000 0.000000 0.000000 0.000000 0.000000 0.079741
#
#
# Mechanical properties :
#
#
# Convention : Reuss Voigt Hill
#
# Bulk Modulus (GPa) = 35.63172 39.78553 37.70863
# Shear Modulus (GPa) = 15.23938 16.27937 15.75937
#
# Velocity S-wave (km/s) = 2.93084 3.02919 2.98042
# Velocity P-wave (km/s) = 5.61580 5.88729 5.75315
#
# Compressibility (1/GPa) = 0.02806488
#
# Stress axis : x y z
#
# Youngs Moduli (GPa) = 38.26420 38.26503 38.91898
#
# Poissons Ratio (x) = 0.60551 0.17758
# Poissons Ratio (y) = 0.60550 0.17753
# Poissons Ratio (z) = 0.17459 0.17455
#
# Static dielectric constant tensor:
#      x y z
#    x 1.630210 0.000000 0.000000 
#    y 0.000000 1.630210 0.000000 
#    z 0.000000 0.000000 1.695030 
# 
# From -- ./inp_files/16546.got.cif
#   From: 2010.05.17/outbox.cif.g08.bks.cpg/sg91_9_cif.got.tgz:16546.got - 2010.06.03 19:20:03.
