data_PCOD9547600
_publ_section_title
;
Structure prediction by ZEFSAII (Michael W. Deem and Ramdas Pophale) SiO2 
 PCOD9547600
Probable space group: P 41 2 2
;
_chemical_formula_sum "Si O2"
_cell_formula_units_Z 64
_cell_length_a 17.339632
_cell_length_b 17.339632
_cell_length_c 13.037031
_cell_angle_alpha 90.000000
_cell_angle_beta 90.000000
_cell_angle_gamma 90.000000
_cell_volume 3919.750738
_symmetry_space_group_name_H-M "P 41 2 2"
_symmetry_group_IT_number 91
_symmetry_cell_setting 'tetragonal'
loop_
_space_group_symop_operation_xyz
x,y,z
-y,x,1/4+z
-x,-y,1/2+z
y,-x,3/4+z
x,-y,1/2-z
-x,y,-z
y,x,3/4-z
-y,-x,1/4-z
loop_
_atom_site_type_symbol
_atom_site_label
_atom_site_fract_x
_atom_site_fract_y
_atom_site_fract_z
Si Si1 0.592684 0.091323 0.272919
Si Si2 0.178288 0.923369 0.183054
Si Si3 0.979806 0.734384 0.225381
Si Si4 0.907880 0.588835 0.983964
Si Si5 0.267537 0.169922 0.156178
Si Si6 0.205928 0.729052 0.521771
Si Si7 0.939012 0.830613 0.416538
Si Si8 0.413609 0.940727 0.004103
O O1 0.502474 0.099759 0.240836
O O2 0.648228 0.158316 0.229022
O O3 0.599499 0.101524 0.396477
O O4 0.613670 0.000000 0.250000
O O5 0.102270 0.897731 0.125000
O O6 0.239320 0.950822 0.097567
O O7 0.210161 0.851167 0.249480
O O8 0.167313 0.000000 0.250000
O O9 0.988831 0.644554 0.243501
O O10 0.899446 0.749758 0.171839
O O11 0.978205 0.778913 0.330509
O O12 0.852535 0.647438 0.046742
O O13 0.894824 0.594894 0.860848
O O14 0.000000 0.609441 0.000000
O O15 0.249877 0.245185 0.084755
O O16 0.257938 0.742063 0.625000
O O17 0.135457 0.788713 0.536628
O O18 0.910869 0.910869 0.375000
O O19 0.000000 0.844676 0.500000
O O20 0.500000 0.970828 0.000000
#
# Coordination Sequence:
#
# PCOD9547600 Si02
#       8
#     8   8   8   8   8   8   8   8
#     4  10  22  34  53  81 109 142 182 223 271 328
#     4  10  23  36  55  71  92 129 179 230 278 316
#     4  11  19  36  53  70  99 128 173 223 269 322
#     4  10  18  34  54  81 110 137 173 223 276 330
#     4  11  20  35  56  74 102 137 173 218 269 331
#     4  11  22  37  53  75 103 139 181 217 263 328
#     4  11  23  37  54  66  92 131 179 229 278 317
#     4  10  19  31  53  80 105 129 166 217 268 328
#
# _framework density 16.327567999999999
#
# number of rings (size 3 to 8) (size 9 to 14) (size 15 to 20)
#    0.000    1.500    5.000    2.250    3.500    0.000 
#    0.000    2.500    0.000    0.000    0.000    0.000 
#    0.000    0.000    0.000   16.875    0.000    0.125 
#
# Total GULP energy -356286.061101 kJ/mol
# GULP energy per Si atom -5566.969705 kJ/mol
# Density = 1.629041 g / cm^3
# Si number density = 16.327568 Si / 1000 Ang^3
#
#
#
# Elastic Constant Matrix: (Units=GPa)
#
#
# Indices 1 2 3 4 5 6 
#
# 1 63.9326 37.5316 40.8642 0.0000 0.0000 0.0000
# 2 37.5316 63.9301 40.8638 0.0000 0.0000 0.0000
# 3 40.8642 40.8638 85.7956 0.0000 0.0000 0.0000
# 4 0.0000 0.0000 0.0000 70.7872 0.0000 0.0000
# 5 0.0000 0.0000 0.0000 0.0000 70.8022 0.0000
# 6 0.0000 0.0000 0.0000 0.0000 0.0000 17.1822
#
#
#
# Elastic Compliance Matrix: (Units=1/GPa)
#
#
# Indices 1 2 3 4 5 6 
#
# 1 0.026934 -0.010944 -0.007616 0.000000 0.000000 0.000000
# 2 -0.010944 0.026936 -0.007617 0.000000 0.000000 0.000000
# 3 -0.007616 -0.007617 0.018911 0.000000 0.000000 0.000000
# 4 0.000000 0.000000 0.000000 0.014127 0.000000 0.000000
# 5 0.000000 0.000000 0.000000 0.000000 0.014124 0.000000
# 6 0.000000 0.000000 0.000000 0.000000 0.000000 0.058200
#
#
# Mechanical properties :
#
#
# Convention : Reuss Voigt Hill
#
# Bulk Modulus (GPa) = 48.95467 50.24195 49.59831
# Shear Modulus (GPa) = 22.89443 38.04756 30.47099
#
# Velocity S-wave (km/s) = 3.74865 4.83252 4.32467
# Velocity P-wave (km/s) = 6.98459 7.87246 7.44178
#
# Compressibility (1/GPa) = 0.02042706
#
# Stress axis : x y z
#
# Youngs Moduli (GPa) = 37.12738 37.12561 52.87982
#
# Poissons Ratio (x) = 0.40631 0.40274
# Poissons Ratio (y) = 0.40633 0.40276
# Poissons Ratio (z) = 0.28277 0.28277
#
# Static dielectric constant tensor:
#      x y z
#    x 1.505070 0.000000 0.000000 
#    y 0.000000 1.505060 0.000000 
#    z 0.000000 0.000000 1.651080 
# 
# From -- ./inp_files/16054.got.cif
#   From: 2010.05.17/outbox.cif.g08.bks.cpg/sg91_9_cif.got.tgz:16054.got - 2010.06.03 19:20:03.
