data_PCOD9547809
_publ_section_title
;
Structure prediction by ZEFSAII (Michael W. Deem and Ramdas Pophale) SiO2 
 PCOD9547809
Probable space group: P 41 2 2
;
_chemical_formula_sum "Si O2"
_cell_formula_units_Z 48
_cell_length_a 11.794238
_cell_length_b 11.794238
_cell_length_c 17.898466
_cell_angle_alpha 90.000000
_cell_angle_beta 90.000000
_cell_angle_gamma 90.000000
_cell_volume 2489.749109
_symmetry_space_group_name_H-M "P 41 2 2"
_symmetry_group_IT_number 91
_symmetry_cell_setting 'tetragonal'
loop_
_space_group_symop_operation_xyz
x,y,z
-y,x,1/4+z
-x,-y,1/2+z
y,-x,3/4+z
x,-y,1/2-z
-x,y,-z
y,x,3/4-z
-y,-x,1/4-z
loop_
_atom_site_type_symbol
_atom_site_label
_atom_site_fract_x
_atom_site_fract_y
_atom_site_fract_z
Si Si1 0.271134 0.177382 0.156887
Si Si2 0.302657 0.108147 0.503580
Si Si3 0.750949 0.750949 0.375000
Si Si4 0.060940 0.494675 0.358942
Si Si5 0.398857 0.000000 0.250000
Si Si6 0.208026 0.503334 0.835119
Si Si7 0.889953 0.862403 0.239068
O O1 0.221009 0.235702 0.229597
O O2 0.379234 0.243570 0.123423
O O3 0.320347 0.061042 0.189970
O O4 0.177144 0.155850 0.092608
O O5 0.385347 0.096593 0.575423
O O6 0.388642 0.114365 0.434664
O O7 0.211355 0.006218 0.497538
O O8 0.767634 0.615938 0.373311
O O9 0.807275 0.811493 0.302920
O O10 0.075526 0.479668 0.447398
O O11 0.928552 0.489346 0.335780
O O12 0.248441 0.500000 0.750000
O O13 0.902173 0.000000 0.250000
#
# Coordination Sequence:
#
# PCOD9547809 Si02
#       7
#     8   8   4   8   4   8   8
#     4  11  24  40  61  94 133 171 226 266 324 397
#     4  11  21  42  66  91 136 174 213 274 326 392
#     4  12  22  40  72  94 128 174 222 276 324 398
#     4  10  19  41  69  87 121 184 227 257 315 395
#     4  10  22  40  64  92 124 184 226 264 318 402
#     4  11  19  42  65  90 127 173 216 270 339 376
#     4  12  24  39  62 103 138 174 204 271 344 402
#
# _framework density 19.279050999999999
#
# number of rings (size 3 to 8) (size 9 to 14) (size 15 to 20)
#    0.000    1.000    8.333    1.000    1.167    3.333 
#    1.500    0.000    3.667    0.000    0.000    0.000 
#    0.000    0.000    0.000    0.000    0.000    0.000 
#
# Total GULP energy -267427.648273 kJ/mol
# GULP energy per Si atom -5571.409339 kJ/mol
# Density = 1.923517 g / cm^3
# Si number density = 19.279051 Si / 1000 Ang^3
#
#
#
# Elastic Constant Matrix: (Units=GPa)
#
#
# Indices 1 2 3 4 5 6 
#
# 1 86.8536 2.4562 8.3973 0.0000 0.0000 0.0000
# 2 2.4562 86.8536 8.3973 0.0000 0.0000 0.0000
# 3 8.3973 8.3973 65.1695 0.0000 0.0000 0.0000
# 4 0.0000 0.0000 0.0000 14.0854 0.0000 0.0000
# 5 0.0000 0.0000 0.0000 0.0000 14.0854 0.0000
# 6 0.0000 0.0000 0.0000 0.0000 0.0000 -29.6594
#
#
#
# Elastic Compliance Matrix: (Units=1/GPa)
#
#
# Indices 1 2 3 4 5 6 
#
# 1 0.011662 -0.000187 -0.001479 0.000000 0.000000 0.000000
# 2 -0.000187 0.011662 -0.001479 0.000000 0.000000 0.000000
# 3 -0.001479 -0.001479 0.015726 0.000000 0.000000 0.000000
# 4 0.000000 0.000000 0.000000 0.070995 0.000000 0.000000
# 5 0.000000 0.000000 0.000000 0.000000 0.070995 0.000000
# 6 0.000000 0.000000 0.000000 0.000000 0.000000 -0.033716
#
#
# Mechanical properties :
#
#
# Convention : Reuss Voigt Hill
#
# Bulk Modulus (GPa) = 30.52381 30.81982 30.67182
# Shear Modulus (GPa) = 30.38913 14.34400 22.36657
#
# Velocity S-wave (km/s) = 3.97454 2.73063 3.40979
# Velocity P-wave (km/s) = 6.07698 5.09536 5.60769
#
# Compressibility (1/GPa) = 0.03276131
#
# Stress axis : x y z
#
# Youngs Moduli (GPa) = 85.74956 85.74956 63.59033
#
# Poissons Ratio (x) = 0.01602 0.09402
# Poissons Ratio (y) = 0.01602 0.09402
# Poissons Ratio (z) = 0.12679 0.12679
#
# Static dielectric constant tensor:
#      x y z
#    x 1.860410 0.000000 0.000000 
#    y 0.000000 1.860410 0.000000 
#    z 0.000000 0.000000 1.712990 
# 
# From -- ./inp_files/5632.got.cif
#   From: 2010.05.17/outbox.cif.g08.bks.cpg/sg91_3_cif.got.tgz:5632.got - 2010.06.03 19:20:03.
