data_PCOD9547312
_publ_section_title
;
Structure prediction by ZEFSAII (Michael W. Deem and Ramdas Pophale) SiO2 
 PCOD9547312
Probable space group: P 4 21 2
;
_chemical_formula_sum "Si O2"
_cell_formula_units_Z 50
_cell_length_a 8.537596
_cell_length_b 8.537596
_cell_length_c 32.162134
_cell_angle_alpha 90.000000
_cell_angle_beta 90.000000
_cell_angle_gamma 90.000000
_cell_volume 2344.315490
_symmetry_space_group_name_H-M "P 4 21 2"
_symmetry_group_IT_number 90
_symmetry_cell_setting 'tetragonal'
loop_
_space_group_symop_operation_xyz
x,y,z
1/2-y,1/2+x,z
-x,-y,z
1/2+y,1/2-x,z
1/2+x,1/2-y,-z
1/2-x,1/2+y,-z
y,x,-z
-y,-x,-z
loop_
_atom_site_type_symbol
_atom_site_label
_atom_site_fract_x
_atom_site_fract_y
_atom_site_fract_z
Si Si1 0.914249 0.749650 0.703681
Si Si2 0.880476 0.734840 0.126916
Si Si3 0.748687 0.418951 0.464197
Si Si4 0.743444 0.893202 0.780047
Si Si5 0.413856 0.749472 0.629806
Si Si6 0.000000 0.500000 0.957323
Si Si7 0.578866 0.328713 0.043982
O O1 0.807948 0.592389 0.702629
O O2 0.864657 0.840321 0.745313
O O3 0.869834 0.856439 0.664428
O O4 0.798309 0.565839 0.124286
O O5 0.856647 0.801940 0.173239
O O6 0.825413 0.833419 0.088124
O O7 0.810821 0.595941 0.468043
O O8 0.630791 0.369210 0.500000
O O9 0.687709 0.395502 0.417243
O O10 0.576675 0.802070 0.775654
O O11 0.592330 0.809113 0.634401
O O12 0.042779 0.686149 0.957310
O O13 0.500000 0.500000 0.044940
O O14 0.669450 0.330551 0.000000
#
# Coordination Sequence:
#
# PCOD9547312 Si02
#       7
#     8   8   8   8   8   2   8
#     4  11  24  39  53  81 120 153 187 242 308 363
#     4   9  19  39  68  92 125 169 210 260 316 374
#     4   9  19  35  54  80 114 148 188 236 290 345
#     4   9  19  39  64  90 113 151 204 247 297 362
#     4   9  19  37  60  82 106 146 196 244 287 349
#     4  12  28  44  68 104 132 176 220 272 328 376
#     4  11  26  44  67 102 138 175 222 267 324 390
#
# _framework density 21.328188999999998
#
# number of rings (size 3 to 8) (size 9 to 14) (size 15 to 20)
#    0.000    2.240    0.000    3.840    4.480    5.440 
#    8.640    4.800    0.000    0.000    0.000    0.000 
#    0.000    0.000    0.000    0.000    0.000    0.000 
#
# Total GULP energy -278955.301286 kJ/mol
# GULP energy per Si atom -5579.106026 kJ/mol
# Density = 2.127965 g / cm^3
# Si number density = 21.328189 Si / 1000 Ang^3
#
#
#
# Elastic Constant Matrix: (Units=GPa)
#
#
# Indices 1 2 3 4 5 6 
#
# 1 51.5926 28.2799 50.3359 0.0000 0.0000 0.0000
# 2 28.2799 51.5924 50.3355 0.0000 0.0000 0.0000
# 3 50.3359 50.3355 172.8625 0.0000 0.0000 0.0000
# 4 0.0000 0.0000 0.0000 37.0175 0.0000 0.0000
# 5 0.0000 0.0000 0.0000 0.0000 37.0183 0.0000
# 6 0.0000 0.0000 0.0000 0.0000 0.0000 40.0032
#
#
#
# Elastic Compliance Matrix: (Units=1/GPa)
#
#
# Indices 1 2 3 4 5 6 
#
# 1 0.031337 -0.011558 -0.005760 0.000000 0.000000 0.000000
# 2 -0.011558 0.031337 -0.005759 0.000000 0.000000 0.000000
# 3 -0.005760 -0.005759 0.009139 0.000000 0.000000 0.000000
# 4 0.000000 0.000000 0.000000 0.027014 0.000000 0.000000
# 5 0.000000 0.000000 0.000000 0.000000 0.027014 0.000000
# 6 0.000000 0.000000 0.000000 0.000000 0.000000 0.024998
#
#
# Mechanical properties :
#
#
# Convention : Reuss Voigt Hill
#
# Bulk Modulus (GPa) = 38.97165 59.32779 49.14972
# Shear Modulus (GPa) = 24.32537 32.61421 28.46979
#
# Velocity S-wave (km/s) = 3.38083 3.91469 3.65751
# Velocity P-wave (km/s) = 5.79241 6.95054 6.39774
#
# Compressibility (1/GPa) = 0.02565968
#
# Stress axis : x y z
#
# Youngs Moduli (GPa) = 31.91091 31.91094 109.41913
#
# Poissons Ratio (x) = 0.36882 0.63021
# Poissons Ratio (y) = 0.36882 0.63020
# Poissons Ratio (z) = 0.18379 0.18379
#
# Static dielectric constant tensor:
#      x y z
#    x 1.751520 0.000000 0.000000 
#    y 0.000000 1.751520 0.000000 
#    z 0.000000 0.000000 1.749040 
# 
# From -- ./inp_files/3069.got.cif
#   From: 2010.05.17/outbox.cif.g08.bks.cpg/sg90_2_cif.got.tgz:3069.got - 2010.06.03 19:17:45.
