data_PCOD9547611
_publ_section_title
;
Structure prediction by ZEFSAII (Michael W. Deem and Ramdas Pophale) SiO2 
 PCOD9547611
Probable space group: P 41 2 2
;
_chemical_formula_sum "Si O2"
_cell_formula_units_Z 44
_cell_length_a 11.455321
_cell_length_b 11.455321
_cell_length_c 16.154965
_cell_angle_alpha 90.000000
_cell_angle_beta 90.000000
_cell_angle_gamma 90.000000
_cell_volume 2119.925253
_symmetry_space_group_name_H-M "P 41 2 2"
_symmetry_group_IT_number 91
_symmetry_cell_setting 'tetragonal'
loop_
_space_group_symop_operation_xyz
x,y,z
-y,x,1/4+z
-x,-y,1/2+z
y,-x,3/4+z
x,-y,1/2-z
-x,y,-z
y,x,3/4-z
-y,-x,1/4-z
loop_
_atom_site_type_symbol
_atom_site_label
_atom_site_fract_x
_atom_site_fract_y
_atom_site_fract_z
Si Si1 0.430543 0.500000 0.250000
Si Si2 0.756056 0.898171 0.535904
Si Si3 0.661814 0.136093 0.231112
Si Si4 0.580476 0.322837 0.342013
Si Si5 0.467090 0.189477 0.092833
Si Si6 0.903049 0.939994 0.068828
O O1 0.519154 0.393145 0.267010
O O2 0.346752 0.495415 0.171805
O O3 0.787400 0.781894 0.481234
O O4 0.626819 0.910973 0.572316
O O5 0.838263 0.883138 0.616119
O O6 0.794502 0.007719 0.480825
O O7 0.597685 0.192955 0.310473
O O8 0.574553 0.157005 0.152770
O O9 0.686606 0.000000 0.250000
O O10 0.701600 0.385732 0.368839
O O11 0.500000 0.225654 0.000000
O O12 0.956898 0.043103 0.125000
O O13 0.000000 0.908358 0.000000
#
# Coordination Sequence:
#
# PCOD9547611 Si02
#       6
#     4   8   8   8   8   8
#     4  10  18  34  64  92 112 156 212 264 302 364
#     4  10  23  37  66  91 126 162 215 259 322 378
#     4  11  24  42  59  90 131 167 204 266 321 385
#     4  10  20  37  63  89 123 157 210 260 313 368
#     4  11  24  38  58  91 122 165 205 260 319 377
#     4   9  18  37  63  93 119 160 210 266 311 375
#
# _framework density 20.755451000000001
#
# number of rings (size 3 to 8) (size 9 to 14) (size 15 to 20)
#    0.000    1.818    2.727    1.636    5.091    2.909 
#    1.636    0.000    0.000    0.000    0.000    0.000 
#    0.000    0.000    0.000    0.000    0.000    0.000 
#
# Total GULP energy -245066.448242 kJ/mol
# GULP energy per Si atom -5569.692005 kJ/mol
# Density = 2.070821 g / cm^3
# Si number density = 20.755451 Si / 1000 Ang^3
#
#
#
# Elastic Constant Matrix: (Units=GPa)
#
#
# Indices 1 2 3 4 5 6 
#
# 1 40.1307 -5.6582 14.0204 0.0000 0.0000 0.0000
# 2 -5.6582 40.1308 14.0218 0.0000 0.0000 0.0000
# 3 14.0204 14.0218 83.8806 0.0000 0.0000 0.0000
# 4 0.0000 0.0000 0.0000 28.4289 0.0000 0.0000
# 5 0.0000 0.0000 0.0000 0.0000 28.4288 0.0000
# 6 0.0000 0.0000 0.0000 0.0000 0.0000 18.0435
#
#
#
# Elastic Compliance Matrix: (Units=1/GPa)
#
#
# Indices 1 2 3 4 5 6 
#
# 1 0.027706 0.005867 -0.005612 0.000000 0.000000 0.000000
# 2 0.005867 0.027707 -0.005612 0.000000 0.000000 0.000000
# 3 -0.005612 -0.005612 0.013798 0.000000 0.000000 0.000000
# 4 0.000000 0.000000 0.000000 0.035175 0.000000 0.000000
# 5 0.000000 0.000000 0.000000 0.000000 0.035176 0.000000
# 6 0.000000 0.000000 0.000000 0.000000 0.000000 0.055422
#
#
# Mechanical properties :
#
#
# Convention : Reuss Voigt Hill
#
# Bulk Modulus (GPa) = 17.09481 23.21226 20.15354
# Shear Modulus (GPa) = 22.20284 24.43079 23.31682
#
# Velocity S-wave (km/s) = 3.27423 3.43458 3.35536
# Velocity P-wave (km/s) = 4.74850 5.19003 4.97417
#
# Compressibility (1/GPa) = 0.05849727
#
# Stress axis : x y z
#
# Youngs Moduli (GPa) = 36.09266 36.09237 72.47490
#
# Poissons Ratio (x) = -0.21176 0.40672
# Poissons Ratio (y) = -0.21176 0.40675
# Poissons Ratio (z) = 0.20255 0.20256
#
# Static dielectric constant tensor:
#      x y z
#    x 1.804080 0.000000 0.000000 
#    y 0.000000 1.804080 0.000000 
#    z 0.000000 0.000000 1.796770 
# 
# From -- ./inp_files/11863.got.cif
#   From: 2010.05.17/outbox.cif.g08.bks.cpg/sg91_6_cif.got.tgz:11863.got - 2010.06.03 19:20:03.
