data_PCOD9547464
_publ_section_title
;
Structure prediction by ZEFSAII (Michael W. Deem and Ramdas Pophale) SiO2 
 PCOD9547464
Probable space group: P 4 21 2
;
_chemical_formula_sum "Si O2"
_cell_formula_units_Z 50
_cell_length_a 9.000000
_cell_length_b 9.000000
_cell_length_c 30.000000
_cell_angle_alpha 90.000000
_cell_angle_beta 90.000000
_cell_angle_gamma 90.000000
_cell_volume 2430.000000
_symmetry_space_group_name_H-M "P 4 21 2"
_symmetry_group_IT_number 90
_symmetry_cell_setting 'tetragonal'
loop_
_space_group_symop_operation_xyz
x,y,z
1/2-y,1/2+x,z
-x,-y,z
1/2+y,1/2-x,z
1/2+x,1/2-y,-z
1/2-x,1/2+y,-z
y,x,-z
-y,-x,-z
loop_
_atom_site_type_symbol
_atom_site_label
_atom_site_fract_x
_atom_site_fract_y
_atom_site_fract_z
Si Si1 0.581798 0.232996 0.303155
Si Si2 0.763194 0.425858 0.365155
Si Si3 0.904428 0.728272 0.801669
Si Si4 0.110071 0.280420 0.963572
Si Si5 0.737390 0.925559 0.531119
Si Si6 0.000000 0.500000 0.108008
Si Si7 0.340650 0.579966 0.117748
O O1 0.413513 0.181974 0.312107
O O2 0.636118 0.367888 0.332984
O O3 0.601280 0.263785 0.250693
O O4 0.821244 0.592377 0.357696
O O5 0.720483 0.412633 0.416973
O O6 0.812454 0.576944 0.811027
O O7 0.844487 0.859926 0.831850
O O8 0.190800 0.436788 0.970008
O O9 0.148327 0.220004 0.915158
O O10 0.165580 0.165580 0.000000
O O11 0.592465 0.821073 0.523442
O O12 0.868011 0.868011 0.500000
O O13 0.005454 0.686265 0.108594
O O14 0.500000 0.500000 0.110064
#
# Coordination Sequence:
#
# PCOD9547464 Si02
#       7
#     8   8   8   8   8   2   8
#     4   9  19  36  58  85 116 156 201 252 305 367
#     4   9  19  37  54  76 113 154 192 244 305 370
#     4   9  18  39  66  89 126 171 216 263 324 399
#     4  11  27  45  71 103 136 181 226 274 339 402
#     4   9  19  35  54  76 108 147 191 242 304 365
#     4  12  28  44  72 108 140 172 232 288 320 404
#     4  12  26  46  71 101 140 182 220 281 345 390
#
# _framework density 20.576132000000001
#
# number of rings (size 3 to 8) (size 9 to 14) (size 15 to 20)
#    0.000    2.080    0.000    4.800    4.480    3.520 
#    8.640    4.800    0.000    0.000    0.000    0.000 
#    0.000    0.000    0.000    0.000    0.000    0.000 
#
# Total GULP energy -278924.954730 kJ/mol
# GULP energy per Si atom -5578.499095 kJ/mol
# Density = 2.052930 g / cm^3
# Si number density = 20.576132 Si / 1000 Ang^3
#
#
#
# Elastic Constant Matrix: (Units=GPa)
#
#
# Indices 1 2 3 4 5 6 
#
# 1 47.4412 57.2687 29.1768 0.0000 0.0000 0.0000
# 2 57.2687 47.4412 29.1768 0.0000 0.0000 0.0000
# 3 29.1768 29.1768 35.6062 0.0000 0.0000 0.0000
# 4 0.0000 0.0000 0.0000 25.1714 0.0000 0.0000
# 5 0.0000 0.0000 0.0000 0.0000 25.1714 0.0000
# 6 0.0000 0.0000 0.0000 0.0000 0.0000 14.1465
#
#
#
# Elastic Compliance Matrix: (Units=1/GPa)
#
#
# Indices 1 2 3 4 5 6 
#
# 1 -0.042089 0.059666 -0.014403 0.000000 0.000000 0.000000
# 2 0.059666 -0.042089 -0.014403 0.000000 0.000000 0.000000
# 3 -0.014403 -0.014403 0.051690 0.000000 0.000000 0.000000
# 4 0.000000 0.000000 0.000000 0.039728 0.000000 0.000000
# 5 0.000000 0.000000 0.000000 0.000000 0.039728 0.000000
# 6 0.000000 0.000000 0.000000 0.000000 0.000000 0.070689
#
#
# Mechanical properties :
#
#
# Convention : Reuss Voigt Hill
#
# Bulk Modulus (GPa) = 34.21005 40.19259 37.20132
# Shear Modulus (GPa) = 76.12909 13.88895 45.00902
#
# Velocity S-wave (km/s) = 6.08926 2.60090 4.68208
# Velocity P-wave (km/s) = 8.13025 5.34748 6.88101
#
# Compressibility (1/GPa) = 0.02923117
#
# Stress axis : x y z
#
# Youngs Moduli (GPa) = -23.75893 -23.75893 19.34628
#
# Poissons Ratio (x) = 1.41761 0.27864
# Poissons Ratio (y) = 1.41761 0.27864
# Poissons Ratio (z) = -0.34220 -0.34220
#
# Static dielectric constant tensor:
#      x y z
#    x 1.732340 0.000000 0.000000 
#    y 0.000000 1.732340 0.000000 
#    z 0.000000 0.000000 1.753940 
# 
# From -- ./inp_files/3104.got.cif
#   From: 2010.05.17/outbox.ucp.g08.bks.cvg/sg90_2_cif.got.tgz:3104.got - 2010.06.11 10:36:03.
