data_PCOD9547409
_publ_section_title
;
Structure prediction by ZEFSAII (Michael W. Deem and Ramdas Pophale) SiO2 
 PCOD9547409
Probable space group: P 4 21 2
;
_chemical_formula_sum "Si O2"
_cell_formula_units_Z 40
_cell_length_a 18.978483
_cell_length_b 18.978483
_cell_length_c 4.928032
_cell_angle_alpha 90.000000
_cell_angle_beta 90.000000
_cell_angle_gamma 90.000000
_cell_volume 1774.992448
_symmetry_space_group_name_H-M "P 4 21 2"
_symmetry_group_IT_number 90
_symmetry_cell_setting 'tetragonal'
loop_
_space_group_symop_operation_xyz
x,y,z
1/2-y,1/2+x,z
-x,-y,z
1/2+y,1/2-x,z
1/2+x,1/2-y,-z
1/2-x,1/2+y,-z
y,x,-z
-y,-x,-z
loop_
_atom_site_type_symbol
_atom_site_label
_atom_site_fract_x
_atom_site_fract_y
_atom_site_fract_z
Si Si1 0.332378 0.734747 0.247911
Si Si2 0.943888 0.170151 0.066046
Si Si3 0.324846 0.887954 0.994615
Si Si4 0.932969 0.405770 0.503389
Si Si5 0.961038 0.846006 0.583337
O O1 0.280901 0.719100 0.500000
O O2 0.410124 0.721603 0.370675
O O3 0.320202 0.679799 0.000000
O O4 0.319167 0.809303 0.109633
O O5 0.927962 0.250891 0.991626
O O6 0.977070 0.165501 0.365366
O O7 0.874088 0.125913 0.000000
O O8 0.002786 0.139165 0.867906
O O9 0.351598 0.891751 0.687227
O O10 0.383051 0.923778 0.186005
O O11 0.905239 0.483904 0.446240
O O12 0.908810 0.908810 0.500000
#
# Coordination Sequence:
#
# PCOD9547409 Si02
#       5
#     8   8   8   8   8
#     4  11  24  45  71 104 144 182 235 293 352 425
#     4  12  27  45  70 105 144 183 239 297 360 424
#     4  12  26  43  76 101 142 186 231 288 360 420
#     4  11  26  46  67 103 142 182 233 286 346 428
#     4  11  25  46  72 103 139 187 240 292 346 425
#
# _framework density 22.535309000000002
#
# number of rings (size 3 to 8) (size 9 to 14) (size 15 to 20)
#    0.000    0.600    0.000    7.800    8.400    5.600 
#    0.000    0.000    0.000    0.000    0.000    0.000 
#    0.000    0.000    0.000    0.000    0.000    0.000 
#
# Total GULP energy -223963.396998 kJ/mol
# GULP energy per Si atom -5599.084925 kJ/mol
# Density = 2.248402 g / cm^3
# Si number density = 22.535309 Si / 1000 Ang^3
#
#
#
# Elastic Constant Matrix: (Units=GPa)
#
#
# Indices 1 2 3 4 5 6 
#
# 1 53.4619 12.3786 6.4144 0.0000 0.0000 0.0000
# 2 12.3786 53.4584 6.4174 0.0000 0.0000 0.0000
# 3 6.4144 6.4174 76.9747 0.0000 0.0000 0.0000
# 4 0.0000 0.0000 0.0000 34.0802 0.0000 0.0000
# 5 0.0000 0.0000 0.0000 0.0000 34.0870 0.0000
# 6 0.0000 0.0000 0.0000 0.0000 0.0000 21.4174
#
#
#
# Elastic Compliance Matrix: (Units=1/GPa)
#
#
# Indices 1 2 3 4 5 6 
#
# 1 0.019890 -0.004451 -0.001286 0.000000 0.000000 0.000000
# 2 -0.004451 0.019891 -0.001287 0.000000 0.000000 0.000000
# 3 -0.001286 -0.001287 0.013206 0.000000 0.000000 0.000000
# 4 0.000000 0.000000 0.000000 0.029343 0.000000 0.000000
# 5 0.000000 0.000000 0.000000 0.000000 0.029337 0.000000
# 6 0.000000 0.000000 0.000000 0.000000 0.000000 0.046691
#
#
# Mechanical properties :
#
#
# Convention : Reuss Voigt Hill
#
# Bulk Modulus (GPa) = 25.68244 26.03510 25.85877
# Shear Modulus (GPa) = 26.97068 28.49586 27.73327
#
# Velocity S-wave (km/s) = 3.46326 3.55984 3.51188
# Velocity P-wave (km/s) = 5.23579 5.33617 5.28622
#
# Compressibility (1/GPa) = 0.03893711
#
# Stress axis : x y z
#
# Youngs Moduli (GPa) = 50.27678 50.27302 75.72422
#
# Poissons Ratio (x) = 0.22378 0.09741
# Poissons Ratio (y) = 0.22379 0.09749
# Poissons Ratio (z) = 0.06467 0.06472
#
# Static dielectric constant tensor:
#      x y z
#    x 1.841450 0.000000 0.000000 
#    y 0.000000 1.841450 0.000000 
#    z 0.000000 0.000000 1.768960 
# 
# From -- ./inp_files/442.got.cif
#   From: 2010.05.17/outbox.cif.g08.bks.cpg/sg90_1_cif.got.tgz:442.got - 2010.06.03 19:17:45.
