data_PCOD9547023
_publ_section_title
;
Structure prediction by ZEFSAII (Michael W. Deem and Ramdas Pophale) SiO2 
 PCOD9547023
Probable space group: P 4 2 2
;
_chemical_formula_sum "Si O2"
_cell_formula_units_Z 48
_cell_length_a 8.609522
_cell_length_b 8.609522
_cell_length_c 33.714922
_cell_angle_alpha 90.000000
_cell_angle_beta 90.000000
_cell_angle_gamma 90.000000
_cell_volume 2499.080464
_symmetry_space_group_name_H-M "P 4 2 2"
_symmetry_group_IT_number 89
_symmetry_cell_setting 'tetragonal'
loop_
_space_group_symop_operation_xyz
x,y,z
-y,x,z
-x,-y,z
y,-x,z
x,-y,-z
-x,y,-z
y,x,-z
-y,-x,-z
loop_
_atom_site_type_symbol
_atom_site_label
_atom_site_fract_x
_atom_site_fract_y
_atom_site_fract_z
Si Si1 0.500000 0.000000 0.890764
Si Si2 0.030648 0.258401 0.955905
Si Si3 0.424029 0.251016 0.829916
Si Si4 0.251691 0.078981 0.668723
Si Si5 0.591874 0.746331 0.738649
Si Si6 0.962969 0.256964 0.455180
Si Si7 0.000000 0.500000 0.393191
O O1 0.378245 0.929953 0.921599
O O2 0.591111 0.882210 0.862145
O O3 0.870312 0.163894 0.952054
O O4 0.000000 0.325818 0.000000
O O5 0.600060 0.313937 0.834782
O O6 0.399190 0.200188 0.784388
O O7 0.340376 0.125554 0.709084
O O8 0.098209 0.187567 0.665981
O O9 0.382378 0.095656 0.634706
O O10 0.412683 0.692477 0.732674
O O11 0.915794 0.387713 0.424241
O O12 0.124659 0.165910 0.448815
O O13 0.000000 0.313404 0.500000
#
# Coordination Sequence:
#
# PCOD9547023 Si02
#       7
#     4   8   8   8   8   8   4
#     4  12  19  29  54  82 102 134 182 225 265 324
#     4   9  19  35  51  70 101 138 176 222 275 327
#     4   9  20  36  53  78 112 145 176 218 274 331
#     4  11  24  39  57  84 115 147 189 239 284 330
#     4   9  19  38  60  80 108 148 188 224 275 341
#     4   9  19  37  60  85 113 147 189 235 284 341
#     4  12  21  33  56  84 114 148 182 223 281 338
#
# _framework density 19.207066999999999
#
# number of rings (size 3 to 8) (size 9 to 14) (size 15 to 20)
#    0.000    2.167    0.000    5.500    0.000    4.667 
#    0.000    0.000    0.000    6.500    0.000   16.333 
#    0.000    0.000    0.000    0.000    0.000    0.000 
#
# Total GULP energy -267227.828600 kJ/mol
# GULP energy per Si atom -5567.246429 kJ/mol
# Density = 1.916335 g / cm^3
# Si number density = 19.207067 Si / 1000 Ang^3
#
#
#
# Elastic Constant Matrix: (Units=GPa)
#
#
# Indices 1 2 3 4 5 6 
#
# 1 65.5283 17.4159 40.3130 0.0000 0.0000 0.0000
# 2 17.4159 65.5283 40.3130 0.0000 0.0000 0.0000
# 3 40.3130 40.3130 114.2541 0.0000 0.0000 0.0000
# 4 0.0000 0.0000 0.0000 45.9213 0.0000 0.0000
# 5 0.0000 0.0000 0.0000 0.0000 45.9213 0.0000
# 6 0.0000 0.0000 0.0000 0.0000 0.0000 15.7515
#
#
#
# Elastic Compliance Matrix: (Units=1/GPa)
#
#
# Indices 1 2 3 4 5 6 
#
# 1 0.019567 -0.001217 -0.006474 0.000000 0.000000 0.000000
# 2 -0.001217 0.019567 -0.006474 0.000000 0.000000 0.000000
# 3 -0.006474 -0.006474 0.013321 0.000000 0.000000 0.000000
# 4 0.000000 0.000000 0.000000 0.021776 0.000000 0.000000
# 5 0.000000 0.000000 0.000000 0.000000 0.021776 0.000000
# 6 0.000000 0.000000 0.000000 0.000000 0.000000 0.063486
#
#
# Mechanical properties :
#
#
# Convention : Reuss Voigt Hill
#
# Bulk Modulus (GPa) = 41.45421 49.04383 45.24902
# Shear Modulus (GPa) = 25.52734 31.33673 28.43203
#
# Velocity S-wave (km/s) = 3.64958 4.04359 3.85163
# Velocity P-wave (km/s) = 6.27606 6.88408 6.58709
#
# Compressibility (1/GPa) = 0.02412300
#
# Stress axis : x y z
#
# Youngs Moduli (GPa) = 51.10575 51.10575 75.06775
#
# Poissons Ratio (x) = 0.06222 0.48603
# Poissons Ratio (y) = 0.06222 0.48603
# Poissons Ratio (z) = 0.33088 0.33088
#
# Static dielectric constant tensor:
#      x y z
#    x 1.663090 0.000000 0.000000 
#    y 0.000000 1.663090 0.000000 
#    z 0.000000 0.000000 1.708460 
# 
# From -- ./inp_files/2983.got.cif
#   From: 2010.05.17/outbox.cif.g08.bks.cpg/sg89_2_cif.got.tgz:2983.got - 2010.06.03 19:15:31.
