data_PCOD9547631
_publ_section_title
;
Structure prediction by ZEFSAII (Michael W. Deem and Ramdas Pophale) SiO2 
 PCOD9547631
Probable space group: P 41 2 2
;
_chemical_formula_sum "Si O2"
_cell_formula_units_Z 40
_cell_length_a 8.327618
_cell_length_b 8.327618
_cell_length_c 26.413110
_cell_angle_alpha 90.000000
_cell_angle_beta 90.000000
_cell_angle_gamma 90.000000
_cell_volume 1831.728617
_symmetry_space_group_name_H-M "P 41 2 2"
_symmetry_group_IT_number 91
_symmetry_cell_setting 'tetragonal'
loop_
_space_group_symop_operation_xyz
x,y,z
-y,x,1/4+z
-x,-y,1/2+z
y,-x,3/4+z
x,-y,1/2-z
-x,y,-z
y,x,3/4-z
-y,-x,1/4-z
loop_
_atom_site_type_symbol
_atom_site_label
_atom_site_fract_x
_atom_site_fract_y
_atom_site_fract_z
Si Si1 0.541362 0.253836 0.944160
Si Si2 0.040765 0.770379 0.667215
Si Si3 0.725717 0.500000 0.750000
Si Si4 0.431463 0.731542 0.890435
Si Si5 0.972560 0.215906 0.722754
Si Si6 0.796204 0.796204 0.875000
O O1 0.384027 0.156629 0.926389
O O2 0.609107 0.370176 0.901391
O O3 0.684733 0.125382 0.953000
O O4 0.500000 0.322458 0.000000
O O5 0.119818 0.880183 0.625000
O O6 0.872150 0.698118 0.648333
O O7 0.020928 0.853196 0.722378
O O8 0.651073 0.541756 0.695722
O O9 0.840881 0.350331 0.738265
O O10 0.601737 0.811654 0.874149
O O11 0.883753 0.137057 0.674780
#
# Coordination Sequence:
#
# PCOD9547631 Si02
#       6
#     8   8   4   8   8   4
#     4  10  19  39  61  92 131 171 213 271 333 382
#     4  10  20  40  64  89 134 179 210 267 333 396
#     4   8  14  36  60  80 120 166 202 252 320 376
#     4  10  20  36  63  98 128 169 219 269 325 396
#     4   9  16  37  63  85 124 171 207 260 328 379
#     4  10  18  36  66  94 126 160 222 272 314 382
#
# _framework density 21.837297
#
# number of rings (size 3 to 8) (size 9 to 14) (size 15 to 20)
#    0.000    2.400    7.000    0.000    1.400    0.000 
#   12.600    4.000    4.400    3.600    0.000    0.000 
#    0.000    0.000    0.000    0.000    0.000    0.000 
#
# Total GULP energy -223232.984915 kJ/mol
# GULP energy per Si atom -5580.824623 kJ/mol
# Density = 2.178759 g / cm^3
# Si number density = 21.837297 Si / 1000 Ang^3
#
#
#
# Elastic Constant Matrix: (Units=GPa)
#
#
# Indices 1 2 3 4 5 6 
#
# 1 57.2780 50.4705 88.2820 0.0000 0.0000 0.0000
# 2 50.4705 57.2793 88.2823 0.0000 0.0000 0.0000
# 3 88.2820 88.2823 266.9859 0.0000 0.0000 0.0000
# 4 0.0000 0.0000 0.0000 49.1157 0.0000 0.0000
# 5 0.0000 0.0000 0.0000 0.0000 49.1158 0.0000
# 6 0.0000 0.0000 0.0000 0.0000 0.0000 35.0940
#
#
#
# Elastic Compliance Matrix: (Units=1/GPa)
#
#
# Indices 1 2 3 4 5 6 
#
# 1 0.083572 -0.063313 -0.006699 0.000000 0.000000 0.000000
# 2 -0.063313 0.083569 -0.006698 0.000000 0.000000 0.000000
# 3 -0.006699 -0.006698 0.008175 0.000000 0.000000 0.000000
# 4 0.000000 0.000000 0.000000 0.020360 0.000000 0.000000
# 5 0.000000 0.000000 0.000000 0.000000 0.020360 0.000000
# 6 0.000000 0.000000 0.000000 0.000000 0.000000 0.028495
#
#
# Mechanical properties :
#
#
# Convention : Reuss Voigt Hill
#
# Bulk Modulus (GPa) = 45.67010 92.84586 69.25798
# Shear Modulus (GPa) = 12.33811 36.96564 24.65188
#
# Velocity S-wave (km/s) = 2.37955 4.11880 3.36354
# Velocity P-wave (km/s) = 5.33937 8.07643 6.84608
#
# Compressibility (1/GPa) = 0.02189617
#
# Stress axis : x y z
#
# Youngs Moduli (GPa) = 11.96578 11.96621 122.32161
#
# Poissons Ratio (x) = 0.75762 0.81938
# Poissons Ratio (y) = 0.75759 0.81928
# Poissons Ratio (z) = 0.08015 0.08015
#
# Static dielectric constant tensor:
#      x y z
#    x 1.822200 0.000000 0.000000 
#    y 0.000000 1.822210 0.000000 
#    z 0.000000 0.000000 1.838230 
# 
# From -- ./inp_files/13203.got.cif
#   From: 2010.05.17/outbox.cif.g08.bks.cpg/sg91_7_cif.got.tgz:13203.got - 2010.06.03 19:20:03.
