data_PCOD9547786
_publ_section_title
;
Structure prediction by ZEFSAII (Michael W. Deem and Ramdas Pophale) SiO2 
 PCOD9547786
Probable space group: P 41 2 2
;
_chemical_formula_sum "Si O2"
_cell_formula_units_Z 48
_cell_length_a 9.580827
_cell_length_b 9.580827
_cell_length_c 28.553893
_cell_angle_alpha 90.000000
_cell_angle_beta 90.000000
_cell_angle_gamma 90.000000
_cell_volume 2621.025971
_symmetry_space_group_name_H-M "P 41 2 2"
_symmetry_group_IT_number 91
_symmetry_cell_setting 'tetragonal'
loop_
_space_group_symop_operation_xyz
x,y,z
-y,x,1/4+z
-x,-y,1/2+z
y,-x,3/4+z
x,-y,1/2-z
-x,y,-z
y,x,3/4-z
-y,-x,1/4-z
loop_
_atom_site_type_symbol
_atom_site_label
_atom_site_fract_x
_atom_site_fract_y
_atom_site_fract_z
Si Si1 0.472492 0.802619 0.869355
Si Si2 0.193137 0.193137 0.375000
Si Si3 0.527566 0.527566 0.375000
Si Si4 0.481435 0.648670 0.723943
Si Si5 0.859115 0.974707 0.969432
Si Si6 0.137574 0.298491 0.031247
Si Si7 0.644066 0.798840 0.028149
O O1 0.638816 0.830093 0.871293
O O2 0.456732 0.635529 0.861677
O O3 0.391842 0.878088 0.827663
O O4 0.397993 0.832632 0.918701
O O5 0.139373 0.115261 0.421615
O O6 0.620657 0.556935 0.420087
O O7 0.485214 0.500000 0.750000
O O8 0.372614 0.744012 0.750527
O O9 0.641040 0.705120 0.724955
O O10 0.829826 0.136897 0.957711
O O11 0.742049 0.908768 0.002922
O O12 0.000000 0.966959 0.000000
O O13 0.000000 0.300264 0.000000
O O14 0.500000 0.794533 0.000000
#
# Coordination Sequence:
#
# PCOD9547786 Si02
#       7
#     8   4   4   8   8   8   8
#     4  10  20  39  67  90 124 153 209 264 307 364
#     4  11  22  42  69  94 116 170 217 262 309 366
#     4   9  18  36  63  94 114 156 195 256 321 356
#     4  10  19  38  64  87 123 156 203 260 311 364
#     4  11  26  43  61  89 133 173 206 252 312 378
#     4  11  25  44  57  90 131 169 202 254 311 373
#     4  10  20  40  64  97 122 160 207 260 310 366
#
# _framework density 18.31344
#
# number of rings (size 3 to 8) (size 9 to 14) (size 15 to 20)
#    0.000    1.667    3.333    1.000    2.333    3.333 
#    6.000    0.000    0.000    0.000    0.000    0.000 
#    0.000    0.000    0.000    0.000    0.000    0.000 
#
# Total GULP energy -267956.212639 kJ/mol
# GULP energy per Si atom -5582.421097 kJ/mol
# Density = 1.827176 g / cm^3
# Si number density = 18.313440 Si / 1000 Ang^3
#
#
#
# Elastic Constant Matrix: (Units=GPa)
#
#
# Indices 1 2 3 4 5 6 
#
# 1 71.8277 50.9426 48.5012 0.0000 0.0000 0.0000
# 2 50.9426 71.8277 48.5012 0.0000 0.0000 0.0000
# 3 48.5012 48.5012 136.6960 0.0000 0.0000 0.0000
# 4 0.0000 0.0000 0.0000 37.7073 0.0000 0.0000
# 5 0.0000 0.0000 0.0000 0.0000 37.7073 0.0000
# 6 0.0000 0.0000 0.0000 0.0000 0.0000 30.6662
#
#
#
# Elastic Compliance Matrix: (Units=1/GPa)
#
#
# Indices 1 2 3 4 5 6 
#
# 1 0.029600 -0.018281 -0.004016 0.000000 0.000000 0.000000
# 2 -0.018281 0.029600 -0.004016 0.000000 0.000000 0.000000
# 3 -0.004016 -0.004016 0.010165 0.000000 0.000000 0.000000
# 4 0.000000 0.000000 0.000000 0.026520 0.000000 0.000000
# 5 0.000000 0.000000 0.000000 0.000000 0.026520 0.000000
# 6 0.000000 0.000000 0.000000 0.000000 0.000000 0.032609
#
#
# Mechanical properties :
#
#
# Convention : Reuss Voigt Hill
#
# Bulk Modulus (GPa) = 59.74288 64.02680 61.88484
# Shear Modulus (GPa) = 23.45002 30.04325 26.74663
#
# Velocity S-wave (km/s) = 3.58226 4.05471 3.82578
# Velocity P-wave (km/s) = 7.05715 7.54708 7.30622
#
# Compressibility (1/GPa) = 0.01673840
#
# Stress axis : x y z
#
# Youngs Moduli (GPa) = 33.78419 33.78419 98.37461
#
# Poissons Ratio (x) = 0.61762 0.39506
# Poissons Ratio (y) = 0.61762 0.39506
# Poissons Ratio (z) = 0.13567 0.13567
#
# Static dielectric constant tensor:
#      x y z
#    x 1.613400 0.000000 0.000000 
#    y 0.000000 1.613400 0.000000 
#    z 0.000000 0.000000 1.631790 
# 
# From -- ./inp_files/8046.got.cif
#   From: 2010.05.17/outbox.cif.g08.bks.cpg/sg91_5_cif.got.tgz:8046.got - 2010.06.03 19:20:03.
