data_PCOD9547815
_publ_section_title
;
Structure prediction by ZEFSAII (Michael W. Deem and Ramdas Pophale) SiO2 
 PCOD9547815
Probable space group: P 41 2 2
;
_chemical_formula_sum "Si O2"
_cell_formula_units_Z 40
_cell_length_a 14.427157
_cell_length_b 14.427157
_cell_length_c 9.981284
_cell_angle_alpha 90.000000
_cell_angle_beta 90.000000
_cell_angle_gamma 90.000000
_cell_volume 2077.532989
_symmetry_space_group_name_H-M "P 41 2 2"
_symmetry_group_IT_number 91
_symmetry_cell_setting 'tetragonal'
loop_
_space_group_symop_operation_xyz
x,y,z
-y,x,1/4+z
-x,-y,1/2+z
y,-x,3/4+z
x,-y,1/2-z
-x,y,-z
y,x,3/4-z
-y,-x,1/4-z
loop_
_atom_site_type_symbol
_atom_site_label
_atom_site_fract_x
_atom_site_fract_y
_atom_site_fract_z
Si Si1 0.177966 0.177966 0.875000
Si Si2 0.743892 0.006336 0.497725
Si Si3 0.313132 0.187246 0.638876
Si Si4 0.000000 0.386030 0.500000
Si Si5 0.810533 0.516482 0.908638
Si Si6 0.690317 0.309684 0.625000
Si Si7 0.068249 0.068249 0.375000
O O1 0.073364 0.206585 0.838920
O O2 0.234044 0.206444 0.744463
O O3 0.691652 0.079528 0.403731
O O4 0.675637 0.977655 0.618212
O O5 0.828433 0.056347 0.572384
O O6 0.412243 0.209245 0.705335
O O7 0.294784 0.244619 0.503588
O O8 0.094225 0.442671 0.468178
O O9 0.826206 0.500000 0.750000
O O10 0.723850 0.587412 0.920250
O O11 0.000000 0.050346 0.500000
#
# Coordination Sequence:
#
# PCOD9547815 Si02
#       7
#     4   8   8   4   8   4   4
#     4  12  27  40  62  94 135 172 206 280 326 364
#     4  12  24  41  61  89 128 177 220 262 314 385
#     4  11  24  44  65  96 132 171 214 274 326 395
#     4  12  22  38  66  96 120 174 218 274 314 392
#     4  10  22  38  67  95 128 163 218 269 327 381
#     4  10  19  44  68  94 124 172 217 264 325 402
#     4  12  24  38  58  84 121 170 217 252 297 372
#
# _framework density 19.253606000000001
#
# number of rings (size 3 to 8) (size 9 to 14) (size 15 to 20)
#    0.000    0.800    5.000    4.200    2.800    0.000 
#    0.000    3.000    0.000   10.800    0.000    0.000 
#    0.000    0.000    0.000    0.000    0.000    0.000 
#
# Total GULP energy -223234.868708 kJ/mol
# GULP energy per Si atom -5580.871718 kJ/mol
# Density = 1.920978 g / cm^3
# Si number density = 19.253606 Si / 1000 Ang^3
#
#
#
# Elastic Constant Matrix: (Units=GPa)
#
#
# Indices 1 2 3 4 5 6 
#
# 1 270.5901 -106.1198 22.4778 0.0000 0.0000 0.0000
# 2 -106.1198 270.5921 22.4745 0.0000 0.0000 0.0000
# 3 22.4778 22.4745 54.1777 0.0000 0.0000 0.0000
# 4 0.0000 0.0000 0.0000 22.9661 0.0000 0.0000
# 5 0.0000 0.0000 0.0000 0.0000 22.9661 0.0000
# 6 0.0000 0.0000 0.0000 0.0000 0.0000 23.6947
#
#
#
# Elastic Compliance Matrix: (Units=1/GPa)
#
#
# Indices 1 2 3 4 5 6 
#
# 1 0.004756 0.002102 -0.002845 0.000000 0.000000 0.000000
# 2 0.002102 0.004756 -0.002845 0.000000 0.000000 0.000000
# 3 -0.002845 -0.002845 0.020818 0.000000 0.000000 0.000000
# 4 0.000000 0.000000 0.000000 0.043542 0.000000 0.000000
# 5 0.000000 0.000000 0.000000 0.000000 0.043542 0.000000
# 6 0.000000 0.000000 0.000000 0.000000 0.000000 0.042204
#
#
# Mechanical properties :
#
#
# Convention : Reuss Voigt Hill
#
# Bulk Modulus (GPa) = 43.18954 52.55832 47.87393
# Shear Modulus (GPa) = 28.65106 57.69388 43.17247
#
# Velocity S-wave (km/s) = 3.86176 5.47999 4.74044
# Velocity P-wave (km/s) = 6.50883 8.20960 7.40819
#
# Compressibility (1/GPa) = 0.02315376
#
# Stress axis : x y z
#
# Youngs Moduli (GPa) = 210.25409 210.25789 48.03461
#
# Poissons Ratio (x) = -0.44187 0.13666
# Poissons Ratio (y) = -0.44186 0.13665
# Poissons Ratio (z) = 0.59819 0.59816
#
# Static dielectric constant tensor:
#      x y z
#    x 1.707250 0.000000 0.000000 
#    y 0.000000 1.707250 0.000000 
#    z 0.000000 0.000000 1.661920 
# 
# From -- ./inp_files/15087.got.cif
#   From: 2010.05.17/outbox.cif.g08.bks.cpg/sg91_8_cif.got.tgz:15087.got - 2010.06.03 19:20:03.
