data_PCOD9547666
_publ_section_title
;
Structure prediction by ZEFSAII (Michael W. Deem and Ramdas Pophale) SiO2 
 PCOD9547666
Probable space group: P 41 2 2
;
_chemical_formula_sum "Si O2"
_cell_formula_units_Z 48
_cell_length_a 23.063061
_cell_length_b 23.063061
_cell_length_c 5.079227
_cell_angle_alpha 90.000000
_cell_angle_beta 90.000000
_cell_angle_gamma 90.000000
_cell_volume 2701.665134
_symmetry_space_group_name_H-M "P 41 2 2"
_symmetry_group_IT_number 91
_symmetry_cell_setting 'tetragonal'
loop_
_space_group_symop_operation_xyz
x,y,z
-y,x,1/4+z
-x,-y,1/2+z
y,-x,3/4+z
x,-y,1/2-z
-x,y,-z
y,x,3/4-z
-y,-x,1/4-z
loop_
_atom_site_type_symbol
_atom_site_label
_atom_site_fract_x
_atom_site_fract_y
_atom_site_fract_z
Si Si1 0.562590 0.269372 0.567068
Si Si2 0.360032 0.266945 0.951178
Si Si3 0.040343 0.261388 0.742532
Si Si4 0.437930 0.866494 0.088604
Si Si5 0.130521 0.959718 0.498579
Si Si6 0.131634 0.638435 0.683267
O O1 0.500000 0.296335 0.500000
O O2 0.603870 0.291856 0.800420
O O3 0.551365 0.202075 0.646557
O O4 0.597974 0.269136 0.298756
O O5 0.346656 0.198916 0.996410
O O6 0.303925 0.303925 0.875000
O O7 0.061064 0.195523 0.678102
O O8 0.092728 0.304884 0.792481
O O9 0.000000 0.280388 0.500000
O O10 0.000000 0.261117 0.000000
O O11 0.391977 0.870987 0.851331
O O12 0.500000 0.891077 0.000000
O O13 0.408658 0.889754 0.352502
O O14 0.089363 0.910638 0.625000
O O15 0.109346 0.000000 0.250000
O O16 0.137864 0.000000 0.750000
#
# Coordination Sequence:
#
# PCOD9547666 Si02
#       6
#     8   8   8   8   8   8
#     4   9  17  30  47  68  99 138 170 197 244 306
#     4  10  19  30  47  76 107 128 159 211 258 300
#     4  10  21  37  55  74 100 137 177 209 241 300
#     4   9  17  30  50  74  97 127 171 214 252 301
#     4  10  21  37  57  81 106 132 165 207 254 304
#     4  10  19  32  52  73  98 136 169 204 261 307
#
# _framework density 17.766819999999999
#
# number of rings (size 3 to 8) (size 9 to 14) (size 15 to 20)
#    0.000    2.333    0.000    3.000    0.000    5.333 
#    0.000    0.000    0.000   22.000    0.000    0.000 
#    0.000   18.667    0.000    0.000    0.000    0.000 
#
# Total GULP energy -267309.014774 kJ/mol
# GULP energy per Si atom -5568.937808 kJ/mol
# Density = 1.772638 g / cm^3
# Si number density = 17.766820 Si / 1000 Ang^3
#
#
#
# Elastic Constant Matrix: (Units=GPa)
#
#
# Indices 1 2 3 4 5 6 
#
# 1 72.4008 54.0639 11.6412 0.0000 0.0000 0.0000
# 2 54.0639 72.4019 11.6421 0.0000 0.0000 0.0000
# 3 11.6412 11.6421 89.2356 0.0000 0.0000 0.0000
# 4 0.0000 0.0000 0.0000 20.5591 0.0000 0.0000
# 5 0.0000 0.0000 0.0000 0.0000 20.5589 0.0000
# 6 0.0000 0.0000 0.0000 0.0000 0.0000 -474.9203
#
#
#
# Elastic Compliance Matrix: (Units=1/GPa)
#
#
# Indices 1 2 3 4 5 6 
#
# 1 0.031318 -0.023216 -0.001057 0.000000 0.000000 0.000000
# 2 -0.023216 0.031317 -0.001057 0.000000 0.000000 0.000000
# 3 -0.001057 -0.001057 0.011482 0.000000 0.000000 0.000000
# 4 0.000000 0.000000 0.000000 0.048640 0.000000 0.000000
# 5 0.000000 0.000000 0.000000 0.000000 0.048641 0.000000
# 6 0.000000 0.000000 0.000000 0.000000 0.000000 -0.002106
#
#
# Mechanical properties :
#
#
# Convention : Reuss Voigt Hill
#
# Bulk Modulus (GPa) = 42.62940 43.19254 42.91097
# Shear Modulus (GPa) = 21.95183 -76.31441 -27.18129
#
# Velocity S-wave (km/s) = 3.51886 -6.56099 -3.91562
# Velocity P-wave (km/s) = 6.36834 5.74734 1.93957
#
# Compressibility (1/GPa) = 0.02345799
#
# Stress axis : x y z
#
# Youngs Moduli (GPa) = 31.93073 31.93111 87.09221
#
# Poissons Ratio (x) = 0.74130 0.09203
# Poissons Ratio (y) = 0.74129 0.09208
# Poissons Ratio (z) = 0.03374 0.03376
#
# Static dielectric constant tensor:
#      x y z
#    x 1.630800 0.000000 0.000000 
#    y 0.000000 1.630800 0.000000 
#    z 0.000000 0.000000 1.616940 
# 
# From -- ./inp_files/18843.got.cif
#   From: 2010.05.17/outbox.cif.g08.bks.cpg/sg91_10_cif.got.tgz:18843.got - 2010.06.03 19:20:03.
