data_PCOD9547902
_publ_section_title
;
Structure prediction by ZEFSAII (Michael W. Deem and Ramdas Pophale) SiO2 
 PCOD9547902
Probable space group: P 41 2 2
;
_chemical_formula_sum "Si O2"
_cell_formula_units_Z 48
_cell_length_a 15.413914
_cell_length_b 15.413914
_cell_length_c 10.572088
_cell_angle_alpha 90.000000
_cell_angle_beta 90.000000
_cell_angle_gamma 90.000000
_cell_volume 2511.809118
_symmetry_space_group_name_H-M "P 41 2 2"
_symmetry_group_IT_number 91
_symmetry_cell_setting 'tetragonal'
loop_
_space_group_symop_operation_xyz
x,y,z
-y,x,1/4+z
-x,-y,1/2+z
y,-x,3/4+z
x,-y,1/2-z
-x,y,-z
y,x,3/4-z
-y,-x,1/4-z
loop_
_atom_site_type_symbol
_atom_site_label
_atom_site_fract_x
_atom_site_fract_y
_atom_site_fract_z
Si Si1 0.000000 0.672941 0.000000
Si Si2 0.225164 0.907203 0.762969
Si Si3 0.172637 0.429898 0.427259
Si Si4 0.735870 0.116613 0.972556
Si Si5 0.283895 0.641806 0.857091
Si Si6 0.622313 0.824561 0.114130
Si Si7 0.415214 0.500000 0.750000
O O1 0.963224 0.723766 0.124514
O O2 0.082906 0.614793 0.033242
O O3 0.263061 0.897434 0.622048
O O4 0.161022 0.829853 0.801023
O O5 0.307873 0.899175 0.855476
O O6 0.180063 0.000000 0.750000
O O7 0.254705 0.394207 0.505943
O O8 0.166316 0.533368 0.441169
O O9 0.181035 0.404603 0.281276
O O10 0.661604 0.189651 0.952968
O O11 0.330887 0.734241 0.856376
O O12 0.349803 0.576965 0.789898
O O13 0.470813 0.470813 0.875000
#
# Coordination Sequence:
#
# PCOD9547902 Si02
#       7
#     4   8   8   8   8   8   4
#     4  10  20  40  56  90 124 160 206 254 316 386
#     4  10  20  36  62  90 117 162 204 257 311 382
#     4  10  21  36  57  88 118 159 200 260 311 377
#     4   9  21  38  63  86 124 160 206 252 314 390
#     4  10  22  39  61  83 118 164 212 252 318 382
#     4  10  21  36  57  85 122 157 204 256 316 371
#     4  12  28  42  64  92 126 172 226 282 324 380
#
# _framework density 19.109732000000001
#
# number of rings (size 3 to 8) (size 9 to 14) (size 15 to 20)
#    0.000    2.000    0.000    2.500    8.167    2.667 
#    0.000    2.500    7.333    0.000    0.000    0.000 
#    0.000    0.000    0.000    0.000    0.000    0.000 
#
# Total GULP energy -267349.232919 kJ/mol
# GULP energy per Si atom -5569.775686 kJ/mol
# Density = 1.906624 g / cm^3
# Si number density = 19.109732 Si / 1000 Ang^3
#
#
#
# Elastic Constant Matrix: (Units=GPa)
#
#
# Indices 1 2 3 4 5 6 
#
# 1 83.4295 30.9397 25.4982 0.0000 0.0000 0.0000
# 2 30.9397 83.4295 25.4982 0.0000 0.0000 0.0000
# 3 25.4982 25.4982 78.8188 0.0000 0.0000 0.0000
# 4 0.0000 0.0000 0.0000 30.6081 0.0000 0.0000
# 5 0.0000 0.0000 0.0000 0.0000 30.6081 0.0000
# 6 0.0000 0.0000 0.0000 0.0000 0.0000 16.1726
#
#
#
# Elastic Compliance Matrix: (Units=1/GPa)
#
#
# Indices 1 2 3 4 5 6 
#
# 1 0.014634 -0.004417 -0.003305 0.000000 0.000000 0.000000
# 2 -0.004417 0.014634 -0.003305 0.000000 0.000000 0.000000
# 3 -0.003305 -0.003305 0.014826 0.000000 0.000000 0.000000
# 4 0.000000 0.000000 0.000000 0.032671 0.000000 0.000000
# 5 0.000000 0.000000 0.000000 0.000000 0.032671 0.000000
# 6 0.000000 0.000000 0.000000 0.000000 0.000000 0.061833
#
#
# Mechanical properties :
#
#
# Convention : Reuss Voigt Hill
#
# Bulk Modulus (GPa) = 45.37350 45.50558 45.43954
# Shear Modulus (GPa) = 24.91634 26.39389 25.65511
#
# Velocity S-wave (km/s) = 3.61481 3.72045 3.66801
# Velocity P-wave (km/s) = 6.42010 6.50539 6.46289
#
# Compressibility (1/GPa) = 0.02203929
#
# Stress axis : x y z
#
# Youngs Moduli (GPa) = 68.33222 68.33222 67.44931
#
# Poissons Ratio (x) = 0.30182 0.22295
# Poissons Ratio (y) = 0.30182 0.22295
# Poissons Ratio (z) = 0.22587 0.22587
#
# Static dielectric constant tensor:
#      x y z
#    x 1.672170 0.000000 0.000000 
#    y 0.000000 1.672170 0.000000 
#    z 0.000000 0.000000 1.589130 
# 
# From -- ./inp_files/3877.got.cif
#   From: 2010.05.17/outbox.cif.g08.bks.cpg/sg91_2_cif.got.tgz:3877.got - 2010.06.03 19:20:03.
