data_PCOD9547911
_publ_section_title
;
Structure prediction by ZEFSAII (Michael W. Deem and Ramdas Pophale) SiO2 
 PCOD9547911
Probable space group: P 41 2 2
;
_chemical_formula_sum "Si O2"
_cell_formula_units_Z 20
_cell_length_a 13.971292
_cell_length_b 13.971292
_cell_length_c 5.110139
_cell_angle_alpha 90.000000
_cell_angle_beta 90.000000
_cell_angle_gamma 90.000000
_cell_volume 997.483803
_symmetry_space_group_name_H-M "P 41 2 2"
_symmetry_group_IT_number 91
_symmetry_cell_setting 'tetragonal'
loop_
_space_group_symop_operation_xyz
x,y,z
-y,x,1/4+z
-x,-y,1/2+z
y,-x,3/4+z
x,-y,1/2-z
-x,y,-z
y,x,3/4-z
-y,-x,1/4-z
loop_
_atom_site_type_symbol
_atom_site_label
_atom_site_fract_x
_atom_site_fract_y
_atom_site_fract_z
Si Si1 0.000000 0.851197 0.500000
Si Si2 0.829910 0.735852 0.631782
Si Si3 0.562826 0.284716 0.247618
O O1 0.064182 0.778902 0.326785
O O2 0.924028 0.924028 0.375000
O O3 0.787481 0.787481 0.375000
O O4 0.806677 0.625281 0.587913
O O5 0.767063 0.767063 0.875000
O O6 0.500000 0.317096 0.500000
O O7 0.633364 0.366637 0.125000
O O8 0.500000 0.256492 0.000000
#
# Coordination Sequence:
#
# PCOD9547911 Si02
#       3
#     4   8   8
#     4  10  20  36  64  94 118 152 204 248 286 358
#     4  10  21  38  58  85 123 157 187 242 310 352
#     4  11  22  39  60  85 118 156 199 248 302 359
#
# _framework density 20.050449
#
# number of rings (size 3 to 8) (size 9 to 14) (size 15 to 20)
#    0.000    1.600    0.000    7.200    0.000    6.400 
#    0.000    4.000    0.000    0.000    0.000    0.000 
#    0.000    0.000    0.000    0.000    0.000    0.000 
#
# Total GULP energy -111369.507863 kJ/mol
# GULP energy per Si atom -5568.475393 kJ/mol
# Density = 2.000481 g / cm^3
# Si number density = 20.050449 Si / 1000 Ang^3
#
#
#
# Elastic Constant Matrix: (Units=GPa)
#
#
# Indices 1 2 3 4 5 6 
#
# 1 55.2848 116.7993 36.2125 0.0000 0.0000 0.0000
# 2 116.7993 55.2836 36.2091 0.0000 0.0000 0.0000
# 3 36.2125 36.2091 125.0172 0.0000 0.0000 0.0000
# 4 0.0000 0.0000 0.0000 19.3711 0.0000 0.0000
# 5 0.0000 0.0000 0.0000 0.0000 19.3714 0.0000
# 6 0.0000 0.0000 0.0000 0.0000 0.0000 21.4074
#
#
#
# Elastic Compliance Matrix: (Units=1/GPa)
#
#
# Indices 1 2 3 4 5 6 
#
# 1 -0.004819 0.011437 -0.001917 0.000000 0.000000 0.000000
# 2 0.011437 -0.004819 -0.001917 0.000000 0.000000 0.000000
# 3 -0.001917 -0.001917 0.009109 0.000000 0.000000 0.000000
# 4 0.000000 0.000000 0.000000 0.051623 0.000000 0.000000
# 5 0.000000 0.000000 0.000000 0.000000 0.051622 0.000000
# 6 0.000000 0.000000 0.000000 0.000000 0.000000 0.046713
#
#
# Mechanical properties :
#
#
# Convention : Reuss Voigt Hill
#
# Bulk Modulus (GPa) = 68.13080 68.22525 68.17802
# Shear Modulus (GPa) = 35.94140 15.12096 25.53118
#
# Velocity S-wave (km/s) = 4.23844 2.74915 3.57227
# Velocity P-wave (km/s) = 7.61617 6.64664 7.14786
#
# Compressibility (1/GPa) = 0.01467765
#
# Stress axis : x y z
#
# Youngs Moduli (GPa) = -207.50303 -207.50664 109.77780
#
# Poissons Ratio (x) = 2.37325 0.21040
# Poissons Ratio (y) = 2.37321 0.21045
# Poissons Ratio (z) = -0.39770 -0.39780
#
# Static dielectric constant tensor:
#      x y z
#    x 1.775790 0.000000 0.000000 
#    y 0.000000 1.775800 0.000000 
#    z 0.000000 0.000000 1.713350 
# 
# From -- ./inp_files/8186.got.cif
#   From: 2010.05.17/outbox.cif.g08.bks.cpg/sg91_5_cif.got.tgz:8186.got - 2010.06.03 19:20:03.
