data_PCOD9547551
_publ_section_title
;
Structure prediction by ZEFSAII (Michael W. Deem and Ramdas Pophale) SiO2 
 PCOD9547551
Probable space group: P 41 2 2
;
_chemical_formula_sum "Si O2"
_cell_formula_units_Z 56
_cell_length_a 14.998441
_cell_length_b 14.998441
_cell_length_c 15.782113
_cell_angle_alpha 90.000000
_cell_angle_beta 90.000000
_cell_angle_gamma 90.000000
_cell_volume 3550.237334
_symmetry_space_group_name_H-M "P 41 2 2"
_symmetry_group_IT_number 91
_symmetry_cell_setting 'tetragonal'
loop_
_space_group_symop_operation_xyz
x,y,z
-y,x,1/4+z
-x,-y,1/2+z
y,-x,3/4+z
x,-y,1/2-z
-x,y,-z
y,x,3/4-z
-y,-x,1/4-z
loop_
_atom_site_type_symbol
_atom_site_label
_atom_site_fract_x
_atom_site_fract_y
_atom_site_fract_z
Si Si1 0.400755 0.295400 0.003932
Si Si2 0.421789 0.758361 0.762288
Si Si3 0.878082 0.409021 0.133583
Si Si4 0.400350 0.766251 0.963809
Si Si5 0.747331 0.625112 0.048368
Si Si6 0.390892 0.966610 0.001999
Si Si7 0.394049 0.062528 0.169875
O O1 0.399219 0.205631 0.947483
O O2 0.500000 0.333735 0.000000
O O3 0.326993 0.367269 0.979599
O O4 0.383853 0.272113 0.101677
O O5 0.383381 0.841980 0.708993
O O6 0.409284 0.769263 0.861962
O O7 0.526730 0.745785 0.742907
O O8 0.900693 0.513163 0.119178
O O9 0.964963 0.366130 0.176420
O O10 0.328176 0.690713 0.987317
O O11 0.366676 0.863696 0.991916
O O12 0.500000 0.749606 0.000000
O O13 0.850181 0.657243 0.046529
O O14 0.500000 0.965082 0.000000
O O15 0.356604 0.007107 0.090671
O O16 0.412736 0.000000 0.250000
#
# Coordination Sequence:
#
# PCOD9547551 Si02
#       7
#     8   8   8   8   8   8   8
#     4  11  17  33  48  70 102 129 172 207 243 280
#     4  10  22  30  50  72  95 139 172 205 242 295
#     4  10  18  30  50  74  93 121 166 215 257 288
#     4  10  23  37  47  69 105 136 171 204 254 296
#     4  10  21  35  49  71 101 136 168 211 240 295
#     4   9  18  32  51  71  96 128 157 213 261 296
#     4  10  19  31  52  74  93 126 168 209 259 304
#
# _framework density 15.773593999999999
#
# number of rings (size 3 to 8) (size 9 to 14) (size 15 to 20)
#    0.000    2.000    4.286    0.857   12.000    1.143 
#    0.000    2.857    0.000    0.000    0.000    0.000 
#    0.000    4.571    0.000    0.000    0.000    0.000 
#
# Total GULP energy -311754.529021 kJ/mol
# GULP energy per Si atom -5567.045161 kJ/mol
# Density = 1.573769 g / cm^3
# Si number density = 15.773594 Si / 1000 Ang^3
#
#
#
# Elastic Constant Matrix: (Units=GPa)
#
#
# Indices 1 2 3 4 5 6 
#
# 1 77.5944 42.1849 21.2664 0.0000 0.0000 0.0000
# 2 42.1849 77.5944 21.2664 0.0000 0.0000 0.0000
# 3 21.2664 21.2664 45.3828 0.0000 0.0000 0.0000
# 4 0.0000 0.0000 0.0000 23.3540 0.0000 0.0000
# 5 0.0000 0.0000 0.0000 0.0000 23.3540 0.0000
# 6 0.0000 0.0000 0.0000 0.0000 0.0000 -0.0120
#
#
#
# Elastic Compliance Matrix: (Units=1/GPa)
#
#
# Indices 1 2 3 4 5 6 
#
# 1 0.019128 -0.009113 -0.004693 0.000000 0.000000 0.000000
# 2 -0.009113 0.019128 -0.004693 0.000000 0.000000 0.000000
# 3 -0.004693 -0.004693 0.026433 0.000000 0.000000 0.000000
# 4 0.000000 0.000000 0.000000 0.042819 0.000000 0.000000
# 5 0.000000 0.000000 0.000000 0.000000 0.042819 0.000000
# 6 0.000000 0.000000 0.000000 0.000000 0.000000-83.480957
#
#
# Mechanical properties :
#
#
# Convention : Reuss Voigt Hill
#
# Bulk Modulus (GPa) = 36.11276 41.11189 38.61233
# Shear Modulus (GPa) = -0.06004 17.06279 8.50138
#
# Velocity S-wave (km/s) = -0.19530 3.29254 2.32408
# Velocity P-wave (km/s) = 4.78469 6.36983 5.63329
#
# Compressibility (1/GPa) = 0.02769104
#
# Stress axis : x y z
#
# Youngs Moduli (GPa) = 52.27912 52.27912 37.83125
#
# Poissons Ratio (x) = 0.47641 0.17755
# Poissons Ratio (y) = 0.47641 0.17755
# Poissons Ratio (z) = 0.24535 0.24535
#
# Static dielectric constant tensor:
#      x y z
#    x 1.541980 0.000000 0.000000 
#    y 0.000000 1.541980 0.000000 
#    z 0.000000 0.000000 1.568720 
# 
# From -- ./inp_files/4963.got.cif
#   From: 2010.05.17/outbox.cif.g08.bks.cpg/sg91_3_cif.got.tgz:4963.got - 2010.06.03 19:20:03.
