data_PCOD9547943
_publ_section_title
;
Structure prediction by ZEFSAII (Michael W. Deem and Ramdas Pophale) SiO2 
 PCOD9547943
Probable space group: P 41 2 2
;
_chemical_formula_sum "Si O2"
_cell_formula_units_Z 64
_cell_length_a 11.680205
_cell_length_b 11.680205
_cell_length_c 22.939966
_cell_angle_alpha 90.000000
_cell_angle_beta 90.000000
_cell_angle_gamma 90.000000
_cell_volume 3129.635074
_symmetry_space_group_name_H-M "P 41 2 2"
_symmetry_group_IT_number 91
_symmetry_cell_setting 'tetragonal'
loop_
_space_group_symop_operation_xyz
x,y,z
-y,x,1/4+z
-x,-y,1/2+z
y,-x,3/4+z
x,-y,1/2-z
-x,y,-z
y,x,3/4-z
-y,-x,1/4-z
loop_
_atom_site_type_symbol
_atom_site_label
_atom_site_fract_x
_atom_site_fract_y
_atom_site_fract_z
Si Si1 0.779557 0.029747 0.048063
Si Si2 0.562654 0.721928 0.334804
Si Si3 0.402667 0.729457 0.082512
Si Si4 0.478389 0.884699 0.561863
Si Si5 0.173327 0.179108 0.624860
Si Si6 0.318943 0.349297 0.199588
Si Si7 0.962154 0.699500 0.824948
Si Si8 0.266998 0.134304 0.752999
O O1 0.650018 0.067274 0.063745
O O2 0.849485 0.146227 0.037127
O O3 0.827440 0.946900 0.097237
O O4 0.766278 0.961532 0.986816
O O5 0.644345 0.644345 0.375000
O O6 0.507803 0.809991 0.380941
O O7 0.455724 0.652996 0.308832
O O8 0.638284 0.789578 0.286671
O O9 0.372917 0.627084 0.125000
O O10 0.538651 0.739836 0.078392
O O11 0.334853 0.842064 0.102157
O O12 0.357896 0.705109 0.017807
O O13 0.500000 0.820398 0.500000
O O14 0.576161 0.980346 0.561351
O O15 0.241892 0.260039 0.580771
O O16 0.237937 0.177384 0.687548
O O17 0.047470 0.228866 0.635085
O O18 0.298427 0.000000 0.750000
#
# Coordination Sequence:
#
# PCOD9547943 Si02
#       8
#     8   8   8   8   8   8   8   8
#     4  10  20  41  67  96 134 177 227 280 332 425
#     4  12  24  43  65 100 141 172 229 295 353 414
#     4  11  25  47  68  95 137 178 229 281 351 421
#     4  10  20  37  67  93 126 175 225 277 337 413
#     4  11  22  42  70  99 140 176 233 283 338 419
#     4  11  25  45  69 100 132 182 230 283 351 419
#     4  10  21  40  68 101 124 181 227 274 348 404
#     4  11  26  41  66 104 138 181 226 286 359 404
#
# _framework density 20.449669
#
# number of rings (size 3 to 8) (size 9 to 14) (size 15 to 20)
#    0.000    1.250    3.750    1.875    5.250    0.000 
#    6.750    0.625    0.000    0.000    0.000    0.000 
#    0.000    0.000    0.000    0.000    0.000    0.000 
#
# Total GULP energy -357576.156903 kJ/mol
# GULP energy per Si atom -5587.127452 kJ/mol
# Density = 2.040312 g / cm^3
# Si number density = 20.449669 Si / 1000 Ang^3
#
#
#
# Elastic Constant Matrix: (Units=GPa)
#
#
# Indices 1 2 3 4 5 6 
#
# 1 98.2422 13.4585 22.2299 0.0000 0.0000 0.0000
# 2 13.4585 98.2458 22.2379 0.0000 0.0000 0.0000
# 3 22.2299 22.2379 39.9894 0.0000 0.0000 0.0000
# 4 0.0000 0.0000 0.0000 27.5637 0.0000 0.0000
# 5 0.0000 0.0000 0.0000 0.0000 27.5634 0.0000
# 6 0.0000 0.0000 0.0000 0.0000 0.0000 23.1337
#
#
#
# Elastic Compliance Matrix: (Units=1/GPa)
#
#
# Indices 1 2 3 4 5 6 
#
# 1 0.011645 -0.000149 -0.006391 0.000000 0.000000 0.000000
# 2 -0.000149 0.011646 -0.006394 0.000000 0.000000 0.000000
# 3 -0.006391 -0.006394 0.032115 0.000000 0.000000 0.000000
# 4 0.000000 0.000000 0.000000 0.036280 0.000000 0.000000
# 5 0.000000 0.000000 0.000000 0.000000 0.036280 0.000000
# 6 0.000000 0.000000 0.000000 0.000000 0.000000 0.043227
#
#
# Mechanical properties :
#
#
# Convention : Reuss Voigt Hill
#
# Bulk Modulus (GPa) = 33.85276 39.14779 36.50027
# Shear Modulus (GPa) = 24.16556 27.55557 25.86057
#
# Velocity S-wave (km/s) = 3.44133 3.67479 3.55997
# Velocity P-wave (km/s) = 5.69038 6.09840 5.89792
#
# Compressibility (1/GPa) = 0.02953969
#
# Stress axis : x y z
#
# Youngs Moduli (GPa) = 85.87076 85.86550 31.13834
#
# Poissons Ratio (x) = 0.01277 0.19900
# Poissons Ratio (y) = 0.01277 0.19909
# Poissons Ratio (z) = 0.54879 0.54900
#
# Static dielectric constant tensor:
#      x y z
#    x 1.737410 0.000000 0.000000 
#    y 0.000000 1.737410 0.000000 
#    z 0.000000 0.000000 1.729010 
# 
# From -- ./inp_files/17658.got.cif
#   From: 2010.05.17/outbox.cif.g08.bks.cpg/sg91_9_cif.got.tgz:17658.got - 2010.06.03 19:20:03.
