data_PCOD9547818
_publ_section_title
;
Structure prediction by ZEFSAII (Michael W. Deem and Ramdas Pophale) SiO2 
 PCOD9547818
Probable space group: P 41 2 2
;
_chemical_formula_sum "Si O2"
_cell_formula_units_Z 52
_cell_length_a 18.653550
_cell_length_b 18.653550
_cell_length_c 9.515537
_cell_angle_alpha 90.000000
_cell_angle_beta 90.000000
_cell_angle_gamma 90.000000
_cell_volume 3310.977988
_symmetry_space_group_name_H-M "P 41 2 2"
_symmetry_group_IT_number 91
_symmetry_cell_setting 'tetragonal'
loop_
_space_group_symop_operation_xyz
x,y,z
-y,x,1/4+z
-x,-y,1/2+z
y,-x,3/4+z
x,-y,1/2-z
-x,y,-z
y,x,3/4-z
-y,-x,1/4-z
loop_
_atom_site_type_symbol
_atom_site_label
_atom_site_fract_x
_atom_site_fract_y
_atom_site_fract_z
Si Si1 0.442178 0.442178 0.875000
Si Si2 0.281215 0.453958 0.974025
Si Si3 0.677559 0.789036 0.436082
Si Si4 0.417968 0.820712 0.977386
Si Si5 0.916899 0.359918 0.001615
Si Si6 0.796201 0.398080 0.453104
Si Si7 0.521204 0.940350 0.650523
O O1 0.449047 0.500000 0.750000
O O2 0.365199 0.447077 0.951094
O O3 0.243205 0.397763 0.870246
O O4 0.258452 0.535295 0.940111
O O5 0.248099 0.432046 0.126016
O O6 0.740800 0.740800 0.375000
O O7 0.679671 0.868246 0.367662
O O8 0.669498 0.781763 0.603859
O O9 0.364763 0.874726 0.896197
O O10 0.500000 0.849947 0.000000
O O11 0.387103 0.802983 0.130308
O O12 0.917387 0.444621 0.038360
O O13 0.000000 0.336902 0.000000
O O14 0.871385 0.429331 0.394397
O O15 0.500000 0.970875 0.500000
O O16 0.554258 0.000000 0.750000
#
# Coordination Sequence:
#
# PCOD9547818 Si02
#       7
#     4   8   8   8   8   8   8
#     4  12  26  40  56  70  86 120 166 232 286 318
#     4  10  20  36  52  66  91 123 160 207 263 304
#     4  11  20  34  53  71  91 135 173 203 243 307
#     4   9  18  32  50  73  98 127 157 198 246 306
#     4  10  20  31  47  72 107 134 160 198 249 300
#     4  11  19  33  51  73  99 128 168 207 247 298
#     4  11  20  27  46  75 108 134 163 195 244 303
#
# _framework density 15.70533
#
# number of rings (size 3 to 8) (size 9 to 14) (size 15 to 20)
#    0.000    1.538    6.923    1.385    4.308    1.846 
#    0.000    3.077    3.385    0.000    0.000    0.000 
#    0.000    0.000    0.000    4.154    0.000    0.000 
#
# Total GULP energy -289874.328740 kJ/mol
# GULP energy per Si atom -5574.506322 kJ/mol
# Density = 1.566958 g / cm^3
# Si number density = 15.705330 Si / 1000 Ang^3
#
#
#
# Elastic Constant Matrix: (Units=GPa)
#
#
# Indices 1 2 3 4 5 6 
#
# 1 75.9067 26.2441 36.7714 0.0000 0.0000 0.0000
# 2 26.2441 75.9067 36.7714 0.0000 0.0000 0.0000
# 3 36.7714 36.7714 128.7709 0.0000 0.0000 0.0000
# 4 0.0000 0.0000 0.0000 12.2379 0.0000 0.0000
# 5 0.0000 0.0000 0.0000 0.0000 12.2379 0.0000
# 6 0.0000 0.0000 0.0000 0.0000 0.0000 7.1803
#
#
#
# Elastic Compliance Matrix: (Units=1/GPa)
#
#
# Indices 1 2 3 4 5 6 
#
# 1 0.016229 -0.003907 -0.003519 0.000000 0.000000 0.000000
# 2 -0.003907 0.016229 -0.003519 0.000000 0.000000 0.000000
# 3 -0.003519 -0.003519 0.009775 0.000000 0.000000 0.000000
# 4 0.000000 0.000000 0.000000 0.081713 0.000000 0.000000
# 5 0.000000 0.000000 0.000000 0.000000 0.081713 0.000000
# 6 0.000000 0.000000 0.000000 0.000000 0.000000 0.139270
#
#
# Mechanical properties :
#
#
# Convention : Reuss Voigt Hill
#
# Bulk Modulus (GPa) = 49.15066 53.35088 51.25077
# Shear Modulus (GPa) = 13.38325 18.38439 15.88382
#
# Velocity S-wave (km/s) = 2.92232 3.42509 3.18365
# Velocity P-wave (km/s) = 6.53836 7.04878 6.79836
#
# Compressibility (1/GPa) = 0.02034561
#
# Stress axis : x y z
#
# Youngs Moduli (GPa) = 61.61675 61.61675 102.29763
#
# Poissons Ratio (x) = 0.24071 0.35997
# Poissons Ratio (y) = 0.24071 0.35997
# Poissons Ratio (z) = 0.21682 0.21682
#
# Static dielectric constant tensor:
#      x y z
#    x 1.531720 0.000000 0.000000 
#    y 0.000000 1.531720 0.000000 
#    z 0.000000 0.000000 -35.081760 
# 
# From -- ./inp_files/15265.got.cif
#   From: 2010.05.17/outbox.cif.g08.bks.cpg/sg91_8_cif.got.tgz:15265.got - 2010.06.03 19:20:03.
