data_PCOD9547237
_publ_section_title
;
Structure prediction by ZEFSAII (Michael W. Deem and Ramdas Pophale) SiO2 
 PCOD9547237
Probable space group: P 4 21 2
;
_chemical_formula_sum "Si O2"
_cell_formula_units_Z 40
_cell_length_a 12.478936
_cell_length_b 12.478936
_cell_length_c 13.248612
_cell_angle_alpha 90.000000
_cell_angle_beta 90.000000
_cell_angle_gamma 90.000000
_cell_volume 2063.124784
_symmetry_space_group_name_H-M "P 4 21 2"
_symmetry_group_IT_number 90
_symmetry_cell_setting 'tetragonal'
loop_
_space_group_symop_operation_xyz
x,y,z
1/2-y,1/2+x,z
-x,-y,z
1/2+y,1/2-x,z
1/2+x,1/2-y,-z
1/2-x,1/2+y,-z
y,x,-z
-y,-x,-z
loop_
_atom_site_type_symbol
_atom_site_label
_atom_site_fract_x
_atom_site_fract_y
_atom_site_fract_z
Si Si1 0.498246 0.621999 0.752240
Si Si2 0.293061 0.632200 0.891650
Si Si3 0.717224 0.598790 0.831268
Si Si4 0.679365 0.024530 0.604346
Si Si5 0.541547 0.825044 0.371247
O O1 0.500000 0.500000 0.709828
O O2 0.384688 0.640665 0.806047
O O3 0.591390 0.622594 0.836930
O O4 0.524338 0.716866 0.674541
O O5 0.254630 0.509402 0.889731
O O6 0.197017 0.711649 0.865730
O O7 0.340067 0.659933 0.000000
O O8 0.740704 0.572058 0.713462
O O9 0.588528 0.116225 0.620345
O O10 0.711838 0.040448 0.487139
O O11 0.423740 0.875960 0.356796
#
# Coordination Sequence:
#
# PCOD9547237 Si02
#       5
#     8   8   8   8   8
#     4  10  23  40  59  90 132 170 202 253 325 390
#     4  11  26  42  65  94 121 166 215 265 324 374
#     4  11  22  41  68  88 124 165 208 264 311 375
#     4   9  18  36  64  91 123 167 212 264 314 360
#     4   9  17  34  62  94 121 158 216 266 300 356
#
# _framework density 19.388065000000001
#
# number of rings (size 3 to 8) (size 9 to 14) (size 15 to 20)
#    0.000    2.000    2.000    2.400    2.800    4.000 
#    0.000    7.000    0.000    0.000    0.000    0.000 
#    0.000    0.000    0.000    0.000    0.000    0.000 
#
# Total GULP energy -223282.852833 kJ/mol
# GULP energy per Si atom -5582.071321 kJ/mol
# Density = 1.934394 g / cm^3
# Si number density = 19.388065 Si / 1000 Ang^3
#
#
#
# Elastic Constant Matrix: (Units=GPa)
#
#
# Indices 1 2 3 4 5 6 
#
# 1 80.7379 48.4477 22.6110 0.0000 0.0000 0.0000
# 2 48.4477 80.7401 22.6117 0.0000 0.0000 0.0000
# 3 22.6110 22.6117 56.7925 0.0000 0.0000 0.0000
# 4 0.0000 0.0000 0.0000 10.6629 0.0000 0.0000
# 5 0.0000 0.0000 0.0000 0.0000 10.6607 0.0000
# 6 0.0000 0.0000 0.0000 0.0000 0.0000 23.5685
#
#
#
# Elastic Compliance Matrix: (Units=1/GPa)
#
#
# Indices 1 2 3 4 5 6 
#
# 1 0.019981 -0.010987 -0.003581 0.000000 0.000000 0.000000
# 2 -0.010987 0.019981 -0.003581 0.000000 0.000000 0.000000
# 3 -0.003581 -0.003581 0.020459 0.000000 0.000000 0.000000
# 4 0.000000 0.000000 0.000000 0.093783 0.000000 0.000000
# 5 0.000000 0.000000 0.000000 0.000000 0.093802 0.000000
# 6 0.000000 0.000000 0.000000 0.000000 0.000000 0.042429
#
#
# Mechanical properties :
#
#
# Convention : Reuss Voigt Hill
#
# Bulk Modulus (GPa) = 41.45239 45.06792 43.26016
# Shear Modulus (GPa) = 14.93538 17.28511 16.11025
#
# Velocity S-wave (km/s) = 2.77851 2.98910 2.88572
# Velocity P-wave (km/s) = 5.63207 5.93368 5.78484
#
# Compressibility (1/GPa) = 0.02412406
#
# Stress axis : x y z
#
# Youngs Moduli (GPa) = 50.04648 50.04760 48.87725
#
# Poissons Ratio (x) = 0.54987 0.17502
# Poissons Ratio (y) = 0.54986 0.17503
# Poissons Ratio (z) = 0.17921 0.17923
#
# Static dielectric constant tensor:
#      x y z
#    x 1.680160 0.000000 0.000000 
#    y 0.000000 1.680160 0.000000 
#    z 0.000000 0.000000 1.658590 
# 
# From -- ./inp_files/2468.got.cif
#   From: 2010.05.17/outbox.cif.g08.bks.cpg/sg90_2_cif.got.tgz:2468.got - 2010.06.03 19:17:45.
