data_PCOD9547341
_publ_section_title
;
Structure prediction by ZEFSAII (Michael W. Deem and Ramdas Pophale) SiO2 
 PCOD9547341
Probable space group: P 4 21 2
;
_chemical_formula_sum "Si O2"
_cell_formula_units_Z 36
_cell_length_a 8.049901
_cell_length_b 8.049901
_cell_length_c 25.186587
_cell_angle_alpha 90.000000
_cell_angle_beta 90.000000
_cell_angle_gamma 90.000000
_cell_volume 1632.113659
_symmetry_space_group_name_H-M "P 4 21 2"
_symmetry_group_IT_number 90
_symmetry_cell_setting 'tetragonal'
loop_
_space_group_symop_operation_xyz
x,y,z
1/2-y,1/2+x,z
-x,-y,z
1/2+y,1/2-x,z
1/2+x,1/2-y,-z
1/2-x,1/2+y,-z
y,x,-z
-y,-x,-z
loop_
_atom_site_type_symbol
_atom_site_label
_atom_site_fract_x
_atom_site_fract_y
_atom_site_fract_z
Si Si1 0.580101 0.266471 0.948916
Si Si2 0.594953 0.263784 0.272522
Si Si3 0.000000 0.000000 0.641521
Si Si4 0.093108 0.235212 0.845728
Si Si5 0.236088 0.905287 0.553932
O O1 0.394508 0.199043 0.950848
O O2 0.619240 0.357599 0.893984
O O3 0.626227 0.373774 0.000000
O O4 0.402922 0.203477 0.276415
O O5 0.617165 0.393273 0.319590
O O6 0.621209 0.335341 0.213378
O O7 0.888955 0.114660 0.603124
O O8 0.202598 0.403554 0.849628
O O9 0.402794 0.795217 0.555644
O O10 0.141429 0.858572 0.500000
#
# Coordination Sequence:
#
# PCOD9547341 Si02
#       5
#     8   8   4   8   8
#     4  11  24  39  57  84 114 145 187 238 292 352
#     4   9  20  37  57  84 118 157 199 243 294 356
#     4  12  21  36  62  92 123 158 202 252 304 360
#     4   9  19  37  59  83 113 149 192 238 285 345
#     4  11  24  42  64  92 127 166 209 258 312 370
#
# _framework density 22.057289999999998
#
# number of rings (size 3 to 8) (size 9 to 14) (size 15 to 20)
#    0.000    1.778    0.000    5.667    0.000    8.444 
#    0.000    2.222    0.000    2.667    0.000    0.000 
#    0.000    0.000    0.000    0.000    0.000    0.000 
#
# Total GULP energy -201507.636246 kJ/mol
# GULP energy per Si atom -5597.434340 kJ/mol
# Density = 2.200709 g / cm^3
# Si number density = 22.057290 Si / 1000 Ang^3
#
#
#
# Elastic Constant Matrix: (Units=GPa)
#
#
# Indices 1 2 3 4 5 6 
#
# 1 65.3173 30.3196 51.7740 0.0000 0.0000 0.0000
# 2 30.3196 65.3167 51.7734 0.0000 0.0000 0.0000
# 3 51.7740 51.7734 199.3827 0.0000 0.0000 0.0000
# 4 0.0000 0.0000 0.0000 41.1913 0.0000 0.0000
# 5 0.0000 0.0000 0.0000 0.0000 41.1913 0.0000
# 6 0.0000 0.0000 0.0000 0.0000 0.0000 34.0570
#
#
#
# Elastic Compliance Matrix: (Units=1/GPa)
#
#
# Indices 1 2 3 4 5 6 
#
# 1 0.021560 -0.007014 -0.003777 0.000000 0.000000 0.000000
# 2 -0.007014 0.021560 -0.003777 0.000000 0.000000 0.000000
# 3 -0.003777 -0.003777 0.006977 0.000000 0.000000 0.000000
# 4 0.000000 0.000000 0.000000 0.024277 0.000000 0.000000
# 5 0.000000 0.000000 0.000000 0.000000 0.024277 0.000000
# 6 0.000000 0.000000 0.000000 0.000000 0.000000 0.029363
#
#
# Mechanical properties :
#
#
# Convention : Reuss Voigt Hill
#
# Bulk Modulus (GPa) = 47.70938 66.41674 57.06306
# Shear Modulus (GPa) = 30.46256 36.36456 33.41356
#
# Velocity S-wave (km/s) = 3.72030 4.06475 3.89633
# Velocity P-wave (km/s) = 6.33490 7.22537 6.79474
#
# Compressibility (1/GPa) = 0.02096024
#
# Stress axis : x y z
#
# Youngs Moduli (GPa) = 46.38299 46.38278 143.32640
#
# Poissons Ratio (x) = 0.32532 0.54136
# Poissons Ratio (y) = 0.32533 0.54135
# Poissons Ratio (z) = 0.17519 0.17519
#
# Static dielectric constant tensor:
#      x y z
#    x 1.802150 0.000000 0.000000 
#    y 0.000000 1.802150 0.000000 
#    z 0.000000 0.000000 1.779350 
# 
# From -- ./inp_files/2748.got.cif
#   From: 2010.05.17/outbox.cif.g08.bks.cpg/sg90_2_cif.got.tgz:2748.got - 2010.06.03 19:17:45.
