data_PCOD9547367
_publ_section_title
;
Structure prediction by ZEFSAII (Michael W. Deem and Ramdas Pophale) SiO2 
 PCOD9547367
Probable space group: P 4 21 2
;
_chemical_formula_sum "Si O2"
_cell_formula_units_Z 50
_cell_length_a 8.533449
_cell_length_b 8.533449
_cell_length_c 32.314977
_cell_angle_alpha 90.000000
_cell_angle_beta 90.000000
_cell_angle_gamma 90.000000
_cell_volume 2353.168606
_symmetry_space_group_name_H-M "P 4 21 2"
_symmetry_group_IT_number 90
_symmetry_cell_setting 'tetragonal'
loop_
_space_group_symop_operation_xyz
x,y,z
1/2-y,1/2+x,z
-x,-y,z
1/2+y,1/2-x,z
1/2+x,1/2-y,-z
1/2-x,1/2+y,-z
y,x,-z
-y,-x,-z
loop_
_atom_site_type_symbol
_atom_site_label
_atom_site_fract_x
_atom_site_fract_y
_atom_site_fract_z
Si Si1 0.765122 0.374255 0.619543
Si Si2 0.613535 0.237135 0.792534
Si Si3 0.258991 0.106486 0.539222
Si Si4 0.108489 0.256567 0.115934
Si Si5 0.833582 0.916573 0.291870
Si Si6 0.000000 0.500000 0.714722
Si Si7 0.594547 0.247050 0.038349
O O1 0.797012 0.561715 0.617602
O O2 0.658598 0.323986 0.581441
O O3 0.688721 0.333044 0.663639
O O4 0.429133 0.200580 0.791540
O O5 0.642990 0.308805 0.837997
O O6 0.658273 0.328681 0.751833
O O7 0.423870 0.199348 0.537612
O O8 0.156639 0.156639 0.500000
O O9 0.198605 0.424386 0.112126
O O10 0.164822 0.140845 0.080426
O O11 0.687580 0.035496 0.287617
O O12 0.000000 0.000000 0.295589
O O13 0.414094 0.195212 0.036507
O O14 0.645910 0.354091 0.000000
#
# Coordination Sequence:
#
# PCOD9547367 Si02
#       7
#     8   8   8   8   8   2   8
#     4  11  24  44  67  97 135 176 227 287 346 416
#     4   9  20  40  64  93 131 177 231 282 341 416
#     4  11  26  45  68 101 136 178 232 289 351 428
#     4   9  19  40  65  90 124 166 214 273 331 392
#     4  12  24  42  69  98 139 187 233 285 361 419
#     4  12  24  48  60 104 144 172 240 300 340 428
#     4  11  24  41  60  91 126 164 212 267 330 398
#
# _framework density 21.247945999999999
#
# number of rings (size 3 to 8) (size 9 to 14) (size 15 to 20)
#    0.000    1.440    1.600    3.840    2.240    6.400 
#    8.640    1.600    0.000    0.000    0.000    0.000 
#    0.000    0.000    0.000    0.000    0.000    0.000 
#
# Total GULP energy -279070.961170 kJ/mol
# GULP energy per Si atom -5581.419223 kJ/mol
# Density = 2.119958 g / cm^3
# Si number density = 21.247946 Si / 1000 Ang^3
#
#
#
# Elastic Constant Matrix: (Units=GPa)
#
#
# Indices 1 2 3 4 5 6 
#
# 1 46.1924 24.6580 35.1038 0.0000 0.0000 0.0000
# 2 24.6580 46.1916 35.1033 0.0000 0.0000 0.0000
# 3 35.1038 35.1033 189.8769 0.0000 0.0000 0.0000
# 4 0.0000 0.0000 0.0000 8.4524 0.0000 0.0000
# 5 0.0000 0.0000 0.0000 0.0000 8.4524 0.0000
# 6 0.0000 0.0000 0.0000 0.0000 0.0000 41.4805
#
#
#
# Elastic Compliance Matrix: (Units=1/GPa)
#
#
# Indices 1 2 3 4 5 6 
#
# 1 0.031859 -0.014579 -0.003195 0.000000 0.000000 0.000000
# 2 -0.014579 0.031859 -0.003195 0.000000 0.000000 0.000000
# 3 -0.003195 -0.003195 0.006448 0.000000 0.000000 0.000000
# 4 0.000000 0.000000 0.000000 0.118310 0.000000 0.000000
# 5 0.000000 0.000000 0.000000 0.000000 0.118310 0.000000
# 6 0.000000 0.000000 0.000000 0.000000 0.000000 0.024108
#
#
# Mechanical properties :
#
#
# Convention : Reuss Voigt Hill
#
# Bulk Modulus (GPa) = 35.42433 52.44345 43.93389
# Shear Modulus (GPa) = 13.08080 24.17012 18.62546
#
# Velocity S-wave (km/s) = 2.48387 3.37638 2.96392
# Velocity P-wave (km/s) = 4.99342 6.31943 5.69515
#
# Compressibility (1/GPa) = 0.02822918
#
# Stress axis : x y z
#
# Youngs Moduli (GPa) = 31.38857 31.38807 155.09185
#
# Poissons Ratio (x) = 0.45761 0.49546
# Poissons Ratio (y) = 0.45761 0.49546
# Poissons Ratio (z) = 0.10028 0.10027
#
# Static dielectric constant tensor:
#      x y z
#    x 1.801130 0.000000 0.000000 
#    y 0.000000 1.801130 0.000000 
#    z 0.000000 0.000000 1.765250 
# 
# From -- ./inp_files/3067.got.cif
#   From: 2010.05.17/outbox.cif.g08.bks.cpg/sg90_2_cif.got.tgz:3067.got - 2010.06.03 19:17:45.
