data_PCOD9547427
_publ_section_title
;
Structure prediction by ZEFSAII (Michael W. Deem and Ramdas Pophale) SiO2 
 PCOD9547427
Probable space group: P 4 21 2
;
_chemical_formula_sum "Si O2"
_cell_formula_units_Z 34
_cell_length_a 8.309083
_cell_length_b 8.309083
_cell_length_c 22.687061
_cell_angle_alpha 90.000000
_cell_angle_beta 90.000000
_cell_angle_gamma 90.000000
_cell_volume 1566.334209
_symmetry_space_group_name_H-M "P 4 21 2"
_symmetry_group_IT_number 90
_symmetry_cell_setting 'tetragonal'
loop_
_space_group_symop_operation_xyz
x,y,z
1/2-y,1/2+x,z
-x,-y,z
1/2+y,1/2-x,z
1/2+x,1/2-y,-z
1/2-x,1/2+y,-z
y,x,-z
-y,-x,-z
loop_
_atom_site_type_symbol
_atom_site_label
_atom_site_fract_x
_atom_site_fract_y
_atom_site_fract_z
Si Si1 0.085257 0.241535 0.685581
Si Si2 0.758636 0.918560 0.446482
Si Si3 0.500000 0.500000 0.221314
Si Si4 0.500000 0.000000 0.982311
Si Si5 0.738734 0.575563 0.875181
Si Si6 0.305187 0.305187 0.000000
O O1 0.194226 0.400878 0.691321
O O2 0.106484 0.174272 0.619438
O O3 0.107338 0.110155 0.735764
O O4 0.599868 0.806527 0.450511
O O5 0.872133 0.872133 0.500000
O O6 0.598799 0.615934 0.177939
O O7 0.341791 0.117780 0.986266
O O8 0.809222 0.394608 0.871207
O O9 0.660214 0.606469 0.938325
#
# Coordination Sequence:
#
# PCOD9547427 Si02
#       6
#     8   8   4   2   8   4
#     4   9  20  42  62  86 127 172 223 279 343 412
#     4   9  19  35  59  90 124 163 210 272 337 404
#     4  12  24  35  67  92 118 178 234 278 332 412
#     4  12  28  44  88 104 164 184 260 288 402 436
#     4  11  25  46  68  98 139 179 230 297 367 432
#     4  12  24  52  70 114 138 202 226 320 364 460
#
# _framework density 21.706734999999998
#
# number of rings (size 3 to 8) (size 9 to 14) (size 15 to 20)
#    0.000    1.647    2.353    2.824    3.294    7.059 
#    0.000    0.000    0.000    6.353    0.000    0.000 
#    0.000    0.000    0.000    0.000    0.000    0.000 
#
# Total GULP energy -189517.869376 kJ/mol
# GULP energy per Si atom -5574.054982 kJ/mol
# Density = 2.165733 g / cm^3
# Si number density = 21.706735 Si / 1000 Ang^3
#
#
#
# Elastic Constant Matrix: (Units=GPa)
#
#
# Indices 1 2 3 4 5 6 
#
# 1 87.9689 33.6960 67.6172 0.0000 0.0000 0.0000
# 2 33.6960 87.9689 67.6172 0.0000 0.0000 0.0000
# 3 67.6172 67.6172 220.1969 0.0000 0.0000 0.0000
# 4 0.0000 0.0000 0.0000 41.3964 0.0000 0.0000
# 5 0.0000 0.0000 0.0000 0.0000 41.3964 0.0000
# 6 0.0000 0.0000 0.0000 0.0000 0.0000 32.6153
#
#
#
# Elastic Compliance Matrix: (Units=1/GPa)
#
#
# Indices 1 2 3 4 5 6 
#
# 1 0.015452 -0.002973 -0.003832 0.000000 0.000000 0.000000
# 2 -0.002973 0.015452 -0.003832 0.000000 0.000000 0.000000
# 3 -0.003832 -0.003832 0.006895 0.000000 0.000000 0.000000
# 4 0.000000 0.000000 0.000000 0.024157 0.000000 0.000000
# 5 0.000000 0.000000 0.000000 0.000000 0.024157 0.000000
# 6 0.000000 0.000000 0.000000 0.000000 0.000000 0.030660
#
#
# Mechanical properties :
#
#
# Convention : Reuss Voigt Hill
#
# Bulk Modulus (GPa) = 60.51671 81.55508 71.03590
# Shear Modulus (GPa) = 34.82986 38.22856 36.52921
#
# Velocity S-wave (km/s) = 4.01005 4.20114 4.10671
# Velocity P-wave (km/s) = 7.02712 7.82213 7.43526
#
# Compressibility (1/GPa) = 0.01652436
#
# Stress axis : x y z
#
# Youngs Moduli (GPa) = 64.71666 64.71666 145.03814
#
# Poissons Ratio (x) = 0.19243 0.55577
# Poissons Ratio (y) = 0.19243 0.55577
# Poissons Ratio (z) = 0.24799 0.24799
#
# Static dielectric constant tensor:
#      x y z
#    x 1.823040 0.000000 0.000000 
#    y 0.000000 1.823040 0.000000 
#    z 0.000000 0.000000 1.811760 
# 
# From -- ./inp_files/2779.got.cif
#   From: 2010.05.17/outbox.cif.g08.bks.cpg/sg90_2_cif.got.tgz:2779.got - 2010.06.03 19:17:45.
