data_PCOD9547511
_publ_section_title
;
Structure prediction by ZEFSAII (Michael W. Deem and Ramdas Pophale) SiO2 
 PCOD9547511
Probable space group: P 41 2 2
;
_chemical_formula_sum "Si O2"
_cell_formula_units_Z 56
_cell_length_a 17.252154
_cell_length_b 17.252154
_cell_length_c 11.803663
_cell_angle_alpha 90.000000
_cell_angle_beta 90.000000
_cell_angle_gamma 90.000000
_cell_volume 3513.204692
_symmetry_space_group_name_H-M "P 41 2 2"
_symmetry_group_IT_number 91
_symmetry_cell_setting 'tetragonal'
loop_
_space_group_symop_operation_xyz
x,y,z
-y,x,1/4+z
-x,-y,1/2+z
y,-x,3/4+z
x,-y,1/2-z
-x,y,-z
y,x,3/4-z
-y,-x,1/4-z
loop_
_atom_site_type_symbol
_atom_site_label
_atom_site_fract_x
_atom_site_fract_y
_atom_site_fract_z
Si Si1 0.136556 0.023613 0.445543
Si Si2 0.094083 0.598599 0.999286
Si Si3 0.081399 0.150644 0.055255
Si Si4 0.905436 0.577533 0.502904
Si Si5 0.289034 0.942009 0.435054
Si Si6 0.071307 0.590204 0.247805
Si Si7 0.726378 0.161396 0.148555
O O1 0.076794 0.076794 0.375000
O O2 0.155478 0.070774 0.559786
O O3 0.098484 0.939758 0.472104
O O4 0.218566 0.996292 0.390963
O O5 0.114863 0.510416 0.968047
O O6 0.108936 0.667577 0.910951
O O7 0.116932 0.607322 0.131136
O O8 0.000000 0.598657 0.000000
O O9 0.135222 0.215549 0.998989
O O10 0.000000 0.169993 0.000000
O O11 0.885063 0.596385 0.633788
O O12 0.860417 0.639647 0.429661
O O13 0.000000 0.585657 0.500000
O O14 0.257352 0.889707 0.536517
O O15 0.352962 0.998424 0.490588
O O16 0.044680 0.500000 0.250000
O O17 0.750318 0.249683 0.125000
#
# Coordination Sequence:
#
# PCOD9547511 Si02
#       7
#     8   8   8   8   8   8   8
#     4  12  25  36  50  65  88 126 173 230 280 320
#     4   8  18  30  51  75  97 112 143 207 265 318
#     4  12  21  38  49  63  81 118 175 225 270 306
#     4  10  17  30  52  75  92 122 155 198 259 312
#     4  11  20  35  49  70  98 117 163 214 271 315
#     4   9  17  31  52  76  94 113 145 203 268 311
#     4  12  22  34  50  67  92 130 163 213 256 312
#
# _framework density 15.939863000000001
#
# number of rings (size 3 to 8) (size 9 to 14) (size 15 to 20)
#    0.000    1.429    4.286    3.857    0.000    3.429 
#    0.000    0.000    0.000    0.000    0.000    0.000 
#    0.000    0.000    0.000    0.000    0.000    0.000 
#
# Total GULP energy -311818.503049 kJ/mol
# GULP energy per Si atom -5568.187554 kJ/mol
# Density = 1.590358 g / cm^3
# Si number density = 15.939863 Si / 1000 Ang^3
#
#
#
# Elastic Constant Matrix: (Units=GPa)
#
#
# Indices 1 2 3 4 5 6 
#
# 1 47.2824 7.8051 12.5243 0.0000 0.0000 0.0000
# 2 7.8051 47.2816 12.5241 0.0000 0.0000 0.0000
# 3 12.5243 12.5241 75.9057 0.0000 0.0000 0.0000
# 4 0.0000 0.0000 0.0000 9.2509 0.0000 0.0000
# 5 0.0000 0.0000 0.0000 0.0000 9.2522 0.0000
# 6 0.0000 0.0000 0.0000 0.0000 0.0000 13.7352
#
#
#
# Elastic Compliance Matrix: (Units=1/GPa)
#
#
# Indices 1 2 3 4 5 6 
#
# 1 0.022478 -0.002853 -0.003238 0.000000 0.000000 0.000000
# 2 -0.002853 0.022479 -0.003238 0.000000 0.000000 0.000000
# 3 -0.003238 -0.003238 0.014243 0.000000 0.000000 0.000000
# 4 0.000000 0.000000 0.000000 0.108097 0.000000 0.000000
# 5 0.000000 0.000000 0.000000 0.000000 0.108082 0.000000
# 6 0.000000 0.000000 0.000000 0.000000 0.000000 0.072805
#
#
# Mechanical properties :
#
#
# Convention : Reuss Voigt Hill
#
# Bulk Modulus (GPa) = 24.66626 26.24184 25.45405
# Shear Modulus (GPa) = 13.14556 15.62210 14.38383
#
# Velocity S-wave (km/s) = 2.87487 3.13399 3.00722
# Velocity P-wave (km/s) = 5.15053 5.44010 5.29730
#
# Compressibility (1/GPa) = 0.04054120
#
# Stress axis : x y z
#
# Youngs Moduli (GPa) = 44.48758 44.48687 70.21090
#
# Poissons Ratio (x) = 0.12692 0.22735
# Poissons Ratio (y) = 0.12692 0.22735
# Poissons Ratio (z) = 0.14406 0.14405
#
# Static dielectric constant tensor:
#      x y z
#    x 1.544320 0.000000 0.000000 
#    y 0.000000 1.544320 0.000000 
#    z 0.000000 0.000000 1.656410 
# 
# From -- ./inp_files/20388.got.cif
#   From: 2010.05.17/outbox.cif.g08.bks.cpg/sg91_11_cif.got.tgz:20388.got - 2010.06.03 19:20:03.
