data_PCOD9547406
_publ_section_title
;
Structure prediction by ZEFSAII (Michael W. Deem and Ramdas Pophale) SiO2 
 PCOD9547406
Probable space group: P 4 21 2
;
_chemical_formula_sum "Si O2"
_cell_formula_units_Z 40
_cell_length_a 7.894555
_cell_length_b 7.894555
_cell_length_c 25.877560
_cell_angle_alpha 90.000000
_cell_angle_beta 90.000000
_cell_angle_gamma 90.000000
_cell_volume 1612.793014
_symmetry_space_group_name_H-M "P 4 21 2"
_symmetry_group_IT_number 90
_symmetry_cell_setting 'tetragonal'
loop_
_space_group_symop_operation_xyz
x,y,z
1/2-y,1/2+x,z
-x,-y,z
1/2+y,1/2-x,z
1/2+x,1/2-y,-z
1/2-x,1/2+y,-z
y,x,-z
-y,-x,-z
loop_
_atom_site_type_symbol
_atom_site_label
_atom_site_fract_x
_atom_site_fract_y
_atom_site_fract_z
Si Si1 0.122036 0.247593 0.218682
Si Si2 0.500000 0.500000 0.856954
Si Si3 0.778897 0.316973 0.670042
Si Si4 0.414967 0.270324 0.948286
Si Si5 0.716696 0.283305 0.500000
Si Si6 0.914110 0.174668 0.417977
O O1 0.215117 0.423706 0.209805
O O2 0.176530 0.208514 0.277034
O O3 0.138927 0.093719 0.179174
O O4 0.400493 0.377928 0.896418
O O5 0.776291 0.520591 0.666369
O O6 0.717628 0.175515 0.627932
O O7 0.606664 0.203810 0.948000
O O8 0.370885 0.370885 0.000000
O O9 0.731908 0.446709 0.461693
O O10 0.751929 0.142903 0.455242
O O11 0.000000 0.000000 0.399214
#
# Coordination Sequence:
#
# PCOD9547406 Si02
#       6
#     8   4   8   8   4   8
#     4  11  26  47  75 111 152 206 279 348 418 494
#     4  12  23  44  76 114 164 221 286 362 412 504
#     4  11  27  49  77 106 147 202 254 326 415 496
#     4  11  24  44  75 121 176 235 297 362 441 510
#     4  12  24  48  72 104 150 190 236 312 386 488
#     4  12  26  48  74 113 153 190 249 321 397 498
#
# _framework density 24.801693
#
# number of rings (size 3 to 8) (size 9 to 14) (size 15 to 20)
#    0.000    0.600    2.000    5.100    5.600    2.000 
#    0.000    0.000    0.000    2.400    0.000    0.000 
#    0.000    0.000    0.000    0.000    0.000    0.000 
#
# Total GULP energy -222917.446650 kJ/mol
# GULP energy per Si atom -5572.936166 kJ/mol
# Density = 2.474524 g / cm^3
# Si number density = 24.801693 Si / 1000 Ang^3
#
#
#
# Elastic Constant Matrix: (Units=GPa)
#
#
# Indices 1 2 3 4 5 6 
#
# 1 133.2880 35.8782 87.5473 0.0000 0.0000 0.0000
# 2 35.8782 133.2882 87.5474 0.0000 0.0000 0.0000
# 3 87.5473 87.5474 245.1527 0.0000 0.0000 0.0000
# 4 0.0000 0.0000 0.0000 52.1851 0.0000 0.0000
# 5 0.0000 0.0000 0.0000 0.0000 52.1853 0.0000
# 6 0.0000 0.0000 0.0000 0.0000 0.0000 44.8659
#
#
#
# Elastic Compliance Matrix: (Units=1/GPa)
#
#
# Indices 1 2 3 4 5 6 
#
# 1 0.009822 -0.000444 -0.003349 0.000000 0.000000 0.000000
# 2 -0.000444 0.009822 -0.003349 0.000000 0.000000 0.000000
# 3 -0.003349 -0.003349 0.006471 0.000000 0.000000 0.000000
# 4 0.000000 0.000000 0.000000 0.019163 0.000000 0.000000
# 5 0.000000 0.000000 0.000000 0.000000 0.019162 0.000000
# 6 0.000000 0.000000 0.000000 0.000000 0.000000 0.022289
#
#
# Mechanical properties :
#
#
# Convention : Reuss Voigt Hill
#
# Bulk Modulus (GPa) = 84.52631 103.74163 94.13397
# Shear Modulus (GPa) = 47.63930 49.89766 48.76848
#
# Velocity S-wave (km/s) = 4.38746 4.49025 4.43915
# Velocity P-wave (km/s) = 7.73442 8.29472 8.01946
#
# Compressibility (1/GPa) = 0.01183064
#
# Stress axis : x y z
#
# Youngs Moduli (GPa) = 101.81508 101.81511 154.53724
#
# Poissons Ratio (x) = 0.04522 0.51752
# Poissons Ratio (y) = 0.04522 0.51752
# Poissons Ratio (z) = 0.34096 0.34096
#
# Static dielectric constant tensor:
#      x y z
#    x 2.229170 0.000000 0.000000 
#    y 0.000000 2.229170 0.000000 
#    z 0.000000 0.000000 1.985400 
# 
# From -- ./inp_files/2918.got.cif
#   From: 2010.05.17/outbox.cif.g08.bks.cpg/sg90_2_cif.got.tgz:2918.got - 2010.06.03 19:17:45.
