data_PCOD9547204
_publ_section_title
;
Structure prediction by ZEFSAII (Michael W. Deem and Ramdas Pophale) SiO2 
 PCOD9547204
Probable space group: P 4 21 2
;
_chemical_formula_sum "Si O2"
_cell_formula_units_Z 48
_cell_length_a 8.010749
_cell_length_b 8.010749
_cell_length_c 34.553237
_cell_angle_alpha 90.000000
_cell_angle_beta 90.000000
_cell_angle_gamma 90.000000
_cell_volume 2217.353764
_symmetry_space_group_name_H-M "P 4 21 2"
_symmetry_group_IT_number 90
_symmetry_cell_setting 'tetragonal'
loop_
_space_group_symop_operation_xyz
x,y,z
1/2-y,1/2+x,z
-x,-y,z
1/2+y,1/2-x,z
1/2+x,1/2-y,-z
1/2-x,1/2+y,-z
y,x,-z
-y,-x,-z
loop_
_atom_site_type_symbol
_atom_site_label
_atom_site_fract_x
_atom_site_fract_y
_atom_site_fract_z
Si Si1 0.500000 0.500000 0.813578
Si Si2 0.405466 0.265790 0.877187
Si Si3 0.411190 0.733004 0.251904
Si Si4 0.264743 0.405317 0.460896
Si Si5 0.765455 0.091394 0.382988
Si Si6 0.088925 0.766498 0.037835
Si Si7 0.500000 0.500000 0.318633
O O1 0.384126 0.391512 0.841998
O O2 0.614167 0.389619 0.785136
O O3 0.295954 0.098313 0.874859
O O4 0.378415 0.343889 0.919821
O O5 0.297144 0.896238 0.251463
O O6 0.397090 0.622020 0.290384
O O7 0.205600 0.596068 0.460330
O O8 0.361653 0.361653 0.500000
O O9 0.368839 0.355808 0.423160
O O10 0.599909 0.203593 0.381016
O O11 0.888887 0.113546 0.346997
O O12 0.202213 0.600209 0.036628
O O13 0.129789 0.870212 0.000000
#
# Coordination Sequence:
#
# PCOD9547204 Si02
#       7
#     4   8   8   8   8   8   4
#     4  11  20  34  61  88 110 146 191 232 280 343
#     4   9  19  35  53  78 114 150 186 232 287 344
#     4  10  22  40  61  87 118 149 185 233 290 354
#     4  11  24  41  62  92 130 173 220 267 314 366
#     4  11  23  40  64  93 125 163 207 257 313 369
#     4   9  19  34  51  74 106 145 189 236 284 337
#     4  11  22  38  63  88 114 152 193 234 292 361
#
# _framework density 21.647423
#
# number of rings (size 3 to 8) (size 9 to 14) (size 15 to 20)
#    0.000    1.833    0.000    5.000    0.000    7.333 
#    0.000    0.000    0.000   20.500    0.000    0.000 
#    0.000    0.000    0.000    0.000    0.000    0.000 
#
# Total GULP energy -268516.917930 kJ/mol
# GULP energy per Si atom -5594.102457 kJ/mol
# Density = 2.159815 g / cm^3
# Si number density = 21.647423 Si / 1000 Ang^3
#
#
#
# Elastic Constant Matrix: (Units=GPa)
#
#
# Indices 1 2 3 4 5 6 
#
# 1 70.5314 20.9174 47.8686 0.0000 0.0000 0.0000
# 2 20.9174 70.5313 47.8684 0.0000 0.0000 0.0000
# 3 47.8686 47.8684 204.9394 0.0000 0.0000 0.0000
# 4 0.0000 0.0000 0.0000 38.7659 0.0000 0.0000
# 5 0.0000 0.0000 0.0000 0.0000 38.7659 0.0000
# 6 0.0000 0.0000 0.0000 0.0000 0.0000 27.9447
#
#
#
# Elastic Compliance Matrix: (Units=1/GPa)
#
#
# Indices 1 2 3 4 5 6 
#
# 1 0.017315 -0.002841 -0.003381 0.000000 0.000000 0.000000
# 2 -0.002841 0.017315 -0.003381 0.000000 0.000000 0.000000
# 3 -0.003381 -0.003381 0.006459 0.000000 0.000000 0.000000
# 4 0.000000 0.000000 0.000000 0.025796 0.000000 0.000000
# 5 0.000000 0.000000 0.000000 0.000000 0.025796 0.000000
# 6 0.000000 0.000000 0.000000 0.000000 0.000000 0.035785
#
#
# Mechanical properties :
#
#
# Convention : Reuss Voigt Hill
#
# Bulk Modulus (GPa) = 45.69471 64.36788 55.03129
# Shear Modulus (GPa) = 32.26533 36.38514 34.32524
#
# Velocity S-wave (km/s) = 3.86488 4.10421 3.98634
# Velocity P-wave (km/s) = 6.40865 7.22901 6.83116
#
# Compressibility (1/GPa) = 0.02188437
#
# Stress axis : x y z
#
# Youngs Moduli (GPa) = 57.75322 57.75319 154.82631
#
# Poissons Ratio (x) = 0.16405 0.52345
# Poissons Ratio (y) = 0.16405 0.52344
# Poissons Ratio (z) = 0.19526 0.19525
#
# Static dielectric constant tensor:
#      x y z
#    x 1.750720 0.000000 0.000000 
#    y 0.000000 1.750720 0.000000 
#    z 0.000000 0.000000 1.774430 
# 
# From -- ./inp_files/3073.got.cif
#   From: 2010.05.17/outbox.cif.g08.bks.cpg/sg90_2_cif.got.tgz:3073.got - 2010.06.03 19:17:45.
