data_PCOD9547567
_publ_section_title
;
Structure prediction by ZEFSAII (Michael W. Deem and Ramdas Pophale) SiO2 
 PCOD9547567
Probable space group: P 41 2 2
;
_chemical_formula_sum "Si O2"
_cell_formula_units_Z 40
_cell_length_a 11.956634
_cell_length_b 11.956634
_cell_length_c 13.347691
_cell_angle_alpha 90.000000
_cell_angle_beta 90.000000
_cell_angle_gamma 90.000000
_cell_volume 1908.200543
_symmetry_space_group_name_H-M "P 41 2 2"
_symmetry_group_IT_number 91
_symmetry_cell_setting 'tetragonal'
loop_
_space_group_symop_operation_xyz
x,y,z
-y,x,1/4+z
-x,-y,1/2+z
y,-x,3/4+z
x,-y,1/2-z
-x,y,-z
y,x,3/4-z
-y,-x,1/4-z
loop_
_atom_site_type_symbol
_atom_site_label
_atom_site_fract_x
_atom_site_fract_y
_atom_site_fract_z
Si Si1 0.957645 0.759882 0.612614
Si Si2 0.465891 0.065125 0.116055
Si Si3 0.762811 0.136781 0.963121
Si Si4 0.730016 0.388835 0.046549
Si Si5 0.825133 0.464106 0.860859
O O1 0.877739 0.865197 0.597915
O O2 0.878394 0.659283 0.648128
O O3 0.000000 0.733383 0.500000
O O4 0.053294 0.770749 0.693722
O O5 0.340981 0.111637 0.109146
O O6 0.553201 0.159523 0.154476
O O7 0.470307 0.935901 0.153333
O O8 0.500000 0.050203 0.000000
O O9 0.748134 0.260462 0.010997
O O10 0.627932 0.372069 0.125000
O O11 0.726332 0.457935 0.942474
O O12 0.791573 0.500000 0.750000
#
# Coordination Sequence:
#
# PCOD9547567 Si02
#       5
#     8   8   8   8   8
#     4  11  20  33  57  90 130 163 222 279 341 407
#     4  11  19  32  56  94 125 164 222 275 331 394
#     4  11  21  35  59  97 123 169 223 276 340 409
#     4  11  20  33  57  96 125 156 213 288 333 390
#     4  10  18  31  55  89 129 161 210 277 331 385
#
# _framework density 20.962156
#
# number of rings (size 3 to 8) (size 9 to 14) (size 15 to 20)
#    0.000    1.200    6.000    6.000    0.000    0.000 
#    0.000    0.000    0.000   12.000   31.200    0.000 
#    0.000    0.000    0.000    0.000    0.000    0.000 
#
# Total GULP energy -222837.455554 kJ/mol
# GULP energy per Si atom -5570.936389 kJ/mol
# Density = 2.091445 g / cm^3
# Si number density = 20.962156 Si / 1000 Ang^3
#
#
#
# Elastic Constant Matrix: (Units=GPa)
#
#
# Indices 1 2 3 4 5 6 
#
# 1 60.1101 39.3979 51.8521 0.0000 0.0000 0.0000
# 2 39.3979 60.1095 51.8518 0.0000 0.0000 0.0000
# 3 51.8521 51.8518 104.6065 0.0000 0.0000 0.0000
# 4 0.0000 0.0000 0.0000 44.7566 0.0000 0.0000
# 5 0.0000 0.0000 0.0000 0.0000 44.7568 0.0000
# 6 0.0000 0.0000 0.0000 0.0000 0.0000 18.8511
#
#
#
# Elastic Compliance Matrix: (Units=1/GPa)
#
#
# Indices 1 2 3 4 5 6 
#
# 1 0.034535 -0.013746 -0.010305 0.000000 0.000000 0.000000
# 2 -0.013746 0.034535 -0.010305 0.000000 0.000000 0.000000
# 3 -0.010305 -0.010305 0.019775 0.000000 0.000000 0.000000
# 4 0.000000 0.000000 0.000000 0.022343 0.000000 0.000000
# 5 0.000000 0.000000 0.000000 0.000000 0.022343 0.000000
# 6 0.000000 0.000000 0.000000 0.000000 0.000000 0.053047
#
#
# Mechanical properties :
#
#
# Convention : Reuss Voigt Hill
#
# Bulk Modulus (GPa) = 49.66697 56.78109 53.22403
# Shear Modulus (GPa) = 19.08386 27.12119 23.10253
#
# Velocity S-wave (km/s) = 3.02055 3.60087 3.32340
# Velocity P-wave (km/s) = 5.99250 6.66593 6.33816
#
# Compressibility (1/GPa) = 0.02013410
#
# Stress axis : x y z
#
# Youngs Moduli (GPa) = 28.95620 28.95592 50.56799
#
# Poissons Ratio (x) = 0.39804 0.52108
# Poissons Ratio (y) = 0.39804 0.52109
# Poissons Ratio (z) = 0.29838 0.29838
#
# Static dielectric constant tensor:
#      x y z
#    x 1.816410 0.000000 0.000000 
#    y 0.000000 1.816410 0.000000 
#    z 0.000000 0.000000 1.871070 
# 
# From -- ./inp_files/16402.got.cif
#   From: 2010.05.17/outbox.cif.g08.bks.cpg/sg91_9_cif.got.tgz:16402.got - 2010.06.03 19:20:03.
