data_PCOD9547186
_publ_section_title
;
Structure prediction by ZEFSAII (Michael W. Deem and Ramdas Pophale) SiO2 
 PCOD9547186
Probable space group: P 4 21 2
;
_chemical_formula_sum "Si O2"
_cell_formula_units_Z 48
_cell_length_a 8.447310
_cell_length_b 8.447310
_cell_length_c 33.848616
_cell_angle_alpha 90.000000
_cell_angle_beta 90.000000
_cell_angle_gamma 90.000000
_cell_volume 2415.337257
_symmetry_space_group_name_H-M "P 4 21 2"
_symmetry_group_IT_number 90
_symmetry_cell_setting 'tetragonal'
loop_
_space_group_symop_operation_xyz
x,y,z
1/2-y,1/2+x,z
-x,-y,z
1/2+y,1/2-x,z
1/2+x,1/2-y,-z
1/2-x,1/2+y,-z
y,x,-z
-y,-x,-z
loop_
_atom_site_type_symbol
_atom_site_label
_atom_site_fract_x
_atom_site_fract_y
_atom_site_fract_z
Si Si1 0.737725 0.454342 0.031678
Si Si2 0.752406 0.089831 0.608293
Si Si3 0.000000 0.000000 0.760243
Si Si4 0.500000 0.500000 0.102810
Si Si5 0.745946 0.584432 0.536405
Si Si6 0.753704 0.080131 0.698129
Si Si7 0.239987 0.044675 0.173796
O O1 0.826051 0.621805 0.027385
O O2 0.648056 0.478693 0.073235
O O3 0.611061 0.388940 0.000000
O O4 0.591368 0.193966 0.603349
O O5 0.875403 0.151640 0.576318
O O6 0.812315 0.104833 0.653289
O O7 0.115945 0.902829 0.731577
O O8 0.919009 0.879504 0.790546
O O9 0.473253 0.646009 0.132749
O O10 0.807081 0.404740 0.534693
O O11 0.636407 0.636407 0.500000
O O12 0.600104 0.190506 0.702092
O O13 0.324897 0.875350 0.176744
#
# Coordination Sequence:
#
# PCOD9547186 Si02
#       7
#     8   8   4   4   8   8   8
#     4  11  23  39  61  90 125 163 208 263 319 378
#     4   9  19  36  57  81 109 141 180 224 271 327
#     4  11  20  34  59  84 110 146 187 230 282 347
#     4  11  21  38  61  84 114 158 209 252 301 363
#     4  11  24  39  56  81 111 143 183 228 273 326
#     4   9  19  35  55  81 111 143 181 226 276 334
#     4  10  22  38  56  82 116 152 192 242 297 352
#
# _framework density 19.873000999999999
#
# number of rings (size 3 to 8) (size 9 to 14) (size 15 to 20)
#    0.000    1.833    0.000    5.250    0.000    6.333 
#    0.000    1.667    0.000   10.000    0.000    0.000 
#    0.000    0.000    0.000    0.000    0.000    0.000 
#
# Total GULP energy -267791.634521 kJ/mol
# GULP energy per Si atom -5578.992386 kJ/mol
# Density = 1.982777 g / cm^3
# Si number density = 19.873001 Si / 1000 Ang^3
#
#
#
# Elastic Constant Matrix: (Units=GPa)
#
#
# Indices 1 2 3 4 5 6 
#
# 1 -0.2868 83.5507 39.4728 0.0000 0.0000 0.0000
# 2 83.5507 -0.2914 39.4737 0.0000 0.0000 0.0000
# 3 39.4728 39.4737 128.4941 0.0000 0.0000 0.0000
# 4 0.0000 0.0000 0.0000 20.2261 0.0000 0.0000
# 5 0.0000 0.0000 0.0000 0.0000 20.2253 0.0000
# 6 0.0000 0.0000 0.0000 0.0000 0.0000 56.0711
#
#
#
# Elastic Compliance Matrix: (Units=1/GPa)
#
#
# Indices 1 2 3 4 5 6 
#
# 1 0.002510 0.014437 -0.005206 0.000000 0.000000 0.000000
# 2 0.014437 0.002509 -0.005206 0.000000 0.000000 0.000000
# 3 -0.005206 -0.005206 0.010981 0.000000 0.000000 0.000000
# 4 0.000000 0.000000 0.000000 0.049441 0.000000 0.000000
# 5 0.000000 0.000000 0.000000 0.000000 0.049443 0.000000
# 6 0.000000 0.000000 0.000000 0.000000 0.000000 0.017834
#
#
# Mechanical properties :
#
#
# Convention : Reuss Voigt Hill
#
# Bulk Modulus (GPa) = 41.57976 50.32337 45.95156
# Shear Modulus (GPa) = 37.68322 16.99907 27.34114
#
# Velocity S-wave (km/s) = 4.35926 2.92787 3.71319
# Velocity P-wave (km/s) = 6.80483 6.06691 6.44644
#
# Compressibility (1/GPa) = 0.02405016
#
# Stress axis : x y z
#
# Youngs Moduli (GPa) = 398.40525 398.57128 91.06656
#
# Poissons Ratio (x) = -5.75417 0.47411
# Poissons Ratio (y) = -5.75177 0.47407
# Poissons Ratio (z) = 2.07415 2.07486
#
# Static dielectric constant tensor:
#      x y z
#    x 1.715130 0.000000 0.000000 
#    y 0.000000 1.715130 0.000000 
#    z 0.000000 0.000000 1.677420 
# 
# From -- ./inp_files/3110.got.cif
#   From: 2010.05.17/outbox.cif.g08.bks.cpg/sg90_2_cif.got.tgz:3110.got - 2010.06.03 19:17:45.
