data_PCOD9547249
_publ_section_title
;
Structure prediction by ZEFSAII (Michael W. Deem and Ramdas Pophale) SiO2 
 PCOD9547249
Probable space group: P 4 21 2
;
_chemical_formula_sum "Si O2"
_cell_formula_units_Z 52
_cell_length_a 20.542918
_cell_length_b 20.542918
_cell_length_c 4.970082
_cell_angle_alpha 90.000000
_cell_angle_beta 90.000000
_cell_angle_gamma 90.000000
_cell_volume 2097.431660
_symmetry_space_group_name_H-M "P 4 21 2"
_symmetry_group_IT_number 90
_symmetry_cell_setting 'tetragonal'
loop_
_space_group_symop_operation_xyz
x,y,z
1/2-y,1/2+x,z
-x,-y,z
1/2+y,1/2-x,z
1/2+x,1/2-y,-z
1/2-x,1/2+y,-z
y,x,-z
-y,-x,-z
loop_
_atom_site_type_symbol
_atom_site_label
_atom_site_fract_x
_atom_site_fract_y
_atom_site_fract_z
Si Si1 0.127589 0.959493 0.695954
Si Si2 0.000000 0.500000 0.552641
Si Si3 0.437535 0.733840 0.600095
Si Si4 0.881607 0.348975 0.003231
Si Si5 0.983161 0.643706 0.747265
Si Si6 0.145263 0.243109 0.871231
Si Si7 0.155230 0.779126 0.239323
Si Si8 0.500000 0.500000 0.000000
O O1 0.086207 0.913794 0.500000
O O2 0.178643 0.909681 0.832345
O O3 0.070175 0.997048 0.852433
O O4 0.176451 0.010915 0.568318
O O5 0.001895 0.579896 0.578369
O O6 0.461357 0.800743 0.461225
O O7 0.413248 0.742282 0.905719
O O8 0.378153 0.715896 0.408555
O O9 0.879610 0.428467 0.968950
O O10 0.952489 0.331454 0.898017
O O11 0.817806 0.335477 0.825058
O O12 0.865234 0.297640 0.243896
O O13 0.200140 0.200140 0.000000
O O14 0.190428 0.809573 0.500000
O O15 0.203725 0.796275 0.000000
#
# Coordination Sequence:
#
# PCOD9547249 Si02
#       8
#     8   2   8   8   8   8   8   2
#     4  11  28  47  73 116 153 205 263 319 394 460
#     4   8  16  44  76 118 160 194 264 314 404 474
#     4  11  27  47  77 106 155 198 255 316 389 463
#     4  10  23  45  79 111 154 198 257 319 389 474
#     4   9  21  44  80 115 154 205 253 328 396 472
#     4  11  26  48  73 111 148 200 256 312 386 458
#     4  11  26  46  75 109 150 198 254 312 382 457
#     4  12  26  48  80 110 164 200 270 324 386 464
#
# _framework density 24.792225999999999
#
# number of rings (size 3 to 8) (size 9 to 14) (size 15 to 20)
#    0.000    1.538    0.769    1.154   11.846    4.923 
#    2.769    0.000    0.000    0.923    0.000    0.000 
#    0.000    0.000    0.000    0.000    0.000    0.000 
#
# Total GULP energy -289622.201898 kJ/mol
# GULP energy per Si atom -5569.657729 kJ/mol
# Density = 2.473580 g / cm^3
# Si number density = 24.792226 Si / 1000 Ang^3
#
#
#
# Elastic Constant Matrix: (Units=GPa)
#
#
# Indices 1 2 3 4 5 6 
#
# 1 -649.2022 825.9482 22.0515 0.0000 0.0000 0.0000
# 2 825.9482 -649.2744 22.1331 0.0000 0.0000 0.0000
# 3 22.0515 22.1331 72.3282 0.0000 0.0000 0.0000
# 4 0.0000 0.0000 0.0000 -4.9064 0.0000 0.0000
# 5 0.0000 0.0000 0.0000 0.0000 -4.8984 0.0000
# 6 0.0000 0.0000 0.0000 0.0000 0.0000 65.0675
#
#
#
# Elastic Compliance Matrix: (Units=1/GPa)
#
#
# Indices 1 2 3 4 5 6 
#
# 1 0.002725 0.003402 -0.001872 0.000000 0.000000 0.000000
# 2 0.003402 0.002724 -0.001871 0.000000 0.000000 0.000000
# 3 -0.001872 -0.001871 0.014969 0.000000 0.000000 0.000000
# 4 0.000000 0.000000 0.000000 -0.203814 0.000000 0.000000
# 5 0.000000 0.000000 0.000000 0.000000 -0.204150 0.000000
# 6 0.000000 0.000000 0.000000 0.000000 0.000000 0.015369
#
#
# Mechanical properties :
#
#
# Convention : Reuss Voigt Hill
#
# Bulk Modulus (GPa) = 50.66573 57.12412 53.89492
# Shear Modulus (GPa) = -13.70176 -128.69955 -71.20066
#
# Velocity S-wave (km/s) = -2.35343 -7.21276 -5.36482
# Velocity P-wave (km/s) = 3.61879 6.80251 4.07299
#
# Compressibility (1/GPa) = 0.01973721
#
# Stress axis : x y z
#
# Youngs Moduli (GPa) = 367.00241 367.07070 66.80423
#
# Poissons Ratio (x) = -1.24892 0.12505
# Poissons Ratio (y) = -1.24869 0.12499
# Poissons Ratio (z) = 0.68699 0.68678
#
# Static dielectric constant tensor:
#      x y z
#    x 2.046740 0.000000 0.000000 
#    y 0.000000 2.046720 0.000000 
#    z 0.000000 0.000000 2.003780 
# 
# From -- ./inp_files/684.got.cif
#   From: 2010.05.17/outbox.cif.g08.bks.cpg/sg90_1_cif.got.tgz:684.got - 2010.06.03 19:17:45.
