data_PCOD9547855
_publ_section_title
;
Structure prediction by ZEFSAII (Michael W. Deem and Ramdas Pophale) SiO2 
 PCOD9547855
Probable space group: P 41 2 2
;
_chemical_formula_sum "Si O2"
_cell_formula_units_Z 52
_cell_length_a 23.058526
_cell_length_b 23.058526
_cell_length_c 5.084780
_cell_angle_alpha 90.000000
_cell_angle_beta 90.000000
_cell_angle_gamma 90.000000
_cell_volume 2703.555261
_symmetry_space_group_name_H-M "P 41 2 2"
_symmetry_group_IT_number 91
_symmetry_cell_setting 'tetragonal'
loop_
_space_group_symop_operation_xyz
x,y,z
-y,x,1/4+z
-x,-y,1/2+z
y,-x,3/4+z
x,-y,1/2-z
-x,y,-z
y,x,3/4-z
-y,-x,1/4-z
loop_
_atom_site_type_symbol
_atom_site_label
_atom_site_fract_x
_atom_site_fract_y
_atom_site_fract_z
Si Si1 0.960231 0.871288 0.243950
Si Si2 0.460933 0.913374 0.255736
Si Si3 0.538969 0.220159 0.760738
Si Si4 0.183636 0.718771 0.627228
Si Si5 0.255178 0.945024 0.564104
Si Si6 0.000000 0.359354 0.500000
Si Si7 0.665791 0.763023 0.879065
O O1 0.907460 0.907460 0.375000
O O2 0.940683 0.806156 0.159436
O O3 0.000000 0.868276 0.500000
O O4 0.000000 0.894869 0.000000
O O5 0.500000 0.937230 0.500000
O O6 0.445575 0.847135 0.327689
O O7 0.405169 0.950334 0.171320
O O8 0.500000 0.911061 0.000000
O O9 0.500000 0.220840 0.500000
O O10 0.600118 0.249816 0.700552
O O11 0.500000 0.243069 0.000000
O O12 0.224086 0.775915 0.625000
O O13 0.117698 0.734289 0.561699
O O14 0.208789 0.673515 0.415625
O O15 0.192164 0.692479 0.916797
O O16 0.246890 0.000000 0.750000
O O17 0.314200 0.963285 0.422002
O O18 0.706284 0.706284 0.875000
#
# Coordination Sequence:
#
# PCOD9547855 Si02
#       7
#     8   8   8   8   8   4   8
#     4  11  24  45  67  91 119 145 184 239 302 386
#     4  10  23  38  56  79 111 157 206 247 289 338
#     4  10  20  35  56  83 117 159 199 244 293 348
#     4  10  22  39  61  83 116 157 198 250 315 373
#     4  11  26  39  58  89 117 154 196 247 316 375
#     4  12  24  38  58  78 118 152 200 250 296 354
#     4  10  21  38  61  90 119 157 206 255 299 362
#
# _framework density 19.233933
#
# number of rings (size 3 to 8) (size 9 to 14) (size 15 to 20)
#    0.000    1.538    0.769    3.231    6.462    1.846 
#    0.000    3.077    0.000    0.000    0.000    0.000 
#    0.000    1.231    0.000    0.000    0.000    0.000 
#
# Total GULP energy -289771.620753 kJ/mol
# GULP energy per Si atom -5572.531168 kJ/mol
# Density = 1.919016 g / cm^3
# Si number density = 19.233933 Si / 1000 Ang^3
#
#
#
# Elastic Constant Matrix: (Units=GPa)
#
#
# Indices 1 2 3 4 5 6 
#
# 1 98.6322 43.6042 20.7652 0.0000 0.0000 0.0000
# 2 43.6042 98.6365 20.7660 0.0000 0.0000 0.0000
# 3 20.7652 20.7660 77.6256 0.0000 0.0000 0.0000
# 4 0.0000 0.0000 0.0000 24.5596 0.0000 0.0000
# 5 0.0000 0.0000 0.0000 0.0000 24.5591 0.0000
# 6 0.0000 0.0000 0.0000 0.0000 0.0000 5.5657
#
#
#
# Elastic Compliance Matrix: (Units=1/GPa)
#
#
# Indices 1 2 3 4 5 6 
#
# 1 0.012899 -0.005273 -0.002040 0.000000 0.000000 0.000000
# 2 -0.005273 0.012899 -0.002040 0.000000 0.000000 0.000000
# 3 -0.002040 -0.002040 0.013974 0.000000 0.000000 0.000000
# 4 0.000000 0.000000 0.000000 0.040717 0.000000 0.000000
# 5 0.000000 0.000000 0.000000 0.000000 0.040718 0.000000
# 6 0.000000 0.000000 0.000000 0.000000 0.000000 0.179671
#
#
# Mechanical properties :
#
#
# Convention : Reuss Voigt Hill
#
# Bulk Modulus (GPa) = 47.47031 49.46279 48.46655
# Shear Modulus (GPa) = 15.30896 23.58749 19.44822
#
# Velocity S-wave (km/s) = 2.82429 3.50572 3.18329
# Velocity P-wave (km/s) = 5.94723 6.49300 6.22610
#
# Compressibility (1/GPa) = 0.02106580
#
# Stress axis : x y z
#
# Youngs Moduli (GPa) = 77.52388 77.52713 71.56239
#
# Poissons Ratio (x) = 0.40879 0.14599
# Poissons Ratio (y) = 0.40877 0.14599
# Poissons Ratio (z) = 0.15815 0.15816
#
# Static dielectric constant tensor:
#      x y z
#    x 1.520080 0.000000 0.000000 
#    y 0.000000 1.520050 0.000000 
#    z 0.000000 0.000000 1.707270 
# 
# From -- ./inp_files/18915.got.cif
#   From: 2010.05.17/outbox.cif.g08.bks.cpg/sg91_10_cif.got.tgz:18915.got - 2010.06.03 19:20:03.
