data_PCOD9547395
_publ_section_title
;
Structure prediction by ZEFSAII (Michael W. Deem and Ramdas Pophale) SiO2 
 PCOD9547395
Probable space group: P 4 21 2
;
_chemical_formula_sum "Si O2"
_cell_formula_units_Z 28
_cell_length_a 8.095655
_cell_length_b 8.095655
_cell_length_c 19.998019
_cell_angle_alpha 90.000000
_cell_angle_beta 90.000000
_cell_angle_gamma 90.000000
_cell_volume 1310.662764
_symmetry_space_group_name_H-M "P 4 21 2"
_symmetry_group_IT_number 90
_symmetry_cell_setting 'tetragonal'
loop_
_space_group_symop_operation_xyz
x,y,z
1/2-y,1/2+x,z
-x,-y,z
1/2+y,1/2-x,z
1/2+x,1/2-y,-z
1/2-x,1/2+y,-z
y,x,-z
-y,-x,-z
loop_
_atom_site_type_symbol
_atom_site_label
_atom_site_fract_x
_atom_site_fract_y
_atom_site_fract_z
Si Si1 0.263957 0.407967 0.211816
Si Si2 0.586519 0.735694 0.935897
Si Si3 0.764292 0.911758 0.566302
Si Si4 0.500000 0.500000 0.679331
O O1 0.200746 0.598307 0.216846
O O2 0.338642 0.383102 0.137748
O O3 0.391125 0.386586 0.271576
O O4 0.399720 0.800417 0.938644
O O5 0.629022 0.629022 0.000000
O O6 0.600772 0.799214 0.567358
O O7 0.864235 0.864235 0.500000
O O8 0.880497 0.896694 0.630723
#
# Coordination Sequence:
#
# PCOD9547395 Si02
#       4
#     8   8   8   4
#     4   9  20  38  57  82 118 160 207 257 310 374
#     4   9  19  35  55  80 112 152 202 257 310 367
#     4  11  24  43  67  95 128 166 212 263 313 374
#     4  12  21  34  61  90 118 158 204 250 309 368
#
# _framework density 21.363237000000002
#
# number of rings (size 3 to 8) (size 9 to 14) (size 15 to 20)
#    0.000    2.000    0.000    5.571    0.000    7.429 
#    0.000    0.000    0.000    7.714    0.000    0.000 
#    0.000    0.000    0.000    0.000    0.000    0.000 
#
# Total GULP energy -156540.899027 kJ/mol
# GULP energy per Si atom -5590.746394 kJ/mol
# Density = 2.131461 g / cm^3
# Si number density = 21.363237 Si / 1000 Ang^3
#
#
#
# Elastic Constant Matrix: (Units=GPa)
#
#
# Indices 1 2 3 4 5 6 
#
# 1 83.6535 30.9068 73.5920 0.0000 0.0000 0.0000
# 2 30.9068 83.6535 73.5920 0.0000 0.0000 0.0000
# 3 73.5920 73.5920 236.0087 0.0000 0.0000 0.0000
# 4 0.0000 0.0000 0.0000 45.8099 0.0000 0.0000
# 5 0.0000 0.0000 0.0000 0.0000 45.8099 0.0000
# 6 0.0000 0.0000 0.0000 0.0000 0.0000 25.7662
#
#
#
# Elastic Compliance Matrix: (Units=1/GPa)
#
#
# Indices 1 2 3 4 5 6 
#
# 1 0.016761 -0.002198 -0.004541 0.000000 0.000000 0.000000
# 2 -0.002198 0.016761 -0.004541 0.000000 0.000000 0.000000
# 3 -0.004541 -0.004541 0.007069 0.000000 0.000000 0.000000
# 4 0.000000 0.000000 0.000000 0.021829 0.000000 0.000000
# 5 0.000000 0.000000 0.000000 0.000000 0.021829 0.000000
# 6 0.000000 0.000000 0.000000 0.000000 0.000000 0.038811
#
#
# Mechanical properties :
#
#
# Convention : Reuss Voigt Hill
#
# Bulk Modulus (GPa) = 55.45899 84.38859 69.92379
# Shear Modulus (GPa) = 32.97491 38.49220 35.73355
#
# Velocity S-wave (km/s) = 3.93305 4.24936 4.09426
# Velocity P-wave (km/s) = 6.82946 7.97895 7.42648
#
# Compressibility (1/GPa) = 0.01803134
#
# Stress axis : x y z
#
# Youngs Moduli (GPa) = 59.66251 59.66251 141.45959
#
# Poissons Ratio (x) = 0.13111 0.64239
# Poissons Ratio (y) = 0.13111 0.64239
# Poissons Ratio (z) = 0.27094 0.27094
#
# Static dielectric constant tensor:
#      x y z
#    x 1.715430 0.000000 0.000000 
#    y 0.000000 1.715430 0.000000 
#    z 0.000000 0.000000 1.779990 
# 
# From -- ./inp_files/2595.got.cif
#   From: 2010.05.17/outbox.cif.g08.bks.cpg/sg90_2_cif.got.tgz:2595.got - 2010.06.03 19:17:45.
