data_PCOD9547093
_publ_section_title
;
Structure prediction by ZEFSAII (Michael W. Deem and Ramdas Pophale) SiO2 
 PCOD9547093
Probable space group: P 4 21 2
;
_chemical_formula_sum "Si O2"
_cell_formula_units_Z 58
_cell_length_a 18.554133
_cell_length_b 18.554133
_cell_length_c 8.546437
_cell_angle_alpha 90.000000
_cell_angle_beta 90.000000
_cell_angle_gamma 90.000000
_cell_volume 2942.160946
_symmetry_space_group_name_H-M "P 4 21 2"
_symmetry_group_IT_number 90
_symmetry_cell_setting 'tetragonal'
loop_
_space_group_symop_operation_xyz
x,y,z
1/2-y,1/2+x,z
-x,-y,z
1/2+y,1/2-x,z
1/2+x,1/2-y,-z
1/2-x,1/2+y,-z
y,x,-z
-y,-x,-z
loop_
_atom_site_type_symbol
_atom_site_label
_atom_site_fract_x
_atom_site_fract_y
_atom_site_fract_z
Si Si1 0.207586 0.940812 0.287292
Si Si2 0.189936 0.424226 0.992058
Si Si3 0.782713 0.844288 0.643453
Si Si4 0.165258 0.085114 0.120131
Si Si5 0.164681 0.895989 0.858743
Si Si6 0.998854 0.837244 0.401198
Si Si7 0.806806 0.416554 0.093514
Si Si8 0.500000 0.500000 0.500000
O O1 0.163281 0.867665 0.256503
O O2 0.204631 0.953049 0.471939
O O3 0.164441 0.010405 0.215781
O O4 0.281057 0.939607 0.185220
O O5 0.258306 0.381295 0.065196
O O6 0.122365 0.372760 0.007886
O O7 0.177529 0.497554 0.091139
O O8 0.786361 0.786361 0.500000
O O9 0.846837 0.826884 0.764791
O O10 0.714022 0.871148 0.748243
O O11 0.808641 0.919624 0.569819
O O12 0.099705 0.099705 0.000000
O O13 0.236033 0.086740 0.013753
O O14 0.174921 0.970875 0.771282
O O15 0.107493 0.892508 0.000000
O O16 0.000682 0.923445 0.414362
#
# Coordination Sequence:
#
# PCOD9547093 Si02
#       8
#     8   8   8   8   8   8   8   2
#     4  10  19  35  55  81 121 160 202 239 295 358
#     4  10  22  41  63  86 110 157 200 271 321 373
#     4  11  20  34  59  88 126 162 203 238 303 366
#     4   9  19  33  54  83 118 160 198 247 291 360
#     4  10  21  35  54  82 122 162 203 238 301 358
#     4  12  20  34  52  86 125 168 202 247 286 351
#     4  10  22  41  64  84 121 147 209 264 324 370
#     4  12  20  28  54  84 128 168 218 232 276 348
#
# _framework density 19.713401000000001
#
# number of rings (size 3 to 8) (size 9 to 14) (size 15 to 20)
#    0.000    1.655    4.828    0.000    1.931    5.241 
#    0.000    3.103    0.000    0.000    0.000    0.000 
#    4.138    0.000    0.000    0.000    0.000    0.000 
#
# Total GULP energy -322913.484703 kJ/mol
# GULP energy per Si atom -5567.473874 kJ/mol
# Density = 1.966853 g / cm^3
# Si number density = 19.713401 Si / 1000 Ang^3
#
#
#
# Elastic Constant Matrix: (Units=GPa)
#
#
# Indices 1 2 3 4 5 6 
#
# 1 48.7194 37.3528 16.3935 0.0000 0.0000 0.0000
# 2 37.3528 48.7191 16.3934 0.0000 0.0000 0.0000
# 3 16.3935 16.3934 74.3318 0.0000 0.0000 0.0000
# 4 0.0000 0.0000 0.0000 10.7165 0.0000 0.0000
# 5 0.0000 0.0000 0.0000 0.0000 10.7165 0.0000
# 6 0.0000 0.0000 0.0000 0.0000 0.0000 30.3494
#
#
#
# Elastic Compliance Matrix: (Units=1/GPa)
#
#
# Indices 1 2 3 4 5 6 
#
# 1 0.050331 -0.037647 -0.002797 0.000000 0.000000 0.000000
# 2 -0.037647 0.050331 -0.002797 0.000000 0.000000 0.000000
# 3 -0.002797 -0.002797 0.014687 0.000000 0.000000 0.000000
# 4 0.000000 0.000000 0.000000 0.093314 0.000000 0.000000
# 5 0.000000 0.000000 0.000000 0.000000 0.093314 0.000000
# 6 0.000000 0.000000 0.000000 0.000000 0.000000 0.032950
#
#
# Mechanical properties :
#
#
# Convention : Reuss Voigt Hill
#
# Bulk Modulus (GPa) = 34.64373 34.67218 34.65796
# Shear Modulus (GPa) = 11.60005 17.13185 14.36595
#
# Velocity S-wave (km/s) = 2.42840 2.95116 2.70245
# Velocity P-wave (km/s) = 5.04724 5.40729 5.23036
#
# Compressibility (1/GPa) = 0.02886525
#
# Stress axis : x y z
#
# Youngs Moduli (GPa) = 19.86847 19.86834 68.08722
#
# Poissons Ratio (x) = 0.74799 0.19046
# Poissons Ratio (y) = 0.74800 0.19046
# Poissons Ratio (z) = 0.05558 0.05558
#
# Static dielectric constant tensor:
#      x y z
#    x 1.712210 0.000000 0.000000 
#    y 0.000000 1.712210 0.000000 
#    z 0.000000 0.000000 1.780770 
# 
# From -- ./inp_files/1647.got.cif
#   From: 2010.05.17/outbox.cif.g08.bks.cpg/sg90_1_cif.got.tgz:1647.got - 2010.06.03 19:17:45.
