data_PCOD9547534
_publ_section_title
;
Structure prediction by ZEFSAII (Michael W. Deem and Ramdas Pophale) SiO2 
 PCOD9547534
Probable space group: P 41 2 2
;
_chemical_formula_sum "Si O2"
_cell_formula_units_Z 64
_cell_length_a 28.274408
_cell_length_b 28.274408
_cell_length_c 5.061130
_cell_angle_alpha 90.000000
_cell_angle_beta 90.000000
_cell_angle_gamma 90.000000
_cell_volume 4046.080637
_symmetry_space_group_name_H-M "P 41 2 2"
_symmetry_group_IT_number 91
_symmetry_cell_setting 'tetragonal'
loop_
_space_group_symop_operation_xyz
x,y,z
-y,x,1/4+z
-x,-y,1/2+z
y,-x,3/4+z
x,-y,1/2-z
-x,y,-z
y,x,3/4-z
-y,-x,1/4-z
loop_
_atom_site_type_symbol
_atom_site_label
_atom_site_fract_x
_atom_site_fract_y
_atom_site_fract_z
Si Si1 0.272064 0.348153 0.857585
Si Si2 0.555122 0.311836 0.989016
Si Si3 0.445116 0.626638 0.991885
Si Si4 0.300238 0.223860 0.390798
Si Si5 0.289137 0.112564 0.345797
Si Si6 0.295795 0.048914 0.864992
Si Si7 0.813927 0.044127 0.089391
Si Si8 0.819905 0.101872 0.606406
O O1 0.324478 0.324478 0.875000
O O2 0.275956 0.404459 0.832309
O O3 0.248250 0.327911 0.596735
O O4 0.242179 0.326271 0.096644
O O5 0.561967 0.355832 0.192405
O O6 0.500000 0.296810 0.000000
O O7 0.563075 0.328820 0.688893
O O8 0.413199 0.586802 0.125000
O O9 0.500000 0.612594 0.000000
O O10 0.247293 0.247293 0.375000
O O11 0.303185 0.167389 0.363899
O O12 0.295125 0.085256 0.621697
O O13 0.232651 0.114501 0.297215
O O14 0.312444 0.079521 0.118293
O O15 0.242133 0.033930 0.949000
O O16 0.317827 0.000000 0.750000
O O17 0.817306 0.085834 0.303470
O O18 0.834789 0.000000 0.250000
O O19 0.834505 0.059935 0.809245
O O20 0.855086 0.144914 0.625000
#
# Coordination Sequence:
#
# PCOD9547534 Si02
#       8
#     8   8   8   8   8   8   8   8
#     4  10  19  31  47  65  88 118 152 193 232 275
#     4  10  20  33  50  68  86 112 152 197 239 279
#     4  10  19  31  46  65  87 112 143 183 233 288
#     4  10  20  31  44  65  91 122 158 187 224 272
#     4  10  18  29  43  60  88 118 146 182 212 246
#     4   9  17  28  43  61  81 113 152 181 210 248
#     4   9  17  28  40  55  77 102 128 163 204 244
#     4  10  18  27  41  59  79 103 131 164 203 244
#
# _framework density 15.817774999999999
#
# number of rings (size 3 to 8) (size 9 to 14) (size 15 to 20)
#    0.000    2.250    0.000    4.125    0.000    4.000 
#    0.000    5.625    0.000    0.000    0.000    0.000 
#    0.000   14.000    0.000    0.000    0.000   35.000 
#
# Total GULP energy -356293.372769 kJ/mol
# GULP energy per Si atom -5567.083950 kJ/mol
# Density = 1.578177 g / cm^3
# Si number density = 15.817775 Si / 1000 Ang^3
#
#
#
# Elastic Constant Matrix: (Units=GPa)
#
#
# Indices 1 2 3 4 5 6 
#
# 1 65.5347 20.4603 17.0939 0.0000 0.0000 0.0000
# 2 20.4603 65.5353 17.0926 0.0000 0.0000 0.0000
# 3 17.0939 17.0926 101.7463 0.0000 0.0000 0.0000
# 4 0.0000 0.0000 0.0000 11.6185 0.0000 0.0000
# 5 0.0000 0.0000 0.0000 0.0000 11.6181 0.0000
# 6 0.0000 0.0000 0.0000 0.0000 0.0000 13.7986
#
#
#
# Elastic Compliance Matrix: (Units=1/GPa)
#
#
# Indices 1 2 3 4 5 6 
#
# 1 0.017323 -0.004862 -0.002094 0.000000 0.000000 0.000000
# 2 -0.004862 0.017323 -0.002093 0.000000 0.000000 0.000000
# 3 -0.002094 -0.002093 0.010532 0.000000 0.000000 0.000000
# 4 0.000000 0.000000 0.000000 0.086069 0.000000 0.000000
# 5 0.000000 0.000000 0.000000 0.000000 0.086072 0.000000
# 6 0.000000 0.000000 0.000000 0.000000 0.000000 0.072471
#
#
# Mechanical properties :
#
#
# Convention : Reuss Voigt Hill
#
# Bulk Modulus (GPa) = 36.92806 38.01221 37.47013
# Shear Modulus (GPa) = 15.77709 19.28503 17.53106
#
# Velocity S-wave (km/s) = 3.16163 3.49549 3.33275
# Velocity P-wave (km/s) = 6.06008 6.35412 6.20884
#
# Compressibility (1/GPa) = 0.02707968
#
# Stress axis : x y z
#
# Youngs Moduli (GPa) = 57.72598 57.72704 94.95105
#
# Poissons Ratio (x) = 0.28069 0.19879
# Poissons Ratio (y) = 0.28068 0.19875
# Poissons Ratio (z) = 0.12085 0.12083
#
# Static dielectric constant tensor:
#      x y z
#    x 1.534790 0.000000 0.000000 
#    y 0.000000 1.534790 0.000000 
#    z 0.000000 0.000000 1.550920 
# 
# From -- ./inp_files/14630.got.cif
#   From: 2010.05.17/outbox.cif.g08.bks.cpg/sg91_8_cif.got.tgz:14630.got - 2010.06.03 19:20:03.
