data_PCOD9547305
_publ_section_title
;
Structure prediction by ZEFSAII (Michael W. Deem and Ramdas Pophale) SiO2 
 PCOD9547305
Probable space group: P 4 21 2
;
_chemical_formula_sum "Si O2"
_cell_formula_units_Z 50
_cell_length_a 8.385836
_cell_length_b 8.385836
_cell_length_c 32.202550
_cell_angle_alpha 90.000000
_cell_angle_beta 90.000000
_cell_angle_gamma 90.000000
_cell_volume 2264.555624
_symmetry_space_group_name_H-M "P 4 21 2"
_symmetry_group_IT_number 90
_symmetry_cell_setting 'tetragonal'
loop_
_space_group_symop_operation_xyz
x,y,z
1/2-y,1/2+x,z
-x,-y,z
1/2+y,1/2-x,z
1/2+x,1/2-y,-z
1/2-x,1/2+y,-z
y,x,-z
-y,-x,-z
loop_
_atom_site_type_symbol
_atom_site_label
_atom_site_fract_x
_atom_site_fract_y
_atom_site_fract_z
Si Si1 0.411575 0.668899 0.455065
Si Si2 0.251199 0.099870 0.716370
Si Si3 0.000000 0.500000 0.540547
Si Si4 0.581349 0.256362 0.962845
Si Si5 0.371994 0.760114 0.365602
Si Si6 0.744050 0.414182 0.130150
Si Si7 0.244648 0.083239 0.206074
O O1 0.500000 0.500000 0.453547
O O2 0.328285 0.671716 0.500000
O O3 0.540104 0.811519 0.456830
O O4 0.329112 0.682783 0.409924
O O5 0.415775 0.199834 0.720306
O O6 0.178981 0.148495 0.672090
O O7 0.131017 0.150336 0.752584
O O8 0.401464 0.192017 0.965912
O O9 0.606556 0.322915 0.916417
O O10 0.628980 0.371021 0.000000
O O11 0.563114 0.793529 0.363247
O O12 0.806506 0.595433 0.134025
O O13 0.626364 0.359408 0.165961
O O14 0.403072 0.193671 0.205662
#
# Coordination Sequence:
#
# PCOD9547305 Si02
#       7
#     8   8   2   8   8   8   8
#     4  11  26  45  74 106 138 189 234 277 349 408
#     4  11  26  44  63  95 130 168 216 268 323 392
#     4  12  24  52  64 104 148 176 232 296 332 408
#     4   9  19  35  54  80 116 156 199 249 308 369
#     4  11  23  44  70  99 134 174 216 272 331 387
#     4   9  19  37  60  84 114 155 201 254 312 376
#     4  11  24  41  61  89 121 158 205 259 320 386
#
# _framework density 22.079387000000001
#
# number of rings (size 3 to 8) (size 9 to 14) (size 15 to 20)
#    0.000    1.600    1.600    2.880    4.480    8.000 
#    0.000    4.800    0.000    0.000    0.000    0.000 
#    0.000    0.000    0.000    0.000    0.000    0.000 
#
# Total GULP energy -279142.070852 kJ/mol
# GULP energy per Si atom -5582.841417 kJ/mol
# Density = 2.202913 g / cm^3
# Si number density = 22.079387 Si / 1000 Ang^3
#
#
#
# Elastic Constant Matrix: (Units=GPa)
#
#
# Indices 1 2 3 4 5 6 
#
# 1 71.1700 29.3732 46.0733 0.0000 0.0000 0.0000
# 2 29.3732 71.1696 46.0729 0.0000 0.0000 0.0000
# 3 46.0733 46.0729 189.1375 0.0000 0.0000 0.0000
# 4 0.0000 0.0000 0.0000 -40.1146 0.0000 0.0000
# 5 0.0000 0.0000 0.0000 0.0000 -40.1147 0.0000
# 6 0.0000 0.0000 0.0000 0.0000 0.0000 17.9391
#
#
#
# Elastic Compliance Matrix: (Units=1/GPa)
#
#
# Indices 1 2 3 4 5 6 
#
# 1 0.018365 -0.005560 -0.003119 0.000000 0.000000 0.000000
# 2 -0.005560 0.018365 -0.003119 0.000000 0.000000 0.000000
# 3 -0.003119 -0.003119 0.006807 0.000000 0.000000 0.000000
# 4 0.000000 0.000000 0.000000 -0.024929 0.000000 0.000000
# 5 0.000000 0.000000 0.000000 0.000000 -0.024928 0.000000
# 6 0.000000 0.000000 0.000000 0.000000 0.000000 0.055744
#
#
# Mechanical properties :
#
#
# Convention : Reuss Voigt Hill
#
# Bulk Modulus (GPa) = 50.15181 63.83512 56.99346
# Shear Modulus (GPa) = 62.76059 1.53913 32.14986
#
# Velocity S-wave (km/s) = 5.33729 0.83582 3.82003
# Velocity P-wave (km/s) = 7.79396 5.46863 6.73245
#
# Compressibility (1/GPa) = 0.01993946
#
# Stress axis : x y z
#
# Youngs Moduli (GPa) = 54.45138 54.45125 146.91217
#
# Poissons Ratio (x) = 0.30277 0.45825
# Poissons Ratio (y) = 0.30277 0.45824
# Poissons Ratio (z) = 0.16984 0.16984
#
# Static dielectric constant tensor:
#      x y z
#    x 1.813520 0.000000 0.000000 
#    y 0.000000 1.813520 0.000000 
#    z 0.000000 0.000000 1.806930 
# 
# From -- ./inp_files/3087.got.cif
#   From: 2010.05.17/outbox.cif.g08.bks.cpg/sg90_2_cif.got.tgz:3087.got - 2010.06.03 19:17:45.
