data_PCOD9547912
_publ_section_title
;
Structure prediction by ZEFSAII (Michael W. Deem and Ramdas Pophale) SiO2 
 PCOD9547912
Probable space group: P 41 2 2
;
_chemical_formula_sum "Si O2"
_cell_formula_units_Z 40
_cell_length_a 11.242155
_cell_length_b 11.242155
_cell_length_c 15.727700
_cell_angle_alpha 90.000000
_cell_angle_beta 90.000000
_cell_angle_gamma 90.000000
_cell_volume 1987.761864
_symmetry_space_group_name_H-M "P 41 2 2"
_symmetry_group_IT_number 91
_symmetry_cell_setting 'tetragonal'
loop_
_space_group_symop_operation_xyz
x,y,z
-y,x,1/4+z
-x,-y,1/2+z
y,-x,3/4+z
x,-y,1/2-z
-x,y,-z
y,x,3/4-z
-y,-x,1/4-z
loop_
_atom_site_type_symbol
_atom_site_label
_atom_site_fract_x
_atom_site_fract_y
_atom_site_fract_z
Si Si1 0.280486 0.731708 0.938810
Si Si2 0.412691 0.892775 0.804990
Si Si3 0.475986 0.287894 0.843680
Si Si4 0.212576 0.212576 0.375000
Si Si5 0.500000 0.109840 0.000000
Si Si6 0.982680 0.343753 0.375822
O O1 0.335500 0.836291 0.881212
O O2 0.343011 0.606701 0.917187
O O3 0.142955 0.698617 0.914450
O O4 0.283312 0.753534 0.039498
O O5 0.441071 0.783549 0.741383
O O6 0.537029 0.953151 0.836436
O O7 0.353925 0.000000 0.750000
O O8 0.384804 0.384804 0.875000
O O9 0.476435 0.190409 0.918634
O O10 0.075266 0.239710 0.388709
O O11 0.615989 0.037649 0.971656
#
# Coordination Sequence:
#
# PCOD9547912 Si02
#       6
#     8   8   8   4   4   8
#     4  11  25  42  70  99 135 182 235 290 349 420
#     4  12  22  45  70  98 139 183 233 283 349 429
#     4  11  22  42  66  98 138 177 223 283 347 424
#     4  12  22  40  70  96 126 182 230 282 354 404
#     4  10  20  36  68  90 124 176 220 264 350 402
#     4  11  22  45  64  98 134 174 229 287 339 414
#
# _framework density 20.123132999999999
#
# number of rings (size 3 to 8) (size 9 to 14) (size 15 to 20)
#    0.000    0.800    6.000    4.200    0.000    0.000 
#    1.800    4.000    0.000    0.000    0.000    0.000 
#    0.000    0.000    0.000    0.000    0.000    0.000 
#
# Total GULP energy -223150.365833 kJ/mol
# GULP energy per Si atom -5578.759146 kJ/mol
# Density = 2.007733 g / cm^3
# Si number density = 20.123133 Si / 1000 Ang^3
#
#
#
# Elastic Constant Matrix: (Units=GPa)
#
#
# Indices 1 2 3 4 5 6 
#
# 1 92.7990 57.3810 43.0227 0.0000 0.0000 0.0000
# 2 57.3810 92.7990 43.0227 0.0000 0.0000 0.0000
# 3 43.0227 43.0227 146.0966 0.0000 0.0000 0.0000
# 4 0.0000 0.0000 0.0000 27.4404 0.0000 0.0000
# 5 0.0000 0.0000 0.0000 0.0000 27.4404 0.0000
# 6 0.0000 0.0000 0.0000 0.0000 0.0000 28.2428
#
#
#
# Elastic Compliance Matrix: (Units=1/GPa)
#
#
# Indices 1 2 3 4 5 6 
#
# 1 0.018122 -0.010112 -0.002359 0.000000 0.000000 0.000000
# 2 -0.010112 0.018122 -0.002359 0.000000 0.000000 0.000000
# 3 -0.002359 -0.002359 0.008234 0.000000 0.000000 0.000000
# 4 0.000000 0.000000 0.000000 0.036443 0.000000 0.000000
# 5 0.000000 0.000000 0.000000 0.000000 0.036443 0.000000
# 6 0.000000 0.000000 0.000000 0.000000 0.000000 0.035407
#
#
# Mechanical properties :
#
#
# Convention : Reuss Voigt Hill
#
# Bulk Modulus (GPa) = 67.48085 68.72751 68.10418
# Shear Modulus (GPa) = 26.68515 29.17592 27.93053
#
# Velocity S-wave (km/s) = 3.64551 3.81185 3.72960
# Velocity P-wave (km/s) = 7.16424 7.32128 7.24319
#
# Compressibility (1/GPa) = 0.01481902
#
# Stress axis : x y z
#
# Youngs Moduli (GPa) = 55.18087 55.18087 121.44674
#
# Poissons Ratio (x) = 0.55799 0.28647
# Poissons Ratio (y) = 0.55799 0.28647
# Poissons Ratio (z) = 0.13016 0.13016
#
# Static dielectric constant tensor:
#      x y z
#    x 1.765630 0.000000 0.000000 
#    y 0.000000 1.765630 0.000000 
#    z 0.000000 0.000000 1.778030 
# 
# From -- ./inp_files/4813.got.cif
#   From: 2010.05.17/outbox.cif.g08.bks.cpg/sg91_3_cif.got.tgz:4813.got - 2010.06.03 19:20:03.
