data_PCOD9547808
_publ_section_title
;
Structure prediction by ZEFSAII (Michael W. Deem and Ramdas Pophale) SiO2 
 PCOD9547808
Probable space group: P 41 2 2
;
_chemical_formula_sum "Si O2"
_cell_formula_units_Z 48
_cell_length_a 12.011230
_cell_length_b 12.011230
_cell_length_c 16.642953
_cell_angle_alpha 90.000000
_cell_angle_beta 90.000000
_cell_angle_gamma 90.000000
_cell_volume 2401.072940
_symmetry_space_group_name_H-M "P 41 2 2"
_symmetry_group_IT_number 91
_symmetry_cell_setting 'tetragonal'
loop_
_space_group_symop_operation_xyz
x,y,z
-y,x,1/4+z
-x,-y,1/2+z
y,-x,3/4+z
x,-y,1/2-z
-x,y,-z
y,x,3/4-z
-y,-x,1/4-z
loop_
_atom_site_type_symbol
_atom_site_label
_atom_site_fract_x
_atom_site_fract_y
_atom_site_fract_z
Si Si1 0.160267 0.938554 0.451523
Si Si2 0.402426 0.125988 0.282763
Si Si3 0.223105 0.332982 0.626059
Si Si4 0.504909 0.504909 0.375000
Si Si5 0.500000 0.667813 0.500000
Si Si6 0.081161 0.918840 0.625000
Si Si7 0.548463 0.755379 0.089233
Si Si8 0.172324 0.827677 0.125000
O O1 0.262820 0.882124 0.406020
O O2 0.155663 0.904975 0.545285
O O3 0.044743 0.904752 0.408180
O O4 0.163976 0.071260 0.438505
O O5 0.406156 0.198543 0.202104
O O6 0.495545 0.160613 0.346708
O O7 0.286926 0.156489 0.327475
O O8 0.405120 0.000000 0.250000
O O9 0.263117 0.414398 0.696987
O O10 0.318796 0.246306 0.599061
O O11 0.560016 0.575970 0.445680
O O12 0.373408 0.519895 0.361868
O O13 0.500000 0.776272 0.000000
#
# Coordination Sequence:
#
# PCOD9547808 Si02
#       8
#     8   8   8   4   4   4   8   4
#     4  10  20  39  63  99 122 170 226 284 335 404
#     4  12  25  45  68 104 140 179 234 302 359 419
#     4  11  24  43  63 100 134 178 229 278 352 416
#     4  10  19  41  67 103 126 180 242 280 323 425
#     4  10  24  36  66  92 140 174 222 282 340 424
#     4   9  20  35  63  90 125 164 226 272 325 391
#     4  11  23  42  70 100 135 175 229 284 354 418
#     4  11  21  40  76  91 131 172 234 296 338 418
#
# _framework density 19.991061999999999
#
# number of rings (size 3 to 8) (size 9 to 14) (size 15 to 20)
#    0.000    1.333    2.500    3.500    9.333    0.667 
#    4.500    0.000    0.000    0.000    0.000    0.000 
#    0.000    0.000    0.000    0.000    0.000    0.000 
#
# Total GULP energy -267746.824765 kJ/mol
# GULP energy per Si atom -5578.058849 kJ/mol
# Density = 1.994556 g / cm^3
# Si number density = 19.991062 Si / 1000 Ang^3
#
#
#
# Elastic Constant Matrix: (Units=GPa)
#
#
# Indices 1 2 3 4 5 6 
#
# 1 67.9333 10.3413 26.7246 0.0000 0.0000 0.0000
# 2 10.3413 67.9328 26.7243 0.0000 0.0000 0.0000
# 3 26.7246 26.7243 146.5703 0.0000 0.0000 0.0000
# 4 0.0000 0.0000 0.0000 33.1542 0.0000 0.0000
# 5 0.0000 0.0000 0.0000 0.0000 33.1545 0.0000
# 6 0.0000 0.0000 0.0000 0.0000 0.0000 -39.9007
#
#
#
# Elastic Compliance Matrix: (Units=1/GPa)
#
#
# Indices 1 2 3 4 5 6 
#
# 1 0.015978 -0.001386 -0.002661 0.000000 0.000000 0.000000
# 2 -0.001386 0.015978 -0.002661 0.000000 0.000000 0.000000
# 3 -0.002661 -0.002661 0.007793 0.000000 0.000000 0.000000
# 4 0.000000 0.000000 0.000000 0.030162 0.000000 0.000000
# 5 0.000000 0.000000 0.000000 0.000000 0.030162 0.000000
# 6 0.000000 0.000000 0.000000 0.000000 0.000000 -0.025062
#
#
# Mechanical properties :
#
#
# Convention : Reuss Voigt Hill
#
# Bulk Modulus (GPa) = 37.97223 45.55743 41.76483
# Shear Modulus (GPa) = 51.43883 19.85800 35.64842
#
# Velocity S-wave (km/s) = 5.07807 3.15516 4.22740
# Velocity P-wave (km/s) = 7.30878 6.00930 6.69066
#
# Compressibility (1/GPa) = 0.02633504
#
# Stress axis : x y z
#
# Youngs Moduli (GPa) = 62.58625 62.58594 128.32180
#
# Poissons Ratio (x) = 0.08672 0.34142
# Poissons Ratio (y) = 0.08672 0.34142
# Poissons Ratio (z) = 0.16652 0.16652
#
# Static dielectric constant tensor:
#      x y z
#    x 1.710720 0.000000 0.000000 
#    y 0.000000 1.710720 0.000000 
#    z 0.000000 0.000000 1.799960 
# 
# From -- ./inp_files/12009.got.cif
#   From: 2010.05.17/outbox.cif.g08.bks.cpg/sg91_7_cif.got.tgz:12009.got - 2010.06.03 19:20:03.
