data_PCOD9547424
_publ_section_title
;
Structure prediction by ZEFSAII (Michael W. Deem and Ramdas Pophale) SiO2 
 PCOD9547424
Probable space group: P 4 21 2
;
_chemical_formula_sum "Si O2"
_cell_formula_units_Z 54
_cell_length_a 15.119789
_cell_length_b 15.119789
_cell_length_c 10.836524
_cell_angle_alpha 90.000000
_cell_angle_beta 90.000000
_cell_angle_gamma 90.000000
_cell_volume 2477.316289
_symmetry_space_group_name_H-M "P 4 21 2"
_symmetry_group_IT_number 90
_symmetry_cell_setting 'tetragonal'
loop_
_space_group_symop_operation_xyz
x,y,z
1/2-y,1/2+x,z
-x,-y,z
1/2+y,1/2-x,z
1/2+x,1/2-y,-z
1/2-x,1/2+y,-z
y,x,-z
-y,-x,-z
loop_
_atom_site_type_symbol
_atom_site_label
_atom_site_fract_x
_atom_site_fract_y
_atom_site_fract_z
Si Si1 0.716484 0.954428 0.938968
Si Si2 0.812971 0.615264 0.899669
Si Si3 0.236893 0.196648 0.775175
Si Si4 0.447153 0.136566 0.362909
Si Si5 0.455046 0.308186 0.511888
Si Si6 0.823081 0.561028 0.286125
Si Si7 0.159082 0.159082 0.500000
Si Si8 0.500000 0.000000 0.606277
O O1 0.784858 0.885369 0.870521
O O2 0.661899 0.997072 0.827430
O O3 0.651999 0.894418 0.020526
O O4 0.742805 0.042788 0.019154
O O5 0.776433 0.708191 0.841705
O O6 0.845258 0.561045 0.781766
O O7 0.340427 0.185645 0.757925
O O8 0.200755 0.189191 0.633209
O O9 0.548793 0.110034 0.388908
O O10 0.419165 0.226351 0.430397
O O11 0.391088 0.391088 0.500000
O O12 0.460411 0.269488 0.649177
O O13 0.555305 0.326570 0.477028
O O14 0.902843 0.547811 0.379212
#
# Coordination Sequence:
#
# PCOD9547424 Si02
#       8
#     8   8   8   8   8   8   4   2
#     4  12  24  44  72 109 150 199 252 312 394 474
#     4  12  25  46  74 110 155 205 251 318 397 476
#     4  12  27  48  75 114 155 201 265 322 397 475
#     4  11  25  44  71 114 154 197 250 330 408 472
#     4  12  28  49  74 105 152 210 269 323 387 470
#     4  12  25  43  71 112 145 197 245 323 383 475
#     4  12  27  52  78 106 152 213 272 326 392 477
#     4  12  20  40  68 108 142 180 240 316 404 458
#
# _framework density 21.797781000000001
#
# number of rings (size 3 to 8) (size 9 to 14) (size 15 to 20)
#    0.000    0.148    5.926    2.444    7.259    0.296 
#    0.000    0.000    0.000    0.000    0.000    0.000 
#    0.000    0.000    0.000    0.000    0.000    0.000 
#
# Total GULP energy -300873.789914 kJ/mol
# GULP energy per Si atom -5571.736850 kJ/mol
# Density = 2.174817 g / cm^3
# Si number density = 21.797781 Si / 1000 Ang^3
#
#
#
# Elastic Constant Matrix: (Units=GPa)
#
#
# Indices 1 2 3 4 5 6 
#
# 1 99.9458 64.5626 49.4405 0.0000 0.0000 0.0000
# 2 64.5626 99.9458 49.4405 0.0000 0.0000 0.0000
# 3 49.4405 49.4405 129.3468 0.0000 0.0000 0.0000
# 4 0.0000 0.0000 0.0000 28.6785 0.0000 0.0000
# 5 0.0000 0.0000 0.0000 0.0000 28.6785 0.0000
# 6 0.0000 0.0000 0.0000 0.0000 0.0000 12.2946
#
#
#
# Elastic Compliance Matrix: (Units=1/GPa)
#
#
# Indices 1 2 3 4 5 6 
#
# 1 0.018077 -0.010185 -0.003017 0.000000 0.000000 0.000000
# 2 -0.010185 0.018077 -0.003017 0.000000 0.000000 0.000000
# 3 -0.003017 -0.003017 0.010037 0.000000 0.000000 0.000000
# 4 0.000000 0.000000 0.000000 0.034869 0.000000 0.000000
# 5 0.000000 0.000000 0.000000 0.000000 0.034869 0.000000
# 6 0.000000 0.000000 0.000000 0.000000 0.000000 0.081337
#
#
# Mechanical properties :
#
#
# Convention : Reuss Voigt Hill
#
# Bulk Modulus (GPa) = 72.70188 72.90286 72.80237
# Shear Modulus (GPa) = 21.34130 24.98329 23.16229
#
# Velocity S-wave (km/s) = 3.13239 3.38914 3.26329
# Velocity P-wave (km/s) = 6.81966 6.98804 6.90436
#
# Compressibility (1/GPa) = 0.01375480
#
# Stress axis : x y z
#
# Youngs Moduli (GPa) = 55.31916 55.31916 99.62958
#
# Poissons Ratio (x) = 0.56343 0.30054
# Poissons Ratio (y) = 0.56343 0.30054
# Poissons Ratio (z) = 0.16687 0.16687
#
# Static dielectric constant tensor:
#      x y z
#    x 1.824650 0.000000 0.000000 
#    y 0.000000 1.824650 0.000000 
#    z 0.000000 0.000000 1.987070 
# 
# From -- ./inp_files/2297.got.cif
#   From: 2010.05.17/outbox.cif.g08.bks.cpg/sg90_2_cif.got.tgz:2297.got - 2010.06.03 19:17:45.
