data_PCOD9547451
_publ_section_title
;
Structure prediction by ZEFSAII (Michael W. Deem and Ramdas Pophale) SiO2 
 PCOD9547451
Probable space group: P 4 21 2
;
_chemical_formula_sum "Si O2"
_cell_formula_units_Z 32
_cell_length_a 10.699783
_cell_length_b 10.699783
_cell_length_c 11.976622
_cell_angle_alpha 90.000000
_cell_angle_beta 90.000000
_cell_angle_gamma 90.000000
_cell_volume 1371.147836
_symmetry_space_group_name_H-M "P 4 21 2"
_symmetry_group_IT_number 90
_symmetry_cell_setting 'tetragonal'
loop_
_space_group_symop_operation_xyz
x,y,z
1/2-y,1/2+x,z
-x,-y,z
1/2+y,1/2-x,z
1/2+x,1/2-y,-z
1/2-x,1/2+y,-z
y,x,-z
-y,-x,-z
loop_
_atom_site_type_symbol
_atom_site_label
_atom_site_fract_x
_atom_site_fract_y
_atom_site_fract_z
Si Si1 0.521288 0.350529 0.779667
Si Si2 0.235104 0.782691 0.869215
Si Si3 0.212008 0.476079 0.445104
Si Si4 0.445827 0.201399 0.311380
O O1 0.500000 0.500000 0.796487
O O2 0.658934 0.300582 0.810386
O O3 0.431496 0.259915 0.852449
O O4 0.486958 0.311170 0.653512
O O5 0.104001 0.761005 0.802532
O O6 0.240804 0.759197 0.000000
O O7 0.132694 0.606227 0.434712
O O8 0.267779 0.447981 0.567996
O O9 0.582486 0.144432 0.313965
#
# Coordination Sequence:
#
# PCOD9547451 Si02
#       4
#     8   8   8   8
#     4  12  27  48  79 110 153 201 259 328 396 458
#     4  12  29  47  71 107 155 203 265 316 383 471
#     4   9  18  43  75 107 150 192 247 316 385 463
#     4   9  20  43  74 104 146 197 247 312 380 449
#
# _framework density 23.338111000000001
#
# number of rings (size 3 to 8) (size 9 to 14) (size 15 to 20)
#    0.000    1.500    2.500    3.000    7.000    1.500 
#    0.000   10.000    0.000    0.000    0.000    0.000 
#    0.000    0.000    0.000    0.000    0.000    0.000 
#
# Total GULP energy -178333.946426 kJ/mol
# GULP energy per Si atom -5572.935826 kJ/mol
# Density = 2.328499 g / cm^3
# Si number density = 23.338111 Si / 1000 Ang^3
#
#
#
# Elastic Constant Matrix: (Units=GPa)
#
#
# Indices 1 2 3 4 5 6 
#
# 1 131.9325 32.1780 59.0998 0.0000 0.0000 0.0000
# 2 32.1780 131.9328 59.1001 0.0000 0.0000 0.0000
# 3 59.0998 59.1001 181.3556 0.0000 0.0000 0.0000
# 4 0.0000 0.0000 0.0000 12.5970 0.0000 0.0000
# 5 0.0000 0.0000 0.0000 0.0000 12.5976 0.0000
# 6 0.0000 0.0000 0.0000 0.0000 0.0000 39.1416
#
#
#
# Elastic Compliance Matrix: (Units=1/GPa)
#
#
# Indices 1 2 3 4 5 6 
#
# 1 0.008993 -0.001031 -0.002595 0.000000 0.000000 0.000000
# 2 -0.001031 0.008993 -0.002595 0.000000 0.000000 0.000000
# 3 -0.002595 -0.002595 0.007205 0.000000 0.000000 0.000000
# 4 0.000000 0.000000 0.000000 0.079384 0.000000 0.000000
# 5 0.000000 0.000000 0.000000 0.000000 0.079380 0.000000
# 6 0.000000 0.000000 0.000000 0.000000 0.000000 0.025548
#
#
# Mechanical properties :
#
#
# Convention : Reuss Voigt Hill
#
# Bulk Modulus (GPa) = 78.42650 82.88631 80.65641
# Shear Modulus (GPa) = 22.10473 32.52345 27.31409
#
# Velocity S-wave (km/s) = 3.08092 3.73711 3.42477
# Velocity P-wave (km/s) = 6.80687 7.36301 7.09040
#
# Compressibility (1/GPa) = 0.01275079
#
# Stress axis : x y z
#
# Youngs Moduli (GPa) = 111.19202 111.19215 138.78921
#
# Poissons Ratio (x) = 0.11466 0.36012
# Poissons Ratio (y) = 0.11466 0.36012
# Poissons Ratio (z) = 0.28851 0.28852
#
# Static dielectric constant tensor:
#      x y z
#    x 2.007570 0.000000 0.000000 
#    y 0.000000 2.007570 0.000000 
#    z 0.000000 0.000000 1.921790 
# 
# From -- ./inp_files/1867.got.cif
#   From: 2010.05.17/outbox.cif.g08.bks.cpg/sg90_1_cif.got.tgz:1867.got - 2010.06.03 19:17:45.
