data_PCOD9547059
_publ_section_title
;
Structure prediction by ZEFSAII (Michael W. Deem and Ramdas Pophale) SiO2 
 PCOD9547059
Probable space group: P 4 2 2
;
_chemical_formula_sum "Si O2"
_cell_formula_units_Z 52
_cell_length_a 18.000000
_cell_length_b 18.000000
_cell_length_c 9.000000
_cell_angle_alpha 90.000000
_cell_angle_beta 90.000000
_cell_angle_gamma 90.000000
_cell_volume 2916.000000
_symmetry_space_group_name_H-M "P 4 2 2"
_symmetry_group_IT_number 89
_symmetry_cell_setting 'tetragonal'
loop_
_space_group_symop_operation_xyz
x,y,z
-y,x,z
-x,-y,z
y,-x,z
x,-y,-z
-x,y,-z
y,x,-z
-y,-x,-z
loop_
_atom_site_type_symbol
_atom_site_label
_atom_site_fract_x
_atom_site_fract_y
_atom_site_fract_z
Si Si1 0.303000 0.887069 0.815438
Si Si2 0.176126 0.705405 0.502770
Si Si3 0.032244 0.347185 0.344118
Si Si4 0.358874 0.743820 0.223797
Si Si5 0.591604 0.582375 0.321942
Si Si6 0.576356 0.119615 0.079628
Si Si7 0.777342 0.777342 0.000000
O O1 0.319294 0.836627 0.668166
O O2 0.301783 0.968546 0.742395
O O3 0.364922 0.886092 0.944371
O O4 0.233769 0.852584 0.906063
O O5 0.214663 0.785338 0.500000
O O6 0.098907 0.703099 0.592326
O O7 0.228947 0.654748 0.606505
O O8 0.067051 0.401753 0.219419
O O9 0.000000 0.381467 0.500000
O O10 0.375666 0.656637 0.233951
O O11 0.420834 0.796929 0.148693
O O12 0.286874 0.763733 0.123894
O O13 0.505712 0.601430 0.289355
O O14 0.597071 0.597071 0.500000
O O15 0.500000 0.101155 0.000000
#
# Coordination Sequence:
#
# PCOD9547059 Si02
#       7
#     8   8   8   8   8   8   4
#     4  10  20  35  55  81 114 149 188 236 287 343
#     4  10  18  35  58  80 113 147 191 238 281 338
#     4   9  20  37  58  83 112 154 188 235 286 348
#     4  10  20  35  54  79 106 148 192 241 296 342
#     4   9  19  35  53  76 103 138 188 248 311 354
#     4  10  22  39  55  81 117 155 192 238 294 355
#     4  10  20  32  54  79 110 148 187 236 288 340
#
# _framework density 17.832647000000001
#
# number of rings (size 3 to 8) (size 9 to 14) (size 15 to 20)
#    0.000    2.308    1.538    1.385    0.000    3.692 
#    2.769    8.462    0.000    0.923    0.000    0.000 
#    0.000   24.923   36.923    0.000    0.000    0.000 
#
# Total GULP energy -289502.909068 kJ/mol
# GULP energy per Si atom -5567.363636 kJ/mol
# Density = 1.779206 g / cm^3
# Si number density = 17.832647 Si / 1000 Ang^3
#
#
#
# Elastic Constant Matrix: (Units=GPa)
#
#
# Indices 1 2 3 4 5 6 
#
# 1 75.3317 30.6138 42.8565 0.0000 0.0000 0.0000
# 2 30.6138 75.3302 42.8561 0.0000 0.0000 0.0000
# 3 42.8565 42.8561 135.9742 0.0000 0.0000 0.0000
# 4 0.0000 0.0000 0.0000 27.0915 0.0000 0.0000
# 5 0.0000 0.0000 0.0000 0.0000 27.0925 0.0000
# 6 0.0000 0.0000 0.0000 0.0000 0.0000 10.6436
#
#
#
# Elastic Compliance Matrix: (Units=1/GPa)
#
#
# Indices 1 2 3 4 5 6 
#
# 1 0.017516 -0.004847 -0.003993 0.000000 0.000000 0.000000
# 2 -0.004847 0.017516 -0.003993 0.000000 0.000000 0.000000
# 3 -0.003993 -0.003993 0.009871 0.000000 0.000000 0.000000
# 4 0.000000 0.000000 0.000000 0.036912 0.000000 0.000000
# 5 0.000000 0.000000 0.000000 0.000000 0.036911 0.000000
# 6 0.000000 0.000000 0.000000 0.000000 0.000000 0.093953
#
#
# Mechanical properties :
#
#
# Convention : Reuss Voigt Hill
#
# Bulk Modulus (GPa) = 51.98109 57.69877 54.83993
# Shear Modulus (GPa) = 20.42836 24.31951 22.37394
#
# Velocity S-wave (km/s) = 3.38828 3.69692 3.54596
# Velocity P-wave (km/s) = 6.67233 7.11681 6.89815
#
# Compressibility (1/GPa) = 0.01923776
#
# Stress axis : x y z
#
# Youngs Moduli (GPa) = 57.09087 57.08969 101.30211
#
# Poissons Ratio (x) = 0.27669 0.40451
# Poissons Ratio (y) = 0.27670 0.40452
# Poissons Ratio (z) = 0.22797 0.22797
#
# Static dielectric constant tensor:
#      x y z
#    x 1.643480 0.000000 0.000000 
#    y 0.000000 1.643480 0.000000 
#    z 0.000000 0.000000 1.618340 
# 
# From -- ./inp_files/1215.got.cif
#   From: 2010.05.17/outbox.ucp.g08.bks.cvg/sg89_1_cif.got.tgz:1215.got - 2010.06.11 10:35:57.
