data_PCOD9547033
_publ_section_title
;
Structure prediction by ZEFSAII (Michael W. Deem and Ramdas Pophale) SiO2 
 PCOD9547033
Probable space group: P 4 2 2
;
_chemical_formula_sum "Si O2"
_cell_formula_units_Z 48
_cell_length_a 7.989148
_cell_length_b 7.989148
_cell_length_c 32.765385
_cell_angle_alpha 90.000000
_cell_angle_beta 90.000000
_cell_angle_gamma 90.000000
_cell_volume 2091.299379
_symmetry_space_group_name_H-M "P 4 2 2"
_symmetry_group_IT_number 89
_symmetry_cell_setting 'tetragonal'
loop_
_space_group_symop_operation_xyz
x,y,z
-y,x,z
-x,-y,z
y,-x,z
x,-y,-z
-x,y,-z
y,x,-z
-y,-x,-z
loop_
_atom_site_type_symbol
_atom_site_label
_atom_site_fract_x
_atom_site_fract_y
_atom_site_fract_z
Si Si1 0.887650 0.251916 0.783785
Si Si2 0.236700 0.413314 0.294597
Si Si3 0.299800 0.700201 0.500000
Si Si4 0.756811 0.873493 0.414171
Si Si5 0.345012 0.261365 0.868645
Si Si6 0.000000 0.500000 0.640152
Si Si7 0.715529 0.312633 0.956619
O O1 0.824554 0.386765 0.751507
O O2 0.851345 0.295938 0.830602
O O3 0.080518 0.212606 0.776249
O O4 0.397202 0.296957 0.300588
O O5 0.093936 0.378357 0.327636
O O6 0.275623 0.500000 0.500000
O O7 0.184767 0.742240 0.461063
O O8 0.587208 0.856553 0.388189
O O9 0.930905 0.785377 0.404741
O O10 0.547092 0.278451 0.866212
O O11 0.275894 0.202521 0.912882
O O12 0.725330 0.515917 0.956569
O O13 0.767181 0.232820 0.000000
#
# Coordination Sequence:
#
# PCOD9547033 Si02
#       7
#     8   8   4   8   8   4   8
#     4  11  24  40  57  79 112 157 206 256 312 374
#     4  11  24  42  66  95 127 164 208 258 314 377
#     4  11  24  43  68  98 134 177 226 281 336 388
#     4  11  24  42  67  99 135 176 220 265 319 388
#     4   9  17  30  52  82 111 142 188 244 303 371
#     4  12  24  44  69 100 138 174 212 265 324 388
#     4   7  10  19  39  70 106 139 174 227 296 364
#
# _framework density 22.952238000000001
#
# number of rings (size 3 to 8) (size 9 to 14) (size 15 to 20)
#    0.000    1.917    0.000    6.000    0.000    4.667 
#    0.000    3.333    0.000    1.000    0.000    5.833 
#    0.000    0.000    0.000    0.000    0.000    0.000 
#
# Total GULP energy -267619.653872 kJ/mol
# GULP energy per Si atom -5575.409456 kJ/mol
# Density = 2.290000 g / cm^3
# Si number density = 22.952238 Si / 1000 Ang^3
#
#
#
# Elastic Constant Matrix: (Units=GPa)
#
#
# Indices 1 2 3 4 5 6 
#
# 1 54.4786 20.3141 38.5454 0.0000 0.0000 0.0000
# 2 20.3141 54.4781 38.5453 0.0000 0.0000 0.0000
# 3 38.5454 38.5453 197.6669 0.0000 0.0000 0.0000
# 4 0.0000 0.0000 0.0000 17.7408 0.0000 0.0000
# 5 0.0000 0.0000 0.0000 0.0000 17.7405 0.0000
# 6 0.0000 0.0000 0.0000 0.0000 0.0000 48.4870
#
#
#
# Elastic Compliance Matrix: (Units=1/GPa)
#
#
# Indices 1 2 3 4 5 6 
#
# 1 0.023002 -0.006268 -0.003263 0.000000 0.000000 0.000000
# 2 -0.006268 0.023002 -0.003263 0.000000 0.000000 0.000000
# 3 -0.003263 -0.003263 0.006332 0.000000 0.000000 0.000000
# 4 0.000000 0.000000 0.000000 0.056367 0.000000 0.000000
# 5 0.000000 0.000000 0.000000 0.000000 0.056368 0.000000
# 6 0.000000 0.000000 0.000000 0.000000 0.000000 0.020624
#
#
# Mechanical properties :
#
#
# Convention : Reuss Voigt Hill
#
# Bulk Modulus (GPa) = 37.38783 55.71479 46.55131
# Shear Modulus (GPa) = 22.70663 30.74156 26.72410
#
# Velocity S-wave (km/s) = 3.14873 3.66371 3.41594
# Velocity P-wave (km/s) = 5.43544 6.49800 5.99033
#
# Compressibility (1/GPa) = 0.02674667
#
# Stress axis : x y z
#
# Youngs Moduli (GPa) = 43.47462 43.47421 157.93707
#
# Poissons Ratio (x) = 0.27251 0.51536
# Poissons Ratio (y) = 0.27251 0.51537
# Poissons Ratio (z) = 0.14186 0.14186
#
# Static dielectric constant tensor:
#      x y z
#    x 1.980250 0.000000 0.000000 
#    y 0.000000 1.980210 0.000000 
#    z 0.000000 0.000000 1.909300 
# 
# From -- ./inp_files/3006.got.cif
#   From: 2010.05.17/outbox.cif.g08.bks.cpg/sg89_2_cif.got.tgz:3006.got - 2010.06.03 19:15:31.
