data_PCOD9547104
_publ_section_title
;
Structure prediction by ZEFSAII (Michael W. Deem and Ramdas Pophale) SiO2 
 PCOD9547104
Probable space group: P 4 21 2
;
_chemical_formula_sum "Si O2"
_cell_formula_units_Z 40
_cell_length_a 18.024445
_cell_length_b 18.024445
_cell_length_c 5.307991
_cell_angle_alpha 90.000000
_cell_angle_beta 90.000000
_cell_angle_gamma 90.000000
_cell_volume 1724.463394
_symmetry_space_group_name_H-M "P 4 21 2"
_symmetry_group_IT_number 90
_symmetry_cell_setting 'tetragonal'
loop_
_space_group_symop_operation_xyz
x,y,z
1/2-y,1/2+x,z
-x,-y,z
1/2+y,1/2-x,z
1/2+x,1/2-y,-z
1/2-x,1/2+y,-z
y,x,-z
-y,-x,-z
loop_
_atom_site_type_symbol
_atom_site_label
_atom_site_fract_x
_atom_site_fract_y
_atom_site_fract_z
Si Si1 0.525803 0.120827 0.421207
Si Si2 0.231196 0.889893 0.981980
Si Si3 0.801408 0.370475 0.900301
Si Si4 0.661766 0.541789 0.517944
Si Si5 0.760059 0.903135 0.603048
O O1 0.445924 0.084871 0.446368
O O2 0.549300 0.161756 0.161965
O O3 0.542906 0.187113 0.610803
O O4 0.315634 0.867386 0.024357
O O5 0.198273 0.938640 0.212076
O O6 0.187966 0.812035 0.000000
O O7 0.208600 0.921725 0.711104
O O8 0.763284 0.351168 0.631040
O O9 0.741562 0.371120 0.120455
O O10 0.581448 0.581448 0.500000
O O11 0.670980 0.454352 0.471055
#
# Coordination Sequence:
#
# PCOD9547104 Si02
#       5
#     8   8   8   8   8
#     4   9  20  32  44  64  96 136 171 196 228 272
#     4  10  20  34  53  73  96 129 171 214 256 296
#     4  10  21  31  49  68  97 128 163 204 245 284
#     4  10  20  34  53  73  96 129 171 214 256 296
#     4  10  21  31  49  68  97 128 163 204 245 284
#
# _framework density 23.195623999999999
#
# number of rings (size 3 to 8) (size 9 to 14) (size 15 to 20)
#    1.200    1.000    0.000    3.600    5.600    0.000 
#    0.000    2.000    0.000    0.000    0.000    0.000 
#    0.000    4.800    0.000    0.000    0.000    0.000 
#
# Total GULP energy -223041.455685 kJ/mol
# GULP energy per Si atom -5576.036392 kJ/mol
# Density = 2.314283 g / cm^3
# Si number density = 23.195624 Si / 1000 Ang^3
#
#
#
# Elastic Constant Matrix: (Units=GPa)
#
#
# Indices 1 2 3 4 5 6 
#
# 1 12.5838 70.9284 0.7112 0.0000 0.0000 0.0000
# 2 70.9284 12.5886 0.7167 0.0000 0.0000 0.0000
# 3 0.7112 0.7167 83.2098 0.0000 0.0000 0.0000
# 4 0.0000 0.0000 0.0000 18.1567 0.0000 0.0000
# 5 0.0000 0.0000 0.0000 0.0000 18.1569 0.0000
# 6 0.0000 0.0000 0.0000 0.0000 0.0000 39.5924
#
#
#
# Elastic Compliance Matrix: (Units=1/GPa)
#
#
# Indices 1 2 3 4 5 6 
#
# 1 -0.002583 0.014558 -0.000103 0.000000 0.000000 0.000000
# 2 0.014558 -0.002582 -0.000102 0.000000 0.000000 0.000000
# 3 -0.000103 -0.000102 0.012020 0.000000 0.000000 0.000000
# 4 0.000000 0.000000 0.000000 0.055076 0.000000 0.000000
# 5 0.000000 0.000000 0.000000 0.000000 0.055076 0.000000
# 6 0.000000 0.000000 0.000000 0.000000 0.000000 0.025257
#
#
# Mechanical properties :
#
#
# Convention : Reuss Voigt Hill
#
# Bulk Modulus (GPa) = 28.12148 28.12163 28.12156
# Shear Modulus (GPa) = 39.86844 17.58291 28.72568
#
# Velocity S-wave (km/s) = 4.15033 2.75622 3.52292
# Velocity P-wave (km/s) = 5.92595 4.72006 5.35705
#
# Compressibility (1/GPa) = 0.03556000
#
# Stress axis : x y z
#
# Youngs Moduli (GPa) = -387.18435 -387.32929 83.19761
#
# Poissons Ratio (x) = 5.63873 0.00860
# Poissons Ratio (y) = 5.63662 0.00850
# Poissons Ratio (z) = -0.04000 -0.03958
#
# Static dielectric constant tensor:
#      x y z
#    x 1.937640 0.000000 0.000000 
#    y 0.000000 1.937630 0.000000 
#    z 0.000000 0.000000 1.933770 
# 
# From -- ./inp_files/552.got.cif
#   From: 2010.05.17/outbox.cif.g08.bks.cpg/sg90_1_cif.got.tgz:552.got - 2010.06.03 19:17:45.
