data_PCOD9547673
_publ_section_title
;
Structure prediction by ZEFSAII (Michael W. Deem and Ramdas Pophale) SiO2 
 PCOD9547673
Probable space group: P 41 2 2
;
_chemical_formula_sum "Si O2"
_cell_formula_units_Z 32
_cell_length_a 18.349537
_cell_length_b 18.349537
_cell_length_c 4.929868
_cell_angle_alpha 90.000000
_cell_angle_beta 90.000000
_cell_angle_gamma 90.000000
_cell_volume 1659.913710
_symmetry_space_group_name_H-M "P 41 2 2"
_symmetry_group_IT_number 91
_symmetry_cell_setting 'tetragonal'
loop_
_space_group_symop_operation_xyz
x,y,z
-y,x,1/4+z
-x,-y,1/2+z
y,-x,3/4+z
x,-y,1/2-z
-x,y,-z
y,x,3/4-z
-y,-x,1/4-z
loop_
_atom_site_type_symbol
_atom_site_label
_atom_site_fract_x
_atom_site_fract_y
_atom_site_fract_z
Si Si1 0.415468 0.304668 0.009577
Si Si2 0.922371 0.194594 0.148749
Si Si3 0.584546 0.792442 0.010279
Si Si4 0.851952 0.266711 0.657606
O O1 0.365267 0.365267 0.875000
O O2 0.403230 0.233899 0.817461
O O3 0.500000 0.326661 0.000000
O O4 0.405042 0.278221 0.316802
O O5 0.884508 0.115493 0.125000
O O6 0.908083 0.227244 0.449060
O O7 0.874946 0.246960 0.959931
O O8 0.000000 0.192636 0.000000
O O9 0.646408 0.846480 0.900508
O O10 0.500000 0.816441 0.000000
O O11 0.773646 0.226355 0.625000
#
# Coordination Sequence:
#
# PCOD9547673 Si02
#       4
#     8   8   8   8
#     4  10  19  31  46  68  99 135 177 226 280 335
#     4  10  21  37  57  84 114 145 179 215 264 325
#     4  10  20  33  52  77 104 136 180 233 281 324
#     4  10  19  33  56  81 108 144 184 226 270 322
#
# _framework density 19.278110999999999
#
# number of rings (size 3 to 8) (size 9 to 14) (size 15 to 20)
#    0.000    2.000    0.000    4.500    0.000    2.000 
#    0.000    7.500    0.000    3.000    0.000    0.000 
#    0.000    0.000    0.000    0.000    0.000    0.000 
#
# Total GULP energy -178214.666680 kJ/mol
# GULP energy per Si atom -5569.208334 kJ/mol
# Density = 1.923423 g / cm^3
# Si number density = 19.278111 Si / 1000 Ang^3
#
#
#
# Elastic Constant Matrix: (Units=GPa)
#
#
# Indices 1 2 3 4 5 6 
#
# 1 66.8377 41.4587 -2.4106 0.0000 0.0000 0.0000
# 2 41.4587 66.8434 -2.4092 0.0000 0.0000 0.0000
# 3 -2.4106 -2.4092 82.4327 0.0000 0.0000 0.0000
# 4 0.0000 0.0000 0.0000 12.1913 0.0000 0.0000
# 5 0.0000 0.0000 0.0000 0.0000 12.1909 0.0000
# 6 0.0000 0.0000 0.0000 0.0000 0.0000 13.9147
#
#
#
# Elastic Compliance Matrix: (Units=1/GPa)
#
#
# Indices 1 2 3 4 5 6 
#
# 1 0.024323 -0.015076 0.000271 0.000000 0.000000 0.000000
# 2 -0.015076 0.024321 0.000270 0.000000 0.000000 0.000000
# 3 0.000271 0.000270 0.012147 0.000000 0.000000 0.000000
# 4 0.000000 0.000000 0.000000 0.082026 0.000000 0.000000
# 5 0.000000 0.000000 0.000000 0.000000 0.082029 0.000000
# 6 0.000000 0.000000 0.000000 0.000000 0.000000 0.071866
#
#
# Mechanical properties :
#
#
# Convention : Reuss Voigt Hill
#
# Bulk Modulus (GPa) = 31.52634 32.15461 31.84047
# Shear Modulus (GPa) = 14.86519 19.62436 17.24477
#
# Velocity S-wave (km/s) = 2.77987 3.19401 2.99411
# Velocity P-wave (km/s) = 5.16648 5.50616 5.33902
#
# Compressibility (1/GPa) = 0.03171951
#
# Stress axis : x y z
#
# Youngs Moduli (GPa) = 41.11328 41.11688 82.32542
#
# Poissons Ratio (x) = 0.61989 -0.02228
# Poissons Ratio (y) = 0.61984 -0.02222
# Poissons Ratio (z) = -0.01113 -0.01110
#
# Static dielectric constant tensor:
#      x y z
#    x 1.690000 0.000000 0.000000 
#    y 0.000000 1.690000 0.000000 
#    z 0.000000 0.000000 1.666350 
# 
# From -- ./inp_files/689.got.cif
#   From: 2010.05.17/outbox.cif.g08.bks.cpg/sg91_1_cif.got.tgz:689.got - 2010.06.03 19:20:03.
