data_PCOD9547892
_publ_section_title
;
Structure prediction by ZEFSAII (Michael W. Deem and Ramdas Pophale) SiO2 
 PCOD9547892
Probable space group: P 41 2 2
;
_chemical_formula_sum "Si O2"
_cell_formula_units_Z 36
_cell_length_a 14.127747
_cell_length_b 14.127747
_cell_length_c 8.714976
_cell_angle_alpha 90.000000
_cell_angle_beta 90.000000
_cell_angle_gamma 90.000000
_cell_volume 1739.450255
_symmetry_space_group_name_H-M "P 41 2 2"
_symmetry_group_IT_number 91
_symmetry_cell_setting 'tetragonal'
loop_
_space_group_symop_operation_xyz
x,y,z
-y,x,1/4+z
-x,-y,1/2+z
y,-x,3/4+z
x,-y,1/2-z
-x,y,-z
y,x,3/4-z
-y,-x,1/4-z
loop_
_atom_site_type_symbol
_atom_site_label
_atom_site_fract_x
_atom_site_fract_y
_atom_site_fract_z
Si Si1 0.128088 0.871913 0.125000
Si Si2 0.639154 0.146114 0.387705
Si Si3 0.814328 0.731403 0.149536
Si Si4 0.203800 0.015826 0.911162
Si Si5 0.562216 0.113198 0.728349
O O1 0.207544 0.854285 0.254787
O O2 0.027882 0.856242 0.201909
O O3 0.706229 0.233933 0.342419
O O4 0.707029 0.054704 0.390684
O O5 0.601160 0.148476 0.562844
O O6 0.549632 0.132268 0.277751
O O7 0.881759 0.759976 0.290565
O O8 0.832740 0.622857 0.106242
O O9 0.151727 0.000000 0.750000
O O10 0.577898 0.000000 0.750000
#
# Coordination Sequence:
#
# PCOD9547892 Si02
#       5
#     4   8   8   8   8
#     4  10  20  36  60  90 116 176 216 250 328 392
#     4  10  22  33  61 101 126 161 223 265 329 396
#     4  11  19  39  63  90 134 172 207 279 329 387
#     4  11  22  38  61  91 128 168 218 271 323 389
#     4  11  18  36  63  94 132 167 213 274 327 393
#
# _framework density 20.696196
#
# number of rings (size 3 to 8) (size 9 to 14) (size 15 to 20)
#    0.000    1.333    6.667    1.333    0.000    3.556 
#    0.000    0.000    0.000   60.000    0.000    0.000 
#  100.000    0.000    0.000    0.000    0.000    0.000 
#
# Total GULP energy -201279.335275 kJ/mol
# GULP energy per Si atom -5591.092647 kJ/mol
# Density = 2.064909 g / cm^3
# Si number density = 20.696196 Si / 1000 Ang^3
#
#
#
# Elastic Constant Matrix: (Units=GPa)
#
#
# Indices 1 2 3 4 5 6 
#
# 1 120.4848 72.9807 23.2864 0.0000 0.0000 0.0000
# 2 72.9807 120.4862 23.2866 0.0000 0.0000 0.0000
# 3 23.2864 23.2866 70.8688 0.0000 0.0000 0.0000
# 4 0.0000 0.0000 0.0000 24.1233 0.0000 0.0000
# 5 0.0000 0.0000 0.0000 0.0000 24.1232 0.0000
# 6 0.0000 0.0000 0.0000 0.0000 0.0000 32.1705
#
#
#
# Elastic Compliance Matrix: (Units=1/GPa)
#
#
# Indices 1 2 3 4 5 6 
#
# 1 0.013332 -0.007719 -0.001844 0.000000 0.000000 0.000000
# 2 -0.007719 0.013332 -0.001844 0.000000 0.000000 0.000000
# 3 -0.001844 -0.001844 0.015323 0.000000 0.000000 0.000000
# 4 0.000000 0.000000 0.000000 0.041454 0.000000 0.000000
# 5 0.000000 0.000000 0.000000 0.000000 0.041454 0.000000
# 6 0.000000 0.000000 0.000000 0.000000 0.000000 0.031084
#
#
# Mechanical properties :
#
#
# Convention : Reuss Voigt Hill
#
# Bulk Modulus (GPa) = 52.16190 61.21637 56.68913
# Shear Modulus (GPa) = 27.00029 28.90246 27.95137
#
# Velocity S-wave (km/s) = 3.61585 3.74105 3.67898
# Velocity P-wave (km/s) = 6.53382 6.95006 6.74515
#
# Compressibility (1/GPa) = 0.01917108
#
# Stress axis : x y z
#
# Youngs Moduli (GPa) = 75.00894 75.00972 65.26301
#
# Poissons Ratio (x) = 0.57899 0.12036
# Poissons Ratio (y) = 0.57898 0.12037
# Poissons Ratio (z) = 0.13834 0.13834
#
# Static dielectric constant tensor:
#      x y z
#    x 1.759660 0.000000 0.000000 
#    y 0.000000 1.759660 0.000000 
#    z 0.000000 0.000000 1.866430 
# 
# From -- ./inp_files/19325.got.cif
#   From: 2010.05.17/outbox.cif.g08.bks.cpg/sg91_10_cif.got.tgz:19325.got - 2010.06.03 19:20:03.
