data_PCOD9547832
_publ_section_title
;
Structure prediction by ZEFSAII (Michael W. Deem and Ramdas Pophale) SiO2 
 PCOD9547832
Probable space group: P 41 2 2
;
_chemical_formula_sum "Si O2"
_cell_formula_units_Z 36
_cell_length_a 6.964444
_cell_length_b 6.964444
_cell_length_c 25.444968
_cell_angle_alpha 90.000000
_cell_angle_beta 90.000000
_cell_angle_gamma 90.000000
_cell_volume 1234.169502
_symmetry_space_group_name_H-M "P 41 2 2"
_symmetry_group_IT_number 91
_symmetry_cell_setting 'tetragonal'
loop_
_space_group_symop_operation_xyz
x,y,z
-y,x,1/4+z
-x,-y,1/2+z
y,-x,3/4+z
x,-y,1/2-z
-x,y,-z
y,x,3/4-z
-y,-x,1/4-z
loop_
_atom_site_type_symbol
_atom_site_label
_atom_site_fract_x
_atom_site_fract_y
_atom_site_fract_z
Si Si1 0.692046 0.182058 0.845548
Si Si2 0.743786 0.892683 0.539391
Si Si3 0.339140 0.274985 0.263417
Si Si4 0.386998 0.386998 0.375000
Si Si5 0.148385 0.174484 0.819624
O O1 0.641790 0.097727 0.903420
O O2 0.601404 0.150062 0.787532
O O3 0.650476 0.404637 0.853324
O O4 0.920873 0.161485 0.834965
O O5 0.698169 0.801124 0.481772
O O6 0.953543 0.811345 0.554125
O O7 0.750270 0.110289 0.519753
O O8 0.378714 0.500000 0.250000
O O9 0.388786 0.245296 0.324695
O O10 0.238821 0.238821 0.875000
#
# Coordination Sequence:
#
# PCOD9547832 Si02
#       5
#     8   8   8   4   8
#     4   9  18  33  53  80 108 144 191 229 285 342
#     4   9  16  30  57  82 108 143 186 237 283 336
#     4   9  19  34  53  78 111 145 185 234 281 336
#     4  10  20  34  54  74 110 152 180 234 282 338
#     4   8  15  28  54  84 113 139 180 241 290 331
#
# _framework density 29.169414
#
# number of rings (size 3 to 8) (size 9 to 14) (size 15 to 20)
#    0.000    3.111    0.000    0.000    4.667    0.000 
#    0.000    3.333   44.000    0.000    2.889    0.000 
#    0.000    0.000    0.000    0.000    0.000    0.000 
#
# Total GULP energy -200783.710715 kJ/mol
# GULP energy per Si atom -5577.325298 kJ/mol
# Density = 2.910302 g / cm^3
# Si number density = 29.169414 Si / 1000 Ang^3
#
#
#
# Elastic Constant Matrix: (Units=GPa)
#
#
# Indices 1 2 3 4 5 6 
#
# 1 74.4925 -0.2354 21.8529 0.0000 0.0000 0.0000
# 2 -0.2354 74.4925 21.8529 0.0000 0.0000 0.0000
# 3 21.8529 21.8529 422.1853 0.0000 0.0000 0.0000
# 4 0.0000 0.0000 0.0000 22.0295 0.0000 0.0000
# 5 0.0000 0.0000 0.0000 0.0000 22.0295 0.0000
# 6 0.0000 0.0000 0.0000 0.0000 0.0000 11.0531
#
#
#
# Elastic Compliance Matrix: (Units=1/GPa)
#
#
# Indices 1 2 3 4 5 6 
#
# 1 0.013636 0.000254 -0.000719 0.000000 0.000000 0.000000
# 2 0.000254 0.013636 -0.000719 0.000000 0.000000 0.000000
# 3 -0.000719 -0.000719 0.002443 0.000000 0.000000 0.000000
# 4 0.000000 0.000000 0.000000 0.045394 0.000000 0.000000
# 5 0.000000 0.000000 0.000000 0.000000 0.045394 0.000000
# 6 0.000000 0.000000 0.000000 0.000000 0.000000 0.090472
#
#
# Mechanical properties :
#
#
# Convention : Reuss Voigt Hill
#
# Bulk Modulus (GPa) = 36.56710 73.12347 54.84528
# Shear Modulus (GPa) = 22.47614 46.20241 34.33927
#
# Velocity S-wave (km/s) = 2.77887 3.98418 3.43481
# Velocity P-wave (km/s) = 4.78116 6.80352 5.87994
#
# Compressibility (1/GPa) = 0.02734699
#
# Stress axis : x y z
#
# Youngs Moduli (GPa) = 73.33589 73.33589 409.32326
#
# Poissons Ratio (x) = -0.01863 0.29429
# Poissons Ratio (y) = -0.01863 0.29429
# Poissons Ratio (z) = 0.05273 0.05273
#
# Static dielectric constant tensor:
#      x y z
#    x 2.266530 0.000000 0.000000 
#    y 0.000000 2.266530 0.000000 
#    z 0.000000 0.000000 2.539020 
# 
# From -- ./inp_files/13101.got.cif
#   From: 2010.05.17/outbox.cif.g08.bks.cpg/sg91_7_cif.got.tgz:13101.got - 2010.06.03 19:20:03.
