data_PCOD9547900
_publ_section_title
;
Structure prediction by ZEFSAII (Michael W. Deem and Ramdas Pophale) SiO2 
 PCOD9547900
Probable space group: P 41 2 2
;
_chemical_formula_sum "Si O2"
_cell_formula_units_Z 48
_cell_length_a 14.570355
_cell_length_b 14.570355
_cell_length_c 11.457544
_cell_angle_alpha 90.000000
_cell_angle_beta 90.000000
_cell_angle_gamma 90.000000
_cell_volume 2432.382109
_symmetry_space_group_name_H-M "P 41 2 2"
_symmetry_group_IT_number 91
_symmetry_cell_setting 'tetragonal'
loop_
_space_group_symop_operation_xyz
x,y,z
-y,x,1/4+z
-x,-y,1/2+z
y,-x,3/4+z
x,-y,1/2-z
-x,y,-z
y,x,3/4-z
-y,-x,1/4-z
loop_
_atom_site_type_symbol
_atom_site_label
_atom_site_fract_x
_atom_site_fract_y
_atom_site_fract_z
Si Si1 0.772220 0.500000 0.250000
Si Si2 0.673934 0.000000 0.250000
Si Si3 0.236171 0.985317 0.986068
Si Si4 0.830112 0.459174 0.993866
Si Si5 0.300592 0.299271 0.739380
Si Si6 0.085611 0.635382 0.079277
Si Si7 0.145960 0.799271 0.913308
O O1 0.830056 0.482808 0.132454
O O2 0.714107 0.592011 0.226261
O O3 0.736610 0.024907 0.139443
O O4 0.610037 0.913652 0.220947
O O5 0.172303 0.897538 0.964575
O O6 0.330233 0.950336 0.047102
O O7 0.196183 0.060338 0.074511
O O8 0.737704 0.402839 0.968444
O O9 0.843282 0.552624 0.922991
O O10 0.278539 0.278539 0.875000
O O11 0.230663 0.244195 0.657885
O O12 0.122354 0.726295 0.014246
O O13 0.000000 0.602720 0.000000
#
# Coordination Sequence:
#
# PCOD9547900 Si02
#       7
#     4   4   8   8   8   8   8
#     4  10  20  36  62  90 132 172 210 258 320 388
#     4  12  24  36  62 102 128 160 210 278 324 392
#     4  11  25  41  69  89 133 168 220 267 330 389
#     4  11  21  35  62  98 127 166 210 264 331 380
#     4  10  20  36  61  94 129 164 212 260 322 386
#     4  10  22  40  64  93 124 167 213 270 329 381
#     4  11  22  44  66  92 127 170 215 270 319 386
#
# _framework density 19.733740999999998
#
# number of rings (size 3 to 8) (size 9 to 14) (size 15 to 20)
#    0.000    1.333    4.167    2.500    2.333    0.667 
#    0.000    0.000   20.167    6.000    0.000    0.000 
#    0.000    0.000    0.000    0.000    0.000    0.000 
#
# Total GULP energy -268237.945303 kJ/mol
# GULP energy per Si atom -5588.290527 kJ/mol
# Density = 1.968883 g / cm^3
# Si number density = 19.733741 Si / 1000 Ang^3
#
#
#
# Elastic Constant Matrix: (Units=GPa)
#
#
# Indices 1 2 3 4 5 6 
#
# 1 83.8206 38.2834 15.1737 0.0000 0.0000 0.0000
# 2 38.2834 83.8206 15.1737 0.0000 0.0000 0.0000
# 3 15.1737 15.1737 55.1358 0.0000 0.0000 0.0000
# 4 0.0000 0.0000 0.0000 23.6064 0.0000 0.0000
# 5 0.0000 0.0000 0.0000 0.0000 23.6064 0.0000
# 6 0.0000 0.0000 0.0000 0.0000 0.0000 24.9508
#
#
#
# Elastic Compliance Matrix: (Units=1/GPa)
#
#
# Indices 1 2 3 4 5 6 
#
# 1 0.015376 -0.006584 -0.002419 0.000000 0.000000 0.000000
# 2 -0.006584 0.015376 -0.002419 0.000000 0.000000 0.000000
# 3 -0.002419 -0.002419 0.019469 0.000000 0.000000 0.000000
# 4 0.000000 0.000000 0.000000 0.042361 0.000000 0.000000
# 5 0.000000 0.000000 0.000000 0.000000 0.042361 0.000000
# 6 0.000000 0.000000 0.000000 0.000000 0.000000 0.040079
#
#
# Mechanical properties :
#
#
# Convention : Reuss Voigt Hill
#
# Bulk Modulus (GPa) = 36.53186 40.00429 38.26808
# Shear Modulus (GPa) = 24.15549 24.70913 24.43231
#
# Velocity S-wave (km/s) = 3.50247 3.54238 3.52248
# Velocity P-wave (km/s) = 5.90838 6.08665 5.99818
#
# Compressibility (1/GPa) = 0.02737336
#
# Stress axis : x y z
#
# Youngs Moduli (GPa) = 65.03840 65.03840 51.36455
#
# Poissons Ratio (x) = 0.42824 0.12427
# Poissons Ratio (y) = 0.42824 0.12427
# Poissons Ratio (z) = 0.15735 0.15735
#
# Static dielectric constant tensor:
#      x y z
#    x 1.695490 0.000000 0.000000 
#    y 0.000000 1.695490 0.000000 
#    z 0.000000 0.000000 1.704330 
# 
# From -- ./inp_files/10818.got.cif
#   From: 2010.05.17/outbox.cif.g08.bks.cpg/sg91_6_cif.got.tgz:10818.got - 2010.06.03 19:20:03.
