data_PCOD9547743
_publ_section_title
;
Structure prediction by ZEFSAII (Michael W. Deem and Ramdas Pophale) SiO2 
 PCOD9547743
Probable space group: P 41 2 2
;
_chemical_formula_sum "Si O2"
_cell_formula_units_Z 28
_cell_length_a 7.386264
_cell_length_b 7.386264
_cell_length_c 22.039172
_cell_angle_alpha 90.000000
_cell_angle_beta 90.000000
_cell_angle_gamma 90.000000
_cell_volume 1202.388812
_symmetry_space_group_name_H-M "P 41 2 2"
_symmetry_group_IT_number 91
_symmetry_cell_setting 'tetragonal'
loop_
_space_group_symop_operation_xyz
x,y,z
-y,x,1/4+z
-x,-y,1/2+z
y,-x,3/4+z
x,-y,1/2-z
-x,y,-z
y,x,3/4-z
-y,-x,1/4-z
loop_
_atom_site_type_symbol
_atom_site_label
_atom_site_fract_x
_atom_site_fract_y
_atom_site_fract_z
Si Si1 0.188555 0.042234 0.488275
Si Si2 0.371887 0.500000 0.750000
Si Si3 0.943749 0.538708 0.335210
Si Si4 0.794170 0.586441 0.927966
O O1 0.311610 0.060497 0.548339
O O2 0.333770 0.961786 0.441179
O O3 0.136092 0.230698 0.457968
O O4 0.000000 0.941089 0.500000
O O5 0.483664 0.331847 0.725106
O O6 0.255174 0.424523 0.807921
O O7 0.037483 0.524741 0.400217
O O8 0.657259 0.657259 0.875000
#
# Coordination Sequence:
#
# PCOD9547743 Si02
#       4
#     8   4   8   8
#     4   9  18  35  60  80 112 151 200 245 296 368
#     4  10  20  38  60  86 126 150 202 262 296 384
#     4   9  21  37  57  89 115 156 200 248 311 364
#     4  10  19  35  61  83 114 159 199 244 309 365
#
# _framework density 23.286978000000001
#
# number of rings (size 3 to 8) (size 9 to 14) (size 15 to 20)
#    0.000    2.857    0.000    3.429    4.000    0.000 
#    0.000    5.714    0.000    0.000    0.000    0.000 
#    0.000    0.000    0.000    0.000    0.000    0.000 
#
# Total GULP energy -155894.561179 kJ/mol
# GULP energy per Si atom -5567.662899 kJ/mol
# Density = 2.323398 g / cm^3
# Si number density = 23.286978 Si / 1000 Ang^3
#
#
#
# Elastic Constant Matrix: (Units=GPa)
#
#
# Indices 1 2 3 4 5 6 
#
# 1 69.2736 -1.5222 28.4459 0.0000 0.0000 0.0000
# 2 -1.5222 69.2736 28.4459 0.0000 0.0000 0.0000
# 3 28.4459 28.4459 33.6242 0.0000 0.0000 0.0000
# 4 0.0000 0.0000 0.0000 26.8486 0.0000 0.0000
# 5 0.0000 0.0000 0.0000 0.0000 26.8486 0.0000
# 6 0.0000 0.0000 0.0000 0.0000 0.0000 4.1949
#
#
#
# Elastic Compliance Matrix: (Units=1/GPa)
#
#
# Indices 1 2 3 4 5 6 
#
# 1 0.032545 0.018420 -0.043116 0.000000 0.000000 0.000000
# 2 0.018420 0.032545 -0.043116 0.000000 0.000000 0.000000
# 3 -0.043116 -0.043116 0.102693 0.000000 0.000000 0.000000
# 4 0.000000 0.000000 0.000000 0.037246 0.000000 0.000000
# 5 0.000000 0.000000 0.000000 0.000000 0.037246 0.000000
# 6 0.000000 0.000000 0.000000 0.000000 0.000000 0.238387
#
#
# Mechanical properties :
#
#
# Convention : Reuss Voigt Hill
#
# Bulk Modulus (GPa) = 31.09645 31.43453 31.26549
# Shear Modulus (GPa) = 7.97439 19.36522 13.66980
#
# Velocity S-wave (km/s) = 1.85252 2.88686 2.42547
# Velocity P-wave (km/s) = 4.23773 4.96387 4.61510
#
# Compressibility (1/GPa) = 0.03215801
#
# Stress axis : x y z
#
# Youngs Moduli (GPa) = 30.72648 30.72648 9.73775
#
# Poissons Ratio (x) = -0.56598 0.41986
# Poissons Ratio (y) = -0.56598 0.41986
# Poissons Ratio (z) = 1.32482 1.32482
#
# Static dielectric constant tensor:
#      x y z
#    x 1.932490 0.000000 0.000000 
#    y 0.000000 1.932490 0.000000 
#    z 0.000000 0.000000 2.483450 
# 
# From -- ./inp_files/17416.got.cif
#   From: 2010.05.17/outbox.cif.g08.bks.cpg/sg91_9_cif.got.tgz:17416.got - 2010.06.03 19:20:03.
