data_PCOD9547537
_publ_section_title
;
Structure prediction by ZEFSAII (Michael W. Deem and Ramdas Pophale) SiO2 
 PCOD9547537
Probable space group: P 41 2 2
;
_chemical_formula_sum "Si O2"
_cell_formula_units_Z 44
_cell_length_a 22.960181
_cell_length_b 22.960181
_cell_length_c 5.541461
_cell_angle_alpha 90.000000
_cell_angle_beta 90.000000
_cell_angle_gamma 90.000000
_cell_volume 2921.291505
_symmetry_space_group_name_H-M "P 41 2 2"
_symmetry_group_IT_number 91
_symmetry_cell_setting 'tetragonal'
loop_
_space_group_symop_operation_xyz
x,y,z
-y,x,1/4+z
-x,-y,1/2+z
y,-x,3/4+z
x,-y,1/2-z
-x,y,-z
y,x,3/4-z
-y,-x,1/4-z
loop_
_atom_site_type_symbol
_atom_site_label
_atom_site_fract_x
_atom_site_fract_y
_atom_site_fract_z
Si Si1 0.885234 0.561050 0.506729
Si Si2 0.429417 0.931266 0.253218
Si Si3 0.283781 0.697870 0.371896
Si Si4 0.247585 0.432007 0.102358
Si Si5 0.587437 0.500000 0.250000
Si Si6 0.426319 0.689192 0.349503
O O1 0.900765 0.590761 0.251813
O O2 0.918825 0.499188 0.501115
O O3 0.817056 0.548014 0.537832
O O4 0.904673 0.592999 0.751597
O O5 0.419445 0.000000 0.250000
O O6 0.272137 0.727864 0.625000
O O7 0.248813 0.638129 0.380113
O O8 0.355012 0.685427 0.357454
O O9 0.269916 0.730085 0.125000
O O10 0.271515 0.446252 0.371474
O O11 0.286888 0.442698 0.865419
O O12 0.546407 0.546407 0.375000
O O13 0.628305 0.540088 0.079756
#
# Coordination Sequence:
#
# PCOD9547537 Si02
#       6
#     8   8   8   8   4   8
#     4  10  18  28  44  66  81  97 133 160 172 200
#     4  10  19  31  42  56  87 120 133 144 178 223
#     4   8  15  29  47  59  75  98 116 135 187 252
#     4  10  19  33  52  70  83  96 122 163 193 227
#     4  12  28  42  54  68  80 100 134 168 196 258
#     4  10  22  39  52  64  83 105 121 150 214 265
#
# _framework density 15.061831
#
# number of rings (size 3 to 8) (size 9 to 14) (size 15 to 20)
#    0.000    2.182    0.000    5.455    0.000    8.727 
#    0.000    0.000    0.000    0.000    0.000    0.000 
#    0.000    0.000    0.000    0.000    0.000    0.000 
#
# Total GULP energy -245184.273887 kJ/mol
# GULP energy per Si atom -5572.369861 kJ/mol
# Density = 1.502755 g / cm^3
# Si number density = 15.061831 Si / 1000 Ang^3
#
#
#
# Elastic Constant Matrix: (Units=GPa)
#
#
# Indices 1 2 3 4 5 6 
#
# 1 40.9423 11.4780 18.3805 0.0000 0.0000 0.0000
# 2 11.4780 40.9420 18.3806 0.0000 0.0000 0.0000
# 3 18.3805 18.3806 159.3029 0.0000 0.0000 0.0000
# 4 0.0000 0.0000 0.0000 15.8408 0.0000 0.0000
# 5 0.0000 0.0000 0.0000 0.0000 15.8410 0.0000
# 6 0.0000 0.0000 0.0000 0.0000 0.0000 22.8564
#
#
#
# Elastic Compliance Matrix: (Units=1/GPa)
#
#
# Indices 1 2 3 4 5 6 
#
# 1 0.027348 -0.006592 -0.002395 0.000000 0.000000 0.000000
# 2 -0.006592 0.027348 -0.002395 0.000000 0.000000 0.000000
# 3 -0.002395 -0.002395 0.006830 0.000000 0.000000 0.000000
# 4 0.000000 0.000000 0.000000 0.063128 0.000000 0.000000
# 5 0.000000 0.000000 0.000000 0.000000 0.063127 0.000000
# 6 0.000000 0.000000 0.000000 0.000000 0.000000 0.043751
#
#
# Mechanical properties :
#
#
# Convention : Reuss Voigt Hill
#
# Bulk Modulus (GPa) = 25.79799 37.51839 31.65819
# Shear Modulus (GPa) = 18.71144 23.77086 21.24115
#
# Velocity S-wave (km/s) = 3.52846 3.97699 3.75942
# Velocity P-wave (km/s) = 5.81079 6.78618 6.31734
#
# Compressibility (1/GPa) = 0.03876270
#
# Stress axis : x y z
#
# Youngs Moduli (GPa) = 36.56611 36.56585 146.41305
#
# Poissons Ratio (x) = 0.24103 0.35063
# Poissons Ratio (y) = 0.24103 0.35064
# Poissons Ratio (z) = 0.08757 0.08757
#
# Static dielectric constant tensor:
#      x y z
#    x 1.511940 0.000000 0.000000 
#    y 0.000000 1.511940 0.000000 
#    z 0.000000 0.000000 1.656290 
# 
# From -- ./inp_files/1168.got.cif
#   From: 2010.05.17/outbox.cif.g08.bks.cpg/sg91_1_cif.got.tgz:1168.got - 2010.06.03 19:20:03.
