data_PCOD9547215
_publ_section_title
;
Structure prediction by ZEFSAII (Michael W. Deem and Ramdas Pophale) SiO2 
 PCOD9547215
Probable space group: P 4 21 2
;
_chemical_formula_sum "Si O2"
_cell_formula_units_Z 54
_cell_length_a 14.705425
_cell_length_b 14.705425
_cell_length_c 12.260155
_cell_angle_alpha 90.000000
_cell_angle_beta 90.000000
_cell_angle_gamma 90.000000
_cell_volume 2651.252688
_symmetry_space_group_name_H-M "P 4 21 2"
_symmetry_group_IT_number 90
_symmetry_cell_setting 'tetragonal'
loop_
_space_group_symop_operation_xyz
x,y,z
1/2-y,1/2+x,z
-x,-y,z
1/2+y,1/2-x,z
1/2+x,1/2-y,-z
1/2-x,1/2+y,-z
y,x,-z
-y,-x,-z
loop_
_atom_site_type_symbol
_atom_site_label
_atom_site_fract_x
_atom_site_fract_y
_atom_site_fract_z
Si Si1 0.801028 0.981146 0.896362
Si Si2 0.994263 0.744066 0.870019
Si Si3 0.120710 0.120710 0.500000
Si Si4 0.422454 0.333917 0.414854
Si Si5 0.965712 0.360555 0.677529
Si Si6 0.817469 0.814155 0.737264
Si Si7 0.830125 0.159741 0.795350
Si Si8 0.500000 0.500000 0.000000
O O1 0.774150 0.079978 0.851512
O O2 0.790410 0.902566 0.807665
O O3 0.747285 0.958703 0.007551
O O4 0.908240 0.992263 0.928092
O O5 0.087202 0.803243 0.869675
O O6 0.027623 0.653840 0.807979
O O7 0.914401 0.782455 0.790662
O O8 0.168877 0.157465 0.610750
O O9 0.013807 0.133178 0.526739
O O10 0.341736 0.341736 0.500000
O O11 0.440473 0.233234 0.375160
O O12 0.385730 0.383297 0.306807
O O13 0.064194 0.394469 0.643819
O O14 0.742663 0.734712 0.756813
#
# Coordination Sequence:
#
# PCOD9547215 Si02
#       8
#     8   8   4   8   8   8   8   2
#     4  12  23  40  66  97 137 184 221 287 360 417
#     4  11  20  39  65  96 128 177 222 291 347 414
#     4  12  25  44  66  94 134 187 224 292 354 407
#     4  11  24  40  64  95 129 172 225 286 343 406
#     4  10  22  41  63  92 130 175 227 281 341 412
#     4  12  25  42  65 100 140 182 237 288 352 421
#     4  11  24  41  64  98 139 177 230 284 349 423
#     4  12  20  40  64  98 136 172 216 280 354 420
#
# _framework density 20.367732
#
# number of rings (size 3 to 8) (size 9 to 14) (size 15 to 20)
#    0.000    0.741    5.926    2.889    1.037    3.556 
#    0.000    0.000    0.000    0.444    0.000    0.000 
#    0.000    0.000    0.000    0.000    0.000    0.000 
#
# Total GULP energy -301328.716580 kJ/mol
# GULP energy per Si atom -5580.161418 kJ/mol
# Density = 2.032137 g / cm^3
# Si number density = 20.367732 Si / 1000 Ang^3
#
#
#
# Elastic Constant Matrix: (Units=GPa)
#
#
# Indices 1 2 3 4 5 6 
#
# 1 73.2258 43.6288 43.7040 0.0000 0.0000 0.0000
# 2 43.6288 73.2258 43.7040 0.0000 0.0000 0.0000
# 3 43.7040 43.7040 143.6005 0.0000 0.0000 0.0000
# 4 0.0000 0.0000 0.0000 24.3220 0.0000 0.0000
# 5 0.0000 0.0000 0.0000 0.0000 24.3220 0.0000
# 6 0.0000 0.0000 0.0000 0.0000 0.0000 7.2237
#
#
#
# Elastic Compliance Matrix: (Units=1/GPa)
#
#
# Indices 1 2 3 4 5 6 
#
# 1 0.022434 -0.011354 -0.003372 0.000000 0.000000 0.000000
# 2 -0.011354 0.022434 -0.003372 0.000000 0.000000 0.000000
# 3 -0.003372 -0.003372 0.009016 0.000000 0.000000 0.000000
# 4 0.000000 0.000000 0.000000 0.041115 0.000000 0.000000
# 5 0.000000 0.000000 0.000000 0.000000 0.041115 0.000000
# 6 0.000000 0.000000 0.000000 0.000000 0.000000 0.138433
#
#
# Mechanical properties :
#
#
# Convention : Reuss Voigt Hill
#
# Bulk Modulus (GPa) = 56.53603 61.34728 58.94166
# Shear Modulus (GPa) = 15.79091 21.77458 18.78275
#
# Velocity S-wave (km/s) = 2.78742 3.27321 3.04004
# Velocity P-wave (km/s) = 6.17880 6.66862 6.42838
#
# Compressibility (1/GPa) = 0.01768783
#
# Stress axis : x y z
#
# Youngs Moduli (GPa) = 44.57594 44.57594 110.90967
#
# Poissons Ratio (x) = 0.50610 0.37400
# Poissons Ratio (y) = 0.50610 0.37400
# Poissons Ratio (z) = 0.15032 0.15032
#
# Static dielectric constant tensor:
#      x y z
#    x 1.739790 0.000000 0.000000 
#    y 0.000000 1.739790 0.000000 
#    z 0.000000 0.000000 1.781600 
# 
# From -- ./inp_files/2291.got.cif
#   From: 2010.05.17/outbox.cif.g08.bks.cpg/sg90_2_cif.got.tgz:2291.got - 2010.06.03 19:17:45.
