data_PCOD9547555
_publ_section_title
;
Structure prediction by ZEFSAII (Michael W. Deem and Ramdas Pophale) SiO2 
 PCOD9547555
Probable space group: P 41 2 2
;
_chemical_formula_sum "Si O2"
_cell_formula_units_Z 40
_cell_length_a 11.925666
_cell_length_b 11.925666
_cell_length_c 13.927535
_cell_angle_alpha 90.000000
_cell_angle_beta 90.000000
_cell_angle_gamma 90.000000
_cell_volume 1980.795052
_symmetry_space_group_name_H-M "P 41 2 2"
_symmetry_group_IT_number 91
_symmetry_cell_setting 'tetragonal'
loop_
_space_group_symop_operation_xyz
x,y,z
-y,x,1/4+z
-x,-y,1/2+z
y,-x,3/4+z
x,-y,1/2-z
-x,y,-z
y,x,3/4-z
-y,-x,1/4-z
loop_
_atom_site_type_symbol
_atom_site_label
_atom_site_fract_x
_atom_site_fract_y
_atom_site_fract_z
Si Si1 0.237485 0.163693 0.535482
Si Si2 0.677164 0.677164 0.875000
Si Si3 0.000000 0.277009 0.500000
Si Si4 0.496012 0.367169 0.228879
Si Si5 0.662425 0.721559 0.558304
Si Si6 0.621451 0.021430 0.960666
O O1 0.309709 0.230886 0.456429
O O2 0.110065 0.198633 0.509728
O O3 0.265829 0.219132 0.637154
O O4 0.278585 0.038110 0.520073
O O5 0.559788 0.690211 0.821561
O O6 0.997699 0.351981 0.597253
O O7 0.480997 0.500000 0.250000
O O8 0.427151 0.324405 0.137567
O O9 0.625747 0.337533 0.229186
O O10 0.627859 0.844823 0.526722
O O11 0.500000 0.982920 0.000000
#
# Coordination Sequence:
#
# PCOD9547555 Si02
#       6
#     8   4   4   8   8   8
#     4  10  21  35  60  85 114 150 204 254 299 345
#     4  10  18  30  52  86 106 140 190 234 288 336
#     4  10  20  42  58  90 118 158 204 260 298 352
#     4  11  19  34  55  84 120 157 192 236 298 370
#     4  10  23  35  58  86 119 158 199 245 303 364
#     4  11  23  37  60  90 123 156 197 253 314 353
#
# _framework density 20.193909999999999
#
# number of rings (size 3 to 8) (size 9 to 14) (size 15 to 20)
#    0.000    1.600    4.000    0.600    2.800    0.000 
#    0.000    0.000    0.000    9.600    0.000    1.400 
#    0.000    0.000    0.000    0.000    0.000    0.000 
#
# Total GULP energy -223303.401895 kJ/mol
# GULP energy per Si atom -5582.585047 kJ/mol
# Density = 2.014795 g / cm^3
# Si number density = 20.193910 Si / 1000 Ang^3
#
#
#
# Elastic Constant Matrix: (Units=GPa)
#
#
# Indices 1 2 3 4 5 6 
#
# 1 116.3722 54.3439 35.6667 0.0000 0.0000 0.0000
# 2 54.3439 116.3722 35.6667 0.0000 0.0000 0.0000
# 3 35.6667 35.6667 63.5985 0.0000 0.0000 0.0000
# 4 0.0000 0.0000 0.0000 18.3577 0.0000 0.0000
# 5 0.0000 0.0000 0.0000 0.0000 18.3577 0.0000
# 6 0.0000 0.0000 0.0000 0.0000 0.0000 13.6417
#
#
#
# Elastic Compliance Matrix: (Units=1/GPa)
#
#
# Indices 1 2 3 4 5 6 
#
# 1 0.011886 -0.004236 -0.004290 0.000000 0.000000 0.000000
# 2 -0.004236 0.011886 -0.004290 0.000000 0.000000 0.000000
# 3 -0.004290 -0.004290 0.020536 0.000000 0.000000 0.000000
# 4 0.000000 0.000000 0.000000 0.054473 0.000000 0.000000
# 5 0.000000 0.000000 0.000000 0.000000 0.054473 0.000000
# 6 0.000000 0.000000 0.000000 0.000000 0.000000 0.073305
#
#
# Mechanical properties :
#
#
# Convention : Reuss Voigt Hill
#
# Bulk Modulus (GPa) = 53.54756 60.85527 57.20142
# Shear Modulus (GPa) = 19.34859 21.44912 20.39885
#
# Velocity S-wave (km/s) = 3.09874 3.26261 3.18173
# Velocity P-wave (km/s) = 6.27512 6.66286 6.47190
#
# Compressibility (1/GPa) = 0.01867499
#
# Stress axis : x y z
#
# Youngs Moduli (GPa) = 84.13220 84.13220 48.69522
#
# Poissons Ratio (x) = 0.35635 0.20892
# Poissons Ratio (y) = 0.35635 0.20892
# Poissons Ratio (z) = 0.36096 0.36096
#
# Static dielectric constant tensor:
#      x y z
#    x 1.753330 0.000000 0.000000 
#    y 0.000000 1.753330 0.000000 
#    z 0.000000 0.000000 1.736970 
# 
# From -- ./inp_files/20672.got.cif
#   From: 2010.05.17/outbox.cif.g08.bks.cpg/sg91_11_cif.got.tgz:20672.got - 2010.06.03 19:20:03.
