data_PCOD9547772
_publ_section_title
;
Structure prediction by ZEFSAII (Michael W. Deem and Ramdas Pophale) SiO2 
 PCOD9547772
Probable space group: P 41 2 2
;
_chemical_formula_sum "Si O2"
_cell_formula_units_Z 56
_cell_length_a 16.154843
_cell_length_b 16.154843
_cell_length_c 9.765546
_cell_angle_alpha 90.000000
_cell_angle_beta 90.000000
_cell_angle_gamma 90.000000
_cell_volume 2548.601964
_symmetry_space_group_name_H-M "P 41 2 2"
_symmetry_group_IT_number 91
_symmetry_cell_setting 'tetragonal'
loop_
_space_group_symop_operation_xyz
x,y,z
-y,x,1/4+z
-x,-y,1/2+z
y,-x,3/4+z
x,-y,1/2-z
-x,y,-z
y,x,3/4-z
-y,-x,1/4-z
loop_
_atom_site_type_symbol
_atom_site_label
_atom_site_fract_x
_atom_site_fract_y
_atom_site_fract_z
Si Si1 0.657934 0.816287 0.998243
Si Si2 0.333546 0.134143 0.026383
Si Si3 0.072228 0.816919 0.216504
Si Si4 0.244766 0.636337 0.536218
Si Si5 0.846112 0.880656 0.532467
Si Si6 0.577886 0.031081 0.565245
Si Si7 0.449290 0.813250 0.248686
O O1 0.598485 0.893797 0.039870
O O2 0.608638 0.775297 0.871818
O O3 0.735430 0.870577 0.944149
O O4 0.667532 0.759677 0.129656
O O5 0.338137 0.161180 0.868614
O O6 0.242085 0.157839 0.072337
O O7 0.401502 0.185298 0.108738
O O8 0.350978 0.037534 0.059332
O O9 0.084605 0.840431 0.374679
O O10 0.976149 0.827475 0.187373
O O11 0.114756 0.885245 0.125000
O O12 0.319335 0.680666 0.625000
O O13 0.232809 0.536509 0.518371
O O14 0.865947 0.865947 0.375000
O O15 0.500000 0.985366 0.500000
O O16 0.556223 0.087828 0.698681
#
# Coordination Sequence:
#
# PCOD9547772 Si02
#       7
#     8   8   8   8   8   8   8
#     4  10  21  42  63  89 129 176 232 287 349 424
#     4  12  23  38  63  97 129 170 227 301 352 418
#     4  12  25  42  65  89 124 178 240 296 340 396
#     4  12  24  40  60  94 139 179 218 272 350 436
#     4  12  26  44  61  90 132 180 232 288 350 409
#     4  10  19  37  64  90 126 166 227 283 361 432
#     4  10  21  40  63  91 128 167 223 278 348 419
#
# _framework density 21.972829999999998
#
# number of rings (size 3 to 8) (size 9 to 14) (size 15 to 20)
#    0.857    0.000    2.857    6.000    0.000    3.429 
#    0.000    0.000    0.000    0.000    0.000    0.000 
#    0.000   44.571    0.000    0.000    0.000    0.429 
#
# Total GULP energy -311835.416231 kJ/mol
# GULP energy per Si atom -5568.489576 kJ/mol
# Density = 2.192282 g / cm^3
# Si number density = 21.972830 Si / 1000 Ang^3
#
#
#
# Elastic Constant Matrix: (Units=GPa)
#
#
# Indices 1 2 3 4 5 6 
#
# 1 68.0250 9.5266 0.5101 0.0000 0.0000 0.0000
# 2 9.5266 68.0298 0.5163 0.0000 0.0000 0.0000
# 3 0.5101 0.5163 61.2468 0.0000 0.0000 0.0000
# 4 0.0000 0.0000 0.0000 28.4787 0.0000 0.0000
# 5 0.0000 0.0000 0.0000 0.0000 28.4792 0.0000
# 6 0.0000 0.0000 0.0000 0.0000 0.0000 26.9238
#
#
#
# Elastic Compliance Matrix: (Units=1/GPa)
#
#
# Indices 1 2 3 4 5 6 
#
# 1 0.014995 -0.002099 -0.000107 0.000000 0.000000 0.000000
# 2 -0.002099 0.014994 -0.000109 0.000000 0.000000 0.000000
# 3 -0.000107 -0.000109 0.016329 0.000000 0.000000 0.000000
# 4 0.000000 0.000000 0.000000 0.035114 0.000000 0.000000
# 5 0.000000 0.000000 0.000000 0.000000 0.035113 0.000000
# 6 0.000000 0.000000 0.000000 0.000000 0.000000 0.037142
#
#
# Mechanical properties :
#
#
# Convention : Reuss Voigt Hill
#
# Bulk Modulus (GPa) = 23.98755 24.26752 24.12754
# Shear Modulus (GPa) = 29.03357 29.22622 29.12989
#
# Velocity S-wave (km/s) = 3.63897 3.65102 3.64500
# Velocity P-wave (km/s) = 5.34759 5.37043 5.35902
#
# Compressibility (1/GPa) = 0.04168829
#
# Stress axis : x y z
#
# Youngs Moduli (GPa) = 66.68776 66.69236 61.24004
#
# Poissons Ratio (x) = 0.13999 0.00657
# Poissons Ratio (y) = 0.13998 0.00667
# Poissons Ratio (z) = 0.00715 0.00726
#
# Static dielectric constant tensor:
#      x y z
#    x 1.995520 0.000000 0.000000 
#    y 0.000000 1.995480 0.000000 
#    z 0.000000 0.000000 1.939250 
# 
# From -- ./inp_files/15974.got.cif
#   From: 2010.05.17/outbox.cif.g08.bks.cpg/sg91_8_cif.got.tgz:15974.got - 2010.06.03 19:20:03.
