data_PCOD9547486
_publ_section_title
;
Structure prediction by ZEFSAII (Michael W. Deem and Ramdas Pophale) SiO2 
 PCOD9547486
Probable space group: P 41 2 2
;
_chemical_formula_sum "Si O2"
_cell_formula_units_Z 40
_cell_length_a 15.421043
_cell_length_b 15.421043
_cell_length_c 7.288506
_cell_angle_alpha 90.000000
_cell_angle_beta 90.000000
_cell_angle_gamma 90.000000
_cell_volume 1733.269169
_symmetry_space_group_name_H-M "P 41 2 2"
_symmetry_group_IT_number 91
_symmetry_cell_setting 'tetragonal'
loop_
_space_group_symop_operation_xyz
x,y,z
-y,x,1/4+z
-x,-y,1/2+z
y,-x,3/4+z
x,-y,1/2-z
-x,y,-z
y,x,3/4-z
-y,-x,1/4-z
loop_
_atom_site_type_symbol
_atom_site_label
_atom_site_fract_x
_atom_site_fract_y
_atom_site_fract_z
Si Si1 0.089696 0.568325 0.411157
Si Si2 0.781509 0.128417 0.890903
Si Si3 0.293574 0.663502 0.910996
Si Si4 0.731522 0.472374 0.966376
Si Si5 0.061893 0.761850 0.275098
O O1 0.099479 0.500000 0.250000
O O2 0.172606 0.551997 0.533668
O O3 0.086650 0.666677 0.344517
O O4 0.000000 0.547261 0.500000
O O5 0.712983 0.207737 0.915288
O O6 0.878502 0.168833 0.883343
O O7 0.766207 0.093252 0.685172
O O8 0.772177 0.042782 0.018199
O O9 0.379876 0.685274 0.797247
O O10 0.303234 0.696767 0.125000
O O11 0.292981 0.559343 0.927337
O O12 0.728419 0.500000 0.750000
#
# Coordination Sequence:
#
# PCOD9547486 Si02
#       5
#     8   8   8   8   8
#     4  11  23  37  58  95 129 160 207 264 323 383
#     4  10  18  34  63  87 121 158 217 261 316 374
#     4  10  16  31  54  91 114 153 203 263 310 372
#     4   9  18  31  56  88 118 152 206 253 307 371
#     4  10  20  35  60  87 121 165 209 264 313 388
#
# _framework density 23.077779
#
# number of rings (size 3 to 8) (size 9 to 14) (size 15 to 20)
#    0.000    2.000    4.000    2.400    5.600    0.000 
#    0.000    1.000   17.600    0.000   46.800    0.000 
#    0.000    0.000    0.000    0.000    0.000    0.000 
#
# Total GULP energy -223391.268464 kJ/mol
# GULP energy per Si atom -5584.781712 kJ/mol
# Density = 2.302525 g / cm^3
# Si number density = 23.077779 Si / 1000 Ang^3
#
#
#
# Elastic Constant Matrix: (Units=GPa)
#
#
# Indices 1 2 3 4 5 6 
#
# 1 201.9945 110.8600 23.9408 0.0000 0.0000 0.0000
# 2 110.8600 201.9945 23.9410 0.0000 0.0000 0.0000
# 3 23.9408 23.9410 27.9590 0.0000 0.0000 0.0000
# 4 0.0000 0.0000 0.0000 35.2521 0.0000 0.0000
# 5 0.0000 0.0000 0.0000 0.0000 35.2517 0.0000
# 6 0.0000 0.0000 0.0000 0.0000 0.0000 -23.5631
#
#
#
# Elastic Compliance Matrix: (Units=1/GPa)
#
#
# Indices 1 2 3 4 5 6 
#
# 1 0.007326 -0.003647 -0.003150 0.000000 0.000000 0.000000
# 2 -0.003647 0.007326 -0.003150 0.000000 0.000000 0.000000
# 3 -0.003150 -0.003150 0.041161 0.000000 0.000000 0.000000
# 4 0.000000 0.000000 0.000000 0.028367 0.000000 0.000000
# 5 0.000000 0.000000 0.000000 0.000000 0.028367 0.000000
# 6 0.000000 0.000000 0.000000 0.000000 0.000000 -0.042439
#
#
# Mechanical properties :
#
#
# Convention : Reuss Voigt Hill
#
# Bulk Modulus (GPa) = 27.84077 83.27018 55.55548
# Shear Modulus (GPa) = 49.03228 27.60191 38.31709
#
# Velocity S-wave (km/s) = 4.61440 3.46213 4.07915
# Velocity P-wave (km/s) = 6.36241 7.22098 6.80525
#
# Compressibility (1/GPa) = 0.03591855
#
# Stress axis : x y z
#
# Youngs Moduli (GPa) = 136.50735 136.50709 24.29494
#
# Poissons Ratio (x) = 0.49787 0.07652
# Poissons Ratio (y) = 0.49787 0.07653
# Poissons Ratio (z) = 0.42996 0.42997
#
# Static dielectric constant tensor:
#      x y z
#    x 1.898040 0.000000 0.000000 
#    y 0.000000 1.898050 0.000000 
#    z 0.000000 0.000000 1.917330 
# 
# From -- ./inp_files/2401.got.cif
#   From: 2010.05.17/outbox.cif.g08.bks.cpg/sg91_2_cif.got.tgz:2401.got - 2010.06.03 19:20:03.
