data_PCOD9547272
_publ_section_title
;
Structure prediction by ZEFSAII (Michael W. Deem and Ramdas Pophale) SiO2 
 PCOD9547272
Probable space group: P 4 21 2
;
_chemical_formula_sum "Si O2"
_cell_formula_units_Z 56
_cell_length_a 14.942154
_cell_length_b 14.942154
_cell_length_c 12.343134
_cell_angle_alpha 90.000000
_cell_angle_beta 90.000000
_cell_angle_gamma 90.000000
_cell_volume 2755.826424
_symmetry_space_group_name_H-M "P 4 21 2"
_symmetry_group_IT_number 90
_symmetry_cell_setting 'tetragonal'
loop_
_space_group_symop_operation_xyz
x,y,z
1/2-y,1/2+x,z
-x,-y,z
1/2+y,1/2-x,z
1/2+x,1/2-y,-z
1/2-x,1/2+y,-z
y,x,-z
-y,-x,-z
loop_
_atom_site_type_symbol
_atom_site_label
_atom_site_fract_x
_atom_site_fract_y
_atom_site_fract_z
Si Si1 0.352045 0.189107 0.130143
Si Si2 0.126057 0.137389 0.369626
Si Si3 0.275056 0.803086 0.736957
Si Si4 0.517699 0.855114 0.491640
Si Si5 0.978682 0.720593 0.738651
Si Si6 0.619277 0.090254 0.901269
Si Si7 0.932743 0.165893 0.404299
O O1 0.268557 0.249686 0.163089
O O2 0.439933 0.234768 0.180200
O O3 0.333309 0.096994 0.195475
O O4 0.368859 0.168485 0.005489
O O5 0.131511 0.131511 0.500000
O O6 0.168555 0.231927 0.332549
O O7 0.189318 0.064186 0.312062
O O8 0.020577 0.128830 0.343673
O O9 0.337387 0.877843 0.789451
O O10 0.195562 0.848687 0.668467
O O11 0.424336 0.903364 0.519418
O O12 0.513584 0.836426 0.363369
O O13 0.533784 0.760350 0.546441
O O14 0.516606 0.120784 0.906946
O O15 0.898932 0.101068 0.500000
#
# Coordination Sequence:
#
# PCOD9547272 Si02
#       7
#     8   8   8   8   8   8   8
#     4  11  22  40  66  96 130 168 217 274 331 390
#     4  11  24  42  64  92 138 177 223 270 323 402
#     4  11  25  42  66  95 134 178 215 268 335 400
#     4  11  22  36  60  92 127 164 214 274 333 388
#     4  11  21  37  64  98 127 166 218 280 329 376
#     4  11  23  42  71 100 130 163 214 279 338 395
#     4  12  25  42  64  90 133 182 227 265 321 395
#
# _framework density 20.320582000000002
#
# number of rings (size 3 to 8) (size 9 to 14) (size 15 to 20)
#    0.000    0.857    4.286    3.429    2.000    0.571 
#    0.000    1.429    0.000    0.000    0.000    2.000 
#    0.000    0.000    0.000    0.000    0.000    0.000 
#
# Total GULP energy -313171.497556 kJ/mol
# GULP energy per Si atom -5592.348171 kJ/mol
# Density = 2.027433 g / cm^3
# Si number density = 20.320582 Si / 1000 Ang^3
#
#
#
# Elastic Constant Matrix: (Units=GPa)
#
#
# Indices 1 2 3 4 5 6 
#
# 1 60.9500 50.6218 11.4260 0.0000 0.0000 0.0000
# 2 50.6218 60.9500 11.4260 0.0000 0.0000 0.0000
# 3 11.4260 11.4260 41.4208 0.0000 0.0000 0.0000
# 4 0.0000 0.0000 0.0000 32.2973 0.0000 0.0000
# 5 0.0000 0.0000 0.0000 0.0000 32.2973 0.0000
# 6 0.0000 0.0000 0.0000 0.0000 0.0000 12.9404
#
#
#
# Elastic Compliance Matrix: (Units=1/GPa)
#
#
# Indices 1 2 3 4 5 6 
#
# 1 0.053161 -0.043661 -0.002620 0.000000 0.000000 0.000000
# 2 -0.043661 0.053161 -0.002620 0.000000 0.000000 0.000000
# 3 -0.002620 -0.002620 0.025588 0.000000 0.000000 0.000000
# 4 0.000000 0.000000 0.000000 0.030962 0.000000 0.000000
# 5 0.000000 0.000000 0.000000 0.000000 0.030962 0.000000
# 6 0.000000 0.000000 0.000000 0.000000 0.000000 0.077277
#
#
# Mechanical properties :
#
#
# Convention : Reuss Voigt Hill
#
# Bulk Modulus (GPa) = 29.32085 34.47428 31.89757
# Shear Modulus (GPa) = 13.14807 21.49679 17.32243
#
# Velocity S-wave (km/s) = 2.54644 3.25604 2.92285
# Velocity P-wave (km/s) = 4.80690 5.58012 5.20788
#
# Compressibility (1/GPa) = 0.03410542
#
# Stress axis : x y z
#
# Youngs Moduli (GPa) = 18.81093 18.81093 39.08049
#
# Poissons Ratio (x) = 0.82130 0.10241
# Poissons Ratio (y) = 0.82130 0.10241
# Poissons Ratio (z) = 0.04929 0.04929
#
# Static dielectric constant tensor:
#      x y z
#    x 1.736000 0.000000 0.000000 
#    y 0.000000 1.736000 0.000000 
#    z 0.000000 0.000000 1.690560 
# 
# From -- ./inp_files/2228.got.cif
#   From: 2010.05.17/outbox.cif.g08.bks.cpg/sg90_2_cif.got.tgz:2228.got - 2010.06.03 19:17:45.
