data_PCOD9547448
_publ_section_title
;
Structure prediction by ZEFSAII (Michael W. Deem and Ramdas Pophale) SiO2 
 PCOD9547448
Probable space group: P 4 21 2
;
_chemical_formula_sum "Si O2"
_cell_formula_units_Z 48
_cell_length_a 10.128268
_cell_length_b 10.128268
_cell_length_c 25.497200
_cell_angle_alpha 90.000000
_cell_angle_beta 90.000000
_cell_angle_gamma 90.000000
_cell_volume 2615.548994
_symmetry_space_group_name_H-M "P 4 21 2"
_symmetry_group_IT_number 90
_symmetry_cell_setting 'tetragonal'
loop_
_space_group_symop_operation_xyz
x,y,z
1/2-y,1/2+x,z
-x,-y,z
1/2+y,1/2-x,z
1/2+x,1/2-y,-z
1/2-x,1/2+y,-z
y,x,-z
-y,-x,-z
loop_
_atom_site_type_symbol
_atom_site_label
_atom_site_fract_x
_atom_site_fract_y
_atom_site_fract_z
Si Si1 0.188688 0.378161 0.730352
Si Si2 0.102523 0.904850 0.352375
Si Si3 0.001373 0.722357 0.554914
Si Si4 0.496268 0.220576 0.560788
Si Si5 0.136835 0.680792 0.963198
Si Si6 0.817788 0.627641 0.845373
O O1 0.174712 0.538596 0.725225
O O2 0.291162 0.338808 0.685662
O O3 0.239441 0.337451 0.788405
O O4 0.181257 0.987744 0.396539
O O5 0.018930 0.805875 0.387862
O O6 0.000000 0.000000 0.322805
O O7 0.128072 0.625567 0.558486
O O8 0.002935 0.784829 0.496950
O O9 0.624415 0.129706 0.561586
O O10 0.179079 0.524705 0.969627
O O11 0.165234 0.729114 0.903249
O O12 0.221529 0.778472 0.000000
O O13 0.824323 0.469049 0.844407
#
# Coordination Sequence:
#
# PCOD9547448 Si02
#       6
#     8   8   8   8   8   8
#     4   9  18  34  57  77  98 130 171 218 265 295
#     4  12  24  31  49  79 102 119 155 207 254 303
#     4   9  19  37  56  72  91 118 156 203 255 301
#     4   9  21  39  53  65  91 132 162 187 240 315
#     4   9  17  30  53  83 118 151 190 234 280 332
#     4   7  12  27  52  77  99 134 176 215 258 302
#
# _framework density 18.351787000000002
#
# number of rings (size 3 to 8) (size 9 to 14) (size 15 to 20)
#    0.000    2.833    0.000    4.500    4.667    3.000 
#    0.000    0.000   11.000    0.000    0.000    2.333 
#    0.000    0.000    0.000    0.000    0.000    0.000 
#
# Total GULP energy -267247.563745 kJ/mol
# GULP energy per Si atom -5567.657578 kJ/mol
# Density = 1.831002 g / cm^3
# Si number density = 18.351787 Si / 1000 Ang^3
#
#
#
# Elastic Constant Matrix: (Units=GPa)
#
#
# Indices 1 2 3 4 5 6 
#
# 1 44.9629 22.5140 25.6944 0.0000 0.0000 0.0000
# 2 22.5140 44.9626 25.6945 0.0000 0.0000 0.0000
# 3 25.6944 25.6945 126.8116 0.0000 0.0000 0.0000
# 4 0.0000 0.0000 0.0000 30.5552 0.0000 0.0000
# 5 0.0000 0.0000 0.0000 0.0000 30.5551 0.0000
# 6 0.0000 0.0000 0.0000 0.0000 0.0000 26.6956
#
#
#
# Elastic Compliance Matrix: (Units=1/GPa)
#
#
# Indices 1 2 3 4 5 6 
#
# 1 0.031035 -0.013511 -0.003551 0.000000 0.000000 0.000000
# 2 -0.013511 0.031035 -0.003551 0.000000 0.000000 0.000000
# 3 -0.003551 -0.003551 0.009325 0.000000 0.000000 0.000000
# 4 0.000000 0.000000 0.000000 0.032728 0.000000 0.000000
# 5 0.000000 0.000000 0.000000 0.000000 0.032728 0.000000
# 6 0.000000 0.000000 0.000000 0.000000 0.000000 0.037459
#
#
# Mechanical properties :
#
#
# Convention : Reuss Voigt Hill
#
# Bulk Modulus (GPa) = 33.14565 40.50478 36.82521
# Shear Modulus (GPa) = 22.16400 27.08343 24.62372
#
# Velocity S-wave (km/s) = 3.47901 3.84577 3.66698
# Velocity P-wave (km/s) = 5.85137 6.46832 6.16756
#
# Compressibility (1/GPa) = 0.03016988
#
# Stress axis : x y z
#
# Youngs Moduli (GPa) = 32.22176 32.22151 107.24324
#
# Poissons Ratio (x) = 0.43534 0.38078
# Poissons Ratio (y) = 0.43535 0.38079
# Poissons Ratio (z) = 0.11441 0.11441
#
# Static dielectric constant tensor:
#      x y z
#    x 1.650860 0.000000 0.000000 
#    y 0.000000 1.650860 0.000000 
#    z 0.000000 0.000000 1.667240 
# 
# From -- ./inp_files/2938.got.cif
#   From: 2010.05.17/outbox.cif.g08.bks.cpg/sg90_2_cif.got.tgz:2938.got - 2010.06.03 19:17:45.
