data_PCOD9547645
_publ_section_title
;
Structure prediction by ZEFSAII (Michael W. Deem and Ramdas Pophale) SiO2 
 PCOD9547645
Probable space group: P 41 2 2
;
_chemical_formula_sum "Si O2"
_cell_formula_units_Z 48
_cell_length_a 11.683156
_cell_length_b 11.683156
_cell_length_c 18.814545
_cell_angle_alpha 90.000000
_cell_angle_beta 90.000000
_cell_angle_gamma 90.000000
_cell_volume 2568.112658
_symmetry_space_group_name_H-M "P 41 2 2"
_symmetry_group_IT_number 91
_symmetry_cell_setting 'tetragonal'
loop_
_space_group_symop_operation_xyz
x,y,z
-y,x,1/4+z
-x,-y,1/2+z
y,-x,3/4+z
x,-y,1/2-z
-x,y,-z
y,x,3/4-z
-y,-x,1/4-z
loop_
_atom_site_type_symbol
_atom_site_label
_atom_site_fract_x
_atom_site_fract_y
_atom_site_fract_z
Si Si1 0.386580 0.137058 0.733450
Si Si2 0.025176 0.383036 0.708103
Si Si3 0.728582 0.812564 0.441783
Si Si4 0.482160 0.773412 0.366623
Si Si5 0.352004 0.771348 0.062980
Si Si6 0.720546 0.392378 0.843610
O O1 0.275533 0.208917 0.757027
O O2 0.483096 0.190132 0.786452
O O3 0.395694 0.176360 0.651677
O O4 0.379964 0.000000 0.750000
O O5 0.002537 0.500000 0.750000
O O6 0.072102 0.294974 0.766391
O O7 0.125507 0.409756 0.652894
O O8 0.906431 0.353217 0.674308
O O9 0.813006 0.813006 0.375000
O O10 0.603270 0.769885 0.411214
O O11 0.399428 0.663117 0.369752
O O12 0.275487 0.724514 0.125000
O O13 0.474706 0.711210 0.074444
O O14 0.326155 0.752521 0.979325
#
# Coordination Sequence:
#
# PCOD9547645 Si02
#       6
#     8   8   8   8   8   8
#     4  11  22  36  60  93 126 157 209 262 313 374
#     4  10  18  39  65  85 120 164 210 256 316 382
#     4   9  20  35  61  94 117 157 202 261 322 370
#     4  10  21  37  63  90 119 159 205 253 318 381
#     4  11  24  39  60  87 126 172 208 246 317 392
#     4  11  22  39  58  91 127 162 205 262 312 376
#
# _framework density 18.690767000000001
#
# number of rings (size 3 to 8) (size 9 to 14) (size 15 to 20)
#    0.000    1.667    3.333    2.000    4.667    2.000 
#    0.000    0.000    0.000    5.000    0.000    0.000 
#    0.000    0.000    0.000    0.000    0.000    0.000 
#
# Total GULP energy -267272.847774 kJ/mol
# GULP energy per Si atom -5568.184329 kJ/mol
# Density = 1.864823 g / cm^3
# Si number density = 18.690767 Si / 1000 Ang^3
#
#
#
# Elastic Constant Matrix: (Units=GPa)
#
#
# Indices 1 2 3 4 5 6 
#
# 1 83.0154 58.7243 37.7843 0.0000 0.0000 0.0000
# 2 58.7243 83.0167 37.7831 0.0000 0.0000 0.0000
# 3 37.7843 37.7831 114.6214 0.0000 0.0000 0.0000
# 4 0.0000 0.0000 0.0000 27.9478 0.0000 0.0000
# 5 0.0000 0.0000 0.0000 0.0000 27.9481 0.0000
# 6 0.0000 0.0000 0.0000 0.0000 0.0000 -0.6767
#
#
#
# Elastic Compliance Matrix: (Units=1/GPa)
#
#
# Indices 1 2 3 4 5 6 
#
# 1 0.024863 -0.016303 -0.002822 0.000000 0.000000 0.000000
# 2 -0.016303 0.024862 -0.002821 0.000000 0.000000 0.000000
# 3 -0.002822 -0.002821 0.010585 0.000000 0.000000 0.000000
# 4 0.000000 0.000000 0.000000 0.035781 0.000000 0.000000
# 5 0.000000 0.000000 0.000000 0.000000 0.035781 0.000000
# 6 0.000000 0.000000 0.000000 0.000000 0.000000 -1.477757
#
#
# Mechanical properties :
#
#
# Convention : Reuss Voigt Hill
#
# Bulk Modulus (GPa) = 60.91136 61.02632 60.96884
# Shear Modulus (GPa) = -3.85648 20.80129 8.47241
#
# Velocity S-wave (km/s) = -1.43798 3.33966 2.13138
# Velocity P-wave (km/s) = 5.46834 6.89873 6.22476
#
# Compressibility (1/GPa) = 0.01641730
#
# Stress axis : x y z
#
# Youngs Moduli (GPa) = 40.22011 40.22128 94.47742
#
# Poissons Ratio (x) = 0.65574 0.26660
# Poissons Ratio (y) = 0.65572 0.26654
# Poissons Ratio (z) = 0.11350 0.11347
#
# Static dielectric constant tensor:
#      x y z
#    x 1.665030 0.000000 0.000000 
#    y 0.000000 1.665030 0.000000 
#    z 0.000000 0.000000 1.794110 
# 
# From -- ./inp_files/11946.got.cif
#   From: 2010.05.17/outbox.cif.g08.bks.cpg/sg91_6_cif.got.tgz:11946.got - 2010.06.03 19:20:03.
