data_PCOD9547342
_publ_section_title
;
Structure prediction by ZEFSAII (Michael W. Deem and Ramdas Pophale) SiO2 
 PCOD9547342
Probable space group: P 4 21 2
;
_chemical_formula_sum "Si O2"
_cell_formula_units_Z 44
_cell_length_a 8.139260
_cell_length_b 8.139260
_cell_length_c 30.689841
_cell_angle_alpha 90.000000
_cell_angle_beta 90.000000
_cell_angle_gamma 90.000000
_cell_volume 2033.126879
_symmetry_space_group_name_H-M "P 4 21 2"
_symmetry_group_IT_number 90
_symmetry_cell_setting 'tetragonal'
loop_
_space_group_symop_operation_xyz
x,y,z
1/2-y,1/2+x,z
-x,-y,z
1/2+y,1/2-x,z
1/2+x,1/2-y,-z
1/2-x,1/2+y,-z
y,x,-z
-y,-x,-z
loop_
_atom_site_type_symbol
_atom_site_label
_atom_site_fract_x
_atom_site_fract_y
_atom_site_fract_z
Si Si1 0.500000 0.500000 0.708027
Si Si2 0.092619 0.761266 0.777462
Si Si3 0.585548 0.263089 0.541347
Si Si4 0.263914 0.419998 0.041386
Si Si5 0.237366 0.090808 0.637923
Si Si6 0.092325 0.761847 0.875264
O O1 0.606222 0.615405 0.739876
O O2 0.385912 0.607073 0.676055
O O3 0.201047 0.597082 0.773736
O O4 0.117497 0.828557 0.826370
O O5 0.399879 0.198342 0.539298
O O6 0.628805 0.371196 0.500000
O O7 0.615044 0.335916 0.589477
O O8 0.197143 0.603869 0.039632
O O9 0.355425 0.380786 0.086300
O O10 0.372605 0.372605 0.000000
O O11 0.401382 0.200279 0.641213
O O12 0.200599 0.595259 0.879144
#
# Coordination Sequence:
#
# PCOD9547342 Si02
#       6
#     4   8   8   8   8   8
#     4  12  20  32  59  84 103 144 192 224 268 332
#     4   9  20  37  55  80 112 142 180 232 279 321
#     4   9  19  35  54  77 107 141 178 221 268 321
#     4  11  24  39  57  85 117 146 181 223 266 319
#     4   9  20  37  53  77 114 147 178 223 276 327
#     4   9  19  37  59  81 109 145 182 222 271 323
#
# _framework density 21.641539000000002
#
# number of rings (size 3 to 8) (size 9 to 14) (size 15 to 20)
#    0.000    2.364    0.000    4.364    0.000   10.182 
#    0.000    0.000    0.000    4.364    0.000    0.000 
#    0.000    0.000    0.000    0.000    0.000    0.000 
#
# Total GULP energy -246062.930624 kJ/mol
# GULP energy per Si atom -5592.339332 kJ/mol
# Density = 2.159228 g / cm^3
# Si number density = 21.641539 Si / 1000 Ang^3
#
#
#
# Elastic Constant Matrix: (Units=GPa)
#
#
# Indices 1 2 3 4 5 6 
#
# 1 48.6744 22.7623 51.3536 0.0000 0.0000 0.0000
# 2 22.7623 48.6741 51.3534 0.0000 0.0000 0.0000
# 3 51.3536 51.3534 202.6530 0.0000 0.0000 0.0000
# 4 0.0000 0.0000 0.0000 45.4484 0.0000 0.0000
# 5 0.0000 0.0000 0.0000 0.0000 45.4483 0.0000
# 6 0.0000 0.0000 0.0000 0.0000 0.0000 29.5683
#
#
#
# Elastic Compliance Matrix: (Units=1/GPa)
#
#
# Indices 1 2 3 4 5 6 
#
# 1 0.030307 -0.008285 -0.005580 0.000000 0.000000 0.000000
# 2 -0.008285 0.030307 -0.005580 0.000000 0.000000 0.000000
# 3 -0.005580 -0.005580 0.007763 0.000000 0.000000 0.000000
# 4 0.000000 0.000000 0.000000 0.022003 0.000000 0.000000
# 5 0.000000 0.000000 0.000000 0.000000 0.022003 0.000000
# 6 0.000000 0.000000 0.000000 0.000000 0.000000 0.033820
#
#
# Mechanical properties :
#
#
# Convention : Reuss Voigt Hill
#
# Bulk Modulus (GPa) = 33.91630 61.21555 47.56593
# Shear Modulus (GPa) = 25.65116 35.72847 30.68982
#
# Velocity S-wave (km/s) = 3.44652 4.06756 3.76985
# Velocity P-wave (km/s) = 5.61639 7.09983 6.40123
#
# Compressibility (1/GPa) = 0.02948435
#
# Stress axis : x y z
#
# Youngs Moduli (GPa) = 32.99584 32.99570 128.82008
#
# Poissons Ratio (x) = 0.27338 0.71887
# Poissons Ratio (y) = 0.27338 0.71887
# Poissons Ratio (z) = 0.18413 0.18413
#
# Static dielectric constant tensor:
#      x y z
#    x 1.815430 0.000000 0.000000 
#    y 0.000000 1.815440 0.000000 
#    z 0.000000 0.000000 1.776570 
# 
# From -- ./inp_files/3016.got.cif
#   From: 2010.05.17/outbox.cif.g08.bks.cpg/sg90_2_cif.got.tgz:3016.got - 2010.06.03 19:17:45.
