data_PCOD9547057
_publ_section_title
;
Structure prediction by ZEFSAII (Michael W. Deem and Ramdas Pophale) SiO2 
 PCOD9547057
Probable space group: P 4 2 2
;
_chemical_formula_sum "Si O2"
_cell_formula_units_Z 42
_cell_length_a 8.708272
_cell_length_b 8.708272
_cell_length_c 28.573313
_cell_angle_alpha 90.000000
_cell_angle_beta 90.000000
_cell_angle_gamma 90.000000
_cell_volume 2166.828653
_symmetry_space_group_name_H-M "P 4 2 2"
_symmetry_group_IT_number 89
_symmetry_cell_setting 'tetragonal'
loop_
_space_group_symop_operation_xyz
x,y,z
-y,x,z
-x,-y,z
y,-x,z
x,-y,-z
-x,y,-z
y,x,-z
-y,-x,-z
loop_
_atom_site_type_symbol
_atom_site_label
_atom_site_fract_x
_atom_site_fract_y
_atom_site_fract_z
Si Si1 0.000000 0.500000 0.000000
Si Si2 0.747268 0.421217 0.931336
Si Si3 0.777404 0.870059 0.641089
Si Si4 0.298082 0.662913 0.550002
Si Si5 0.238665 0.895912 0.256932
Si Si6 0.413141 0.742745 0.175910
O O1 0.887376 0.598020 0.033323
O O2 0.684561 0.596463 0.937980
O O3 0.798446 0.398434 0.877606
O O4 0.706223 0.802450 0.594422
O O5 0.699135 0.845373 0.691762
O O6 0.947513 0.798799 0.640621
O O7 0.294717 0.478085 0.551560
O O8 0.258087 0.741914 0.500000
O O9 0.353286 0.855518 0.215444
O O10 0.075346 0.806568 0.253777
O O11 0.311285 0.588354 0.181132
#
# Coordination Sequence:
#
# PCOD9547057 Si02
#       6
#     2   8   8   8   8   8
#     4  12  20  30  60  86 100 138 184 214 256 312
#     4   9  20  38  56  78 110 143 177 218 261 309
#     4   9  19  35  52  73 103 137 173 213 260 316
#     4   9  19  35  52  72 101 135 171 215 265 312
#     4   9  19  35  53  75 106 140 172 213 266 318
#     4   9  19  35  54  77 105 137 176 219 259 306
#
# _framework density 19.383168000000001
#
# number of rings (size 3 to 8) (size 9 to 14) (size 15 to 20)
#    0.000    2.857    0.000    3.429    0.000    7.619 
#    0.000    8.571    0.000    4.571    0.000    0.000 
#    0.000    0.000    0.000    0.000    0.000    0.000 
#
# Total GULP energy -233977.802091 kJ/mol
# GULP energy per Si atom -5570.900050 kJ/mol
# Density = 1.933905 g / cm^3
# Si number density = 19.383168 Si / 1000 Ang^3
#
#
#
# Elastic Constant Matrix: (Units=GPa)
#
#
# Indices 1 2 3 4 5 6 
#
# 1 23.8654 15.1378 46.4651 0.0000 0.0000 0.0000
# 2 15.1378 23.8656 46.4654 0.0000 0.0000 0.0000
# 3 46.4651 46.4654 158.0358 0.0000 0.0000 0.0000
# 4 0.0000 0.0000 0.0000 33.0969 0.0000 0.0000
# 5 0.0000 0.0000 0.0000 0.0000 33.0971 0.0000
# 6 0.0000 0.0000 0.0000 0.0000 0.0000 24.2794
#
#
#
# Elastic Compliance Matrix: (Units=1/GPa)
#
#
# Indices 1 2 3 4 5 6 
#
# 1 0.100097 -0.014481 -0.025172 0.000000 0.000000 0.000000
# 2 -0.014481 0.100096 -0.025172 0.000000 0.000000 0.000000
# 3 -0.025172 -0.025172 0.021130 0.000000 0.000000 0.000000
# 4 0.000000 0.000000 0.000000 0.030214 0.000000 0.000000
# 5 0.000000 0.000000 0.000000 0.000000 0.030214 0.000000
# 6 0.000000 0.000000 0.000000 0.000000 0.000000 0.041187
#
#
# Mechanical properties :
#
#
# Convention : Reuss Voigt Hill
#
# Bulk Modulus (GPa) = 10.90856 46.87818 28.89337
# Shear Modulus (GPa) = 10.34882 24.60793 17.47838
#
# Velocity S-wave (km/s) = 2.31315 3.56694 3.00614
# Velocity P-wave (km/s) = 3.57411 6.41885 5.19499
#
# Compressibility (1/GPa) = 0.09167113
#
# Stress axis : x y z
#
# Youngs Moduli (GPa) = 9.99035 9.99040 47.32621
#
# Poissons Ratio (x) = 0.14467 1.19131
# Poissons Ratio (y) = 0.14467 1.19132
# Poissons Ratio (z) = 0.25148 0.25148
#
# Static dielectric constant tensor:
#      x y z
#    x 1.673520 0.000000 0.000000 
#    y 0.000000 1.673520 0.000000 
#    z 0.000000 0.000000 1.735670 
# 
# From -- ./inp_files/2849.got.cif
#   From: 2010.05.17/outbox.cif.g08.bks.cpg/sg89_2_cif.got.tgz:2849.got - 2010.06.03 19:15:31.
