data_PCOD9547112
_publ_section_title
;
Structure prediction by ZEFSAII (Michael W. Deem and Ramdas Pophale) SiO2 
 PCOD9547112
Probable space group: P 4 21 2
;
_chemical_formula_sum "Si O2"
_cell_formula_units_Z 30
_cell_length_a 8.839908
_cell_length_b 8.839908
_cell_length_c 21.428167
_cell_angle_alpha 90.000000
_cell_angle_beta 90.000000
_cell_angle_gamma 90.000000
_cell_volume 1674.482113
_symmetry_space_group_name_H-M "P 4 21 2"
_symmetry_group_IT_number 90
_symmetry_cell_setting 'tetragonal'
loop_
_space_group_symop_operation_xyz
x,y,z
1/2-y,1/2+x,z
-x,-y,z
1/2+y,1/2-x,z
1/2+x,1/2-y,-z
1/2-x,1/2+y,-z
y,x,-z
-y,-x,-z
loop_
_atom_site_type_symbol
_atom_site_label
_atom_site_fract_x
_atom_site_fract_y
_atom_site_fract_z
Si Si1 0.000000 0.000000 0.500000
Si Si2 0.753421 0.430476 0.952230
Si Si3 0.975864 0.247129 0.392859
Si Si4 0.000000 0.000000 0.288572
Si Si5 0.752518 0.444145 0.809878
O O1 0.988108 0.144521 0.454646
O O2 0.820698 0.599484 0.960104
O O3 0.695940 0.422986 0.880821
O O4 0.627737 0.372263 0.000000
O O5 0.841432 0.368523 0.391086
O O6 0.952507 0.134887 0.334654
O O7 0.871869 0.934197 0.243086
O O8 0.826550 0.610232 0.803601
#
# Coordination Sequence:
#
# PCOD9547112 Si02
#       5
#     2   8   8   4   8
#     4  10  20  36  60  80 102 144 178 196 246 312
#     4   9  19  34  51  73 100 130 168 215 263 310
#     4  10  21  36  54  80 111 136 168 215 254 292
#     4  11  20  33  55  78 101 140 178 206 255 308
#     4   9  19  35  52  73 103 136 173 215 256 308
#
# _framework density 17.915987999999999
#
# number of rings (size 3 to 8) (size 9 to 14) (size 15 to 20)
#    0.000    2.400    0.000    4.000    0.000    4.800 
#    0.000    0.000    0.000   16.000    0.000    0.000 
#    0.000    0.000    0.000    0.000    0.000    0.000 
#
# Total GULP energy -167314.475151 kJ/mol
# GULP energy per Si atom -5577.149172 kJ/mol
# Density = 1.787521 g / cm^3
# Si number density = 17.915988 Si / 1000 Ang^3
#
#
#
# Elastic Constant Matrix: (Units=GPa)
#
#
# Indices 1 2 3 4 5 6 
#
# 1 61.5018 24.6214 51.7908 0.0000 0.0000 0.0000
# 2 24.6214 61.5009 51.7905 0.0000 0.0000 0.0000
# 3 51.7908 51.7905 143.1602 0.0000 0.0000 0.0000
# 4 0.0000 0.0000 0.0000 23.6479 0.0000 0.0000
# 5 0.0000 0.0000 0.0000 0.0000 23.6478 0.0000
# 6 0.0000 0.0000 0.0000 0.0000 0.0000 14.4393
#
#
#
# Elastic Compliance Matrix: (Units=1/GPa)
#
#
# Indices 1 2 3 4 5 6 
#
# 1 0.023835 -0.003280 -0.007436 0.000000 0.000000 0.000000
# 2 -0.003280 0.023835 -0.007436 0.000000 0.000000 0.000000
# 3 -0.007436 -0.007436 0.012365 0.000000 0.000000 0.000000
# 4 0.000000 0.000000 0.000000 0.042287 0.000000 0.000000
# 5 0.000000 0.000000 0.000000 0.000000 0.042287 0.000000
# 6 0.000000 0.000000 0.000000 0.000000 0.000000 0.069256
#
#
# Mechanical properties :
#
#
# Convention : Reuss Voigt Hill
#
# Bulk Modulus (GPa) = 42.13932 58.06317 50.10125
# Shear Modulus (GPa) = 19.37385 21.54433 20.45909
#
# Velocity S-wave (km/s) = 3.29199 3.47150 3.38293
# Velocity P-wave (km/s) = 6.16613 6.96759 6.57908
#
# Compressibility (1/GPa) = 0.02373080
#
# Stress axis : x y z
#
# Youngs Moduli (GPa) = 41.95557 41.95495 80.87061
#
# Poissons Ratio (x) = 0.13762 0.60136
# Poissons Ratio (y) = 0.13762 0.60136
# Poissons Ratio (z) = 0.31198 0.31198
#
# Static dielectric constant tensor:
#      x y z
#    x 1.610020 0.000000 0.000000 
#    y 0.000000 1.610020 0.000000 
#    z 0.000000 0.000000 1.596240 
# 
# From -- ./inp_files/2694.got.cif
#   From: 2010.05.17/outbox.cif.g08.bks.cpg/sg90_2_cif.got.tgz:2694.got - 2010.06.03 19:17:45.
