data_PCOD9547755
_publ_section_title
;
Structure prediction by ZEFSAII (Michael W. Deem and Ramdas Pophale) SiO2 
 PCOD9547755
Probable space group: P 41 2 2
;
_chemical_formula_sum "Si O2"
_cell_formula_units_Z 40
_cell_length_a 9.125993
_cell_length_b 9.125993
_cell_length_c 26.186051
_cell_angle_alpha 90.000000
_cell_angle_beta 90.000000
_cell_angle_gamma 90.000000
_cell_volume 2180.872479
_symmetry_space_group_name_H-M "P 41 2 2"
_symmetry_group_IT_number 91
_symmetry_cell_setting 'tetragonal'
loop_
_space_group_symop_operation_xyz
x,y,z
-y,x,1/4+z
-x,-y,1/2+z
y,-x,3/4+z
x,-y,1/2-z
-x,y,-z
y,x,3/4-z
-y,-x,1/4-z
loop_
_atom_site_type_symbol
_atom_site_label
_atom_site_fract_x
_atom_site_fract_y
_atom_site_fract_z
Si Si1 0.595328 0.891755 0.046536
Si Si2 0.877313 0.379144 0.342022
Si Si3 0.144428 0.961530 0.025067
Si Si4 0.314088 0.449428 0.107340
Si Si5 0.061013 0.364613 0.444276
O O1 0.595219 0.783025 0.093633
O O2 0.512650 0.039829 0.063877
O O3 0.500000 0.826672 0.000000
O O4 0.751293 0.924112 0.022629
O O5 0.702909 0.379741 0.337217
O O6 0.938400 0.233330 0.314180
O O7 0.939199 0.380810 0.399912
O O8 0.106549 0.806604 0.051878
O O9 0.000000 0.028745 0.000000
O O10 0.439751 0.560250 0.125000
O O11 0.201457 0.537256 0.070849
O O12 0.000000 0.404898 0.500000
#
# Coordination Sequence:
#
# PCOD9547755 Si02
#       5
#     8   8   8   8   8
#     4   9  19  37  55  76 108 141 176 221 268 318
#     4  10  21  36  53  81 115 141 175 226 279 322
#     4  10  19  36  60  81 102 140 185 226 271 320
#     4  11  21  35  56  81 110 145 180 220 270 328
#     4  10  20  36  59  83 107 143 190 227 263 324
#
# _framework density 18.341283000000001
#
# number of rings (size 3 to 8) (size 9 to 14) (size 15 to 20)
#    0.000    2.000    0.000    6.600    0.000    0.800 
#    0.000   19.000    0.000    0.000    0.000    0.000 
#    0.000    0.000    0.000    0.000    0.000    0.000 
#
# Total GULP energy -223254.651020 kJ/mol
# GULP energy per Si atom -5581.366275 kJ/mol
# Density = 1.829954 g / cm^3
# Si number density = 18.341283 Si / 1000 Ang^3
#
#
#
# Elastic Constant Matrix: (Units=GPa)
#
#
# Indices 1 2 3 4 5 6 
#
# 1 71.1937 6.8923 8.4505 0.0000 0.0000 0.0000
# 2 6.8923 71.1920 8.4502 0.0000 0.0000 0.0000
# 3 8.4505 8.4502 78.5171 0.0000 0.0000 0.0000
# 4 0.0000 0.0000 0.0000 14.4018 0.0000 0.0000
# 5 0.0000 0.0000 0.0000 0.0000 14.4012 0.0000
# 6 0.0000 0.0000 0.0000 0.0000 0.0000 7.7202
#
#
#
# Elastic Compliance Matrix: (Units=1/GPa)
#
#
# Indices 1 2 3 4 5 6 
#
# 1 0.014332 -0.001220 -0.001411 0.000000 0.000000 0.000000
# 2 -0.001220 0.014332 -0.001411 0.000000 0.000000 0.000000
# 3 -0.001411 -0.001411 0.013040 0.000000 0.000000 0.000000
# 4 0.000000 0.000000 0.000000 0.069436 0.000000 0.000000
# 5 0.000000 0.000000 0.000000 0.000000 0.069438 0.000000
# 6 0.000000 0.000000 0.000000 0.000000 0.000000 0.129530
#
#
# Mechanical properties :
#
#
# Convention : Reuss Voigt Hill
#
# Bulk Modulus (GPa) = 29.74500 29.83208 29.78854
# Shear Modulus (GPa) = 15.17917 20.44532 17.81224
#
# Velocity S-wave (km/s) = 2.87992 3.34236 3.11972
# Velocity P-wave (km/s) = 5.22602 5.58529 5.40864
#
# Compressibility (1/GPa) = 0.03361910
#
# Stress axis : x y z
#
# Youngs Moduli (GPa) = 69.77489 69.77333 76.68812
#
# Poissons Ratio (x) = 0.08512 0.10822
# Poissons Ratio (y) = 0.08513 0.10822
# Poissons Ratio (z) = 0.09846 0.09846
#
# Static dielectric constant tensor:
#      x y z
#    x 1.647120 0.000000 0.000000 
#    y 0.000000 1.647120 0.000000 
#    z 0.000000 0.000000 1.626400 
# 
# From -- ./inp_files/6759.got.cif
#   From: 2010.05.17/outbox.cif.g08.bks.cpg/sg91_4_cif.got.tgz:6759.got - 2010.06.03 19:20:03.
