data_PCOD9547292
_publ_section_title
;
Structure prediction by ZEFSAII (Michael W. Deem and Ramdas Pophale) SiO2 
 PCOD9547292
Probable space group: P 4 21 2
;
_chemical_formula_sum "Si O2"
_cell_formula_units_Z 60
_cell_length_a 12.562766
_cell_length_b 12.562766
_cell_length_c 17.893652
_cell_angle_alpha 90.000000
_cell_angle_beta 90.000000
_cell_angle_gamma 90.000000
_cell_volume 2824.031442
_symmetry_space_group_name_H-M "P 4 21 2"
_symmetry_group_IT_number 90
_symmetry_cell_setting 'tetragonal'
loop_
_space_group_symop_operation_xyz
x,y,z
1/2-y,1/2+x,z
-x,-y,z
1/2+y,1/2-x,z
1/2+x,1/2-y,-z
1/2-x,1/2+y,-z
y,x,-z
-y,-x,-z
loop_
_atom_site_type_symbol
_atom_site_label
_atom_site_fract_x
_atom_site_fract_y
_atom_site_fract_z
Si Si1 0.147332 0.816544 0.764531
Si Si2 0.871588 0.273103 0.042082
Si Si3 0.420307 0.151367 0.118041
Si Si4 0.594507 0.847927 0.697533
Si Si5 0.410027 0.156064 0.531680
Si Si6 0.826645 0.912974 0.920786
Si Si7 0.585496 0.840911 0.367987
Si Si8 0.000000 0.000000 0.810143
O O1 0.125238 0.753365 0.840686
O O2 0.267633 0.854841 0.755363
O O3 0.120586 0.734887 0.698302
O O4 0.071947 0.919532 0.762951
O O5 0.769423 0.327068 0.080792
O O6 0.976000 0.237545 0.084873
O O7 0.832229 0.167772 0.000000
O O8 0.907873 0.344215 0.971269
O O9 0.543286 0.139145 0.140833
O O10 0.467005 0.859515 0.704730
O O11 0.617296 0.802194 0.613858
O O12 0.537356 0.139014 0.531228
O O13 0.385512 0.204425 0.450697
O O14 0.920681 0.927222 0.860833
O O15 0.884775 0.884775 0.000000
O O16 0.458242 0.861618 0.362777
#
# Coordination Sequence:
#
# PCOD9547292 Si02
#       8
#     8   8   8   8   8   8   8   4
#     4  12  25  39  64  92 135 178 208 253 321 402
#     4  11  22  39  71  99 120 163 206 268 331 383
#     4  11  23  41  65  96 129 162 207 262 325 385
#     4   9  20  42  65  90 125 174 230 273 311 361
#     4   7  12  29  62  92 122 163 216 277 318 358
#     4  11  23  45  71  95 128 157 214 273 326 394
#     4   9  18  36  62  98 131 166 217 267 321 382
#     4  12  29  48  60  91 130 176 210 260 328 399
#
# _framework density 21.246223000000001
#
# number of rings (size 3 to 8) (size 9 to 14) (size 15 to 20)
#    0.000    1.867    1.333    5.000    1.867    4.000 
#    4.800    0.000    0.000    3.200    0.000    0.000 
#    0.000    0.000    0.000    0.000    0.000    0.000 
#
# Total GULP energy -334965.187672 kJ/mol
# GULP energy per Si atom -5582.753128 kJ/mol
# Density = 2.119787 g / cm^3
# Si number density = 21.246223 Si / 1000 Ang^3
#
#
#
# Elastic Constant Matrix: (Units=GPa)
#
#
# Indices 1 2 3 4 5 6 
#
# 1 75.7711 33.5728 21.9420 0.0000 0.0000 0.0000
# 2 33.5728 75.7710 21.9416 0.0000 0.0000 0.0000
# 3 21.9420 21.9416 66.4434 0.0000 0.0000 0.0000
# 4 0.0000 0.0000 0.0000 31.2461 0.0000 0.0000
# 5 0.0000 0.0000 0.0000 0.0000 31.2458 0.0000
# 6 0.0000 0.0000 0.0000 0.0000 0.0000 15.4892
#
#
#
# Elastic Compliance Matrix: (Units=1/GPa)
#
#
# Indices 1 2 3 4 5 6 
#
# 1 0.017120 -0.006577 -0.003482 0.000000 0.000000 0.000000
# 2 -0.006577 0.017120 -0.003481 0.000000 0.000000 0.000000
# 3 -0.003482 -0.003481 0.017350 0.000000 0.000000 0.000000
# 4 0.000000 0.000000 0.000000 0.032004 0.000000 0.000000
# 5 0.000000 0.000000 0.000000 0.000000 0.032004 0.000000
# 6 0.000000 0.000000 0.000000 0.000000 0.000000 0.064561
#
#
# Mechanical properties :
#
#
# Convention : Reuss Voigt Hill
#
# Bulk Modulus (GPa) = 40.80119 41.43315 41.11717
# Shear Modulus (GPa) = 23.21150 24.96483 24.08816
#
# Velocity S-wave (km/s) = 3.30888 3.43158 3.37079
# Velocity P-wave (km/s) = 5.81756 5.93673 5.87744
#
# Compressibility (1/GPa) = 0.02450909
#
# Stress axis : x y z
#
# Youngs Moduli (GPa) = 58.41046 58.41064 57.63730
#
# Poissons Ratio (x) = 0.38419 0.20067
# Poissons Ratio (y) = 0.38419 0.20066
# Poissons Ratio (z) = 0.20336 0.20336
#
# Static dielectric constant tensor:
#      x y z
#    x 1.754210 0.000000 0.000000 
#    y 0.000000 1.754210 0.000000 
#    z 0.000000 0.000000 1.852940 
# 
# From -- ./inp_files/2870.got.cif
#   From: 2010.05.17/outbox.cif.g08.bks.cpg/sg90_2_cif.got.tgz:2870.got - 2010.06.03 19:17:45.
