data_PCOD9547665
_publ_section_title
;
Structure prediction by ZEFSAII (Michael W. Deem and Ramdas Pophale) SiO2 
 PCOD9547665
Probable space group: P 41 2 2
;
_chemical_formula_sum "Si O2"
_cell_formula_units_Z 52
_cell_length_a 18.339258
_cell_length_b 18.339258
_cell_length_c 8.624806
_cell_angle_alpha 90.000000
_cell_angle_beta 90.000000
_cell_angle_gamma 90.000000
_cell_volume 2900.767064
_symmetry_space_group_name_H-M "P 41 2 2"
_symmetry_group_IT_number 91
_symmetry_cell_setting 'tetragonal'
loop_
_space_group_symop_operation_xyz
x,y,z
-y,x,1/4+z
-x,-y,1/2+z
y,-x,3/4+z
x,-y,1/2-z
-x,y,-z
y,x,3/4-z
-y,-x,1/4-z
loop_
_atom_site_type_symbol
_atom_site_label
_atom_site_fract_x
_atom_site_fract_y
_atom_site_fract_z
Si Si1 0.650788 0.915206 0.794609
Si Si2 0.695323 0.576862 0.523526
Si Si3 0.340031 0.409618 0.524484
Si Si4 0.224301 0.718690 0.960955
Si Si5 0.491908 0.920131 0.680572
Si Si6 0.280662 0.280662 0.875000
Si Si7 0.580198 0.842003 0.071494
O O1 0.707374 0.862063 0.713633
O O2 0.571600 0.894217 0.730054
O O3 0.661754 0.000000 0.750000
O O4 0.639600 0.887338 0.973357
O O5 0.684722 0.493398 0.477077
O O6 0.619001 0.610000 0.583849
O O7 0.726975 0.631714 0.394572
O O8 0.754639 0.586683 0.664091
O O9 0.388799 0.388799 0.375000
O O10 0.269033 0.357420 0.523914
O O11 0.248374 0.746546 0.789545
O O12 0.242210 0.757791 0.125000
O O13 0.500000 0.925659 0.500000
O O14 0.429213 0.870938 0.753678
O O15 0.480495 0.000000 0.750000
O O16 0.500000 0.857394 0.000000
#
# Coordination Sequence:
#
# PCOD9547665 Si02
#       7
#     8   8   8   8   8   4   8
#     4  10  19  33  54  82 108 136 178 225 268 325
#     4  11  22  36  51  73 101 134 187 243 292 344
#     4  10  19  35  53  73  96 135 186 234 294 344
#     4  10  21  39  60  75 109 150 183 224 276 340
#     4  10  19  30  46  75 108 140 172 218 280 346
#     4  10  24  38  54  80 102 136 200 224 276 350
#     4  10  19  34  53  71 103 138 176 218 285 352
#
# _framework density 17.926292
#
# number of rings (size 3 to 8) (size 9 to 14) (size 15 to 20)
#    0.000    1.846    0.000    8.308    2.154    2.462 
#    4.154    0.000    0.000    0.000    0.000    0.000 
#    0.000    0.000    2.615    0.000    0.000    0.000 
#
# Total GULP energy -289563.502926 kJ/mol
# GULP energy per Si atom -5568.528902 kJ/mol
# Density = 1.788549 g / cm^3
# Si number density = 17.926292 Si / 1000 Ang^3
#
#
#
# Elastic Constant Matrix: (Units=GPa)
#
#
# Indices 1 2 3 4 5 6 
#
# 1 69.7892 14.2728 30.2267 0.0000 0.0000 0.0000
# 2 14.2728 69.7900 30.2266 0.0000 0.0000 0.0000
# 3 30.2267 30.2266 125.4895 0.0000 0.0000 0.0000
# 4 0.0000 0.0000 0.0000 21.4501 0.0000 0.0000
# 5 0.0000 0.0000 0.0000 0.0000 21.4501 0.0000
# 6 0.0000 0.0000 0.0000 0.0000 0.0000 10.1143
#
#
#
# Elastic Compliance Matrix: (Units=1/GPa)
#
#
# Indices 1 2 3 4 5 6 
#
# 1 0.016201 -0.001812 -0.003466 0.000000 0.000000 0.000000
# 2 -0.001812 0.016200 -0.003466 0.000000 0.000000 0.000000
# 3 -0.003466 -0.003466 0.009638 0.000000 0.000000 0.000000
# 4 0.000000 0.000000 0.000000 0.046620 0.000000 0.000000
# 5 0.000000 0.000000 0.000000 0.000000 0.046620 0.000000
# 6 0.000000 0.000000 0.000000 0.000000 0.000000 0.098870
#
#
# Mechanical properties :
#
#
# Convention : Reuss Voigt Hill
#
# Bulk Modulus (GPa) = 40.72969 46.05786 43.39378
# Shear Modulus (GPa) = 19.24406 23.29239 21.26823
#
# Velocity S-wave (km/s) = 3.28000 3.60855 3.44819
# Velocity P-wave (km/s) = 6.09217 6.56589 6.33346
#
# Compressibility (1/GPa) = 0.02455211
#
# Stress axis : x y z
#
# Youngs Moduli (GPa) = 61.72636 61.72719 103.75211
#
# Poissons Ratio (x) = 0.11186 0.35958
# Poissons Ratio (y) = 0.11186 0.35957
# Poissons Ratio (z) = 0.21393 0.21393
#
# Static dielectric constant tensor:
#      x y z
#    x 1.630860 0.000000 0.000000 
#    y 0.000000 1.630860 0.000000 
#    z 0.000000 0.000000 1.845600 
# 
# From -- ./inp_files/2754.got.cif
#   From: 2010.05.17/outbox.cif.g08.bks.cpg/sg91_2_cif.got.tgz:2754.got - 2010.06.03 19:20:03.
