data_PCOD9547402
_publ_section_title
;
Structure prediction by ZEFSAII (Michael W. Deem and Ramdas Pophale) SiO2 
 PCOD9547402
Probable space group: P 4 21 2
;
_chemical_formula_sum "Si O2"
_cell_formula_units_Z 56
_cell_length_a 11.022507
_cell_length_b 11.022507
_cell_length_c 22.898184
_cell_angle_alpha 90.000000
_cell_angle_beta 90.000000
_cell_angle_gamma 90.000000
_cell_volume 2782.029991
_symmetry_space_group_name_H-M "P 4 21 2"
_symmetry_group_IT_number 90
_symmetry_cell_setting 'tetragonal'
loop_
_space_group_symop_operation_xyz
x,y,z
1/2-y,1/2+x,z
-x,-y,z
1/2+y,1/2-x,z
1/2+x,1/2-y,-z
1/2-x,1/2+y,-z
y,x,-z
-y,-x,-z
loop_
_atom_site_type_symbol
_atom_site_label
_atom_site_fract_x
_atom_site_fract_y
_atom_site_fract_z
Si Si1 0.992964 0.692682 0.465596
Si Si2 0.168643 0.375013 0.021664
Si Si3 0.824708 0.596782 0.160004
Si Si4 0.303810 0.952711 0.336679
Si Si5 0.140196 0.025991 0.431559
Si Si6 0.808668 0.126363 0.726083
Si Si7 0.760784 0.901256 0.652324
O O1 0.112276 0.621353 0.484035
O O2 0.984227 0.814657 0.502232
O O3 0.987997 0.695790 0.395633
O O4 0.167547 0.525650 0.007749
O O5 0.192051 0.379539 0.091503
O O6 0.275148 0.275148 0.000000
O O7 0.842380 0.454213 0.172585
O O8 0.725029 0.636000 0.206295
O O9 0.415891 0.862492 0.332072
O O10 0.205500 0.925936 0.287588
O O11 0.228646 0.935554 0.396385
O O12 0.160196 0.149169 0.394908
O O13 0.000000 0.000000 0.421052
O O14 0.696776 0.186258 0.689150
O O15 0.820718 0.991976 0.699249
#
# Coordination Sequence:
#
# PCOD9547402 Si02
#       7
#     8   8   8   8   8   8   8
#     4  11  25  43  63  86 118 155 195 246 321 406
#     4   9  19  38  66 103 146 193 244 292 347 408
#     4   9  18  34  62  99 136 178 223 275 330 381
#     4  11  24  44  66  85 115 161 204 252 323 395
#     4  12  25  44  61  84 109 151 205 264 318 383
#     4  12  22  39  66  94 128 158 207 260 317 385
#     4  12  24  39  63  92 122 154 197 257 320 379
#
# _framework density 20.129186000000001
#
# number of rings (size 3 to 8) (size 9 to 14) (size 15 to 20)
#    0.000    1.143    5.714    2.143    0.000    2.857 
#    2.571    1.429    0.000    5.143    0.000    0.000 
#    0.000    0.000    0.000    0.000    0.000    0.000 
#
# Total GULP energy -311813.534574 kJ/mol
# GULP energy per Si atom -5568.098832 kJ/mol
# Density = 2.008337 g / cm^3
# Si number density = 20.129186 Si / 1000 Ang^3
#
#
#
# Elastic Constant Matrix: (Units=GPa)
#
#
# Indices 1 2 3 4 5 6 
#
# 1 -45.3924 154.4400 17.8553 0.0000 0.0000 0.0000
# 2 154.4400 -45.3924 17.8553 0.0000 0.0000 0.0000
# 3 17.8553 17.8553 70.6276 0.0000 0.0000 0.0000
# 4 0.0000 0.0000 0.0000 28.0849 0.0000 0.0000
# 5 0.0000 0.0000 0.0000 0.0000 28.0849 0.0000
# 6 0.0000 0.0000 0.0000 0.0000 0.0000 32.5068
#
#
#
# Elastic Compliance Matrix: (Units=1/GPa)
#
#
# Indices 1 2 3 4 5 6 
#
# 1 0.002497 0.007501 -0.002528 0.000000 0.000000 0.000000
# 2 0.007501 0.002497 -0.002528 0.000000 0.000000 0.000000
# 3 -0.002528 -0.002528 0.015437 0.000000 0.000000 0.000000
# 4 0.000000 0.000000 0.000000 0.035606 0.000000 0.000000
# 5 0.000000 0.000000 0.000000 0.000000 0.035606 0.000000
# 6 0.000000 0.000000 0.000000 0.000000 0.000000 0.030763
#
#
# Mechanical properties :
#
#
# Convention : Reuss Voigt Hill
#
# Bulk Modulus (GPa) = 39.49065 40.01602 39.75333
# Shear Modulus (GPa) = 39.69669 3.71479 21.70574
#
# Velocity S-wave (km/s) = 4.44565 1.35996 3.28734
# Velocity P-wave (km/s) = 6.78328 4.73167 5.84815
#
# Compressibility (1/GPa) = 0.02532245
#
# Stress axis : x y z
#
# Youngs Moduli (GPa) = 400.49345 400.49345 64.78036
#
# Poissons Ratio (x) = -3.00415 0.16374
# Poissons Ratio (y) = -3.00415 0.16374
# Poissons Ratio (z) = 1.01229 1.01229
#
# Static dielectric constant tensor:
#      x y z
#    x 1.835540 0.000000 0.000000 
#    y 0.000000 1.835540 0.000000 
#    z 0.000000 0.000000 1.711620 
# 
# From -- ./inp_files/2839.got.cif
#   From: 2010.05.17/outbox.cif.g08.bks.cpg/sg90_2_cif.got.tgz:2839.got - 2010.06.03 19:17:45.
