data_PCOD9547199
_publ_section_title
;
Structure prediction by ZEFSAII (Michael W. Deem and Ramdas Pophale) SiO2 
 PCOD9547199
Probable space group: P 4 21 2
;
_chemical_formula_sum "Si O2"
_cell_formula_units_Z 48
_cell_length_a 8.006508
_cell_length_b 8.006508
_cell_length_c 34.178216
_cell_angle_alpha 90.000000
_cell_angle_beta 90.000000
_cell_angle_gamma 90.000000
_cell_volume 2190.966181
_symmetry_space_group_name_H-M "P 4 21 2"
_symmetry_group_IT_number 90
_symmetry_cell_setting 'tetragonal'
loop_
_space_group_symop_operation_xyz
x,y,z
1/2-y,1/2+x,z
-x,-y,z
1/2+y,1/2-x,z
1/2+x,1/2-y,-z
1/2-x,1/2+y,-z
y,x,-z
-y,-x,-z
loop_
_atom_site_type_symbol
_atom_site_label
_atom_site_fract_x
_atom_site_fract_y
_atom_site_fract_z
Si Si1 0.907908 0.765496 0.039530
Si Si2 0.733973 0.409041 0.617333
Si Si3 0.000000 0.000000 0.761410
Si Si4 0.500000 0.500000 0.105253
Si Si5 0.766345 0.910337 0.539058
Si Si6 0.765845 0.910373 0.695718
Si Si7 0.233233 0.910590 0.171949
O O1 0.795348 0.599777 0.040347
O O2 0.862500 0.862500 0.000000
O O3 0.889072 0.885015 0.076822
O O4 0.795790 0.598869 0.617776
O O5 0.635638 0.366678 0.577930
O O6 0.630806 0.360451 0.655677
O O7 0.114011 0.110786 0.732782
O O8 0.891812 0.117348 0.789971
O O9 0.607959 0.617704 0.133802
O O10 0.599699 0.796437 0.539158
O O11 0.866136 0.866136 0.500000
O O12 0.601447 0.796352 0.696892
O O13 0.296338 0.103536 0.171982
#
# Coordination Sequence:
#
# PCOD9547199 Si02
#       7
#     8   8   4   4   8   8   8
#     4  11  23  39  61  90 127 171 219 272 327 385
#     4  11  24  41  62  90 123 159 201 249 302 362
#     4  11  22  40  63  88 120 156 197 248 304 367
#     4  11  21  38  61  88 124 164 213 264 319 379
#     4  11  24  41  62  90 123 161 206 253 302 358
#     4  11  23  39  61  89 120 156 198 245 301 364
#     4  10  22  39  61  89 121 159 203 253 310 373
#
# _framework density 21.908142999999999
#
# number of rings (size 3 to 8) (size 9 to 14) (size 15 to 20)
#    0.000    1.167    0.000    6.250    0.000    6.333 
#    0.000    3.333    0.000    8.000    0.000    0.000 
#    0.000    0.000    0.000    0.000    0.000    0.000 
#
# Total GULP energy -268913.725736 kJ/mol
# GULP energy per Si atom -5602.369286 kJ/mol
# Density = 2.185828 g / cm^3
# Si number density = 21.908143 Si / 1000 Ang^3
#
#
#
# Elastic Constant Matrix: (Units=GPa)
#
#
# Indices 1 2 3 4 5 6 
#
# 1 78.5490 21.6161 44.5255 0.0000 0.0000 0.0000
# 2 21.6161 78.5490 44.5255 0.0000 0.0000 0.0000
# 3 44.5255 44.5255 192.3086 0.0000 0.0000 0.0000
# 4 0.0000 0.0000 0.0000 31.9510 0.0000 0.0000
# 5 0.0000 0.0000 0.0000 0.0000 31.9510 0.0000
# 6 0.0000 0.0000 0.0000 0.0000 0.0000 37.5140
#
#
#
# Elastic Compliance Matrix: (Units=1/GPa)
#
#
# Indices 1 2 3 4 5 6 
#
# 1 0.015068 -0.002497 -0.002911 0.000000 0.000000 0.000000
# 2 -0.002497 0.015068 -0.002911 0.000000 0.000000 0.000000
# 3 -0.002911 -0.002911 0.006548 0.000000 0.000000 0.000000
# 4 0.000000 0.000000 0.000000 0.031298 0.000000 0.000000
# 5 0.000000 0.000000 0.000000 0.000000 0.031298 0.000000
# 6 0.000000 0.000000 0.000000 0.000000 0.000000 0.026657
#
#
# Mechanical properties :
#
#
# Convention : Reuss Voigt Hill
#
# Bulk Modulus (GPa) = 49.88113 63.41563 56.64838
# Shear Modulus (GPa) = 33.49982 36.19915 34.84949
#
# Velocity S-wave (km/s) = 3.91462 4.06928 3.99270
# Velocity P-wave (km/s) = 6.57648 7.14756 6.86796
#
# Compressibility (1/GPa) = 0.02004766
#
# Stress axis : x y z
#
# Youngs Moduli (GPa) = 66.36639 66.36639 152.72350
#
# Poissons Ratio (x) = 0.16569 0.44452
# Poissons Ratio (y) = 0.16569 0.44452
# Poissons Ratio (z) = 0.19317 0.19317
#
# Static dielectric constant tensor:
#      x y z
#    x 1.793570 0.000000 0.000000 
#    y 0.000000 1.793570 0.000000 
#    z 0.000000 0.000000 1.746310 
# 
# From -- ./inp_files/3107.got.cif
#   From: 2010.05.17/outbox.cif.g08.bks.cpg/sg90_2_cif.got.tgz:3107.got - 2010.06.03 19:17:45.
