data_PCOD9547528
_publ_section_title
;
Structure prediction by ZEFSAII (Michael W. Deem and Ramdas Pophale) SiO2 
 PCOD9547528
Probable space group: P 41 2 2
;
_chemical_formula_sum "Si O2"
_cell_formula_units_Z 56
_cell_length_a 15.269651
_cell_length_b 15.269651
_cell_length_c 13.321720
_cell_angle_alpha 90.000000
_cell_angle_beta 90.000000
_cell_angle_gamma 90.000000
_cell_volume 3106.122098
_symmetry_space_group_name_H-M "P 41 2 2"
_symmetry_group_IT_number 91
_symmetry_cell_setting 'tetragonal'
loop_
_space_group_symop_operation_xyz
x,y,z
-y,x,1/4+z
-x,-y,1/2+z
y,-x,3/4+z
x,-y,1/2-z
-x,y,-z
y,x,3/4-z
-y,-x,1/4-z
loop_
_atom_site_type_symbol
_atom_site_label
_atom_site_fract_x
_atom_site_fract_y
_atom_site_fract_z
Si Si1 0.189065 0.054256 0.352300
Si Si2 0.377366 0.869053 0.673514
Si Si3 0.919008 0.715421 0.237357
Si Si4 0.595138 0.690148 0.453342
Si Si5 0.299207 0.777574 0.212806
Si Si6 0.421912 0.089579 0.191692
Si Si7 0.764397 0.729385 0.574089
O O1 0.095004 0.095004 0.375000
O O2 0.252751 0.136080 0.331752
O O3 0.187264 0.000000 0.250000
O O4 0.226599 0.996248 0.442273
O O5 0.316587 0.927440 0.601195
O O6 0.389482 0.779117 0.609812
O O7 0.473766 0.907872 0.684306
O O8 0.329775 0.840372 0.776131
O O9 0.912176 0.629831 0.164195
O O10 0.827211 0.766574 0.222638
O O11 0.500000 0.690048 0.500000
O O12 0.612460 0.612460 0.375000
O O13 0.671511 0.689812 0.536492
O O14 0.294507 0.705494 0.125000
O O15 0.388662 0.820638 0.254625
O O16 0.243356 0.742151 0.307090
O O17 0.397083 0.000000 0.250000
#
# Coordination Sequence:
#
# PCOD9547528 Si02
#       7
#     8   8   8   8   8   8   8
#     4  11  20  37  60  80 105 146 201 243 271 344
#     4  10  20  32  54  86 113 142 176 240 303 339
#     4  10  17  36  58  79 108 149 195 224 287 354
#     4   9  16  29  52  79 104 140 183 226 280 337
#     4  10  19  35  60  75 103 156 198 225 273 341
#     4  11  19  35  53  82 115 143 185 235 280 352
#     4   9  18  33  55  80 109 139 187 234 277 343
#
# _framework density 18.028911999999998
#
# number of rings (size 3 to 8) (size 9 to 14) (size 15 to 20)
#    0.000    2.000    4.286    4.286    0.000    0.000 
#    5.143    2.143    0.000    7.714    0.000    0.000 
#    0.000    0.000    0.000    0.000    0.000    0.000 
#
# Total GULP energy -312128.518193 kJ/mol
# GULP energy per Si atom -5573.723539 kJ/mol
# Density = 1.798788 g / cm^3
# Si number density = 18.028912 Si / 1000 Ang^3
#
#
#
# Elastic Constant Matrix: (Units=GPa)
#
#
# Indices 1 2 3 4 5 6 
#
# 1 58.3120 26.6559 26.7077 0.0000 0.0000 0.0000
# 2 26.6559 58.3125 26.7079 0.0000 0.0000 0.0000
# 3 26.7077 26.7079 69.6265 0.0000 0.0000 0.0000
# 4 0.0000 0.0000 0.0000 26.9507 0.0000 0.0000
# 5 0.0000 0.0000 0.0000 0.0000 26.9504 0.0000
# 6 0.0000 0.0000 0.0000 0.0000 0.0000 26.1415
#
#
#
# Elastic Compliance Matrix: (Units=1/GPa)
#
#
# Indices 1 2 3 4 5 6 
#
# 1 0.023549 -0.008040 -0.005949 0.000000 0.000000 0.000000
# 2 -0.008040 0.023549 -0.005949 0.000000 0.000000 0.000000
# 3 -0.005949 -0.005949 0.018926 0.000000 0.000000 0.000000
# 4 0.000000 0.000000 0.000000 0.037105 0.000000 0.000000
# 5 0.000000 0.000000 0.000000 0.000000 0.037105 0.000000
# 6 0.000000 0.000000 0.000000 0.000000 0.000000 0.038253
#
#
# Mechanical properties :
#
#
# Convention : Reuss Voigt Hill
#
# Bulk Modulus (GPa) = 38.24367 38.48823 38.36595
# Shear Modulus (GPa) = 22.01864 23.08715 22.55290
#
# Velocity S-wave (km/s) = 3.49850 3.58238 3.54069
# Velocity P-wave (km/s) = 6.13007 6.20529 6.16780
#
# Compressibility (1/GPa) = 0.02614812
#
# Stress axis : x y z
#
# Youngs Moduli (GPa) = 42.46430 42.46455 52.83651
#
# Poissons Ratio (x) = 0.34142 0.31433
# Poissons Ratio (y) = 0.34142 0.31433
# Poissons Ratio (z) = 0.25262 0.25263
#
# Static dielectric constant tensor:
#      x y z
#    x 1.636130 0.000000 0.000000 
#    y 0.000000 1.636130 0.000000 
#    z 0.000000 0.000000 1.659810 
# 
# From -- ./inp_files/16538.got.cif
#   From: 2010.05.17/outbox.cif.g08.bks.cpg/sg91_9_cif.got.tgz:16538.got - 2010.06.03 19:20:03.
