data_PCOD9547545
_publ_section_title
;
Structure prediction by ZEFSAII (Michael W. Deem and Ramdas Pophale) SiO2 
 PCOD9547545
Probable space group: P 41 2 2
;
_chemical_formula_sum "Si O2"
_cell_formula_units_Z 56
_cell_length_a 25.284150
_cell_length_b 25.284150
_cell_length_c 5.263629
_cell_angle_alpha 90.000000
_cell_angle_beta 90.000000
_cell_angle_gamma 90.000000
_cell_volume 3364.976126
_symmetry_space_group_name_H-M "P 41 2 2"
_symmetry_group_IT_number 91
_symmetry_cell_setting 'tetragonal'
loop_
_space_group_symop_operation_xyz
x,y,z
-y,x,1/4+z
-x,-y,1/2+z
y,-x,3/4+z
x,-y,1/2-z
-x,y,-z
y,x,3/4-z
-y,-x,1/4-z
loop_
_atom_site_type_symbol
_atom_site_label
_atom_site_fract_x
_atom_site_fract_y
_atom_site_fract_z
Si Si1 0.181366 0.129699 0.624679
Si Si2 0.788361 0.736712 0.624068
Si Si3 0.757425 0.618574 0.507023
Si Si4 0.883808 0.967146 0.997863
Si Si5 0.720012 0.429934 0.495495
Si Si6 0.554963 0.601266 0.614327
Si Si7 0.180141 0.486083 0.999780
O O1 0.156485 0.156485 0.375000
O O2 0.241269 0.151439 0.624002
O O3 0.164526 0.069128 0.597477
O O4 0.152553 0.152553 0.875000
O O5 0.762656 0.762656 0.375000
O O6 0.779811 0.674769 0.586898
O O7 0.758390 0.758390 0.875000
O O8 0.732730 0.612482 0.226808
O O9 0.802603 0.574069 0.503981
O O10 0.719195 0.598040 0.731175
O O11 0.901689 0.000000 0.250000
O O12 0.929830 0.929830 0.875000
O O13 0.866562 0.000000 0.750000
O O14 0.662754 0.452819 0.436255
O O15 0.766506 0.475187 0.496647
O O16 0.500000 0.580673 0.500000
O O17 0.594753 0.594753 0.375000
O O18 0.573042 0.573042 0.875000
O O19 0.149842 0.500000 0.250000
O O20 0.149639 0.500000 0.750000
#
# Coordination Sequence:
#
# PCOD9547545 Si02
#       7
#     8   8   8   8   8   8   8
#     4   9  18  34  49  63  91 131 165 193 238 297
#     4  10  20  31  45  65  91 121 152 188 225 267
#     4  10  18  29  46  68  90 109 138 174 209 255
#     4  11  21  34  51  72  98 130 170 217 263 298
#     4  10  20  34  49  67  88 109 133 168 224 283
#     4  12  26  41  55  65  76  98 129 169 218 271
#     4   8  15  27  43  58  80 106 127 155 200 261
#
# _framework density 16.642022000000001
#
# number of rings (size 3 to 8) (size 9 to 14) (size 15 to 20)
#    0.000    2.000    0.000    5.571    0.000    6.857 
#    0.000    0.714    0.000    0.000    0.000    0.000 
#    0.000    0.000    0.000    0.000    0.000   25.714 
#
# Total GULP energy -311829.206328 kJ/mol
# GULP energy per Si atom -5568.378684 kJ/mol
# Density = 1.660414 g / cm^3
# Si number density = 16.642022 Si / 1000 Ang^3
#
#
#
# Elastic Constant Matrix: (Units=GPa)
#
#
# Indices 1 2 3 4 5 6 
#
# 1 47.0280 46.7415 22.6245 0.0000 0.0000 0.0000
# 2 46.7415 47.0280 22.6245 0.0000 0.0000 0.0000
# 3 22.6245 22.6245 143.3635 0.0000 0.0000 0.0000
# 4 0.0000 0.0000 0.0000 16.3403 0.0000 0.0000
# 5 0.0000 0.0000 0.0000 0.0000 16.3403 0.0000
# 6 0.0000 0.0000 0.0000 0.0000 0.0000 13.0562
#
#
#
# Elastic Compliance Matrix: (Units=1/GPa)
#
#
# Indices 1 2 3 4 5 6 
#
# 1 1.751233 -1.739689 -0.001822 0.000000 0.000000 0.000000
# 2 -1.739689 1.751233 -0.001822 0.000000 0.000000 0.000000
# 3 -0.001822 -0.001822 0.007550 0.000000 0.000000 0.000000
# 4 0.000000 0.000000 0.000000 0.061198 0.000000 0.000000
# 5 0.000000 0.000000 0.000000 0.000000 0.061198 0.000000
# 6 0.000000 0.000000 0.000000 0.000000 0.000000 0.076592
#
#
# Mechanical properties :
#
#
# Convention : Reuss Voigt Hill
#
# Bulk Modulus (GPa) = 42.82570 46.82229 44.82399
# Shear Modulus (GPa) = 0.69411 18.84263 9.76837
#
# Velocity S-wave (km/s) = 0.64652 3.36852 2.42538
# Velocity P-wave (km/s) = 5.13290 6.58219 5.90220
#
# Compressibility (1/GPa) = 0.02335047
#
# Stress axis : x y z
#
# Youngs Moduli (GPa) = 0.57103 0.57103 132.44593
#
# Poissons Ratio (x) = 0.99341 0.24128
# Poissons Ratio (y) = 0.99341 0.24128
# Poissons Ratio (z) = 0.00104 0.00104
#
# Static dielectric constant tensor:
#      x y z
#    x 1.578130 0.000000 0.000000 
#    y 0.000000 1.578130 0.000000 
#    z 0.000000 0.000000 1.623800 
# 
# From -- ./inp_files/9159.got.cif
#   From: 2010.05.17/outbox.cif.g08.bks.cpg/sg91_5_cif.got.tgz:9159.got - 2010.06.03 19:20:03.
