data_PCOD9547041
_publ_section_title
;
Structure prediction by ZEFSAII (Michael W. Deem and Ramdas Pophale) SiO2 
 PCOD9547041
Probable space group: P 4 2 2
;
_chemical_formula_sum "Si O2"
_cell_formula_units_Z 26
_cell_length_a 7.980236
_cell_length_b 7.980236
_cell_length_c 18.290736
_cell_angle_alpha 90.000000
_cell_angle_beta 90.000000
_cell_angle_gamma 90.000000
_cell_volume 1164.830279
_symmetry_space_group_name_H-M "P 4 2 2"
_symmetry_group_IT_number 89
_symmetry_cell_setting 'tetragonal'
loop_
_space_group_symop_operation_xyz
x,y,z
-y,x,z
-x,-y,z
y,-x,z
x,-y,-z
-x,y,-z
y,x,-z
-y,-x,-z
loop_
_atom_site_type_symbol
_atom_site_label
_atom_site_fract_x
_atom_site_fract_y
_atom_site_fract_z
Si Si1 0.256089 0.647151 0.234408
Si Si2 0.282131 0.685383 0.077451
Si Si3 0.000000 0.500000 0.500000
Si Si4 0.099194 0.257997 0.615249
O O1 0.280112 0.445640 0.238672
O O2 0.196630 0.718415 0.155463
O O3 0.138983 0.690686 0.302023
O O4 0.274931 0.481671 0.077566
O O5 0.232131 0.767870 0.000000
O O6 0.120965 0.397854 0.554609
O O7 0.906969 0.207209 0.603709
#
# Coordination Sequence:
#
# PCOD9547041 Si02
#       4
#     8   8   2   8
#     4   9  17  31  54  85 119 155 199 249 297 348
#     4   7  10  19  40  73 111 149 192 244 294 336
#     4  12  24  42  64  82 104 140 192 246 292 366
#     4  11  24  41  61  85 114 149 188 237 304 376
#
# _framework density 22.320848000000002
#
# number of rings (size 3 to 8) (size 9 to 14) (size 15 to 20)
#    0.000    2.769    0.000    5.538    0.000    1.231 
#    0.000    0.000    0.000    3.692    0.000   10.769 
#    0.000    0.000    0.000    0.000    0.000    0.000 
#
# Total GULP energy -144818.475741 kJ/mol
# GULP energy per Si atom -5569.941375 kJ/mol
# Density = 2.227004 g / cm^3
# Si number density = 22.320848 Si / 1000 Ang^3
#
#
#
# Elastic Constant Matrix: (Units=GPa)
#
#
# Indices 1 2 3 4 5 6 
#
# 1 41.8736 23.9559 53.6304 0.0000 0.0000 0.0000
# 2 23.9559 41.8735 53.6304 0.0000 0.0000 0.0000
# 3 53.6304 53.6304 250.8468 0.0000 0.0000 0.0000
# 4 0.0000 0.0000 0.0000 14.3679 0.0000 0.0000
# 5 0.0000 0.0000 0.0000 0.0000 14.3681 0.0000
# 6 0.0000 0.0000 0.0000 0.0000 0.0000 -102.8716
#
#
#
# Elastic Compliance Matrix: (Units=1/GPa)
#
#
# Indices 1 2 3 4 5 6 
#
# 1 0.039561 -0.016250 -0.004984 0.000000 0.000000 0.000000
# 2 -0.016250 0.039561 -0.004984 0.000000 0.000000 0.000000
# 3 -0.004984 -0.004984 0.006118 0.000000 0.000000 0.000000
# 4 0.000000 0.000000 0.000000 0.069600 0.000000 0.000000
# 5 0.000000 0.000000 0.000000 0.000000 0.069599 0.000000
# 6 0.000000 0.000000 0.000000 0.000000 0.000000 -0.009721
#
#
# Mechanical properties :
#
#
# Convention : Reuss Voigt Hill
#
# Bulk Modulus (GPa) = 30.48336 66.33637 48.40986
# Shear Modulus (GPa) = 17.97997 -1.26864 8.35567
#
# Velocity S-wave (km/s) = 2.84125 -0.75472 1.93690
# Velocity P-wave (km/s) = 4.94471 5.38744 5.17082
#
# Compressibility (1/GPa) = 0.03280479
#
# Stress axis : x y z
#
# Youngs Moduli (GPa) = 25.27739 25.27731 163.46278
#
# Poissons Ratio (x) = 0.41075 0.81468
# Poissons Ratio (y) = 0.41075 0.81469
# Poissons Ratio (z) = 0.12598 0.12598
#
# Static dielectric constant tensor:
#      x y z
#    x 1.867090 0.000000 0.000000 
#    y 0.000000 1.867090 0.000000 
#    z 0.000000 0.000000 1.958580 
# 
# From -- ./inp_files/2292.got.cif
#   From: 2010.05.17/outbox.cif.g08.bks.cpg/sg89_2_cif.got.tgz:2292.got - 2010.06.03 19:15:31.
