data_PCOD9547048
_publ_section_title
;
Structure prediction by ZEFSAII (Michael W. Deem and Ramdas Pophale) SiO2 
 PCOD9547048
Probable space group: P 4 2 2
;
_chemical_formula_sum "Si O2"
_cell_formula_units_Z 22
_cell_length_a 8.342240
_cell_length_b 8.342240
_cell_length_c 14.530702
_cell_angle_alpha 90.000000
_cell_angle_beta 90.000000
_cell_angle_gamma 90.000000
_cell_volume 1011.234682
_symmetry_space_group_name_H-M "P 4 2 2"
_symmetry_group_IT_number 89
_symmetry_cell_setting 'tetragonal'
loop_
_space_group_symop_operation_xyz
x,y,z
-y,x,z
-x,-y,z
y,-x,z
x,-y,-z
-x,y,-z
y,x,-z
-y,-x,-z
loop_
_atom_site_type_symbol
_atom_site_label
_atom_site_fract_x
_atom_site_fract_y
_atom_site_fract_z
Si Si1 0.000000 0.500000 0.500000
Si Si2 0.276635 0.354683 0.191880
Si Si3 0.807968 0.192033 0.000000
Si Si4 0.247982 0.093394 0.635581
O O1 0.112682 0.605402 0.566663
O O2 0.455134 0.286895 0.209319
O O3 0.245127 0.293884 0.088674
O O4 0.139167 0.292448 0.260283
O O5 0.000000 0.216975 0.000000
O O6 0.090003 0.197275 0.618801
#
# Coordination Sequence:
#
# PCOD9547048 Si02
#       4
#     2   8   4   8
#     4  12  24  42  68  98 134 178 232 294 352 410
#     4  11  24  42  65  97 136 177 225 286 354 423
#     4  11  24  41  64  96 132 175 228 283 348 426
#     4  11  24  43  68  98 133 178 232 286 349 426
#
# _framework density 21.755580999999999
#
# number of rings (size 3 to 8) (size 9 to 14) (size 15 to 20)
#    0.000    0.909    0.000    6.545    0.000   11.636 
#    0.000    0.000    0.000    2.182    0.000    0.000 
#    0.000    0.000    0.000    0.000    0.000    0.000 
#
# Total GULP energy -122914.872240 kJ/mol
# GULP energy per Si atom -5587.039647 kJ/mol
# Density = 2.170606 g / cm^3
# Si number density = 21.755581 Si / 1000 Ang^3
#
#
#
# Elastic Constant Matrix: (Units=GPa)
#
#
# Indices 1 2 3 4 5 6 
#
# 1 84.7327 42.2452 43.4469 0.0000 0.0000 0.0000
# 2 42.2452 84.7319 43.4468 0.0000 0.0000 0.0000
# 3 43.4469 43.4468 158.1893 0.0000 0.0000 0.0000
# 4 0.0000 0.0000 0.0000 49.9928 0.0000 0.0000
# 5 0.0000 0.0000 0.0000 0.0000 49.9925 0.0000
# 6 0.0000 0.0000 0.0000 0.0000 0.0000 16.8102
#
#
#
# Elastic Compliance Matrix: (Units=1/GPa)
#
#
# Indices 1 2 3 4 5 6 
#
# 1 0.016617 -0.006919 -0.002664 0.000000 0.000000 0.000000
# 2 -0.006919 0.016617 -0.002664 0.000000 0.000000 0.000000
# 3 -0.002664 -0.002664 0.007785 0.000000 0.000000 0.000000
# 4 0.000000 0.000000 0.000000 0.020003 0.000000 0.000000
# 5 0.000000 0.000000 0.000000 0.000000 0.020003 0.000000
# 6 0.000000 0.000000 0.000000 0.000000 0.000000 0.059488
#
#
# Mechanical properties :
#
#
# Convention : Reuss Voigt Hill
#
# Bulk Modulus (GPa) = 60.50863 65.10356 62.80609
# Shear Modulus (GPa) = 29.32298 36.59343 32.95820
#
# Velocity S-wave (km/s) = 3.67527 4.10570 3.89643
# Velocity P-wave (km/s) = 6.77373 7.24332 7.01246
#
# Compressibility (1/GPa) = 0.01652657
#
# Stress axis : x y z
#
# Youngs Moduli (GPa) = 60.17823 60.17768 128.45759
#
# Poissons Ratio (x) = 0.41638 0.34216
# Poissons Ratio (y) = 0.41638 0.34216
# Poissons Ratio (z) = 0.16029 0.16029
#
# Static dielectric constant tensor:
#      x y z
#    x 1.837260 0.000000 0.000000 
#    y 0.000000 1.837260 0.000000 
#    z 0.000000 0.000000 1.778250 
# 
# From -- ./inp_files/2014.got.cif
#   From: 2010.05.17/outbox.cif.g08.bks.cpg/sg89_2_cif.got.tgz:2014.got - 2010.06.03 19:15:31.
