data_PCOD9547298
_publ_section_title
;
Structure prediction by ZEFSAII (Michael W. Deem and Ramdas Pophale) SiO2 
 PCOD9547298
Probable space group: P 4 21 2
;
_chemical_formula_sum "Si O2"
_cell_formula_units_Z 40
_cell_length_a 14.460549
_cell_length_b 14.460549
_cell_length_c 8.931647
_cell_angle_alpha 90.000000
_cell_angle_beta 90.000000
_cell_angle_gamma 90.000000
_cell_volume 1867.674173
_symmetry_space_group_name_H-M "P 4 21 2"
_symmetry_group_IT_number 90
_symmetry_cell_setting 'tetragonal'
loop_
_space_group_symop_operation_xyz
x,y,z
1/2-y,1/2+x,z
-x,-y,z
1/2+y,1/2-x,z
1/2+x,1/2-y,-z
1/2-x,1/2+y,-z
y,x,-z
-y,-x,-z
loop_
_atom_site_type_symbol
_atom_site_label
_atom_site_fract_x
_atom_site_fract_y
_atom_site_fract_z
Si Si1 0.088236 0.164445 0.643326
Si Si2 0.144814 0.538143 0.503960
Si Si3 0.770829 0.539987 0.204812
Si Si4 0.850066 0.741374 0.125744
Si Si5 0.429244 0.414495 0.171739
O O1 0.095803 0.095803 0.500000
O O2 0.081133 0.265470 0.575293
O O3 0.181337 0.153805 0.741958
O O4 0.995062 0.155384 0.741296
O O5 0.107629 0.437215 0.545838
O O6 0.170451 0.514403 0.330811
O O7 0.814819 0.638152 0.162749
O O8 0.762394 0.458859 0.080518
O O9 0.666035 0.562711 0.255900
O O10 0.785197 0.785197 0.000000
O O11 0.500000 0.500000 0.164791
O O12 0.397559 0.397559 0.000000
#
# Coordination Sequence:
#
# PCOD9547298 Si02
#       5
#     8   8   8   8   8
#     4  12  24  45  71 109 147 190 252 318 381 456
#     4  11  24  45  71 101 144 194 246 312 377 449
#     4  12  23  45  74 104 144 202 248 309 373 454
#     4  12  27  47  74 109 151 196 263 308 379 464
#     4  11  23  41  68 101 147 190 232 306 377 436
#
# _framework density 21.417010000000001
#
# number of rings (size 3 to 8) (size 9 to 14) (size 15 to 20)
#    0.000    0.400    6.000    1.800    2.800    3.200 
#    0.000    0.000    0.000    0.000    0.000    0.000 
#    0.000    0.000    0.000    0.000    0.000    0.000 
#
# Total GULP energy -223005.433840 kJ/mol
# GULP energy per Si atom -5575.135846 kJ/mol
# Density = 2.136826 g / cm^3
# Si number density = 21.417010 Si / 1000 Ang^3
#
#
#
# Elastic Constant Matrix: (Units=GPa)
#
#
# Indices 1 2 3 4 5 6 
#
# 1 425.3805 -241.1936 25.2297 0.0000 0.0000 0.0000
# 2 -241.1936 425.3805 25.2297 0.0000 0.0000 0.0000
# 3 25.2297 25.2297 64.6494 0.0000 0.0000 0.0000
# 4 0.0000 0.0000 0.0000 77.4414 0.0000 0.0000
# 5 0.0000 0.0000 0.0000 0.0000 77.4414 0.0000
# 6 0.0000 0.0000 0.0000 0.0000 0.0000 27.7470
#
#
#
# Elastic Compliance Matrix: (Units=1/GPa)
#
#
# Indices 1 2 3 4 5 6 
#
# 1 0.003790 0.002290 -0.002372 0.000000 0.000000 0.000000
# 2 0.002290 0.003790 -0.002372 0.000000 0.000000 0.000000
# 3 -0.002372 -0.002372 0.017320 0.000000 0.000000 0.000000
# 4 0.000000 0.000000 0.000000 0.012913 0.000000 0.000000
# 5 0.000000 0.000000 0.000000 0.000000 0.012913 0.000000
# 6 0.000000 0.000000 0.000000 0.000000 0.000000 0.036040
#
#
# Mechanical properties :
#
#
# Convention : Reuss Voigt Hill
#
# Bulk Modulus (GPa) = 50.02896 59.32691 54.67794
# Shear Modulus (GPa) = 50.84468 110.26894 80.55681
#
# Velocity S-wave (km/s) = 4.87769 7.18320 6.13964
# Velocity P-wave (km/s) = 7.42514 9.82644 8.70895
#
# Compressibility (1/GPa) = 0.01998842
#
# Stress axis : x y z
#
# Youngs Moduli (GPa) = 263.87232 263.87232 57.73752
#
# Poissons Ratio (x) = -0.60414 0.13698
# Poissons Ratio (y) = -0.60414 0.13698
# Poissons Ratio (z) = 0.62602 0.62602
#
# Static dielectric constant tensor:
#      x y z
#    x 1.770720 0.000000 0.000000 
#    y 0.000000 1.770720 0.000000 
#    z 0.000000 0.000000 1.884060 
# 
# From -- ./inp_files/1290.got.cif
#   From: 2010.05.17/outbox.cif.g08.bks.cpg/sg90_1_cif.got.tgz:1290.got - 2010.06.03 19:17:45.
