data_PCOD9547154
_publ_section_title
;
Structure prediction by ZEFSAII (Michael W. Deem and Ramdas Pophale) SiO2 
 PCOD9547154
Probable space group: P 4 21 2
;
_chemical_formula_sum "Si O2"
_cell_formula_units_Z 42
_cell_length_a 13.003226
_cell_length_b 13.003226
_cell_length_c 10.938871
_cell_angle_alpha 90.000000
_cell_angle_beta 90.000000
_cell_angle_gamma 90.000000
_cell_volume 1849.586822
_symmetry_space_group_name_H-M "P 4 21 2"
_symmetry_group_IT_number 90
_symmetry_cell_setting 'tetragonal'
loop_
_space_group_symop_operation_xyz
x,y,z
1/2-y,1/2+x,z
-x,-y,z
1/2+y,1/2-x,z
1/2+x,1/2-y,-z
1/2-x,1/2+y,-z
y,x,-z
-y,-x,-z
loop_
_atom_site_type_symbol
_atom_site_label
_atom_site_fract_x
_atom_site_fract_y
_atom_site_fract_z
Si Si1 0.862915 0.302170 0.139812
Si Si2 0.827787 0.479594 0.749991
Si Si3 0.246853 0.869957 0.606536
Si Si4 0.000000 0.500000 0.204315
Si Si5 0.792856 0.953198 0.003009
Si Si6 0.422836 0.749921 0.511888
O O1 0.820610 0.242643 0.259357
O O2 0.778437 0.365530 0.063674
O O3 0.939048 0.389445 0.192398
O O4 0.937464 0.228675 0.061639
O O5 0.890448 0.585892 0.760008
O O6 0.773473 0.471184 0.619194
O O7 0.748992 0.465756 0.859997
O O8 0.178193 0.821808 0.500000
O O9 0.362357 0.850281 0.557822
O O10 0.222401 0.989798 0.608435
O O11 0.906740 0.906740 0.000000
O O12 0.339462 0.660539 0.500000
#
# Coordination Sequence:
#
# PCOD9547154 Si02
#       6
#     8   8   8   2   8   8
#     4  10  21  39  59  92 127 160 208 257 316 384
#     4  11  22  40  62  96 134 165 214 274 337 385
#     4  11  25  42  64  94 128 168 218 264 319 387
#     4   8  16  32  64  88 122 156 192 260 312 370
#     4  11  23  37  65  91 124 168 203 262 321 386
#     4  11  24  41  65  93 131 171 217 269 323 387
#
# _framework density 22.707775000000002
#
# number of rings (size 3 to 8) (size 9 to 14) (size 15 to 20)
#    0.000    1.333    3.810    2.286    8.000    0.762 
#    0.000    0.000    0.000    0.571    0.000    0.000 
#    0.000    0.000    0.000    0.000    0.000    0.000 
#
# Total GULP energy -234367.120131 kJ/mol
# GULP energy per Si atom -5580.169527 kJ/mol
# Density = 2.265609 g / cm^3
# Si number density = 22.707775 Si / 1000 Ang^3
#
#
#
# Elastic Constant Matrix: (Units=GPa)
#
#
# Indices 1 2 3 4 5 6 
#
# 1 44.4325 13.7966 5.5742 0.0000 0.0000 0.0000
# 2 13.7966 44.4334 5.5745 0.0000 0.0000 0.0000
# 3 5.5742 5.5745 109.3543 0.0000 0.0000 0.0000
# 4 0.0000 0.0000 0.0000 18.5578 0.0000 0.0000
# 5 0.0000 0.0000 0.0000 0.0000 18.5567 0.0000
# 6 0.0000 0.0000 0.0000 0.0000 0.0000 41.0010
#
#
#
# Elastic Compliance Matrix: (Units=1/GPa)
#
#
# Indices 1 2 3 4 5 6 
#
# 1 0.024992 -0.007649 -0.000884 0.000000 0.000000 0.000000
# 2 -0.007649 0.024992 -0.000884 0.000000 0.000000 0.000000
# 3 -0.000884 -0.000884 0.009235 0.000000 0.000000 0.000000
# 4 0.000000 0.000000 0.000000 0.053886 0.000000 0.000000
# 5 0.000000 0.000000 0.000000 0.000000 0.053889 0.000000
# 6 0.000000 0.000000 0.000000 0.000000 0.000000 0.024390
#
#
# Mechanical properties :
#
#
# Convention : Reuss Voigt Hill
#
# Bulk Modulus (GPa) = 24.76236 27.56786 26.16511
# Shear Modulus (GPa) = 22.35354 27.17477 24.76415
#
# Velocity S-wave (km/s) = 3.14092 3.46311 3.30594
# Velocity P-wave (km/s) = 4.90737 5.30636 5.11076
#
# Compressibility (1/GPa) = 0.04038387
#
# Stress axis : x y z
#
# Youngs Moduli (GPa) = 40.01266 40.01352 108.28700
#
# Poissons Ratio (x) = 0.30607 0.09573
# Poissons Ratio (y) = 0.30606 0.09573
# Poissons Ratio (z) = 0.03537 0.03537
#
# Static dielectric constant tensor:
#      x y z
#    x 1.855300 0.000000 0.000000 
#    y 0.000000 1.855300 0.000000 
#    z 0.000000 0.000000 1.857370 
# 
# From -- ./inp_files/1366.got.cif
#   From: 2010.05.17/outbox.cif.g08.bks.cpg/sg90_1_cif.got.tgz:1366.got - 2010.06.03 19:17:45.
