data_PCOD9547363
_publ_section_title
;
Structure prediction by ZEFSAII (Michael W. Deem and Ramdas Pophale) SiO2 
 PCOD9547363
Probable space group: P 4 21 2
;
_chemical_formula_sum "Si O2"
_cell_formula_units_Z 50
_cell_length_a 8.848607
_cell_length_b 8.848607
_cell_length_c 31.664072
_cell_angle_alpha 90.000000
_cell_angle_beta 90.000000
_cell_angle_gamma 90.000000
_cell_volume 2479.228628
_symmetry_space_group_name_H-M "P 4 21 2"
_symmetry_group_IT_number 90
_symmetry_cell_setting 'tetragonal'
loop_
_space_group_symop_operation_xyz
x,y,z
1/2-y,1/2+x,z
-x,-y,z
1/2+y,1/2-x,z
1/2+x,1/2-y,-z
1/2-x,1/2+y,-z
y,x,-z
-y,-x,-z
loop_
_atom_site_type_symbol
_atom_site_label
_atom_site_fract_x
_atom_site_fract_y
_atom_site_fract_z
Si Si1 0.355063 0.793013 0.619508
Si Si2 0.283030 0.130391 0.460258
Si Si3 0.209539 0.354946 0.123625
Si Si4 0.168162 0.923763 0.045237
Si Si5 0.500000 0.000000 0.042230
Si Si6 0.328387 0.189771 0.782190
Si Si7 0.309852 0.166353 0.299779
O O1 0.535329 0.797489 0.614783
O O2 0.289261 0.686087 0.583307
O O3 0.297331 0.739990 0.665093
O O4 0.450845 0.199740 0.462206
O O5 0.188906 0.188906 0.500000
O O6 0.200554 0.536975 0.120436
O O7 0.318367 0.310282 0.086151
O O8 0.253318 0.300223 0.170663
O O9 0.315138 0.029520 0.042289
O O10 0.157784 0.842217 0.000000
O O11 0.000000 0.000000 0.050214
O O12 0.510178 0.204450 0.778142
O O13 0.231227 0.266903 0.745981
O O14 0.486393 0.205143 0.305212
#
# Coordination Sequence:
#
# PCOD9547363 Si02
#       7
#     8   8   8   8   2   8   8
#     4  11  24  41  64  93 122 160 210 264 316 382
#     4  11  24  41  62  92 129 168 212 262 313 376
#     4   9  19  39  68  92 127 175 217 268 331 394
#     4  11  26  44  67 102 138 177 226 274 337 404
#     4  12  28  44  68 104 132 176 220 284 324 392
#     4   9  19  39  64  92 119 159 213 259 313 384
#     4  11  24  41  59  88 126 163 204 260 324 385
#
# _framework density 20.167562
#
# number of rings (size 3 to 8) (size 9 to 14) (size 15 to 20)
#    0.000    1.600    0.000    4.800    4.480    9.920 
#    8.640    0.000    0.000    0.000    0.000    0.000 
#    0.000    0.000    0.000    0.000    0.000    0.000 
#
# Total GULP energy -278743.805124 kJ/mol
# GULP energy per Si atom -5574.876102 kJ/mol
# Density = 2.012166 g / cm^3
# Si number density = 20.167562 Si / 1000 Ang^3
#
#
#
# Elastic Constant Matrix: (Units=GPa)
#
#
# Indices 1 2 3 4 5 6 
#
# 1 -31.8795 -39.0831 -54.6060 0.0000 0.0000 0.0000
# 2 -39.0831 -31.8796 -54.6057 0.0000 0.0000 0.0000
# 3 -54.6060 -54.6057 38.3651 0.0000 0.0000 0.0000
# 4 0.0000 0.0000 0.0000 125.8730 0.0000 0.0000
# 5 0.0000 0.0000 0.0000 0.0000 125.8805 0.0000
# 6 0.0000 0.0000 0.0000 0.0000 0.0000 27.2686
#
#
#
# Elastic Compliance Matrix: (Units=1/GPa)
#
#
# Indices 1 2 3 4 5 6 
#
# 1 0.067202 -0.071619 -0.006286 0.000000 0.000000 0.000000
# 2 -0.071619 0.067202 -0.006287 0.000000 0.000000 0.000000
# 3 -0.006286 -0.006287 0.008170 0.000000 0.000000 0.000000
# 4 0.000000 0.000000 0.000000 0.007945 0.000000 0.000000
# 5 0.000000 0.000000 0.000000 0.000000 0.007944 0.000000
# 6 0.000000 0.000000 0.000000 0.000000 0.000000 0.036672
#
#
# Mechanical properties :
#
#
# Convention : Reuss Voigt Hill
#
# Bulk Modulus (GPa) = -38.74415 -35.77596 -37.26005
# Shear Modulus (GPa) = 14.08792 63.99781 39.04286
#
# Velocity S-wave (km/s) = 2.64586 5.63932 4.40469
# Velocity P-wave (km/s) = 3.14940 4.96233 2.71164
#
# Compressibility (1/GPa) = -0.02581035
#
# Stress axis : x y z
#
# Youngs Moduli (GPa) = 14.88060 14.88053 122.40356
#
# Poissons Ratio (x) = 1.06572 0.76947
# Poissons Ratio (y) = 1.06573 0.76953
# Poissons Ratio (z) = 0.09355 0.09355
#
# Static dielectric constant tensor:
#      x y z
#    x 1.666820 0.000000 0.000000 
#    y 0.000000 1.666810 0.000000 
#    z 0.000000 0.000000 1.695370 
# 
# From -- ./inp_files/3078.got.cif
#   From: 2010.05.17/outbox.cif.g08.bks.cpg/sg90_2_cif.got.tgz:3078.got - 2010.06.03 19:17:45.
