data_PCOD9547787
_publ_section_title
;
Structure prediction by ZEFSAII (Michael W. Deem and Ramdas Pophale) SiO2 
 PCOD9547787
Probable space group: P 41 2 2
;
_chemical_formula_sum "Si O2"
_cell_formula_units_Z 56
_cell_length_a 12.160353
_cell_length_b 12.160353
_cell_length_c 19.084610
_cell_angle_alpha 90.000000
_cell_angle_beta 90.000000
_cell_angle_gamma 90.000000
_cell_volume 2822.121151
_symmetry_space_group_name_H-M "P 41 2 2"
_symmetry_group_IT_number 91
_symmetry_cell_setting 'tetragonal'
loop_
_space_group_symop_operation_xyz
x,y,z
-y,x,1/4+z
-x,-y,1/2+z
y,-x,3/4+z
x,-y,1/2-z
-x,y,-z
y,x,3/4-z
-y,-x,1/4-z
loop_
_atom_site_type_symbol
_atom_site_label
_atom_site_fract_x
_atom_site_fract_y
_atom_site_fract_z
Si Si1 0.626141 0.470224 0.331080
Si Si2 0.556470 0.131229 0.922916
Si Si3 0.030710 0.796989 0.838901
Si Si4 0.887238 0.301466 0.539010
Si Si5 0.721227 0.543703 0.900851
Si Si6 0.816703 0.904175 0.048510
Si Si7 0.440985 0.923095 0.925376
O O1 0.632185 0.500000 0.250000
O O2 0.561592 0.561592 0.375000
O O3 0.748663 0.453919 0.360325
O O4 0.552592 0.361342 0.330700
O O5 0.685231 0.099720 0.926048
O O6 0.490853 0.030558 0.886429
O O7 0.500000 0.143178 0.000000
O O8 0.099425 0.883468 0.886682
O O9 0.928762 0.750998 0.886749
O O10 0.991405 0.843242 0.763698
O O11 0.804515 0.401768 0.544748
O O12 0.826373 0.209701 0.493568
O O13 0.000000 0.329642 0.500000
O O14 0.644994 0.644994 0.875000
O O15 0.806957 0.487118 0.848866
O O16 0.690849 0.924908 0.071539
O O17 0.500000 0.934201 0.000000
#
# Coordination Sequence:
#
# PCOD9547787 Si02
#       7
#     8   8   8   8   8   8   8
#     4  10  24  41  61  92 128 173 215 266 325 403
#     4  10  19  38  64  88 128 173 218 258 326 409
#     4  11  20  37  58  93 130 171 224 272 344 398
#     4  10  21  34  55  88 129 167 212 277 346 401
#     4  11  21  34  56  91 132 158 212 266 330 383
#     4  11  22  35  60  95 127 177 223 282 337 404
#     4  11  19  35  62  92 129 170 223 269 324 404
#
# _framework density 19.843229999999998
#
# number of rings (size 3 to 8) (size 9 to 14) (size 15 to 20)
#    0.000    1.429    4.286    3.000    0.000    6.857 
#    0.000    0.000    0.000    5.143    0.000    0.000 
#    0.000    0.000    0.000    0.000    0.000    0.000 
#
# Total GULP energy -312093.197728 kJ/mol
# GULP energy per Si atom -5573.092817 kJ/mol
# Density = 1.979807 g / cm^3
# Si number density = 19.843230 Si / 1000 Ang^3
#
#
#
# Elastic Constant Matrix: (Units=GPa)
#
#
# Indices 1 2 3 4 5 6 
#
# 1 110.0700 84.8634 43.8967 0.0000 0.0000 0.0000
# 2 84.8634 110.0700 43.8967 0.0000 0.0000 0.0000
# 3 43.8967 43.8967 72.7923 0.0000 0.0000 0.0000
# 4 0.0000 0.0000 0.0000 36.3308 0.0000 0.0000
# 5 0.0000 0.0000 0.0000 0.0000 36.3308 0.0000
# 6 0.0000 0.0000 0.0000 0.0000 0.0000 23.4706
#
#
#
# Elastic Compliance Matrix: (Units=1/GPa)
#
#
# Indices 1 2 3 4 5 6 
#
# 1 0.023357 -0.016315 -0.004247 0.000000 0.000000 0.000000
# 2 -0.016315 0.023357 -0.004247 0.000000 0.000000 0.000000
# 3 -0.004247 -0.004247 0.018860 0.000000 0.000000 0.000000
# 4 0.000000 0.000000 0.000000 0.027525 0.000000 0.000000
# 5 0.000000 0.000000 0.000000 0.000000 0.027525 0.000000
# 6 0.000000 0.000000 0.000000 0.000000 0.000000 0.042606
#
#
# Mechanical properties :
#
#
# Convention : Reuss Voigt Hill
#
# Bulk Modulus (GPa) = 62.66739 70.91619 66.79179
# Shear Modulus (GPa) = 22.91816 27.24482 25.08149
#
# Velocity S-wave (km/s) = 3.40216 3.70943 3.55911
# Velocity P-wave (km/s) = 6.86168 7.35950 7.11495
#
# Compressibility (1/GPa) = 0.01595726
#
# Stress axis : x y z
#
# Youngs Moduli (GPa) = 42.81296 42.81296 53.02229
#
# Poissons Ratio (x) = 0.69848 0.22519
# Poissons Ratio (y) = 0.69848 0.22519
# Poissons Ratio (z) = 0.18183 0.18183
#
# Static dielectric constant tensor:
#      x y z
#    x 1.653680 0.000000 0.000000 
#    y 0.000000 1.653680 0.000000 
#    z 0.000000 0.000000 1.768980 
# 
# From -- ./inp_files/17320.got.cif
#   From: 2010.05.17/outbox.cif.g08.bks.cpg/sg91_9_cif.got.tgz:17320.got - 2010.06.03 19:20:03.
