data_PCOD9547581
_publ_section_title
;
Structure prediction by ZEFSAII (Michael W. Deem and Ramdas Pophale) SiO2 
 PCOD9547581
Probable space group: P 41 2 2
;
_chemical_formula_sum "Si O2"
_cell_formula_units_Z 56
_cell_length_a 10.375767
_cell_length_b 10.375767
_cell_length_c 24.916407
_cell_angle_alpha 90.000000
_cell_angle_beta 90.000000
_cell_angle_gamma 90.000000
_cell_volume 2682.414188
_symmetry_space_group_name_H-M "P 41 2 2"
_symmetry_group_IT_number 91
_symmetry_cell_setting 'tetragonal'
loop_
_space_group_symop_operation_xyz
x,y,z
-y,x,1/4+z
-x,-y,1/2+z
y,-x,3/4+z
x,-y,1/2-z
-x,y,-z
y,x,3/4-z
-y,-x,1/4-z
loop_
_atom_site_type_symbol
_atom_site_label
_atom_site_fract_x
_atom_site_fract_y
_atom_site_fract_z
Si Si1 0.686400 0.648794 0.545128
Si Si2 0.019337 0.572559 0.692942
Si Si3 0.271749 0.810523 0.065358
Si Si4 0.687176 0.380607 0.185052
Si Si5 0.302209 0.082456 0.099254
Si Si6 0.514689 0.312656 0.394840
Si Si7 0.243984 0.769429 0.946199
O O1 0.700745 0.621324 0.482680
O O2 0.531255 0.652932 0.555694
O O3 0.723773 0.791673 0.563574
O O4 0.750322 0.552163 0.587561
O O5 0.002054 0.500000 0.750000
O O6 0.159984 0.636725 0.694455
O O7 0.043235 0.454499 0.650775
O O8 0.904709 0.676726 0.686264
O O9 0.235573 0.764428 0.125000
O O10 0.422856 0.769758 0.066585
O O11 0.241855 0.960861 0.069522
O O12 0.218055 0.758183 0.009443
O O13 0.655296 0.344705 0.125000
O O14 0.249585 0.121235 0.157797
O O15 0.435867 0.435867 0.375000
O O16 0.648862 0.333767 0.425353
#
# Coordination Sequence:
#
# PCOD9547581 Si02
#       7
#     8   8   8   8   8   8   8
#     4   9  18  35  53  84 117 157 207 247 306 396
#     4  11  17  38  67  87 116 167 218 253 306 397
#     4  11  22  39  58  91 130 163 212 272 315 379
#     4  10  18  32  55  86 116 157 202 262 311 360
#     4  10  20  37  65  91 115 163 219 253 312 377
#     4  10  20  35  55  87 120 161 205 258 317 384
#     4  11  21  38  69  90 117 173 217 259 320 387
#
# _framework density 20.876715999999998
#
# number of rings (size 3 to 8) (size 9 to 14) (size 15 to 20)
#    0.000    1.714    5.714    0.857    0.000    0.571 
#   28.286    0.714    0.000    5.143    0.000    0.000 
#    0.000    0.000    0.000    0.000    0.000    0.000 
#
# Total GULP energy -311893.068849 kJ/mol
# GULP energy per Si atom -5569.519087 kJ/mol
# Density = 2.082920 g / cm^3
# Si number density = 20.876716 Si / 1000 Ang^3
#
#
#
# Elastic Constant Matrix: (Units=GPa)
#
#
# Indices 1 2 3 4 5 6 
#
# 1 18.5381 26.6839 25.5905 0.0000 0.0000 0.0000
# 2 26.6839 18.5380 25.5904 0.0000 0.0000 0.0000
# 3 25.5905 25.5904 195.8683 0.0000 0.0000 0.0000
# 4 0.0000 0.0000 0.0000 29.9076 0.0000 0.0000
# 5 0.0000 0.0000 0.0000 0.0000 29.9077 0.0000
# 6 0.0000 0.0000 0.0000 0.0000 0.0000 18.9490
#
#
#
# Elastic Compliance Matrix: (Units=1/GPa)
#
#
# Indices 1 2 3 4 5 6 
#
# 1 -0.048406 0.074356 -0.003390 0.000000 0.000000 0.000000
# 2 0.074356 -0.048406 -0.003390 0.000000 0.000000 0.000000
# 3 -0.003390 -0.003390 0.005991 0.000000 0.000000 0.000000
# 4 0.000000 0.000000 0.000000 0.033436 0.000000 0.000000
# 5 0.000000 0.000000 0.000000 0.000000 0.033436 0.000000
# 6 0.000000 0.000000 0.000000 0.000000 0.000000 0.052773
#
#
# Mechanical properties :
#
#
# Convention : Reuss Voigt Hill
#
# Bulk Modulus (GPa) = 22.55792 43.18601 32.87196
# Shear Modulus (GPa) = -54.61581 26.09149 -14.26216
#
# Velocity S-wave (km/s) = -5.12034 3.53907 -2.61657
# Velocity P-wave (km/s) = 4.91207 6.11810 2.57902
#
# Compressibility (1/GPa) = 0.04433033
#
# Stress axis : x y z
#
# Youngs Moduli (GPa) = -20.65869 -20.65856 166.90569
#
# Poissons Ratio (x) = 1.53609 0.56589
# Poissons Ratio (y) = 1.53610 0.56588
# Poissons Ratio (z) = -0.07004 -0.07004
#
# Static dielectric constant tensor:
#      x y z
#    x 1.819150 0.000000 0.000000 
#    y 0.000000 1.819150 0.000000 
#    z 0.000000 0.000000 1.804100 
# 
# From -- ./inp_files/21826.got.cif
#   From: 2010.05.17/outbox.cif.g08.bks.cpg/sg91_11_cif.got.tgz:21826.got - 2010.06.03 19:20:03.
