data_PCOD9547938
_publ_section_title
;
Structure prediction by ZEFSAII (Michael W. Deem and Ramdas Pophale) SiO2 
 PCOD9547938
Probable space group: P 41 2 2
;
_chemical_formula_sum "Si O2"
_cell_formula_units_Z 48
_cell_length_a 12.889911
_cell_length_b 12.889911
_cell_length_c 14.167916
_cell_angle_alpha 90.000000
_cell_angle_beta 90.000000
_cell_angle_gamma 90.000000
_cell_volume 2353.996489
_symmetry_space_group_name_H-M "P 41 2 2"
_symmetry_group_IT_number 91
_symmetry_cell_setting 'tetragonal'
loop_
_space_group_symop_operation_xyz
x,y,z
-y,x,1/4+z
-x,-y,1/2+z
y,-x,3/4+z
x,-y,1/2-z
-x,y,-z
y,x,3/4-z
-y,-x,1/4-z
loop_
_atom_site_type_symbol
_atom_site_label
_atom_site_fract_x
_atom_site_fract_y
_atom_site_fract_z
Si Si1 0.893073 0.115998 0.732460
Si Si2 0.540290 0.878797 0.774135
Si Si3 0.786964 0.715947 0.088571
Si Si4 0.844424 0.702921 0.512022
Si Si5 0.261208 0.604553 0.192390
Si Si6 0.966816 0.797876 0.366036
O O1 0.865240 0.134761 0.625000
O O2 0.792920 0.124333 0.800046
O O3 0.982392 0.196493 0.763597
O O4 0.932989 0.000000 0.750000
O O5 0.600575 0.817330 0.691309
O O6 0.418634 0.852234 0.781053
O O7 0.589393 0.836963 0.872421
O O8 0.550827 0.000000 0.750000
O O9 0.752531 0.740455 0.195054
O O10 0.691769 0.752585 0.021774
O O11 0.879237 0.720273 0.404218
O O12 0.932671 0.767434 0.570738
O O13 0.283100 0.500000 0.250000
O O14 0.354102 0.645899 0.125000
O O15 0.908169 0.908169 0.375000
#
# Coordination Sequence:
#
# PCOD9547938 Si02
#       6
#     8   8   8   8   8   8
#     4  11  23  35  56  88 125 162 209 261 309 385
#     4  11  20  38  65  90 128 166 218 272 335 399
#     4  10  22  38  59  96 129 160 209 279 334 388
#     4  10  21  40  62  92 121 178 216 259 335 407
#     4  10  20  37  64  98 126 166 217 274 343 400
#     4  10  22  37  60  85 126 173 218 251 317 397
#
# _framework density 20.390854000000001
#
# number of rings (size 3 to 8) (size 9 to 14) (size 15 to 20)
#    0.000    1.667    3.333    2.500    9.333    0.000 
#    3.000    0.000    0.000    4.000    0.000    0.000 
#    0.000    0.000    0.000    0.000    0.000    0.000 
#
# Total GULP energy -267315.854476 kJ/mol
# GULP energy per Si atom -5569.080302 kJ/mol
# Density = 2.034444 g / cm^3
# Si number density = 20.390854 Si / 1000 Ang^3
#
#
#
# Elastic Constant Matrix: (Units=GPa)
#
#
# Indices 1 2 3 4 5 6 
#
# 1 70.9499 46.4595 29.4262 0.0000 0.0000 0.0000
# 2 46.4595 70.9502 29.4263 0.0000 0.0000 0.0000
# 3 29.4262 29.4263 86.5397 0.0000 0.0000 0.0000
# 4 0.0000 0.0000 0.0000 32.1999 0.0000 0.0000
# 5 0.0000 0.0000 0.0000 0.0000 32.1999 0.0000
# 6 0.0000 0.0000 0.0000 0.0000 0.0000 15.0975
#
#
#
# Elastic Compliance Matrix: (Units=1/GPa)
#
#
# Indices 1 2 3 4 5 6 
#
# 1 0.025550 -0.015282 -0.003491 0.000000 0.000000 0.000000
# 2 -0.015282 0.025550 -0.003491 0.000000 0.000000 0.000000
# 3 -0.003491 -0.003491 0.013930 0.000000 0.000000 0.000000
# 4 0.000000 0.000000 0.000000 0.031056 0.000000 0.000000
# 5 0.000000 0.000000 0.000000 0.000000 0.031056 0.000000
# 6 0.000000 0.000000 0.000000 0.000000 0.000000 0.066236
#
#
# Mechanical properties :
#
#
# Convention : Reuss Voigt Hill
#
# Bulk Modulus (GPa) = 48.78219 48.78487 48.78353
# Shear Modulus (GPa) = 20.42987 24.10798 22.26893
#
# Velocity S-wave (km/s) = 3.16874 3.44218 3.30828
# Velocity P-wave (km/s) = 6.11256 6.30674 6.21041
#
# Compressibility (1/GPa) = 0.02049928
#
# Stress axis : x y z
#
# Youngs Moduli (GPa) = 39.13937 39.13955 71.78960
#
# Poissons Ratio (x) = 0.59815 0.25063
# Poissons Ratio (y) = 0.59815 0.25063
# Poissons Ratio (z) = 0.13664 0.13664
#
# Static dielectric constant tensor:
#      x y z
#    x 1.759480 0.000000 0.000000 
#    y 0.000000 1.759480 0.000000 
#    z 0.000000 0.000000 1.820310 
# 
# From -- ./inp_files/11957.got.cif
#   From: 2010.05.17/outbox.cif.g08.bks.cpg/sg91_6_cif.got.tgz:11957.got - 2010.06.03 19:20:03.
