data_PCOD9547024
_publ_section_title
;
Structure prediction by ZEFSAII (Michael W. Deem and Ramdas Pophale) SiO2 
 PCOD9547024
Probable space group: P 4 2 2
;
_chemical_formula_sum "Si O2"
_cell_formula_units_Z 48
_cell_length_a 8.725764
_cell_length_b 8.725764
_cell_length_c 32.563503
_cell_angle_alpha 90.000000
_cell_angle_beta 90.000000
_cell_angle_gamma 90.000000
_cell_volume 2479.351167
_symmetry_space_group_name_H-M "P 4 2 2"
_symmetry_group_IT_number 89
_symmetry_cell_setting 'tetragonal'
loop_
_space_group_symop_operation_xyz
x,y,z
-y,x,z
-x,-y,z
y,-x,z
x,-y,-z
-x,y,-z
y,x,-z
-y,-x,-z
loop_
_atom_site_type_symbol
_atom_site_label
_atom_site_fract_x
_atom_site_fract_y
_atom_site_fract_z
Si Si1 0.025782 0.255721 0.045623
Si Si2 0.184309 0.184309 0.500000
Si Si3 0.250726 0.432869 0.822274
Si Si4 0.354852 0.713818 0.582709
Si Si5 0.236013 0.897492 0.659428
Si Si6 0.418087 0.745360 0.729739
Si Si7 0.000000 0.500000 0.886771
O O1 0.058852 0.372953 0.081724
O O2 0.868946 0.159843 0.049082
O O3 0.000000 0.324217 0.000000
O O4 0.239504 0.283147 0.539003
O O5 0.000000 0.207766 0.500000
O O6 0.395570 0.319982 0.825967
O O7 0.190240 0.406321 0.775998
O O8 0.124454 0.421773 0.857156
O O9 0.295963 0.538755 0.587844
O O10 0.299302 0.837613 0.616018
O O11 0.357052 0.855139 0.694631
O O12 0.075398 0.806092 0.663209
O O13 0.314227 0.591779 0.725713
#
# Coordination Sequence:
#
# PCOD9547024 Si02
#       7
#     8   4   8   8   8   8   4
#     4   9  19  35  52  74 108 146 184 229 280 337
#     4  11  24  41  62  90 124 157 192 237 288 340
#     4   9  20  36  52  76 110 142 176 224 279 334
#     4  11  24  41  62  89 118 152 196 238 280 341
#     4  11  24  39  57  85 117 146 184 235 286 335
#     4   9  19  37  58  78 104 142 185 224 270 334
#     4  12  19  30  56  84 104 138 188 232 279 338
#
# _framework density 19.359902000000002
#
# number of rings (size 3 to 8) (size 9 to 14) (size 15 to 20)
#    0.000    1.917    0.000    5.250    0.000   11.333 
#    0.000    0.000    0.000    2.000    0.000    7.000 
#    0.000    0.000    0.000    0.000    0.000    0.000 
#
# Total GULP energy -267744.272618 kJ/mol
# GULP energy per Si atom -5578.005680 kJ/mol
# Density = 1.931584 g / cm^3
# Si number density = 19.359902 Si / 1000 Ang^3
#
#
#
# Elastic Constant Matrix: (Units=GPa)
#
#
# Indices 1 2 3 4 5 6 
#
# 1 37.0721 12.5971 23.2113 0.0000 0.0000 0.0000
# 2 12.5971 37.0721 23.2113 0.0000 0.0000 0.0000
# 3 23.2113 23.2113 125.8539 0.0000 0.0000 0.0000
# 4 0.0000 0.0000 0.0000 54.0732 0.0000 0.0000
# 5 0.0000 0.0000 0.0000 0.0000 54.0732 0.0000
# 6 0.0000 0.0000 0.0000 0.0000 0.0000 24.6841
#
#
#
# Elastic Compliance Matrix: (Units=1/GPa)
#
#
# Indices 1 2 3 4 5 6 
#
# 1 0.032592 -0.008266 -0.004487 0.000000 0.000000 0.000000
# 2 -0.008266 0.032592 -0.004487 0.000000 0.000000 0.000000
# 3 -0.004487 -0.004487 0.009601 0.000000 0.000000 0.000000
# 4 0.000000 0.000000 0.000000 0.018493 0.000000 0.000000
# 5 0.000000 0.000000 0.000000 0.000000 0.018493 0.000000
# 6 0.000000 0.000000 0.000000 0.000000 0.000000 0.040512
#
#
# Mechanical properties :
#
#
# Convention : Reuss Voigt Hill
#
# Bulk Modulus (GPa) = 24.80931 35.33747 30.07339
# Shear Modulus (GPa) = 24.97537 35.96468 30.47002
#
# Velocity S-wave (km/s) = 3.59563 4.31477 3.97151
# Velocity P-wave (km/s) = 5.48459 6.56624 6.04964
#
# Compressibility (1/GPa) = 0.04030746
#
# Stress axis : x y z
#
# Youngs Moduli (GPa) = 30.68217 30.68217 104.15978
#
# Poissons Ratio (x) = 0.25361 0.46732
# Poissons Ratio (y) = 0.25361 0.46732
# Poissons Ratio (z) = 0.13766 0.13766
#
# Static dielectric constant tensor:
#      x y z
#    x 1.672980 0.000000 0.000000 
#    y 0.000000 1.672980 0.000000 
#    z 0.000000 0.000000 1.676640 
# 
# From -- ./inp_files/3005.got.cif
#   From: 2010.05.17/outbox.cif.g08.bks.cpg/sg89_2_cif.got.tgz:3005.got - 2010.06.03 19:15:31.
