data_PCOD9547050
_publ_section_title
;
Structure prediction by ZEFSAII (Michael W. Deem and Ramdas Pophale) SiO2 
 PCOD9547050
Probable space group: P 4 2 2
;
_chemical_formula_sum "Si O2"
_cell_formula_units_Z 18
_cell_length_a 8.276210
_cell_length_b 8.276210
_cell_length_c 11.865503
_cell_angle_alpha 90.000000
_cell_angle_beta 90.000000
_cell_angle_gamma 90.000000
_cell_volume 812.735364
_symmetry_space_group_name_H-M "P 4 2 2"
_symmetry_group_IT_number 89
_symmetry_cell_setting 'tetragonal'
loop_
_space_group_symop_operation_xyz
x,y,z
-y,x,z
-x,-y,z
y,-x,z
x,-y,-z
-x,y,-z
y,x,-z
-y,-x,-z
loop_
_atom_site_type_symbol
_atom_site_label
_atom_site_fract_x
_atom_site_fract_y
_atom_site_fract_z
Si Si1 0.737943 0.073269 0.313240
Si Si2 0.500000 0.000000 0.500000
Si Si3 0.766272 0.456837 0.870658
O O1 0.616666 0.099611 0.417248
O O2 0.632285 0.096028 0.200681
O O3 0.892414 0.190246 0.319249
O O4 0.674755 0.624129 0.845546
O O5 0.810613 0.500000 0.000000
#
# Coordination Sequence:
#
# PCOD9547050 Si02
#       3
#     8   2   8
#     4  11  24  43  69 100 134 177 231 293 360 422
#     4  12  24  42  66  90 128 174 220 284 352 426
#     4   9  19  40  67  97 135 181 228 274 336 417
#
# _framework density 22.147428999999999
#
# number of rings (size 3 to 8) (size 9 to 14) (size 15 to 20)
#    0.000    1.778    0.000    5.333    0.000    1.778 
#    0.000   32.222    0.000   24.000    0.000    0.000 
#    0.000    0.000    0.000    0.000    0.000    0.000 
#
# Total GULP energy -100228.012234 kJ/mol
# GULP energy per Si atom -5568.222902 kJ/mol
# Density = 2.209702 g / cm^3
# Si number density = 22.147429 Si / 1000 Ang^3
#
#
#
# Elastic Constant Matrix: (Units=GPa)
#
#
# Indices 1 2 3 4 5 6 
#
# 1 130.2459 85.6001 62.9881 0.0000 0.0000 0.0000
# 2 85.6001 130.2459 62.9881 0.0000 0.0000 0.0000
# 3 62.9881 62.9881 115.8024 0.0000 0.0000 0.0000
# 4 0.0000 0.0000 0.0000 35.9958 0.0000 0.0000
# 5 0.0000 0.0000 0.0000 0.0000 35.9958 0.0000
# 6 0.0000 0.0000 0.0000 0.0000 0.0000 64.8774
#
#
#
# Elastic Compliance Matrix: (Units=1/GPa)
#
#
# Indices 1 2 3 4 5 6 
#
# 1 0.014593 -0.007805 -0.003692 0.000000 0.000000 0.000000
# 2 -0.007805 0.014593 -0.003692 0.000000 0.000000 0.000000
# 3 -0.003692 -0.003692 0.012652 0.000000 0.000000 0.000000
# 4 0.000000 0.000000 0.000000 0.027781 0.000000 0.000000
# 5 0.000000 0.000000 0.000000 0.000000 0.027781 0.000000
# 6 0.000000 0.000000 0.000000 0.000000 0.000000 0.015414
#
#
# Mechanical properties :
#
#
# Convention : Reuss Voigt Hill
#
# Bulk Modulus (GPa) = 87.26663 88.82744 88.04703
# Shear Modulus (GPa) = 34.01071 38.35498 36.18285
#
# Velocity S-wave (km/s) = 3.92299 4.16601 4.04632
# Velocity P-wave (km/s) = 7.74648 7.95834 7.85313
#
# Compressibility (1/GPa) = 0.01145913
#
# Stress axis : x y z
#
# Youngs Moduli (GPa) = 68.52538 68.52538 79.04006
#
# Poissons Ratio (x) = 0.53487 0.29182
# Poissons Ratio (y) = 0.53487 0.29182
# Poissons Ratio (z) = 0.25300 0.25300
#
# Static dielectric constant tensor:
#      x y z
#    x 2.014890 0.000000 0.000000 
#    y 0.000000 2.014890 0.000000 
#    z 0.000000 0.000000 1.860540 
# 
# From -- ./inp_files/1423.got.cif
#   From: 2010.05.17/outbox.cif.g08.bks.cpg/sg89_1_cif.got.tgz:1423.got - 2010.06.03 19:15:31.
