data_PCOD9547192
_publ_section_title
;
Structure prediction by ZEFSAII (Michael W. Deem and Ramdas Pophale) SiO2 
 PCOD9547192
Probable space group: P 4 21 2
;
_chemical_formula_sum "Si O2"
_cell_formula_units_Z 42
_cell_length_a 15.213076
_cell_length_b 15.213076
_cell_length_c 8.339163
_cell_angle_alpha 90.000000
_cell_angle_beta 90.000000
_cell_angle_gamma 90.000000
_cell_volume 1929.996549
_symmetry_space_group_name_H-M "P 4 21 2"
_symmetry_group_IT_number 90
_symmetry_cell_setting 'tetragonal'
loop_
_space_group_symop_operation_xyz
x,y,z
1/2-y,1/2+x,z
-x,-y,z
1/2+y,1/2-x,z
1/2+x,1/2-y,-z
1/2-x,1/2+y,-z
y,x,-z
-y,-x,-z
loop_
_atom_site_type_symbol
_atom_site_label
_atom_site_fract_x
_atom_site_fract_y
_atom_site_fract_z
Si Si1 0.144447 0.479338 0.473347
Si Si2 0.844480 0.633837 0.926482
Si Si3 0.518447 0.230363 0.863877
Si Si4 0.000000 0.500000 0.839611
Si Si5 0.225096 0.859767 0.354647
Si Si6 0.044704 0.912412 0.185453
O O1 0.094986 0.570712 0.505372
O O2 0.171692 0.489828 0.288158
O O3 0.227241 0.447062 0.575382
O O4 0.924367 0.576786 0.855267
O O5 0.787576 0.676759 0.785785
O O6 0.892583 0.696763 0.053636
O O7 0.781799 0.563149 0.014217
O O8 0.521929 0.330882 0.812282
O O9 0.207238 0.792763 0.500000
O O10 0.131177 0.884433 0.281348
O O11 0.069329 0.930672 0.000000
O O12 0.000000 0.000000 0.251135
#
# Coordination Sequence:
#
# PCOD9547192 Si02
#       6
#     8   8   8   2   8   8
#     4  11  25  42  70 110 152 183 225 300 384 441
#     4  10  22  38  75 105 138 184 235 297 364 437
#     4  11  20  44  73 102 137 183 245 298 359 429
#     4   8  20  36  68 106 136 164 224 286 368 428
#     4  12  26  45  69 103 152 192 234 300 366 437
#     4  11  25  48  73  97 136 197 257 300 350 429
#
# _framework density 21.761697000000002
#
# number of rings (size 3 to 8) (size 9 to 14) (size 15 to 20)
#    0.000    1.143    5.714    0.000    5.333    0.381 
#    0.000   11.429    0.000    0.000    0.000    0.000 
#    0.000    0.000    0.000    0.000    0.000    0.000 
#
# Total GULP energy -234291.770042 kJ/mol
# GULP energy per Si atom -5578.375477 kJ/mol
# Density = 2.171217 g / cm^3
# Si number density = 21.761697 Si / 1000 Ang^3
#
#
#
# Elastic Constant Matrix: (Units=GPa)
#
#
# Indices 1 2 3 4 5 6 
#
# 1 71.0293 57.6642 18.5197 0.0000 0.0000 0.0000
# 2 57.6642 71.0262 18.5187 0.0000 0.0000 0.0000
# 3 18.5197 18.5187 81.7694 0.0000 0.0000 0.0000
# 4 0.0000 0.0000 0.0000 -0.3695 0.0000 0.0000
# 5 0.0000 0.0000 0.0000 0.0000 -0.3687 0.0000
# 6 0.0000 0.0000 0.0000 0.0000 0.0000 8.8208
#
#
#
# Elastic Compliance Matrix: (Units=1/GPa)
#
#
# Indices 1 2 3 4 5 6 
#
# 1 0.041571 -0.033259 -0.001883 0.000000 0.000000 0.000000
# 2 -0.033259 0.041572 -0.001882 0.000000 0.000000 0.000000
# 3 -0.001883 -0.001882 0.013082 0.000000 0.000000 0.000000
# 4 0.000000 0.000000 0.000000 -2.706382 0.000000 0.000000
# 5 0.000000 0.000000 0.000000 0.000000 -2.711950 0.000000
# 6 0.000000 0.000000 0.000000 0.000000 0.000000 0.113368
#
#
# Mechanical properties :
#
#
# Convention : Reuss Voigt Hill
#
# Bulk Modulus (GPa) = 45.09269 45.91448 45.50359
# Shear Modulus (GPa) = -0.97517 10.22466 4.62475
#
# Velocity S-wave (km/s) = -0.67014 2.16995 1.45938
# Velocity P-wave (km/s) = 4.49080 5.23668 4.87802
#
# Compressibility (1/GPa) = 0.02217654
#
# Stress axis : x y z
#
# Youngs Moduli (GPa) = 24.05538 24.05445 76.43945
#
# Poissons Ratio (x) = 0.80003 0.14393
# Poissons Ratio (y) = 0.80006 0.14388
# Poissons Ratio (z) = 0.04529 0.04528
#
# Static dielectric constant tensor:
#      x y z
#    x 1.776820 0.000000 0.000000 
#    y 0.000000 1.776810 0.000000 
#    z 0.000000 0.000000 1.870880 
# 
# From -- ./inp_files/1349.got.cif
#   From: 2010.05.17/outbox.cif.g08.bks.cpg/sg90_1_cif.got.tgz:1349.got - 2010.06.03 19:17:45.
