data_PCOD9547153
_publ_section_title
;
Structure prediction by ZEFSAII (Michael W. Deem and Ramdas Pophale) SiO2 
 PCOD9547153
Probable space group: P 4 21 2
;
_chemical_formula_sum "Si O2"
_cell_formula_units_Z 58
_cell_length_a 17.893554
_cell_length_b 17.893554
_cell_length_c 9.688279
_cell_angle_alpha 90.000000
_cell_angle_beta 90.000000
_cell_angle_gamma 90.000000
_cell_volume 3101.986144
_symmetry_space_group_name_H-M "P 4 21 2"
_symmetry_group_IT_number 90
_symmetry_cell_setting 'tetragonal'
loop_
_space_group_symop_operation_xyz
x,y,z
1/2-y,1/2+x,z
-x,-y,z
1/2+y,1/2-x,z
1/2+x,1/2-y,-z
1/2-x,1/2+y,-z
y,x,-z
-y,-x,-z
loop_
_atom_site_type_symbol
_atom_site_label
_atom_site_fract_x
_atom_site_fract_y
_atom_site_fract_z
Si Si1 0.882959 0.960881 0.218663
Si Si2 0.237097 0.117454 0.021136
Si Si3 0.228606 0.014072 0.456579
Si Si4 0.153967 0.757112 0.604407
Si Si5 0.806487 0.966653 0.762626
Si Si6 0.905673 0.651949 0.734199
Si Si7 0.621250 0.634131 0.840558
Si Si8 0.500000 0.000000 0.246126
O O1 0.823904 0.932219 0.104639
O O2 0.843544 0.963881 0.367338
O O3 0.941022 0.893242 0.225195
O O4 0.902232 0.046364 0.181241
O O5 0.309289 0.110897 0.117521
O O6 0.198931 0.198931 0.000000
O O7 0.241912 0.079851 0.871889
O O8 0.223706 0.046620 0.609222
O O9 0.297293 0.039465 0.360305
O O10 0.228817 0.924834 0.470888
O O11 0.219158 0.780843 0.500000
O O12 0.155394 0.672513 0.653568
O O13 0.151134 0.810549 0.738200
O O14 0.811305 0.053304 0.802851
O O15 0.939015 0.569914 0.751354
O O16 0.642340 0.642340 0.000000
#
# Coordination Sequence:
#
# PCOD9547153 Si02
#       8
#     8   8   8   8   8   8   8   2
#     4   9  19  31  52  86 128 171 212 239 301 390
#     4   9  20  37  59  92 129 166 210 265 319 398
#     4  10  21  39  59  90 125 162 209 274 318 390
#     4  11  23  41  63  95 126 162 218 272 337 395
#     4  11  19  33  59  88 130 166 205 250 323 387
#     4  11  24  44  70  93 122 167 231 274 336 394
#     4  11  21  33  54  88 131 176 206 258 311 384
#     4  12  24  44  80  94 116 184 240 290 308 392
#
# _framework density 18.697697999999999
#
# number of rings (size 3 to 8) (size 9 to 14) (size 15 to 20)
#    0.000    1.655    4.138    0.828    0.000    4.414 
#    0.000    1.379    3.034    0.828    0.000    0.000 
#    0.000    0.000    0.000    0.000    0.000    0.000 
#
# Total GULP energy -323055.658496 kJ/mol
# GULP energy per Si atom -5569.925146 kJ/mol
# Density = 1.865514 g / cm^3
# Si number density = 18.697698 Si / 1000 Ang^3
#
#
#
# Elastic Constant Matrix: (Units=GPa)
#
#
# Indices 1 2 3 4 5 6 
#
# 1 81.7109 27.2641 31.5269 0.0000 0.0000 0.0000
# 2 27.2641 81.7103 31.5270 0.0000 0.0000 0.0000
# 3 31.5269 31.5270 144.7580 0.0000 0.0000 0.0000
# 4 0.0000 0.0000 0.0000 11.8804 0.0000 0.0000
# 5 0.0000 0.0000 0.0000 0.0000 11.8800 0.0000
# 6 0.0000 0.0000 0.0000 0.0000 0.0000 19.5875
#
#
#
# Elastic Compliance Matrix: (Units=1/GPa)
#
#
# Indices 1 2 3 4 5 6 
#
# 1 0.014433 -0.003934 -0.002287 0.000000 0.000000 0.000000
# 2 -0.003934 0.014433 -0.002287 0.000000 0.000000 0.000000
# 3 -0.002287 -0.002287 0.007904 0.000000 0.000000 0.000000
# 4 0.000000 0.000000 0.000000 0.084172 0.000000 0.000000
# 5 0.000000 0.000000 0.000000 0.000000 0.084175 0.000000
# 6 0.000000 0.000000 0.000000 0.000000 0.000000 0.051053
#
#
# Mechanical properties :
#
#
# Convention : Reuss Voigt Hill
#
# Bulk Modulus (GPa) = 50.61649 54.31281 52.46465
# Shear Modulus (GPa) = 17.87183 23.19366 20.53274
#
# Velocity S-wave (km/s) = 3.09500 3.52583 3.31742
# Velocity P-wave (km/s) = 6.31679 6.75916 6.54171
#
# Compressibility (1/GPa) = 0.01975641
#
# Stress axis : x y z
#
# Youngs Moduli (GPa) = 69.28543 69.28482 126.51614
#
# Poissons Ratio (x) = 0.27254 0.28930
# Poissons Ratio (y) = 0.27254 0.28931
# Poissons Ratio (z) = 0.15843 0.15844
#
# Static dielectric constant tensor:
#      x y z
#    x 1.650770 0.000000 0.000000 
#    y 0.000000 1.650770 0.000000 
#    z 0.000000 0.000000 1.647220 
# 
# From -- ./inp_files/1638.got.cif
#   From: 2010.05.17/outbox.cif.g08.bks.cpg/sg90_1_cif.got.tgz:1638.got - 2010.06.03 19:17:45.
