data_PCOD9547026
_publ_section_title
;
Structure prediction by ZEFSAII (Michael W. Deem and Ramdas Pophale) SiO2 
 PCOD9547026
Probable space group: P 4 2 2
;
_chemical_formula_sum "Si O2"
_cell_formula_units_Z 40
_cell_length_a 8.949639
_cell_length_b 8.949639
_cell_length_c 26.663127
_cell_angle_alpha 90.000000
_cell_angle_beta 90.000000
_cell_angle_gamma 90.000000
_cell_volume 2135.610840
_symmetry_space_group_name_H-M "P 4 2 2"
_symmetry_group_IT_number 89
_symmetry_cell_setting 'tetragonal'
loop_
_space_group_symop_operation_xyz
x,y,z
-y,x,z
-x,-y,z
y,-x,z
x,-y,-z
-x,y,-z
y,x,-z
-y,-x,-z
loop_
_atom_site_type_symbol
_atom_site_label
_atom_site_fract_x
_atom_site_fract_y
_atom_site_fract_z
Si Si1 0.000000 0.500000 0.868949
Si Si2 0.205688 0.143330 0.403658
Si Si3 0.254114 0.466331 0.058149
Si Si4 0.720047 0.381539 0.313301
Si Si5 0.588537 0.737369 0.197561
Si Si6 0.677969 0.677969 0.500000
O O1 0.884868 0.425141 0.907646
O O2 0.888778 0.600507 0.834899
O O3 0.302046 0.181269 0.354552
O O4 0.272001 0.227250 0.451806
O O5 0.035143 0.199083 0.404207
O O6 0.378322 0.340362 0.068797
O O7 0.213739 0.500000 0.000000
O O8 0.693971 0.557683 0.320234
O O9 0.772654 0.373896 0.255602
O O10 0.415043 0.684109 0.189148
O O11 0.500000 0.701604 0.500000
#
# Coordination Sequence:
#
# PCOD9547026 Si02
#       6
#     4   8   8   8   8   4
#     4  12  19  28  56  88 110 140 187 240 292 342
#     4  11  24  39  57  85 120 152 184 228 285 347
#     4   9  19  36  56  79 110 148 191 239 290 348
#     4   9  19  37  59  81 107 144 191 235 275 330
#     4   9  20  37  55  79 111 145 186 234 279 333
#     4  11  24  41  62  88 114 145 192 241 280 332
#
# _framework density 18.730004000000001
#
# number of rings (size 3 to 8) (size 9 to 14) (size 15 to 20)
#    0.000    2.100    0.000    5.100    0.000   11.200 
#    0.000    0.000    0.000    9.600    0.000   11.200 
#    0.000    0.000    0.000    0.000    0.000    0.000 
#
# Total GULP energy -222698.105154 kJ/mol
# GULP energy per Si atom -5567.452629 kJ/mol
# Density = 1.868737 g / cm^3
# Si number density = 18.730004 Si / 1000 Ang^3
#
#
#
# Elastic Constant Matrix: (Units=GPa)
#
#
# Indices 1 2 3 4 5 6 
#
# 1 168.3144 -36.0671 70.3780 0.0000 0.0000 0.0000
# 2 -36.0671 168.3144 70.3780 0.0000 0.0000 0.0000
# 3 70.3780 70.3780 128.0931 0.0000 0.0000 0.0000
# 4 0.0000 0.0000 0.0000 34.9497 0.0000 0.0000
# 5 0.0000 0.0000 0.0000 0.0000 34.9497 0.0000
# 6 0.0000 0.0000 0.0000 0.0000 0.0000 25.0011
#
#
#
# Elastic Compliance Matrix: (Units=1/GPa)
#
#
# Indices 1 2 3 4 5 6 
#
# 1 0.011552 0.006659 -0.010006 0.000000 0.000000 0.000000
# 2 0.006659 0.011552 -0.010006 0.000000 0.000000 0.000000
# 3 -0.010006 -0.010006 0.018802 0.000000 0.000000 0.000000
# 4 0.000000 0.000000 0.000000 0.028613 0.000000 0.000000
# 5 0.000000 0.000000 0.000000 0.000000 0.028613 0.000000
# 6 0.000000 0.000000 0.000000 0.000000 0.000000 0.039998
#
#
# Mechanical properties :
#
#
# Convention : Reuss Voigt Hill
#
# Bulk Modulus (GPa) = 65.78508 74.89999 70.34253
# Shear Modulus (GPa) = 29.25683 42.98228 36.11956
#
# Velocity S-wave (km/s) = 3.95654 4.79564 4.39616
# Velocity P-wave (km/s) = 7.48808 8.41073 7.96278
#
# Compressibility (1/GPa) = 0.01520102
#
# Stress axis : x y z
#
# Youngs Moduli (GPa) = 86.56577 86.56577 53.18696
#
# Poissons Ratio (x) = -0.57645 0.53217
# Poissons Ratio (y) = -0.57645 0.53217
# Poissons Ratio (z) = 0.86615 0.86615
#
# Static dielectric constant tensor:
#      x y z
#    x 1.645870 0.000000 0.000000 
#    y 0.000000 1.645870 0.000000 
#    z 0.000000 0.000000 1.707660 
# 
# From -- ./inp_files/2862.got.cif
#   From: 2010.05.17/outbox.cif.g08.bks.cpg/sg89_2_cif.got.tgz:2862.got - 2010.06.03 19:15:31.
