data_PCOD9547005
_publ_section_title
;
Structure prediction by ZEFSAII (Michael W. Deem and Ramdas Pophale) SiO2 
 PCOD9547005
Probable space group: P 4 2 2
;
_chemical_formula_sum "Si O2"
_cell_formula_units_Z 48
_cell_length_a 8.408640
_cell_length_b 8.408640
_cell_length_c 31.863208
_cell_angle_alpha 90.000000
_cell_angle_beta 90.000000
_cell_angle_gamma 90.000000
_cell_volume 2252.895343
_symmetry_space_group_name_H-M "P 4 2 2"
_symmetry_group_IT_number 89
_symmetry_cell_setting 'tetragonal'
loop_
_space_group_symop_operation_xyz
x,y,z
-y,x,z
-x,-y,z
y,-x,z
x,-y,-z
-x,y,-z
y,x,-z
-y,-x,-z
loop_
_atom_site_type_symbol
_atom_site_label
_atom_site_fract_x
_atom_site_fract_y
_atom_site_fract_z
Si Si1 0.755772 0.579916 0.708296
Si Si2 0.706343 0.324294 0.044429
Si Si3 0.733225 0.362050 0.135238
Si Si4 0.907949 0.249365 0.216302
Si Si5 0.035196 0.265283 0.547058
Si Si6 0.759134 0.426255 0.385725
O O1 0.598926 0.690802 0.711429
O O2 0.865480 0.631647 0.746278
O O3 0.824180 0.599248 0.661461
O O4 0.713364 0.517324 0.044429
O O5 0.784990 0.293871 0.089482
O O6 0.754513 0.245488 0.000000
O O7 0.707832 0.553248 0.138828
O O8 0.855333 0.317812 0.171484
O O9 0.089325 0.196826 0.219937
O O10 0.111314 0.388062 0.579423
O O11 0.872576 0.168475 0.552616
O O12 0.000000 0.326732 0.500000
O O13 0.688040 0.603966 0.389456
#
# Coordination Sequence:
#
# PCOD9547005 Si02
#       6
#     8   8   8   8   8   8
#     4   9  19  37  60  84 109 136 170 216 268 321
#     4   7  10  19  39  69 100 125 156 207 268 322
#     4   9  17  30  51  77 102 132 172 218 269 323
#     4  11  24  37  48  70 106 144 181 219 260 312
#     4   9  19  37  55  77 111 148 183 216 251 296
#     4   9  19  37  61  89 116 140 173 220 269 315
#
# _framework density 21.305916
#
# number of rings (size 3 to 8) (size 9 to 14) (size 15 to 20)
#    0.000    3.000    0.000    4.000    0.000    6.000 
#    0.000   13.333    0.000    5.000    0.000    5.833 
#    0.000    0.000    0.000    0.000    0.000    0.000 
#
# Total GULP energy -267377.891790 kJ/mol
# GULP energy per Si atom -5570.372746 kJ/mol
# Density = 2.125742 g / cm^3
# Si number density = 21.305916 Si / 1000 Ang^3
#
#
#
# Elastic Constant Matrix: (Units=GPa)
#
#
# Indices 1 2 3 4 5 6 
#
# 1 33.0574 45.5607 52.3973 0.0000 0.0000 0.0000
# 2 45.5607 33.0576 52.3974 0.0000 0.0000 0.0000
# 3 52.3973 52.3974 196.5292 0.0000 0.0000 0.0000
# 4 0.0000 0.0000 0.0000 6.1183 0.0000 0.0000
# 5 0.0000 0.0000 0.0000 0.0000 6.1182 0.0000
# 6 0.0000 0.0000 0.0000 0.0000 0.0000 34.2612
#
#
#
# Elastic Compliance Matrix: (Units=1/GPa)
#
#
# Indices 1 2 3 4 5 6 
#
# 1 -0.030124 0.049856 -0.005261 0.000000 0.000000 0.000000
# 2 0.049856 -0.030124 -0.005261 0.000000 0.000000 0.000000
# 3 -0.005261 -0.005261 0.007894 0.000000 0.000000 0.000000
# 4 0.000000 0.000000 0.000000 0.163445 0.000000 0.000000
# 5 0.000000 0.000000 0.000000 0.000000 0.163447 0.000000
# 6 0.000000 0.000000 0.000000 0.000000 0.000000 0.029188
#
#
# Mechanical properties :
#
#
# Convention : Reuss Voigt Hill
#
# Bulk Modulus (GPa) = 38.00186 62.59498 50.29842
# Shear Modulus (GPa) = 21.38319 16.78546 19.08432
#
# Velocity S-wave (km/s) = 3.17144 2.80988 2.99612
# Velocity P-wave (km/s) = 5.59337 6.32220 5.96892
#
# Compressibility (1/GPa) = 0.02631450
#
# Stress axis : x y z
#
# Youngs Moduli (GPa) = -33.19625 -33.19645 126.68574
#
# Poissons Ratio (x) = 1.65504 0.66648
# Poissons Ratio (y) = 1.65503 0.66648
# Poissons Ratio (z) = -0.17464 -0.17464
#
# Static dielectric constant tensor:
#      x y z
#    x 1.778100 0.000000 0.000000 
#    y 0.000000 1.778100 0.000000 
#    z 0.000000 0.000000 1.830650 
# 
# From -- ./inp_files/2972.got.cif
#   From: 2010.05.17/outbox.cif.g08.bks.cpg/sg89_2_cif.got.tgz:2972.got - 2010.06.03 19:15:31.
