data_PCOD9547667
_publ_section_title
;
Structure prediction by ZEFSAII (Michael W. Deem and Ramdas Pophale) SiO2 
 PCOD9547667
Probable space group: P 41 2 2
;
_chemical_formula_sum "Si O2"
_cell_formula_units_Z 64
_cell_length_a 20.227254
_cell_length_b 20.227254
_cell_length_c 9.455228
_cell_angle_alpha 90.000000
_cell_angle_beta 90.000000
_cell_angle_gamma 90.000000
_cell_volume 3868.529045
_symmetry_space_group_name_H-M "P 41 2 2"
_symmetry_group_IT_number 91
_symmetry_cell_setting 'tetragonal'
loop_
_space_group_symop_operation_xyz
x,y,z
-y,x,1/4+z
-x,-y,1/2+z
y,-x,3/4+z
x,-y,1/2-z
-x,y,-z
y,x,3/4-z
-y,-x,1/4-z
loop_
_atom_site_type_symbol
_atom_site_label
_atom_site_fract_x
_atom_site_fract_y
_atom_site_fract_z
Si Si1 0.230854 0.336415 0.570193
Si Si2 0.736544 0.363087 0.850194
Si Si3 0.690393 0.201821 0.136039
Si Si4 0.618264 0.548108 0.630614
Si Si5 0.676373 0.460164 0.381134
Si Si6 0.073845 0.352013 0.054358
Si Si7 0.627620 0.859907 0.917410
Si Si8 0.062769 0.494925 0.414085
O O1 0.288086 0.281126 0.556884
O O2 0.199256 0.334014 0.725815
O O3 0.272823 0.404716 0.563709
O O4 0.175433 0.328914 0.451336
O O5 0.678334 0.410484 0.801977
O O6 0.802107 0.388766 0.777934
O O7 0.748876 0.355409 0.018490
O O8 0.761895 0.238106 0.125000
O O9 0.685280 0.131875 0.217720
O O10 0.587939 0.500000 0.750000
O O11 0.651200 0.505914 0.507584
O O12 0.572545 0.607477 0.576666
O O13 0.706132 0.500000 0.250000
O O14 0.085022 0.343327 0.224670
O O15 0.081539 0.431850 0.033124
O O16 0.000000 0.335346 0.000000
O O17 0.561425 0.882468 0.838170
O O18 0.043065 0.500000 0.250000
O O19 0.000000 0.471156 0.500000
#
# Coordination Sequence:
#
# PCOD9547667 Si02
#       8
#     8   8   8   8   8   8   8   8
#     4  10  20  32  48  71  91 113 154 208 248 281
#     4   9  19  35  48  64  92 119 150 198 254 296
#     4   9  18  33  52  71  94 126 158 188 230 284
#     4  11  22  34  48  62  81 110 149 201 254 311
#     4  11  23  35  46  62  85 113 147 197 260 317
#     4   9  19  35  50  68 100 135 156 185 237 283
#     4  10  19  30  50  71  89 120 159 196 235 283
#     4   9  19  32  45  65  93 124 157 191 231 281
#
# _framework density 16.543755999999998
#
# number of rings (size 3 to 8) (size 9 to 14) (size 15 to 20)
#    0.000    2.250    0.000    2.625    0.000   16.000 
#    0.000    0.000    0.000    0.000    0.000    0.000 
#    0.000    0.000    0.000    6.750    0.000    0.000 
#
# Total GULP energy -356502.545555 kJ/mol
# GULP energy per Si atom -5570.352274 kJ/mol
# Density = 1.650610 g / cm^3
# Si number density = 16.543756 Si / 1000 Ang^3
#
#
#
# Elastic Constant Matrix: (Units=GPa)
#
#
# Indices 1 2 3 4 5 6 
#
# 1 58.9871 25.5023 15.9938 0.0000 0.0000 0.0000
# 2 25.5023 58.9871 15.9936 0.0000 0.0000 0.0000
# 3 15.9938 15.9936 54.3316 0.0000 0.0000 0.0000
# 4 0.0000 0.0000 0.0000 22.3458 0.0000 0.0000
# 5 0.0000 0.0000 0.0000 0.0000 22.3456 0.0000
# 6 0.0000 0.0000 0.0000 0.0000 0.0000 10.3385
#
#
#
# Elastic Compliance Matrix: (Units=1/GPa)
#
#
# Indices 1 2 3 4 5 6 
#
# 1 0.021592 -0.008272 -0.003921 0.000000 0.000000 0.000000
# 2 -0.008272 0.021592 -0.003921 0.000000 0.000000 0.000000
# 3 -0.003921 -0.003921 0.020714 0.000000 0.000000 0.000000
# 4 0.000000 0.000000 0.000000 0.044751 0.000000 0.000000
# 5 0.000000 0.000000 0.000000 0.000000 0.044752 0.000000
# 6 0.000000 0.000000 0.000000 0.000000 0.000000 0.096726
#
#
# Mechanical properties :
#
#
# Convention : Reuss Voigt Hill
#
# Bulk Modulus (GPa) = 31.57547 31.92059 31.74803
# Shear Modulus (GPa) = 17.06993 18.66038 17.86515
#
# Velocity S-wave (km/s) = 3.21566 3.36213 3.28971
# Velocity P-wave (km/s) = 5.73714 5.86587 5.80186
#
# Compressibility (1/GPa) = 0.03167016
#
# Stress axis : x y z
#
# Youngs Moduli (GPa) = 46.31274 46.31283 48.27640
#
# Poissons Ratio (x) = 0.38310 0.18930
# Poissons Ratio (y) = 0.38310 0.18930
# Poissons Ratio (z) = 0.18160 0.18160
#
# Static dielectric constant tensor:
#      x y z
#    x 1.592910 0.000000 0.000000 
#    y 0.000000 1.592910 0.000000 
#    z 0.000000 0.000000 1.609180 
# 
# From -- ./inp_files/15421.got.cif
#   From: 2010.05.17/outbox.cif.g08.bks.cpg/sg91_8_cif.got.tgz:15421.got - 2010.06.03 19:20:03.
