data_PCOD9547380
_publ_section_title
;
Structure prediction by ZEFSAII (Michael W. Deem and Ramdas Pophale) SiO2 
 PCOD9547380
Probable space group: P 4 21 2
;
_chemical_formula_sum "Si O2"
_cell_formula_units_Z 38
_cell_length_a 7.774442
_cell_length_b 7.774442
_cell_length_c 27.024797
_cell_angle_alpha 90.000000
_cell_angle_beta 90.000000
_cell_angle_gamma 90.000000
_cell_volume 1633.431386
_symmetry_space_group_name_H-M "P 4 21 2"
_symmetry_group_IT_number 90
_symmetry_cell_setting 'tetragonal'
loop_
_space_group_symop_operation_xyz
x,y,z
1/2-y,1/2+x,z
-x,-y,z
1/2+y,1/2-x,z
1/2+x,1/2-y,-z
1/2-x,1/2+y,-z
y,x,-z
-y,-x,-z
loop_
_atom_site_type_symbol
_atom_site_label
_atom_site_fract_x
_atom_site_fract_y
_atom_site_fract_z
Si Si1 0.098378 0.768449 0.423119
Si Si2 0.500000 0.500000 0.865950
Si Si3 0.768113 0.104937 0.784932
Si Si4 0.396545 0.730781 0.052337
Si Si5 0.000000 0.000000 0.500000
Si Si6 0.733975 0.613206 0.679656
O O1 0.210849 0.598616 0.433094
O O2 0.122064 0.824298 0.366578
O O3 0.137171 0.929295 0.458631
O O4 0.369739 0.400076 0.829703
O O5 0.600928 0.371012 0.902323
O O6 0.594559 0.214136 0.788379
O O7 0.849207 0.145599 0.731885
O O8 0.595900 0.786357 0.055241
O O9 0.355924 0.644077 0.000000
O O10 0.782960 0.413357 0.676675
#
# Coordination Sequence:
#
# PCOD9547380 Si02
#       6
#     8   4   8   8   2   8
#     4  11  24  42  66  94 126 167 212 262 321 382
#     4  12  23  41  64  94 133 171 218 272 328 396
#     4  11  24  41  64  95 132 174 217 266 326 390
#     4  11  24  43  68  96 129 172 222 278 339 402
#     4  12  24  42  64  92 130 164 208 264 318 384
#     4  11  24  43  68  97 129 169 216 266 323 390
#
# _framework density 23.263909000000002
#
# number of rings (size 3 to 8) (size 9 to 14) (size 15 to 20)
#    0.000    0.842    0.000    7.263    0.000    4.211 
#    0.000    6.316    0.000    0.000    0.000    0.000 
#    0.000    0.000    0.000    0.000    0.000    0.000 
#
# Total GULP energy -212496.744406 kJ/mol
# GULP energy per Si atom -5592.019590 kJ/mol
# Density = 2.321096 g / cm^3
# Si number density = 23.263909 Si / 1000 Ang^3
#
#
#
# Elastic Constant Matrix: (Units=GPa)
#
#
# Indices 1 2 3 4 5 6 
#
# 1 96.6699 23.7104 27.9268 0.0000 0.0000 0.0000
# 2 23.7104 96.6700 27.9268 0.0000 0.0000 0.0000
# 3 27.9268 27.9268 154.7954 0.0000 0.0000 0.0000
# 4 0.0000 0.0000 0.0000 12.4860 0.0000 0.0000
# 5 0.0000 0.0000 0.0000 0.0000 12.4861 0.0000
# 6 0.0000 0.0000 0.0000 0.0000 0.0000 38.2332
#
#
#
# Elastic Compliance Matrix: (Units=1/GPa)
#
#
# Indices 1 2 3 4 5 6 
#
# 1 0.011386 -0.002320 -0.001636 0.000000 0.000000 0.000000
# 2 -0.002320 0.011386 -0.001636 0.000000 0.000000 0.000000
# 3 -0.001636 -0.001636 0.007050 0.000000 0.000000 0.000000
# 4 0.000000 0.000000 0.000000 0.080090 0.000000 0.000000
# 5 0.000000 0.000000 0.000000 0.000000 0.080089 0.000000
# 6 0.000000 0.000000 0.000000 0.000000 0.000000 0.026155
#
#
# Mechanical properties :
#
#
# Convention : Reuss Voigt Hill
#
# Bulk Modulus (GPa) = 53.64890 56.36258 55.00574
# Shear Modulus (GPa) = 21.40852 30.54584 25.97718
#
# Velocity S-wave (km/s) = 3.03685 3.62748 3.34523
# Velocity P-wave (km/s) = 5.95043 6.46722 6.21420
#
# Compressibility (1/GPa) = 0.01863971
#
# Stress axis : x y z
#
# Youngs Moduli (GPa) = 87.82672 87.82685 141.83802
#
# Poissons Ratio (x) = 0.20377 0.23199
# Poissons Ratio (y) = 0.20377 0.23199
# Poissons Ratio (z) = 0.14365 0.14365
#
# Static dielectric constant tensor:
#      x y z
#    x 1.919560 0.000000 0.000000 
#    y 0.000000 1.919560 0.000000 
#    z 0.000000 0.000000 1.818900 
# 
# From -- ./inp_files/2919.got.cif
#   From: 2010.05.17/outbox.cif.g08.bks.cpg/sg90_2_cif.got.tgz:2919.got - 2010.06.03 19:17:45.
