data_PCOD9547143
_publ_section_title
;
Structure prediction by ZEFSAII (Michael W. Deem and Ramdas Pophale) SiO2 
 PCOD9547143
Probable space group: P 4 21 2
;
_chemical_formula_sum "Si O2"
_cell_formula_units_Z 48
_cell_length_a 22.127205
_cell_length_b 22.127205
_cell_length_c 5.147659
_cell_angle_alpha 90.000000
_cell_angle_beta 90.000000
_cell_angle_gamma 90.000000
_cell_volume 2520.361801
_symmetry_space_group_name_H-M "P 4 21 2"
_symmetry_group_IT_number 90
_symmetry_cell_setting 'tetragonal'
loop_
_space_group_symop_operation_xyz
x,y,z
1/2-y,1/2+x,z
-x,-y,z
1/2+y,1/2-x,z
1/2+x,1/2-y,-z
1/2-x,1/2+y,-z
y,x,-z
-y,-x,-z
loop_
_atom_site_type_symbol
_atom_site_label
_atom_site_fract_x
_atom_site_fract_y
_atom_site_fract_z
Si Si1 0.822113 0.921666 0.061624
Si Si2 0.941959 0.417564 0.035624
Si Si3 0.438099 0.341181 0.060784
Si Si4 0.068172 0.256734 0.440125
Si Si5 0.761918 0.073051 0.560258
Si Si6 0.364579 0.882147 0.462870
O O1 0.769379 0.918537 0.845155
O O2 0.848610 0.989608 0.047212
O O3 0.872446 0.872446 0.000000
O O4 0.792902 0.914141 0.344650
O O5 0.918638 0.486068 0.001173
O O6 0.925579 0.394522 0.321194
O O7 0.909413 0.377086 0.820423
O O8 0.421099 0.292338 0.840281
O O9 0.401618 0.401618 0.000000
O O10 0.421838 0.312827 0.339188
O O11 0.103351 0.317938 0.499923
O O12 0.995522 0.264311 0.461811
O O13 0.706798 0.118189 0.515009
#
# Coordination Sequence:
#
# PCOD9547143 Si02
#       6
#     8   8   8   8   8   8
#     4  10  21  39  61  85 113 143 181 232 288 342
#     4  11  22  34  52  80 111 144 192 252 291 318
#     4  10  21  39  61  85 113 143 181 232 288 342
#     4  10  21  37  57  82 114 151 189 231 277 330
#     4  10  21  37  57  82 114 151 189 231 277 330
#     4  12  22  37  57  80 112 158 196 224 276 339
#
# _framework density 19.044885000000001
#
# number of rings (size 3 to 8) (size 9 to 14) (size 15 to 20)
#    0.000    1.500    0.000    6.000    0.000    4.333 
#    0.000    5.000    0.000    6.000    0.000    0.000 
#    0.000    0.000    0.000    0.000    0.000    0.000 
#
# Total GULP energy -268381.282632 kJ/mol
# GULP energy per Si atom -5591.276721 kJ/mol
# Density = 1.900154 g / cm^3
# Si number density = 19.044885 Si / 1000 Ang^3
#
#
#
# Elastic Constant Matrix: (Units=GPa)
#
#
# Indices 1 2 3 4 5 6 
#
# 1 17.6661 11.2140 -1.1789 0.0000 0.0000 0.0000
# 2 11.2140 17.6661 -1.1789 0.0000 0.0000 0.0000
# 3 -1.1789 -1.1789 31.7072 0.0000 0.0000 0.0000
# 4 0.0000 0.0000 0.0000 20.7932 0.0000 0.0000
# 5 0.0000 0.0000 0.0000 0.0000 20.7932 0.0000
# 6 0.0000 0.0000 0.0000 0.0000 0.0000 39.8198
#
#
#
# Elastic Compliance Matrix: (Units=1/GPa)
#
#
# Indices 1 2 3 4 5 6 
#
# 1 0.094860 -0.060129 0.001291 0.000000 0.000000 0.000000
# 2 -0.060129 0.094860 0.001291 0.000000 0.000000 0.000000
# 3 0.001291 0.001291 0.031635 0.000000 0.000000 0.000000
# 4 0.000000 0.000000 0.000000 0.048093 0.000000 0.000000
# 5 0.000000 0.000000 0.000000 0.000000 0.048093 0.000000
# 6 0.000000 0.000000 0.000000 0.000000 0.000000 0.025113
#
#
# Mechanical properties :
#
#
# Convention : Reuss Voigt Hill
#
# Bulk Modulus (GPa) = 9.41065 9.41688 9.41376
# Shear Modulus (GPa) = 10.13856 20.16009 15.14933
#
# Velocity S-wave (km/s) = 2.30978 3.25708 2.82344
# Velocity P-wave (km/s) = 3.47354 4.37036 3.94750
#
# Compressibility (1/GPa) = 0.10626256
#
# Stress axis : x y z
#
# Youngs Moduli (GPa) = 10.54183 10.54183 31.61095
#
# Poissons Ratio (x) = 0.63387 -0.04082
# Poissons Ratio (y) = 0.63387 -0.04082
# Poissons Ratio (z) = -0.01361 -0.01361
#
# Static dielectric constant tensor:
#      x y z
#    x 1.642540 0.000000 0.000000 
#    y 0.000000 1.642540 0.000000 
#    z 0.000000 0.000000 1.640570 
# 
# From -- ./inp_files/596.got.cif
#   From: 2010.05.17/outbox.cif.g08.bks.cpg/sg90_1_cif.got.tgz:596.got - 2010.06.03 19:17:45.
