data_PCOD9547447
_publ_section_title
;
Structure prediction by ZEFSAII (Michael W. Deem and Ramdas Pophale) SiO2 
 PCOD9547447
Probable space group: P 4 21 2
;
_chemical_formula_sum "Si O2"
_cell_formula_units_Z 42
_cell_length_a 10.346163
_cell_length_b 10.346163
_cell_length_c 15.915143
_cell_angle_alpha 90.000000
_cell_angle_beta 90.000000
_cell_angle_gamma 90.000000
_cell_volume 1703.606066
_symmetry_space_group_name_H-M "P 4 21 2"
_symmetry_group_IT_number 90
_symmetry_cell_setting 'tetragonal'
loop_
_space_group_symop_operation_xyz
x,y,z
1/2-y,1/2+x,z
-x,-y,z
1/2+y,1/2-x,z
1/2+x,1/2-y,-z
1/2-x,1/2+y,-z
y,x,-z
-y,-x,-z
loop_
_atom_site_type_symbol
_atom_site_label
_atom_site_fract_x
_atom_site_fract_y
_atom_site_fract_z
Si Si1 0.406733 0.601131 0.267555
Si Si2 0.508603 0.218277 0.589415
Si Si3 0.208294 0.526540 0.955490
Si Si4 0.784254 0.499614 0.597038
Si Si5 0.590764 0.186377 0.844996
Si Si6 0.500000 0.500000 0.000000
O O1 0.500000 0.500000 0.224610
O O2 0.322979 0.529084 0.339431
O O3 0.509540 0.299549 0.320384
O O4 0.307654 0.654045 0.199508
O O5 0.381178 0.129438 0.596906
O O6 0.504437 0.277326 0.495645
O O7 0.139157 0.392464 0.925781
O O8 0.198147 0.568035 0.055338
O O9 0.362928 0.504322 0.949164
O O10 0.876102 0.374623 0.598870
O O11 0.442050 0.165541 0.817528
#
# Coordination Sequence:
#
# PCOD9547447 Si02
#       6
#     8   8   8   8   8   2
#     4  12  24  31  52  83 103 127 180 232 279 327
#     4   9  19  37  56  71  94 131 177 228 286 342
#     4   9  20  39  61  91 129 167 204 243 289 343
#     4   9  21  39  52  67 100 142 173 219 293 353
#     4   9  20  40  61  79 110 151 188 229 274 321
#     4  12  20  32  68 100 132 160 198 244 296 344
#
# _framework density 24.653586000000001
#
# number of rings (size 3 to 8) (size 9 to 14) (size 15 to 20)
#    0.000    2.286    0.000    4.571    6.667    3.048 
#    0.000    0.000    0.000    0.000    0.000    2.667 
#    0.000    0.000    0.000    0.000    0.000    0.000 
#
# Total GULP energy -234505.458129 kJ/mol
# GULP energy per Si atom -5583.463289 kJ/mol
# Density = 2.459747 g / cm^3
# Si number density = 24.653586 Si / 1000 Ang^3
#
#
#
# Elastic Constant Matrix: (Units=GPa)
#
#
# Indices 1 2 3 4 5 6 
#
# 1 97.1922 37.0183 8.1737 0.0000 0.0000 0.0000
# 2 37.0183 97.1922 8.1737 0.0000 0.0000 0.0000
# 3 8.1737 8.1737 61.1521 0.0000 0.0000 0.0000
# 4 0.0000 0.0000 0.0000********** 0.0000 0.0000
# 5 0.0000 0.0000 0.0000 0.0000********** 0.0000
# 6 0.0000 0.0000 0.0000 0.0000 0.0000 27.1344
#
#
#
# Elastic Compliance Matrix: (Units=1/GPa)
#
#
# Indices 1 2 3 4 5 6 
#
# 1 0.012096 -0.004522 -0.001012 0.000000 0.000000 0.000000
# 2 -0.004522 0.012096 -0.001012 0.000000 0.000000 0.000000
# 3 -0.001012 -0.001012 0.016623 0.000000 0.000000 0.000000
# 4 0.000000 0.000000 0.000000 -0.000097 0.000000 0.000000
# 5 0.000000 0.000000 0.000000 0.000000 -0.000097 0.000000
# 6 0.000000 0.000000 0.000000 0.000000 0.000000 0.036854
#
#
# Mechanical properties :
#
#
# Convention : Reuss Voigt Hill
#
# Bulk Modulus (GPa) = 36.07201 40.25199 38.16200
# Shear Modulus (GPa) = 50.09461 -4122.72137 -2036.31338
#
# Velocity S-wave (km/s) = 4.51260 -40.93764 -28.77088
# Velocity P-wave (km/s) = 6.46643 47.09733 32.98745
#
# Compressibility (1/GPa) = 0.02772233
#
# Stress axis : x y z
#
# Youngs Moduli (GPa) = 82.66923 82.66923 60.15647
#
# Poissons Ratio (x) = 0.37384 0.06090
# Poissons Ratio (y) = 0.37384 0.06090
# Poissons Ratio (z) = 0.08369 0.08369
#
# Static dielectric constant tensor:
#      x y z
#    x 10.568330 0.000000 0.000000 
#    y 0.000000 10.568330 0.000000 
#    z 0.000000 0.000000 1.966540 
# 
# From -- ./inp_files/2621.got.cif
#   From: 2010.05.17/outbox.cif.g08.bks.cpg/sg90_2_cif.got.tgz:2621.got - 2010.06.03 19:17:45.
