data_PCOD9547338
_publ_section_title
;
Structure prediction by ZEFSAII (Michael W. Deem and Ramdas Pophale) SiO2 
 PCOD9547338
Probable space group: P 4 21 2
;
_chemical_formula_sum "Si O2"
_cell_formula_units_Z 50
_cell_length_a 8.443052
_cell_length_b 8.443052
_cell_length_c 31.030737
_cell_angle_alpha 90.000000
_cell_angle_beta 90.000000
_cell_angle_gamma 90.000000
_cell_volume 2212.030030
_symmetry_space_group_name_H-M "P 4 21 2"
_symmetry_group_IT_number 90
_symmetry_cell_setting 'tetragonal'
loop_
_space_group_symop_operation_xyz
x,y,z
1/2-y,1/2+x,z
-x,-y,z
1/2+y,1/2-x,z
1/2+x,1/2-y,-z
1/2-x,1/2+y,-z
y,x,-z
-y,-x,-z
loop_
_atom_site_type_symbol
_atom_site_label
_atom_site_fract_x
_atom_site_fract_y
_atom_site_fract_z
Si Si1 0.091025 0.248280 0.117897
Si Si2 0.246941 0.083784 0.783757
Si Si3 0.157043 0.106434 0.452232
Si Si4 0.763018 0.397702 0.364327
Si Si5 0.583902 0.254170 0.039594
Si Si6 0.925063 0.754183 0.708510
Si Si7 0.000000 0.500000 0.560679
O O1 0.194593 0.409543 0.112233
O O2 0.107169 0.190786 0.167114
O O3 0.152684 0.124025 0.083313
O O4 0.404548 0.191786 0.778740
O O5 0.123141 0.134749 0.747979
O O6 0.178108 0.178108 0.500000
O O7 0.126762 0.231943 0.414633
O O8 0.305907 0.997385 0.440580
O O9 0.000000 0.000000 0.453103
O O10 0.800450 0.578899 0.353141
O O11 0.616248 0.336815 0.336539
O O12 0.404357 0.192761 0.037605
O O13 0.635694 0.364307 0.000000
O O14 0.811324 0.600866 0.710838
#
# Coordination Sequence:
#
# PCOD9547338 Si02
#       7
#     8   8   8   8   8   8   2
#     4   9  19  37  62  90 119 156 202 256 314 382
#     4   9  19  39  65  91 122 160 208 261 320 386
#     4  11  28  48  74 111 142 182 232 281 341 407
#     4  11  26  45  70  99 133 174 221 275 334 400
#     4  11  24  39  56  83 119 158 202 256 312 375
#     4  11  26  42  61  91 130 172 218 272 331 391
#     4  12  28  44  80 100 144 188 224 288 336 408
#
# _framework density 22.603670999999999
#
# number of rings (size 3 to 8) (size 9 to 14) (size 15 to 20)
#    0.000    1.600    0.000    3.840    8.960    8.000 
#    0.000    4.800    0.000    0.000    0.000    0.000 
#    0.000    0.000    0.000    0.000    0.000    0.000 
#
# Total GULP energy -279601.069261 kJ/mol
# GULP energy per Si atom -5592.021385 kJ/mol
# Density = 2.255222 g / cm^3
# Si number density = 22.603671 Si / 1000 Ang^3
#
#
#
# Elastic Constant Matrix: (Units=GPa)
#
#
# Indices 1 2 3 4 5 6 
#
# 1 73.3726 33.2750 30.7708 0.0000 0.0000 0.0000
# 2 33.2750 73.3721 30.7705 0.0000 0.0000 0.0000
# 3 30.7708 30.7705 106.8783 0.0000 0.0000 0.0000
# 4 0.0000 0.0000 0.0000 58.2497 0.0000 0.0000
# 5 0.0000 0.0000 0.0000 0.0000 58.2496 0.0000
# 6 0.0000 0.0000 0.0000 0.0000 0.0000 -14.1030
#
#
#
# Elastic Compliance Matrix: (Units=1/GPa)
#
#
# Indices 1 2 3 4 5 6 
#
# 1 0.018092 -0.006847 -0.003237 0.000000 0.000000 0.000000
# 2 -0.006847 0.018092 -0.003237 0.000000 0.000000 0.000000
# 3 -0.003237 -0.003237 0.011221 0.000000 0.000000 0.000000
# 4 0.000000 0.000000 0.000000 0.017167 0.000000 0.000000
# 5 0.000000 0.000000 0.000000 0.000000 0.017168 0.000000
# 6 0.000000 0.000000 0.000000 0.000000 0.000000 -0.070907
#
#
# Mechanical properties :
#
#
# Convention : Reuss Voigt Hill
#
# Bulk Modulus (GPa) = 48.16825 49.25063 48.70944
# Shear Modulus (GPa) = 112.61908 31.06636 71.84272
#
# Velocity S-wave (km/s) = 7.06622 3.71130 5.64382
# Velocity P-wave (km/s) = 9.37718 6.34044 8.00414
#
# Compressibility (1/GPa) = 0.02076056
#
# Stress axis : x y z
#
# Youngs Moduli (GPa) = 55.27292 55.27265 89.12193
#
# Poissons Ratio (x) = 0.37846 0.28853
# Poissons Ratio (y) = 0.37847 0.28853
# Poissons Ratio (z) = 0.17894 0.17894
#
# Static dielectric constant tensor:
#      x y z
#    x 1.814220 0.000000 0.000000 
#    y 0.000000 1.814220 0.000000 
#    z 0.000000 0.000000 1.821660 
# 
# From -- ./inp_files/3064.got.cif
#   From: 2010.05.17/outbox.cif.g08.bks.cpg/sg90_2_cif.got.tgz:3064.got - 2010.06.03 19:17:45.
