data_PCOD9547602
_publ_section_title
;
Structure prediction by ZEFSAII (Michael W. Deem and Ramdas Pophale) SiO2 
 PCOD9547602
Probable space group: P 41 2 2
;
_chemical_formula_sum "Si O2"
_cell_formula_units_Z 52
_cell_length_a 16.721693
_cell_length_b 16.721693
_cell_length_c 8.693848
_cell_angle_alpha 90.000000
_cell_angle_beta 90.000000
_cell_angle_gamma 90.000000
_cell_volume 2430.930454
_symmetry_space_group_name_H-M "P 41 2 2"
_symmetry_group_IT_number 91
_symmetry_cell_setting 'tetragonal'
loop_
_space_group_symop_operation_xyz
x,y,z
-y,x,1/4+z
-x,-y,1/2+z
y,-x,3/4+z
x,-y,1/2-z
-x,y,-z
y,x,3/4-z
-y,-x,1/4-z
loop_
_atom_site_type_symbol
_atom_site_label
_atom_site_fract_x
_atom_site_fract_y
_atom_site_fract_z
Si Si1 0.660692 0.534134 0.411215
Si Si2 0.666778 0.877766 0.640436
Si Si3 0.944673 0.682912 0.769063
Si Si4 0.599507 0.599507 0.875000
Si Si5 0.500000 0.882132 0.500000
Si Si6 0.759177 0.198384 0.452614
Si Si7 0.763630 0.422527 0.821002
Si Si8 0.000000 0.430430 0.000000
O O1 0.684082 0.500000 0.250000
O O2 0.614528 0.614528 0.375000
O O3 0.602917 0.472763 0.503641
O O4 0.737009 0.548012 0.513452
O O5 0.654571 0.896866 0.824628
O O6 0.585930 0.846903 0.556665
O O7 0.741016 0.817126 0.614645
O O8 0.691218 0.963625 0.571211
O O9 0.898094 0.763486 0.714766
O O10 0.952548 0.622497 0.625561
O O11 0.682271 0.590630 0.781270
O O12 0.519626 0.938849 0.353264
O O13 0.769766 0.230235 0.625000
O O14 0.666446 0.205829 0.409995
O O15 0.807774 0.500000 0.750000
#
# Coordination Sequence:
#
# PCOD9547602 Si02
#       8
#     8   8   8   4   4   8   8   4
#     4  11  22  32  52  72  97 145 197 259 313 358
#     4   9  19  37  63  93 124 156 213 264 318 380
#     4   9  19  37  62  92 118 167 204 254 321 386
#     4  10  20  34  52  70  96 140 198 252 302 362
#     4  10  18  34  56  90 124 164 202 268 310 384
#     4  10  20  40  65  90 121 163 214 256 316 384
#     4  10  21  37  54  76 109 151 202 257 306 369
#     4  10  18  34  60  88 128 160 208 248 326 388
#
# _framework density 21.390986000000002
#
# number of rings (size 3 to 8) (size 9 to 14) (size 15 to 20)
#    0.000    2.154    2.308    1.846    1.077    0.000 
#   11.077    7.692    1.692    0.000    0.000   12.923 
#    0.000    0.000    0.000    0.000    0.000    0.000 
#
# Total GULP energy -289954.066735 kJ/mol
# GULP energy per Si atom -5576.039745 kJ/mol
# Density = 2.134230 g / cm^3
# Si number density = 21.390986 Si / 1000 Ang^3
#
#
#
# Elastic Constant Matrix: (Units=GPa)
#
#
# Indices 1 2 3 4 5 6 
#
# 1 94.3958 54.2930 27.2619 0.0000 0.0000 0.0000
# 2 54.2930 94.3959 27.2626 0.0000 0.0000 0.0000
# 3 27.2619 27.2626 101.4896 0.0000 0.0000 0.0000
# 4 0.0000 0.0000 0.0000 20.8558 0.0000 0.0000
# 5 0.0000 0.0000 0.0000 0.0000 20.8558 0.0000
# 6 0.0000 0.0000 0.0000 0.0000 0.0000 27.4864
#
#
#
# Elastic Compliance Matrix: (Units=1/GPa)
#
#
# Indices 1 2 3 4 5 6 
#
# 1 0.016198 -0.008738 -0.002004 0.000000 0.000000 0.000000
# 2 -0.008738 0.016198 -0.002004 0.000000 0.000000 0.000000
# 3 -0.002004 -0.002004 0.010930 0.000000 0.000000 0.000000
# 4 0.000000 0.000000 0.000000 0.047948 0.000000 0.000000
# 5 0.000000 0.000000 0.000000 0.000000 0.047948 0.000000
# 6 0.000000 0.000000 0.000000 0.000000 0.000000 0.036382
#
#
# Mechanical properties :
#
#
# Convention : Reuss Voigt Hill
#
# Bulk Modulus (GPa) = 56.07108 56.43514 56.25311
# Shear Modulus (GPa) = 24.14983 25.93717 25.04350
#
# Velocity S-wave (km/s) = 3.36366 3.48592 3.42533
# Velocity P-wave (km/s) = 6.43079 6.53009 6.48063
#
# Compressibility (1/GPa) = 0.01783451
#
# Stress axis : x y z
#
# Youngs Moduli (GPa) = 61.73572 61.73558 91.49250
#
# Poissons Ratio (x) = 0.53943 0.18334
# Poissons Ratio (y) = 0.53943 0.18336
# Poissons Ratio (z) = 0.12371 0.12372
#
# Static dielectric constant tensor:
#      x y z
#    x 1.838370 0.000000 0.000000 
#    y 0.000000 1.838370 0.000000 
#    z 0.000000 0.000000 1.817840 
# 
# From -- ./inp_files/19681.got.cif
#   From: 2010.05.17/outbox.cif.g08.bks.cpg/sg91_10_cif.got.tgz:19681.got - 2010.06.03 19:20:03.
