data_PCOD9547145
_publ_section_title
;
Structure prediction by ZEFSAII (Michael W. Deem and Ramdas Pophale) SiO2 
 PCOD9547145
Probable space group: P 4 21 2
;
_chemical_formula_sum "Si O2"
_cell_formula_units_Z 48
_cell_length_a 10.756684
_cell_length_b 10.756684
_cell_length_c 18.398909
_cell_angle_alpha 90.000000
_cell_angle_beta 90.000000
_cell_angle_gamma 90.000000
_cell_volume 2128.868777
_symmetry_space_group_name_H-M "P 4 21 2"
_symmetry_group_IT_number 90
_symmetry_cell_setting 'tetragonal'
loop_
_space_group_symop_operation_xyz
x,y,z
1/2-y,1/2+x,z
-x,-y,z
1/2+y,1/2-x,z
1/2+x,1/2-y,-z
1/2-x,1/2+y,-z
y,x,-z
-y,-x,-z
loop_
_atom_site_type_symbol
_atom_site_label
_atom_site_fract_x
_atom_site_fract_y
_atom_site_fract_z
Si Si1 0.471543 0.281686 0.961115
Si Si2 0.206674 0.815723 0.833696
Si Si3 0.388013 0.420986 0.305448
Si Si4 0.568973 0.300140 0.105665
Si Si5 0.209871 0.497452 0.428797
Si Si6 0.792146 0.518073 0.593055
O O1 0.396376 0.219615 0.894866
O O2 0.572130 0.370741 0.922944
O O3 0.366555 0.366555 0.000000
O O4 0.542462 0.222764 0.030489
O O5 0.209648 0.874190 0.754470
O O6 0.244641 0.673153 0.842189
O O7 0.060967 0.817930 0.854968
O O8 0.500000 0.500000 0.271589
O O9 0.314354 0.494465 0.367933
O O10 0.455305 0.307779 0.346105
O O11 0.121871 0.618155 0.421509
O O12 0.260602 0.487359 0.511013
O O13 0.870464 0.391863 0.599490
#
# Coordination Sequence:
#
# PCOD9547145 Si02
#       6
#     8   8   8   8   8   8
#     4   9  19  39  64  86 117 159 210 254 301 379
#     4  11  24  39  61  92 128 163 208 261 328 394
#     4  12  26  38  64  98 136 173 221 273 335 404
#     4  10  21  37  65  86 119 165 201 253 318 377
#     4   9  21  43  67  92 127 178 229 279 337 387
#     4   9  21  42  66  93 133 179 224 280 334 392
#
# _framework density 22.547186
#
# number of rings (size 3 to 8) (size 9 to 14) (size 15 to 20)
#    0.000    2.000    0.000    6.000   11.667    3.000 
#    0.000    0.000    0.000    0.500    0.000    0.000 
#    0.000    0.000    0.000    0.000    0.000    0.000 
#
# Total GULP energy -268107.562094 kJ/mol
# GULP energy per Si atom -5585.574210 kJ/mol
# Density = 2.249587 g / cm^3
# Si number density = 22.547186 Si / 1000 Ang^3
#
#
#
# Elastic Constant Matrix: (Units=GPa)
#
#
# Indices 1 2 3 4 5 6 
#
# 1 18.9341 17.0999 13.0123 0.0000 0.0000 0.0000
# 2 17.0999 18.9341 13.0123 0.0000 0.0000 0.0000
# 3 13.0123 13.0123 90.9682 0.0000 0.0000 0.0000
# 4 0.0000 0.0000 0.0000 27.1857 0.0000 0.0000
# 5 0.0000 0.0000 0.0000 0.0000 27.1857 0.0000
# 6 0.0000 0.0000 0.0000 0.0000 0.0000 47.5935
#
#
#
# Elastic Compliance Matrix: (Units=1/GPa)
#
#
# Indices 1 2 3 4 5 6 
#
# 1 0.288072 -0.257123 -0.004427 0.000000 0.000000 0.000000
# 2 -0.257123 0.288072 -0.004427 0.000000 0.000000 0.000000
# 3 -0.004427 -0.004427 0.012259 0.000000 0.000000 0.000000
# 4 0.000000 0.000000 0.000000 0.036784 0.000000 0.000000
# 5 0.000000 0.000000 0.000000 0.000000 0.036784 0.000000
# 6 0.000000 0.000000 0.000000 0.000000 0.000000 0.021011
#
#
# Mechanical properties :
#
#
# Convention : Reuss Voigt Hill
#
# Bulk Modulus (GPa) = 17.71510 23.89839 20.80674
# Shear Modulus (GPa) = 4.05268 26.10713 15.07990
#
# Velocity S-wave (km/s) = 1.34213 3.40647 2.58895
# Velocity P-wave (km/s) = 3.20558 5.10826 4.26439
#
# Compressibility (1/GPa) = 0.05644902
#
# Stress axis : x y z
#
# Youngs Moduli (GPa) = 3.47136 3.47136 81.57037
#
# Poissons Ratio (x) = 0.89257 0.36111
# Poissons Ratio (y) = 0.89257 0.36111
# Poissons Ratio (z) = 0.01537 0.01537
#
# Static dielectric constant tensor:
#      x y z
#    x 1.855660 0.000000 0.000000 
#    y 0.000000 1.855660 0.000000 
#    z 0.000000 0.000000 1.901340 
# 
# From -- ./inp_files/2652.got.cif
#   From: 2010.05.17/outbox.cif.g08.bks.cpg/sg90_2_cif.got.tgz:2652.got - 2010.06.03 19:17:45.
