data_PCOD9547493
_publ_section_title
;
Structure prediction by ZEFSAII (Michael W. Deem and Ramdas Pophale) SiO2 
 PCOD9547493
Probable space group: P 41 2 2
;
_chemical_formula_sum "Si O2"
_cell_formula_units_Z 48
_cell_length_a 9.267005
_cell_length_b 9.267005
_cell_length_c 30.445414
_cell_angle_alpha 90.000000
_cell_angle_beta 90.000000
_cell_angle_gamma 90.000000
_cell_volume 2614.572438
_symmetry_space_group_name_H-M "P 41 2 2"
_symmetry_group_IT_number 91
_symmetry_cell_setting 'tetragonal'
loop_
_space_group_symop_operation_xyz
x,y,z
-y,x,1/4+z
-x,-y,1/2+z
y,-x,3/4+z
x,-y,1/2-z
-x,y,-z
y,x,3/4-z
-y,-x,1/4-z
loop_
_atom_site_type_symbol
_atom_site_label
_atom_site_fract_x
_atom_site_fract_y
_atom_site_fract_z
Si Si1 0.500000 0.976578 0.500000
Si Si2 0.092353 0.000000 0.250000
Si Si3 0.288038 0.759227 0.004390
Si Si4 0.469134 0.923298 0.594188
Si Si5 0.569883 0.252861 0.594560
Si Si6 0.345691 0.258155 0.159900
Si Si7 0.856015 0.021589 0.411264
O O1 0.631259 0.090007 0.490962
O O2 0.516933 0.884684 0.544212
O O3 0.192778 0.871570 0.231569
O O4 0.007399 0.929435 0.290677
O O5 0.382478 0.708085 0.045120
O O6 0.272970 0.652453 0.963135
O O7 0.533101 0.825245 0.632766
O O8 0.296056 0.938074 0.594274
O O9 0.536135 0.083950 0.598534
O O10 0.698640 0.301361 0.625000
O O11 0.421822 0.332046 0.606769
O O12 0.190759 0.179483 0.153823
O O13 0.964413 0.964413 0.375000
#
# Coordination Sequence:
#
# PCOD9547493 Si02
#       7
#     4   4   8   8   8   8   8
#     4  10  16  38  58  82 122 156 192 246 304 352
#     4  10  20  32  56  92 116 148 200 250 302 358
#     4  10  18  35  57  87 122 151 196 255 301 350
#     4  10  21  36  59  84 119 156 195 248 303 353
#     4  10  21  35  59  88 116 152 203 246 296 358
#     4  10  20  37  58  83 117 158 199 240 298 367
#     4  10  22  36  56  87 119 148 198 249 299 350
#
# _framework density 18.358640999999999
#
# number of rings (size 3 to 8) (size 9 to 14) (size 15 to 20)
#    0.000    2.000    6.667    0.000    9.333    0.667 
#    0.000    0.000   14.667    0.000    0.000    0.000 
#    0.000    0.000    0.000    0.000    0.000    0.000 
#
# Total GULP energy -267318.102913 kJ/mol
# GULP energy per Si atom -5569.127144 kJ/mol
# Density = 1.831686 g / cm^3
# Si number density = 18.358641 Si / 1000 Ang^3
#
#
#
# Elastic Constant Matrix: (Units=GPa)
#
#
# Indices 1 2 3 4 5 6 
#
# 1 57.0248 30.1868 30.8803 0.0000 0.0000 0.0000
# 2 30.1868 57.0263 30.8803 0.0000 0.0000 0.0000
# 3 30.8803 30.8803 104.4947 0.0000 0.0000 0.0000
# 4 0.0000 0.0000 0.0000 25.5952 0.0000 0.0000
# 5 0.0000 0.0000 0.0000 0.0000 25.5951 0.0000
# 6 0.0000 0.0000 0.0000 0.0000 0.0000 24.4747
#
#
#
# Elastic Compliance Matrix: (Units=1/GPa)
#
#
# Indices 1 2 3 4 5 6 
#
# 1 0.025881 -0.011379 -0.004285 0.000000 0.000000 0.000000
# 2 -0.011379 0.025880 -0.004285 0.000000 0.000000 0.000000
# 3 -0.004285 -0.004285 0.012103 0.000000 0.000000 0.000000
# 4 0.000000 0.000000 0.000000 0.039070 0.000000 0.000000
# 5 0.000000 0.000000 0.000000 0.000000 0.039070 0.000000
# 6 0.000000 0.000000 0.000000 0.000000 0.000000 0.040858
#
#
# Mechanical properties :
#
#
# Convention : Reuss Voigt Hill
#
# Bulk Modulus (GPa) = 41.73046 44.71561 43.22304
# Shear Modulus (GPa) = 21.66855 23.57291 22.62073
#
# Velocity S-wave (km/s) = 3.43926 3.58721 3.51402
# Velocity P-wave (km/s) = 6.20898 6.44725 6.32924
#
# Compressibility (1/GPa) = 0.02396331
#
# Stress axis : x y z
#
# Youngs Moduli (GPa) = 38.63883 38.64006 82.62642
#
# Poissons Ratio (x) = 0.43970 0.35409
# Poissons Ratio (y) = 0.43968 0.35407
# Poissons Ratio (z) = 0.16559 0.16558
#
# Static dielectric constant tensor:
#      x y z
#    x 1.638570 0.000000 0.000000 
#    y 0.000000 1.638570 0.000000 
#    z 0.000000 0.000000 1.689190 
# 
# From -- ./inp_files/22303.got.cif
#   From: 2010.05.17/outbox.cif.g08.bks.cpg/sg91_12_cif.got.tgz:22303.got - 2010.06.03 19:20:03.
