data_PCOD9547334
_publ_section_title
;
Structure prediction by ZEFSAII (Michael W. Deem and Ramdas Pophale) SiO2 
 PCOD9547334
Probable space group: P 4 21 2
;
_chemical_formula_sum "Si O2"
_cell_formula_units_Z 48
_cell_length_a 8.185175
_cell_length_b 8.185175
_cell_length_c 32.219404
_cell_angle_alpha 90.000000
_cell_angle_beta 90.000000
_cell_angle_gamma 90.000000
_cell_volume 2158.606302
_symmetry_space_group_name_H-M "P 4 21 2"
_symmetry_group_IT_number 90
_symmetry_cell_setting 'tetragonal'
loop_
_space_group_symop_operation_xyz
x,y,z
1/2-y,1/2+x,z
-x,-y,z
1/2+y,1/2-x,z
1/2+x,1/2-y,-z
1/2-x,1/2+y,-z
y,x,-z
-y,-x,-z
loop_
_atom_site_type_symbol
_atom_site_label
_atom_site_fract_x
_atom_site_fract_y
_atom_site_fract_z
Si Si1 0.408291 0.261232 0.800208
Si Si2 0.761906 0.085166 0.708110
Si Si3 0.263029 0.417576 0.630122
Si Si4 0.763223 0.082559 0.461019
Si Si5 0.414148 0.262134 0.959838
Si Si6 0.761495 0.085442 0.120114
O O1 0.595017 0.199476 0.803592
O O2 0.385399 0.333408 0.754045
O O3 0.352964 0.377277 0.837021
O O4 0.599557 0.197288 0.705824
O O5 0.872885 0.129525 0.669423
O O6 0.196207 0.601631 0.631961
O O7 0.339773 0.389951 0.584573
O O8 0.601594 0.196227 0.463016
O O9 0.872380 0.127621 0.500000
O O10 0.599120 0.198391 0.960404
O O11 0.371889 0.361512 0.918501
O O12 0.366291 0.366291 0.000000
O O13 0.599248 0.198414 0.118010
#
# Coordination Sequence:
#
# PCOD9547334 Si02
#       6
#     8   8   8   8   8   8
#     4   9  19  37  58  79 106 141 180 221 266 316
#     4   9  19  35  54  78 107 137 173 218 264 312
#     4   9  19  35  52  72 102 137 171 210 258 312
#     4   9  19  35  52  72 100 133 169 211 259 310
#     4  11  24  41  62  88 116 147 185 227 270 318
#     4  11  24  39  56  83 116 147 183 225 268 318
#
# _framework density 22.236571000000001
#
# number of rings (size 3 to 8) (size 9 to 14) (size 15 to 20)
#    0.000    2.333    0.000    4.000    0.000   10.667 
#    0.000   10.000    0.000    0.000    0.000    0.000 
#    0.000    0.000    0.000    0.000    0.000    0.000 
#
# Total GULP energy -268762.089253 kJ/mol
# GULP energy per Si atom -5599.210193 kJ/mol
# Density = 2.218596 g / cm^3
# Si number density = 22.236571 Si / 1000 Ang^3
#
#
#
# Elastic Constant Matrix: (Units=GPa)
#
#
# Indices 1 2 3 4 5 6 
#
# 1 71.3230 46.4541 67.2398 0.0000 0.0000 0.0000
# 2 46.4541 71.3230 67.2401 0.0000 0.0000 0.0000
# 3 67.2398 67.2401 225.5108 0.0000 0.0000 0.0000
# 4 0.0000 0.0000 0.0000 286.0573 0.0000 0.0000
# 5 0.0000 0.0000 0.0000 0.0000 286.0564 0.0000
# 6 0.0000 0.0000 0.0000 0.0000 0.0000 44.0457
#
#
#
# Elastic Compliance Matrix: (Units=1/GPa)
#
#
# Indices 1 2 3 4 5 6 
#
# 1 0.026542 -0.013669 -0.003838 0.000000 0.000000 0.000000
# 2 -0.013669 0.026542 -0.003838 0.000000 0.000000 0.000000
# 3 -0.003838 -0.003838 0.006723 0.000000 0.000000 0.000000
# 4 0.000000 0.000000 0.000000 0.003496 0.000000 0.000000
# 5 0.000000 0.000000 0.000000 0.000000 0.003496 0.000000
# 6 0.000000 0.000000 0.000000 0.000000 0.000000 0.022704
#
#
# Mechanical properties :
#
#
# Convention : Reuss Voigt Hill
#
# Bulk Modulus (GPa) = 58.42332 81.11385 69.76859
# Shear Modulus (GPa) = 36.25829 135.71341 85.98585
#
# Velocity S-wave (km/s) = 4.04241 7.82075 6.22516
# Velocity P-wave (km/s) = 6.93676 10.86780 9.11668
#
# Compressibility (1/GPa) = 0.01711645
#
# Stress axis : x y z
#
# Youngs Moduli (GPa) = 37.67602 37.67594 148.73513
#
# Poissons Ratio (x) = 0.51498 0.57090
# Poissons Ratio (y) = 0.51498 0.57091
# Poissons Ratio (z) = 0.14462 0.14462
#
# Static dielectric constant tensor:
#      x y z
#    x 1.799770 0.000000 0.000000 
#    y 0.000000 1.799770 0.000000 
#    z 0.000000 0.000000 1.785170 
# 
# From -- ./inp_files/3031.got.cif
#   From: 2010.05.17/outbox.cif.g08.bks.cpg/sg90_2_cif.got.tgz:3031.got - 2010.06.03 19:17:45.
