data_PCOD9547513
_publ_section_title
;
Structure prediction by ZEFSAII (Michael W. Deem and Ramdas Pophale) SiO2 
 PCOD9547513
Probable space group: P 41 2 2
;
_chemical_formula_sum "Si O2"
_cell_formula_units_Z 56
_cell_length_a 25.186873
_cell_length_b 25.186873
_cell_length_c 4.993071
_cell_angle_alpha 90.000000
_cell_angle_beta 90.000000
_cell_angle_gamma 90.000000
_cell_volume 3167.497248
_symmetry_space_group_name_H-M "P 41 2 2"
_symmetry_group_IT_number 91
_symmetry_cell_setting 'tetragonal'
loop_
_space_group_symop_operation_xyz
x,y,z
-y,x,1/4+z
-x,-y,1/2+z
y,-x,3/4+z
x,-y,1/2-z
-x,y,-z
y,x,3/4-z
-y,-x,1/4-z
loop_
_atom_site_type_symbol
_atom_site_label
_atom_site_fract_x
_atom_site_fract_y
_atom_site_fract_z
Si Si1 0.776347 0.273688 0.879789
Si Si2 0.892370 0.534960 0.993657
Si Si3 0.637665 0.083353 0.007276
Si Si4 0.257125 0.055103 0.178422
Si Si5 0.889958 0.941324 0.120296
Si Si6 0.632176 0.848233 0.969660
Si Si7 0.888506 0.219454 0.910155
O O1 0.743628 0.256373 0.625000
O O2 0.801585 0.332110 0.839115
O O3 0.737788 0.262213 0.125000
O O4 0.826904 0.233539 0.904721
O O5 0.876761 0.500000 0.250000
O O6 0.929879 0.581245 0.121126
O O7 0.914744 0.500000 0.750000
O O8 0.844523 0.569944 0.862463
O O9 0.685793 0.043537 0.959170
O O10 0.655766 0.133315 0.818151
O O11 0.631516 0.105110 0.305393
O O12 0.261503 0.084814 0.459488
O O13 0.229397 0.000000 0.250000
O O14 0.226348 0.089530 0.959373
O O15 0.910058 0.910058 0.375000
O O16 0.835390 0.911495 0.045925
O O17 0.882299 0.000000 0.250000
O O18 0.931438 0.931438 0.875000
#
# Coordination Sequence:
#
# PCOD9547513 Si02
#       7
#     8   8   8   8   8   8   8
#     4  12  22  34  55  79 110 145 167 199 266 326
#     4  10  17  30  53  75  96 137 176 221 270 294
#     4  10  18  33  50  73 107 128 169 218 252 313
#     4  12  22  36  58  79 106 140 166 206 266 316
#     4  12  26  45  64  83 103 125 158 204 254 311
#     4  10  19  33  50  75 109 133 175 220 244 322
#     4  12  23  41  57  84 104 130 169 206 245 316
#
# _framework density 17.679573999999999
#
# number of rings (size 3 to 8) (size 9 to 14) (size 15 to 20)
#    0.857    0.000    4.286    5.143    0.000    0.571 
#    0.000    0.000    0.000    0.857    0.000    0.000 
#    0.000    0.000    0.000    0.000    0.000    0.000 
#
# Total GULP energy -311804.258447 kJ/mol
# GULP energy per Si atom -5567.933187 kJ/mol
# Density = 1.763933 g / cm^3
# Si number density = 17.679574 Si / 1000 Ang^3
#
#
#
# Elastic Constant Matrix: (Units=GPa)
#
#
# Indices 1 2 3 4 5 6 
#
# 1 25.0247 14.9326 10.8586 0.0000 0.0000 0.0000
# 2 14.9326 25.0213 10.8573 0.0000 0.0000 0.0000
# 3 10.8586 10.8573 122.1349 0.0000 0.0000 0.0000
# 4 0.0000 0.0000 0.0000 29.1612 0.0000 0.0000
# 5 0.0000 0.0000 0.0000 0.0000 29.1621 0.0000
# 6 0.0000 0.0000 0.0000 0.0000 0.0000 7.0312
#
#
#
# Elastic Compliance Matrix: (Units=1/GPa)
#
#
# Indices 1 2 3 4 5 6 
#
# 1 0.062697 -0.036403 -0.002338 0.000000 0.000000 0.000000
# 2 -0.036403 0.062706 -0.002338 0.000000 0.000000 0.000000
# 3 -0.002338 -0.002338 0.008603 0.000000 0.000000 0.000000
# 4 0.000000 0.000000 0.000000 0.034292 0.000000 0.000000
# 5 0.000000 0.000000 0.000000 0.000000 0.034291 0.000000
# 6 0.000000 0.000000 0.000000 0.000000 0.000000 0.142223
#
#
# Mechanical properties :
#
#
# Convention : Reuss Voigt Hill
#
# Bulk Modulus (GPa) = 19.28701 27.27535 23.28118
# Shear Modulus (GPa) = 11.25484 22.10639 16.68061
#
# Velocity S-wave (km/s) = 2.52583 3.53992 3.07497
# Velocity P-wave (km/s) = 4.40901 5.67179 5.07979
#
# Compressibility (1/GPa) = 0.05184837
#
# Stress axis : x y z
#
# Youngs Moduli (GPa) = 15.94960 15.94754 116.23361
#
# Poissons Ratio (x) = 0.58054 0.27177
# Poissons Ratio (y) = 0.58061 0.27173
# Poissons Ratio (z) = 0.03729 0.03728
#
# Static dielectric constant tensor:
#      x y z
#    x 1.701240 0.000000 0.000000 
#    y 0.000000 1.701250 0.000000 
#    z 0.000000 0.000000 1.643160 
# 
# From -- ./inp_files/14590.got.cif
#   From: 2010.05.17/outbox.cif.g08.bks.cpg/sg91_8_cif.got.tgz:14590.got - 2010.06.03 19:20:03.
