data_PCOD9547207
_publ_section_title
;
Structure prediction by ZEFSAII (Michael W. Deem and Ramdas Pophale) SiO2 
 PCOD9547207
Probable space group: P 4 21 2
;
_chemical_formula_sum "Si O2"
_cell_formula_units_Z 48
_cell_length_a 8.372450
_cell_length_b 8.372450
_cell_length_c 33.995965
_cell_angle_alpha 90.000000
_cell_angle_beta 90.000000
_cell_angle_gamma 90.000000
_cell_volume 2383.046401
_symmetry_space_group_name_H-M "P 4 21 2"
_symmetry_group_IT_number 90
_symmetry_cell_setting 'tetragonal'
loop_
_space_group_symop_operation_xyz
x,y,z
1/2-y,1/2+x,z
-x,-y,z
1/2+y,1/2-x,z
1/2+x,1/2-y,-z
1/2-x,1/2+y,-z
y,x,-z
-y,-x,-z
loop_
_atom_site_type_symbol
_atom_site_label
_atom_site_fract_x
_atom_site_fract_y
_atom_site_fract_z
Si Si1 0.582754 0.743198 0.802700
Si Si2 0.000000 0.000000 0.260049
Si Si3 0.254115 0.405777 0.876131
Si Si4 0.255319 0.415417 0.964506
Si Si5 0.736109 0.454317 0.532030
Si Si6 0.500000 0.500000 0.603541
Si Si7 0.738489 0.450085 0.325345
O O1 0.400485 0.806556 0.799857
O O2 0.603547 0.613730 0.768210
O O3 0.624333 0.655666 0.843449
O O4 0.088513 0.116222 0.290407
O O5 0.197314 0.589898 0.871989
O O6 0.319847 0.387372 0.920463
O O7 0.193558 0.596276 0.967409
O O8 0.369020 0.369020 0.000000
O O9 0.824688 0.622971 0.527767
O O10 0.610042 0.389959 0.500000
O O11 0.647873 0.478049 0.573678
O O12 0.469812 0.646825 0.633416
O O13 0.821910 0.621982 0.321495
#
# Coordination Sequence:
#
# PCOD9547207 Si02
#       7
#     8   4   8   8   8   4   8
#     4  11  23  38  59  87 116 148 189 240 295 354
#     4  11  22  38  61  84 114 148 185 234 288 353
#     4   9  19  37  58  81 113 153 193 237 294 356
#     4   9  19  35  54  78 111 150 192 236 282 336
#     4  11  23  39  61  91 131 178 229 283 334 389
#     4  11  21  38  63  92 126 164 211 266 325 379
#     4  10  22  40  63  90 120 156 198 247 305 372
#
# _framework density 20.142285000000001
#
# number of rings (size 3 to 8) (size 9 to 14) (size 15 to 20)
#    0.000    1.833    0.000    5.250    0.000    3.000 
#    0.000    6.667    0.000   18.500    0.000    0.000 
#    0.000    0.000    0.000    0.000    0.000    0.000 
#
# Total GULP energy -267738.083950 kJ/mol
# GULP energy per Si atom -5577.876749 kJ/mol
# Density = 2.009644 g / cm^3
# Si number density = 20.142285 Si / 1000 Ang^3
#
#
#
# Elastic Constant Matrix: (Units=GPa)
#
#
# Indices 1 2 3 4 5 6 
#
# 1 278.7624 -127.7436 72.0975 0.0000 0.0000 0.0000
# 2 -127.7436 278.7722 72.0952 0.0000 0.0000 0.0000
# 3 72.0975 72.0952 166.9069 0.0000 0.0000 0.0000
# 4 0.0000 0.0000 0.0000 29.0427 0.0000 0.0000
# 5 0.0000 0.0000 0.0000 0.0000 29.0426 0.0000
# 6 0.0000 0.0000 0.0000 0.0000 0.0000 27.3648
#
#
#
# Elastic Compliance Matrix: (Units=1/GPa)
#
#
# Indices 1 2 3 4 5 6 
#
# 1 0.006865 0.004405 -0.004868 0.000000 0.000000 0.000000
# 2 0.004405 0.006864 -0.004868 0.000000 0.000000 0.000000
# 3 -0.004868 -0.004868 0.010197 0.000000 0.000000 0.000000
# 4 0.000000 0.000000 0.000000 0.034432 0.000000 0.000000
# 5 0.000000 0.000000 0.000000 0.000000 0.034432 0.000000
# 6 0.000000 0.000000 0.000000 0.000000 0.000000 0.036543
#
#
# Mechanical properties :
#
#
# Convention : Reuss Voigt Hill
#
# Bulk Modulus (GPa) = 75.39310 84.14887 79.77098
# Shear Modulus (GPa) = 34.62214 64.28950 49.45582
#
# Velocity S-wave (km/s) = 4.15043 5.65570 4.96050
# Velocity P-wave (km/s) = 7.77687 9.19332 8.51460
#
# Compressibility (1/GPa) = 0.01326381
#
# Stress axis : x y z
#
# Youngs Moduli (GPa) = 145.67380 145.68073 98.07155
#
# Poissons Ratio (x) = -0.64166 0.47739
# Poissons Ratio (y) = -0.64162 0.47738
# Poissons Ratio (z) = 0.70911 0.70912
#
# Static dielectric constant tensor:
#      x y z
#    x 1.741260 0.000000 0.000000 
#    y 0.000000 1.741260 0.000000 
#    z 0.000000 0.000000 1.704450 
# 
# From -- ./inp_files/3090.got.cif
#   From: 2010.05.17/outbox.cif.g08.bks.cpg/sg90_2_cif.got.tgz:3090.got - 2010.06.03 19:17:45.
