data_PCOD9547825
_publ_section_title
;
Structure prediction by ZEFSAII (Michael W. Deem and Ramdas Pophale) SiO2 
 PCOD9547825
Probable space group: P 41 2 2
;
_chemical_formula_sum "Si O2"
_cell_formula_units_Z 64
_cell_length_a 17.908645
_cell_length_b 17.908645
_cell_length_c 11.384835
_cell_angle_alpha 90.000000
_cell_angle_beta 90.000000
_cell_angle_gamma 90.000000
_cell_volume 3651.339337
_symmetry_space_group_name_H-M "P 41 2 2"
_symmetry_group_IT_number 91
_symmetry_cell_setting 'tetragonal'
loop_
_space_group_symop_operation_xyz
x,y,z
-y,x,1/4+z
-x,-y,1/2+z
y,-x,3/4+z
x,-y,1/2-z
-x,y,-z
y,x,3/4-z
-y,-x,1/4-z
loop_
_atom_site_type_symbol
_atom_site_label
_atom_site_fract_x
_atom_site_fract_y
_atom_site_fract_z
Si Si1 0.006373 0.572341 0.629251
Si Si2 0.822372 0.717225 0.600549
Si Si3 0.696293 0.179162 0.838472
Si Si4 0.835977 0.539608 0.629218
Si Si5 0.027227 0.284917 0.710604
Si Si6 0.762146 0.126421 0.608019
Si Si7 0.160252 0.521377 0.878201
Si Si8 0.812100 0.071491 0.178027
O O1 0.017350 0.632038 0.733516
O O2 0.076568 0.515746 0.625100
O O3 0.000000 0.610974 0.500000
O O4 0.926416 0.532498 0.637332
O O5 0.739463 0.752928 0.599507
O O6 0.821624 0.627952 0.611617
O O7 0.855964 0.743055 0.724321
O O8 0.874402 0.754686 0.500628
O O9 0.728779 0.103264 0.891853
O O10 0.714838 0.175905 0.700079
O O11 0.609649 0.169715 0.863602
O O12 0.807444 0.500000 0.750000
O O13 0.809322 0.505769 0.504864
O O14 0.033433 0.233108 0.823295
O O15 0.958412 0.262210 0.629576
O O16 0.847504 0.152497 0.625000
O O17 0.193062 0.500000 0.750000
O O18 0.876446 0.123555 0.125000
O O19 0.841005 0.000000 0.250000
#
# Coordination Sequence:
#
# PCOD9547825 Si02
#       8
#     8   8   8   8   8   8   8   8
#     4  10  20  33  55  83 116 154 187 239 294 368
#     4  11  22  41  61  82 116 155 206 239 296 371
#     4  11  24  37  57  86 117 162 190 244 299 374
#     4  11  22  35  59  86 115 160 196 240 298 361
#     4  12  20  36  60  82 114 147 204 241 314 352
#     4  10  22  37  55  81 113 151 201 251 295 351
#     4  11  22  36  52  85 126 145 191 240 300 360
#     4  12  23  40  63  84 104 149 205 267 309 366
#
# _framework density 17.527815
#
# number of rings (size 3 to 8) (size 9 to 14) (size 15 to 20)
#    0.000    1.000    5.000    3.375    0.000    2.000 
#    0.000    0.625    0.000    0.000    0.000    0.000 
#    0.000    3.000    0.000    0.000    0.000    0.000 
#
# Total GULP energy -356532.945827 kJ/mol
# GULP energy per Si atom -5570.827279 kJ/mol
# Density = 1.748792 g / cm^3
# Si number density = 17.527815 Si / 1000 Ang^3
#
#
#
# Elastic Constant Matrix: (Units=GPa)
#
#
# Indices 1 2 3 4 5 6 
#
# 1 69.0448 38.7762 28.7614 0.0000 0.0000 0.0000
# 2 38.7762 69.0453 28.7624 0.0000 0.0000 0.0000
# 3 28.7614 28.7624 100.1735 0.0000 0.0000 0.0000
# 4 0.0000 0.0000 0.0000 21.1492 0.0000 0.0000
# 5 0.0000 0.0000 0.0000 0.0000 21.1489 0.0000
# 6 0.0000 0.0000 0.0000 0.0000 0.0000 13.8082
#
#
#
# Elastic Compliance Matrix: (Units=1/GPa)
#
#
# Indices 1 2 3 4 5 6 
#
# 1 0.021995 -0.011042 -0.003144 0.000000 0.000000 0.000000
# 2 -0.011042 0.021995 -0.003145 0.000000 0.000000 0.000000
# 3 -0.003144 -0.003145 0.011788 0.000000 0.000000 0.000000
# 4 0.000000 0.000000 0.000000 0.047283 0.000000 0.000000
# 5 0.000000 0.000000 0.000000 0.000000 0.047284 0.000000
# 6 0.000000 0.000000 0.000000 0.000000 0.000000 0.072421
#
#
# Mechanical properties :
#
#
# Convention : Reuss Voigt Hill
#
# Bulk Modulus (GPa) = 47.36077 47.87376 47.61727
# Shear Modulus (GPa) = 18.90591 20.68549 19.79570
#
# Velocity S-wave (km/s) = 3.28780 3.43906 3.36428
# Velocity P-wave (km/s) = 6.44142 6.56824 6.50514
#
# Compressibility (1/GPa) = 0.02111452
#
# Stress axis : x y z
#
# Youngs Moduli (GPa) = 45.46541 45.46534 84.82873
#
# Poissons Ratio (x) = 0.50205 0.26674
# Poissons Ratio (y) = 0.50205 0.26677
# Poissons Ratio (z) = 0.14296 0.14298
#
# Static dielectric constant tensor:
#      x y z
#    x 1.629990 0.000000 0.000000 
#    y 0.000000 1.629990 0.000000 
#    z 0.000000 0.000000 1.639390 
# 
# From -- ./inp_files/10966.got.cif
#   From: 2010.05.17/outbox.cif.g08.bks.cpg/sg91_6_cif.got.tgz:10966.got - 2010.06.03 19:20:03.
