data_PCOD9547633
_publ_section_title
;
Structure prediction by ZEFSAII (Michael W. Deem and Ramdas Pophale) SiO2 
 PCOD9547633
Probable space group: P 41 2 2
;
_chemical_formula_sum "Si O2"
_cell_formula_units_Z 40
_cell_length_a 8.234845
_cell_length_b 8.234845
_cell_length_c 26.923433
_cell_angle_alpha 90.000000
_cell_angle_beta 90.000000
_cell_angle_gamma 90.000000
_cell_volume 1825.749936
_symmetry_space_group_name_H-M "P 41 2 2"
_symmetry_group_IT_number 91
_symmetry_cell_setting 'tetragonal'
loop_
_space_group_symop_operation_xyz
x,y,z
-y,x,1/4+z
-x,-y,1/2+z
y,-x,3/4+z
x,-y,1/2-z
-x,y,-z
y,x,3/4-z
-y,-x,1/4-z
loop_
_atom_site_type_symbol
_atom_site_label
_atom_site_fract_x
_atom_site_fract_y
_atom_site_fract_z
Si Si1 0.680294 0.450429 0.196606
Si Si2 0.382712 0.344761 0.430176
Si Si3 0.460624 0.918829 0.697578
Si Si4 0.955771 0.703638 0.355566
Si Si5 0.261347 0.233592 0.535793
O O1 0.744416 0.500000 0.250000
O O2 0.537308 0.576292 0.184255
O O3 0.611670 0.265608 0.198068
O O4 0.826798 0.436762 0.158934
O O5 0.315490 0.315490 0.375000
O O6 0.281247 0.276472 0.477246
O O7 0.563374 0.274839 0.439666
O O8 0.379447 0.028747 0.654844
O O9 0.651919 0.881108 0.693586
O O10 0.427382 0.000000 0.750000
O O11 0.858968 0.858968 0.375000
O O12 0.053876 0.757121 0.307120
#
# Coordination Sequence:
#
# PCOD9547633 Si02
#       5
#     8   8   8   8   8
#     4  10  18  37  63  93 121 157 209 261 316 370
#     4  10  19  35  64  94 129 153 204 280 318 364
#     4  10  21  38  61  90 117 167 208 261 313 383
#     4  10  23  39  63  87 127 169 214 259 314 394
#     4  10  21  38  59  96 129 162 215 259 326 387
#
# _framework density 21.908802999999999
#
# number of rings (size 3 to 8) (size 9 to 14) (size 15 to 20)
#    0.000    2.000    4.000    3.000    5.600    1.600 
#    0.000    4.000   13.200    0.000    0.000    0.000 
#    0.000    0.000    0.000    0.000    0.000    0.000 
#
# Total GULP energy -222917.363932 kJ/mol
# GULP energy per Si atom -5572.934098 kJ/mol
# Density = 2.185894 g / cm^3
# Si number density = 21.908803 Si / 1000 Ang^3
#
#
#
# Elastic Constant Matrix: (Units=GPa)
#
#
# Indices 1 2 3 4 5 6 
#
# 1 44.9001 9.5598 44.8773 0.0000 0.0000 0.0000
# 2 9.5598 44.9001 44.8773 0.0000 0.0000 0.0000
# 3 44.8773 44.8773 173.6501 0.0000 0.0000 0.0000
# 4 0.0000 0.0000 0.0000 33.5406 0.0000 0.0000
# 5 0.0000 0.0000 0.0000 0.0000 33.5406 0.0000
# 6 0.0000 0.0000 0.0000 0.0000 0.0000 4.0473
#
#
#
# Elastic Compliance Matrix: (Units=1/GPa)
#
#
# Indices 1 2 3 4 5 6 
#
# 1 0.030141 0.001845 -0.008266 0.000000 0.000000 0.000000
# 2 0.001845 0.030141 -0.008266 0.000000 0.000000 0.000000
# 3 -0.008266 -0.008266 0.010031 0.000000 0.000000 0.000000
# 4 0.000000 0.000000 0.000000 0.029815 0.000000 0.000000
# 5 0.000000 0.000000 0.000000 0.000000 0.029815 0.000000
# 6 0.000000 0.000000 0.000000 0.000000 0.000000 0.247078
#
#
# Mechanical properties :
#
#
# Convention : Reuss Voigt Hill
#
# Bulk Modulus (GPa) = 24.42744 51.34210 37.88477
# Shear Modulus (GPa) = 11.90358 25.16808 18.53583
#
# Velocity S-wave (km/s) = 2.33346 3.39302 2.91184
# Velocity P-wave (km/s) = 4.29347 6.23181 5.35114
#
# Compressibility (1/GPa) = 0.04093756
#
# Stress axis : x y z
#
# Youngs Moduli (GPa) = 33.17747 33.17747 99.68845
#
# Poissons Ratio (x) = -0.06120 0.82404
# Poissons Ratio (y) = -0.06120 0.82404
# Poissons Ratio (z) = 0.27425 0.27425
#
# Static dielectric constant tensor:
#      x y z
#    x 1.868380 0.000000 0.000000 
#    y 0.000000 1.868380 0.000000 
#    z 0.000000 0.000000 1.891950 
# 
# From -- ./inp_files/22146.got.cif
#   From: 2010.05.17/outbox.cif.g08.bks.cpg/sg91_12_cif.got.tgz:22146.got - 2010.06.03 19:20:03.
