data_PCOD9547615
_publ_section_title
;
Structure prediction by ZEFSAII (Michael W. Deem and Ramdas Pophale) SiO2 
 PCOD9547615
Probable space group: P 41 2 2
;
_chemical_formula_sum "Si O2"
_cell_formula_units_Z 64
_cell_length_a 21.130256
_cell_length_b 21.130256
_cell_length_c 9.452597
_cell_angle_alpha 90.000000
_cell_angle_beta 90.000000
_cell_angle_gamma 90.000000
_cell_volume 4220.468470
_symmetry_space_group_name_H-M "P 41 2 2"
_symmetry_group_IT_number 91
_symmetry_cell_setting 'tetragonal'
loop_
_space_group_symop_operation_xyz
x,y,z
-y,x,1/4+z
-x,-y,1/2+z
y,-x,3/4+z
x,-y,1/2-z
-x,y,-z
y,x,3/4-z
-y,-x,1/4-z
loop_
_atom_site_type_symbol
_atom_site_label
_atom_site_fract_x
_atom_site_fract_y
_atom_site_fract_z
Si Si1 0.327071 0.092904 0.496703
Si Si2 0.970687 0.748428 0.158358
Si Si3 0.073601 0.558228 0.458290
Si Si4 0.074162 0.583045 0.012489
Si Si5 0.166907 0.240247 0.046805
Si Si6 0.845493 0.059999 0.151868
Si Si7 0.831838 0.294904 0.262204
Si Si8 0.431493 0.155329 0.989943
O O1 0.387625 0.086643 0.596438
O O2 0.359855 0.107334 0.346132
O O3 0.277643 0.141012 0.567576
O O4 0.292209 0.025291 0.484622
O O5 0.956148 0.809948 0.254937
O O6 0.902785 0.712851 0.172999
O O7 0.000000 0.759717 0.000000
O O8 0.081902 0.485124 0.412314
O O9 0.119982 0.571588 0.590147
O O10 0.000000 0.563292 0.500000
O O11 0.100481 0.568818 0.857895
O O12 0.000000 0.598860 0.000000
O O13 0.236007 0.209583 0.068275
O O14 0.117077 0.187525 0.991147
O O15 0.167233 0.284405 0.907687
O O16 0.915811 0.084190 0.125000
O O17 0.841488 0.000000 0.250000
O O18 0.808132 0.366876 0.276853
O O19 0.500000 0.188607 0.000000
#
# Coordination Sequence:
#
# PCOD9547615 Si02
#       8
#     8   8   8   8   8   8   8   8
#     4  12  20  30  48  75  90 124 164 195 248 284
#     4  11  22  33  52  74  98 123 150 202 250 297
#     4  10  19  28  46  65  92 131 166 191 226 286
#     4  10  20  32  40  66 104 125 151 203 243 273
#     4  10  20  31  55  74  87 126 159 204 239 294
#     4  11  21  41  59  74  92 118 158 200 258 315
#     4  10  18  35  49  71  97 117 162 201 239 285
#     4  10  19  31  47  65  92 130 159 187 236 285
#
# _framework density 15.164192
#
# number of rings (size 3 to 8) (size 9 to 14) (size 15 to 20)
#    0.000    1.500    5.000    3.750    1.750    2.000 
#    0.000    5.000    0.000    0.000    0.000    0.000 
#    0.000    0.000    0.000    0.000    0.000   10.000 
#
# Total GULP energy -356410.878934 kJ/mol
# GULP energy per Si atom -5568.919983 kJ/mol
# Density = 1.512968 g / cm^3
# Si number density = 15.164192 Si / 1000 Ang^3
#
#
#
# Elastic Constant Matrix: (Units=GPa)
#
#
# Indices 1 2 3 4 5 6 
#
# 1 76.7135 43.7210 28.8501 0.0000 0.0000 0.0000
# 2 43.7210 76.7181 28.8510 0.0000 0.0000 0.0000
# 3 28.8501 28.8510 75.7019 0.0000 0.0000 0.0000
# 4 0.0000 0.0000 0.0000 19.0293 0.0000 0.0000
# 5 0.0000 0.0000 0.0000 0.0000 19.0285 0.0000
# 6 0.0000 0.0000 0.0000 0.0000 0.0000 6.5557
#
#
#
# Elastic Compliance Matrix: (Units=1/GPa)
#
#
# Indices 1 2 3 4 5 6 
#
# 1 0.020233 -0.010075 -0.003871 0.000000 0.000000 0.000000
# 2 -0.010075 0.020232 -0.003871 0.000000 0.000000 0.000000
# 3 -0.003871 -0.003871 0.016160 0.000000 0.000000 0.000000
# 4 0.000000 0.000000 0.000000 0.052550 0.000000 0.000000
# 5 0.000000 0.000000 0.000000 0.000000 0.052553 0.000000
# 6 0.000000 0.000000 0.000000 0.000000 0.000000 0.152539
#
#
# Mechanical properties :
#
#
# Convention : Reuss Voigt Hill
#
# Bulk Modulus (GPa) = 47.63911 47.99752 47.81832
# Shear Modulus (GPa) = 14.00953 17.43682 15.72318
#
# Velocity S-wave (km/s) = 3.04280 3.39465 3.22353
# Velocity P-wave (km/s) = 6.62031 6.86188 6.74218
#
# Compressibility (1/GPa) = 0.02099116
#
# Stress axis : x y z
#
# Youngs Moduli (GPa) = 49.42329 49.42620 61.87970
#
# Poissons Ratio (x) = 0.49797 0.23955
# Poissons Ratio (y) = 0.49794 0.23955
# Poissons Ratio (z) = 0.19133 0.19134
#
# Static dielectric constant tensor:
#      x y z
#    x 1.519570 0.000000 0.000000 
#    y 0.000000 1.519560 0.000000 
#    z 0.000000 0.000000 1.550470 
# 
# From -- ./inp_files/10165.got.cif
#   From: 2010.05.17/outbox.cif.g08.bks.cpg/sg91_6_cif.got.tgz:10165.got - 2010.06.03 19:20:03.
