data_PCOD9547000
_publ_section_title
;
Structure prediction by ZEFSAII (Michael W. Deem and Ramdas Pophale) SiO2 
 PCOD9547000
Probable space group: P 4 2 2
;
_chemical_formula_sum "Si O2"
_cell_formula_units_Z 32
_cell_length_a 9.029657
_cell_length_b 9.029657
_cell_length_c 19.755146
_cell_angle_alpha 90.000000
_cell_angle_beta 90.000000
_cell_angle_gamma 90.000000
_cell_volume 1610.730012
_symmetry_space_group_name_H-M "P 4 2 2"
_symmetry_group_IT_number 89
_symmetry_cell_setting 'tetragonal'
loop_
_space_group_symop_operation_xyz
x,y,z
-y,x,z
-x,-y,z
y,-x,z
x,-y,-z
-x,y,-z
y,x,-z
-y,-x,-z
loop_
_atom_site_type_symbol
_atom_site_label
_atom_site_fract_x
_atom_site_fract_y
_atom_site_fract_z
Si Si1 0.884312 0.613416 0.949393
Si Si2 0.160173 0.809617 0.166662
Si Si3 0.179986 0.827218 0.577304
Si Si4 0.315186 0.665058 0.295219
O O1 0.794855 0.715307 0.899460
O O2 0.000000 0.500000 0.911962
O O3 0.801009 0.500000 0.000000
O O4 0.000000 0.698198 0.000000
O O5 0.226752 0.739924 0.234008
O O6 0.981809 0.800219 0.164892
O O7 0.216360 0.783641 0.500000
O O8 0.273243 0.745037 0.633871
O O9 0.004112 0.798839 0.585397
O O10 0.298219 0.488720 0.290405
#
# Coordination Sequence:
#
# PCOD9547000 Si02
#       4
#     8   8   8   8
#     4   6  17  36  56  82 117 160 189 245 311 377
#     4  11  23  37  62  94 122 158 210 268 321 373
#     4   9  19  39  66  94 123 155 199 256 312 373
#     4  11  26  41  57  85 124 170 212 255 315 385
#
# _framework density 19.866769000000001
#
# number of rings (size 3 to 8) (size 9 to 14) (size 15 to 20)
#    1.500    1.250    0.000    2.250    3.500    7.000 
#    0.000    5.000    0.000    0.000    0.000    0.000 
#    0.000    0.000    0.000    0.000    0.000    0.000 
#
# Total GULP energy -178306.388821 kJ/mol
# GULP energy per Si atom -5572.074651 kJ/mol
# Density = 1.982155 g / cm^3
# Si number density = 19.866769 Si / 1000 Ang^3
#
#
#
# Elastic Constant Matrix: (Units=GPa)
#
#
# Indices 1 2 3 4 5 6 
#
# 1 73.9408 50.3841 65.7007 0.0000 0.0000 0.0000
# 2 50.3841 73.9409 65.7009 0.0000 0.0000 0.0000
# 3 65.7007 65.7009 138.5540 0.0000 0.0000 0.0000
# 4 0.0000 0.0000 0.0000 37.1579 0.0000 0.0000
# 5 0.0000 0.0000 0.0000 0.0000 37.1578 0.0000
# 6 0.0000 0.0000 0.0000 0.0000 0.0000 28.5416
#
#
#
# Elastic Compliance Matrix: (Units=1/GPa)
#
#
# Indices 1 2 3 4 5 6 
#
# 1 0.029288 -0.013163 -0.007646 0.000000 0.000000 0.000000
# 2 -0.013163 0.029288 -0.007646 0.000000 0.000000 0.000000
# 3 -0.007646 -0.007646 0.014469 0.000000 0.000000 0.000000
# 4 0.000000 0.000000 0.000000 0.026912 0.000000 0.000000
# 5 0.000000 0.000000 0.000000 0.000000 0.026912 0.000000
# 6 0.000000 0.000000 0.000000 0.000000 0.000000 0.035037
#
#
# Mechanical properties :
#
#
# Convention : Reuss Voigt Hill
#
# Bulk Modulus (GPa) = 61.98183 72.22298 67.10241
# Shear Modulus (GPa) = 22.30209 27.54812 24.92511
#
# Velocity S-wave (km/s) = 3.35413 3.72781 3.54589
# Velocity P-wave (km/s) = 6.80197 7.41359 7.11435
#
# Compressibility (1/GPa) = 0.01613376
#
# Stress axis : x y z
#
# Youngs Moduli (GPa) = 34.14399 34.14388 69.11352
#
# Poissons Ratio (x) = 0.44943 0.52846
# Poissons Ratio (y) = 0.44943 0.52846
# Poissons Ratio (z) = 0.26107 0.26108
#
# Static dielectric constant tensor:
#      x y z
#    x 1.709640 0.000000 0.000000 
#    y 0.000000 1.709640 0.000000 
#    z 0.000000 0.000000 1.721480 
# 
# From -- ./inp_files/2667.got.cif
#   From: 2010.05.17/outbox.cif.g08.bks.cpg/sg89_2_cif.got.tgz:2667.got - 2010.06.03 19:15:31.
