data_PCOD9547872
_publ_section_title
;
Structure prediction by ZEFSAII (Michael W. Deem and Ramdas Pophale) SiO2 
 PCOD9547872
Probable space group: P 41 2 2
;
_chemical_formula_sum "Si O2"
_cell_formula_units_Z 44
_cell_length_a 12.229115
_cell_length_b 12.229115
_cell_length_c 16.100497
_cell_angle_alpha 90.000000
_cell_angle_beta 90.000000
_cell_angle_gamma 90.000000
_cell_volume 2407.849511
_symmetry_space_group_name_H-M "P 41 2 2"
_symmetry_group_IT_number 91
_symmetry_cell_setting 'tetragonal'
loop_
_space_group_symop_operation_xyz
x,y,z
-y,x,1/4+z
-x,-y,1/2+z
y,-x,3/4+z
x,-y,1/2-z
-x,y,-z
y,x,3/4-z
-y,-x,1/4-z
loop_
_atom_site_type_symbol
_atom_site_label
_atom_site_fract_x
_atom_site_fract_y
_atom_site_fract_z
Si Si1 0.992931 0.790310 0.158517
Si Si2 0.174476 0.623252 0.768155
Si Si3 0.652583 0.347418 0.125000
Si Si4 0.416128 0.300178 0.189112
Si Si5 0.000000 0.907166 0.000000
Si Si6 0.500000 0.735816 0.000000
Si Si7 0.633135 0.809712 0.854959
O O1 0.027634 0.899436 0.208613
O O2 0.094008 0.717081 0.125859
O O3 0.917083 0.712315 0.212408
O O4 0.944171 0.834894 0.072124
O O5 0.132212 0.500000 0.750000
O O6 0.248185 0.654731 0.689557
O O7 0.249662 0.617411 0.850651
O O8 0.540019 0.341251 0.176847
O O9 0.340377 0.401877 0.215728
O O10 0.406573 0.207219 0.260756
O O11 0.462188 0.809591 0.077247
O O12 0.699386 0.699386 0.875000
#
# Coordination Sequence:
#
# PCOD9547872 Si02
#       7
#     8   8   4   8   4   4   8
#     4  11  22  40  63  84 121 148 208 257 311 364
#     4  10  23  39  60  85 122 164 190 248 307 370
#     4  10  22  38  56  88 124 162 204 226 302 384
#     4  10  21  36  59  88 121 161 200 240 295 367
#     4  10  22  40  64  88 102 158 204 260 306 354
#     4  10  22  30  58  90 118 154 190 246 296 344
#     4  10  20  36  55  89 115 150 200 255 301 358
#
# _framework density 18.273568000000001
#
# number of rings (size 3 to 8) (size 9 to 14) (size 15 to 20)
#    0.000    1.818    1.818    2.182   11.455    1.455 
#    0.000    0.000    0.000    0.000    0.000    0.000 
#    0.000    0.000    0.000    0.000    0.000    0.000 
#
# Total GULP energy -245311.182020 kJ/mol
# GULP energy per Si atom -5575.254137 kJ/mol
# Density = 1.823198 g / cm^3
# Si number density = 18.273568 Si / 1000 Ang^3
#
#
#
# Elastic Constant Matrix: (Units=GPa)
#
#
# Indices 1 2 3 4 5 6 
#
# 1 67.9851 39.8334 38.2504 0.0000 0.0000 0.0000
# 2 39.8334 67.9852 38.2498 0.0000 0.0000 0.0000
# 3 38.2504 38.2498 117.8385 0.0000 0.0000 0.0000
# 4 0.0000 0.0000 0.0000 29.0135 0.0000 0.0000
# 5 0.0000 0.0000 0.0000 0.0000 29.0136 0.0000
# 6 0.0000 0.0000 0.0000 0.0000 0.0000 26.4846
#
#
#
# Elastic Compliance Matrix: (Units=1/GPa)
#
#
# Indices 1 2 3 4 5 6 
#
# 1 0.023786 -0.011736 -0.003912 0.000000 0.000000 0.000000
# 2 -0.011736 0.023786 -0.003911 0.000000 0.000000 0.000000
# 3 -0.003912 -0.003911 0.011025 0.000000 0.000000 0.000000
# 4 0.000000 0.000000 0.000000 0.034467 0.000000 0.000000
# 5 0.000000 0.000000 0.000000 0.000000 0.034467 0.000000
# 6 0.000000 0.000000 0.000000 0.000000 0.000000 0.037758
#
#
# Mechanical properties :
#
#
# Convention : Reuss Voigt Hill
#
# Bulk Modulus (GPa) = 51.33484 54.05289 52.69386
# Shear Modulus (GPa) = 23.70803 26.06737 24.88770
#
# Velocity S-wave (km/s) = 3.60584 3.78101 3.69447
# Velocity P-wave (km/s) = 6.74459 6.97893 6.86276
#
# Compressibility (1/GPa) = 0.01947995
#
# Stress axis : x y z
#
# Youngs Moduli (GPa) = 42.04153 42.04188 90.69900
#
# Poissons Ratio (x) = 0.49339 0.35477
# Poissons Ratio (y) = 0.49339 0.35475
# Poissons Ratio (z) = 0.16445 0.16444
#
# Static dielectric constant tensor:
#      x y z
#    x 1.634290 0.000000 0.000000 
#    y 0.000000 1.634290 0.000000 
#    z 0.000000 0.000000 1.644760 
# 
# From -- ./inp_files/11899.got.cif
#   From: 2010.05.17/outbox.cif.g08.bks.cpg/sg91_6_cif.got.tgz:11899.got - 2010.06.03 19:20:03.
