data_PCOD9547082
_publ_section_title
;
Structure prediction by ZEFSAII (Michael W. Deem and Ramdas Pophale) SiO2 
 PCOD9547082
Probable space group: P 4 21 2
;
_chemical_formula_sum "Si O2"
_cell_formula_units_Z 64
_cell_length_a 22.409342
_cell_length_b 22.409342
_cell_length_c 7.500776
_cell_angle_alpha 90.000000
_cell_angle_beta 90.000000
_cell_angle_gamma 90.000000
_cell_volume 3766.729257
_symmetry_space_group_name_H-M "P 4 21 2"
_symmetry_group_IT_number 90
_symmetry_cell_setting 'tetragonal'
loop_
_space_group_symop_operation_xyz
x,y,z
1/2-y,1/2+x,z
-x,-y,z
1/2+y,1/2-x,z
1/2+x,1/2-y,-z
1/2-x,1/2+y,-z
y,x,-z
-y,-x,-z
loop_
_atom_site_type_symbol
_atom_site_label
_atom_site_fract_x
_atom_site_fract_y
_atom_site_fract_z
Si Si1 0.943295 0.241480 0.120450
Si Si2 0.937836 0.337606 0.411932
Si Si3 0.214683 0.811121 0.793013
Si Si4 0.195277 0.625693 0.848134
Si Si5 0.566262 0.160747 0.510062
Si Si6 0.756075 0.925457 0.813071
Si Si7 0.801287 0.790755 0.290896
Si Si8 0.269007 0.892030 0.251222
O O1 0.943868 0.305338 0.221798
O O2 0.882715 0.213606 0.205271
O O3 0.009453 0.215641 0.153740
O O4 0.932641 0.244840 0.908684
O O5 0.884419 0.383792 0.421799
O O6 0.924541 0.290013 0.570250
O O7 0.000986 0.366054 0.462474
O O8 0.274877 0.777090 0.731198
O O9 0.159067 0.779028 0.698247
O O10 0.207181 0.792820 0.000000
O O11 0.178945 0.580062 0.691611
O O12 0.253645 0.664764 0.797139
O O13 0.142569 0.674749 0.839668
O O14 0.209585 0.591064 0.029028
O O15 0.569865 0.219826 0.629446
O O16 0.796057 0.866502 0.793675
O O17 0.803328 0.803328 0.500000
#
# Coordination Sequence:
#
# PCOD9547082 Si02
#       8
#     8   8   8   8   8   8   8   8
#     4  10  20  31  47  69  99 130 159 197 241 308
#     4  10  20  31  48  66  97 131 172 202 249 284
#     4   9  18  31  49  74  99 127 164 204 256 309
#     4  10  19  32  52  71  97 126 164 209 257 298
#     4  10  20  33  46  70  94 134 170 208 241 295
#     4  11  20  32  47  69 101 132 159 198 248 300
#     4  11  19  30  51  76 100 129 167 206 255 307
#     4   9  18  32  49  73  93 126 160 209 254 298
#
# _framework density 16.990869
#
# number of rings (size 3 to 8) (size 9 to 14) (size 15 to 20)
#    0.000    2.000    1.250    4.875    3.500    0.250 
#    0.000    0.000    0.000    0.000    0.000    3.500 
#    0.000   31.000    7.000    0.000    0.000    0.000 
#
# Total GULP energy -356781.106334 kJ/mol
# GULP energy per Si atom -5574.704786 kJ/mol
# Density = 1.695220 g / cm^3
# Si number density = 16.990869 Si / 1000 Ang^3
#
#
#
# Elastic Constant Matrix: (Units=GPa)
#
#
# Indices 1 2 3 4 5 6 
#
# 1 59.2333 7.5471 3.7101 0.0000 0.0000 0.0000
# 2 7.5471 59.2343 3.7093 0.0000 0.0000 0.0000
# 3 3.7101 3.7093 43.0165 0.0000 0.0000 0.0000
# 4 0.0000 0.0000 0.0000 18.3863 0.0000 0.0000
# 5 0.0000 0.0000 0.0000 0.0000 18.3862 0.0000
# 6 0.0000 0.0000 0.0000 0.0000 0.0000 7.3300
#
#
#
# Elastic Compliance Matrix: (Units=1/GPa)
#
#
# Indices 1 2 3 4 5 6 
#
# 1 0.017233 -0.002114 -0.001304 0.000000 0.000000 0.000000
# 2 -0.002114 0.017233 -0.001304 0.000000 0.000000 0.000000
# 3 -0.001304 -0.001304 0.023472 0.000000 0.000000 0.000000
# 4 0.000000 0.000000 0.000000 0.054388 0.000000 0.000000
# 5 0.000000 0.000000 0.000000 0.000000 0.054388 0.000000
# 6 0.000000 0.000000 0.000000 0.000000 0.000000 0.136426
#
#
# Mechanical properties :
#
#
# Convention : Reuss Voigt Hill
#
# Bulk Modulus (GPa) = 20.62080 21.26857 20.94469
# Shear Modulus (GPa) = 15.20914 18.58833 16.89874
#
# Velocity S-wave (km/s) = 2.99513 3.31118 3.15711
# Velocity P-wave (km/s) = 4.91160 5.21185 5.06395
#
# Compressibility (1/GPa) = 0.04849472
#
# Stress axis : x y z
#
# Youngs Moduli (GPa) = 58.02672 58.02785 42.60433
#
# Poissons Ratio (x) = 0.12268 0.05556
# Poissons Ratio (y) = 0.12267 0.05554
# Poissons Ratio (z) = 0.07567 0.07565
#
# Static dielectric constant tensor:
#      x y z
#    x 1.596760 0.000000 0.000000 
#    y 0.000000 1.596760 0.000000 
#    z 0.000000 0.000000 1.589960 
# 
# From -- ./inp_files/1736.got.cif
#   From: 2010.05.17/outbox.cif.g08.bks.cpg/sg90_1_cif.got.tgz:1736.got - 2010.06.03 19:17:45.
