data_PCOD9547702
_publ_section_title
;
Structure prediction by ZEFSAII (Michael W. Deem and Ramdas Pophale) SiO2 
 PCOD9547702
Probable space group: P 41 2 2
;
_chemical_formula_sum "Si O2"
_cell_formula_units_Z 28
_cell_length_a 13.688517
_cell_length_b 13.688517
_cell_length_c 7.777715
_cell_angle_alpha 90.000000
_cell_angle_beta 90.000000
_cell_angle_gamma 90.000000
_cell_volume 1457.353219
_symmetry_space_group_name_H-M "P 41 2 2"
_symmetry_group_IT_number 91
_symmetry_cell_setting 'tetragonal'
loop_
_space_group_symop_operation_xyz
x,y,z
-y,x,1/4+z
-x,-y,1/2+z
y,-x,3/4+z
x,-y,1/2-z
-x,y,-z
y,x,3/4-z
-y,-x,1/4-z
loop_
_atom_site_type_symbol
_atom_site_label
_atom_site_fract_x
_atom_site_fract_y
_atom_site_fract_z
Si Si1 0.827616 0.261633 0.866677
Si Si2 0.869384 0.000000 0.250000
Si Si3 0.538932 0.109570 0.301532
Si Si4 0.882616 0.325940 0.484492
O O1 0.824951 0.364614 0.967079
O O2 0.839807 0.298646 0.671059
O O3 0.741827 0.182234 0.889151
O O4 0.924852 0.200796 0.904127
O O5 0.938329 0.938329 0.375000
O O6 0.500000 0.108169 0.500000
O O7 0.440356 0.132708 0.197446
O O8 0.568924 0.000000 0.250000
O O9 0.000000 0.308473 0.500000
#
# Coordination Sequence:
#
# PCOD9547702 Si02
#       4
#     8   4   8   8
#     4  10  19  33  50  73 103 137 177 208 256 312
#     4  12  26  34  48  70 110 146 174 206 246 312
#     4   9  17  32  51  73 101 132 173 217 251 300
#     4   9  18  31  53  74 105 134 171 215 261 303
#
# _framework density 19.212911999999999
#
# number of rings (size 3 to 8) (size 9 to 14) (size 15 to 20)
#    0.000    2.286    1.429    1.714    6.000    0.000 
#    0.000    0.000    0.000    0.000    0.000    0.000 
#   51.429    0.000    0.000    0.000    0.000    0.000 
#
# Total GULP energy -156043.688892 kJ/mol
# GULP energy per Si atom -5572.988889 kJ/mol
# Density = 1.916918 g / cm^3
# Si number density = 19.212912 Si / 1000 Ang^3
#
#
#
# Elastic Constant Matrix: (Units=GPa)
#
#
# Indices 1 2 3 4 5 6 
#
# 1 144.6741 86.9123 9.8118 0.0000 0.0000 0.0000
# 2 86.9123 144.6741 9.8118 0.0000 0.0000 0.0000
# 3 9.8118 9.8118 17.3477 0.0000 0.0000 0.0000
# 4 0.0000 0.0000 0.0000 15.0050 0.0000 0.0000
# 5 0.0000 0.0000 0.0000 0.0000 15.0050 0.0000
# 6 0.0000 0.0000 0.0000 0.0000 0.0000 -268.3382
#
#
#
# Elastic Compliance Matrix: (Units=1/GPa)
#
#
# Indices 1 2 3 4 5 6 
#
# 1 0.010924 -0.006389 -0.002565 0.000000 0.000000 0.000000
# 2 -0.006389 0.010924 -0.002565 0.000000 0.000000 0.000000
# 3 -0.002565 -0.002565 0.060546 0.000000 0.000000 0.000000
# 4 0.000000 0.000000 0.000000 0.066644 0.000000 0.000000
# 5 0.000000 0.000000 0.000000 0.000000 0.066644 0.000000
# 6 0.000000 0.000000 0.000000 0.000000 0.000000 -0.003727
#
#
# Mechanical properties :
#
#
# Convention : Reuss Voigt Hill
#
# Bulk Modulus (GPa) = 16.84746 57.75197 37.29971
# Shear Modulus (GPa) = 19.62483 -34.32161 -7.34839
#
# Velocity S-wave (km/s) = 3.19946 -4.23115 -1.95781
# Velocity P-wave (km/s) = 4.73673 2.50081 3.78752
#
# Compressibility (1/GPa) = 0.05935614
#
# Stress axis : x y z
#
# Youngs Moduli (GPa) = 91.54208 91.54208 16.51632
#
# Poissons Ratio (x) = 0.58482 0.04237
# Poissons Ratio (y) = 0.58482 0.04237
# Poissons Ratio (z) = 0.23482 0.23482
#
# Static dielectric constant tensor:
#      x y z
#    x 1.693360 0.000000 0.000000 
#    y 0.000000 1.693360 0.000000 
#    z 0.000000 0.000000 1.765860 
# 
# From -- ./inp_files/1993.got.cif
#   From: 2010.05.17/outbox.cif.g08.bks.cpg/sg91_1_cif.got.tgz:1993.got - 2010.06.03 19:20:03.
