data_PCOD9547866
_publ_section_title
;
Structure prediction by ZEFSAII (Michael W. Deem and Ramdas Pophale) SiO2 
 PCOD9547866
Probable space group: P 41 2 2
;
_chemical_formula_sum "Si O2"
_cell_formula_units_Z 56
_cell_length_a 14.109820
_cell_length_b 14.109820
_cell_length_c 11.480222
_cell_angle_alpha 90.000000
_cell_angle_beta 90.000000
_cell_angle_gamma 90.000000
_cell_volume 2285.563192
_symmetry_space_group_name_H-M "P 41 2 2"
_symmetry_group_IT_number 91
_symmetry_cell_setting 'tetragonal'
loop_
_space_group_symop_operation_xyz
x,y,z
-y,x,1/4+z
-x,-y,1/2+z
y,-x,3/4+z
x,-y,1/2-z
-x,y,-z
y,x,3/4-z
-y,-x,1/4-z
loop_
_atom_site_type_symbol
_atom_site_label
_atom_site_fract_x
_atom_site_fract_y
_atom_site_fract_z
Si Si1 0.394550 0.903554 0.315913
Si Si2 0.114119 0.850788 0.495633
Si Si3 0.276447 0.963216 0.513992
Si Si4 0.422957 0.648180 0.735929
Si Si5 0.134347 0.602411 0.551679
Si Si6 0.629151 0.689720 0.723085
Si Si7 0.839805 0.318826 0.815975
O O1 0.334784 0.894393 0.432652
O O2 0.505021 0.907811 0.346257
O O3 0.379081 0.802134 0.257595
O O4 0.368486 0.000000 0.250000
O O5 0.160318 0.839683 0.625000
O O6 0.167147 0.951037 0.476103
O O7 0.151771 0.775068 0.401275
O O8 0.000000 0.857691 0.500000
O O9 0.315496 0.931269 0.642229
O O10 0.307761 0.069304 0.487193
O O11 0.419504 0.580497 0.625000
O O12 0.395533 0.751988 0.680379
O O13 0.531951 0.651239 0.779653
O O14 0.348986 0.624702 0.838454
O O15 0.135276 0.601177 0.410874
O O16 0.739783 0.666156 0.745816
#
# Coordination Sequence:
#
# PCOD9547866 Si02
#       7
#     8   8   8   8   8   8   8
#     4  11  23  40  62  93 133 171 216 272 332 405
#     4  12  22  37  59  90 130 175 219 275 334 402
#     4  12  22  37  62  88 128 172 214 272 333 399
#     4  10  20  35  62  97 128 161 208 273 334 400
#     4  10  21  35  63 100 130 161 210 271 335 402
#     4  10  22  39  62  92 129 164 214 272 338 397
#     4  11  21  38  62  95 130 167 215 270 337 403
#
# _framework density 24.501619999999999
#
# number of rings (size 3 to 8) (size 9 to 14) (size 15 to 20)
#    0.000    1.143    4.286    3.000    2.000    2.286 
#    0.000    3.571    0.000   17.143    0.000    0.000 
#    0.000    0.000    0.000    0.000    0.000    0.000 
#
# Total GULP energy -312005.302013 kJ/mol
# GULP energy per Si atom -5571.523250 kJ/mol
# Density = 2.444585 g / cm^3
# Si number density = 24.501620 Si / 1000 Ang^3
#
#
#
# Elastic Constant Matrix: (Units=GPa)
#
#
# Indices 1 2 3 4 5 6 
#
# 1 127.7295 16.7112 17.8213 0.0000 0.0000 0.0000
# 2 16.7112 127.7300 17.8218 0.0000 0.0000 0.0000
# 3 17.8213 17.8218 56.6382 0.0000 0.0000 0.0000
# 4 0.0000 0.0000 0.0000 22.0119 0.0000 0.0000
# 5 0.0000 0.0000 0.0000 0.0000 22.0116 0.0000
# 6 0.0000 0.0000 0.0000 0.0000 0.0000 30.0134
#
#
#
# Elastic Compliance Matrix: (Units=1/GPa)
#
#
# Indices 1 2 3 4 5 6 
#
# 1 0.008257 -0.000751 -0.002362 0.000000 0.000000 0.000000
# 2 -0.000751 0.008257 -0.002362 0.000000 0.000000 0.000000
# 3 -0.002362 -0.002362 0.019142 0.000000 0.000000 0.000000
# 4 0.000000 0.000000 0.000000 0.045430 0.000000 0.000000
# 5 0.000000 0.000000 0.000000 0.000000 0.045431 0.000000
# 6 0.000000 0.000000 0.000000 0.000000 0.000000 0.033318
#
#
# Mechanical properties :
#
#
# Convention : Reuss Voigt Hill
#
# Bulk Modulus (GPa) = 40.47425 46.31180 43.39302
# Shear Modulus (GPa) = 27.92995 32.12361 30.02678
#
# Velocity S-wave (km/s) = 3.37994 3.62481 3.50451
# Velocity P-wave (km/s) = 5.63798 6.03834 5.84159
#
# Compressibility (1/GPa) = 0.02470707
#
# Stress axis : x y z
#
# Youngs Moduli (GPa) = 121.11244 121.11265 52.24048
#
# Poissons Ratio (x) = 0.09092 0.12338
# Poissons Ratio (y) = 0.09092 0.12338
# Poissons Ratio (z) = 0.28604 0.28605
#
# Static dielectric constant tensor:
#      x y z
#    x 2.084950 0.000000 0.000000 
#    y 0.000000 2.084950 0.000000 
#    z 0.000000 0.000000 2.006350 
# 
# From -- ./inp_files/20337.got.cif
#   From: 2010.05.17/outbox.cif.g08.bks.cpg/sg91_11_cif.got.tgz:20337.got - 2010.06.03 19:20:03.
