data_PCOD9547108
_publ_section_title
;
Structure prediction by ZEFSAII (Michael W. Deem and Ramdas Pophale) SiO2 
 PCOD9547108
Probable space group: P 4 21 2
;
_chemical_formula_sum "Si O2"
_cell_formula_units_Z 44
_cell_length_a 13.051755
_cell_length_b 13.051755
_cell_length_c 11.968429
_cell_angle_alpha 90.000000
_cell_angle_beta 90.000000
_cell_angle_gamma 90.000000
_cell_volume 2038.801637
_symmetry_space_group_name_H-M "P 4 21 2"
_symmetry_group_IT_number 90
_symmetry_cell_setting 'tetragonal'
loop_
_space_group_symop_operation_xyz
x,y,z
1/2-y,1/2+x,z
-x,-y,z
1/2+y,1/2-x,z
1/2+x,1/2-y,-z
1/2-x,1/2+y,-z
y,x,-z
-y,-x,-z
loop_
_atom_site_type_symbol
_atom_site_label
_atom_site_fract_x
_atom_site_fract_y
_atom_site_fract_z
Si Si1 0.006764 0.674106 0.161025
Si Si2 0.884069 0.115932 0.500000
Si Si3 0.974423 0.329997 0.908653
Si Si4 0.734732 0.503122 0.677299
Si Si5 0.567944 0.329981 0.658431
Si Si6 0.077875 0.353335 0.482471
O O1 0.905280 0.601774 0.176110
O O2 0.988814 0.769854 0.242057
O O3 0.022373 0.713546 0.033965
O O4 0.903537 0.203771 0.593561
O O5 0.984437 0.125308 0.425484
O O6 0.082903 0.388285 0.900878
O O7 0.961330 0.260807 0.800684
O O8 0.643157 0.421324 0.688399
O O9 0.824998 0.439498 0.612868
O O10 0.623039 0.241045 0.585486
O O11 0.130735 0.458498 0.448920
#
# Coordination Sequence:
#
# PCOD9547108 Si02
#       6
#     8   4   8   8   8   8
#     4   9  19  39  64  88 117 152 190 238 297 351
#     4  10  23  42  56  74 118 168 198 227 286 351
#     4   9  19  39  64  88 117 152 190 238 297 351
#     4  11  21  37  57  82 117 155 193 239 289 344
#     4  11  21  37  57  82 117 155 193 239 289 344
#     4  10  20  36  55  78 111 150 196 240 291 352
#
# _framework density 21.581305
#
# number of rings (size 3 to 8) (size 9 to 14) (size 15 to 20)
#    0.000    2.000    0.000    6.545    0.000    3.636 
#   29.455    0.909    0.000    2.182    0.000    0.000 
#    0.000    0.000    0.000    0.000    0.000    0.000 
#
# Total GULP energy -245486.318487 kJ/mol
# GULP energy per Si atom -5579.234511 kJ/mol
# Density = 2.153219 g / cm^3
# Si number density = 21.581305 Si / 1000 Ang^3
#
#
#
# Elastic Constant Matrix: (Units=GPa)
#
#
# Indices 1 2 3 4 5 6 
#
# 1 48.3211 13.8240 34.6191 0.0000 0.0000 0.0000
# 2 13.8240 48.3206 34.6191 0.0000 0.0000 0.0000
# 3 34.6191 34.6191 161.3801 0.0000 0.0000 0.0000
# 4 0.0000 0.0000 0.0000 32.2291 0.0000 0.0000
# 5 0.0000 0.0000 0.0000 0.0000 32.2292 0.0000
# 6 0.0000 0.0000 0.0000 0.0000 0.0000 20.9578
#
#
#
# Elastic Compliance Matrix: (Units=1/GPa)
#
#
# Indices 1 2 3 4 5 6 
#
# 1 0.025067 -0.003921 -0.004536 0.000000 0.000000 0.000000
# 2 -0.003921 0.025067 -0.004536 0.000000 0.000000 0.000000
# 3 -0.004536 -0.004536 0.008143 0.000000 0.000000 0.000000
# 4 0.000000 0.000000 0.000000 0.031028 0.000000 0.000000
# 5 0.000000 0.000000 0.000000 0.000000 0.031028 0.000000
# 6 0.000000 0.000000 0.000000 0.000000 0.000000 0.047715
#
#
# Mechanical properties :
#
#
# Convention : Reuss Voigt Hill
#
# Bulk Modulus (GPa) = 30.97035 47.12737 39.04886
# Shear Modulus (GPa) = 24.41443 28.74718 26.58081
#
# Velocity S-wave (km/s) = 3.36709 3.65367 3.51331
# Velocity P-wave (km/s) = 5.43122 6.29949 5.88140
#
# Compressibility (1/GPa) = 0.03228895
#
# Stress axis : x y z
#
# Youngs Moduli (GPa) = 39.89377 39.89332 122.80941
#
# Poissons Ratio (x) = 0.15644 0.55707
# Poissons Ratio (y) = 0.15644 0.55708
# Poissons Ratio (z) = 0.18096 0.18096
#
# Static dielectric constant tensor:
#      x y z
#    x 1.834760 0.000000 0.000000 
#    y 0.000000 1.834760 0.000000 
#    z 0.000000 0.000000 1.824540 
# 
# From -- ./inp_files/2066.got.cif
#   From: 2010.05.17/outbox.cif.g08.bks.cpg/sg90_2_cif.got.tgz:2066.got - 2010.06.03 19:17:45.
