data_PCOD9547398
_publ_section_title
;
Structure prediction by ZEFSAII (Michael W. Deem and Ramdas Pophale) SiO2 
 PCOD9547398
Probable space group: P 4 21 2
;
_chemical_formula_sum "Si O2"
_cell_formula_units_Z 34
_cell_length_a 8.419914
_cell_length_b 8.419914
_cell_length_c 20.421147
_cell_angle_alpha 90.000000
_cell_angle_beta 90.000000
_cell_angle_gamma 90.000000
_cell_volume 1447.756232
_symmetry_space_group_name_H-M "P 4 21 2"
_symmetry_group_IT_number 90
_symmetry_cell_setting 'tetragonal'
loop_
_space_group_symop_operation_xyz
x,y,z
1/2-y,1/2+x,z
-x,-y,z
1/2+y,1/2-x,z
1/2+x,1/2-y,-z
1/2-x,1/2+y,-z
y,x,-z
-y,-x,-z
loop_
_atom_site_type_symbol
_atom_site_label
_atom_site_fract_x
_atom_site_fract_y
_atom_site_fract_z
Si Si1 0.500000 0.000000 0.591390
Si Si2 0.916920 0.245220 0.939951
Si Si3 0.748696 0.091670 0.821614
Si Si4 0.268207 0.883421 0.293856
Si Si5 0.841585 0.105707 0.572853
O O1 0.305950 0.006966 0.589250
O O2 0.807334 0.403580 0.943008
O O3 0.876596 0.153498 0.873314
O O4 0.865530 0.134471 0.000000
O O5 0.588853 0.195790 0.831295
O O6 0.811161 0.126480 0.748853
O O7 0.432209 0.794887 0.277121
O O8 0.233908 0.864393 0.370245
O O9 0.823750 0.176251 0.500000
O O10 0.000000 0.000000 0.573260
#
# Coordination Sequence:
#
# PCOD9547398 Si02
#       5
#     2   8   8   8   8
#     4  12  28  44  80 100 144 188 240 290 376 436
#     4  11  24  43  69 101 139 180 232 290 354 426
#     4  11  26  44  67 100 139 184 239 295 357 432
#     4  11  26  45  70 101 141 186 235 297 366 435
#     4  11  28  48  74 111 144 187 245 304 370 443
#
# _framework density 23.484617
#
# number of rings (size 3 to 8) (size 9 to 14) (size 15 to 20)
#    0.000    0.941    0.000    4.235   13.176    8.941 
#    0.000    0.000    0.000    0.000    0.000    0.000 
#    0.000    0.000    0.000    0.000    0.000    0.000 
#
# Total GULP energy -190145.397420 kJ/mol
# GULP energy per Si atom -5592.511689 kJ/mol
# Density = 2.343116 g / cm^3
# Si number density = 23.484617 Si / 1000 Ang^3
#
#
#
# Elastic Constant Matrix: (Units=GPa)
#
#
# Indices 1 2 3 4 5 6 
#
# 1 92.4274 23.3477 9.2094 0.0000 0.0000 0.0000
# 2 23.3477 92.4281 9.2099 0.0000 0.0000 0.0000
# 3 9.2094 9.2099 96.0486 0.0000 0.0000 0.0000
# 4 0.0000 0.0000 0.0000 49.9314 0.0000 0.0000
# 5 0.0000 0.0000 0.0000 0.0000 49.9330 0.0000
# 6 0.0000 0.0000 0.0000 0.0000 0.0000 430.4030
#
#
#
# Elastic Compliance Matrix: (Units=1/GPa)
#
#
# Indices 1 2 3 4 5 6 
#
# 1 0.011624 -0.002852 -0.000841 0.000000 0.000000 0.000000
# 2 -0.002852 0.011624 -0.000841 0.000000 0.000000 0.000000
# 3 -0.000841 -0.000841 0.010573 0.000000 0.000000 0.000000
# 4 0.000000 0.000000 0.000000 0.020027 0.000000 0.000000
# 5 0.000000 0.000000 0.000000 0.000000 0.020027 0.000000
# 6 0.000000 0.000000 0.000000 0.000000 0.000000 0.002323
#
#
# Mechanical properties :
#
#
# Convention : Reuss Voigt Hill
#
# Bulk Modulus (GPa) = 40.40245 40.49314 40.44779
# Shear Modulus (GPa) = 53.46635 121.99595 87.73115
#
# Velocity S-wave (km/s) = 4.77661 7.21526 6.11866
# Velocity P-wave (km/s) = 6.90380 9.31091 8.19620
#
# Compressibility (1/GPa) = 0.02475098
#
# Stress axis : x y z
#
# Youngs Moduli (GPa) = 86.03165 86.03225 94.58342
#
# Poissons Ratio (x) = 0.24540 0.07954
# Poissons Ratio (y) = 0.24539 0.07955
# Poissons Ratio (z) = 0.07235 0.07236
#
# Static dielectric constant tensor:
#      x y z
#    x 1.941740 0.000000 0.000000 
#    y 0.000000 1.941720 0.000000 
#    z 0.000000 0.000000 1.883430 
# 
# From -- ./inp_files/2734.got.cif
#   From: 2010.05.17/outbox.cif.g08.bks.cpg/sg90_2_cif.got.tgz:2734.got - 2010.06.03 19:17:45.
