data_PCOD9547472
_publ_section_title
;
Structure prediction by ZEFSAII (Michael W. Deem and Ramdas Pophale) SiO2 
 PCOD9547472
Probable space group: P 41 2 2
;
_chemical_formula_sum "Si O2"
_cell_formula_units_Z 44
_cell_length_a 16.315432
_cell_length_b 16.315432
_cell_length_c 10.975725
_cell_angle_alpha 90.000000
_cell_angle_beta 90.000000
_cell_angle_gamma 90.000000
_cell_volume 2921.664692
_symmetry_space_group_name_H-M "P 41 2 2"
_symmetry_group_IT_number 91
_symmetry_cell_setting 'tetragonal'
loop_
_space_group_symop_operation_xyz
x,y,z
-y,x,1/4+z
-x,-y,1/2+z
y,-x,3/4+z
x,-y,1/2-z
-x,y,-z
y,x,3/4-z
-y,-x,1/4-z
loop_
_atom_site_type_symbol
_atom_site_label
_atom_site_fract_x
_atom_site_fract_y
_atom_site_fract_z
Si Si1 0.157407 0.042889 0.457325
Si Si2 0.218836 0.844374 0.838118
Si Si3 0.908000 0.644103 0.444043
Si Si4 0.473230 0.058613 0.134042
Si Si5 0.903038 0.903038 0.375000
Si Si6 0.711566 0.092388 0.924735
O O1 0.094505 0.094505 0.375000
O O2 0.209741 0.105975 0.537753
O O3 0.107664 0.988254 0.555363
O O4 0.222449 0.979892 0.394920
O O5 0.310060 0.848684 0.787018
O O6 0.163617 0.887992 0.732028
O O7 0.177022 0.756678 0.854324
O O8 0.882957 0.551100 0.411626
O O9 0.912156 0.695523 0.319510
O O10 0.000000 0.645518 0.500000
O O11 0.379581 0.087388 0.127899
O O12 0.474387 0.000000 0.250000
O O13 0.500000 0.023203 0.000000
#
# Coordination Sequence:
#
# PCOD9547472 Si02
#       6
#     8   8   8   8   4   8
#     4  11  23  34  44  63  91 133 167 218 256 289
#     4  11  18  33  50  65  88 128 165 207 237 307
#     4  10  15  32  52  68  84 122 173 198 243 302
#     4   9  20  32  52  73  93 123 163 215 251 305
#     4  10  20  36  46  56  84 124 176 210 236 284
#     4  10  20  32  47  68  95 119 169 209 256 280
#
# _framework density 15.059907000000001
#
# number of rings (size 3 to 8) (size 9 to 14) (size 15 to 20)
#    0.000    1.818    5.455    0.545    2.545    2.182 
#   21.273    0.000    0.000    0.000    0.000    0.000 
#    0.000    0.000    0.000    0.000  145.091    0.182 
#
# Total GULP energy -244987.513327 kJ/mol
# GULP energy per Si atom -5567.898030 kJ/mol
# Density = 1.502563 g / cm^3
# Si number density = 15.059907 Si / 1000 Ang^3
#
#
#
# Elastic Constant Matrix: (Units=GPa)
#
#
# Indices 1 2 3 4 5 6 
#
# 1 87.2510 32.7450 21.3670 0.0000 0.0000 0.0000
# 2 32.7450 87.2510 21.3670 0.0000 0.0000 0.0000
# 3 21.3670 21.3670 47.4200 0.0000 0.0000 0.0000
# 4 0.0000 0.0000 0.0000 20.0291 0.0000 0.0000
# 5 0.0000 0.0000 0.0000 0.0000 20.0291 0.0000
# 6 0.0000 0.0000 0.0000 0.0000 0.0000 8.6990
#
#
#
# Elastic Compliance Matrix: (Units=1/GPa)
#
#
# Indices 1 2 3 4 5 6 
#
# 1 0.014137 -0.004210 -0.004473 0.000000 0.000000 0.000000
# 2 -0.004210 0.014137 -0.004473 0.000000 0.000000 0.000000
# 3 -0.004473 -0.004473 0.025119 0.000000 0.000000 0.000000
# 4 0.000000 0.000000 0.000000 0.049927 0.000000 0.000000
# 5 0.000000 0.000000 0.000000 0.000000 0.049927 0.000000
# 6 0.000000 0.000000 0.000000 0.000000 0.000000 0.114956
#
#
# Mechanical properties :
#
#
# Convention : Reuss Voigt Hill
#
# Bulk Modulus (GPa) = 36.92652 41.43109 39.17881
# Shear Modulus (GPa) = 16.47227 19.51431 17.99329
#
# Velocity S-wave (km/s) = 3.31083 3.60360 3.46031
# Velocity P-wave (km/s) = 6.26007 6.69964 6.48358
#
# Compressibility (1/GPa) = 0.02708081
#
# Stress axis : x y z
#
# Youngs Moduli (GPa) = 70.73863 70.73863 39.81065
#
# Poissons Ratio (x) = 0.29781 0.17806
# Poissons Ratio (y) = 0.29781 0.17806
# Poissons Ratio (z) = 0.31640 0.31640
#
# Static dielectric constant tensor:
#      x y z
#    x 1.524280 0.000000 0.000000 
#    y 0.000000 1.524280 0.000000 
#    z 0.000000 0.000000 1.551590 
# 
# From -- ./inp_files/20185.got.cif
#   From: 2010.05.17/outbox.cif.g08.bks.cpg/sg91_11_cif.got.tgz:20185.got - 2010.06.03 19:20:03.
