data_PCOD9547626
_publ_section_title
;
Structure prediction by ZEFSAII (Michael W. Deem and Ramdas Pophale) SiO2 
 PCOD9547626
Probable space group: P 41 2 2
;
_chemical_formula_sum "Si O2"
_cell_formula_units_Z 24
_cell_length_a 9.687121
_cell_length_b 9.687121
_cell_length_c 10.451714
_cell_angle_alpha 90.000000
_cell_angle_beta 90.000000
_cell_angle_gamma 90.000000
_cell_volume 980.792116
_symmetry_space_group_name_H-M "P 41 2 2"
_symmetry_group_IT_number 91
_symmetry_cell_setting 'tetragonal'
loop_
_space_group_symop_operation_xyz
x,y,z
-y,x,1/4+z
-x,-y,1/2+z
y,-x,3/4+z
x,-y,1/2-z
-x,y,-z
y,x,3/4-z
-y,-x,1/4-z
loop_
_atom_site_type_symbol
_atom_site_label
_atom_site_fract_x
_atom_site_fract_y
_atom_site_fract_z
Si Si1 0.135543 0.858853 0.268281
Si Si2 0.820730 0.413411 0.374932
Si Si3 0.194588 0.405702 0.125330
O O1 0.183768 0.816233 0.125000
O O2 0.271540 0.904014 0.350579
O O3 0.091964 0.723366 0.345187
O O4 0.051110 0.000000 0.250000
O O5 0.854600 0.500000 0.250000
O O6 0.668074 0.344892 0.364453
O O7 0.833667 0.509208 0.498554
O O8 0.192967 0.500000 0.250000
#
# Coordination Sequence:
#
# PCOD9547626 Si02
#       3
#     8   8   8
#     4  10  22  42  64  89 127 173 216 261 320 376
#     4  10  20  34  58  99 133 159 207 269 321 377
#     4  10  18  36  60  95 123 167 208 264 320 379
#
# _framework density 24.470019000000001
#
# number of rings (size 3 to 8) (size 9 to 14) (size 15 to 20)
#    2.000    0.000    3.333    2.000    0.000    4.000 
#    6.000    0.000    7.333    0.000    0.000    0.000 
#    0.000    0.000    0.000    0.000    0.000    0.000 
#
# Total GULP energy -133737.414821 kJ/mol
# GULP energy per Si atom -5572.392284 kJ/mol
# Density = 2.441432 g / cm^3
# Si number density = 24.470019 Si / 1000 Ang^3
#
#
#
# Elastic Constant Matrix: (Units=GPa)
#
#
# Indices 1 2 3 4 5 6 
#
# 1 92.9990 -12.3030 5.9343 0.0000 0.0000 0.0000
# 2 -12.3030 92.9993 5.9345 0.0000 0.0000 0.0000
# 3 5.9343 5.9345 149.5019 0.0000 0.0000 0.0000
# 4 0.0000 0.0000 0.0000 25.7567 0.0000 0.0000
# 5 0.0000 0.0000 0.0000 0.0000 25.7569 0.0000
# 6 0.0000 0.0000 0.0000 0.0000 0.0000 -6.2942
#
#
#
# Elastic Compliance Matrix: (Units=1/GPa)
#
#
# Indices 1 2 3 4 5 6 
#
# 1 0.010981 0.001484 -0.000495 0.000000 0.000000 0.000000
# 2 0.001484 0.010981 -0.000495 0.000000 0.000000 0.000000
# 3 -0.000495 -0.000495 0.006728 0.000000 0.000000 0.000000
# 4 0.000000 0.000000 0.000000 0.038825 0.000000 0.000000
# 5 0.000000 0.000000 0.000000 0.000000 0.038825 0.000000
# 6 0.000000 0.000000 0.000000 0.000000 0.000000 -0.158877
#
#
# Mechanical properties :
#
#
# Convention : Reuss Voigt Hill
#
# Bulk Modulus (GPa) = 33.69402 37.18133 35.43767
# Shear Modulus (GPa) = -114.58953 31.43949 -41.57502
#
# Velocity S-wave (km/s) = -6.85056 3.58832 -4.12639
# Velocity P-wave (km/s) = 6.98385 5.69172 2.86169
#
# Compressibility (1/GPa) = 0.02967886
#
# Stress axis : x y z
#
# Youngs Moduli (GPa) = 91.06868 91.06895 148.62902
#
# Poissons Ratio (x) = -0.13517 0.07354
# Poissons Ratio (y) = -0.13517 0.07354
# Poissons Ratio (z) = 0.04506 0.04506
#
# Static dielectric constant tensor:
#      x y z
#    x 1.995270 0.000000 0.000000 
#    y 0.000000 1.995270 0.000000 
#    z 0.000000 0.000000 1.927950 
# 
# From -- ./inp_files/1859.got.cif
#   From: 2010.05.17/outbox.cif.g08.bks.cpg/sg91_1_cif.got.tgz:1859.got - 2010.06.03 19:20:03.
