data_PCOD9547505
_publ_section_title
;
Structure prediction by ZEFSAII (Michael W. Deem and Ramdas Pophale) SiO2 
 PCOD9547505
Probable space group: P 41 2 2
;
_chemical_formula_sum "Si O2"
_cell_formula_units_Z 56
_cell_length_a 17.801047
_cell_length_b 17.801047
_cell_length_c 10.544855
_cell_angle_alpha 90.000000
_cell_angle_beta 90.000000
_cell_angle_gamma 90.000000
_cell_volume 3341.424910
_symmetry_space_group_name_H-M "P 41 2 2"
_symmetry_group_IT_number 91
_symmetry_cell_setting 'tetragonal'
loop_
_space_group_symop_operation_xyz
x,y,z
-y,x,1/4+z
-x,-y,1/2+z
y,-x,3/4+z
x,-y,1/2-z
-x,y,-z
y,x,3/4-z
-y,-x,1/4-z
loop_
_atom_site_type_symbol
_atom_site_label
_atom_site_fract_x
_atom_site_fract_y
_atom_site_fract_z
Si Si1 0.207223 0.364015 0.486218
Si Si2 0.499695 0.691319 0.672733
Si Si3 0.600671 0.562263 0.659857
Si Si4 0.739473 0.655303 0.720316
Si Si5 0.938051 0.416126 0.394883
Si Si6 0.593848 0.063019 0.142465
Si Si7 0.349701 0.228773 0.826556
O O1 0.247808 0.440206 0.531451
O O2 0.202682 0.363270 0.332759
O O3 0.261208 0.294228 0.517746
O O4 0.131480 0.364589 0.565113
O O5 0.547871 0.626777 0.605388
O O6 0.473904 0.644717 0.795019
O O7 0.425413 0.731055 0.618385
O O8 0.563797 0.500000 0.750000
O O9 0.666510 0.602475 0.741279
O O10 0.765281 0.644836 0.576445
O O11 0.916777 0.504950 0.406446
O O12 0.965596 0.400659 0.252361
O O13 0.000000 0.403194 0.500000
O O14 0.642378 0.139924 0.146956
O O15 0.611207 0.000000 0.250000
O O16 0.277918 0.277918 0.875000
#
# Coordination Sequence:
#
# PCOD9547505 Si02
#       7
#     8   8   8   8   8   8   8
#     4  10  17  35  52  74 102 131 178 234 269 321
#     4  10  20  31  45  64  90 135 172 235 273 331
#     4  10  17  29  42  60  90 122 180 227 283 317
#     4   9  20  30  52  73  95 137 179 222 279 321
#     4  10  21  36  57  79 101 136 177 224 273 315
#     4  10  22  39  55  78 107 136 172 221 272 321
#     4  11  22  36  50  74 101 140 178 217 278 331
#
# _framework density 16.759319000000001
#
# number of rings (size 3 to 8) (size 9 to 14) (size 15 to 20)
#    0.000    2.000    2.857    1.286    2.000    1.143 
#    0.000    0.000    0.000    0.000    0.000    0.000 
#    0.000    0.000    0.000    5.143    0.000    0.000 
#
# Total GULP energy -312223.414176 kJ/mol
# GULP energy per Si atom -5575.418110 kJ/mol
# Density = 1.672117 g / cm^3
# Si number density = 16.759319 Si / 1000 Ang^3
#
#
#
# Elastic Constant Matrix: (Units=GPa)
#
#
# Indices 1 2 3 4 5 6 
#
# 1 65.1521 21.5900 29.3066 0.0000 0.0000 0.0000
# 2 21.5900 65.1521 29.3066 0.0000 0.0000 0.0000
# 3 29.3066 29.3066 102.4731 0.0000 0.0000 0.0000
# 4 0.0000 0.0000 0.0000 20.5993 0.0000 0.0000
# 5 0.0000 0.0000 0.0000 0.0000 20.5993 0.0000
# 6 0.0000 0.0000 0.0000 0.0000 0.0000 10.3601
#
#
#
# Elastic Compliance Matrix: (Units=1/GPa)
#
#
# Indices 1 2 3 4 5 6 
#
# 1 0.018623 -0.004333 -0.004087 0.000000 0.000000 0.000000
# 2 -0.004333 0.018623 -0.004087 0.000000 0.000000 0.000000
# 3 -0.004087 -0.004087 0.012096 0.000000 0.000000 0.000000
# 4 0.000000 0.000000 0.000000 0.048545 0.000000 0.000000
# 5 0.000000 0.000000 0.000000 0.000000 0.048545 0.000000
# 6 0.000000 0.000000 0.000000 0.000000 0.000000 0.096524
#
#
# Mechanical properties :
#
#
# Convention : Reuss Voigt Hill
#
# Bulk Modulus (GPa) = 41.10340 43.68708 42.39524
# Shear Modulus (GPa) = 18.11072 20.48334 19.29703
#
# Velocity S-wave (km/s) = 3.29087 3.49980 3.39694
# Velocity P-wave (km/s) = 6.24650 6.51578 6.38256
#
# Compressibility (1/GPa) = 0.02432889
#
# Stress axis : x y z
#
# Youngs Moduli (GPa) = 53.69742 53.69742 82.67004
#
# Poissons Ratio (x) = 0.23266 0.33786
# Poissons Ratio (y) = 0.23266 0.33786
# Poissons Ratio (z) = 0.21945 0.21945
#
# Static dielectric constant tensor:
#      x y z
#    x 1.579150 0.000000 0.000000 
#    y 0.000000 1.579150 0.000000 
#    z 0.000000 0.000000 1.637930 
# 
# From -- ./inp_files/20395.got.cif
#   From: 2010.05.17/outbox.cif.g08.bks.cpg/sg91_11_cif.got.tgz:20395.got - 2010.06.03 19:20:03.
