data_PCOD9547541
_publ_section_title
;
Structure prediction by ZEFSAII (Michael W. Deem and Ramdas Pophale) SiO2 
 PCOD9547541
Probable space group: P 41 2 2
;
_chemical_formula_sum "Si O2"
_cell_formula_units_Z 40
_cell_length_a 15.519934
_cell_length_b 15.519934
_cell_length_c 7.573716
_cell_angle_alpha 90.000000
_cell_angle_beta 90.000000
_cell_angle_gamma 90.000000
_cell_volume 1824.268487
_symmetry_space_group_name_H-M "P 41 2 2"
_symmetry_group_IT_number 91
_symmetry_cell_setting 'tetragonal'
loop_
_space_group_symop_operation_xyz
x,y,z
-y,x,1/4+z
-x,-y,1/2+z
y,-x,3/4+z
x,-y,1/2-z
-x,y,-z
y,x,3/4-z
-y,-x,1/4-z
loop_
_atom_site_type_symbol
_atom_site_label
_atom_site_fract_x
_atom_site_fract_y
_atom_site_fract_z
Si Si1 0.272722 0.727279 0.125000
Si Si2 0.918621 0.081380 0.125000
Si Si3 0.761098 0.629020 0.535267
Si Si4 0.625928 0.882387 0.723258
Si Si5 0.500000 0.118234 0.500000
Si Si6 0.756694 0.500000 0.250000
Si Si7 0.922770 0.276955 0.140650
O O1 0.291692 0.675330 0.307575
O O2 0.300841 0.824795 0.175759
O O3 0.922608 0.177780 0.199480
O O4 0.924629 0.000000 0.250000
O O5 0.821635 0.563145 0.639423
O O6 0.714830 0.569007 0.387377
O O7 0.830207 0.694472 0.443662
O O8 0.562382 0.926766 0.862891
O O9 0.562711 0.816066 0.619026
O O10 0.670435 0.934647 0.568867
O O11 0.000000 0.291173 0.000000
#
# Coordination Sequence:
#
# PCOD9547541 Si02
#       7
#     4   4   8   8   4   4   8
#     4  10  18  28  51  80 110 146 193 244 292 334
#     4  10  22  42  61  80 110 152 205 274 338 374
#     4   9  17  32  52  80 114 151 193 248 301 361
#     4   9  17  32  54  83 119 154 195 251 302 364
#     4   8  16  32  51  80 124 155 178 238 312 362
#     4   8  16  30  51  74 116 157 184 242 306 360
#     4  10  20  36  57  80 108 151 206 254 309 382
#
# _framework density 21.926594999999999
#
# number of rings (size 3 to 8) (size 9 to 14) (size 15 to 20)
#    0.000    2.800    0.000    1.200    0.000    2.400 
#    0.000   23.000    0.000    0.000    0.000    1.400 
#    0.000  374.400    0.000    0.000    0.000    0.000 
#
# Total GULP energy -222727.211455 kJ/mol
# GULP energy per Si atom -5568.180286 kJ/mol
# Density = 2.187669 g / cm^3
# Si number density = 21.926595 Si / 1000 Ang^3
#
#
#
# Elastic Constant Matrix: (Units=GPa)
#
#
# Indices 1 2 3 4 5 6 
#
# 1 97.3140 60.9668 59.7585 0.0000 0.0000 0.0000
# 2 60.9668 97.3167 59.7590 0.0000 0.0000 0.0000
# 3 59.7585 59.7590 150.0287 0.0000 0.0000 0.0000
# 4 0.0000 0.0000 0.0000 10.0756 0.0000 0.0000
# 5 0.0000 0.0000 0.0000 0.0000 10.0580 0.0000
# 6 0.0000 0.0000 0.0000 0.0000 0.0000 30.1365
#
#
#
# Elastic Compliance Matrix: (Units=1/GPa)
#
#
# Indices 1 2 3 4 5 6 
#
# 1 0.018274 -0.009238 -0.003599 0.000000 0.000000 0.000000
# 2 -0.009238 0.018273 -0.003599 0.000000 0.000000 0.000000
# 3 -0.003599 -0.003599 0.009532 0.000000 0.000000 0.000000
# 4 0.000000 0.000000 0.000000 0.099249 0.000000 0.000000
# 5 0.000000 0.000000 0.000000 0.000000 0.099424 0.000000
# 6 0.000000 0.000000 0.000000 0.000000 0.000000 0.033182
#
#
# Mechanical properties :
#
#
# Convention : Reuss Voigt Hill
#
# Bulk Modulus (GPa) = 75.71504 78.40313 77.05908
# Shear Modulus (GPa) = 15.86251 20.99903 18.43077
#
# Velocity S-wave (km/s) = 2.69260 3.09802 2.90240
# Velocity P-wave (km/s) = 6.65379 6.97365 6.81559
#
# Compressibility (1/GPa) = 0.01320742
#
# Stress axis : x y z
#
# Youngs Moduli (GPa) = 54.72356 54.72526 104.90542
#
# Poissons Ratio (x) = 0.50555 0.37755
# Poissons Ratio (y) = 0.50554 0.37754
# Poissons Ratio (z) = 0.19695 0.19695
#
# Static dielectric constant tensor:
#      x y z
#    x 1.840810 0.000000 0.000000 
#    y 0.000000 1.840820 0.000000 
#    z 0.000000 0.000000 1.860090 
# 
# From -- ./inp_files/2497.got.cif
#   From: 2010.05.17/outbox.cif.g08.bks.cpg/sg91_2_cif.got.tgz:2497.got - 2010.06.03 19:20:03.
