data_PCOD9547997
_publ_section_title
;
Structure prediction by ZEFSAII (Michael W. Deem and Ramdas Pophale) SiO2 
 PCOD9547997
Probable space group: P 41 2 2
;
_chemical_formula_sum "Si O2"
_cell_formula_units_Z 44
_cell_length_a 8.449405
_cell_length_b 8.449405
_cell_length_c 28.798687
_cell_angle_alpha 90.000000
_cell_angle_beta 90.000000
_cell_angle_gamma 90.000000
_cell_volume 2056.008674
_symmetry_space_group_name_H-M "P 41 2 2"
_symmetry_group_IT_number 91
_symmetry_cell_setting 'tetragonal'
loop_
_space_group_symop_operation_xyz
x,y,z
-y,x,1/4+z
-x,-y,1/2+z
y,-x,3/4+z
x,-y,1/2-z
-x,y,-z
y,x,3/4-z
-y,-x,1/4-z
loop_
_atom_site_type_symbol
_atom_site_label
_atom_site_fract_x
_atom_site_fract_y
_atom_site_fract_z
Si Si1 0.373431 0.368300 0.573435
Si Si2 0.052927 0.428596 0.925641
Si Si3 0.164414 0.000000 0.750000
Si Si4 0.590915 0.983834 0.069967
Si Si5 0.311422 0.450478 0.068025
Si Si6 0.310251 0.898071 0.473053
O O1 0.347749 0.189099 0.557348
O O2 0.538641 0.441022 0.553952
O O3 0.408161 0.344615 0.628251
O O4 0.212020 0.467988 0.567748
O O5 0.066166 0.281926 0.960581
O O6 0.041565 0.373424 0.871654
O O7 0.874955 0.502395 0.935443
O O8 0.059403 0.127643 0.724535
O O9 0.401756 0.991319 0.062900
O O10 0.637712 0.091458 0.026616
O O11 0.321760 0.283574 0.042042
#
# Coordination Sequence:
#
# PCOD9547997 Si02
#       6
#     8   8   4   8   8   8
#     4  10  20  39  66  93 121 180 209 262 337 394
#     4  10  21  41  65  95 126 165 221 277 321 400
#     4  10  24  40  64  94 130 166 222 278 332 378
#     4  10  22  39  63  93 131 164 217 263 339 396
#     4   9  20  39  67  93 126 162 225 270 320 390
#     4  10  21  42  57  95 126 164 208 278 312 399
#
# _framework density 21.400687000000001
#
# number of rings (size 3 to 8) (size 9 to 14) (size 15 to 20)
#    0.000    2.182    1.818    0.000    5.091    0.727 
#   16.364    0.000    0.000    0.000    0.000    0.000 
#    0.000    0.000    0.000    0.000    0.000    0.000 
#
# Total GULP energy -245050.293601 kJ/mol
# GULP energy per Si atom -5569.324855 kJ/mol
# Density = 2.135198 g / cm^3
# Si number density = 21.400687 Si / 1000 Ang^3
#
#
#
# Elastic Constant Matrix: (Units=GPa)
#
#
# Indices 1 2 3 4 5 6 
#
# 1 47.9868 27.6312 -9.3139 0.0000 0.0000 0.0000
# 2 27.6312 47.9868 -9.3139 0.0000 0.0000 0.0000
# 3 -9.3139 -9.3139 64.0123 0.0000 0.0000 0.0000
# 4 0.0000 0.0000 0.0000 18.5672 0.0000 0.0000
# 5 0.0000 0.0000 0.0000 0.0000 18.5672 0.0000
# 6 0.0000 0.0000 0.0000 0.0000 0.0000 100.0609
#
#
#
# Elastic Compliance Matrix: (Units=1/GPa)
#
#
# Indices 1 2 3 4 5 6 
#
# 1 0.031421 -0.017705 0.001996 0.000000 0.000000 0.000000
# 2 -0.017705 0.031421 0.001996 0.000000 0.000000 0.000000
# 3 0.001996 0.001996 0.016203 0.000000 0.000000 0.000000
# 4 0.000000 0.000000 0.000000 0.053858 0.000000 0.000000
# 5 0.000000 0.000000 0.000000 0.000000 0.053858 0.000000
# 6 0.000000 0.000000 0.000000 0.000000 0.000000 0.009994
#
#
# Mechanical properties :
#
#
# Convention : Reuss Voigt Hill
#
# Bulk Modulus (GPa) = 19.37328 19.77698 19.57513
# Shear Modulus (GPa) = 20.71341 37.50455 29.10898
#
# Velocity S-wave (km/s) = 3.11446 4.19082 3.69208
# Velocity P-wave (km/s) = 4.69100 5.71652 5.22896
#
# Compressibility (1/GPa) = 0.05161747
#
# Stress axis : x y z
#
# Youngs Moduli (GPa) = 31.82566 31.82566 61.71794
#
# Poissons Ratio (x) = 0.56348 -0.12317
# Poissons Ratio (y) = 0.56348 -0.12317
# Poissons Ratio (z) = -0.06351 -0.06351
#
# Static dielectric constant tensor:
#      x y z
#    x 1.913510 0.000000 0.000000 
#    y 0.000000 1.913510 0.000000 
#    z 0.000000 0.000000 1.768660 
# 
# From -- ./inp_files/7812.got.cif
#   From: 2010.05.17/outbox.cif.g08.bks.cpg/sg91_4_cif.got.tgz:7812.got - 2010.06.03 19:20:03.
