data_PCOD9547937
_publ_section_title
;
Structure prediction by ZEFSAII (Michael W. Deem and Ramdas Pophale) SiO2 
 PCOD9547937
Probable space group: P 41 2 2
;
_chemical_formula_sum "Si O2"
_cell_formula_units_Z 32
_cell_length_a 9.305812
_cell_length_b 9.305812
_cell_length_c 14.329676
_cell_angle_alpha 90.000000
_cell_angle_beta 90.000000
_cell_angle_gamma 90.000000
_cell_volume 1240.923245
_symmetry_space_group_name_H-M "P 41 2 2"
_symmetry_group_IT_number 91
_symmetry_cell_setting 'tetragonal'
loop_
_space_group_symop_operation_xyz
x,y,z
-y,x,1/4+z
-x,-y,1/2+z
y,-x,3/4+z
x,-y,1/2-z
-x,y,-z
y,x,3/4-z
-y,-x,1/4-z
loop_
_atom_site_type_symbol
_atom_site_label
_atom_site_fract_x
_atom_site_fract_y
_atom_site_fract_z
Si Si1 0.994746 0.170717 0.754987
Si Si2 0.198632 0.704426 0.904148
Si Si3 0.068944 0.446145 0.855413
Si Si4 0.249979 0.511411 0.138635
O O1 0.821746 0.193849 0.762343
O O2 0.076686 0.231793 0.664731
O O3 0.050270 0.274731 0.840769
O O4 0.020121 0.000000 0.750000
O O5 0.175985 0.534547 0.921402
O O6 0.353066 0.706250 0.854637
O O7 0.102698 0.500000 0.750000
O O8 0.917483 0.515394 0.884988
O O9 0.246417 0.500000 0.250000
O O10 0.363596 0.636405 0.125000
#
# Coordination Sequence:
#
# PCOD9547937 Si02
#       4
#     8   8   8   8
#     4  10  20  37  64  96 131 175 227 285 348 413
#     4  10  21  40  65  92 132 179 226 286 348 421
#     4   8  18  36  60  91 125 163 215 271 333 408
#     4  10  22  41  63  93 131 175 226 282 351 426
#
# _framework density 25.787251000000001
#
# number of rings (size 3 to 8) (size 9 to 14) (size 15 to 20)
#    0.000    2.500    0.000    2.250    0.000   11.000 
#    0.000   12.500    0.000    0.000    0.000    0.000 
#    0.000    0.000    0.000    0.000    0.000    0.000 
#
# Total GULP energy -178316.199590 kJ/mol
# GULP energy per Si atom -5572.381237 kJ/mol
# Density = 2.572856 g / cm^3
# Si number density = 25.787251 Si / 1000 Ang^3
#
#
#
# Elastic Constant Matrix: (Units=GPa)
#
#
# Indices 1 2 3 4 5 6 
#
# 1 168.4813 71.3702 12.3161 0.0000 0.0000 0.0000
# 2 71.3702 168.4811 12.3169 0.0000 0.0000 0.0000
# 3 12.3161 12.3169 51.3279 0.0000 0.0000 0.0000
# 4 0.0000 0.0000 0.0000 29.0492 0.0000 0.0000
# 5 0.0000 0.0000 0.0000 0.0000 29.0478 0.0000
# 6 0.0000 0.0000 0.0000 0.0000 0.0000 58.3074
#
#
#
# Elastic Compliance Matrix: (Units=1/GPa)
#
#
# Indices 1 2 3 4 5 6 
#
# 1 0.007286 -0.003011 -0.001026 0.000000 0.000000 0.000000
# 2 -0.003011 0.007286 -0.001026 0.000000 0.000000 0.000000
# 3 -0.001026 -0.001026 0.019975 0.000000 0.000000 0.000000
# 4 0.000000 0.000000 0.000000 0.034424 0.000000 0.000000
# 5 0.000000 0.000000 0.000000 0.000000 0.034426 0.000000
# 6 0.000000 0.000000 0.000000 0.000000 0.000000 0.017150
#
#
# Mechanical properties :
#
#
# Convention : Reuss Voigt Hill
#
# Bulk Modulus (GPa) = 40.94814 64.47741 52.71278
# Shear Modulus (GPa) = 36.01946 42.76670 39.39308
#
# Velocity S-wave (km/s) = 3.74142 4.07682 3.91272
# Velocity P-wave (km/s) = 5.88031 6.87157 6.39517
#
# Compressibility (1/GPa) = 0.02442113
#
# Stress axis : x y z
#
# Youngs Moduli (GPa) = 137.24893 137.24842 50.06302
#
# Poissons Ratio (x) = 0.41332 0.05135
# Poissons Ratio (y) = 0.41332 0.05136
# Poissons Ratio (z) = 0.14077 0.14079
#
# Static dielectric constant tensor:
#      x y z
#    x 2.120210 0.000000 0.000000 
#    y 0.000000 2.120210 0.000000 
#    z 0.000000 0.000000 2.155980 
# 
# From -- ./inp_files/12219.got.cif
#   From: 2010.05.17/outbox.cif.g08.bks.cpg/sg91_7_cif.got.tgz:12219.got - 2010.06.03 19:20:03.
