data_PCOD9547864
_publ_section_title
;
Structure prediction by ZEFSAII (Michael W. Deem and Ramdas Pophale) SiO2 
 PCOD9547864
Probable space group: P 41 2 2
;
_chemical_formula_sum "Si O2"
_cell_formula_units_Z 40
_cell_length_a 15.640753
_cell_length_b 15.640753
_cell_length_c 10.229459
_cell_angle_alpha 90.000000
_cell_angle_beta 90.000000
_cell_angle_gamma 90.000000
_cell_volume 2502.464823
_symmetry_space_group_name_H-M "P 41 2 2"
_symmetry_group_IT_number 91
_symmetry_cell_setting 'tetragonal'
loop_
_space_group_symop_operation_xyz
x,y,z
-y,x,1/4+z
-x,-y,1/2+z
y,-x,3/4+z
x,-y,1/2-z
-x,y,-z
y,x,3/4-z
-y,-x,1/4-z
loop_
_atom_site_type_symbol
_atom_site_label
_atom_site_fract_x
_atom_site_fract_y
_atom_site_fract_z
Si Si1 0.335792 0.730232 0.261729
Si Si2 0.746518 0.658860 0.492101
Si Si3 0.921718 0.393198 0.405175
Si Si4 0.927588 0.599573 0.398854
Si Si5 0.362983 0.496402 0.897594
O O1 0.268737 0.706080 0.373649
O O2 0.366547 0.828205 0.287627
O O3 0.415921 0.664816 0.284698
O O4 0.291911 0.708090 0.125000
O O5 0.720354 0.720354 0.375000
O O6 0.839612 0.626546 0.463926
O O7 0.682421 0.578269 0.479274
O O8 0.926691 0.496315 0.398737
O O9 0.932511 0.367930 0.251624
O O10 0.000000 0.364687 0.500000
O O11 0.000000 0.628568 0.500000
O O12 0.324868 0.500000 0.750000
O O13 0.459575 0.459575 0.875000
#
# Coordination Sequence:
#
# PCOD9547864 Si02
#       5
#     8   8   8   8   8
#     4  12  25  38  55  81 113 149 193 245 281 334
#     4  11  20  37  59  73 106 153 188 229 279 329
#     4  10  21  38  56  80 113 144 181 238 298 338
#     4  10  20  35  60  81 104 143 192 232 284 346
#     4  11  20  36  53  69 103 151 194 229 272 318
#
# _framework density 15.98424
#
# number of rings (size 3 to 8) (size 9 to 14) (size 15 to 20)
#    0.000    1.200    8.000    0.000    2.800    1.600 
#    0.000    0.000    0.000    0.000    0.000    0.000 
#    0.000    4.800    0.000    0.000    0.000    0.000 
#
# Total GULP energy -222790.566591 kJ/mol
# GULP energy per Si atom -5569.764165 kJ/mol
# Density = 1.594786 g / cm^3
# Si number density = 15.984240 Si / 1000 Ang^3
#
#
#
# Elastic Constant Matrix: (Units=GPa)
#
#
# Indices 1 2 3 4 5 6 
#
# 1 66.1364 8.3299 42.4226 0.0000 0.0000 0.0000
# 2 8.3299 66.1331 42.4220 0.0000 0.0000 0.0000
# 3 42.4226 42.4220 155.1361 0.0000 0.0000 0.0000
# 4 0.0000 0.0000 0.0000 43.4938 0.0000 0.0000
# 5 0.0000 0.0000 0.0000 0.0000 43.4954 0.0000
# 6 0.0000 0.0000 0.0000 0.0000 0.0000 15.7829
#
#
#
# Elastic Compliance Matrix: (Units=1/GPa)
#
#
# Indices 1 2 3 4 5 6 
#
# 1 0.018403 0.001104 -0.005334 0.000000 0.000000 0.000000
# 2 0.001104 0.018404 -0.005334 0.000000 0.000000 0.000000
# 3 -0.005334 -0.005334 0.009363 0.000000 0.000000 0.000000
# 4 0.000000 0.000000 0.000000 0.022992 0.000000 0.000000
# 5 0.000000 0.000000 0.000000 0.000000 0.022991 0.000000
# 6 0.000000 0.000000 0.000000 0.000000 0.000000 0.063360
#
#
# Mechanical properties :
#
#
# Convention : Reuss Voigt Hill
#
# Bulk Modulus (GPa) = 36.98181 52.63940 44.81061
# Shear Modulus (GPa) = 27.22489 33.50313 30.36401
#
# Velocity S-wave (km/s) = 4.13150 4.58319 4.36319
# Velocity P-wave (km/s) = 6.77833 7.81096 7.31289
#
# Compressibility (1/GPa) = 0.02704032
#
# Stress axis : x y z
#
# Youngs Moduli (GPa) = 54.33963 54.33663 106.80034
#
# Poissons Ratio (x) = -0.05997 0.56969
# Poissons Ratio (y) = -0.05997 0.56971
# Poissons Ratio (z) = 0.28985 0.28985
#
# Static dielectric constant tensor:
#      x y z
#    x 1.534260 0.000000 0.000000 
#    y 0.000000 1.534260 0.000000 
#    z 0.000000 0.000000 1.568960 
# 
# From -- ./inp_files/2579.got.cif
#   From: 2010.05.17/outbox.cif.g08.bks.cpg/sg91_2_cif.got.tgz:2579.got - 2010.06.03 19:20:03.
