data_PCOD9547917
_publ_section_title
;
Structure prediction by ZEFSAII (Michael W. Deem and Ramdas Pophale) SiO2 
 PCOD9547917
Probable space group: P 41 2 2
;
_chemical_formula_sum "Si O2"
_cell_formula_units_Z 44
_cell_length_a 20.279796
_cell_length_b 20.279796
_cell_length_c 5.850422
_cell_angle_alpha 90.000000
_cell_angle_beta 90.000000
_cell_angle_gamma 90.000000
_cell_volume 2406.103792
_symmetry_space_group_name_H-M "P 41 2 2"
_symmetry_group_IT_number 91
_symmetry_cell_setting 'tetragonal'
loop_
_space_group_symop_operation_xyz
x,y,z
-y,x,1/4+z
-x,-y,1/2+z
y,-x,3/4+z
x,-y,1/2-z
-x,y,-z
y,x,3/4-z
-y,-x,1/4-z
loop_
_atom_site_type_symbol
_atom_site_label
_atom_site_fract_x
_atom_site_fract_y
_atom_site_fract_z
Si Si1 0.000000 0.864382 0.000000
Si Si2 0.095115 0.904886 0.625000
Si Si3 0.687065 0.896885 0.379189
Si Si4 0.099973 0.216919 0.227141
Si Si5 0.932574 0.562628 0.627784
Si Si6 0.345823 0.000000 0.250000
Si Si7 0.251058 0.251058 0.875000
Si Si8 0.754738 0.754738 0.875000
O O1 0.029568 0.902031 0.781153
O O2 0.941778 0.817459 0.920207
O O3 0.157043 0.896056 0.794621
O O4 0.725233 0.931344 0.169735
O O5 0.610572 0.892627 0.295686
O O6 0.725327 0.826299 0.393221
O O7 0.689999 0.943993 0.598084
O O8 0.166231 0.247617 0.333724
O O9 0.899115 0.500000 0.750000
O O10 0.000000 0.540219 0.500000
O O11 0.958553 0.608104 0.831213
O O12 0.272484 0.272553 0.616972
#
# Coordination Sequence:
#
# PCOD9547917 Si02
#       8
#     4   4   8   8   8   4   4   4
#     4  12  26  41  62  72  96 124 161 224 288 366
#     4  12  25  44  60  73  94 122 168 222 290 348
#     4  10  24  37  56  86 110 146 187 228 296 347
#     4  11  23  40  58  75  97 124 165 218 273 349
#     4  10  20  37  57  82 116 146 182 236 295 356
#     4  10  22  37  56  82 112 148 191 232 296 354
#     4  10  23  40  58  80 117 146 182 240 284 351
#     4  10  20  40  58  73 103 136 170 220 284 329
#
# _framework density 18.286826000000001
#
# number of rings (size 3 to 8) (size 9 to 14) (size 15 to 20)
#    0.000    1.455    2.727    2.727    5.091    5.818 
#    0.000    0.000   28.000    0.000    0.000    0.000 
#    0.000    0.000    0.000    0.000    0.000    0.000 
#
# Total GULP energy -245099.339640 kJ/mol
# GULP energy per Si atom -5570.439537 kJ/mol
# Density = 1.824520 g / cm^3
# Si number density = 18.286826 Si / 1000 Ang^3
#
#
#
# Elastic Constant Matrix: (Units=GPa)
#
#
# Indices 1 2 3 4 5 6 
#
# 1 60.4265 25.9122 21.2815 0.0000 0.0000 0.0000
# 2 25.9122 60.4266 21.2818 0.0000 0.0000 0.0000
# 3 21.2815 21.2818 130.8261 0.0000 0.0000 0.0000
# 4 0.0000 0.0000 0.0000 29.5257 0.0000 0.0000
# 5 0.0000 0.0000 0.0000 0.0000 29.5255 0.0000
# 6 0.0000 0.0000 0.0000 0.0000 0.0000 9.7747
#
#
#
# Elastic Compliance Matrix: (Units=1/GPa)
#
#
# Indices 1 2 3 4 5 6 
#
# 1 0.020783 -0.008191 -0.002048 0.000000 0.000000 0.000000
# 2 -0.008191 0.020783 -0.002048 0.000000 0.000000 0.000000
# 3 -0.002048 -0.002048 0.008310 0.000000 0.000000 0.000000
# 4 0.000000 0.000000 0.000000 0.033869 0.000000 0.000000
# 5 0.000000 0.000000 0.000000 0.000000 0.033869 0.000000
# 6 0.000000 0.000000 0.000000 0.000000 0.000000 0.102305
#
#
# Mechanical properties :
#
#
# Convention : Reuss Voigt Hill
#
# Bulk Modulus (GPa) = 39.52435 43.18113 41.35274
# Shear Modulus (GPa) = 19.76852 25.97876 22.87364
#
# Velocity S-wave (km/s) = 3.29146 3.77321 3.54054
# Velocity P-wave (km/s) = 6.00878 6.53049 6.27506
#
# Compressibility (1/GPa) = 0.02530086
#
# Stress axis : x y z
#
# Youngs Moduli (GPa) = 48.11673 48.11683 120.33471
#
# Poissons Ratio (x) = 0.39411 0.24649
# Poissons Ratio (y) = 0.39411 0.24649
# Poissons Ratio (z) = 0.09856 0.09856
#
# Static dielectric constant tensor:
#      x y z
#    x 1.675590 0.000000 0.000000 
#    y 0.000000 1.675590 0.000000 
#    z 0.000000 0.000000 1.490170 
# 
# From -- ./inp_files/18830.got.cif
#   From: 2010.05.17/outbox.cif.g08.bks.cpg/sg91_10_cif.got.tgz:18830.got - 2010.06.03 19:20:03.
