data_PCOD9547396
_publ_section_title
;
Structure prediction by ZEFSAII (Michael W. Deem and Ramdas Pophale) SiO2 
 PCOD9547396
Probable space group: P 4 21 2
;
_chemical_formula_sum "Si O2"
_cell_formula_units_Z 44
_cell_length_a 8.158484
_cell_length_b 8.158484
_cell_length_c 30.820946
_cell_angle_alpha 90.000000
_cell_angle_beta 90.000000
_cell_angle_gamma 90.000000
_cell_volume 2051.468708
_symmetry_space_group_name_H-M "P 4 21 2"
_symmetry_group_IT_number 90
_symmetry_cell_setting 'tetragonal'
loop_
_space_group_symop_operation_xyz
x,y,z
1/2-y,1/2+x,z
-x,-y,z
1/2+y,1/2-x,z
1/2+x,1/2-y,-z
1/2-x,1/2+y,-z
y,x,-z
-y,-x,-z
loop_
_atom_site_type_symbol
_atom_site_label
_atom_site_fract_x
_atom_site_fract_y
_atom_site_fract_z
Si Si1 0.582692 0.736184 0.136109
Si Si2 0.237733 0.909821 0.685563
Si Si3 0.737280 0.585189 0.218029
Si Si4 0.087382 0.237101 0.457316
Si Si5 0.916997 0.236019 0.959007
Si Si6 0.000000 0.000000 0.615647
O O1 0.398044 0.803153 0.137891
O O2 0.626667 0.629452 0.177450
O O3 0.610966 0.658603 0.088576
O O4 0.401584 0.801140 0.681962
O O5 0.165906 0.886357 0.733869
O O6 0.108769 0.887763 0.647430
O O7 0.802212 0.399946 0.215676
O O8 0.199171 0.399721 0.456714
O O9 0.136384 0.136384 0.500000
O O10 0.101428 0.120370 0.415708
O O11 0.803080 0.398212 0.960977
O O12 0.872388 0.127613 0.000000
#
# Coordination Sequence:
#
# PCOD9547396 Si02
#       6
#     8   8   8   8   8   4
#     4   9  19  35  53  74 104 141 179 223 280 344
#     4   9  20  38  57  81 116 156 199 249 302 359
#     4   9  19  35  54  78 108 143 189 240 287 340
#     4  11  24  43  67  96 132 173 219 267 314 369
#     4   9  19  35  52  73 103 137 174 221 277 337
#     4  12  21  34  62  92 120 160 205 248 306 362
#
# _framework density 21.448046999999999
#
# number of rings (size 3 to 8) (size 9 to 14) (size 15 to 20)
#    0.000    2.364    0.000    4.636    0.000    6.909 
#    0.000    5.455    0.000    4.909    0.000    0.000 
#    0.000    0.000    0.000    0.000    0.000    0.000 
#
# Total GULP energy -245978.191346 kJ/mol
# GULP energy per Si atom -5590.413440 kJ/mol
# Density = 2.139923 g / cm^3
# Si number density = 21.448047 Si / 1000 Ang^3
#
#
#
# Elastic Constant Matrix: (Units=GPa)
#
#
# Indices 1 2 3 4 5 6 
#
# 1 75.3951 34.3682 75.9595 0.0000 0.0000 0.0000
# 2 34.3682 75.3951 75.9599 0.0000 0.0000 0.0000
# 3 75.9595 75.9599 241.2136 0.0000 0.0000 0.0000
# 4 0.0000 0.0000 0.0000 56.0597 0.0000 0.0000
# 5 0.0000 0.0000 0.0000 0.0000 56.0598 0.0000
# 6 0.0000 0.0000 0.0000 0.0000 0.0000 31.6891
#
#
#
# Elastic Compliance Matrix: (Units=1/GPa)
#
#
# Indices 1 2 3 4 5 6 
#
# 1 0.020262 -0.004113 -0.005085 0.000000 0.000000 0.000000
# 2 -0.004113 0.020262 -0.005085 0.000000 0.000000 0.000000
# 3 -0.005085 -0.005085 0.007349 0.000000 0.000000 0.000000
# 4 0.000000 0.000000 0.000000 0.017838 0.000000 0.000000
# 5 0.000000 0.000000 0.000000 0.000000 0.017838 0.000000
# 6 0.000000 0.000000 0.000000 0.000000 0.000000 0.031557
#
#
# Mechanical properties :
#
#
# Convention : Reuss Voigt Hill
#
# Bulk Modulus (GPa) = 51.80011 84.95322 68.37666
# Shear Modulus (GPa) = 33.30964 42.47614 37.89289
#
# Velocity S-wave (km/s) = 3.94514 4.45502 4.20781
# Velocity P-wave (km/s) = 6.70492 8.13374 7.45365
#
# Compressibility (1/GPa) = 0.01930498
#
# Stress axis : x y z
#
# Youngs Moduli (GPa) = 49.35433 49.35418 136.08057
#
# Poissons Ratio (x) = 0.20297 0.69203
# Poissons Ratio (y) = 0.20297 0.69204
# Poissons Ratio (z) = 0.25099 0.25099
#
# Static dielectric constant tensor:
#      x y z
#    x 1.787240 0.000000 0.000000 
#    y 0.000000 1.787240 0.000000 
#    z 0.000000 0.000000 1.782030 
# 
# From -- ./inp_files/3010.got.cif
#   From: 2010.05.17/outbox.cif.g08.bks.cpg/sg90_2_cif.got.tgz:3010.got - 2010.06.03 19:17:45.
