data_PCOD9547389
_publ_section_title
;
Structure prediction by ZEFSAII (Michael W. Deem and Ramdas Pophale) SiO2 
 PCOD9547389
Probable space group: P 4 21 2
;
_chemical_formula_sum "Si O2"
_cell_formula_units_Z 38
_cell_length_a 8.253019
_cell_length_b 8.253019
_cell_length_c 26.871346
_cell_angle_alpha 90.000000
_cell_angle_beta 90.000000
_cell_angle_gamma 90.000000
_cell_volume 1830.269788
_symmetry_space_group_name_H-M "P 4 21 2"
_symmetry_group_IT_number 90
_symmetry_cell_setting 'tetragonal'
loop_
_space_group_symop_operation_xyz
x,y,z
1/2-y,1/2+x,z
-x,-y,z
1/2+y,1/2-x,z
1/2+x,1/2-y,-z
1/2-x,1/2+y,-z
y,x,-z
-y,-x,-z
loop_
_atom_site_type_symbol
_atom_site_label
_atom_site_fract_x
_atom_site_fract_y
_atom_site_fract_z
Si Si1 0.237159 0.924285 0.320547
Si Si2 0.265565 0.445290 0.408861
Si Si3 0.917985 0.760723 0.045928
Si Si4 0.760170 0.915859 0.843536
Si Si5 0.000000 0.000000 0.762918
Si Si6 0.500000 0.500000 0.500000
O O1 0.392962 0.806959 0.319571
O O2 0.130279 0.890933 0.369425
O O3 0.119732 0.902128 0.273355
O O4 0.181824 0.618844 0.402119
O O5 0.350938 0.471251 0.462090
O O6 0.805287 0.600595 0.043025
O O7 0.891885 0.832122 0.101142
O O8 0.872188 0.872188 0.000000
O O9 0.601054 0.804554 0.839999
O O10 0.885881 0.895959 0.799269
#
# Coordination Sequence:
#
# PCOD9547389 Si02
#       6
#     8   8   8   8   4   2
#     4  11  24  42  64  92 128 165 207 265 321 366
#     4  11  24  42  66  95 128 170 216 254 297 365
#     4   9  19  35  54  78 108 142 184 233 288 353
#     4   9  20  37  55  80 114 149 189 241 297 358
#     4  12  21  36  61  87 114 155 206 248 302 374
#     4  12  22  40  64  96 136 166 200 258 310 346
#
# _framework density 20.761966999999999
#
# number of rings (size 3 to 8) (size 9 to 14) (size 15 to 20)
#    0.000    1.684    0.000    6.316    0.000    3.789 
#    0.000    4.211    0.000    2.526    0.000    0.000 
#    0.000    0.000    0.000    0.000    0.000    0.000 
#
# Total GULP energy -212085.015775 kJ/mol
# GULP energy per Si atom -5581.184626 kJ/mol
# Density = 2.071471 g / cm^3
# Si number density = 20.761967 Si / 1000 Ang^3
#
#
#
# Elastic Constant Matrix: (Units=GPa)
#
#
# Indices 1 2 3 4 5 6 
#
# 1 45.6215 49.4148 48.4451 0.0000 0.0000 0.0000
# 2 49.4148 45.6215 48.4451 0.0000 0.0000 0.0000
# 3 48.4451 48.4451 154.4236 0.0000 0.0000 0.0000
# 4 0.0000 0.0000 0.0000 37.9110 0.0000 0.0000
# 5 0.0000 0.0000 0.0000 0.0000 37.9110 0.0000
# 6 0.0000 0.0000 0.0000 0.0000 0.0000 33.2199
#
#
#
# Elastic Compliance Matrix: (Units=1/GPa)
#
#
# Indices 1 2 3 4 5 6 
#
# 1 -0.124076 0.139546 -0.004853 0.000000 0.000000 0.000000
# 2 0.139546 -0.124076 -0.004853 0.000000 0.000000 0.000000
# 3 -0.004853 -0.004853 0.009521 0.000000 0.000000 0.000000
# 4 0.000000 0.000000 0.000000 0.026378 0.000000 0.000000
# 5 0.000000 0.000000 0.000000 0.000000 0.026378 0.000000
# 6 0.000000 0.000000 0.000000 0.000000 0.000000 0.030102
#
#
# Mechanical properties :
#
#
# Convention : Reuss Voigt Hill
#
# Bulk Modulus (GPa) = 47.50999 59.80850 53.65925
# Shear Modulus (GPa) = -12.24178 28.43250 8.09536
#
# Velocity S-wave (km/s) = -2.43085 3.70462 1.97676
# Velocity P-wave (km/s) = 3.87996 6.86792 5.57774
#
# Compressibility (1/GPa) = 0.02104821
#
# Stress axis : x y z
#
# Youngs Moduli (GPa) = -8.05957 -8.05957 105.03359
#
# Poissons Ratio (x) = 1.12468 0.50975
# Poissons Ratio (y) = 1.12468 0.50975
# Poissons Ratio (z) = -0.03912 -0.03912
#
# Static dielectric constant tensor:
#      x y z
#    x 1.563590 0.000000 0.000000 
#    y 0.000000 1.563590 0.000000 
#    z 0.000000 0.000000 1.731170 
# 
# From -- ./inp_files/2910.got.cif
#   From: 2010.05.17/outbox.cif.g08.bks.cpg/sg90_2_cif.got.tgz:2910.got - 2010.06.03 19:17:45.
