data_PCOD9547899
_publ_section_title
;
Structure prediction by ZEFSAII (Michael W. Deem and Ramdas Pophale) SiO2 
 PCOD9547899
Probable space group: P 41 2 2
;
_chemical_formula_sum "Si O2"
_cell_formula_units_Z 48
_cell_length_a 14.633426
_cell_length_b 14.633426
_cell_length_c 11.882944
_cell_angle_alpha 90.000000
_cell_angle_beta 90.000000
_cell_angle_gamma 90.000000
_cell_volume 2544.579839
_symmetry_space_group_name_H-M "P 41 2 2"
_symmetry_group_IT_number 91
_symmetry_cell_setting 'tetragonal'
loop_
_space_group_symop_operation_xyz
x,y,z
-y,x,1/4+z
-x,-y,1/2+z
y,-x,3/4+z
x,-y,1/2-z
-x,y,-z
y,x,3/4-z
-y,-x,1/4-z
loop_
_atom_site_type_symbol
_atom_site_label
_atom_site_fract_x
_atom_site_fract_y
_atom_site_fract_z
Si Si1 0.800540 0.357167 0.925872
Si Si2 0.585365 0.063761 0.849775
Si Si3 0.616715 0.000992 0.090650
Si Si4 0.364791 0.609345 0.254727
Si Si5 0.250857 0.507418 0.887566
Si Si6 0.907158 0.790460 0.458633
O O1 0.720649 0.365180 0.834623
O O2 0.894293 0.393731 0.868947
O O3 0.772304 0.416476 0.037559
O O4 0.831513 0.254251 0.958494
O O5 0.477548 0.045022 0.869603
O O6 0.583338 0.172370 0.834481
O O7 0.617607 0.000000 0.750000
O O8 0.630631 0.026281 0.961830
O O9 0.700510 0.048953 0.151514
O O10 0.372310 0.500000 0.250000
O O11 0.357291 0.642710 0.125000
O O12 0.452513 0.655332 0.313864
O O13 0.251209 0.500000 0.750000
O O14 0.854349 0.854349 0.375000
O O15 0.000000 0.838832 0.500000
#
# Coordination Sequence:
#
# PCOD9547899 Si02
#       6
#     8   8   8   8   8   8
#     4  11  23  41  65  91 127 168 210 268 324 381
#     4  11  19  32  61  96 129 156 200 260 327 383
#     4  10  20  36  61  94 129 157 200 253 327 390
#     4  12  29  47  61  84 124 179 232 265 319 385
#     4  12  24  41  65  92 121 164 219 276 316 378
#     4  10  21  40  65  96 126 161 204 256 320 386
#
# _framework density 18.863626
#
# number of rings (size 3 to 8) (size 9 to 14) (size 15 to 20)
#    0.000    1.000    6.667    0.500    9.333    0.667 
#    0.000    0.000    0.000    5.000    0.000    0.000 
#    0.000    0.000    0.000    0.000    0.000    0.000 
#
# Total GULP energy -267564.144240 kJ/mol
# GULP energy per Si atom -5574.253005 kJ/mol
# Density = 1.882069 g / cm^3
# Si number density = 18.863626 Si / 1000 Ang^3
#
#
#
# Elastic Constant Matrix: (Units=GPa)
#
#
# Indices 1 2 3 4 5 6 
#
# 1 73.5502 39.1949 28.5457 0.0000 0.0000 0.0000
# 2 39.1949 73.5498 28.5454 0.0000 0.0000 0.0000
# 3 28.5457 28.5454 132.9314 0.0000 0.0000 0.0000
# 4 0.0000 0.0000 0.0000 14.9775 0.0000 0.0000
# 5 0.0000 0.0000 0.0000 0.0000 14.9772 0.0000
# 6 0.0000 0.0000 0.0000 0.0000 0.0000 -3.1162
#
#
#
# Elastic Compliance Matrix: (Units=1/GPa)
#
#
# Indices 1 2 3 4 5 6 
#
# 1 0.019530 -0.009578 -0.002137 0.000000 0.000000 0.000000
# 2 -0.009578 0.019530 -0.002137 0.000000 0.000000 0.000000
# 3 -0.002137 -0.002137 0.008440 0.000000 0.000000 0.000000
# 4 0.000000 0.000000 0.000000 0.066767 0.000000 0.000000
# 5 0.000000 0.000000 0.000000 0.000000 0.066768 0.000000
# 6 0.000000 0.000000 0.000000 0.000000 0.000000 -0.320905
#
#
# Mechanical properties :
#
#
# Convention : Reuss Voigt Hill
#
# Bulk Modulus (GPa) = 50.51569 52.51147 51.51358
# Shear Modulus (GPa) = -47.36318 17.61740 -14.87289
#
# Velocity S-wave (km/s) = -5.01624 3.05935 -2.81097
# Velocity P-wave (km/s) = 2.59089 6.35432 4.10272
#
# Compressibility (1/GPa) = 0.01979583
#
# Stress axis : x y z
#
# Youngs Moduli (GPa) = 51.20416 51.20391 118.47671
#
# Poissons Ratio (x) = 0.49043 0.25319
# Poissons Ratio (y) = 0.49043 0.25318
# Poissons Ratio (z) = 0.10943 0.10942
#
# Static dielectric constant tensor:
#      x y z
#    x 1.732570 0.000000 0.000000 
#    y 0.000000 1.732570 0.000000 
#    z 0.000000 0.000000 1.806340 
# 
# From -- ./inp_files/3823.got.cif
#   From: 2010.05.17/outbox.cif.g08.bks.cpg/sg91_2_cif.got.tgz:3823.got - 2010.06.03 19:20:03.
