data_PCOD9547105
_publ_section_title
;
Structure prediction by ZEFSAII (Michael W. Deem and Ramdas Pophale) SiO2 
 PCOD9547105
Probable space group: P 4 21 2
;
_chemical_formula_sum "Si O2"
_cell_formula_units_Z 40
_cell_length_a 19.683241
_cell_length_b 19.683241
_cell_length_c 5.254543
_cell_angle_alpha 90.000000
_cell_angle_beta 90.000000
_cell_angle_gamma 90.000000
_cell_volume 2035.767470
_symmetry_space_group_name_H-M "P 4 21 2"
_symmetry_group_IT_number 90
_symmetry_cell_setting 'tetragonal'
loop_
_space_group_symop_operation_xyz
x,y,z
1/2-y,1/2+x,z
-x,-y,z
1/2+y,1/2-x,z
1/2+x,1/2-y,-z
1/2-x,1/2+y,-z
y,x,-z
-y,-x,-z
loop_
_atom_site_type_symbol
_atom_site_label
_atom_site_fract_x
_atom_site_fract_y
_atom_site_fract_z
Si Si1 0.575499 0.468278 0.752922
Si Si2 0.249236 0.141769 0.110187
Si Si3 0.982897 0.210925 0.894688
Si Si4 0.963529 0.293232 0.404638
Si Si5 0.121620 0.331220 0.386986
O O1 0.500000 0.500000 0.747314
O O2 0.577517 0.422484 0.500000
O O3 0.632545 0.524365 0.805923
O O4 0.577820 0.422181 0.000000
O O5 0.283969 0.153051 0.386759
O O6 0.221747 0.064498 0.119275
O O7 0.192917 0.192917 0.000000
O O8 0.305532 0.142627 0.890665
O O9 0.951774 0.254960 0.669680
O O10 0.959671 0.239401 0.168522
O O11 0.907795 0.351954 0.397887
O O12 0.040162 0.322528 0.405506
#
# Coordination Sequence:
#
# PCOD9547105 Si02
#       5
#     8   8   8   8   8
#     4  10  20  34  56  80 113 145 187 233 280 346
#     4  10  20  35  59  84 109 144 201 244 282 339
#     4  10  20  35  58  85 110 151 192 243 292 334
#     4  10  21  37  59  85 118 153 194 239 294 350
#     4  10  21  37  59  87 117 152 194 242 292 349
#
# _framework density 19.648610999999999
#
# number of rings (size 3 to 8) (size 9 to 14) (size 15 to 20)
#    0.000    2.000    0.000    3.600    0.000    3.600 
#    0.000    0.000   44.000    7.200    0.000    0.000 
#    0.000    0.000    0.000    0.000    0.000    0.000 
#
# Total GULP energy -222837.233628 kJ/mol
# GULP energy per Si atom -5570.930841 kJ/mol
# Density = 1.960389 g / cm^3
# Si number density = 19.648611 Si / 1000 Ang^3
#
#
#
# Elastic Constant Matrix: (Units=GPa)
#
#
# Indices 1 2 3 4 5 6 
#
# 1 62.2290 30.2738 18.3736 0.0000 0.0000 0.0000
# 2 30.2738 62.2298 18.3735 0.0000 0.0000 0.0000
# 3 18.3736 18.3735 143.4939 0.0000 0.0000 0.0000
# 4 0.0000 0.0000 0.0000 3.0661 0.0000 0.0000
# 5 0.0000 0.0000 0.0000 0.0000 3.0671 0.0000
# 6 0.0000 0.0000 0.0000 0.0000 0.0000 19.5936
#
#
#
# Elastic Compliance Matrix: (Units=1/GPa)
#
#
# Indices 1 2 3 4 5 6 
#
# 1 0.021342 -0.009952 -0.001458 0.000000 0.000000 0.000000
# 2 -0.009952 0.021341 -0.001458 0.000000 0.000000 0.000000
# 3 -0.001458 -0.001458 0.007342 0.000000 0.000000 0.000000
# 4 0.000000 0.000000 0.000000 0.326142 0.000000 0.000000
# 5 0.000000 0.000000 0.000000 0.000000 0.326040 0.000000
# 6 0.000000 0.000000 0.000000 0.000000 0.000000 0.051037
#
#
# Mechanical properties :
#
#
# Convention : Reuss Voigt Hill
#
# Bulk Modulus (GPa) = 41.17189 44.66605 42.91897
# Shear Modulus (GPa) = 6.35261 18.54083 12.44672
#
# Velocity S-wave (km/s) = 1.80004 3.07517 2.51960
# Velocity P-wave (km/s) = 5.03187 5.94901 5.50956
#
# Compressibility (1/GPa) = 0.02428842
#
# Stress axis : x y z
#
# Youngs Moduli (GPa) = 46.85656 46.85715 136.19496
#
# Poissons Ratio (x) = 0.46631 0.19863
# Poissons Ratio (y) = 0.46631 0.19862
# Poissons Ratio (z) = 0.06834 0.06834
#
# Static dielectric constant tensor:
#      x y z
#    x 1.706020 0.000000 0.000000 
#    y 0.000000 1.706030 0.000000 
#    z 0.000000 0.000000 1.732100 
# 
# From -- ./inp_files/445.got.cif
#   From: 2010.05.17/outbox.cif.g08.bks.cpg/sg90_1_cif.got.tgz:445.got - 2010.06.03 19:17:45.
