data_PCOD9547705
_publ_section_title
;
Structure prediction by ZEFSAII (Michael W. Deem and Ramdas Pophale) SiO2 
 PCOD9547705
Probable space group: P 41 2 2
;
_chemical_formula_sum "Si O2"
_cell_formula_units_Z 52
_cell_length_a 18.026349
_cell_length_b 18.026349
_cell_length_c 10.299596
_cell_angle_alpha 90.000000
_cell_angle_beta 90.000000
_cell_angle_gamma 90.000000
_cell_volume 3346.846081
_symmetry_space_group_name_H-M "P 41 2 2"
_symmetry_group_IT_number 91
_symmetry_cell_setting 'tetragonal'
loop_
_space_group_symop_operation_xyz
x,y,z
-y,x,1/4+z
-x,-y,1/2+z
y,-x,3/4+z
x,-y,1/2-z
-x,y,-z
y,x,3/4-z
-y,-x,1/4-z
loop_
_atom_site_type_symbol
_atom_site_label
_atom_site_fract_x
_atom_site_fract_y
_atom_site_fract_z
Si Si1 0.992755 0.500000 0.250000
Si Si2 0.795601 0.327689 0.473533
Si Si3 0.951667 0.354627 0.371203
Si Si4 0.668620 0.207489 0.468669
Si Si5 0.954509 0.356245 0.869263
Si Si6 0.443273 0.335818 0.617076
Si Si7 0.544506 0.686368 0.631999
O O1 0.945226 0.442236 0.334248
O O2 0.041800 0.554972 0.338171
O O3 0.872374 0.320384 0.398357
O O4 0.743369 0.255997 0.457363
O O5 0.808928 0.340836 0.627461
O O6 0.751469 0.398310 0.418279
O O7 0.000000 0.348936 0.500000
O O8 0.998148 0.322727 0.250475
O O9 0.668457 0.130450 0.390574
O O10 0.603622 0.262462 0.420895
O O11 0.000000 0.342353 0.000000
O O12 0.500000 0.350974 0.500000
O O13 0.488173 0.323954 0.748988
O O14 0.386595 0.404066 0.630602
O O15 0.500000 0.699996 0.500000
#
# Coordination Sequence:
#
# PCOD9547705 Si02
#       7
#     4   8   8   8   8   8   8
#     4   8  20  28  50  76 106 136 172 220 262 312
#     4  10  20  38  55  80 104 144 182 220 270 326
#     4  10  19  33  53  79 106 136 176 213 264 318
#     4  10  21  36  58  76 108 141 183 222 265 333
#     4  10  21  34  52  83 109 136 173 213 274 320
#     4  11  22  37  54  73  94 138 186 229 282 327
#     4  11  24  36  52  73 100 134 182 236 285 319
#
# _framework density 15.537015
#
# number of rings (size 3 to 8) (size 9 to 14) (size 15 to 20)
#    0.923    0.923    3.077    1.385    2.154    5.538 
#    0.000    2.308    0.000    0.000    0.000    0.000 
#    0.000    3.692    0.000    0.000    0.000    0.000 
#
# Total GULP energy -289757.021372 kJ/mol
# GULP energy per Si atom -5572.250411 kJ/mol
# Density = 1.550165 g / cm^3
# Si number density = 15.537015 Si / 1000 Ang^3
#
#
#
# Elastic Constant Matrix: (Units=GPa)
#
#
# Indices 1 2 3 4 5 6 
#
# 1 82.6378 21.1543 32.0298 0.0000 0.0000 0.0000
# 2 21.1543 82.6378 32.0298 0.0000 0.0000 0.0000
# 3 32.0298 32.0298 105.3412 0.0000 0.0000 0.0000
# 4 0.0000 0.0000 0.0000 19.6211 0.0000 0.0000
# 5 0.0000 0.0000 0.0000 0.0000 19.6211 0.0000
# 6 0.0000 0.0000 0.0000 0.0000 0.0000 7.5077
#
#
#
# Elastic Compliance Matrix: (Units=1/GPa)
#
#
# Indices 1 2 3 4 5 6 
#
# 1 0.014062 -0.002202 -0.003606 0.000000 0.000000 0.000000
# 2 -0.002202 0.014062 -0.003606 0.000000 0.000000 0.000000
# 3 -0.003606 -0.003606 0.011686 0.000000 0.000000 0.000000
# 4 0.000000 0.000000 0.000000 0.050966 0.000000 0.000000
# 5 0.000000 0.000000 0.000000 0.000000 0.050966 0.000000
# 6 0.000000 0.000000 0.000000 0.000000 0.000000 0.133196
#
#
# Mechanical properties :
#
#
# Convention : Reuss Voigt Hill
#
# Bulk Modulus (GPa) = 47.66036 49.00492 48.33264
# Shear Modulus (GPa) = 16.62449 21.71018 19.16733
#
# Velocity S-wave (km/s) = 3.27462 3.74213 3.51615
# Velocity P-wave (km/s) = 6.71115 7.09088 6.90363
#
# Compressibility (1/GPa) = 0.02098179
#
# Stress axis : x y z
#
# Youngs Moduli (GPa) = 71.11131 71.11131 85.57271
#
# Poissons Ratio (x) = 0.15659 0.30860
# Poissons Ratio (y) = 0.15659 0.30860
# Poissons Ratio (z) = 0.25644 0.25644
#
# Static dielectric constant tensor:
#      x y z
#    x 1.499590 0.000000 0.000000 
#    y 0.000000 1.499590 0.000000 
#    z 0.000000 0.000000 1.523910 
# 
# From -- ./inp_files/15241.got.cif
#   From: 2010.05.17/outbox.cif.g08.bks.cpg/sg91_8_cif.got.tgz:15241.got - 2010.06.03 19:20:03.
