data_PCOD9547993
_publ_section_title
;
Structure prediction by ZEFSAII (Michael W. Deem and Ramdas Pophale) SiO2 
 PCOD9547993
Probable space group: P 41 2 2
;
_chemical_formula_sum "Si O2"
_cell_formula_units_Z 52
_cell_length_a 22.426022
_cell_length_b 22.426022
_cell_length_c 5.139402
_cell_angle_alpha 90.000000
_cell_angle_beta 90.000000
_cell_angle_gamma 90.000000
_cell_volume 2584.741268
_symmetry_space_group_name_H-M "P 41 2 2"
_symmetry_group_IT_number 91
_symmetry_cell_setting 'tetragonal'
loop_
_space_group_symop_operation_xyz
x,y,z
-y,x,1/4+z
-x,-y,1/2+z
y,-x,3/4+z
x,-y,1/2-z
-x,y,-z
y,x,3/4-z
-y,-x,1/4-z
loop_
_atom_site_type_symbol
_atom_site_label
_atom_site_fract_x
_atom_site_fract_y
_atom_site_fract_z
Si Si1 0.316602 0.068697 0.189997
Si Si2 0.204465 0.564916 0.205365
Si Si3 0.753662 0.840105 0.043608
Si Si4 0.319787 0.266630 0.638479
Si Si5 0.191820 0.937706 0.600150
Si Si6 0.064846 0.064846 0.875000
Si Si7 0.432901 0.126800 0.952231
O O1 0.297592 0.119436 0.402099
O O2 0.332194 0.000000 0.250000
O O3 0.251294 0.062923 0.064509
O O4 0.373029 0.090734 0.021586
O O5 0.231032 0.500000 0.250000
O O6 0.248767 0.614772 0.304190
O O7 0.148258 0.568155 0.404397
O O8 0.181767 0.570504 0.909420
O O9 0.798311 0.798311 0.875000
O O10 0.715121 0.794296 0.216609
O O11 0.796051 0.884206 0.200609
O O12 0.289919 0.289919 0.375000
O O13 0.311544 0.311544 0.875000
O O14 0.127141 0.932340 0.464371
O O15 0.191486 0.000000 0.750000
O O16 0.066715 0.000000 0.750000
O O17 0.500000 0.100186 0.000000
#
# Coordination Sequence:
#
# PCOD9547993 Si02
#       7
#     8   8   8   8   8   4   8
#     4  12  24  40  62  88 120 161 210 269 324 397
#     4  10  20  39  64  89 126 172 214 254 312 375
#     4  11  24  38  61  85 116 154 198 256 331 390
#     4  11  23  36  59  94 127 160 204 259 311 372
#     4  11  23  42  60  85 110 149 199 261 323 403
#     4  10  24  44  62  82 112 148 200 266 352 424
#     4  10  22  40  63  91 125 170 217 261 311 382
#
# _framework density 20.118067
#
# number of rings (size 3 to 8) (size 9 to 14) (size 15 to 20)
#    0.000    1.231    3.077    2.769    7.538    0.615 
#    5.538    3.077    0.000    0.000    0.000    0.000 
#    0.000    1.231    0.000    0.000    0.000    0.000 
#
# Total GULP energy -289922.107690 kJ/mol
# GULP energy per Si atom -5575.425148 kJ/mol
# Density = 2.007228 g / cm^3
# Si number density = 20.118067 Si / 1000 Ang^3
#
#
#
# Elastic Constant Matrix: (Units=GPa)
#
#
# Indices 1 2 3 4 5 6 
#
# 1 215.5479 -44.8476 11.5841 0.0000 0.0000 0.0000
# 2 -44.8476 215.5479 11.5841 0.0000 0.0000 0.0000
# 3 11.5841 11.5841 43.6599 0.0000 0.0000 0.0000
# 4 0.0000 0.0000 0.0000 26.7333 0.0000 0.0000
# 5 0.0000 0.0000 0.0000 0.0000 26.7333 0.0000
# 6 0.0000 0.0000 0.0000 0.0000 0.0000 31.1390
#
#
#
# Elastic Compliance Matrix: (Units=1/GPa)
#
#
# Indices 1 2 3 4 5 6 
#
# 1 0.004959 0.001118 -0.001612 0.000000 0.000000 0.000000
# 2 0.001118 0.004959 -0.001612 0.000000 0.000000 0.000000
# 3 -0.001612 -0.001612 0.023760 0.000000 0.000000 0.000000
# 4 0.000000 0.000000 0.000000 0.037407 0.000000 0.000000
# 5 0.000000 0.000000 0.000000 0.000000 0.037407 0.000000
# 6 0.000000 0.000000 0.000000 0.000000 0.000000 0.032114
#
#
# Mechanical properties :
#
#
# Convention : Reuss Voigt Hill
#
# Bulk Modulus (GPa) = 33.93920 47.93300 40.93610
# Shear Modulus (GPa) = 32.33340 50.01679 41.17509
#
# Velocity S-wave (km/s) = 4.01332 4.99155 4.52892
# Velocity P-wave (km/s) = 6.19534 7.55635 6.90944
#
# Compressibility (1/GPa) = 0.02946446
#
# Stress axis : x y z
#
# Youngs Moduli (GPa) = 201.66634 201.66634 42.08767
#
# Poissons Ratio (x) = -0.22554 0.06786
# Poissons Ratio (y) = -0.22554 0.06786
# Poissons Ratio (z) = 0.32517 0.32517
#
# Static dielectric constant tensor:
#      x y z
#    x 1.771270 0.000000 0.000000 
#    y 0.000000 1.771270 0.000000 
#    z 0.000000 0.000000 1.783060 
# 
# From -- ./inp_files/9001.got.cif
#   From: 2010.05.17/outbox.cif.g08.bks.cpg/sg91_5_cif.got.tgz:9001.got - 2010.06.03 19:20:03.
