data_PCOD9547580
_publ_section_title
;
Structure prediction by ZEFSAII (Michael W. Deem and Ramdas Pophale) SiO2 
 PCOD9547580
Probable space group: P 41 2 2
;
_chemical_formula_sum "Si O2"
_cell_formula_units_Z 48
_cell_length_a 12.500938
_cell_length_b 12.500938
_cell_length_c 16.967501
_cell_angle_alpha 90.000000
_cell_angle_beta 90.000000
_cell_angle_gamma 90.000000
_cell_volume 2651.569934
_symmetry_space_group_name_H-M "P 41 2 2"
_symmetry_group_IT_number 91
_symmetry_cell_setting 'tetragonal'
loop_
_space_group_symop_operation_xyz
x,y,z
-y,x,1/4+z
-x,-y,1/2+z
y,-x,3/4+z
x,-y,1/2-z
-x,y,-z
y,x,3/4-z
-y,-x,1/4-z
loop_
_atom_site_type_symbol
_atom_site_label
_atom_site_fract_x
_atom_site_fract_y
_atom_site_fract_z
Si Si1 0.394761 0.500000 0.750000
Si Si2 0.946027 0.275002 0.367920
Si Si3 0.679132 0.454612 0.423684
Si Si4 0.918997 0.491315 0.065815
Si Si5 0.827227 0.172774 0.625000
Si Si6 0.220066 0.270027 0.205378
Si Si7 0.616499 0.001048 0.038504
O O1 0.471706 0.593648 0.717670
O O2 0.327833 0.531849 0.828274
O O3 0.961800 0.391058 0.408579
O O4 0.836257 0.228617 0.401641
O O5 0.047593 0.200127 0.384273
O O6 0.946020 0.305060 0.275532
O O7 0.796096 0.488513 0.454548
O O8 0.665347 0.329295 0.442022
O O9 0.924838 0.409166 0.137811
O O10 0.000000 0.451909 0.000000
O O11 0.767048 0.211969 0.546456
O O12 0.113053 0.335310 0.187410
O O13 0.500000 0.981721 0.000000
#
# Coordination Sequence:
#
# PCOD9547580 Si02
#       7
#     4   8   8   8   4   8   8
#     4  10  24  42  54  88 114 168 202 232 310 362
#     4   9  18  34  54  82 110 150 186 230 300 354
#     4  10  23  38  61  81 123 159 200 247 298 375
#     4  10  20  35  57  84 111 152 198 249 290 352
#     4  10  18  32  54  86 112 138 194 234 300 346
#     4  10  20  33  58  83 113 153 184 252 289 352
#     4   9  20  34  55  87 112 147 197 240 290 344
#
# _framework density 18.102485000000001
#
# number of rings (size 3 to 8) (size 9 to 14) (size 15 to 20)
#    0.000    2.333    0.000    2.500    9.333    1.333 
#    0.000    0.000    0.000    6.000    0.000    0.000 
#    0.000    0.000    0.000    0.000    0.000    0.000 
#
# Total GULP energy -267678.846283 kJ/mol
# GULP energy per Si atom -5576.642631 kJ/mol
# Density = 1.806128 g / cm^3
# Si number density = 18.102485 Si / 1000 Ang^3
#
#
#
# Elastic Constant Matrix: (Units=GPa)
#
#
# Indices 1 2 3 4 5 6 
#
# 1 41.1657 11.6326 11.7028 0.0000 0.0000 0.0000
# 2 11.6326 41.1652 11.7030 0.0000 0.0000 0.0000
# 3 11.7028 11.7030 48.5762 0.0000 0.0000 0.0000
# 4 0.0000 0.0000 0.0000 18.9187 0.0000 0.0000
# 5 0.0000 0.0000 0.0000 0.0000 18.9188 0.0000
# 6 0.0000 0.0000 0.0000 0.0000 0.0000 19.3010
#
#
#
# Elastic Compliance Matrix: (Units=1/GPa)
#
#
# Indices 1 2 3 4 5 6 
#
# 1 0.027532 -0.006328 -0.005108 0.000000 0.000000 0.000000
# 2 -0.006328 0.027533 -0.005109 0.000000 0.000000 0.000000
# 3 -0.005108 -0.005109 0.023048 0.000000 0.000000 0.000000
# 4 0.000000 0.000000 0.000000 0.052858 0.000000 0.000000
# 5 0.000000 0.000000 0.000000 0.000000 0.052857 0.000000
# 6 0.000000 0.000000 0.000000 0.000000 0.000000 0.051811
#
#
# Mechanical properties :
#
#
# Convention : Reuss Voigt Hill
#
# Bulk Modulus (GPa) = 22.21097 22.33156 22.27127
# Shear Modulus (GPa) = 17.62196 17.81896 17.72046
#
# Velocity S-wave (km/s) = 3.12341 3.14082 3.13213
# Velocity P-wave (km/s) = 5.03029 5.05133 5.04082
#
# Compressibility (1/GPa) = 0.04502279
#
# Stress axis : x y z
#
# Youngs Moduli (GPa) = 36.32077 36.32017 43.38825
#
# Poissons Ratio (x) = 0.22983 0.22165
# Poissons Ratio (y) = 0.22984 0.22166
# Poissons Ratio (z) = 0.18554 0.18555
#
# Static dielectric constant tensor:
#      x y z
#    x 1.599560 0.000000 0.000000 
#    y 0.000000 1.599560 0.000000 
#    z 0.000000 0.000000 1.660530 
# 
# From -- ./inp_files/21157.got.cif
#   From: 2010.05.17/outbox.cif.g08.bks.cpg/sg91_11_cif.got.tgz:21157.got - 2010.06.03 19:20:03.
