data_PCOD9547793
_publ_section_title
;
Structure prediction by ZEFSAII (Michael W. Deem and Ramdas Pophale) SiO2 
 PCOD9547793
Probable space group: P 41 2 2
;
_chemical_formula_sum "Si O2"
_cell_formula_units_Z 48
_cell_length_a 8.669271
_cell_length_b 8.669271
_cell_length_c 27.949637
_cell_angle_alpha 90.000000
_cell_angle_beta 90.000000
_cell_angle_gamma 90.000000
_cell_volume 2100.590176
_symmetry_space_group_name_H-M "P 41 2 2"
_symmetry_group_IT_number 91
_symmetry_cell_setting 'tetragonal'
loop_
_space_group_symop_operation_xyz
x,y,z
-y,x,1/4+z
-x,-y,1/2+z
y,-x,3/4+z
x,-y,1/2-z
-x,y,-z
y,x,3/4-z
-y,-x,1/4-z
loop_
_atom_site_type_symbol
_atom_site_label
_atom_site_fract_x
_atom_site_fract_y
_atom_site_fract_z
Si Si1 0.260492 0.338013 0.563876
Si Si2 0.024552 0.603685 0.575512
Si Si3 0.983651 0.618797 0.681778
Si Si4 0.639823 0.666130 0.166597
Si Si5 0.531640 0.500000 0.750000
Si Si6 0.125459 0.000000 0.750000
Si Si7 0.307646 0.035749 0.035255
O O1 0.114471 0.449152 0.561178
O O2 0.255868 0.153635 0.568621
O O3 0.359683 0.380613 0.611345
O O4 0.357441 0.367185 0.516508
O O5 0.066182 0.633360 0.631178
O O6 0.839873 0.576055 0.576613
O O7 0.056528 0.749434 0.540648
O O8 0.075960 0.646476 0.730406
O O9 0.926176 0.440226 0.691714
O O10 0.568350 0.552503 0.204990
O O11 0.818711 0.680294 0.180333
O O12 0.017428 0.874966 0.776780
#
# Coordination Sequence:
#
# PCOD9547793 Si02
#       7
#     8   8   8   8   4   4   8
#     4  11  22  39  60  93 128 174 222 274 334 406
#     4  10  21  40  61  89 130 174 215 272 331 400
#     4  10  21  37  64  89 125 175 219 267 332 391
#     4  10  22  38  63  93 129 172 222 277 340 390
#     4  12  22  36  58  92 134 160 228 280 334 398
#     4  10  22  38  62  94 132 166 220 274 332 386
#     4  10  19  39  59  91 125 166 220 271 319 392
#
# _framework density 22.850719999999999
#
# number of rings (size 3 to 8) (size 9 to 14) (size 15 to 20)
#    0.000    1.667    1.667    4.500    0.000    0.667 
#    3.000    4.167    0.000    0.000    4.333    0.000 
#    0.000    0.000    0.000    0.000    0.000    0.000 
#
# Total GULP energy -267350.006488 kJ/mol
# GULP energy per Si atom -5569.791802 kJ/mol
# Density = 2.279871 g / cm^3
# Si number density = 22.850720 Si / 1000 Ang^3
#
#
#
# Elastic Constant Matrix: (Units=GPa)
#
#
# Indices 1 2 3 4 5 6 
#
# 1 38.9873 34.8586 -1.6812 0.0000 0.0000 0.0000
# 2 34.8586 38.9873 -1.6812 0.0000 0.0000 0.0000
# 3 -1.6812 -1.6812 105.9674 0.0000 0.0000 0.0000
# 4 0.0000 0.0000 0.0000 30.6809 0.0000 0.0000
# 5 0.0000 0.0000 0.0000 0.0000 30.6809 0.0000
# 6 0.0000 0.0000 0.0000 0.0000 0.0000 37.6413
#
#
#
# Elastic Compliance Matrix: (Units=1/GPa)
#
#
# Indices 1 2 3 4 5 6 
#
# 1 0.127880 -0.114328 0.000215 0.000000 0.000000 0.000000
# 2 -0.114328 0.127880 0.000215 0.000000 0.000000 0.000000
# 3 0.000215 0.000215 0.009444 0.000000 0.000000 0.000000
# 4 0.000000 0.000000 0.000000 0.032594 0.000000 0.000000
# 5 0.000000 0.000000 0.000000 0.000000 0.032594 0.000000
# 6 0.000000 0.000000 0.000000 0.000000 0.000000 0.026567
#
#
# Mechanical properties :
#
#
# Convention : Reuss Voigt Hill
#
# Bulk Modulus (GPa) = 26.73319 27.43716 27.08518
# Shear Modulus (GPa) = 8.37208 29.96366 19.16787
#
# Velocity S-wave (km/s) = 1.91619 3.62509 2.89940
# Velocity P-wave (km/s) = 4.07678 5.43644 4.80495
#
# Compressibility (1/GPa) = 0.03740668
#
# Stress axis : x y z
#
# Youngs Moduli (GPa) = 7.81983 7.81983 105.89085
#
# Poissons Ratio (x) = 0.89403 -0.02277
# Poissons Ratio (y) = 0.89403 -0.02277
# Poissons Ratio (z) = -0.00168 -0.00168
#
# Static dielectric constant tensor:
#      x y z
#    x 1.925240 0.000000 0.000000 
#    y 0.000000 1.925240 0.000000 
#    z 0.000000 0.000000 1.837320 
# 
# From -- ./inp_files/22315.got.cif
#   From: 2010.05.17/outbox.cif.g08.bks.cpg/sg91_12_cif.got.tgz:22315.got - 2010.06.03 19:20:03.
