data_PCOD9547250
_publ_section_title
;
Structure prediction by ZEFSAII (Michael W. Deem and Ramdas Pophale) SiO2 
 PCOD9547250
Probable space group: P 4 21 2
;
_chemical_formula_sum "Si O2"
_cell_formula_units_Z 64
_cell_length_a 11.113357
_cell_length_b 11.113357
_cell_length_c 25.789361
_cell_angle_alpha 90.000000
_cell_angle_beta 90.000000
_cell_angle_gamma 90.000000
_cell_volume 3185.158970
_symmetry_space_group_name_H-M "P 4 21 2"
_symmetry_group_IT_number 90
_symmetry_cell_setting 'tetragonal'
loop_
_space_group_symop_operation_xyz
x,y,z
1/2-y,1/2+x,z
-x,-y,z
1/2+y,1/2-x,z
1/2+x,1/2-y,-z
1/2-x,1/2+y,-z
y,x,-z
-y,-x,-z
loop_
_atom_site_type_symbol
_atom_site_label
_atom_site_fract_x
_atom_site_fract_y
_atom_site_fract_z
Si Si1 0.202374 0.505584 0.948184
Si Si2 0.489609 0.645601 0.592547
Si Si3 0.021724 0.300090 0.068857
Si Si4 0.684375 0.907609 0.218588
Si Si5 0.213676 0.121987 0.330126
Si Si6 0.610644 0.421550 0.865705
Si Si7 0.012035 0.298878 0.506832
Si Si8 0.767074 0.099313 0.385237
O O1 0.119496 0.387596 0.939176
O O2 0.316219 0.508376 0.910870
O O3 0.238384 0.516746 0.008442
O O4 0.500000 0.500000 0.589806
O O5 0.398649 0.678913 0.638882
O O6 0.463842 0.699192 0.536336
O O7 0.624731 0.690025 0.603952
O O8 0.127969 0.397641 0.076342
O O9 0.048706 0.192253 0.107106
O O10 0.552173 0.845061 0.216262
O O11 0.748329 0.861033 0.271336
O O12 0.783340 0.885949 0.174078
O O13 0.330077 0.152317 0.365424
O O14 0.192155 0.980687 0.336983
O O15 0.500000 0.500000 0.843205
O O16 0.891136 0.378177 0.500864
O O17 0.984166 0.247697 0.564063
#
# Coordination Sequence:
#
# PCOD9547250 Si02
#       8
#     8   8   8   8   8   8   8   8
#     4   9  19  39  65  94 134 179 225 273 332 393
#     4  10  24  38  56  90 128 159 186 240 309 377
#     4   9  21  41  64  91 132 187 226 262 323 403
#     4  11  25  46  72  95 122 163 220 283 344 392
#     4  11  22  41  67  89 115 158 208 255 314 376
#     4  12  26  38  62 100 136 169 217 282 339 390
#     4  11  22  37  59  86 122 163 203 240 288 366
#     4  11  21  38  62  87 121 155 201 251 303 368
#
# _framework density 20.093191000000001
#
# number of rings (size 3 to 8) (size 9 to 14) (size 15 to 20)
#    0.000    1.500    2.500    3.000    3.500    7.250 
#    0.000    0.000    0.000    0.000    0.000    1.750 
#    0.000    0.000    0.000    0.000    0.000    0.000 
#
# Total GULP energy -356673.068166 kJ/mol
# GULP energy per Si atom -5573.016690 kJ/mol
# Density = 2.004746 g / cm^3
# Si number density = 20.093191 Si / 1000 Ang^3
#
#
#
# Elastic Constant Matrix: (Units=GPa)
#
#
# Indices 1 2 3 4 5 6 
#
# 1 58.5247 -3.1242 29.3638 0.0000 0.0000 0.0000
# 2 -3.1242 58.5247 29.3638 0.0000 0.0000 0.0000
# 3 29.3638 29.3638 83.7612 0.0000 0.0000 0.0000
# 4 0.0000 0.0000 0.0000 28.4517 0.0000 0.0000
# 5 0.0000 0.0000 0.0000 0.0000 28.4517 0.0000
# 6 0.0000 0.0000 0.0000 0.0000 0.0000 3.2330
#
#
#
# Elastic Compliance Matrix: (Units=1/GPa)
#
#
# Indices 1 2 3 4 5 6 
#
# 1 0.022473 0.006252 -0.010070 0.000000 0.000000 0.000000
# 2 0.006252 0.022473 -0.010070 0.000000 0.000000 0.000000
# 3 -0.010070 -0.010070 0.018999 0.000000 0.000000 0.000000
# 4 0.000000 0.000000 0.000000 0.035147 0.000000 0.000000
# 5 0.000000 0.000000 0.000000 0.000000 0.035147 0.000000
# 6 0.000000 0.000000 0.000000 0.000000 0.000000 0.309310
#
#
# Mechanical properties :
#
#
# Convention : Reuss Voigt Hill
#
# Bulk Modulus (GPa) = 27.64778 34.66860 31.15819
# Shear Modulus (GPa) = 10.34378 21.70777 16.02577
#
# Velocity S-wave (km/s) = 2.27136 3.29044 2.82720
# Velocity P-wave (km/s) = 4.54625 5.63270 5.11839
#
# Compressibility (1/GPa) = 0.03616927
#
# Stress axis : x y z
#
# Youngs Moduli (GPa) = 44.49776 44.49776 52.63398
#
# Poissons Ratio (x) = -0.27821 0.53003
# Poissons Ratio (y) = -0.27821 0.53003
# Poissons Ratio (z) = 0.44810 0.44810
#
# Static dielectric constant tensor:
#      x y z
#    x 1.756280 0.000000 0.000000 
#    y 0.000000 1.756280 0.000000 
#    z 0.000000 0.000000 1.739180 
# 
# From -- ./inp_files/2958.got.cif
#   From: 2010.05.17/outbox.cif.g08.bks.cpg/sg90_2_cif.got.tgz:2958.got - 2010.06.03 19:17:45.
