data_PCOD9547320
_publ_section_title
;
Structure prediction by ZEFSAII (Michael W. Deem and Ramdas Pophale) SiO2 
 PCOD9547320
Probable space group: P 4 21 2
;
_chemical_formula_sum "Si O2"
_cell_formula_units_Z 44
_cell_length_a 8.409600
_cell_length_b 8.409600
_cell_length_c 30.900384
_cell_angle_alpha 90.000000
_cell_angle_beta 90.000000
_cell_angle_gamma 90.000000
_cell_volume 2185.317557
_symmetry_space_group_name_H-M "P 4 21 2"
_symmetry_group_IT_number 90
_symmetry_cell_setting 'tetragonal'
loop_
_space_group_symop_operation_xyz
x,y,z
1/2-y,1/2+x,z
-x,-y,z
1/2+y,1/2-x,z
1/2+x,1/2-y,-z
1/2-x,1/2+y,-z
y,x,-z
-y,-x,-z
loop_
_atom_site_type_symbol
_atom_site_label
_atom_site_fract_x
_atom_site_fract_y
_atom_site_fract_z
Si Si1 0.736585 0.455350 0.534920
Si Si2 0.546542 0.262458 0.691363
Si Si3 0.913171 0.756701 0.121123
Si Si4 0.072099 0.240057 0.215813
Si Si5 0.500000 0.500000 0.386442
Si Si6 0.086951 0.245023 0.959335
O O1 0.825936 0.623003 0.530246
O O2 0.610231 0.389770 0.500000
O O3 0.647100 0.480634 0.580480
O O4 0.376570 0.176024 0.691164
O O5 0.583866 0.345315 0.737783
O O6 0.538844 0.361626 0.647895
O O7 0.806670 0.594738 0.117481
O O8 0.896436 0.834224 0.168951
O O9 0.853338 0.871689 0.083712
O O10 0.186760 0.394486 0.215706
O O11 0.194695 0.405654 0.960561
O O12 0.138466 0.138466 0.000000
#
# Coordination Sequence:
#
# PCOD9547320 Si02
#       6
#     8   8   8   8   4   8
#     4  11  24  42  63  87 120 162 209 261 314 370
#     4   9  18  33  53  78 111 150 189 232 283 344
#     4   9  17  32  56  82 106 136 178 227 276 328
#     4   7  12  27  50  75 104 138 178 223 269 323
#     4  12  21  34  56  88 120 150 193 246 304 360
#     4  11  24  39  54  76 107 141 179 226 280 341
#
# _framework density 20.134373
#
# number of rings (size 3 to 8) (size 9 to 14) (size 15 to 20)
#    0.000    2.364    0.000    5.727    0.000    4.000 
#    0.000    7.273    0.000    0.000    0.000    2.545 
#    0.000    0.000    0.000    0.000    0.000    0.000 
#
# Total GULP energy -244941.992679 kJ/mol
# GULP energy per Si atom -5566.863470 kJ/mol
# Density = 2.008855 g / cm^3
# Si number density = 20.134373 Si / 1000 Ang^3
#
#
#
# Elastic Constant Matrix: (Units=GPa)
#
#
# Indices 1 2 3 4 5 6 
#
# 1 41.6571 59.3095 63.6662 0.0000 0.0000 0.0000
# 2 59.3095 41.6545 63.6673 0.0000 0.0000 0.0000
# 3 63.6662 63.6673 208.0271 0.0000 0.0000 0.0000
# 4 0.0000 0.0000 0.0000 -5.2947 0.0000 0.0000
# 5 0.0000 0.0000 0.0000 0.0000 -5.2943 0.0000
# 6 0.0000 0.0000 0.0000 0.0000 0.0000 26.1559
#
#
#
# Elastic Compliance Matrix: (Units=1/GPa)
#
#
# Indices 1 2 3 4 5 6 
#
# 1 -0.020256 0.036388 -0.004937 0.000000 0.000000 0.000000
# 2 0.036388 -0.020259 -0.004936 0.000000 0.000000 0.000000
# 3 -0.004937 -0.004936 0.007829 0.000000 0.000000 0.000000
# 4 0.000000 0.000000 0.000000 -0.188868 0.000000 0.000000
# 5 0.000000 0.000000 0.000000 0.000000 -0.188883 0.000000
# 6 0.000000 0.000000 0.000000 0.000000 0.000000 0.038232
#
#
# Mechanical properties :
#
#
# Convention : Reuss Voigt Hill
#
# Bulk Modulus (GPa) = 49.15754 73.84720 61.50237
# Shear Modulus (GPa) = -11.94878 10.09309 -0.92785
#
# Velocity S-wave (km/s) = -2.43873 2.24137 -0.67958
# Velocity P-wave (km/s) = 4.06668 6.59205 5.47691
#
# Compressibility (1/GPa) = 0.02034276
#
# Stress axis : x y z
#
# Youngs Moduli (GPa) = -49.36818 -49.36095 127.73298
#
# Poissons Ratio (x) = 1.79614 0.63066
# Poissons Ratio (y) = 1.79640 0.63050
# Poissons Ratio (z) = -0.24375 -0.24365
#
# Static dielectric constant tensor:
#      x y z
#    x 1.858060 0.000000 0.000000 
#    y 0.000000 1.858060 0.000000 
#    z 0.000000 0.000000 1.751460 
# 
# From -- ./inp_files/3021.got.cif
#   From: 2010.05.17/outbox.cif.g08.bks.cpg/sg90_2_cif.got.tgz:3021.got - 2010.06.03 19:17:45.
