data_PCOD9547353
_publ_section_title
;
Structure prediction by ZEFSAII (Michael W. Deem and Ramdas Pophale) SiO2 
 PCOD9547353
Probable space group: P 4 21 2
;
_chemical_formula_sum "Si O2"
_cell_formula_units_Z 48
_cell_length_a 8.013430
_cell_length_b 8.013430
_cell_length_c 34.388286
_cell_angle_alpha 90.000000
_cell_angle_beta 90.000000
_cell_angle_gamma 90.000000
_cell_volume 2208.245861
_symmetry_space_group_name_H-M "P 4 21 2"
_symmetry_group_IT_number 90
_symmetry_cell_setting 'tetragonal'
loop_
_space_group_symop_operation_xyz
x,y,z
1/2-y,1/2+x,z
-x,-y,z
1/2+y,1/2-x,z
1/2+x,1/2-y,-z
1/2-x,1/2+y,-z
y,x,-z
-y,-x,-z
loop_
_atom_site_type_symbol
_atom_site_label
_atom_site_fract_x
_atom_site_fract_y
_atom_site_fract_z
Si Si1 0.735255 0.595099 0.039639
Si Si2 0.000000 0.000000 0.104016
Si Si3 0.597870 0.264427 0.668527
Si Si4 0.500000 0.500000 0.605264
Si Si5 0.236126 0.099410 0.754995
Si Si6 0.733693 0.588671 0.461133
Si Si7 0.411547 0.735600 0.167849
O O1 0.794359 0.402437 0.040941
O O2 0.610797 0.615354 0.075818
O O3 0.640943 0.640943 0.000000
O O4 0.892445 0.884413 0.132776
O O5 0.404552 0.204494 0.665567
O O6 0.617641 0.392768 0.633725
O O7 0.626767 0.335812 0.711762
O O8 0.604540 0.619177 0.576712
O O9 0.407421 0.205903 0.757680
O O10 0.122153 0.152248 0.790592
O O11 0.797339 0.398071 0.460513
O O12 0.634364 0.634364 0.500000
O O13 0.601910 0.796613 0.164905
#
# Coordination Sequence:
#
# PCOD9547353 Si02
#       7
#     8   4   8   4   8   8   8
#     4  11  24  43  68  95 124 162 208 259 317 382
#     4  12  23  41  62  88 126 166 208 253 307 378
#     4   9  20  38  60  88 122 164 214 262 311 372
#     4  12  21  33  60  92 124 160 202 255 317 368
#     4   9  19  38  62  86 117 163 216 262 308 367
#     4  11  24  43  66  92 126 169 218 267 319 385
#     4  11  24  39  59  89 124 163 207 259 316 370
#
# _framework density 21.736709999999999
#
# number of rings (size 3 to 8) (size 9 to 14) (size 15 to 20)
#    0.000    1.500    0.000    6.500    0.000    4.667 
#    0.000    3.333    0.000    4.500    0.000    0.000 
#    0.000    0.000    0.000    0.000    0.000    0.000 
#
# Total GULP energy -268594.773136 kJ/mol
# GULP energy per Si atom -5595.724440 kJ/mol
# Density = 2.168724 g / cm^3
# Si number density = 21.736710 Si / 1000 Ang^3
#
#
#
# Elastic Constant Matrix: (Units=GPa)
#
#
# Indices 1 2 3 4 5 6 
#
# 1 73.8957 16.1926 54.7136 0.0000 0.0000 0.0000
# 2 16.1926 73.8957 54.7136 0.0000 0.0000 0.0000
# 3 54.7136 54.7136 207.0615 0.0000 0.0000 0.0000
# 4 0.0000 0.0000 0.0000 33.6965 0.0000 0.0000
# 5 0.0000 0.0000 0.0000 0.0000 33.6965 0.0000
# 6 0.0000 0.0000 0.0000 0.0000 0.0000 28.4766
#
#
#
# Elastic Compliance Matrix: (Units=1/GPa)
#
#
# Indices 1 2 3 4 5 6 
#
# 1 0.016839 -0.000492 -0.004319 0.000000 0.000000 0.000000
# 2 -0.000492 0.016839 -0.004319 0.000000 0.000000 0.000000
# 3 -0.004319 -0.004319 0.007112 0.000000 0.000000 0.000000
# 4 0.000000 0.000000 0.000000 0.029677 0.000000 0.000000
# 5 0.000000 0.000000 0.000000 0.000000 0.029677 0.000000
# 6 0.000000 0.000000 0.000000 0.000000 0.000000 0.035117
#
#
# Mechanical properties :
#
#
# Convention : Reuss Voigt Hill
#
# Bulk Modulus (GPa) = 44.38888 67.34360 55.86624
# Shear Modulus (GPa) = 31.05019 34.45614 32.75316
#
# Velocity S-wave (km/s) = 3.78361 3.98572 3.88598
# Velocity P-wave (km/s) = 6.28912 7.22704 6.77433
#
# Compressibility (1/GPa) = 0.02252817
#
# Stress axis : x y z
#
# Youngs Moduli (GPa) = 59.38767 59.38767 140.60288
#
# Poissons Ratio (x) = 0.02919 0.60733
# Poissons Ratio (y) = 0.02919 0.60733
# Poissons Ratio (z) = 0.25652 0.25652
#
# Static dielectric constant tensor:
#      x y z
#    x 1.812000 0.000000 0.000000 
#    y 0.000000 1.812000 0.000000 
#    z 0.000000 0.000000 1.770360 
# 
# From -- ./inp_files/3098.got.cif
#   From: 2010.05.17/outbox.cif.g08.bks.cpg/sg90_2_cif.got.tgz:3098.got - 2010.06.03 19:17:45.
