data_PCOD9547509
_publ_section_title
;
Structure prediction by ZEFSAII (Michael W. Deem and Ramdas Pophale) SiO2 
 PCOD9547509
Probable space group: P 41 2 2
;
_chemical_formula_sum "Si O2"
_cell_formula_units_Z 48
_cell_length_a 24.608355
_cell_length_b 24.608355
_cell_length_c 5.003603
_cell_angle_alpha 90.000000
_cell_angle_beta 90.000000
_cell_angle_gamma 90.000000
_cell_volume 3030.037552
_symmetry_space_group_name_H-M "P 41 2 2"
_symmetry_group_IT_number 91
_symmetry_cell_setting 'tetragonal'
loop_
_space_group_symop_operation_xyz
x,y,z
-y,x,1/4+z
-x,-y,1/2+z
y,-x,3/4+z
x,-y,1/2-z
-x,y,-z
y,x,3/4-z
-y,-x,1/4-z
loop_
_atom_site_type_symbol
_atom_site_label
_atom_site_fract_x
_atom_site_fract_y
_atom_site_fract_z
Si Si1 0.432694 0.000000 0.250000
Si Si2 0.327265 0.760580 0.668975
Si Si3 0.000000 0.352272 0.000000
Si Si4 0.200372 0.500000 0.750000
Si Si5 0.883250 0.646258 0.424572
Si Si6 0.427856 0.114449 0.315712
Si Si7 0.500000 0.729834 0.000000
Si Si8 0.704808 0.382549 0.583956
O O1 0.461240 0.058265 0.270952
O O2 0.393202 0.000537 0.502147
O O3 0.270024 0.729977 0.625000
O O4 0.323895 0.825628 0.673343
O O5 0.366259 0.734185 0.442135
O O6 0.353726 0.742686 0.946650
O O7 0.940517 0.324561 0.002679
O O8 0.163044 0.539781 0.927814
O O9 0.236766 0.522751 0.507258
O O10 0.890284 0.624540 0.123940
O O11 0.878407 0.594836 0.633876
O O12 0.446753 0.700758 0.117898
O O13 0.647227 0.352774 0.625000
#
# Coordination Sequence:
#
# PCOD9547509 Si02
#       8
#     4   8   4   4   8   8   4   8
#     4   8  16  30  41  54  76 110 146 174 207 236
#     4  10  19  31  48  68  91 115 139 173 215 257
#     4   8  16  26  43  60  76 108 146 180 207 238
#     4  12  22  30  45  68  87 110 138 168 210 248
#     4  10  17  30  45  60  83 111 144 178 210 244
#     4  10  19  30  43  58  82 111 142 177 207 241
#     4  12  22  34  51  70  89 108 134 166 208 262
#     4  10  21  35  50  70  91 111 135 167 211 257
#
# _framework density 15.841388
#
# number of rings (size 3 to 8) (size 9 to 14) (size 15 to 20)
#    0.000    2.000    0.000    6.000    0.000    0.000 
#    0.000    5.833    0.000    0.000    0.000    4.667 
#    0.000    0.000    0.000    0.000    0.000    0.000 
#
# Total GULP energy -267316.516097 kJ/mol
# GULP energy per Si atom -5569.094085 kJ/mol
# Density = 1.580533 g / cm^3
# Si number density = 15.841388 Si / 1000 Ang^3
#
#
#
# Elastic Constant Matrix: (Units=GPa)
#
#
# Indices 1 2 3 4 5 6 
#
# 1 89.9956 41.9463 0.7909 0.0000 0.0000 0.0000
# 2 41.9463 89.9949 0.7905 0.0000 0.0000 0.0000
# 3 0.7909 0.7905 87.3408 0.0000 0.0000 0.0000
# 4 0.0000 0.0000 0.0000 15.7553 0.0000 0.0000
# 5 0.0000 0.0000 0.0000 0.0000 15.7566 0.0000
# 6 0.0000 0.0000 0.0000 0.0000 0.0000 448.6502
#
#
#
# Elastic Compliance Matrix: (Units=1/GPa)
#
#
# Indices 1 2 3 4 5 6 
#
# 1 0.014196 -0.006616 -0.000069 0.000000 0.000000 0.000000
# 2 -0.006616 0.014196 -0.000069 0.000000 0.000000 0.000000
# 3 -0.000069 -0.000069 0.011451 0.000000 0.000000 0.000000
# 4 0.000000 0.000000 0.000000 0.063471 0.000000 0.000000
# 5 0.000000 0.000000 0.000000 0.000000 0.063465 0.000000
# 6 0.000000 0.000000 0.000000 0.000000 0.000000 0.002229
#
#
# Mechanical properties :
#
#
# Convention : Reuss Voigt Hill
#
# Bulk Modulus (GPa) = 37.97079 39.37630 38.67354
# Shear Modulus (GPa) = 26.13791 110.95267 68.54529
#
# Velocity S-wave (km/s) = 4.06640 8.37805 6.58511
# Velocity P-wave (km/s) = 6.78740 10.88575 9.07107
#
# Compressibility (1/GPa) = 0.02633603
#
# Stress axis : x y z
#
# Youngs Moduli (GPa) = 70.44255 70.44203 87.33131
#
# Poissons Ratio (x) = 0.46605 0.00600
# Poissons Ratio (y) = 0.46605 0.00599
# Poissons Ratio (z) = 0.00484 0.00483
#
# Static dielectric constant tensor:
#      x y z
#    x 1.587960 0.000000 0.000000 
#    y 0.000000 1.587970 0.000000 
#    z 0.000000 0.000000 1.555640 
# 
# From -- ./inp_files/14569.got.cif
#   From: 2010.05.17/outbox.cif.g08.bks.cpg/sg91_8_cif.got.tgz:14569.got - 2010.06.03 19:20:03.
