data_PCOD9547675
_publ_section_title
;
Structure prediction by ZEFSAII (Michael W. Deem and Ramdas Pophale) SiO2 
 PCOD9547675
Probable space group: P 41 2 2
;
_chemical_formula_sum "Si O2"
_cell_formula_units_Z 52
_cell_length_a 17.940432
_cell_length_b 17.940432
_cell_length_c 9.018934
_cell_angle_alpha 90.000000
_cell_angle_beta 90.000000
_cell_angle_gamma 90.000000
_cell_volume 2902.825983
_symmetry_space_group_name_H-M "P 41 2 2"
_symmetry_group_IT_number 91
_symmetry_cell_setting 'tetragonal'
loop_
_space_group_symop_operation_xyz
x,y,z
-y,x,1/4+z
-x,-y,1/2+z
y,-x,3/4+z
x,-y,1/2-z
-x,y,-z
y,x,3/4-z
-y,-x,1/4-z
loop_
_atom_site_type_symbol
_atom_site_label
_atom_site_fract_x
_atom_site_fract_y
_atom_site_fract_z
Si Si1 0.822766 0.468016 0.018011
Si Si2 0.266482 0.737888 0.945582
Si Si3 0.364143 0.133552 0.208905
Si Si4 0.500000 0.590658 0.000000
Si Si5 0.582243 0.032712 0.043273
Si Si6 0.330270 0.601283 0.489859
Si Si7 0.881287 0.356129 0.801561
O O1 0.822573 0.556647 0.034712
O O2 0.893341 0.437321 0.111695
O O3 0.743238 0.435448 0.061811
O O4 0.837488 0.429817 0.858192
O O5 0.185123 0.705015 0.913250
O O6 0.321350 0.692533 0.838077
O O7 0.288047 0.824509 0.913802
O O8 0.276749 0.723252 0.125000
O O9 0.353510 0.109289 0.376529
O O10 0.377519 0.065573 0.100054
O O11 0.456960 0.543041 0.125000
O O12 0.553145 0.640527 0.102635
O O13 0.631536 0.965511 0.107084
O O14 0.500000 0.000969 0.000000
O O15 0.387124 0.612877 0.625000
#
# Coordination Sequence:
#
# PCOD9547675 Si02
#       7
#     8   8   8   4   8   8   8
#     4  10  21  32  52  76 101 134 175 220 273 336
#     4   9  20  35  53  75 104 146 184 226 272 336
#     4  10  19  32  51  74 102 136 181 221 269 326
#     4  12  28  46  60  78 100 136 192 250 298 324
#     4  10  19  32  48  77 106 138 173 225 277 333
#     4  11  24  39  58  78 102 138 181 235 289 333
#     4  10  19  31  50  73 105 139 178 217 272 334
#
# _framework density 17.913578000000001
#
# number of rings (size 3 to 8) (size 9 to 14) (size 15 to 20)
#    0.000    1.846    0.000    4.154    8.615    2.462 
#    0.000    0.000    0.000    0.000    0.000    0.000 
#    0.000    0.000    0.000   76.154    0.000    3.385 
#
# Total GULP energy -289706.439684 kJ/mol
# GULP energy per Si atom -5571.277686 kJ/mol
# Density = 1.787281 g / cm^3
# Si number density = 17.913578 Si / 1000 Ang^3
#
#
#
# Elastic Constant Matrix: (Units=GPa)
#
#
# Indices 1 2 3 4 5 6 
#
# 1 82.5443 58.9047 30.2447 0.0000 0.0000 0.0000
# 2 58.9047 82.5464 30.2441 0.0000 0.0000 0.0000
# 3 30.2447 30.2441 60.0793 0.0000 0.0000 0.0000
# 4 0.0000 0.0000 0.0000 22.0418 0.0000 0.0000
# 5 0.0000 0.0000 0.0000 0.0000 22.0414 0.0000
# 6 0.0000 0.0000 0.0000 0.0000 0.0000 17.3158
#
#
#
# Elastic Compliance Matrix: (Units=1/GPa)
#
#
# Indices 1 2 3 4 5 6 
#
# 1 0.025655 -0.016645 -0.004536 0.000000 0.000000 0.000000
# 2 -0.016645 0.025654 -0.004535 0.000000 0.000000 0.000000
# 3 -0.004536 -0.004535 0.021211 0.000000 0.000000 0.000000
# 4 0.000000 0.000000 0.000000 0.045368 0.000000 0.000000
# 5 0.000000 0.000000 0.000000 0.000000 0.045369 0.000000
# 6 0.000000 0.000000 0.000000 0.000000 0.000000 0.057751
#
#
# Mechanical properties :
#
#
# Convention : Reuss Voigt Hill
#
# Bulk Modulus (GPa) = 47.42035 51.55078 49.48556
# Shear Modulus (GPa) = 17.89107 19.33158 18.61133
#
# Velocity S-wave (km/s) = 3.16372 3.28862 3.22677
# Velocity P-wave (km/s) = 6.31464 6.57723 6.44727
#
# Compressibility (1/GPa) = 0.02108799
#
# Stress axis : x y z
#
# Youngs Moduli (GPa) = 38.97877 38.98027 47.14580
#
# Poissons Ratio (x) = 0.64884 0.21384
# Poissons Ratio (y) = 0.64882 0.21380
# Poissons Ratio (z) = 0.17679 0.17677
#
# Static dielectric constant tensor:
#      x y z
#    x 1.634130 0.000000 0.000000 
#    y 0.000000 1.634140 0.000000 
#    z 0.000000 0.000000 1.833110 
# 
# From -- ./inp_files/10004.got.cif
#   From: 2010.05.17/outbox.cif.g08.bks.cpg/sg91_6_cif.got.tgz:10004.got - 2010.06.03 19:20:03.
