data_PCOD9547694
_publ_section_title
;
Structure prediction by ZEFSAII (Michael W. Deem and Ramdas Pophale) SiO2 
 PCOD9547694
Probable space group: P 41 2 2
;
_chemical_formula_sum "Si O2"
_cell_formula_units_Z 64
_cell_length_a 16.913466
_cell_length_b 16.913466
_cell_length_c 10.974921
_cell_angle_alpha 90.000000
_cell_angle_beta 90.000000
_cell_angle_gamma 90.000000
_cell_volume 3139.544421
_symmetry_space_group_name_H-M "P 41 2 2"
_symmetry_group_IT_number 91
_symmetry_cell_setting 'tetragonal'
loop_
_space_group_symop_operation_xyz
x,y,z
-y,x,1/4+z
-x,-y,1/2+z
y,-x,3/4+z
x,-y,1/2-z
-x,y,-z
y,x,3/4-z
-y,-x,1/4-z
loop_
_atom_site_type_symbol
_atom_site_label
_atom_site_fract_x
_atom_site_fract_y
_atom_site_fract_z
Si Si1 0.518247 0.699725 0.652749
Si Si2 0.703308 0.182817 0.359721
Si Si3 0.976761 0.126548 0.701748
Si Si4 0.805163 0.665573 0.102985
Si Si5 0.739538 0.124443 0.620663
Si Si6 0.533361 0.398766 0.377853
Si Si7 0.852792 0.911290 0.207563
Si Si8 0.776429 0.358300 0.134343
O O1 0.581180 0.767833 0.678327
O O2 0.566749 0.620960 0.613823
O O3 0.479604 0.663928 0.774074
O O4 0.441319 0.734037 0.584763
O O5 0.733420 0.270218 0.396323
O O6 0.694315 0.137442 0.490080
O O7 0.777076 0.143254 0.286886
O O8 0.638669 0.186033 0.251576
O O9 0.950390 0.049611 0.625000
O O10 0.955242 0.207944 0.634468
O O11 0.917198 0.127481 0.814482
O O12 0.064581 0.122491 0.754559
O O13 0.829796 0.661891 0.246492
O O14 0.864643 0.691352 0.995916
O O15 0.805011 0.194990 0.625000
O O16 0.500000 0.358595 0.500000
O O17 0.474178 0.474178 0.375000
O O18 0.836659 0.000000 0.250000
O O19 0.709543 0.290458 0.125000
#
# Coordination Sequence:
#
# PCOD9547694 Si02
#       8
#     8   8   8   8   8   8   8   8
#     4  11  20  32  50  74 106 144 191 246 297 347
#     4   9  20  36  52  75 110 148 188 230 275 332
#     4  10  19  32  51  79 116 153 186 221 271 335
#     4  10  20  32  50  71  98 141 192 234 275 329
#     4   8  17  34  51  69 102 148 190 229 268 324
#     4   9  19  30  43  69 105 143 183 234 303 368
#     4  11  21  33  54  86 119 150 182 224 279 343
#     4  10  20  33  51  75 105 145 187 236 294 350
#
# _framework density 20.385124999999999
#
# number of rings (size 3 to 8) (size 9 to 14) (size 15 to 20)
#    0.000    2.250    0.000    4.500    0.000   10.500 
#    0.000    0.000    0.000    0.000    0.000    1.750 
#    0.000    2.000    0.000    0.000    0.000    0.000 
#
# Total GULP energy -356435.147932 kJ/mol
# GULP energy per Si atom -5569.299186 kJ/mol
# Density = 2.033873 g / cm^3
# Si number density = 20.385125 Si / 1000 Ang^3
#
#
#
# Elastic Constant Matrix: (Units=GPa)
#
#
# Indices 1 2 3 4 5 6 
#
# 1 44.5173 35.7780 24.3204 0.0000 0.0000 0.0000
# 2 35.7780 44.5172 24.3204 0.0000 0.0000 0.0000
# 3 24.3204 24.3204 112.5926 0.0000 0.0000 0.0000
# 4 0.0000 0.0000 0.0000 24.3731 0.0000 0.0000
# 5 0.0000 0.0000 0.0000 0.0000 24.3730 0.0000
# 6 0.0000 0.0000 0.0000 0.0000 0.0000 23.5284
#
#
#
# Elastic Compliance Matrix: (Units=1/GPa)
#
#
# Indices 1 2 3 4 5 6 
#
# 1 0.064378 -0.050049 -0.003095 0.000000 0.000000 0.000000
# 2 -0.050049 0.064378 -0.003095 0.000000 0.000000 0.000000
# 3 -0.003095 -0.003095 0.010219 0.000000 0.000000 0.000000
# 4 0.000000 0.000000 0.000000 0.041029 0.000000 0.000000
# 5 0.000000 0.000000 0.000000 0.000000 0.041029 0.000000
# 6 0.000000 0.000000 0.000000 0.000000 0.000000 0.042502
#
#
# Mechanical properties :
#
#
# Convention : Reuss Voigt Hill
#
# Bulk Modulus (GPa) = 37.74128 41.16275 39.45201
# Shear Modulus (GPa) = 12.99228 22.26879 17.63053
#
# Velocity S-wave (km/s) = 2.52730 3.30874 2.94406
# Velocity P-wave (km/s) = 5.20295 5.90198 5.56345
#
# Compressibility (1/GPa) = 0.02649619
#
# Stress axis : x y z
#
# Youngs Moduli (GPa) = 15.53334 15.53328 97.85999
#
# Poissons Ratio (x) = 0.77742 0.30288
# Poissons Ratio (y) = 0.77743 0.30289
# Poissons Ratio (z) = 0.04808 0.04808
#
# Static dielectric constant tensor:
#      x y z
#    x 1.729440 0.000000 0.000000 
#    y 0.000000 1.729430 0.000000 
#    z 0.000000 0.000000 1.821980 
# 
# From -- ./inp_files/20421.got.cif
#   From: 2010.05.17/outbox.cif.g08.bks.cpg/sg91_11_cif.got.tgz:20421.got - 2010.06.03 19:20:03.
