data_PCOD9547015
_publ_section_title
;
Structure prediction by ZEFSAII (Michael W. Deem and Ramdas Pophale) SiO2 
 PCOD9547015
Probable space group: P 4 2 2
;
_chemical_formula_sum "Si O2"
_cell_formula_units_Z 48
_cell_length_a 11.339039
_cell_length_b 11.339039
_cell_length_c 19.405425
_cell_angle_alpha 90.000000
_cell_angle_beta 90.000000
_cell_angle_gamma 90.000000
_cell_volume 2495.029338
_symmetry_space_group_name_H-M "P 4 2 2"
_symmetry_group_IT_number 89
_symmetry_cell_setting 'tetragonal'
loop_
_space_group_symop_operation_xyz
x,y,z
-y,x,z
-x,-y,z
y,-x,z
x,-y,-z
-x,y,-z
y,x,-z
-y,-x,-z
loop_
_atom_site_type_symbol
_atom_site_label
_atom_site_fract_x
_atom_site_fract_y
_atom_site_fract_z
Si Si1 0.809779 0.044131 0.274669
Si Si2 0.802332 0.487259 0.424355
Si Si3 0.572314 0.113919 0.193365
Si Si4 0.311346 0.492895 0.715917
Si Si5 0.301971 0.995332 0.422131
Si Si6 0.526111 0.695258 0.920778
O O1 0.696590 0.079294 0.228673
O O2 0.914214 0.137347 0.260470
O O3 0.776644 0.038026 0.356348
O O4 0.749759 0.500000 0.500000
O O5 0.707224 0.495656 0.365272
O O6 0.878561 0.367792 0.413495
O O7 0.897703 0.593660 0.421867
O O8 0.497983 0.183738 0.251327
O O9 0.566391 0.199418 0.127866
O O10 0.500000 0.000000 0.174184
O O11 0.390111 0.382469 0.737095
O O12 0.249245 0.000000 0.500000
O O13 0.403991 0.625856 0.907739
O O14 0.500000 0.731929 0.000000
#
# Coordination Sequence:
#
# PCOD9547015 Si02
#       6
#     8   8   8   8   8   8
#     4  11  26  42  57  87 128 167 217 272 317 374
#     4   9  18  33  54  81 113 150 196 255 326 393
#     4  12  25  38  67  93 127 168 208 254 312 379
#     4  11  24  38  56  86 120 155 204 261 320 387
#     4   9  18  35  59  82 111 158 214 274 330 378
#     4   9  20  42  72 106 140 167 201 256 311 366
#
# _framework density 19.238251000000002
#
# number of rings (size 3 to 8) (size 9 to 14) (size 15 to 20)
#    0.000    1.833    1.667    3.500    7.000    3.000 
#    0.000    5.000    0.000    0.000    0.000    0.000 
#    0.000    0.000    0.000    0.000    0.000    0.000 
#
# Total GULP energy -267763.710502 kJ/mol
# GULP energy per Si atom -5578.410635 kJ/mol
# Density = 1.919446 g / cm^3
# Si number density = 19.238251 Si / 1000 Ang^3
#
#
#
# Elastic Constant Matrix: (Units=GPa)
#
#
# Indices 1 2 3 4 5 6 
#
# 1 70.7906 31.8410 54.9034 0.0000 0.0000 0.0000
# 2 31.8410 70.7906 54.9034 0.0000 0.0000 0.0000
# 3 54.9034 54.9034 126.7771 0.0000 0.0000 0.0000
# 4 0.0000 0.0000 0.0000 55.9007 0.0000 0.0000
# 5 0.0000 0.0000 0.0000 0.0000 55.9007 0.0000
# 6 0.0000 0.0000 0.0000 0.0000 0.0000 11.2919
#
#
#
# Elastic Compliance Matrix: (Units=1/GPa)
#
#
# Indices 1 2 3 4 5 6 
#
# 1 0.021915 -0.003759 -0.007863 0.000000 0.000000 0.000000
# 2 -0.003759 0.021915 -0.007863 0.000000 0.000000 0.000000
# 3 -0.007863 -0.007863 0.014698 0.000000 0.000000 0.000000
# 4 0.000000 0.000000 0.000000 0.017889 0.000000 0.000000
# 5 0.000000 0.000000 0.000000 0.000000 0.017889 0.000000
# 6 0.000000 0.000000 0.000000 0.000000 0.000000 0.088559
#
#
# Mechanical properties :
#
#
# Convention : Reuss Voigt Hill
#
# Bulk Modulus (GPa) = 51.12735 61.29489 56.21112
# Shear Modulus (GPa) = 21.89576 33.06603 27.48090
#
# Velocity S-wave (km/s) = 3.37729 4.15030 3.78359
# Velocity P-wave (km/s) = 6.46851 7.40923 6.95480
#
# Compressibility (1/GPa) = 0.01955900
#
# Stress axis : x y z
#
# Youngs Moduli (GPa) = 45.63042 45.63042 68.03532
#
# Poissons Ratio (x) = 0.17152 0.53496
# Poissons Ratio (y) = 0.17152 0.53496
# Poissons Ratio (z) = 0.35879 0.35879
#
# Static dielectric constant tensor:
#      x y z
#    x 1.663520 0.000000 0.000000 
#    y 0.000000 1.663520 0.000000 
#    z 0.000000 0.000000 1.707890 
# 
# From -- ./inp_files/2418.got.cif
#   From: 2010.05.17/outbox.cif.g08.bks.cpg/sg89_2_cif.got.tgz:2418.got - 2010.06.03 19:15:31.
