data_PCOD9547886
_publ_section_title
;
Structure prediction by ZEFSAII (Michael W. Deem and Ramdas Pophale) SiO2 
 PCOD9547886
Probable space group: P 41 2 2
;
_chemical_formula_sum "Si O2"
_cell_formula_units_Z 40
_cell_length_a 14.282862
_cell_length_b 14.282862
_cell_length_c 8.802607
_cell_angle_alpha 90.000000
_cell_angle_beta 90.000000
_cell_angle_gamma 90.000000
_cell_volume 1795.733121
_symmetry_space_group_name_H-M "P 41 2 2"
_symmetry_group_IT_number 91
_symmetry_cell_setting 'tetragonal'
loop_
_space_group_symop_operation_xyz
x,y,z
-y,x,1/4+z
-x,-y,1/2+z
y,-x,3/4+z
x,-y,1/2-z
-x,y,-z
y,x,3/4-z
-y,-x,1/4-z
loop_
_atom_site_type_symbol
_atom_site_label
_atom_site_fract_x
_atom_site_fract_y
_atom_site_fract_z
Si Si1 0.897462 0.772657 0.985812
Si Si2 0.385723 0.250532 0.678657
Si Si3 0.667942 0.858228 0.480203
Si Si4 0.715044 0.440186 0.389629
Si Si5 0.610765 0.938773 0.994703
O O1 0.829870 0.829870 0.875000
O O2 0.919932 0.671972 0.906846
O O3 0.855579 0.756071 0.154322
O O4 0.000000 0.818897 0.000000
O O5 0.492186 0.281004 0.717295
O O6 0.584589 0.179372 0.911145
O O7 0.380205 0.159568 0.577741
O O8 0.342697 0.211013 0.837736
O O9 0.659671 0.664649 0.643445
O O10 0.655107 0.966264 0.436465
O O11 0.671625 0.500000 0.250000
O O12 0.500000 0.957800 0.000000
#
# Coordination Sequence:
#
# PCOD9547886 Si02
#       5
#     8   8   8   8   8
#     4  10  22  40  64  93 128 167 208 262 325 387
#     4  11  22  38  61  88 124 167 215 264 315 381
#     4  10  20  36  61  90 122 159 204 262 325 383
#     4  10  20  36  58  84 116 161 206 253 306 364
#     4  11  22  36  59  95 130 164 208 265 332 389
#
# _framework density 22.275026
#
# number of rings (size 3 to 8) (size 9 to 14) (size 15 to 20)
#    0.000    1.600    0.000    7.200    0.000    3.200 
#    0.000    3.000    0.000   16.800    0.000    0.000 
#    0.000    0.000    0.000    0.000    0.000    0.000 
#
# Total GULP energy -223085.762374 kJ/mol
# GULP energy per Si atom -5577.144059 kJ/mol
# Density = 2.222433 g / cm^3
# Si number density = 22.275026 Si / 1000 Ang^3
#
#
#
# Elastic Constant Matrix: (Units=GPa)
#
#
# Indices 1 2 3 4 5 6 
#
# 1 120.0319 71.7514 47.5879 0.0000 0.0000 0.0000
# 2 71.7514 120.0319 47.5879 0.0000 0.0000 0.0000
# 3 47.5879 47.5879 72.9428 0.0000 0.0000 0.0000
# 4 0.0000 0.0000 0.0000 30.4670 0.0000 0.0000
# 5 0.0000 0.0000 0.0000 0.0000 30.4670 0.0000
# 6 0.0000 0.0000 0.0000 0.0000 0.0000 57.4557
#
#
#
# Elastic Compliance Matrix: (Units=1/GPa)
#
#
# Indices 1 2 3 4 5 6 
#
# 1 0.014211 -0.006501 -0.005030 0.000000 0.000000 0.000000
# 2 -0.006501 0.014211 -0.005030 0.000000 0.000000 0.000000
# 3 -0.005030 -0.005030 0.020273 0.000000 0.000000 0.000000
# 4 0.000000 0.000000 0.000000 0.032822 0.000000 0.000000
# 5 0.000000 0.000000 0.000000 0.000000 0.032822 0.000000
# 6 0.000000 0.000000 0.000000 0.000000 0.000000 0.017405
#
#
# Mechanical properties :
#
#
# Convention : Reuss Voigt Hill
#
# Bulk Modulus (GPa) = 64.21509 71.87343 68.04426
# Shear Modulus (GPa) = 29.40144 33.41659 31.40901
#
# Velocity S-wave (km/s) = 3.63702 3.87742 3.75914
# Velocity P-wave (km/s) = 6.82115 7.23756 7.03244
#
# Compressibility (1/GPa) = 0.01557266
#
# Stress axis : x y z
#
# Youngs Moduli (GPa) = 70.36571 70.36571 49.32651
#
# Poissons Ratio (x) = 0.45743 0.24813
# Poissons Ratio (y) = 0.45743 0.24813
# Poissons Ratio (z) = 0.35397 0.35397
#
# Static dielectric constant tensor:
#      x y z
#    x 1.853430 0.000000 0.000000 
#    y 0.000000 1.853430 0.000000 
#    z 0.000000 0.000000 1.949300 
# 
# From -- ./inp_files/19392.got.cif
#   From: 2010.05.17/outbox.cif.g08.bks.cpg/sg91_10_cif.got.tgz:19392.got - 2010.06.03 19:20:03.
