data_PCOD9547560
_publ_section_title
;
Structure prediction by ZEFSAII (Michael W. Deem and Ramdas Pophale) SiO2 
 PCOD9547560
Probable space group: P 41 2 2
;
_chemical_formula_sum "Si O2"
_cell_formula_units_Z 40
_cell_length_a 11.408996
_cell_length_b 11.408996
_cell_length_c 14.080148
_cell_angle_alpha 90.000000
_cell_angle_beta 90.000000
_cell_angle_gamma 90.000000
_cell_volume 1832.745136
_symmetry_space_group_name_H-M "P 41 2 2"
_symmetry_group_IT_number 91
_symmetry_cell_setting 'tetragonal'
loop_
_space_group_symop_operation_xyz
x,y,z
-y,x,1/4+z
-x,-y,1/2+z
y,-x,3/4+z
x,-y,1/2-z
-x,y,-z
y,x,3/4-z
-y,-x,1/4-z
loop_
_atom_site_type_symbol
_atom_site_label
_atom_site_fract_x
_atom_site_fract_y
_atom_site_fract_z
Si Si1 0.762901 0.237100 0.125000
Si Si2 0.373858 0.357404 0.031109
Si Si3 0.266647 0.203605 0.567843
Si Si4 0.866808 0.082504 0.966530
Si Si5 0.163275 0.836726 0.125000
Si Si6 0.601651 0.398350 0.625000
Si Si7 0.500000 0.194629 0.500000
O O1 0.663317 0.272246 0.202690
O O2 0.872149 0.215644 0.197299
O O3 0.322500 0.300122 0.126645
O O4 0.398043 0.492572 0.053233
O O5 0.500000 0.305954 0.000000
O O6 0.184606 0.131230 0.638274
O O7 0.196371 0.230616 0.471145
O O8 0.390631 0.135688 0.551791
O O9 0.820237 0.969078 0.911591
O O10 0.000000 0.058910 0.000000
O O11 0.573660 0.279461 0.569466
#
# Coordination Sequence:
#
# PCOD9547560 Si02
#       7
#     4   8   8   8   4   4   4
#     4  10  22  36  61  99 134 160 220 298 360 396
#     4  10  20  36  59  94 133 178 228 278 322 407
#     4  10  23  37  62 101 139 170 221 287 353 399
#     4  11  22  42  72  97 122 171 236 305 339 398
#     4  12  22  42  71 103 128 174 250 304 346 394
#     4  10  18  30  58  88 120 172 242 266 302 374
#     4  10  20  36  56  92 134 178 208 280 324 412
#
# _framework density 21.825185999999999
#
# number of rings (size 3 to 8) (size 9 to 14) (size 15 to 20)
#    0.000    1.600    1.000    4.800    2.800    0.000 
#    3.600    0.000   19.800    1.200    0.000    0.000 
#    0.000    0.000    0.000    0.000    0.000    0.000 
#
# Total GULP energy -222714.223530 kJ/mol
# GULP energy per Si atom -5567.855588 kJ/mol
# Density = 2.177551 g / cm^3
# Si number density = 21.825186 Si / 1000 Ang^3
#
#
#
# Elastic Constant Matrix: (Units=GPa)
#
#
# Indices 1 2 3 4 5 6 
#
# 1 67.0017 33.7150 38.2111 0.0000 0.0000 0.0000
# 2 33.7150 67.0018 38.2115 0.0000 0.0000 0.0000
# 3 38.2111 38.2115 141.4317 0.0000 0.0000 0.0000
# 4 0.0000 0.0000 0.0000 45.1571 0.0000 0.0000
# 5 0.0000 0.0000 0.0000 0.0000 45.1570 0.0000
# 6 0.0000 0.0000 0.0000 0.0000 0.0000 28.3955
#
#
#
# Elastic Compliance Matrix: (Units=1/GPa)
#
#
# Indices 1 2 3 4 5 6 
#
# 1 0.021266 -0.008776 -0.003374 0.000000 0.000000 0.000000
# 2 -0.008776 0.021266 -0.003374 0.000000 0.000000 0.000000
# 3 -0.003374 -0.003374 0.008894 0.000000 0.000000 0.000000
# 4 0.000000 0.000000 0.000000 0.022145 0.000000 0.000000
# 5 0.000000 0.000000 0.000000 0.000000 0.022145 0.000000
# 6 0.000000 0.000000 0.000000 0.000000 0.000000 0.035217
#
#
# Mechanical properties :
#
#
# Convention : Reuss Voigt Hill
#
# Bulk Modulus (GPa) = 49.07938 55.07892 52.07915
# Shear Modulus (GPa) = 29.62554 34.76175 32.19364
#
# Velocity S-wave (km/s) = 3.68829 3.99524 3.84483
# Velocity P-wave (km/s) = 6.37764 6.82450 6.60485
#
# Compressibility (1/GPa) = 0.02037515
#
# Stress axis : x y z
#
# Youngs Moduli (GPa) = 47.02438 47.02428 112.43746
#
# Poissons Ratio (x) = 0.41270 0.37939
# Poissons Ratio (y) = 0.41270 0.37940
# Poissons Ratio (z) = 0.15867 0.15867
#
# Static dielectric constant tensor:
#      x y z
#    x 1.853520 0.000000 0.000000 
#    y 0.000000 1.853530 0.000000 
#    z 0.000000 0.000000 2.019730 
# 
# From -- ./inp_files/4858.got.cif
#   From: 2010.05.17/outbox.cif.g08.bks.cpg/sg91_3_cif.got.tgz:4858.got - 2010.06.03 19:20:03.
