data_PCOD9547078
_publ_section_title
;
Structure prediction by ZEFSAII (Michael W. Deem and Ramdas Pophale) SiO2 
 PCOD9547078
Probable space group: P 4 21 2
;
_chemical_formula_sum "Si O2"
_cell_formula_units_Z 34
_cell_length_a 14.204246
_cell_length_b 14.204246
_cell_length_c 6.864391
_cell_angle_alpha 90.000000
_cell_angle_beta 90.000000
_cell_angle_gamma 90.000000
_cell_volume 1384.963677
_symmetry_space_group_name_H-M "P 4 21 2"
_symmetry_group_IT_number 90
_symmetry_cell_setting 'tetragonal'
loop_
_space_group_symop_operation_xyz
x,y,z
1/2-y,1/2+x,z
-x,-y,z
1/2+y,1/2-x,z
1/2+x,1/2-y,-z
1/2-x,1/2+y,-z
y,x,-z
-y,-x,-z
loop_
_atom_site_type_symbol
_atom_site_label
_atom_site_fract_x
_atom_site_fract_y
_atom_site_fract_z
Si Si1 0.348737 0.537014 0.366822
Si Si2 0.100874 0.378855 0.057863
Si Si3 0.174199 0.174199 0.000000
Si Si4 0.836818 0.163183 0.500000
Si Si5 0.160604 0.623520 0.517239
Si Si6 0.000000 0.500000 0.684048
O O1 0.434677 0.565324 0.500000
O O2 0.343815 0.424235 0.350096
O O3 0.260774 0.573714 0.496178
O O4 0.348696 0.600805 0.173913
O O5 0.127608 0.488016 0.017730
O O6 0.117398 0.374850 0.292787
O O7 0.153803 0.286471 0.973856
O O8 0.839570 0.268554 0.581461
O O9 0.093365 0.565646 0.652814
#
# Coordination Sequence:
#
# PCOD9547078 Si02
#       6
#     8   8   4   4   8   2
#     4  11  24  45  67 103 154 194 250 315 383 466
#     4  10  18  39  73 108 149 197 254 324 394 462
#     4  10  24  44  73 109 150 202 258 316 390 476
#     4  12  23  40  72 107 152 206 250 320 396 475
#     4  11  19  35  71 108 143 195 253 314 397 463
#     4  12  16  36  68 116 142 184 260 322 384 456
#
# _framework density 24.549382999999999
#
# number of rings (size 3 to 8) (size 9 to 14) (size 15 to 20)
#    0.000    1.176    5.882    1.765    0.000    0.000 
#    8.471    2.353    0.000    0.000    0.000    0.000 
#    0.000    0.000    0.000    0.000    0.000    0.000 
#
# Total GULP energy -189587.009799 kJ/mol
# GULP energy per Si atom -5576.088523 kJ/mol
# Density = 2.449351 g / cm^3
# Si number density = 24.549383 Si / 1000 Ang^3
#
#
#
# Elastic Constant Matrix: (Units=GPa)
#
#
# Indices 1 2 3 4 5 6 
#
# 1 242.6901 84.0012 59.0500 0.0000 0.0000 0.0000
# 2 84.0012 242.6949 59.0481 0.0000 0.0000 0.0000
# 3 59.0500 59.0481 97.8670 0.0000 0.0000 0.0000
# 4 0.0000 0.0000 0.0000 -17.6992 0.0000 0.0000
# 5 0.0000 0.0000 0.0000 0.0000 -17.6689 0.0000
# 6 0.0000 0.0000 0.0000 0.0000 0.0000 57.6562
#
#
#
# Elastic Compliance Matrix: (Units=1/GPa)
#
#
# Indices 1 2 3 4 5 6 
#
# 1 0.005108 -0.001193 -0.002362 0.000000 0.000000 0.000000
# 2 -0.001193 0.005108 -0.002362 0.000000 0.000000 0.000000
# 3 -0.002362 -0.002362 0.013068 0.000000 0.000000 0.000000
# 4 0.000000 0.000000 0.000000 -0.056500 0.000000 0.000000
# 5 0.000000 0.000000 0.000000 0.000000 -0.056597 0.000000
# 6 0.000000 0.000000 0.000000 0.000000 0.000000 0.017344
#
#
# Mechanical properties :
#
#
# Convention : Reuss Voigt Hill
#
# Bulk Modulus (GPa) = 87.33820 109.71671 98.52745
# Shear Modulus (GPa) = -88.00350 29.86780 -29.06785
#
# Velocity S-wave (km/s) = -5.99378 3.49182 -3.44474
# Velocity P-wave (km/s) = 3.49953 7.81322 4.93962
#
# Compressibility (1/GPa) = 0.01144974
#
# Stress axis : x y z
#
# Youngs Moduli (GPa) = 195.76059 195.76726 76.52108
#
# Poissons Ratio (x) = 0.23362 0.18076
# Poissons Ratio (y) = 0.23361 0.18074
# Poissons Ratio (z) = 0.46242 0.46239
#
# Static dielectric constant tensor:
#      x y z
#    x 2.140180 0.000000 0.000000 
#    y 0.000000 2.140010 0.000000 
#    z 0.000000 0.000000 2.083820 
# 
# From -- ./inp_files/1134.got.cif
#   From: 2010.05.17/outbox.cif.g08.bks.cpg/sg90_1_cif.got.tgz:1134.got - 2010.06.03 19:17:45.
