data_PCOD9547728
_publ_section_title
;
Structure prediction by ZEFSAII (Michael W. Deem and Ramdas Pophale) SiO2 
 PCOD9547728
Probable space group: P 41 2 2
;
_chemical_formula_sum "Si O2"
_cell_formula_units_Z 64
_cell_length_a 11.873998
_cell_length_b 11.873998
_cell_length_c 22.846991
_cell_angle_alpha 90.000000
_cell_angle_beta 90.000000
_cell_angle_gamma 90.000000
_cell_volume 3221.239037
_symmetry_space_group_name_H-M "P 41 2 2"
_symmetry_group_IT_number 91
_symmetry_cell_setting 'tetragonal'
loop_
_space_group_symop_operation_xyz
x,y,z
-y,x,1/4+z
-x,-y,1/2+z
y,-x,3/4+z
x,-y,1/2-z
-x,y,-z
y,x,3/4-z
-y,-x,1/4-z
loop_
_atom_site_type_symbol
_atom_site_label
_atom_site_fract_x
_atom_site_fract_y
_atom_site_fract_z
Si Si1 0.722670 0.463613 0.612167
Si Si2 0.636566 0.698809 0.563772
Si Si3 0.192313 0.960811 0.154219
Si Si4 0.135008 0.350207 0.489103
Si Si5 0.370515 0.254548 0.930267
Si Si6 0.218598 0.211207 0.158414
Si Si7 0.996511 0.360894 0.813774
Si Si8 0.068634 0.404951 0.320492
O O1 0.627124 0.372877 0.625000
O O2 0.665705 0.582435 0.597336
O O3 0.801726 0.431860 0.556253
O O4 0.804605 0.450042 0.668382
O O5 0.657466 0.693091 0.494181
O O6 0.507262 0.736999 0.572471
O O7 0.723274 0.783123 0.595185
O O8 0.081439 0.918562 0.125000
O O9 0.231510 0.876937 0.204883
O O10 0.296923 0.952348 0.109842
O O11 0.176283 0.086968 0.172636
O O12 0.214646 0.322090 0.544478
O O13 0.000000 0.380546 0.500000
O O14 0.319342 0.319342 0.875000
O O15 0.323757 0.125870 0.930663
O O16 0.110451 0.292256 0.161611
O O17 0.000280 0.486214 0.841158
O O18 0.964852 0.377138 0.745485
#
# Coordination Sequence:
#
# PCOD9547728 Si02
#       8
#     8   8   8   8   8   8   8   8
#     4  11  21  38  60  96 133 159 212 273 325 375
#     4  11  24  44  63  93 121 169 223 266 330 386
#     4  10  19  34  57  85 123 163 200 257 318 379
#     4   9  20  35  58  90 128 168 203 255 328 387
#     4  11  26  47  65  87 129 179 221 259 326 407
#     4  11  21  37  61  94 122 156 216 263 312 382
#     4  11  21  38  64  91 121 169 212 259 325 387
#     4  10  19  37  60  91 124 160 204 259 323 388
#
# _framework density 19.868131000000002
#
# number of rings (size 3 to 8) (size 9 to 14) (size 15 to 20)
#    0.000    1.500    1.250    6.375    1.750    0.500 
#    0.000    0.625    0.000    3.000    0.000    0.000 
#    0.000    0.000    0.000    0.000    0.000    0.000 
#
# Total GULP energy -356474.343069 kJ/mol
# GULP energy per Si atom -5569.911610 kJ/mol
# Density = 1.982291 g / cm^3
# Si number density = 19.868131 Si / 1000 Ang^3
#
#
#
# Elastic Constant Matrix: (Units=GPa)
#
#
# Indices 1 2 3 4 5 6 
#
# 1 55.0345 33.3036 25.8680 0.0000 0.0000 0.0000
# 2 33.3036 55.0322 25.8662 0.0000 0.0000 0.0000
# 3 25.8680 25.8662 96.7899 0.0000 0.0000 0.0000
# 4 0.0000 0.0000 0.0000 22.2465 0.0000 0.0000
# 5 0.0000 0.0000 0.0000 0.0000 22.2474 0.0000
# 6 0.0000 0.0000 0.0000 0.0000 0.0000 18.7853
#
#
#
# Elastic Compliance Matrix: (Units=1/GPa)
#
#
# Indices 1 2 3 4 5 6 
#
# 1 0.029720 -0.016300 -0.003587 0.000000 0.000000 0.000000
# 2 -0.016300 0.029721 -0.003586 0.000000 0.000000 0.000000
# 3 -0.003587 -0.003586 0.012249 0.000000 0.000000 0.000000
# 4 0.000000 0.000000 0.000000 0.044951 0.000000 0.000000
# 5 0.000000 0.000000 0.000000 0.000000 0.044949 0.000000
# 6 0.000000 0.000000 0.000000 0.000000 0.000000 0.053233
#
#
# Mechanical properties :
#
#
# Convention : Reuss Voigt Hill
#
# Bulk Modulus (GPa) = 40.41456 41.88136 41.14796
# Shear Modulus (GPa) = 18.51740 20.77709 19.64725
#
# Velocity S-wave (km/s) = 3.05620 3.23731 3.14806
# Velocity P-wave (km/s) = 5.73057 5.92444 5.82831
#
# Compressibility (1/GPa) = 0.02474356
#
# Stress axis : x y z
#
# Youngs Moduli (GPa) = 33.64740 33.64651 81.64092
#
# Poissons Ratio (x) = 0.54842 0.29285
# Poissons Ratio (y) = 0.54844 0.29280
# Poissons Ratio (z) = 0.12069 0.12067
#
# Static dielectric constant tensor:
#      x y z
#    x 1.727470 0.000000 0.000000 
#    y 0.000000 1.727470 0.000000 
#    z 0.000000 0.000000 1.758380 
# 
# From -- ./inp_files/21874.got.cif
#   From: 2010.05.17/outbox.cif.g08.bks.cpg/sg91_11_cif.got.tgz:21874.got - 2010.06.03 19:20:03.
