data_PCOD9547579
_publ_section_title
;
Structure prediction by ZEFSAII (Michael W. Deem and Ramdas Pophale) SiO2 
 PCOD9547579
Probable space group: P 41 2 2
;
_chemical_formula_sum "Si O2"
_cell_formula_units_Z 36
_cell_length_a 12.821597
_cell_length_b 12.821597
_cell_length_c 8.493938
_cell_angle_alpha 90.000000
_cell_angle_beta 90.000000
_cell_angle_gamma 90.000000
_cell_volume 1396.346919
_symmetry_space_group_name_H-M "P 41 2 2"
_symmetry_group_IT_number 91
_symmetry_cell_setting 'tetragonal'
loop_
_space_group_symop_operation_xyz
x,y,z
-y,x,1/4+z
-x,-y,1/2+z
y,-x,3/4+z
x,-y,1/2-z
-x,y,-z
y,x,3/4-z
-y,-x,1/4-z
loop_
_atom_site_type_symbol
_atom_site_label
_atom_site_fract_x
_atom_site_fract_y
_atom_site_fract_z
Si Si1 0.121734 0.583360 0.610619
Si Si2 0.394917 0.174728 0.302145
Si Si3 0.778167 0.000000 0.750000
Si Si4 0.212796 0.973575 0.913764
Si Si5 0.313264 0.251281 0.619959
O O1 0.123767 0.500000 0.750000
O O2 0.109932 0.501061 0.465491
O O3 0.226587 0.636054 0.538771
O O4 0.041726 0.676957 0.652487
O O5 0.386177 0.234444 0.466875
O O6 0.360570 0.256221 0.163848
O O7 0.300581 0.094337 0.284156
O O8 0.834738 0.996332 0.581983
O O9 0.238541 0.850758 0.900882
O O10 0.158677 0.000000 0.750000
#
# Coordination Sequence:
#
# PCOD9547579 Si02
#       5
#     8   8   4   8   8
#     4  11  20  32  53  83 114 148 192 242 311 358
#     4  10  20  35  52  81 113 153 191 240 303 353
#     4  10  18  32  54  74 118 142 186 236 288 360
#     4   9  19  32  50  81 112 150 185 238 296 354
#     4   9  21  34  51  77 119 148 190 244 292 365
#
# _framework density 25.781559000000001
#
# number of rings (size 3 to 8) (size 9 to 14) (size 15 to 20)
#    0.000    2.222    2.222    0.667    4.667    0.889 
#    0.000    0.000    0.000    0.000    0.000   12.444 
#  160.000    0.000    0.000    0.000    0.000    0.000 
#
# Total GULP energy -200512.123383 kJ/mol
# GULP energy per Si atom -5569.781205 kJ/mol
# Density = 2.572288 g / cm^3
# Si number density = 25.781559 Si / 1000 Ang^3
#
#
#
# Elastic Constant Matrix: (Units=GPa)
#
#
# Indices 1 2 3 4 5 6 
#
# 1 67.4100 61.5504 14.8451 0.0000 0.0000 0.0000
# 2 61.5504 67.4100 14.8451 0.0000 0.0000 0.0000
# 3 14.8451 14.8451 170.3918 0.0000 0.0000 0.0000
# 4 0.0000 0.0000 0.0000 14.6013 0.0000 0.0000
# 5 0.0000 0.0000 0.0000 0.0000 14.6013 0.0000
# 6 0.0000 0.0000 0.0000 0.0000 0.0000 39.2621
#
#
#
# Elastic Compliance Matrix: (Units=1/GPa)
#
#
# Indices 1 2 3 4 5 6 
#
# 1 0.089287 -0.081374 -0.000689 0.000000 0.000000 0.000000
# 2 -0.081374 0.089287 -0.000689 0.000000 0.000000 0.000000
# 3 -0.000689 -0.000689 0.005989 0.000000 0.000000 0.000000
# 4 0.000000 0.000000 0.000000 0.068487 0.000000 0.000000
# 5 0.000000 0.000000 0.000000 0.000000 0.068487 0.000000
# 6 0.000000 0.000000 0.000000 0.000000 0.000000 0.025470
#
#
# Mechanical properties :
#
#
# Convention : Reuss Voigt Hill
#
# Bulk Modulus (GPa) = 52.47308 54.18811 53.33060
# Shear Modulus (GPa) = 9.63641 27.95770 18.79706
#
# Velocity S-wave (km/s) = 1.93541 3.29661 2.70309
# Velocity P-wave (km/s) = 5.03901 5.96271 5.52021
#
# Compressibility (1/GPa) = 0.01905739
#
# Stress axis : x y z
#
# Youngs Moduli (GPa) = 11.19982 11.19982 166.97410
#
# Poissons Ratio (x) = 0.91138 0.11511
# Poissons Ratio (y) = 0.91138 0.11511
# Poissons Ratio (z) = 0.00772 0.00772
#
# Static dielectric constant tensor:
#      x y z
#    x 2.094820 0.000000 0.000000 
#    y 0.000000 2.094820 0.000000 
#    z 0.000000 0.000000 2.199840 
# 
# From -- ./inp_files/2214.got.cif
#   From: 2010.05.17/outbox.cif.g08.bks.cpg/sg91_2_cif.got.tgz:2214.got - 2010.06.03 19:20:03.
