data_PCOD9547987
_publ_section_title
;
Structure prediction by ZEFSAII (Michael W. Deem and Ramdas Pophale) SiO2 
 PCOD9547987
Probable space group: P 41 2 2
;
_chemical_formula_sum "Si O2"
_cell_formula_units_Z 36
_cell_length_a 9.294893
_cell_length_b 9.294893
_cell_length_c 19.234456
_cell_angle_alpha 90.000000
_cell_angle_beta 90.000000
_cell_angle_gamma 90.000000
_cell_volume 1661.761516
_symmetry_space_group_name_H-M "P 41 2 2"
_symmetry_group_IT_number 91
_symmetry_cell_setting 'tetragonal'
loop_
_space_group_symop_operation_xyz
x,y,z
-y,x,1/4+z
-x,-y,1/2+z
y,-x,3/4+z
x,-y,1/2-z
-x,y,-z
y,x,3/4-z
-y,-x,1/4-z
loop_
_atom_site_type_symbol
_atom_site_label
_atom_site_fract_x
_atom_site_fract_y
_atom_site_fract_z
Si Si1 0.510089 0.961661 0.101881
Si Si2 0.618470 0.725940 0.445536
Si Si3 0.919910 0.214511 0.288761
Si Si4 0.196798 0.842064 0.935050
Si Si5 0.398772 0.000000 0.250000
O O1 0.575760 0.117713 0.084764
O O2 0.354871 0.985279 0.065141
O O3 0.629582 0.849227 0.074776
O O4 0.486146 0.944802 0.183708
O O5 0.500000 0.670380 0.500000
O O6 0.637810 0.637810 0.375000
O O7 0.747922 0.774098 0.496225
O O8 0.872757 0.139974 0.359226
O O9 0.027304 0.149497 0.233526
O O10 0.129549 0.699843 0.969627
#
# Coordination Sequence:
#
# PCOD9547987 Si02
#       5
#     8   8   8   8   4
#     4   9  20  38  61  88 122 170 207 254 328 369
#     4   9  18  35  59  88 120 164 210 265 312 373
#     4   9  20  39  60  91 122 164 209 263 319 377
#     4  10  20  39  61  91 129 163 211 263 313 385
#     4  10  22  38  60  96 128 168 208 256 318 378
#
# _framework density 21.66376
#
# number of rings (size 3 to 8) (size 9 to 14) (size 15 to 20)
#    0.000    2.667    0.000    2.000    3.111    3.556 
#   16.000    0.000    0.000   24.000    0.000    0.000 
#    0.000    0.000    0.000    0.000    0.000    0.000 
#
# Total GULP energy -200513.709099 kJ/mol
# GULP energy per Si atom -5569.825253 kJ/mol
# Density = 2.161445 g / cm^3
# Si number density = 21.663760 Si / 1000 Ang^3
#
#
#
# Elastic Constant Matrix: (Units=GPa)
#
#
# Indices 1 2 3 4 5 6 
#
# 1 50.0726 30.7979 42.3368 0.0000 0.0000 0.0000
# 2 30.7979 50.0726 42.3368 0.0000 0.0000 0.0000
# 3 42.3368 42.3368 187.7800 0.0000 0.0000 0.0000
# 4 0.0000 0.0000 0.0000 29.5490 0.0000 0.0000
# 5 0.0000 0.0000 0.0000 0.0000 29.5490 0.0000
# 6 0.0000 0.0000 0.0000 0.0000 0.0000 23.7730
#
#
#
# Elastic Compliance Matrix: (Units=1/GPa)
#
#
# Indices 1 2 3 4 5 6 
#
# 1 0.034034 -0.017847 -0.003649 0.000000 0.000000 0.000000
# 2 -0.017847 0.034034 -0.003649 0.000000 0.000000 0.000000
# 3 -0.003649 -0.003649 0.006971 0.000000 0.000000 0.000000
# 4 0.000000 0.000000 0.000000 0.033842 0.000000 0.000000
# 5 0.000000 0.000000 0.000000 0.000000 0.033842 0.000000
# 6 0.000000 0.000000 0.000000 0.000000 0.000000 0.042065
#
#
# Mechanical properties :
#
#
# Convention : Reuss Voigt Hill
#
# Bulk Modulus (GPa) = 40.41002 57.65202 49.03102
# Shear Modulus (GPa) = 20.54831 28.07109 24.30970
#
# Velocity S-wave (km/s) = 3.08313 3.60358 3.35346
# Velocity P-wave (km/s) = 5.60072 6.63207 6.13809
#
# Compressibility (1/GPa) = 0.02474634
#
# Stress axis : x y z
#
# Youngs Moduli (GPa) = 29.38241 29.38241 143.45207
#
# Poissons Ratio (x) = 0.52440 0.52351
# Poissons Ratio (y) = 0.52440 0.52351
# Poissons Ratio (z) = 0.10723 0.10723
#
# Static dielectric constant tensor:
#      x y z
#    x 1.850070 0.000000 0.000000 
#    y 0.000000 1.850070 0.000000 
#    z 0.000000 0.000000 1.841650 
# 
# From -- ./inp_files/12309.got.cif
#   From: 2010.05.17/outbox.cif.g08.bks.cpg/sg91_7_cif.got.tgz:12309.got - 2010.06.03 19:20:03.
