data_PCOD9547188
_publ_section_title
;
Structure prediction by ZEFSAII (Michael W. Deem and Ramdas Pophale) SiO2 
 PCOD9547188
Probable space group: P 4 21 2
;
_chemical_formula_sum "Si O2"
_cell_formula_units_Z 50
_cell_length_a 15.106340
_cell_length_b 15.106340
_cell_length_c 10.303145
_cell_angle_alpha 90.000000
_cell_angle_beta 90.000000
_cell_angle_gamma 90.000000
_cell_volume 2351.193228
_symmetry_space_group_name_H-M "P 4 21 2"
_symmetry_group_IT_number 90
_symmetry_cell_setting 'tetragonal'
loop_
_space_group_symop_operation_xyz
x,y,z
1/2-y,1/2+x,z
-x,-y,z
1/2+y,1/2-x,z
1/2+x,1/2-y,-z
1/2-x,1/2+y,-z
y,x,-z
-y,-x,-z
loop_
_atom_site_type_symbol
_atom_site_label
_atom_site_fract_x
_atom_site_fract_y
_atom_site_fract_z
Si Si1 0.318550 0.760560 0.818046
Si Si2 0.163219 0.022221 0.955475
Si Si3 0.500000 0.000000 0.612617
Si Si4 0.845331 0.612478 0.423035
Si Si5 0.053055 0.827728 0.557025
Si Si6 0.869094 0.154803 0.834535
Si Si7 0.258364 0.636916 0.605325
O O1 0.401654 0.733503 0.909999
O O2 0.351199 0.824199 0.701952
O O3 0.228723 0.807456 0.868053
O O4 0.281050 0.672598 0.746988
O O5 0.139076 0.952435 0.841760
O O6 0.078474 0.078474 0.000000
O O7 0.183602 0.950028 0.069533
O O8 0.394854 0.978221 0.607498
O O9 0.743972 0.588276 0.454285
O O10 0.877654 0.658107 0.558216
O O11 0.078036 0.921965 0.500000
O O12 0.103678 0.813758 0.692504
O O13 0.951337 0.812024 0.581425
O O14 0.291402 0.708599 0.500000
#
# Coordination Sequence:
#
# PCOD9547188 Si02
#       7
#     8   8   2   8   8   8   8
#     4  11  24  44  72 101 140 192 238 306 363 445
#     4  11  27  48  71 102 138 189 257 303 364 438
#     4  12  24  36  72  96 146 184 220 288 360 450
#     4  11  22  41  63 103 142 182 229 283 372 441
#     4  12  22  40  66 103 146 180 227 299 364 444
#     4  11  24  45  72 102 140 188 240 302 370 436
#     4  10  22  38  60  99 143 183 226 279 366 434
#
# _framework density 21.265798
#
# number of rings (size 3 to 8) (size 9 to 14) (size 15 to 20)
#    0.000    0.960    4.800    2.400    8.960    0.320 
#    0.000    0.000    0.000    0.000    0.000    0.000 
#    0.000    0.000    0.000    0.000    0.000    0.000 
#
# Total GULP energy -278364.626010 kJ/mol
# GULP energy per Si atom -5567.292520 kJ/mol
# Density = 2.121740 g / cm^3
# Si number density = 21.265798 Si / 1000 Ang^3
#
#
#
# Elastic Constant Matrix: (Units=GPa)
#
#
# Indices 1 2 3 4 5 6 
#
# 1 115.2900 51.7020 36.9405 0.0000 0.0000 0.0000
# 2 51.7020 115.2892 36.9410 0.0000 0.0000 0.0000
# 3 36.9405 36.9410 72.5969 0.0000 0.0000 0.0000
# 4 0.0000 0.0000 0.0000 31.6756 0.0000 0.0000
# 5 0.0000 0.0000 0.0000 0.0000 31.6760 0.0000
# 6 0.0000 0.0000 0.0000 0.0000 0.0000 51.6352
#
#
#
# Elastic Compliance Matrix: (Units=1/GPa)
#
#
# Indices 1 2 3 4 5 6 
#
# 1 0.011727 -0.003999 -0.003932 0.000000 0.000000 0.000000
# 2 -0.003999 0.011727 -0.003933 0.000000 0.000000 0.000000
# 3 -0.003932 -0.003933 0.017777 0.000000 0.000000 0.000000
# 4 0.000000 0.000000 0.000000 0.031570 0.000000 0.000000
# 5 0.000000 0.000000 0.000000 0.000000 0.031570 0.000000
# 6 0.000000 0.000000 0.000000 0.000000 0.000000 0.019367
#
#
# Mechanical properties :
#
#
# Convention : Reuss Voigt Hill
#
# Bulk Modulus (GPa) = 57.13232 61.59368 59.36300
# Shear Modulus (GPa) = 32.61582 34.83689 33.72636
#
# Velocity S-wave (km/s) = 3.92052 4.05182 3.98671
# Velocity P-wave (km/s) = 6.88609 7.13556 7.01193
#
# Compressibility (1/GPa) = 0.01750323
#
# Stress axis : x y z
#
# Youngs Moduli (GPa) = 85.27211 85.27106 56.25329
#
# Poissons Ratio (x) = 0.34101 0.22121
# Poissons Ratio (y) = 0.34101 0.22122
# Poissons Ratio (z) = 0.33532 0.33533
#
# Static dielectric constant tensor:
#      x y z
#    x 1.800340 0.000000 0.000000 
#    y 0.000000 1.800340 0.000000 
#    z 0.000000 0.000000 1.822110 
# 
# From -- ./inp_files/2186.got.cif
#   From: 2010.05.17/outbox.cif.g08.bks.cpg/sg90_2_cif.got.tgz:2186.got - 2010.06.03 19:17:45.
