data_PCOD9547678
_publ_section_title
;
Structure prediction by ZEFSAII (Michael W. Deem and Ramdas Pophale) SiO2 
 PCOD9547678
Probable space group: P 41 2 2
;
_chemical_formula_sum "Si O2"
_cell_formula_units_Z 56
_cell_length_a 14.448075
_cell_length_b 14.448075
_cell_length_c 12.877153
_cell_angle_alpha 90.000000
_cell_angle_beta 90.000000
_cell_angle_gamma 90.000000
_cell_volume 2688.065399
_symmetry_space_group_name_H-M "P 41 2 2"
_symmetry_group_IT_number 91
_symmetry_cell_setting 'tetragonal'
loop_
_space_group_symop_operation_xyz
x,y,z
-y,x,1/4+z
-x,-y,1/2+z
y,-x,3/4+z
x,-y,1/2-z
-x,y,-z
y,x,3/4-z
-y,-x,1/4-z
loop_
_atom_site_type_symbol
_atom_site_label
_atom_site_fract_x
_atom_site_fract_y
_atom_site_fract_z
Si Si1 0.444025 0.092702 0.101968
Si Si2 0.095400 0.109163 0.754640
Si Si3 0.093090 0.365719 0.943530
Si Si4 0.173630 0.272652 0.124190
Si Si5 0.542153 0.395983 0.234604
Si Si6 0.709480 0.002747 0.994485
Si Si7 0.706562 0.619674 0.102095
O O1 0.523718 0.089524 0.187689
O O2 0.415074 0.199621 0.093551
O O3 0.500000 0.060864 0.000000
O O4 0.353559 0.028519 0.103949
O O5 0.124445 0.124445 0.875000
O O6 0.175312 0.137858 0.673396
O O7 0.013887 0.181154 0.730310
O O8 0.074390 0.000000 0.750000
O O9 0.082043 0.321228 0.829565
O O10 0.174785 0.333936 0.018373
O O11 0.000000 0.330793 0.000000
O O12 0.274096 0.272612 0.176031
O O13 0.096052 0.309699 0.203578
O O14 0.502922 0.500000 0.250000
O O15 0.596987 0.403014 0.125000
O O16 0.618578 0.380448 0.321768
O O17 0.458532 0.323221 0.230768
#
# Coordination Sequence:
#
# PCOD9547678 Si02
#       7
#     8   8   8   8   8   8   8
#     4  10  19  31  52  80 110 141 178 223 282 329
#     4  12  20  33  55  80 111 146 177 229 286 331
#     4   9  18  33  52  79 109 143 179 222 280 332
#     4  11  20  32  54  80 113 143 180 222 281 329
#     4   9  19  34  49  75 112 142 179 222 264 315
#     4  10  20  35  50  81 115 138 177 233 277 333
#     4  11  20  32  53  78 106 144 177 221 265 323
#
# _framework density 20.832827000000002
#
# number of rings (size 3 to 8) (size 9 to 14) (size 15 to 20)
#    0.000    1.714    4.286    2.571    0.000    1.714 
#    0.000    3.571    0.000    3.429    0.000    0.000 
#    0.000    0.000    0.000    0.000    0.000    0.000 
#
# Total GULP energy -311966.633651 kJ/mol
# GULP energy per Si atom -5570.832744 kJ/mol
# Density = 2.078541 g / cm^3
# Si number density = 20.832827 Si / 1000 Ang^3
#
#
#
# Elastic Constant Matrix: (Units=GPa)
#
#
# Indices 1 2 3 4 5 6 
#
# 1 95.1079 17.3315 1.7436 0.0000 0.0000 0.0000
# 2 17.3315 95.1080 1.7436 0.0000 0.0000 0.0000
# 3 1.7436 1.7436 11.6457 0.0000 0.0000 0.0000
# 4 0.0000 0.0000 0.0000 21.7988 0.0000 0.0000
# 5 0.0000 0.0000 0.0000 0.0000 21.7988 0.0000
# 6 0.0000 0.0000 0.0000 0.0000 0.0000 21.1777
#
#
#
# Elastic Compliance Matrix: (Units=1/GPa)
#
#
# Indices 1 2 3 4 5 6 
#
# 1 0.010896 -0.001961 -0.001338 0.000000 0.000000 0.000000
# 2 -0.001961 0.010896 -0.001338 0.000000 0.000000 0.000000
# 3 -0.001338 -0.001338 0.086269 0.000000 0.000000 0.000000
# 4 0.000000 0.000000 0.000000 0.045874 0.000000 0.000000
# 5 0.000000 0.000000 0.000000 0.000000 0.045874 0.000000
# 6 0.000000 0.000000 0.000000 0.000000 0.000000 0.047219
#
#
# Mechanical properties :
#
#
# Convention : Reuss Voigt Hill
#
# Bulk Modulus (GPa) = 10.12264 27.05546 18.58905
# Shear Modulus (GPa) = 17.28715 25.02459 21.15587
#
# Velocity S-wave (km/s) = 2.88376 3.46961 3.19016
# Velocity P-wave (km/s) = 3.99470 5.39129 4.74466
#
# Compressibility (1/GPa) = 0.09878841
#
# Stress axis : x y z
#
# Youngs Moduli (GPa) = 91.77453 91.77461 11.59162
#
# Poissons Ratio (x) = 0.17998 0.01551
# Poissons Ratio (y) = 0.17998 0.01551
# Poissons Ratio (z) = 0.12277 0.12278
#
# Static dielectric constant tensor:
#      x y z
#    x 1.794100 0.000000 0.000000 
#    y 0.000000 1.794100 0.000000 
#    z 0.000000 0.000000 1.807070 
# 
# From -- ./inp_files/20825.got.cif
#   From: 2010.05.17/outbox.cif.g08.bks.cpg/sg91_11_cif.got.tgz:20825.got - 2010.06.03 19:20:03.
