data_PCOD9547573
_publ_section_title
;
Structure prediction by ZEFSAII (Michael W. Deem and Ramdas Pophale) SiO2 
 PCOD9547573
Probable space group: P 41 2 2
;
_chemical_formula_sum "Si O2"
_cell_formula_units_Z 56
_cell_length_a 19.836483
_cell_length_b 19.836483
_cell_length_c 8.970160
_cell_angle_alpha 90.000000
_cell_angle_beta 90.000000
_cell_angle_gamma 90.000000
_cell_volume 3529.632896
_symmetry_space_group_name_H-M "P 41 2 2"
_symmetry_group_IT_number 91
_symmetry_cell_setting 'tetragonal'
loop_
_space_group_symop_operation_xyz
x,y,z
-y,x,1/4+z
-x,-y,1/2+z
y,-x,3/4+z
x,-y,1/2-z
-x,y,-z
y,x,3/4-z
-y,-x,1/4-z
loop_
_atom_site_type_symbol
_atom_site_label
_atom_site_fract_x
_atom_site_fract_y
_atom_site_fract_z
Si Si1 0.374214 0.345280 0.576076
Si Si2 0.786807 0.618286 0.856290
Si Si3 0.572136 0.909656 0.083014
Si Si4 0.300394 0.300394 0.875000
Si Si5 0.641590 0.814395 0.558549
Si Si6 0.485076 0.314389 0.298089
Si Si7 0.744182 0.500000 0.250000
Si Si8 0.066652 0.574961 0.679701
O O1 0.355205 0.277755 0.484547
O O2 0.339218 0.331018 0.732771
O O3 0.454445 0.344585 0.604830
O O4 0.353074 0.415718 0.498293
O O5 0.852216 0.614905 0.751458
O O6 0.799923 0.654169 0.015743
O O7 0.758046 0.542677 0.894372
O O8 0.569290 0.901986 0.262544
O O9 0.593969 0.987756 0.068420
O O10 0.500000 0.906021 0.000000
O O11 0.224345 0.313355 0.814551
O O12 0.565714 0.786503 0.535281
O O13 0.630738 0.892283 0.521379
O O14 0.518472 0.301091 0.139438
O O15 0.071056 0.500000 0.750000
#
# Coordination Sequence:
#
# PCOD9547573 Si02
#       8
#     8   8   8   4   8   8   4   8
#     4  12  22  38  54  70  91 120 160 213 260 320
#     4  11  23  35  54  71  94 118 157 196 256 302
#     4  10  20  32  49  77  97 125 146 190 236 307
#     4  12  22  34  58  68  94 120 166 202 258 306
#     4  11  21  34  53  73  92 127 153 200 246 305
#     4  11  22  35  55  67  89 119 161 208 263 313
#     4  10  18  32  50  70  86 116 154 194 250 298
#     4  10  20  33  50  72 103 122 155 182 243 302
#
# _framework density 15.865672999999999
#
# number of rings (size 3 to 8) (size 9 to 14) (size 15 to 20)
#    0.000    1.143    5.000    3.429    2.000    1.714 
#    0.000    0.000   28.286    0.000    0.000    0.000 
#    0.000    0.000    0.000    0.000    0.000    0.000 
#
# Total GULP energy -311800.231452 kJ/mol
# GULP energy per Si atom -5567.861276 kJ/mol
# Density = 1.582956 g / cm^3
# Si number density = 15.865673 Si / 1000 Ang^3
#
#
#
# Elastic Constant Matrix: (Units=GPa)
#
#
# Indices 1 2 3 4 5 6 
#
# 1 69.6097 21.7759 36.5970 0.0000 0.0000 0.0000
# 2 21.7759 69.6097 36.5970 0.0000 0.0000 0.0000
# 3 36.5970 36.5970 99.4784 0.0000 0.0000 0.0000
# 4 0.0000 0.0000 0.0000 25.9586 0.0000 0.0000
# 5 0.0000 0.0000 0.0000 0.0000 25.9586 0.0000
# 6 0.0000 0.0000 0.0000 0.0000 0.0000 8.1416
#
#
#
# Elastic Compliance Matrix: (Units=1/GPa)
#
#
# Indices 1 2 3 4 5 6 
#
# 1 0.018210 -0.002696 -0.005707 0.000000 0.000000 0.000000
# 2 -0.002696 0.018210 -0.005707 0.000000 0.000000 0.000000
# 3 -0.005707 -0.005707 0.014252 0.000000 0.000000 0.000000
# 4 0.000000 0.000000 0.000000 0.038523 0.000000 0.000000
# 5 0.000000 0.000000 0.000000 0.000000 0.038523 0.000000
# 6 0.000000 0.000000 0.000000 0.000000 0.000000 0.122826
#
#
# Mechanical properties :
#
#
# Convention : Reuss Voigt Hill
#
# Bulk Modulus (GPa) = 44.54335 47.62639 46.08487
# Shear Modulus (GPa) = 17.46734 21.59359 19.53047
#
# Velocity S-wave (km/s) = 3.32166 3.69321 3.51235
# Velocity P-wave (km/s) = 6.54580 6.94767 6.74972
#
# Compressibility (1/GPa) = 0.02245004
#
# Stress axis : x y z
#
# Youngs Moduli (GPa) = 54.91544 54.91544 70.16652
#
# Poissons Ratio (x) = 0.14805 0.40047
# Poissons Ratio (y) = 0.14805 0.40047
# Poissons Ratio (z) = 0.31342 0.31342
#
# Static dielectric constant tensor:
#      x y z
#    x 1.570060 0.000000 0.000000 
#    y 0.000000 1.570060 0.000000 
#    z 0.000000 0.000000 1.649070 
# 
# From -- ./inp_files/10153.got.cif
#   From: 2010.05.17/outbox.cif.g08.bks.cpg/sg91_6_cif.got.tgz:10153.got - 2010.06.03 19:20:03.
