data_PCOD9547211
_publ_section_title
;
Structure prediction by ZEFSAII (Michael W. Deem and Ramdas Pophale) SiO2 
 PCOD9547211
Probable space group: P 4 21 2
;
_chemical_formula_sum "Si O2"
_cell_formula_units_Z 56
_cell_length_a 14.477130
_cell_length_b 14.477130
_cell_length_c 13.254727
_cell_angle_alpha 90.000000
_cell_angle_beta 90.000000
_cell_angle_gamma 90.000000
_cell_volume 2778.022352
_symmetry_space_group_name_H-M "P 4 21 2"
_symmetry_group_IT_number 90
_symmetry_cell_setting 'tetragonal'
loop_
_space_group_symop_operation_xyz
x,y,z
1/2-y,1/2+x,z
-x,-y,z
1/2+y,1/2-x,z
1/2+x,1/2-y,-z
1/2-x,1/2+y,-z
y,x,-z
-y,-x,-z
loop_
_atom_site_type_symbol
_atom_site_label
_atom_site_fract_x
_atom_site_fract_y
_atom_site_fract_z
Si Si1 0.729337 0.761448 0.384277
Si Si2 0.594848 0.737794 0.054560
Si Si3 0.093884 0.627941 0.762307
Si Si4 0.151728 0.486949 0.120021
Si Si5 0.973349 0.093402 0.802291
Si Si6 0.613116 0.409759 0.387593
Si Si7 0.275816 0.433443 0.293280
O O1 0.725194 0.725194 0.500000
O O2 0.641956 0.811862 0.328656
O O3 0.812836 0.833785 0.381195
O O4 0.754682 0.667405 0.326979
O O5 0.623703 0.820462 0.132713
O O6 0.526113 0.678460 0.124436
O O7 0.676745 0.676745 0.000000
O O8 0.532005 0.774638 0.965045
O O9 0.125150 0.519404 0.757668
O O10 0.096452 0.580181 0.108142
O O11 0.198238 0.481949 0.228260
O O12 0.866924 0.086284 0.771951
O O13 0.036775 0.094580 0.701613
O O14 0.000000 0.000000 0.858349
O O15 0.576229 0.423772 0.500000
O O16 0.685374 0.493170 0.372659
#
# Coordination Sequence:
#
# PCOD9547211 Si02
#       7
#     8   8   8   8   8   8   8
#     4  11  24  39  67 100 135 178 222 282 341 408
#     4  12  22  41  67  96 133 174 228 284 343 411
#     4  11  24  44  72 100 139 184 232 289 345 409
#     4  11  24  43  65  91 130 177 226 278 340 412
#     4  10  22  40  65  93 129 175 215 276 343 403
#     4  10  24  42  66 100 135 175 226 271 347 411
#     4  11  22  41  65  91 132 173 224 278 335 403
#
# _framework density 20.158225000000002
#
# number of rings (size 3 to 8) (size 9 to 14) (size 15 to 20)
#    0.000    1.143    2.857    2.571    2.000    4.571 
#    0.000    1.429    0.000    1.714    0.000    0.000 
#    0.000    0.000    0.000    0.000    0.000    0.000 
#
# Total GULP energy -312211.577683 kJ/mol
# GULP energy per Si atom -5575.206744 kJ/mol
# Density = 2.011234 g / cm^3
# Si number density = 20.158225 Si / 1000 Ang^3
#
#
#
# Elastic Constant Matrix: (Units=GPa)
#
#
# Indices 1 2 3 4 5 6 
#
# 1 55.4407 25.4614 40.1904 0.0000 0.0000 0.0000
# 2 25.4614 55.4399 40.1903 0.0000 0.0000 0.0000
# 3 40.1904 40.1903 91.8100 0.0000 0.0000 0.0000
# 4 0.0000 0.0000 0.0000 18.6003 0.0000 0.0000
# 5 0.0000 0.0000 0.0000 0.0000 18.6001 0.0000
# 6 0.0000 0.0000 0.0000 0.0000 0.0000 56.6904
#
#
#
# Elastic Compliance Matrix: (Units=1/GPa)
#
#
# Indices 1 2 3 4 5 6 
#
# 1 0.027616 -0.005741 -0.009576 0.000000 0.000000 0.000000
# 2 -0.005741 0.027616 -0.009576 0.000000 0.000000 0.000000
# 3 -0.009576 -0.009576 0.019276 0.000000 0.000000 0.000000
# 4 0.000000 0.000000 0.000000 0.053763 0.000000 0.000000
# 5 0.000000 0.000000 0.000000 0.000000 0.053763 0.000000
# 6 0.000000 0.000000 0.000000 0.000000 0.000000 0.017640
#
#
# Mechanical properties :
#
#
# Convention : Reuss Voigt Hill
#
# Bulk Modulus (GPa) = 40.44954 46.04163 43.24559
# Shear Modulus (GPa) = 19.40248 25.23471 22.31859
#
# Velocity S-wave (km/s) = 3.10580 3.54196 3.33103
# Velocity P-wave (km/s) = 5.74203 6.29421 6.02445
#
# Compressibility (1/GPa) = 0.02472216
#
# Stress axis : x y z
#
# Youngs Moduli (GPa) = 36.21151 36.21077 51.87851
#
# Poissons Ratio (x) = 0.20789 0.49677
# Poissons Ratio (y) = 0.20789 0.49679
# Poissons Ratio (z) = 0.34675 0.34675
#
# Static dielectric constant tensor:
#      x y z
#    x 1.733510 0.000000 0.000000 
#    y 0.000000 1.733510 0.000000 
#    z 0.000000 0.000000 1.827740 
# 
# From -- ./inp_files/2264.got.cif
#   From: 2010.05.17/outbox.cif.g08.bks.cpg/sg90_2_cif.got.tgz:2264.got - 2010.06.03 19:17:45.
