data_PCOD9547063
_publ_section_title
;
Structure prediction by ZEFSAII (Michael W. Deem and Ramdas Pophale) SiO2 
 PCOD9547063
Probable space group: P 4 2 2
;
_chemical_formula_sum "Si O2"
_cell_formula_units_Z 40
_cell_length_a 9.000000
_cell_length_b 9.000000
_cell_length_c 27.000000
_cell_angle_alpha 90.000000
_cell_angle_beta 90.000000
_cell_angle_gamma 90.000000
_cell_volume 2187.000000
_symmetry_space_group_name_H-M "P 4 2 2"
_symmetry_group_IT_number 89
_symmetry_cell_setting 'tetragonal'
loop_
_space_group_symop_operation_xyz
x,y,z
-y,x,z
-x,-y,z
y,-x,z
x,-y,-z
-x,y,-z
y,x,-z
-y,-x,-z
loop_
_atom_site_type_symbol
_atom_site_label
_atom_site_fract_x
_atom_site_fract_y
_atom_site_fract_z
Si Si1 0.176330 0.176330 0.500000
Si Si2 0.676310 0.676309 0.595495
Si Si3 0.321738 0.678259 0.214304
Si Si4 0.176083 0.176085 0.690699
Si Si5 0.320850 0.679151 0.000000
Si Si6 0.321492 0.678504 0.106032
O O1 0.247792 0.247793 0.548518
O O2 0.000000 0.202270 0.500000
O O3 0.500001 0.702266 0.594036
O O4 0.743364 0.743362 0.645417
O O5 0.298315 0.499998 0.217866
O O6 0.239651 0.760346 0.258244
O O7 0.268875 0.731121 0.159720
O O8 0.999999 0.202527 0.687642
O O9 0.299099 0.500000 0.000000
O O10 0.263488 0.736516 0.946914
O O11 0.299234 0.499998 0.105929
#
# Coordination Sequence:
#
# PCOD9547063 Si02
#       6
#     4   8   8   8   4   8
#     4  11  24  41  62  90 122 153 184 215 248 292
#     4  11  24  41  62  88 114 141 177 218 259 306
#     4   9  17  30  49  74 102 131 166 209 257 311
#     4  11  24  39  54  75 103 136 176 219 262 310
#     4   7   8  12  26  52  88 125 154 186 238 299
#     4   7  10  17  32  58  92 125 156 194 243 300
#
# _framework density 18.289895000000001
#
# number of rings (size 3 to 8) (size 9 to 14) (size 15 to 20)
#    0.000    2.600    0.000    5.400    0.000   10.400 
#    0.000    0.000    0.000    0.000    0.000    1.400 
#    0.000    9.600    0.000    0.000    0.000    0.000 
#
# Total GULP energy -222957.046332 kJ/mol
# GULP energy per Si atom -5573.926158 kJ/mol
# Density = 1.824827 g / cm^3
# Si number density = 18.289895 Si / 1000 Ang^3
#
#
#
# Elastic Constant Matrix: (Units=GPa)
#
#
# Indices 1 2 3 4 5 6 
#
# 1 61.0328 75.0247 79.0944 0.0000 0.0000 0.0000
# 2 75.0247 61.0325 79.0945 0.0000 0.0000 0.0000
# 3 79.0944 79.0945 241.2060 0.0000 0.0000 0.0000
# 4 0.0000 0.0000 0.0000 -94.4999 0.0000 0.0000
# 5 0.0000 0.0000 0.0000 0.0000 -94.5043 0.0000
# 6 0.0000 0.0000 0.0000 0.0000 0.0000 24.7798
#
#
#
# Elastic Compliance Matrix: (Units=1/GPa)
#
#
# Indices 1 2 3 4 5 6 
#
# 1 -0.029795 0.041674 -0.003895 0.000000 0.000000 0.000000
# 2 0.041674 -0.029795 -0.003895 0.000000 0.000000 0.000000
# 3 -0.003895 -0.003895 0.006700 0.000000 0.000000 0.000000
# 4 0.000000 0.000000 0.000000 -0.010582 0.000000 0.000000
# 5 0.000000 0.000000 0.000000 0.000000 -0.010582 0.000000
# 6 0.000000 0.000000 0.000000 0.000000 0.000000 0.040355
#
#
# Mechanical properties :
#
#
# Convention : Reuss Voigt Hill
#
# Bulk Modulus (GPa) = 67.21801 92.18874 79.70337
# Shear Modulus (GPa) = -51.80989 -24.17435 -37.99212
#
# Velocity S-wave (km/s) = -5.32809 -3.63951 -4.56260
# Velocity P-wave (km/s) = 1.01003 5.73169 3.98949
#
# Compressibility (1/GPa) = 0.01487696
#
# Stress axis : x y z
#
# Youngs Moduli (GPa) = -33.56245 -33.56219 149.24586
#
# Poissons Ratio (x) = 1.39867 0.58134
# Poissons Ratio (y) = 1.39868 0.58133
# Poissons Ratio (z) = -0.13073 -0.13073
#
# Static dielectric constant tensor:
#      x y z
#    x 1.601140 0.000000 0.000000 
#    y 0.000000 1.601140 0.000000 
#    z 0.000000 0.000000 1.665060 
# 
# From -- ./inp_files/2864.got.cif
#   From: 2010.05.17/outbox.ucp.g08.bks.cvg/sg89_2_cif.got.tgz:2864.got - 2010.06.11 10:35:57.
