data_PCOD9547265
_publ_section_title
;
Structure prediction by ZEFSAII (Michael W. Deem and Ramdas Pophale) SiO2 
 PCOD9547265
Probable space group: P 4 21 2
;
_chemical_formula_sum "Si O2"
_cell_formula_units_Z 38
_cell_length_a 17.494012
_cell_length_b 17.494012
_cell_length_c 5.471295
_cell_angle_alpha 90.000000
_cell_angle_beta 90.000000
_cell_angle_gamma 90.000000
_cell_volume 1674.437616
_symmetry_space_group_name_H-M "P 4 21 2"
_symmetry_group_IT_number 90
_symmetry_cell_setting 'tetragonal'
loop_
_space_group_symop_operation_xyz
x,y,z
1/2-y,1/2+x,z
-x,-y,z
1/2+y,1/2-x,z
1/2+x,1/2-y,-z
1/2-x,1/2+y,-z
y,x,-z
-y,-x,-z
loop_
_atom_site_type_symbol
_atom_site_label
_atom_site_fract_x
_atom_site_fract_y
_atom_site_fract_z
Si Si1 0.603241 0.433150 0.746711
Si Si2 0.500000 0.000000 0.771144
Si Si3 0.789467 0.210534 0.500000
Si Si4 0.742806 0.342986 0.195951
Si Si5 0.445806 0.261288 0.294874
Si Si6 0.005640 0.683123 0.188264
O O1 0.557149 0.442852 0.500000
O O2 0.628545 0.343144 0.741318
O O3 0.674084 0.490291 0.746561
O O4 0.559639 0.440362 0.000000
O O5 0.509357 0.906568 0.775135
O O6 0.790085 0.297047 0.397567
O O7 0.795765 0.138739 0.321170
O O8 0.788884 0.418783 0.131821
O O9 0.722509 0.277492 0.000000
O O10 0.467603 0.222764 0.556968
O O11 0.448439 0.207602 0.055809
#
# Coordination Sequence:
#
# PCOD9547265 Si02
#       6
#     8   2   4   8   8   8
#     4  11  19  41  74  99 127 185 254 292 355 434
#     4  12  32  46  68 114 160 210 232 326 392 438
#     4  12  28  40  73 112 156 181 250 316 382 432
#     4  11  22  44  76 101 132 203 257 293 348 465
#     4  12  26  46  73 110 146 192 243 321 368 445
#     4  12  27  48  73 103 153 198 254 299 379 453
#
# _framework density 22.694184
#
# number of rings (size 3 to 8) (size 9 to 14) (size 15 to 20)
#    0.000    0.421    7.368    1.263    5.895    2.526 
#    0.000    0.526    0.000    2.526    0.000    0.000 
#    0.000    0.000    0.000    0.000    0.000    0.000 
#
# Total GULP energy -211732.768167 kJ/mol
# GULP energy per Si atom -5571.914952 kJ/mol
# Density = 2.264253 g / cm^3
# Si number density = 22.694184 Si / 1000 Ang^3
#
#
#
# Elastic Constant Matrix: (Units=GPa)
#
#
# Indices 1 2 3 4 5 6 
#
# 1 79.7169 77.7498 32.3899 0.0000 0.0000 0.0000
# 2 77.7498 79.7107 32.3861 0.0000 0.0000 0.0000
# 3 32.3899 32.3861 157.2762 0.0000 0.0000 0.0000
# 4 0.0000 0.0000 0.0000 26.3401 0.0000 0.0000
# 5 0.0000 0.0000 0.0000 0.0000 26.3399 0.0000
# 6 0.0000 0.0000 0.0000 0.0000 0.0000 44.7743
#
#
#
# Elastic Compliance Matrix: (Units=1/GPa)
#
#
# Indices 1 2 3 4 5 6 
#
# 1 0.258040 -0.251110 -0.001433 0.000000 0.000000 0.000000
# 2 -0.251110 0.258057 -0.001424 0.000000 0.000000 0.000000
# 3 -0.001433 -0.001424 0.006947 0.000000 0.000000 0.000000
# 4 0.000000 0.000000 0.000000 0.037965 0.000000 0.000000
# 5 0.000000 0.000000 0.000000 0.000000 0.037965 0.000000
# 6 0.000000 0.000000 0.000000 0.000000 0.000000 0.022334
#
#
# Mechanical properties :
#
#
# Convention : Reuss Voigt Hill
#
# Bulk Modulus (GPa) = 66.18886 66.86169 66.52528
# Shear Modulus (GPa) = 4.40808 31.10272 17.75540
#
# Velocity S-wave (km/s) = 1.39521 3.70606 2.80013
# Velocity P-wave (km/s) = 5.64131 6.91659 6.31124
#
# Compressibility (1/GPa) = 0.01510828
#
# Stress axis : x y z
#
# Youngs Moduli (GPa) = 3.87536 3.87512 143.95275
#
# Poissons Ratio (x) = 0.97308 0.20634
# Poissons Ratio (y) = 0.97314 0.20503
# Poissons Ratio (z) = 0.00555 0.00552
#
# Static dielectric constant tensor:
#      x y z
#    x 1.798810 0.000000 0.000000 
#    y 0.000000 1.798810 0.000000 
#    z 0.000000 0.000000 1.797930 
# 
# From -- ./inp_files/465.got.cif
#   From: 2010.05.17/outbox.cif.g08.bks.cpg/sg90_1_cif.got.tgz:465.got - 2010.06.03 19:17:45.
