data_PCOD9547407
_publ_section_title
;
Structure prediction by ZEFSAII (Michael W. Deem and Ramdas Pophale) SiO2 
 PCOD9547407
Probable space group: P 4 21 2
;
_chemical_formula_sum "Si O2"
_cell_formula_units_Z 34
_cell_length_a 9.567167
_cell_length_b 9.567167
_cell_length_c 15.172077
_cell_angle_alpha 90.000000
_cell_angle_beta 90.000000
_cell_angle_gamma 90.000000
_cell_volume 1388.710592
_symmetry_space_group_name_H-M "P 4 21 2"
_symmetry_group_IT_number 90
_symmetry_cell_setting 'tetragonal'
loop_
_space_group_symop_operation_xyz
x,y,z
1/2-y,1/2+x,z
-x,-y,z
1/2+y,1/2-x,z
1/2+x,1/2-y,-z
1/2-x,1/2+y,-z
y,x,-z
-y,-x,-z
loop_
_atom_site_type_symbol
_atom_site_label
_atom_site_fract_x
_atom_site_fract_y
_atom_site_fract_z
Si Si1 0.793254 0.579263 0.475220
Si Si2 0.000000 0.500000 0.193846
Si Si3 0.687354 0.783017 0.717435
Si Si4 0.784846 0.423858 0.961477
Si Si5 0.842784 0.974247 0.222953
O O1 0.824981 0.423546 0.507304
O O2 0.647295 0.647295 0.500000
O O3 0.805656 0.595886 0.369729
O O4 0.107483 0.635178 0.204860
O O5 0.700860 0.618748 0.733580
O O6 0.843616 0.842815 0.711201
O O7 0.828823 0.581247 0.987215
O O8 0.758051 0.432295 0.857062
O O9 0.646890 0.353111 0.000000
O O10 0.000000 0.000000 0.188863
#
# Coordination Sequence:
#
# PCOD9547407 Si02
#       5
#     8   2   8   8   8
#     4  11  24  45  67 100 146 192 242 303 364 432
#     4  12  20  48  68  96 140 180 236 298 360 432
#     4  12  24  45  72 101 145 186 243 306 362 434
#     4  11  27  49  71 105 147 190 237 294 359 432
#     4  12  25  42  76 110 138 185 244 302 365 424
#
# _framework density 24.483143999999999
#
# number of rings (size 3 to 8) (size 9 to 14) (size 15 to 20)
#    0.000    0.471    7.059    0.000    6.588    0.941 
#    0.000    0.000    0.000    0.000    0.000    0.000 
#    0.000    0.000    0.000    0.000    0.000    0.000 
#
# Total GULP energy -189773.233931 kJ/mol
# GULP energy per Si atom -5581.565704 kJ/mol
# Density = 2.442742 g / cm^3
# Si number density = 24.483144 Si / 1000 Ang^3
#
#
#
# Elastic Constant Matrix: (Units=GPa)
#
#
# Indices 1 2 3 4 5 6 
#
# 1 106.6121 30.6331 1.1919 0.0000 0.0000 0.0000
# 2 30.6331 106.6090 1.1925 0.0000 0.0000 0.0000
# 3 1.1919 1.1925 32.2693 0.0000 0.0000 0.0000
# 4 0.0000 0.0000 0.0000 19.5942 0.0000 0.0000
# 5 0.0000 0.0000 0.0000 0.0000 19.5935 0.0000
# 6 0.0000 0.0000 0.0000 0.0000 0.0000 46.3648
#
#
#
# Elastic Compliance Matrix: (Units=1/GPa)
#
#
# Indices 1 2 3 4 5 6 
#
# 1 0.010226 -0.002935 -0.000269 0.000000 0.000000 0.000000
# 2 -0.002935 0.010227 -0.000269 0.000000 0.000000 0.000000
# 3 -0.000269 -0.000269 0.031009 0.000000 0.000000 0.000000
# 4 0.000000 0.000000 0.000000 0.051036 0.000000 0.000000
# 5 0.000000 0.000000 0.000000 0.000000 0.051037 0.000000
# 6 0.000000 0.000000 0.000000 0.000000 0.000000 0.021568
#
#
# Mechanical properties :
#
#
# Convention : Reuss Voigt Hill
#
# Bulk Modulus (GPa) = 22.46503 34.61392 28.53947
# Shear Modulus (GPa) = 25.39502 31.27536 28.33519
#
# Velocity S-wave (km/s) = 3.22412 3.57798 3.40565
# Velocity P-wave (km/s) = 4.80162 5.58908 5.21025
#
# Compressibility (1/GPa) = 0.04451364
#
# Stress axis : x y z
#
# Youngs Moduli (GPa) = 97.78764 97.78471 32.24859
#
# Poissons Ratio (x) = 0.28704 0.00868
# Poissons Ratio (y) = 0.28705 0.00869
# Poissons Ratio (z) = 0.02633 0.02635
#
# Static dielectric constant tensor:
#      x y z
#    x 1.981470 0.000000 0.000000 
#    y 0.000000 1.981480 0.000000 
#    z 0.000000 0.000000 2.020210 
# 
# From -- ./inp_files/2753.got.cif
#   From: 2010.05.17/outbox.cif.g08.bks.cpg/sg90_2_cif.got.tgz:2753.got - 2010.06.03 19:17:45.
