data_PCOD9547167
_publ_section_title
;
Structure prediction by ZEFSAII (Michael W. Deem and Ramdas Pophale) SiO2 
 PCOD9547167
Probable space group: P 4 21 2
;
_chemical_formula_sum "Si O2"
_cell_formula_units_Z 40
_cell_length_a 10.924087
_cell_length_b 10.924087
_cell_length_c 15.313600
_cell_angle_alpha 90.000000
_cell_angle_beta 90.000000
_cell_angle_gamma 90.000000
_cell_volume 1827.458820
_symmetry_space_group_name_H-M "P 4 21 2"
_symmetry_group_IT_number 90
_symmetry_cell_setting 'tetragonal'
loop_
_space_group_symop_operation_xyz
x,y,z
1/2-y,1/2+x,z
-x,-y,z
1/2+y,1/2-x,z
1/2+x,1/2-y,-z
1/2-x,1/2+y,-z
y,x,-z
-y,-x,-z
loop_
_atom_site_type_symbol
_atom_site_label
_atom_site_fract_x
_atom_site_fract_y
_atom_site_fract_z
Si Si1 0.510594 0.359889 0.169161
Si Si2 0.467458 0.798089 0.518594
Si Si3 0.872340 0.834904 0.644670
Si Si4 0.141092 0.357988 0.256564
Si Si5 0.260935 0.253976 0.102286
O O1 0.500000 0.500000 0.137385
O O2 0.546719 0.367204 0.271475
O O3 0.386721 0.288616 0.149805
O O4 0.618122 0.287302 0.120595
O O5 0.597024 0.863767 0.533343
O O6 0.440167 0.681586 0.580381
O O7 0.445055 0.754811 0.419370
O O8 0.745795 0.786419 0.689842
O O9 0.166665 0.498420 0.276255
O O10 0.163645 0.337506 0.154115
O O11 0.274443 0.274443 0.000000
#
# Coordination Sequence:
#
# PCOD9547167 Si02
#       5
#     8   8   8   8   8
#     4  11  27  48  74 106 151 198 248 320 370 457
#     4  10  22  41  67  98 140 187 238 307 361 443
#     4  10  22  41  66 102 133 184 234 296 377 436
#     4  10  21  40  68  96 131 180 244 307 360 445
#     4  11  26  43  72 105 143 195 246 305 388 445
#
# _framework density 21.88832
#
# number of rings (size 3 to 8) (size 9 to 14) (size 15 to 20)
#    0.000    1.600    0.000    3.600   11.200    3.600 
#    3.600    1.000    0.000    0.000    0.000    0.000 
#    0.000    0.000    0.000    0.000    0.000    0.000 
#
# Total GULP energy -223368.806034 kJ/mol
# GULP energy per Si atom -5584.220151 kJ/mol
# Density = 2.183850 g / cm^3
# Si number density = 21.888320 Si / 1000 Ang^3
#
#
#
# Elastic Constant Matrix: (Units=GPa)
#
#
# Indices 1 2 3 4 5 6 
#
# 1 74.5350 73.7604 35.4578 0.0000 0.0000 0.0000
# 2 73.7604 74.5350 35.4578 0.0000 0.0000 0.0000
# 3 35.4578 35.4578 130.6150 0.0000 0.0000 0.0000
# 4 0.0000 0.0000 0.0000 -188.4113 0.0000 0.0000
# 5 0.0000 0.0000 0.0000 0.0000 -188.4113 0.0000
# 6 0.0000 0.0000 0.0000 0.0000 0.0000 29.0297
#
#
#
# Elastic Compliance Matrix: (Units=1/GPa)
#
#
# Indices 1 2 3 4 5 6 
#
# 1 0.649343 -0.641594 -0.002104 0.000000 0.000000 0.000000
# 2 -0.641594 0.649343 -0.002104 0.000000 0.000000 0.000000
# 3 -0.002104 -0.002104 0.008798 0.000000 0.000000 0.000000
# 4 0.000000 0.000000 0.000000 -0.005308 0.000000 0.000000
# 5 0.000000 0.000000 0.000000 0.000000 -0.005308 0.000000
# 6 0.000000 0.000000 0.000000 0.000000 0.000000 0.034447
#
#
# Mechanical properties :
#
#
# Convention : Reuss Voigt Hill
#
# Bulk Modulus (GPa) = 62.96398 63.22633 63.09516
# Shear Modulus (GPa) = 1.90243 -60.55799 -29.32778
#
# Velocity S-wave (km/s) = 0.93330 -5.26563 -3.66441
# Velocity P-wave (km/s) = 5.47630 2.83206 3.31431
#
# Compressibility (1/GPa) = 0.01588210
#
# Stress axis : x y z
#
# Youngs Moduli (GPa) = 1.54002 1.54002 113.65893
#
# Poissons Ratio (x) = 0.98807 0.23910
# Poissons Ratio (y) = 0.98807 0.23910
# Poissons Ratio (z) = 0.00324 0.00324
#
# Static dielectric constant tensor:
#      x y z
#    x 2.288260 0.000000 0.000000 
#    y 0.000000 2.288260 0.000000 
#    z 0.000000 0.000000 1.829080 
# 
# From -- ./inp_files/2478.got.cif
#   From: 2010.05.17/outbox.cif.g08.bks.cpg/sg90_2_cif.got.tgz:2478.got - 2010.06.03 19:17:45.
