data_PCOD9547699
_publ_section_title
;
Structure prediction by ZEFSAII (Michael W. Deem and Ramdas Pophale) SiO2 
 PCOD9547699
Probable space group: P 41 2 2
;
_chemical_formula_sum "Si O2"
_cell_formula_units_Z 48
_cell_length_a 9.629525
_cell_length_b 9.629525
_cell_length_c 27.735895
_cell_angle_alpha 90.000000
_cell_angle_beta 90.000000
_cell_angle_gamma 90.000000
_cell_volume 2571.887185
_symmetry_space_group_name_H-M "P 41 2 2"
_symmetry_group_IT_number 91
_symmetry_cell_setting 'tetragonal'
loop_
_space_group_symop_operation_xyz
x,y,z
-y,x,1/4+z
-x,-y,1/2+z
y,-x,3/4+z
x,-y,1/2-z
-x,y,-z
y,x,3/4-z
-y,-x,1/4-z
loop_
_atom_site_type_symbol
_atom_site_label
_atom_site_fract_x
_atom_site_fract_y
_atom_site_fract_z
Si Si1 0.981863 0.056382 0.554354
Si Si2 0.824272 0.208398 0.201188
Si Si3 0.980743 0.583909 0.651891
Si Si4 0.693588 0.928107 0.555040
Si Si5 0.912641 0.479490 0.049247
Si Si6 0.257130 0.199846 0.152808
O O1 0.063220 0.908428 0.555439
O O2 0.000000 0.109894 0.500000
O O3 0.821102 0.033405 0.563435
O O4 0.065485 0.160145 0.587736
O O5 0.888938 0.312578 0.161810
O O6 0.867553 0.275762 0.252398
O O7 0.662589 0.175276 0.202163
O O8 0.998483 0.452878 0.686742
O O9 0.988596 0.535569 0.596423
O O10 0.841936 0.670107 0.661907
O O11 0.699497 0.811442 0.596913
O O12 0.816896 0.611235 0.062430
O O13 0.000000 0.494646 0.000000
#
# Coordination Sequence:
#
# PCOD9547699 Si02
#       6
#     8   8   8   8   8   8
#     4   9  17  31  53  78 103 136 182 230 270 316
#     4  10  19  34  56  79 104 141 188 231 269 318
#     4  10  21  36  56  82 112 145 184 229 277 330
#     4  10  19  32  56  81 106 140 184 227 269 324
#     4  11  21  34  56  83 112 145 183 229 280 332
#     4  10  20  33  52  81 112 141 176 224 279 330
#
# _framework density 18.663339000000001
#
# number of rings (size 3 to 8) (size 9 to 14) (size 15 to 20)
#    0.000    2.000    0.000    5.500    0.000    2.667 
#    0.000    0.000    0.000   34.000    0.000    0.000 
#    0.000    0.000    0.000    0.000    0.000    0.000 
#
# Total GULP energy -267895.443572 kJ/mol
# GULP energy per Si atom -5581.155074 kJ/mol
# Density = 1.862086 g / cm^3
# Si number density = 18.663339 Si / 1000 Ang^3
#
#
#
# Elastic Constant Matrix: (Units=GPa)
#
#
# Indices 1 2 3 4 5 6 
#
# 1 -39.2167 193.1393 25.5670 0.0000 0.0000 0.0000
# 2 193.1393 -39.2167 25.5670 0.0000 0.0000 0.0000
# 3 25.5670 25.5670 87.6936 0.0000 0.0000 0.0000
# 4 0.0000 0.0000 0.0000 8.5558 0.0000 0.0000
# 5 0.0000 0.0000 0.0000 0.0000 8.5558 0.0000
# 6 0.0000 0.0000 0.0000 0.0000 0.0000 10.1005
#
#
#
# Elastic Compliance Matrix: (Units=1/GPa)
#
#
# Indices 1 2 3 4 5 6 
#
# 1 0.001445 0.005749 -0.002097 0.000000 0.000000 0.000000
# 2 0.005749 0.001445 -0.002097 0.000000 0.000000 0.000000
# 3 -0.002097 -0.002097 0.012626 0.000000 0.000000 0.000000
# 4 0.000000 0.000000 0.000000 0.116880 0.000000 0.000000
# 5 0.000000 0.000000 0.000000 0.000000 0.116880 0.000000
# 6 0.000000 0.000000 0.000000 0.000000 0.000000 0.099005
#
#
# Mechanical properties :
#
#
# Convention : Reuss Voigt Hill
#
# Bulk Modulus (GPa) = 53.69357 55.31187 54.50272
# Shear Modulus (GPa) = 14.22958 -10.22513 2.00223
#
# Velocity S-wave (km/s) = 2.76422 -2.34321 1.03689
# Velocity P-wave (km/s) = 6.24659 4.73077 5.54076
#
# Compressibility (1/GPa) = 0.01862420
#
# Stress axis : x y z
#
# Youngs Moduli (GPa) = 692.09967 692.09967 79.20008
#
# Poissons Ratio (x) = -3.97862 0.16610
# Poissons Ratio (y) = -3.97862 0.16610
# Poissons Ratio (z) = 1.45151 1.45151
#
# Static dielectric constant tensor:
#      x y z
#    x 1.632890 0.000000 0.000000 
#    y 0.000000 1.632890 0.000000 
#    z 0.000000 0.000000 1.716700 
# 
# From -- ./inp_files/7929.got.cif
#   From: 2010.05.17/outbox.cif.g08.bks.cpg/sg91_4_cif.got.tgz:7929.got - 2010.06.03 19:20:03.
