data_PCOD9547401
_publ_section_title
;
Structure prediction by ZEFSAII (Michael W. Deem and Ramdas Pophale) SiO2 
 PCOD9547401
Probable space group: P 4 21 2
;
_chemical_formula_sum "Si O2"
_cell_formula_units_Z 56
_cell_length_a 13.894470
_cell_length_b 13.894470
_cell_length_c 11.884182
_cell_angle_alpha 90.000000
_cell_angle_beta 90.000000
_cell_angle_gamma 90.000000
_cell_volume 2294.316165
_symmetry_space_group_name_H-M "P 4 21 2"
_symmetry_group_IT_number 90
_symmetry_cell_setting 'tetragonal'
loop_
_space_group_symop_operation_xyz
x,y,z
1/2-y,1/2+x,z
-x,-y,z
1/2+y,1/2-x,z
1/2+x,1/2-y,-z
1/2-x,1/2+y,-z
y,x,-z
-y,-x,-z
loop_
_atom_site_type_symbol
_atom_site_label
_atom_site_fract_x
_atom_site_fract_y
_atom_site_fract_z
Si Si1 0.525916 0.655385 0.750570
Si Si2 0.333607 0.672543 0.873886
Si Si3 0.342678 0.177921 0.736208
Si Si4 0.640291 0.071743 0.981295
Si Si5 0.048466 0.788888 0.839761
Si Si6 0.519575 0.838352 0.379188
Si Si7 0.923817 0.784653 0.441015
O O1 0.447466 0.687020 0.844592
O O2 0.588212 0.740137 0.693967
O O3 0.607607 0.592303 0.807148
O O4 0.459848 0.629953 0.643577
O O5 0.281447 0.742972 0.787290
O O6 0.313350 0.562133 0.860801
O O7 0.305253 0.694748 0.000000
O O8 0.305519 0.105984 0.640725
O O9 0.400699 0.144943 0.848661
O O10 0.540232 0.123115 0.011599
O O11 0.734939 0.095321 0.053151
O O12 0.044022 0.713959 0.737367
O O13 0.602230 0.919151 0.389720
O O14 0.500915 0.753695 0.469532
O O15 0.829104 0.829104 0.500000
#
# Coordination Sequence:
#
# PCOD9547401 Si02
#       7
#     8   8   8   8   8   8   8
#     4  11  26  44  70 107 144 203 254 319 400 474
#     4  11  25  44  68 103 150 196 253 317 379 470
#     4  11  24  44  74 107 147 196 259 323 399 481
#     4  11  24  43  71 110 153 201 255 323 397 474
#     4  12  26  43  71 106 152 197 260 315 392 480
#     4  11  25  44  71 104 144 192 247 317 396 469
#     4  11  25  49  77 106 152 196 265 333 398 480
#
# _framework density 24.408145999999999
#
# number of rings (size 3 to 8) (size 9 to 14) (size 15 to 20)
#    0.000    0.857    0.000    7.286    8.000    4.000 
#    0.000    3.571    0.000    0.000    0.000    0.000 
#    0.000    0.000    0.000    0.000    0.000    0.000 
#
# Total GULP energy -312754.743629 kJ/mol
# GULP energy per Si atom -5584.906136 kJ/mol
# Density = 2.435259 g / cm^3
# Si number density = 24.408146 Si / 1000 Ang^3
#
#
#
# Elastic Constant Matrix: (Units=GPa)
#
#
# Indices 1 2 3 4 5 6 
#
# 1 71.6139 55.6031 29.7708 0.0000 0.0000 0.0000
# 2 55.6031 71.6146 29.7714 0.0000 0.0000 0.0000
# 3 29.7708 29.7714 106.1090 0.0000 0.0000 0.0000
# 4 0.0000 0.0000 0.0000 33.9491 0.0000 0.0000
# 5 0.0000 0.0000 0.0000 0.0000 33.9494 0.0000
# 6 0.0000 0.0000 0.0000 0.0000 0.0000 33.4924
#
#
#
# Elastic Compliance Matrix: (Units=1/GPa)
#
#
# Indices 1 2 3 4 5 6 
#
# 1 0.035753 -0.026704 -0.002539 0.000000 0.000000 0.000000
# 2 -0.026704 0.035752 -0.002539 0.000000 0.000000 0.000000
# 3 -0.002539 -0.002539 0.010849 0.000000 0.000000 0.000000
# 4 0.000000 0.000000 0.000000 0.029456 0.000000 0.000000
# 5 0.000000 0.000000 0.000000 0.000000 0.029456 0.000000
# 6 0.000000 0.000000 0.000000 0.000000 0.000000 0.029858
#
#
# Mechanical properties :
#
#
# Convention : Reuss Voigt Hill
#
# Bulk Modulus (GPa) = 53.21631 53.29199 53.25415
# Shear Modulus (GPa) = 20.75122 29.22432 24.98777
#
# Velocity S-wave (km/s) = 2.91894 3.46398 3.20308
# Velocity P-wave (km/s) = 5.76284 6.15467 5.96198
#
# Compressibility (1/GPa) = 0.01879123
#
# Stress axis : x y z
#
# Youngs Moduli (GPa) = 27.96994 27.97010 92.17504
#
# Poissons Ratio (x) = 0.74691 0.23400
# Poissons Ratio (y) = 0.74690 0.23403
# Poissons Ratio (z) = 0.07101 0.07102
#
# Static dielectric constant tensor:
#      x y z
#    x 2.000270 0.000000 0.000000 
#    y 0.000000 2.000270 0.000000 
#    z 0.000000 0.000000 1.972000 
# 
# From -- ./inp_files/2265.got.cif
#   From: 2010.05.17/outbox.cif.g08.bks.cpg/sg90_2_cif.got.tgz:2265.got - 2010.06.03 19:17:45.
