data_PCOD9547882
_publ_section_title
;
Structure prediction by ZEFSAII (Michael W. Deem and Ramdas Pophale) SiO2 
 PCOD9547882
Probable space group: P 41 2 2
;
_chemical_formula_sum "Si O2"
_cell_formula_units_Z 60
_cell_length_a 17.434860
_cell_length_b 17.434860
_cell_length_c 9.678240
_cell_angle_alpha 90.000000
_cell_angle_beta 90.000000
_cell_angle_gamma 90.000000
_cell_volume 2941.936648
_symmetry_space_group_name_H-M "P 41 2 2"
_symmetry_group_IT_number 91
_symmetry_cell_setting 'tetragonal'
loop_
_space_group_symop_operation_xyz
x,y,z
-y,x,1/4+z
-x,-y,1/2+z
y,-x,3/4+z
x,-y,1/2-z
-x,y,-z
y,x,3/4-z
-y,-x,1/4-z
loop_
_atom_site_type_symbol
_atom_site_label
_atom_site_fract_x
_atom_site_fract_y
_atom_site_fract_z
Si Si1 0.599857 0.944087 0.630495
Si Si2 0.561782 0.789471 0.122224
Si Si3 0.453775 0.226066 0.126718
Si Si4 0.351904 0.049176 0.612700
Si Si5 0.111792 0.111792 0.375000
Si Si6 0.877019 0.769732 0.125233
Si Si7 0.003757 0.817967 0.335026
Si Si8 0.715003 0.289788 0.294354
O O1 0.553853 0.866127 0.616363
O O2 0.686556 0.913734 0.657705
O O3 0.571739 0.000000 0.750000
O O4 0.604847 0.996804 0.497346
O O5 0.506881 0.761784 0.243845
O O6 0.601925 0.872867 0.134003
O O7 0.637094 0.736555 0.131866
O O8 0.500000 0.791701 0.000000
O O9 0.370146 0.260886 0.112452
O O10 0.500000 0.258649 0.000000
O O11 0.349300 0.000000 0.750000
O O12 0.261300 0.054145 0.571869
O O13 0.112392 0.181040 0.486255
O O14 0.040983 0.120132 0.268949
O O15 0.922917 0.799252 0.260891
O O16 0.788022 0.763495 0.167923
O O17 0.000000 0.836494 0.500000
O O18 0.707481 0.292520 0.125000
#
# Coordination Sequence:
#
# PCOD9547882 Si02
#       8
#     8   8   8   8   4   8   8   8
#     4  10  20  36  57  92 139 179 214 266 336 416
#     4  12  26  42  67 104 142 175 223 288 347 411
#     4  11  23  41  65  95 131 180 229 274 336 411
#     4  10  21  37  61  96 143 184 218 266 347 423
#     4  12  22  38  64  98 140 178 240 302 362 374
#     4  10  23  39  67  97 133 182 242 290 344 424
#     4  10  23  40  65 100 142 187 241 300 354 422
#     4  11  25  44  73  96 135 185 237 279 348 429
#
# _framework density 20.394729000000002
#
# number of rings (size 3 to 8) (size 9 to 14) (size 15 to 20)
#    0.000    1.333    1.333    4.400    7.467    6.933 
#    0.000    0.000    0.000    8.800    0.000    0.000 
#    0.000    0.000    0.000    0.000    0.000    0.000 
#
# Total GULP energy -334848.480225 kJ/mol
# GULP energy per Si atom -5580.808004 kJ/mol
# Density = 2.034831 g / cm^3
# Si number density = 20.394729 Si / 1000 Ang^3
#
#
#
# Elastic Constant Matrix: (Units=GPa)
#
#
# Indices 1 2 3 4 5 6 
#
# 1 81.3201 56.5967 31.7363 0.0000 0.0000 0.0000
# 2 56.5967 81.3204 31.7363 0.0000 0.0000 0.0000
# 3 31.7363 31.7363 90.4096 0.0000 0.0000 0.0000
# 4 0.0000 0.0000 0.0000 25.0992 0.0000 0.0000
# 5 0.0000 0.0000 0.0000 0.0000 25.0991 0.0000
# 6 0.0000 0.0000 0.0000 0.0000 0.0000 21.0541
#
#
#
# Elastic Compliance Matrix: (Units=1/GPa)
#
#
# Indices 1 2 3 4 5 6 
#
# 1 0.024548 -0.015900 -0.003036 0.000000 0.000000 0.000000
# 2 -0.015900 0.024547 -0.003036 0.000000 0.000000 0.000000
# 3 -0.003036 -0.003036 0.013192 0.000000 0.000000 0.000000
# 4 0.000000 0.000000 0.000000 0.039842 0.000000 0.000000
# 5 0.000000 0.000000 0.000000 0.000000 0.039842 0.000000
# 6 0.000000 0.000000 0.000000 0.000000 0.000000 0.047497
#
#
# Mechanical properties :
#
#
# Convention : Reuss Voigt Hill
#
# Bulk Modulus (GPa) = 54.51053 54.79872 54.65462
# Shear Modulus (GPa) = 20.87467 23.11586 21.99526
#
# Velocity S-wave (km/s) = 3.20274 3.37029 3.28758
# Velocity P-wave (km/s) = 6.36101 6.48633 6.42398
#
# Compressibility (1/GPa) = 0.01834508
#
# Stress axis : x y z
#
# Youngs Moduli (GPa) = 40.73719 40.73739 75.80383
#
# Poissons Ratio (x) = 0.64771 0.23011
# Poissons Ratio (y) = 0.64771 0.23011
# Poissons Ratio (z) = 0.12366 0.12366
#
# Static dielectric constant tensor:
#      x y z
#    x 1.743150 0.000000 0.000000 
#    y 0.000000 1.743150 0.000000 
#    z 0.000000 0.000000 1.782710 
# 
# From -- ./inp_files/15302.got.cif
#   From: 2010.05.17/outbox.cif.g08.bks.cpg/sg91_8_cif.got.tgz:15302.got - 2010.06.03 19:20:03.
