data_PCOD9547858
_publ_section_title
;
Structure prediction by ZEFSAII (Michael W. Deem and Ramdas Pophale) SiO2 
 PCOD9547858
Probable space group: P 41 2 2
;
_chemical_formula_sum "Si O2"
_cell_formula_units_Z 40
_cell_length_a 19.909869
_cell_length_b 19.909869
_cell_length_c 4.806797
_cell_angle_alpha 90.000000
_cell_angle_beta 90.000000
_cell_angle_gamma 90.000000
_cell_volume 1905.428192
_symmetry_space_group_name_H-M "P 41 2 2"
_symmetry_group_IT_number 91
_symmetry_cell_setting 'tetragonal'
loop_
_space_group_symop_operation_xyz
x,y,z
-y,x,1/4+z
-x,-y,1/2+z
y,-x,3/4+z
x,-y,1/2-z
-x,y,-z
y,x,3/4-z
-y,-x,1/4-z
loop_
_atom_site_type_symbol
_atom_site_label
_atom_site_fract_x
_atom_site_fract_y
_atom_site_fract_z
Si Si1 0.246092 0.648829 0.576757
Si Si2 0.367219 0.932918 0.090895
Si Si3 0.891153 0.280786 0.170970
Si Si4 0.927136 0.863604 0.139107
Si Si5 0.794150 0.567200 0.914084
O O1 0.317169 0.682832 0.625000
O O2 0.186848 0.702544 0.629694
O O3 0.239429 0.626886 0.260291
O O4 0.227550 0.584650 0.772205
O O5 0.303671 0.910373 0.271636
O O6 0.421963 0.874260 0.128803
O O7 0.391297 0.000000 0.250000
O O8 0.334132 0.928893 0.784037
O O9 0.909981 0.203130 0.178697
O O10 0.920752 0.920752 0.375000
O O11 0.878061 0.878061 0.875000
O O12 0.000000 0.857948 0.000000
O O13 0.775206 0.500000 0.750000
#
# Coordination Sequence:
#
# PCOD9547858 Si02
#       5
#     8   8   8   8   8
#     4  10  20  36  60  87 117 152 193 238 286 337
#     4  10  20  35  57  83 115 154 191 230 277 336
#     4  10  21  37  59  85 110 138 184 242 294 338
#     4  12  26  43  62  80 102 137 181 236 301 366
#     4  10  21  37  56  85 124 161 194 236 282 333
#
# _framework density 20.992659
#
# number of rings (size 3 to 8) (size 9 to 14) (size 15 to 20)
#    0.000    1.600    0.000    4.800    0.000    5.600 
#    0.000    6.000    0.000    0.000    0.000    0.000 
#    0.000   22.400    0.000    0.000    0.000    0.000 
#
# Total GULP energy -222996.044873 kJ/mol
# GULP energy per Si atom -5574.901122 kJ/mol
# Density = 2.094488 g / cm^3
# Si number density = 20.992659 Si / 1000 Ang^3
#
#
#
# Elastic Constant Matrix: (Units=GPa)
#
#
# Indices 1 2 3 4 5 6 
#
# 1 43.5269 22.0650 5.2289 0.0000 0.0000 0.0000
# 2 22.0650 43.5300 5.2294 0.0000 0.0000 0.0000
# 3 5.2289 5.2294 91.8212 0.0000 0.0000 0.0000
# 4 0.0000 0.0000 0.0000 3.9992 0.0000 0.0000
# 5 0.0000 0.0000 0.0000 0.0000 3.9916 0.0000
# 6 0.0000 0.0000 0.0000 0.0000 0.0000 10.2489
#
#
#
# Elastic Compliance Matrix: (Units=1/GPa)
#
#
# Indices 1 2 3 4 5 6 
#
# 1 0.030989 -0.015603 -0.000876 0.000000 0.000000 0.000000
# 2 -0.015603 0.030987 -0.000876 0.000000 0.000000 0.000000
# 3 -0.000876 -0.000876 0.010991 0.000000 0.000000 0.000000
# 4 0.000000 0.000000 0.000000 0.250052 0.000000 0.000000
# 5 0.000000 0.000000 0.000000 0.000000 0.250525 0.000000
# 6 0.000000 0.000000 0.000000 0.000000 0.000000 0.097572
#
#
# Mechanical properties :
#
#
# Convention : Reuss Voigt Hill
#
# Bulk Modulus (GPa) = 26.13963 27.10274 26.62118
# Shear Modulus (GPa) = 6.95819 13.40492 10.18155
#
# Velocity S-wave (km/s) = 1.82257 2.52970 2.20467
# Velocity P-wave (km/s) = 4.11192 4.63369 4.38058
#
# Compressibility (1/GPa) = 0.03825609
#
# Stress axis : x y z
#
# Youngs Moduli (GPa) = 32.26948 32.27171 90.98742
#
# Poissons Ratio (x) = 0.50353 0.07971
# Poissons Ratio (y) = 0.50350 0.07973
# Poissons Ratio (z) = 0.02827 0.02828
#
# Static dielectric constant tensor:
#      x y z
#    x 1.794770 0.000000 0.000000 
#    y 0.000000 1.794770 0.000000 
#    z 0.000000 0.000000 1.722260 
# 
# From -- ./inp_files/8529.got.cif
#   From: 2010.05.17/outbox.cif.g08.bks.cpg/sg91_5_cif.got.tgz:8529.got - 2010.06.03 19:20:03.
