data_PCOD9547828
_publ_section_title
;
Structure prediction by ZEFSAII (Michael W. Deem and Ramdas Pophale) SiO2 
 PCOD9547828
Probable space group: P 41 2 2
;
_chemical_formula_sum "Si O2"
_cell_formula_units_Z 60
_cell_length_a 16.324148
_cell_length_b 16.324148
_cell_length_c 13.559653
_cell_angle_alpha 90.000000
_cell_angle_beta 90.000000
_cell_angle_gamma 90.000000
_cell_volume 3613.346608
_symmetry_space_group_name_H-M "P 41 2 2"
_symmetry_group_IT_number 91
_symmetry_cell_setting 'tetragonal'
loop_
_space_group_symop_operation_xyz
x,y,z
-y,x,1/4+z
-x,-y,1/2+z
y,-x,3/4+z
x,-y,1/2-z
-x,y,-z
y,x,3/4-z
-y,-x,1/4-z
loop_
_atom_site_type_symbol
_atom_site_label
_atom_site_fract_x
_atom_site_fract_y
_atom_site_fract_z
Si Si1 0.181088 0.633812 0.404202
Si Si2 0.406562 0.972442 0.977417
Si Si3 0.299448 0.757382 0.334885
Si Si4 0.330315 0.483535 0.078705
Si Si5 0.935823 0.356199 0.415295
Si Si6 0.654880 0.543750 0.143094
Si Si7 0.672507 0.327494 0.625000
Si Si8 0.916433 0.545454 0.437025
O O1 0.103570 0.630698 0.331221
O O2 0.224016 0.720947 0.396263
O O3 0.254078 0.569831 0.382542
O O4 0.148727 0.601083 0.508640
O O5 0.417947 0.055591 0.915405
O O6 0.500000 0.945884 0.000000
O O7 0.359603 0.004298 0.071789
O O8 0.301594 0.855133 0.335489
O O9 0.382535 0.720606 0.383128
O O10 0.296660 0.718302 0.223959
O O11 0.411638 0.434081 0.110281
O O12 0.318599 0.573946 0.122675
O O13 0.333769 0.491511 0.958143
O O14 0.899395 0.448971 0.429931
O O15 0.000000 0.336670 0.500000
O O16 0.663209 0.500000 0.250000
O O17 0.000000 0.548463 0.500000
#
# Coordination Sequence:
#
# PCOD9547828 Si02
#       8
#     8   8   8   8   8   8   4   8
#     4  10  20  34  52  76 106 134 177 216 270 327
#     4   9  19  31  56  78  98 138 174 219 268 325
#     4  10  23  34  50  77 103 134 175 222 279 322
#     4  10  22  33  48  71  97 145 193 229 263 316
#     4  10  20  35  52  76 104 135 177 221 270 330
#     4  10  21  35  49  67  99 144 188 240 269 304
#     4  10  22  34  48  72 106 144 180 236 258 304
#     4   8  15  31  51  75 100 132 171 211 255 319
#
# _framework density 16.605104999999998
#
# number of rings (size 3 to 8) (size 9 to 14) (size 15 to 20)
#    0.000    2.400    0.000    2.800    5.600    6.400 
#    0.000    2.000    0.000    0.000    0.000    0.000 
#    0.000    9.600    0.000    0.000    0.000    0.000 
#
# Total GULP energy -334246.417369 kJ/mol
# GULP energy per Si atom -5570.773623 kJ/mol
# Density = 1.656731 g / cm^3
# Si number density = 16.605105 Si / 1000 Ang^3
#
#
#
# Elastic Constant Matrix: (Units=GPa)
#
#
# Indices 1 2 3 4 5 6 
#
# 1 69.0851 30.6587 9.7095 0.0000 0.0000 0.0000
# 2 30.6587 69.0858 9.7097 0.0000 0.0000 0.0000
# 3 9.7095 9.7097 22.4176 0.0000 0.0000 0.0000
# 4 0.0000 0.0000 0.0000 16.7286 0.0000 0.0000
# 5 0.0000 0.0000 0.0000 0.0000 16.7286 0.0000
# 6 0.0000 0.0000 0.0000 0.0000 0.0000 30.7882
#
#
#
# Elastic Compliance Matrix: (Units=1/GPa)
#
#
# Indices 1 2 3 4 5 6 
#
# 1 0.018486 -0.007537 -0.004742 0.000000 0.000000 0.000000
# 2 -0.007537 0.018486 -0.004742 0.000000 0.000000 0.000000
# 3 -0.004742 -0.004742 0.048716 0.000000 0.000000 0.000000
# 4 0.000000 0.000000 0.000000 0.059778 0.000000 0.000000
# 5 0.000000 0.000000 0.000000 0.000000 0.059778 0.000000
# 6 0.000000 0.000000 0.000000 0.000000 0.000000 0.032480
#
#
# Mechanical properties :
#
#
# Convention : Reuss Voigt Hill
#
# Bulk Modulus (GPa) = 19.36307 28.97159 24.16733
# Shear Modulus (GPa) = 17.30209 20.21645 18.75927
#
# Velocity S-wave (km/s) = 3.23146 3.49303 3.36479
# Velocity P-wave (km/s) = 5.06057 5.80979 5.44807
#
# Compressibility (1/GPa) = 0.05164469
#
# Stress axis : x y z
#
# Youngs Moduli (GPa) = 54.09409 54.09453 20.52721
#
# Poissons Ratio (x) = 0.40773 0.09734
# Poissons Ratio (y) = 0.40772 0.09735
# Poissons Ratio (z) = 0.25652 0.25653
#
# Static dielectric constant tensor:
#      x y z
#    x 1.561740 0.000000 0.000000 
#    y 0.000000 1.561740 0.000000 
#    z 0.000000 0.000000 1.674060 
# 
# From -- ./inp_files/5012.got.cif
#   From: 2010.05.17/outbox.cif.g08.bks.cpg/sg91_3_cif.got.tgz:5012.got - 2010.06.03 19:20:03.
