data_PCOD9547411
_publ_section_title
;
Structure prediction by ZEFSAII (Michael W. Deem and Ramdas Pophale) SiO2 
 PCOD9547411
Probable space group: P 4 21 2
;
_chemical_formula_sum "Si O2"
_cell_formula_units_Z 36
_cell_length_a 8.739094
_cell_length_b 8.739094
_cell_length_c 21.801562
_cell_angle_alpha 90.000000
_cell_angle_beta 90.000000
_cell_angle_gamma 90.000000
_cell_volume 1665.023747
_symmetry_space_group_name_H-M "P 4 21 2"
_symmetry_group_IT_number 90
_symmetry_cell_setting 'tetragonal'
loop_
_space_group_symop_operation_xyz
x,y,z
1/2-y,1/2+x,z
-x,-y,z
1/2+y,1/2-x,z
1/2+x,1/2-y,-z
1/2-x,1/2+y,-z
y,x,-z
-y,-x,-z
loop_
_atom_site_type_symbol
_atom_site_label
_atom_site_fract_x
_atom_site_fract_y
_atom_site_fract_z
Si Si1 0.587017 0.241522 0.801775
Si Si2 0.768372 0.406417 0.547854
Si Si3 0.754767 0.958246 0.105969
Si Si4 0.920642 0.833909 0.339243
Si Si5 0.000000 0.500000 0.373529
Si Si6 0.000000 0.000000 0.000000
O O1 0.411565 0.188716 0.813529
O O2 0.634212 0.387175 0.842146
O O3 0.608915 0.280858 0.730279
O O4 0.810697 0.579950 0.535754
O O5 0.640715 0.359286 0.500000
O O6 0.721132 0.369960 0.616926
O O7 0.619048 0.832921 0.109843
O O8 0.854504 0.980685 0.044676
O O9 0.011665 0.689924 0.368906
O O10 0.000000 0.000000 0.336324
#
# Coordination Sequence:
#
# PCOD9547411 Si02
#       6
#     8   8   8   8   2   2
#     4  11  24  45  73 112 153 201 252 311 392 474
#     4  11  29  48  71 106 143 193 260 328 402 480
#     4  11  26  44  71 109 147 198 255 318 384 448
#     4  12  26  44  76 111 150 206 255 317 400 471
#     4  12  24  48  72 112 156 208 264 320 398 496
#     4  12  24  48  72  96 148 204 254 312 378 458
#
# _framework density 21.621314000000002
#
# number of rings (size 3 to 8) (size 9 to 14) (size 15 to 20)
#    0.000    0.667    2.222    3.333   10.889    0.000 
#    0.000    4.444    0.000    0.000    0.000    0.000 
#    0.000    0.000    0.000    0.000    0.000    0.000 
#
# Total GULP energy -200559.300466 kJ/mol
# GULP energy per Si atom -5571.091680 kJ/mol
# Density = 2.157210 g / cm^3
# Si number density = 21.621314 Si / 1000 Ang^3
#
#
#
# Elastic Constant Matrix: (Units=GPa)
#
#
# Indices 1 2 3 4 5 6 
#
# 1 192.6401 -10.8328 33.9458 0.0000 0.0000 0.0000
# 2 -10.8328 192.6461 33.9466 0.0000 0.0000 0.0000
# 3 33.9458 33.9466 63.0503 0.0000 0.0000 0.0000
# 4 0.0000 0.0000 0.0000 31.2204 0.0000 0.0000
# 5 0.0000 0.0000 0.0000 0.0000 31.2190 0.0000
# 6 0.0000 0.0000 0.0000 0.0000 0.0000 31.4306
#
#
#
# Elastic Compliance Matrix: (Units=1/GPa)
#
#
# Indices 1 2 3 4 5 6 
#
# 1 0.005900 0.000985 -0.003707 0.000000 0.000000 0.000000
# 2 0.000985 0.005899 -0.003707 0.000000 0.000000 0.000000
# 3 -0.003707 -0.003707 0.019852 0.000000 0.000000 0.000000
# 4 0.000000 0.000000 0.000000 0.032030 0.000000 0.000000
# 5 0.000000 0.000000 0.000000 0.000000 0.032032 0.000000
# 6 0.000000 0.000000 0.000000 0.000000 0.000000 0.031816
#
#
# Mechanical properties :
#
#
# Convention : Reuss Voigt Hill
#
# Bulk Modulus (GPa) = 53.20808 62.49505 57.85157
# Shear Modulus (GPa) = 34.09484 44.85912 39.47698
#
# Velocity S-wave (km/s) = 3.97534 4.55990 4.27762
# Velocity P-wave (km/s) = 6.76266 7.52932 7.15627
#
# Compressibility (1/GPa) = 0.01879414
#
# Stress axis : x y z
#
# Youngs Moduli (GPa) = 169.50446 169.50939 50.37398
#
# Poissons Ratio (x) = -0.16695 0.18671
# Poissons Ratio (y) = -0.16694 0.18671
# Poissons Ratio (z) = 0.62827 0.62829
#
# Static dielectric constant tensor:
#      x y z
#    x 1.786970 0.000000 0.000000 
#    y 0.000000 1.786970 0.000000 
#    z 0.000000 0.000000 1.780400 
# 
# From -- ./inp_files/2771.got.cif
#   From: 2010.05.17/outbox.cif.g08.bks.cpg/sg90_2_cif.got.tgz:2771.got - 2010.06.03 19:17:45.
