data_PCOD9547352
_publ_section_title
;
Structure prediction by ZEFSAII (Michael W. Deem and Ramdas Pophale) SiO2 
 PCOD9547352
Probable space group: P 4 21 2
;
_chemical_formula_sum "Si O2"
_cell_formula_units_Z 48
_cell_length_a 8.359842
_cell_length_b 8.359842
_cell_length_c 33.727192
_cell_angle_alpha 90.000000
_cell_angle_beta 90.000000
_cell_angle_gamma 90.000000
_cell_volume 2357.090860
_symmetry_space_group_name_H-M "P 4 21 2"
_symmetry_group_IT_number 90
_symmetry_cell_setting 'tetragonal'
loop_
_space_group_symop_operation_xyz
x,y,z
1/2-y,1/2+x,z
-x,-y,z
1/2+y,1/2-x,z
1/2+x,1/2-y,-z
1/2-x,1/2+y,-z
y,x,-z
-y,-x,-z
loop_
_atom_site_type_symbol
_atom_site_label
_atom_site_fract_x
_atom_site_fract_y
_atom_site_fract_z
Si Si1 0.735959 0.453451 0.032463
Si Si2 0.000000 0.000000 0.104562
Si Si3 0.579390 0.257138 0.666643
Si Si4 0.500000 0.500000 0.603334
Si Si5 0.240294 0.077048 0.756232
Si Si6 0.085646 0.758137 0.538136
Si Si7 0.453683 0.736804 0.176526
O O1 0.823968 0.622687 0.028236
O O2 0.647922 0.476004 0.074503
O O3 0.610250 0.389751 0.000000
O O4 0.853879 0.972427 0.134873
O O5 0.397655 0.191774 0.663093
O O6 0.600551 0.385232 0.632325
O O7 0.599219 0.321836 0.711324
O O8 0.622119 0.597400 0.575394
O O9 0.397465 0.190493 0.760242
O O10 0.111275 0.121533 0.789029
O O11 0.195113 0.598247 0.538185
O O12 0.139496 0.860505 0.500000
O O13 0.622821 0.823479 0.179820
#
# Coordination Sequence:
#
# PCOD9547352 Si02
#       7
#     8   4   8   4   8   8   8
#     4  11  24  43  69  99 131 169 211 258 313 375
#     4  12  23  41  62  88 128 170 210 253 305 376
#     4   9  20  37  58  87 122 162 205 248 302 371
#     4  12  21  35  60  90 122 156 198 255 313 364
#     4   9  19  38  62  87 119 163 212 256 304 369
#     4  11  24  42  63  88 120 159 205 255 311 376
#     4  11  24  39  59  89 123 161 208 262 314 361
#
# _framework density 20.364084999999999
#
# number of rings (size 3 to 8) (size 9 to 14) (size 15 to 20)
#    0.000    1.500    0.000    6.500    0.000    3.333 
#    0.000    5.000    0.000    2.000    0.000    0.000 
#    0.000    0.000    0.000    0.000    0.000    0.000 
#
# Total GULP energy -267737.255291 kJ/mol
# GULP energy per Si atom -5577.859485 kJ/mol
# Density = 2.031774 g / cm^3
# Si number density = 20.364085 Si / 1000 Ang^3
#
#
#
# Elastic Constant Matrix: (Units=GPa)
#
#
# Indices 1 2 3 4 5 6 
#
# 1 97.6210 55.1280 76.1281 0.0000 0.0000 0.0000
# 2 55.1280 97.6186 76.1288 0.0000 0.0000 0.0000
# 3 76.1281 76.1288 171.5333 0.0000 0.0000 0.0000
# 4 0.0000 0.0000 0.0000 -193.0054 0.0000 0.0000
# 5 0.0000 0.0000 0.0000 0.0000 -193.3163 0.0000
# 6 0.0000 0.0000 0.0000 0.0000 0.0000 35.6512
#
#
#
# Elastic Compliance Matrix: (Units=1/GPa)
#
#
# Indices 1 2 3 4 5 6 
#
# 1 0.017637 -0.005897 -0.005210 0.000000 0.000000 0.000000
# 2 -0.005897 0.017638 -0.005211 0.000000 0.000000 0.000000
# 3 -0.005210 -0.005211 0.010455 0.000000 0.000000 0.000000
# 4 0.000000 0.000000 0.000000 -0.005181 0.000000 0.000000
# 5 0.000000 0.000000 0.000000 0.000000 -0.005173 0.000000
# 6 0.000000 0.000000 0.000000 0.000000 0.000000 0.028050
#
#
# Mechanical properties :
#
#
# Convention : Reuss Voigt Hill
#
# Bulk Modulus (GPa) = 76.37331 86.83810 81.60570
# Shear Modulus (GPa) = 49.78827 -59.50825 -4.85999
#
# Velocity S-wave (km/s) = 4.94996 -5.41162 -1.54652
# Velocity P-wave (km/s) = 8.38182 1.92039 6.08041
#
# Compressibility (1/GPa) = 0.01309358
#
# Stress axis : x y z
#
# Youngs Moduli (GPa) = 56.69937 56.69674 95.64946
#
# Poissons Ratio (x) = 0.33432 0.49837
# Poissons Ratio (y) = 0.33434 0.49841
# Poissons Ratio (z) = 0.29543 0.29544
#
# Static dielectric constant tensor:
#      x y z
#    x 1.759950 0.000000 0.000000 
#    y 0.000000 1.759950 0.000000 
#    z 0.000000 0.000000 1.701710 
# 
# From -- ./inp_files/3101.got.cif
#   From: 2010.05.17/outbox.cif.g08.bks.cpg/sg90_2_cif.got.tgz:3101.got - 2010.06.03 19:17:45.
