data_PCOD9547963
_publ_section_title
;
Structure prediction by ZEFSAII (Michael W. Deem and Ramdas Pophale) SiO2 
 PCOD9547963
Probable space group: P 41 2 2
;
_chemical_formula_sum "Si O2"
_cell_formula_units_Z 60
_cell_length_a 17.269693
_cell_length_b 17.269693
_cell_length_c 10.479024
_cell_angle_alpha 90.000000
_cell_angle_beta 90.000000
_cell_angle_gamma 90.000000
_cell_volume 3125.288181
_symmetry_space_group_name_H-M "P 41 2 2"
_symmetry_group_IT_number 91
_symmetry_cell_setting 'tetragonal'
loop_
_space_group_symop_operation_xyz
x,y,z
-y,x,1/4+z
-x,-y,1/2+z
y,-x,3/4+z
x,-y,1/2-z
-x,y,-z
y,x,3/4-z
-y,-x,1/4-z
loop_
_atom_site_type_symbol
_atom_site_label
_atom_site_fract_x
_atom_site_fract_y
_atom_site_fract_z
Si Si1 0.942098 0.819328 0.118498
Si Si2 0.792991 0.440807 0.865508
Si Si3 0.042264 0.365035 0.132907
Si Si4 0.542687 0.782565 0.635029
Si Si5 0.059065 0.636829 0.883368
Si Si6 0.181927 0.954102 0.881241
Si Si7 0.438770 0.500000 0.250000
Si Si8 0.343889 0.338255 0.521829
O O1 0.919023 0.728394 0.115184
O O2 0.870358 0.877705 0.110997
O O3 0.989875 0.833579 0.248593
O O4 0.000000 0.832573 0.000000
O O5 0.776336 0.500000 0.750000
O O6 0.881668 0.416150 0.857635
O O7 0.739717 0.365889 0.844658
O O8 0.775048 0.482385 0.998562
O O9 0.063901 0.273697 0.134208
O O10 0.985563 0.378808 0.251502
O O11 0.000000 0.381280 0.000000
O O12 0.500000 0.773069 0.500000
O O13 0.583021 0.866372 0.643154
O O14 0.609411 0.719498 0.659533
O O15 0.000000 0.623721 0.000000
O O16 0.165736 0.000000 0.750000
O O17 0.489725 0.489725 0.375000
O O18 0.386839 0.576228 0.265168
O O19 0.321137 0.321137 0.375000
#
# Coordination Sequence:
#
# PCOD9547963 Si02
#       8
#     8   8   8   8   8   8   4   8
#     4  10  21  37  58  87 122 158 210 257 313 371
#     4  12  23  43  69  96 124 173 220 256 323 393
#     4  10  23  41  63  91 127 171 217 258 319 384
#     4  12  27  43  67 101 133 166 219 272 327 388
#     4  10  23  43  62  95 131 169 212 271 326 376
#     4  10  21  37  57  86 120 165 206 255 313 377
#     4  10  20  38  64  86 124 164 198 250 316 376
#     4  11  23  45  65  97 131 165 217 270 312 395
#
# _framework density 19.198229999999999
#
# number of rings (size 3 to 8) (size 9 to 14) (size 15 to 20)
#    0.000    1.333    2.000    3.200    2.800    5.333 
#    0.000    0.000    0.000    0.000    0.000    0.000 
#    0.000    0.000    0.000    0.000    0.000    0.000 
#
# Total GULP energy -335534.105510 kJ/mol
# GULP energy per Si atom -5592.235092 kJ/mol
# Density = 1.915453 g / cm^3
# Si number density = 19.198230 Si / 1000 Ang^3
#
#
#
# Elastic Constant Matrix: (Units=GPa)
#
#
# Indices 1 2 3 4 5 6 
#
# 1 79.4383 55.8520 49.1466 0.0000 0.0000 0.0000
# 2 55.8520 79.4383 49.1466 0.0000 0.0000 0.0000
# 3 49.1466 49.1466 163.1060 0.0000 0.0000 0.0000
# 4 0.0000 0.0000 0.0000 36.7850 0.0000 0.0000
# 5 0.0000 0.0000 0.0000 0.0000 36.7850 0.0000
# 6 0.0000 0.0000 0.0000 0.0000 0.0000 49.4599
#
#
#
# Elastic Compliance Matrix: (Units=1/GPa)
#
#
# Indices 1 2 3 4 5 6 
#
# 1 0.025930 -0.016467 -0.002851 0.000000 0.000000 0.000000
# 2 -0.016467 0.025930 -0.002851 0.000000 0.000000 0.000000
# 3 -0.002851 -0.002851 0.007849 0.000000 0.000000 0.000000
# 4 0.000000 0.000000 0.000000 0.027185 0.000000 0.000000
# 5 0.000000 0.000000 0.000000 0.000000 0.027185 0.000000
# 6 0.000000 0.000000 0.000000 0.000000 0.000000 0.020218
#
#
# Mechanical properties :
#
#
# Convention : Reuss Voigt Hill
#
# Bulk Modulus (GPa) = 65.06170 70.03032 67.54601
# Shear Modulus (GPa) = 27.20919 35.79515 31.50217
#
# Velocity S-wave (km/s) = 3.76876 4.32267 4.05518
# Velocity P-wave (km/s) = 7.27331 7.84032 7.56213
#
# Compressibility (1/GPa) = 0.01537002
#
# Stress axis : x y z
#
# Youngs Moduli (GPa) = 38.56498 38.56498 127.39931
#
# Poissons Ratio (x) = 0.63505 0.36327
# Poissons Ratio (y) = 0.63505 0.36327
# Poissons Ratio (z) = 0.10996 0.10996
#
# Static dielectric constant tensor:
#      x y z
#    x 1.643530 0.000000 0.000000 
#    y 0.000000 1.643530 0.000000 
#    z 0.000000 0.000000 1.636810 
# 
# From -- ./inp_files/15323.got.cif
#   From: 2010.05.17/outbox.cif.g08.bks.cpg/sg91_8_cif.got.tgz:15323.got - 2010.06.03 19:20:03.
