data_PCOD9547901
_publ_section_title
;
Structure prediction by ZEFSAII (Michael W. Deem and Ramdas Pophale) SiO2 
 PCOD9547901
Probable space group: P 41 2 2
;
_chemical_formula_sum "Si O2"
_cell_formula_units_Z 56
_cell_length_a 11.162714
_cell_length_b 11.162714
_cell_length_c 19.075431
_cell_angle_alpha 90.000000
_cell_angle_beta 90.000000
_cell_angle_gamma 90.000000
_cell_volume 2376.916662
_symmetry_space_group_name_H-M "P 41 2 2"
_symmetry_group_IT_number 91
_symmetry_cell_setting 'tetragonal'
loop_
_space_group_symop_operation_xyz
x,y,z
-y,x,1/4+z
-x,-y,1/2+z
y,-x,3/4+z
x,-y,1/2-z
-x,y,-z
y,x,3/4-z
-y,-x,1/4-z
loop_
_atom_site_type_symbol
_atom_site_label
_atom_site_fract_x
_atom_site_fract_y
_atom_site_fract_z
Si Si1 0.725117 0.811065 0.534865
Si Si2 0.228648 0.579994 0.140139
Si Si3 0.098968 0.322460 0.938993
Si Si4 0.056149 0.133806 0.140558
Si Si5 0.865844 0.574615 0.010685
Si Si6 0.685192 0.935365 0.010427
Si Si7 0.341657 0.704345 0.909127
O O1 0.786135 0.743466 0.470399
O O2 0.666341 0.710539 0.583979
O O3 0.827351 0.858633 0.590620
O O4 0.657121 0.926129 0.505444
O O5 0.300366 0.699635 0.125000
O O6 0.173345 0.533281 0.066874
O O7 0.130903 0.622421 0.195866
O O8 0.323768 0.480718 0.166728
O O9 0.038493 0.238819 0.881365
O O10 0.123931 0.463892 0.934374
O O11 0.000000 0.318449 0.000000
O O12 0.989120 0.010881 0.125000
O O13 0.072695 0.170726 0.222323
O O14 0.758139 0.657430 0.037439
O O15 0.000000 0.627339 0.000000
O O16 0.646191 0.848573 0.075278
#
# Coordination Sequence:
#
# PCOD9547901 Si02
#       7
#     8   8   8   8   8   8   8
#     4  10  20  38  61  95 132 172 224 271 341 411
#     4  12  25  45  69  94 132 184 230 284 344 404
#     4   9  18  37  63  89 128 180 222 263 339 417
#     4  10  20  36  61  94 135 183 215 272 345 414
#     4  11  23  43  70  97 133 175 228 281 345 414
#     4  11  23  38  64  99 132 169 229 277 335 408
#     4  11  24  45  67  96 135 179 228 289 343 408
#
# _framework density 23.559933000000001
#
# number of rings (size 3 to 8) (size 9 to 14) (size 15 to 20)
#    0.000    1.429    4.286    1.286    2.000    0.571 
#    7.714    0.714    0.000    0.000    0.000    0.000 
#    0.000    0.000    0.000    0.000    0.000    0.000 
#
# Total GULP energy -311868.099138 kJ/mol
# GULP energy per Si atom -5569.073199 kJ/mol
# Density = 2.350631 g / cm^3
# Si number density = 23.559933 Si / 1000 Ang^3
#
#
#
# Elastic Constant Matrix: (Units=GPa)
#
#
# Indices 1 2 3 4 5 6 
#
# 1 51.7907 18.6453 12.2946 0.0000 0.0000 0.0000
# 2 18.6453 51.7878 12.2943 0.0000 0.0000 0.0000
# 3 12.2946 12.2943 64.4834 0.0000 0.0000 0.0000
# 4 0.0000 0.0000 0.0000 26.1583 0.0000 0.0000
# 5 0.0000 0.0000 0.0000 0.0000 26.1582 0.0000
# 6 0.0000 0.0000 0.0000 0.0000 0.0000 23.3739
#
#
#
# Elastic Compliance Matrix: (Units=1/GPa)
#
#
# Indices 1 2 3 4 5 6 
#
# 1 0.022690 -0.007481 -0.002900 0.000000 0.000000 0.000000
# 2 -0.007481 0.022691 -0.002900 0.000000 0.000000 0.000000
# 3 -0.002900 -0.002900 0.016614 0.000000 0.000000 0.000000
# 4 0.000000 0.000000 0.000000 0.038229 0.000000 0.000000
# 5 0.000000 0.000000 0.000000 0.000000 0.038229 0.000000
# 6 0.000000 0.000000 0.000000 0.000000 0.000000 0.042783
#
#
# Mechanical properties :
#
#
# Convention : Reuss Voigt Hill
#
# Bulk Modulus (GPa) = 28.22165 28.28117 28.25141
# Shear Modulus (GPa) = 22.76783 23.45991 23.11387
#
# Velocity S-wave (km/s) = 3.11204 3.15898 3.13560
# Velocity P-wave (km/s) = 4.99176 5.03344 5.01265
#
# Compressibility (1/GPa) = 0.03543379
#
# Stress axis : x y z
#
# Youngs Moduli (GPa) = 44.07220 44.06970 60.19130
#
# Poissons Ratio (x) = 0.32967 0.17455
# Poissons Ratio (y) = 0.32969 0.17456
# Poissons Ratio (z) = 0.12781 0.12780
#
# Static dielectric constant tensor:
#      x y z
#    x 2.003560 0.000000 0.000000 
#    y 0.000000 2.003560 0.000000 
#    z 0.000000 0.000000 2.011460 
# 
# From -- ./inp_files/6415.got.cif
#   From: 2010.05.17/outbox.cif.g08.bks.cpg/sg91_4_cif.got.tgz:6415.got - 2010.06.03 19:20:03.
