data_PCOD9547877
_publ_section_title
;
Structure prediction by ZEFSAII (Michael W. Deem and Ramdas Pophale) SiO2 
 PCOD9547877
Probable space group: P 41 2 2
;
_chemical_formula_sum "Si O2"
_cell_formula_units_Z 24
_cell_length_a 9.652742
_cell_length_b 9.652742
_cell_length_c 13.595279
_cell_angle_alpha 90.000000
_cell_angle_beta 90.000000
_cell_angle_gamma 90.000000
_cell_volume 1266.745941
_symmetry_space_group_name_H-M "P 41 2 2"
_symmetry_group_IT_number 91
_symmetry_cell_setting 'tetragonal'
loop_
_space_group_symop_operation_xyz
x,y,z
-y,x,1/4+z
-x,-y,1/2+z
y,-x,3/4+z
x,-y,1/2-z
-x,y,-z
y,x,3/4-z
-y,-x,1/4-z
loop_
_atom_site_type_symbol
_atom_site_label
_atom_site_fract_x
_atom_site_fract_y
_atom_site_fract_z
Si Si1 0.878427 0.272770 0.421166
Si Si2 0.659464 0.962451 0.028910
Si Si3 0.554523 0.218976 0.111938
O O1 0.761351 0.157637 0.436765
O O2 0.922838 0.358363 0.136033
O O3 0.000000 0.257120 0.500000
O O4 0.956680 0.277059 0.315649
O O5 0.500000 0.918631 0.000000
O O6 0.421704 0.197877 0.180114
O O7 0.649398 0.350603 0.125000
O O8 0.500000 0.226155 0.000000
#
# Coordination Sequence:
#
# PCOD9547877 Si02
#       3
#     8   8   8
#     4  10  20  36  57  83 111 141 183 230 273 326
#     4   9  21  38  54  80 113 144 182 227 275 331
#     4   9  21  38  54  77 108 141 179 221 269 325
#
# _framework density 18.946183000000001
#
# number of rings (size 3 to 8) (size 9 to 14) (size 15 to 20)
#    0.000    3.333    0.000    1.000    0.000   14.667 
#    0.000    0.000    0.000    0.000    0.000    0.000 
#    0.000    0.000    0.000    0.000    0.000    0.000 
#
# Total GULP energy -133680.106959 kJ/mol
# GULP energy per Si atom -5570.004457 kJ/mol
# Density = 1.890306 g / cm^3
# Si number density = 18.946183 Si / 1000 Ang^3
#
#
#
# Elastic Constant Matrix: (Units=GPa)
#
#
# Indices 1 2 3 4 5 6 
#
# 1 131.3831 121.4779 33.4224 0.0000 0.0000 0.0000
# 2 121.4779 131.3760 33.4219 0.0000 0.0000 0.0000
# 3 33.4224 33.4219 30.7688 0.0000 0.0000 0.0000
# 4 0.0000 0.0000 0.0000 17.2445 0.0000 0.0000
# 5 0.0000 0.0000 0.0000 0.0000 17.2445 0.0000
# 6 0.0000 0.0000 0.0000 0.0000 0.0000 55.7858
#
#
#
# Elastic Compliance Matrix: (Units=1/GPa)
#
#
# Indices 1 2 3 4 5 6 
#
# 1 0.053269 -0.047723 -0.006025 0.000000 0.000000 0.000000
# 2 -0.047723 0.053272 -0.006027 0.000000 0.000000 0.000000
# 3 -0.006025 -0.006027 0.045592 0.000000 0.000000 0.000000
# 4 0.000000 0.000000 0.000000 0.057989 0.000000 0.000000
# 5 0.000000 0.000000 0.000000 0.000000 0.057990 0.000000
# 6 0.000000 0.000000 0.000000 0.000000 0.000000 0.017926
#
#
# Mechanical properties :
#
#
# Convention : Reuss Voigt Hill
#
# Bulk Modulus (GPa) = 30.69086 74.46358 52.57722
# Shear Modulus (GPa) = 12.00623 25.06866 18.53745
#
# Velocity S-wave (km/s) = 2.52007 3.64146 3.13137
# Velocity P-wave (km/s) = 4.97009 7.55436 6.39414
#
# Compressibility (1/GPa) = 0.03258299
#
# Stress axis : x y z
#
# Youngs Moduli (GPa) = 18.77265 18.77148 21.93345
#
# Poissons Ratio (x) = 0.89583 0.13216
# Poissons Ratio (y) = 0.89588 0.13220
# Poissons Ratio (z) = 0.11311 0.11314
#
# Static dielectric constant tensor:
#      x y z
#    x 1.687670 0.000000 0.000000 
#    y 0.000000 1.687670 0.000000 
#    z 0.000000 0.000000 1.685690 
# 
# From -- ./inp_files/14705.got.cif
#   From: 2010.05.17/outbox.cif.g08.bks.cpg/sg91_8_cif.got.tgz:14705.got - 2010.06.03 19:20:03.
