data_PCOD9547627
_publ_section_title
;
Structure prediction by ZEFSAII (Michael W. Deem and Ramdas Pophale) SiO2 
 PCOD9547627
Probable space group: P 41 2 2
;
_chemical_formula_sum "Si O2"
_cell_formula_units_Z 36
_cell_length_a 7.856941
_cell_length_b 7.856941
_cell_length_c 24.930293
_cell_angle_alpha 90.000000
_cell_angle_beta 90.000000
_cell_angle_gamma 90.000000
_cell_volume 1538.984928
_symmetry_space_group_name_H-M "P 41 2 2"
_symmetry_group_IT_number 91
_symmetry_cell_setting 'tetragonal'
loop_
_space_group_symop_operation_xyz
x,y,z
-y,x,1/4+z
-x,-y,1/2+z
y,-x,3/4+z
x,-y,1/2-z
-x,y,-z
y,x,3/4-z
-y,-x,1/4-z
loop_
_atom_site_type_symbol
_atom_site_label
_atom_site_fract_x
_atom_site_fract_y
_atom_site_fract_z
Si Si1 0.699528 0.237277 0.014751
Si Si2 0.656819 0.800450 0.929117
Si Si3 0.160697 0.274817 0.208786
Si Si4 0.806749 0.282244 0.347705
Si Si5 0.633403 0.366598 0.125000
O O1 0.739322 0.331191 0.070248
O O2 0.714373 0.039481 0.029988
O O3 0.500000 0.270769 0.000000
O O4 0.797276 0.264380 0.958174
O O5 0.708505 0.708505 0.875000
O O6 0.462115 0.768203 0.944795
O O7 0.663927 0.002098 0.917207
O O8 0.768775 0.762192 0.982580
O O9 0.183112 0.175465 0.153490
O O10 0.686977 0.443366 0.359932
#
# Coordination Sequence:
#
# PCOD9547627 Si02
#       5
#     8   8   8   8   4
#     4   9  17  39  58  77 119 153 182 236 303 344
#     4  10  21  40  59  82 122 157 189 239 296 358
#     4  10  19  39  61  82 115 156 193 237 298 341
#     4  10  21  36  59  88 112 154 197 240 290 349
#     4  10  18  36  62  84 114 148 194 248 286 340
#
# _framework density 23.392040000000001
#
# number of rings (size 3 to 8) (size 9 to 14) (size 15 to 20)
#    0.000    2.222    6.667    0.000    1.556    2.667 
#   10.000    1.111    0.000    0.000    0.000    0.000 
#    0.000    0.000    0.000    0.000    0.000    0.000 
#
# Total GULP energy -200584.284416 kJ/mol
# GULP energy per Si atom -5571.785678 kJ/mol
# Density = 2.333880 g / cm^3
# Si number density = 23.392040 Si / 1000 Ang^3
#
#
#
# Elastic Constant Matrix: (Units=GPa)
#
#
# Indices 1 2 3 4 5 6 
#
# 1 12.9098 15.8171 42.2489 0.0000 0.0000 0.0000
# 2 15.8171 12.9100 42.2488 0.0000 0.0000 0.0000
# 3 42.2489 42.2488 295.6459 0.0000 0.0000 0.0000
# 4 0.0000 0.0000 0.0000 30.3934 0.0000 0.0000
# 5 0.0000 0.0000 0.0000 0.0000 30.3928 0.0000
# 6 0.0000 0.0000 0.0000 0.0000 0.0000 -1.6834
#
#
#
# Elastic Compliance Matrix: (Units=1/GPa)
#
#
# Indices 1 2 3 4 5 6 
#
# 1 -0.141963 0.202014 -0.008581 0.000000 0.000000 0.000000
# 2 0.202014 -0.141958 -0.008582 0.000000 0.000000 0.000000
# 3 -0.008581 -0.008582 0.005835 0.000000 0.000000 0.000000
# 4 0.000000 0.000000 0.000000 0.032902 0.000000 0.000000
# 5 0.000000 0.000000 0.000000 0.000000 0.032903 0.000000
# 6 0.000000 0.000000 0.000000 0.000000 0.000000 -0.594047
#
#
# Mechanical properties :
#
#
# Convention : Reuss Voigt Hill
#
# Bulk Modulus (GPa) = 10.91534 58.01060 34.46297
# Shear Modulus (GPa) = -4.36494 26.56394 11.09950
#
# Velocity S-wave (km/s) = -1.36750 3.37352 2.18066
# Velocity P-wave (km/s) = 1.47750 6.32671 4.59403
#
# Compressibility (1/GPa) = 0.09161419
#
# Stress axis : x y z
#
# Youngs Moduli (GPa) = -7.04409 -7.04432 171.37468
#
# Poissons Ratio (x) = 1.42305 1.47064
# Poissons Ratio (y) = 1.42300 1.47077
# Poissons Ratio (z) = -0.06045 -0.06046
#
# Static dielectric constant tensor:
#      x y z
#    x 1.908920 0.000000 0.000000 
#    y 0.000000 1.908920 0.000000 
#    z 0.000000 0.000000 2.042900 
# 
# From -- ./inp_files/12735.got.cif
#   From: 2010.05.17/outbox.cif.g08.bks.cpg/sg91_7_cif.got.tgz:12735.got - 2010.06.03 19:20:03.
