data_PCOD9547601
_publ_section_title
;
Structure prediction by ZEFSAII (Michael W. Deem and Ramdas Pophale) SiO2 
 PCOD9547601
Probable space group: P 41 2 2
;
_chemical_formula_sum "Si O2"
_cell_formula_units_Z 64
_cell_length_a 11.470768
_cell_length_b 11.470768
_cell_length_c 24.698962
_cell_angle_alpha 90.000000
_cell_angle_beta 90.000000
_cell_angle_gamma 90.000000
_cell_volume 3249.852829
_symmetry_space_group_name_H-M "P 41 2 2"
_symmetry_group_IT_number 91
_symmetry_cell_setting 'tetragonal'
loop_
_space_group_symop_operation_xyz
x,y,z
-y,x,1/4+z
-x,-y,1/2+z
y,-x,3/4+z
x,-y,1/2-z
-x,y,-z
y,x,3/4-z
-y,-x,1/4-z
loop_
_atom_site_type_symbol
_atom_site_label
_atom_site_fract_x
_atom_site_fract_y
_atom_site_fract_z
Si Si1 0.092718 0.497006 0.423354
Si Si2 0.421594 0.113097 0.447919
Si Si3 0.635403 0.863157 0.665985
Si Si4 0.946106 0.118759 0.069959
Si Si5 0.139929 0.020158 0.324262
Si Si6 0.249667 0.849425 0.783346
Si Si7 0.599420 0.155913 0.954418
Si Si8 0.781867 0.717044 0.975633
O O1 0.104922 0.494139 0.357917
O O2 0.118600 0.619605 0.450785
O O3 0.181032 0.397406 0.443040
O O4 0.961912 0.453704 0.437467
O O5 0.500000 0.135119 0.500000
O O6 0.324353 0.212739 0.449845
O O7 0.370515 0.982544 0.456117
O O8 0.579463 0.819904 0.609744
O O9 0.673092 0.772097 0.712273
O O10 0.754978 0.936385 0.657128
O O11 0.875060 0.124941 0.125000
O O12 0.077355 0.168069 0.074814
O O13 0.890537 0.198721 0.024229
O O14 0.956930 0.980827 0.057909
O O15 0.100303 0.100303 0.375000
O O16 0.195284 0.107808 0.280163
O O17 0.230587 0.712866 0.783816
O O18 0.500000 0.174722 0.000000
#
# Coordination Sequence:
#
# PCOD9547601 Si02
#       8
#     8   8   8   8   8   8   8   8
#     4  10  22  41  57  91 127 167 210 262 325 407
#     4  10  22  38  63  93 121 160 210 279 337 389
#     4  10  22  34  62  91 121 166 210 268 331 396
#     4  10  23  36  57  93 131 173 221 265 331 405
#     4  10  18  34  55  92 130 160 203 267 336 401
#     4  11  24  38  64  86 134 181 219 268 334 403
#     4  10  22  42  59  91 127 172 218 265 330 396
#     4  11  21  35  65  88 123 158 212 273 343 387
#
# _framework density 19.693199
#
# number of rings (size 3 to 8) (size 9 to 14) (size 15 to 20)
#    0.000    1.750    0.000    6.375   10.500    3.000 
#    0.000    0.625    0.000    0.000    0.000    0.000 
#    0.000    0.000    0.000    0.000    0.000    0.000 
#
# Total GULP energy -356952.687215 kJ/mol
# GULP energy per Si atom -5577.385738 kJ/mol
# Density = 1.964838 g / cm^3
# Si number density = 19.693199 Si / 1000 Ang^3
#
#
#
# Elastic Constant Matrix: (Units=GPa)
#
#
# Indices 1 2 3 4 5 6 
#
# 1 91.9392 45.0456 36.2263 0.0000 0.0000 0.0000
# 2 45.0456 91.9386 36.2265 0.0000 0.0000 0.0000
# 3 36.2263 36.2265 121.8767 0.0000 0.0000 0.0000
# 4 0.0000 0.0000 0.0000 29.7604 0.0000 0.0000
# 5 0.0000 0.0000 0.0000 0.0000 29.7606 0.0000
# 6 0.0000 0.0000 0.0000 0.0000 0.0000 20.0554
#
#
#
# Elastic Compliance Matrix: (Units=1/GPa)
#
#
# Indices 1 2 3 4 5 6 
#
# 1 0.014993 -0.006332 -0.002575 0.000000 0.000000 0.000000
# 2 -0.006332 0.014993 -0.002575 0.000000 0.000000 0.000000
# 3 -0.002575 -0.002575 0.009736 0.000000 0.000000 0.000000
# 4 0.000000 0.000000 0.000000 0.033602 0.000000 0.000000
# 5 0.000000 0.000000 0.000000 0.000000 0.033601 0.000000
# 6 0.000000 0.000000 0.000000 0.000000 0.000000 0.049862
#
#
# Mechanical properties :
#
#
# Convention : Reuss Voigt Hill
#
# Bulk Modulus (GPa) = 59.66321 60.08347 59.87334
# Shear Modulus (GPa) = 26.97803 28.46569 27.72186
#
# Velocity S-wave (km/s) = 3.70525 3.80604 3.75599
# Velocity P-wave (km/s) = 6.97620 7.06333 7.01990
#
# Compressibility (1/GPa) = 0.01676075
#
# Stress axis : x y z
#
# Youngs Moduli (GPa) = 66.69617 66.69568 102.71611
#
# Poissons Ratio (x) = 0.42229 0.26445
# Poissons Ratio (y) = 0.42229 0.26446
# Poissons Ratio (z) = 0.17172 0.17172
#
# Static dielectric constant tensor:
#      x y z
#    x 1.691530 0.000000 0.000000 
#    y 0.000000 1.691530 0.000000 
#    z 0.000000 0.000000 1.826090 
# 
# From -- ./inp_files/22041.got.cif
#   From: 2010.05.17/outbox.cif.g08.bks.cpg/sg91_12_cif.got.tgz:22041.got - 2010.06.03 19:20:03.
