data_PCOD9547915
_publ_section_title
;
Structure prediction by ZEFSAII (Michael W. Deem and Ramdas Pophale) SiO2 
 PCOD9547915
Probable space group: P 41 2 2
;
_chemical_formula_sum "Si O2"
_cell_formula_units_Z 64
_cell_length_a 17.445445
_cell_length_b 17.445445
_cell_length_c 11.068286
_cell_angle_alpha 90.000000
_cell_angle_beta 90.000000
_cell_angle_gamma 90.000000
_cell_volume 3368.561467
_symmetry_space_group_name_H-M "P 41 2 2"
_symmetry_group_IT_number 91
_symmetry_cell_setting 'tetragonal'
loop_
_space_group_symop_operation_xyz
x,y,z
-y,x,1/4+z
-x,-y,1/2+z
y,-x,3/4+z
x,-y,1/2-z
-x,y,-z
y,x,3/4-z
-y,-x,1/4-z
loop_
_atom_site_type_symbol
_atom_site_label
_atom_site_fract_x
_atom_site_fract_y
_atom_site_fract_z
Si Si1 0.109155 0.533794 0.614376
Si Si2 0.916681 0.381545 0.546025
Si Si3 0.702774 0.844418 0.158297
Si Si4 0.772716 0.343420 0.142822
Si Si5 0.168677 0.946698 0.365419
Si Si6 0.835834 0.965017 0.116432
Si Si7 0.195436 0.283288 0.595503
Si Si8 0.584297 0.947651 0.058993
O O1 0.110156 0.500000 0.750000
O O2 0.092760 0.466814 0.515804
O O3 0.191830 0.574969 0.605723
O O4 0.031592 0.586732 0.629167
O O5 0.839804 0.337617 0.506658
O O6 0.931416 0.369339 0.687083
O O7 0.000000 0.355334 0.500000
O O8 0.711066 0.818275 0.297825
O O9 0.761986 0.910237 0.125369
O O10 0.728271 0.769000 0.082294
O O11 0.618655 0.881379 0.143009
O O12 0.684859 0.315142 0.125000
O O13 0.794212 0.330920 0.281504
O O14 0.084665 0.911797 0.346440
O O15 0.224385 0.873843 0.365174
O O16 0.185136 0.000000 0.250000
O O17 0.174270 0.983426 0.497995
O O18 0.842133 0.000000 0.250000
O O19 0.500000 0.938533 0.000000
#
# Coordination Sequence:
#
# PCOD9547915 Si02
#       8
#     8   8   8   8   8   8   8   8
#     4  11  21  34  56  86 114 143 181 229 279 334
#     4  12  21  35  56  82 114 145 179 232 283 335
#     4  10  24  37  54  78 109 144 188 226 268 338
#     4  10  20  37  56  78 112 149 181 222 270 332
#     4  11  24  38  55  74  99 131 185 236 288 329
#     4  11  24  39  55  76  96 136 181 236 287 332
#     4  10  22  38  54  78 107 147 184 226 277 332
#     4  11  23  36  54  84 112 144 182 226 286 332
#
# _framework density 18.999207999999999
#
# number of rings (size 3 to 8) (size 9 to 14) (size 15 to 20)
#    0.000    1.250    3.750    2.625    7.000    4.000 
#    0.000    0.000    0.000    0.000    0.000    0.000 
#    0.000    1.000    0.000    0.000    0.000    0.000 
#
# Total GULP energy -356313.302758 kJ/mol
# GULP energy per Si atom -5567.395356 kJ/mol
# Density = 1.895597 g / cm^3
# Si number density = 18.999208 Si / 1000 Ang^3
#
#
#
# Elastic Constant Matrix: (Units=GPa)
#
#
# Indices 1 2 3 4 5 6 
#
# 1 57.0998 25.2511 -2.6151 0.0000 0.0000 0.0000
# 2 25.2511 57.0993 -2.6152 0.0000 0.0000 0.0000
# 3 -2.6151 -2.6152 62.8362 0.0000 0.0000 0.0000
# 4 0.0000 0.0000 0.0000 24.8369 0.0000 0.0000
# 5 0.0000 0.0000 0.0000 0.0000 24.8371 0.0000
# 6 0.0000 0.0000 0.0000 0.0000 0.0000 23.8069
#
#
#
# Elastic Compliance Matrix: (Units=1/GPa)
#
#
# Indices 1 2 3 4 5 6 
#
# 1 0.021787 -0.009612 0.000507 0.000000 0.000000 0.000000
# 2 -0.009612 0.021787 0.000507 0.000000 0.000000 0.000000
# 3 0.000507 0.000507 0.015957 0.000000 0.000000 0.000000
# 4 0.000000 0.000000 0.000000 0.040263 0.000000 0.000000
# 5 0.000000 0.000000 0.000000 0.000000 0.040262 0.000000
# 6 0.000000 0.000000 0.000000 0.000000 0.000000 0.042005
#
#
# Mechanical properties :
#
#
# Convention : Reuss Voigt Hill
#
# Bulk Modulus (GPa) = 23.62156 24.11966 23.87061
# Shear Modulus (GPa) = 23.43366 25.16381 24.29873
#
# Velocity S-wave (km/s) = 3.51579 3.64327 3.58010
# Velocity P-wave (km/s) = 5.37968 5.51548 5.44800
#
# Compressibility (1/GPa) = 0.04233420
#
# Stress axis : x y z
#
# Youngs Moduli (GPa) = 45.89901 45.89862 62.67015
#
# Poissons Ratio (x) = 0.44116 -0.03176
# Poissons Ratio (y) = 0.44117 -0.03176
# Poissons Ratio (z) = -0.02326 -0.02326
#
# Static dielectric constant tensor:
#      x y z
#    x 1.742530 0.000000 0.000000 
#    y 0.000000 1.742530 0.000000 
#    z 0.000000 0.000000 1.098790 
# 
# From -- ./inp_files/4048.got.cif
#   From: 2010.05.17/outbox.cif.g08.bks.cpg/sg91_3_cif.got.tgz:4048.got - 2010.06.03 19:20:03.
