data_PCOD9547796
_publ_section_title
;
Structure prediction by ZEFSAII (Michael W. Deem and Ramdas Pophale) SiO2 
 PCOD9547796
Probable space group: P 41 2 2
;
_chemical_formula_sum "Si O2"
_cell_formula_units_Z 44
_cell_length_a 8.639833
_cell_length_b 8.639833
_cell_length_c 27.694510
_cell_angle_alpha 90.000000
_cell_angle_beta 90.000000
_cell_angle_gamma 90.000000
_cell_volume 2067.304175
_symmetry_space_group_name_H-M "P 41 2 2"
_symmetry_group_IT_number 91
_symmetry_cell_setting 'tetragonal'
loop_
_space_group_symop_operation_xyz
x,y,z
-y,x,1/4+z
-x,-y,1/2+z
y,-x,3/4+z
x,-y,1/2-z
-x,y,-z
y,x,3/4-z
-y,-x,1/4-z
loop_
_atom_site_type_symbol
_atom_site_label
_atom_site_fract_x
_atom_site_fract_y
_atom_site_fract_z
Si Si1 0.895607 0.895607 0.875000
Si Si2 0.171667 0.594040 0.607348
Si Si3 0.780121 0.299239 0.710523
Si Si4 0.598884 0.863767 0.544678
Si Si5 0.138141 0.256967 0.095930
Si Si6 0.668064 0.365631 0.812940
O O1 0.836750 0.790254 0.920432
O O2 0.075490 0.879969 0.860559
O O3 0.249244 0.750757 0.625000
O O4 0.135837 0.493053 0.654935
O O5 0.296234 0.497529 0.577074
O O6 0.013290 0.646905 0.583084
O O7 0.724583 0.273982 0.765204
O O8 0.679864 0.449435 0.694524
O O9 0.959168 0.352569 0.714774
O O10 0.500000 0.808988 0.500000
O O11 0.743669 0.751998 0.551933
O O12 0.217306 0.332363 0.142641
#
# Coordination Sequence:
#
# PCOD9547796 Si02
#       6
#     4   8   8   8   8   8
#     4  10  22  34  64  92 122 172 220 276 318 408
#     4  11  22  39  61  94 137 173 211 271 347 401
#     4  10  19  39  63  92 120 164 231 260 325 391
#     4  10  19  39  67  88 120 172 219 274 322 401
#     4  10  20  38  63  91 127 170 216 264 341 388
#     4  10  21  38  64  89 126 171 210 281 318 401
#
# _framework density 21.283757000000001
#
# number of rings (size 3 to 8) (size 9 to 14) (size 15 to 20)
#    0.000    1.818    4.545    0.000    1.273    0.727 
#    3.273    0.909   12.000    0.000    0.000    0.000 
#    0.000    0.000    0.000    0.000    0.000    0.000 
#
# Total GULP energy -245618.973375 kJ/mol
# GULP energy per Si atom -5582.249395 kJ/mol
# Density = 2.123531 g / cm^3
# Si number density = 21.283757 Si / 1000 Ang^3
#
#
#
# Elastic Constant Matrix: (Units=GPa)
#
#
# Indices 1 2 3 4 5 6 
#
# 1 62.7052 25.5722 7.2289 0.0000 0.0000 0.0000
# 2 25.5722 62.7029 7.2283 0.0000 0.0000 0.0000
# 3 7.2289 7.2283 42.8633 0.0000 0.0000 0.0000
# 4 0.0000 0.0000 0.0000 24.7640 0.0000 0.0000
# 5 0.0000 0.0000 0.0000 0.0000 24.7632 0.0000
# 6 0.0000 0.0000 0.0000 0.0000 0.0000 22.1751
#
#
#
# Elastic Compliance Matrix: (Units=1/GPa)
#
#
# Indices 1 2 3 4 5 6 
#
# 1 0.019290 -0.007641 -0.001965 0.000000 0.000000 0.000000
# 2 -0.007641 0.019291 -0.001965 0.000000 0.000000 0.000000
# 3 -0.001965 -0.001965 0.023993 0.000000 0.000000 0.000000
# 4 0.000000 0.000000 0.000000 0.040381 0.000000 0.000000
# 5 0.000000 0.000000 0.000000 0.000000 0.040383 0.000000
# 6 0.000000 0.000000 0.000000 0.000000 0.000000 0.045096
#
#
# Mechanical properties :
#
#
# Convention : Reuss Voigt Hill
#
# Bulk Modulus (GPa) = 25.35903 27.59223 26.47563
# Shear Modulus (GPa) = 22.25016 22.88991 22.57003
#
# Velocity S-wave (km/s) = 3.23678 3.28298 3.25996
# Velocity P-wave (km/s) = 5.09015 5.23094 5.16103
#
# Compressibility (1/GPa) = 0.03943368
#
# Stress axis : x y z
#
# Youngs Moduli (GPa) = 51.84000 51.83827 41.67942
#
# Poissons Ratio (x) = 0.39608 0.08189
# Poissons Ratio (y) = 0.39609 0.08188
# Poissons Ratio (z) = 0.10185 0.10184
#
# Static dielectric constant tensor:
#      x y z
#    x 1.784410 0.000000 0.000000 
#    y 0.000000 1.784410 0.000000 
#    z 0.000000 0.000000 1.751790 
# 
# From -- ./inp_files/7868.got.cif
#   From: 2010.05.17/outbox.cif.g08.bks.cpg/sg91_4_cif.got.tgz:7868.got - 2010.06.03 19:20:03.
