data_PCOD9547432
_publ_section_title
;
Structure prediction by ZEFSAII (Michael W. Deem and Ramdas Pophale) SiO2 
 PCOD9547432
Probable space group: P 4 21 2
;
_chemical_formula_sum "Si O2"
_cell_formula_units_Z 34
_cell_length_a 8.652520
_cell_length_b 8.652520
_cell_length_c 21.025222
_cell_angle_alpha 90.000000
_cell_angle_beta 90.000000
_cell_angle_gamma 90.000000
_cell_volume 1574.076422
_symmetry_space_group_name_H-M "P 4 21 2"
_symmetry_group_IT_number 90
_symmetry_cell_setting 'tetragonal'
loop_
_space_group_symop_operation_xyz
x,y,z
1/2-y,1/2+x,z
-x,-y,z
1/2+y,1/2-x,z
1/2+x,1/2-y,-z
1/2-x,1/2+y,-z
y,x,-z
-y,-x,-z
loop_
_atom_site_type_symbol
_atom_site_label
_atom_site_fract_x
_atom_site_fract_y
_atom_site_fract_z
Si Si1 0.078150 0.748106 0.196168
Si Si2 0.900835 0.157473 0.429958
Si Si3 0.263574 0.905553 0.300747
Si Si4 0.920516 0.250697 0.053550
Si Si5 0.000000 0.500000 0.414602
O O1 0.185291 0.595389 0.201110
O O2 0.128416 0.856036 0.253260
O O3 0.100091 0.813343 0.125102
O O4 0.826548 0.173453 0.500000
O O5 0.782115 0.128647 0.373039
O O6 0.002375 0.308837 0.415627
O O7 0.000000 0.000000 0.431066
O O8 0.417671 0.807029 0.288635
O O9 0.813513 0.404631 0.047690
O O10 0.867885 0.132115 0.000000
#
# Coordination Sequence:
#
# PCOD9547432 Si02
#       5
#     8   8   8   8   2
#     4   9  21  40  63  89 123 169 224 271 326 406
#     4  11  28  48  72 107 137 175 234 286 341 416
#     4  11  26  43  64  95 136 172 213 279 344 402
#     4   9  19  37  59  88 123 164 213 271 326 392
#     4  12  28  44  80 100 132 192 224 270 368 400
#
# _framework density 21.599968000000001
#
# number of rings (size 3 to 8) (size 9 to 14) (size 15 to 20)
#    0.000    1.882    0.000    2.824   13.176    2.353 
#    0.000    7.059    0.000    0.000    0.000    0.000 
#    0.000    0.000    0.000    0.000    0.000    0.000 
#
# Total GULP energy -189658.162221 kJ/mol
# GULP energy per Si atom -5578.181242 kJ/mol
# Density = 2.155081 g / cm^3
# Si number density = 21.599968 Si / 1000 Ang^3
#
#
#
# Elastic Constant Matrix: (Units=GPa)
#
#
# Indices 1 2 3 4 5 6 
#
# 1 59.5977 29.1092 20.8360 0.0000 0.0000 0.0000
# 2 29.1092 59.5980 20.8366 0.0000 0.0000 0.0000
# 3 20.8360 20.8366 91.8712 0.0000 0.0000 0.0000
# 4 0.0000 0.0000 0.0000 36.0899 0.0000 0.0000
# 5 0.0000 0.0000 0.0000 0.0000 36.0896 0.0000
# 6 0.0000 0.0000 0.0000 0.0000 0.0000 1.9958
#
#
#
# Elastic Compliance Matrix: (Units=1/GPa)
#
#
# Indices 1 2 3 4 5 6 
#
# 1 0.022708 -0.010091 -0.002862 0.000000 0.000000 0.000000
# 2 -0.010091 0.022708 -0.002862 0.000000 0.000000 0.000000
# 3 -0.002862 -0.002862 0.012183 0.000000 0.000000 0.000000
# 4 0.000000 0.000000 0.000000 0.027709 0.000000 0.000000
# 5 0.000000 0.000000 0.000000 0.000000 0.027709 0.000000
# 6 0.000000 0.000000 0.000000 0.000000 0.000000 0.501046
#
#
# Mechanical properties :
#
#
# Convention : Reuss Voigt Hill
#
# Bulk Modulus (GPa) = 38.50427 39.18117 38.84272
# Shear Modulus (GPa) = 7.64119 24.18741 15.91430
#
# Velocity S-wave (km/s) = 1.88289 3.34996 2.71730
# Velocity P-wave (km/s) = 4.75308 5.75689 5.27890
#
# Compressibility (1/GPa) = 0.02597114
#
# Stress axis : x y z
#
# Youngs Moduli (GPa) = 44.03679 44.03686 82.08276
#
# Poissons Ratio (x) = 0.44437 0.23488
# Poissons Ratio (y) = 0.44437 0.23490
# Poissons Ratio (z) = 0.12601 0.12602
#
# Static dielectric constant tensor:
#      x y z
#    x 1.727970 0.000000 0.000000 
#    y 0.000000 1.727950 0.000000 
#    z 0.000000 0.000000 1.781230 
# 
# From -- ./inp_files/2719.got.cif
#   From: 2010.05.17/outbox.cif.g08.bks.cpg/sg90_2_cif.got.tgz:2719.got - 2010.06.03 19:17:45.
