data_PCOD9547131
_publ_section_title
;
Structure prediction by ZEFSAII (Michael W. Deem and Ramdas Pophale) SiO2 
 PCOD9547131
Probable space group: P 4 21 2
;
_chemical_formula_sum "Si O2"
_cell_formula_units_Z 26
_cell_length_a 11.462202
_cell_length_b 11.462202
_cell_length_c 9.184877
_cell_angle_alpha 90.000000
_cell_angle_beta 90.000000
_cell_angle_gamma 90.000000
_cell_volume 1206.728196
_symmetry_space_group_name_H-M "P 4 21 2"
_symmetry_group_IT_number 90
_symmetry_cell_setting 'tetragonal'
loop_
_space_group_symop_operation_xyz
x,y,z
1/2-y,1/2+x,z
-x,-y,z
1/2+y,1/2-x,z
1/2+x,1/2-y,-z
1/2-x,1/2+y,-z
y,x,-z
-y,-x,-z
loop_
_atom_site_type_symbol
_atom_site_label
_atom_site_fract_x
_atom_site_fract_y
_atom_site_fract_z
Si Si1 0.436686 0.815258 0.905753
Si Si2 0.500000 0.000000 0.522956
Si Si3 0.220845 0.129939 0.223534
Si Si4 0.749581 0.082842 0.414408
O O1 0.568895 0.857526 0.886244
O O2 0.386676 0.716562 0.800483
O O3 0.419550 0.764405 0.068165
O O4 0.639283 0.038376 0.508311
O O5 0.331743 0.196091 0.291290
O O6 0.193638 0.026271 0.333033
O O7 0.842304 0.157697 0.500000
#
# Coordination Sequence:
#
# PCOD9547131 Si02
#       4
#     8   2   8   8
#     4  10  20  38  70 102 134 179 234 295 359 432
#     4   8  20  40  72  92 134 188 240 288 344 430
#     4  10  20  39  67 101 138 175 232 293 357 425
#     4  10  20  40  71 100 137 192 236 287 360 435
#
# _framework density 21.545862
#
# number of rings (size 3 to 8) (size 9 to 14) (size 15 to 20)
#    0.000    2.154    3.077    0.000    0.000    0.000 
#   11.077    1.538   27.077    0.000    0.000    0.000 
#    0.000    0.000    0.000    0.000    0.000    0.000 
#
# Total GULP energy -144904.462816 kJ/mol
# GULP energy per Si atom -5573.248570 kJ/mol
# Density = 2.149682 g / cm^3
# Si number density = 21.545862 Si / 1000 Ang^3
#
#
#
# Elastic Constant Matrix: (Units=GPa)
#
#
# Indices 1 2 3 4 5 6 
#
# 1 120.0331 75.3950 44.8037 0.0000 0.0000 0.0000
# 2 75.3950 120.0290 44.8004 0.0000 0.0000 0.0000
# 3 44.8037 44.8004 46.0098 0.0000 0.0000 0.0000
# 4 0.0000 0.0000 0.0000 83.5438 0.0000 0.0000
# 5 0.0000 0.0000 0.0000 0.0000 83.5345 0.0000
# 6 0.0000 0.0000 0.0000 0.0000 0.0000 52.5584
#
#
#
# Elastic Compliance Matrix: (Units=1/GPa)
#
#
# Indices 1 2 3 4 5 6 
#
# 1 0.015824 -0.006580 -0.009003 0.000000 0.000000 0.000000
# 2 -0.006580 0.015824 -0.009001 0.000000 0.000000 0.000000
# 3 -0.009003 -0.009001 0.039265 0.000000 0.000000 0.000000
# 4 0.000000 0.000000 0.000000 0.011970 0.000000 0.000000
# 5 0.000000 0.000000 0.000000 0.000000 0.011971 0.000000
# 6 0.000000 0.000000 0.000000 0.000000 0.000000 0.019026
#
#
# Mechanical properties :
#
#
# Convention : Reuss Voigt Hill
#
# Bulk Modulus (GPa) = 45.98283 68.45223 57.21753
# Shear Modulus (GPa) = 29.36076 51.99886 40.67981
#
# Velocity S-wave (km/s) = 3.69550 4.91797 4.34989
# Velocity P-wave (km/s) = 6.29262 8.00550 7.20018
#
# Compressibility (1/GPa) = 0.02174725
#
# Stress axis : x y z
#
# Youngs Moduli (GPa) = 63.19458 63.19662 25.46778
#
# Poissons Ratio (x) = 0.41580 0.22928
# Poissons Ratio (y) = 0.41579 0.22923
# Poissons Ratio (z) = 0.56893 0.56881
#
# Static dielectric constant tensor:
#      x y z
#    x 1.731670 0.000000 0.000000 
#    y 0.000000 1.731670 0.000000 
#    z 0.000000 0.000000 1.826660 
# 
# From -- ./inp_files/919.got.cif
#   From: 2010.05.17/outbox.cif.g08.bks.cpg/sg90_1_cif.got.tgz:919.got - 2010.06.03 19:17:45.
