data_PCOD9547861
_publ_section_title
;
Structure prediction by ZEFSAII (Michael W. Deem and Ramdas Pophale) SiO2 
 PCOD9547861
Probable space group: P 41 2 2
;
_chemical_formula_sum "Si O2"
_cell_formula_units_Z 56
_cell_length_a 15.100745
_cell_length_b 15.100745
_cell_length_c 12.187010
_cell_angle_alpha 90.000000
_cell_angle_beta 90.000000
_cell_angle_gamma 90.000000
_cell_volume 2779.034352
_symmetry_space_group_name_H-M "P 41 2 2"
_symmetry_group_IT_number 91
_symmetry_cell_setting 'tetragonal'
loop_
_space_group_symop_operation_xyz
x,y,z
-y,x,1/4+z
-x,-y,1/2+z
y,-x,3/4+z
x,-y,1/2-z
-x,y,-z
y,x,3/4-z
-y,-x,1/4-z
loop_
_atom_site_type_symbol
_atom_site_label
_atom_site_fract_x
_atom_site_fract_y
_atom_site_fract_z
Si Si1 0.208680 0.276727 0.641117
Si Si2 0.532332 0.927440 0.332396
Si Si3 0.430904 0.221006 0.287118
Si Si4 0.398076 0.320054 0.983459
Si Si5 0.481064 0.382233 0.620378
Si Si6 0.036921 0.650873 0.793153
Si Si7 0.713579 0.835251 0.955155
O O1 0.213209 0.356086 0.553357
O O2 0.250580 0.319335 0.750084
O O3 0.104609 0.273037 0.666663
O O4 0.260444 0.199642 0.576921
O O5 0.510324 0.839933 0.260241
O O6 0.601526 0.927159 0.432739
O O7 0.435306 0.961172 0.375609
O O8 0.568185 0.000000 0.250000
O O9 0.463693 0.320145 0.299747
O O10 0.379576 0.197095 0.400288
O O11 0.376669 0.376669 0.875000
O O12 0.500000 0.286611 0.000000
O O13 0.382616 0.383860 0.086362
O O14 0.500000 0.347474 0.500000
O O15 0.520031 0.479970 0.625000
O O16 0.940404 0.695673 0.789436
O O17 0.790307 0.790307 0.875000
#
# Coordination Sequence:
#
# PCOD9547861 Si02
#       7
#     8   8   8   8   8   8   8
#     4  10  23  39  60  88 127 163 212 269 331 406
#     4  10  20  35  59  90 130 172 214 272 328 400
#     4  10  20  35  59  86 124 164 215 266 325 377
#     4  12  25  39  58  80 119 172 225 268 328 389
#     4  12  23  37  55  81 118 168 231 284 312 372
#     4  10  22  38  60  94 130 167 218 270 347 409
#     4  10  20  39  65  95 128 165 212 275 333 406
#
# _framework density 20.150884000000001
#
# number of rings (size 3 to 8) (size 9 to 14) (size 15 to 20)
#    0.000    1.429    1.429    5.571    6.000    2.286 
#    0.000    0.000    0.000    0.000    0.000    3.000 
#    0.000    0.000    0.000    0.000    0.000    0.000 
#
# Total GULP energy -312007.307903 kJ/mol
# GULP energy per Si atom -5571.559070 kJ/mol
# Density = 2.010502 g / cm^3
# Si number density = 20.150884 Si / 1000 Ang^3
#
#
#
# Elastic Constant Matrix: (Units=GPa)
#
#
# Indices 1 2 3 4 5 6 
#
# 1 92.0959 31.7998 29.5080 0.0000 0.0000 0.0000
# 2 31.7998 92.0954 29.5081 0.0000 0.0000 0.0000
# 3 29.5080 29.5081 94.3925 0.0000 0.0000 0.0000
# 4 0.0000 0.0000 0.0000 10.8243 0.0000 0.0000
# 5 0.0000 0.0000 0.0000 0.0000 10.8228 0.0000
# 6 0.0000 0.0000 0.0000 0.0000 0.0000 15.7889
#
#
#
# Elastic Compliance Matrix: (Units=1/GPa)
#
#
# Indices 1 2 3 4 5 6 
#
# 1 0.013034 -0.003551 -0.002965 0.000000 0.000000 0.000000
# 2 -0.003551 0.013034 -0.002965 0.000000 0.000000 0.000000
# 3 -0.002965 -0.002965 0.012448 0.000000 0.000000 0.000000
# 4 0.000000 0.000000 0.000000 0.092384 0.000000 0.000000
# 5 0.000000 0.000000 0.000000 0.000000 0.092397 0.000000
# 6 0.000000 0.000000 0.000000 0.000000 0.000000 0.063335
#
#
# Mechanical properties :
#
#
# Convention : Reuss Voigt Hill
#
# Bulk Modulus (GPa) = 51.13506 51.13506 51.13506
# Shear Modulus (GPa) = 16.01990 20.00508 18.01249
#
# Velocity S-wave (km/s) = 2.82263 3.15423 2.99303
# Velocity P-wave (km/s) = 6.00451 6.22067 6.11355
#
# Compressibility (1/GPa) = 0.01955606
#
# Stress axis : x y z
#
# Youngs Moduli (GPa) = 76.72154 76.72097 80.33668
#
# Poissons Ratio (x) = 0.27241 0.23817
# Poissons Ratio (y) = 0.27242 0.23817
# Poissons Ratio (z) = 0.22745 0.22745
#
# Static dielectric constant tensor:
#      x y z
#    x 1.755600 0.000000 0.000000 
#    y 0.000000 1.755600 0.000000 
#    z 0.000000 0.000000 1.785730 
# 
# From -- ./inp_files/3917.got.cif
#   From: 2010.05.17/outbox.cif.g08.bks.cpg/sg91_2_cif.got.tgz:3917.got - 2010.06.03 19:20:03.
