data_PCOD9547549
_publ_section_title
;
Structure prediction by ZEFSAII (Michael W. Deem and Ramdas Pophale) SiO2 
 PCOD9547549
Probable space group: P 41 2 2
;
_chemical_formula_sum "Si O2"
_cell_formula_units_Z 56
_cell_length_a 19.805074
_cell_length_b 19.805074
_cell_length_c 9.444254
_cell_angle_alpha 90.000000
_cell_angle_beta 90.000000
_cell_angle_gamma 90.000000
_cell_volume 3704.423219
_symmetry_space_group_name_H-M "P 41 2 2"
_symmetry_group_IT_number 91
_symmetry_cell_setting 'tetragonal'
loop_
_space_group_symop_operation_xyz
x,y,z
-y,x,1/4+z
-x,-y,1/2+z
y,-x,3/4+z
x,-y,1/2-z
-x,y,-z
y,x,3/4-z
-y,-x,1/4-z
loop_
_atom_site_type_symbol
_atom_site_label
_atom_site_fract_x
_atom_site_fract_y
_atom_site_fract_z
Si Si1 0.753569 0.163928 0.727988
Si Si2 0.104812 0.336044 0.701245
Si Si3 0.918268 0.616131 0.508479
Si Si4 0.294890 0.948117 0.016847
Si Si5 0.474466 0.934809 0.342827
Si Si6 0.070174 0.868860 0.927684
Si Si7 0.006521 0.850326 0.334537
O O1 0.772573 0.227428 0.625000
O O2 0.711936 0.159716 0.875838
O O3 0.715861 0.105024 0.640821
O O4 0.825159 0.131990 0.769295
O O5 0.110725 0.344504 0.871816
O O6 0.109215 0.409163 0.626712
O O7 0.024550 0.315444 0.686200
O O8 0.911982 0.653798 0.657254
O O9 0.899501 0.537555 0.486402
O O10 0.000000 0.614956 0.500000
O O11 0.222327 0.960013 0.943713
O O12 0.500000 0.956971 0.500000
O O13 0.455942 0.000000 0.250000
O O14 0.088991 0.944973 0.963026
O O15 0.059350 0.856174 0.761441
O O16 0.000000 0.847354 0.000000
O O17 0.000000 0.857176 0.500000
#
# Coordination Sequence:
#
# PCOD9547549 Si02
#       7
#     8   8   8   8   8   8   8
#     4  12  21  34  45  62  78 107 142 174 210 262
#     4  10  18  30  49  64  84 113 135 161 214 260
#     4   8  17  30  45  68  91 103 127 165 202 261
#     4  11  19  32  49  63  85 108 133 169 213 265
#     4   9  16  27  44  69  91 108 128 156 199 258
#     4  12  22  38  49  58  78  97 137 186 227 276
#     4  12  24  35  48  63  79 102 133 178 236 280
#
# _framework density 15.117063999999999
#
# number of rings (size 3 to 8) (size 9 to 14) (size 15 to 20)
#    0.000    1.429    4.286    4.286    0.000    1.714 
#    0.000    0.714    0.000    0.000    0.000    0.000 
#    0.000    0.000    0.000    0.000    0.000    0.000 
#
# Total GULP energy -311843.035204 kJ/mol
# GULP energy per Si atom -5568.625629 kJ/mol
# Density = 1.508266 g / cm^3
# Si number density = 15.117064 Si / 1000 Ang^3
#
#
#
# Elastic Constant Matrix: (Units=GPa)
#
#
# Indices 1 2 3 4 5 6 
#
# 1 32.0131 7.8153 18.2639 0.0000 0.0000 0.0000
# 2 7.8153 32.0130 18.2636 0.0000 0.0000 0.0000
# 3 18.2639 18.2636 71.4014 0.0000 0.0000 0.0000
# 4 0.0000 0.0000 0.0000 18.8922 0.0000 0.0000
# 5 0.0000 0.0000 0.0000 0.0000 18.8922 0.0000
# 6 0.0000 0.0000 0.0000 0.0000 0.0000 4.5099
#
#
#
# Elastic Compliance Matrix: (Units=1/GPa)
#
#
# Indices 1 2 3 4 5 6 
#
# 1 0.037065 -0.004262 -0.008391 0.000000 0.000000 0.000000
# 2 -0.004262 0.037065 -0.008391 0.000000 0.000000 0.000000
# 3 -0.008391 -0.008391 0.018298 0.000000 0.000000 0.000000
# 4 0.000000 0.000000 0.000000 0.052932 0.000000 0.000000
# 5 0.000000 0.000000 0.000000 0.000000 0.052932 0.000000
# 6 0.000000 0.000000 0.000000 0.000000 0.000000 0.221733
#
#
# Mechanical properties :
#
#
# Convention : Reuss Voigt Hill
#
# Bulk Modulus (GPa) = 19.86444 24.90145 22.38294
# Shear Modulus (GPa) = 10.44081 14.53118 12.48600
#
# Velocity S-wave (km/s) = 2.63090 3.10376 2.87706
# Velocity P-wave (km/s) = 4.73263 5.41780 5.08676
#
# Compressibility (1/GPa) = 0.05034121
#
# Stress axis : x y z
#
# Youngs Moduli (GPa) = 26.97992 26.97990 54.65120
#
# Poissons Ratio (x) = 0.11498 0.45857
# Poissons Ratio (y) = 0.11498 0.45856
# Poissons Ratio (z) = 0.22638 0.22638
#
# Static dielectric constant tensor:
#      x y z
#    x 1.529340 0.000000 0.000000 
#    y 0.000000 1.529340 0.000000 
#    z 0.000000 0.000000 1.613020 
# 
# From -- ./inp_files/2888.got.cif
#   From: 2010.05.17/outbox.cif.g08.bks.cpg/sg91_2_cif.got.tgz:2888.got - 2010.06.03 19:20:03.
