data_PCOD9547438
_publ_section_title
;
Structure prediction by ZEFSAII (Michael W. Deem and Ramdas Pophale) SiO2 
 PCOD9547438
Probable space group: P 4 21 2
;
_chemical_formula_sum "Si O2"
_cell_formula_units_Z 34
_cell_length_a 10.708437
_cell_length_b 10.708437
_cell_length_c 12.622597
_cell_angle_alpha 90.000000
_cell_angle_beta 90.000000
_cell_angle_gamma 90.000000
_cell_volume 1447.441062
_symmetry_space_group_name_H-M "P 4 21 2"
_symmetry_group_IT_number 90
_symmetry_cell_setting 'tetragonal'
loop_
_space_group_symop_operation_xyz
x,y,z
1/2-y,1/2+x,z
-x,-y,z
1/2+y,1/2-x,z
1/2+x,1/2-y,-z
1/2-x,1/2+y,-z
y,x,-z
-y,-x,-z
loop_
_atom_site_type_symbol
_atom_site_label
_atom_site_fract_x
_atom_site_fract_y
_atom_site_fract_z
Si Si1 0.525684 0.208088 0.551600
Si Si2 0.500000 0.000000 0.037341
Si Si3 0.209221 0.997575 0.977942
Si Si4 0.437267 0.802379 0.309919
Si Si5 0.449172 0.638959 0.759079
O O1 0.395670 0.133846 0.563685
O O2 0.551581 0.249177 0.430865
O O3 0.522570 0.309221 0.642923
O O4 0.343794 0.000545 0.032240
O O5 0.228673 0.001952 0.850459
O O6 0.115719 0.115719 0.000000
O O7 0.125898 0.874103 0.000000
O O8 0.576861 0.851535 0.294724
O O9 0.381176 0.698205 0.236552
O O10 0.500000 0.500000 0.774826
#
# Coordination Sequence:
#
# PCOD9547438 Si02
#       5
#     8   2   8   8   8
#     4   9  21  40  65  97 140 182 235 290 338 412
#     4  12  28  48  92 104 132 198 252 304 392 456
#     4  11  26  55  74 109 152 182 244 319 380 456
#     4   9  21  43  64  97 143 189 231 284 345 416
#     4  12  25  40  71  98 138 184 229 293 361 432
#
# _framework density 23.489732
#
# number of rings (size 3 to 8) (size 9 to 14) (size 15 to 20)
#    0.000    1.647    2.353    2.824    6.588    1.882 
#    4.235    0.000    0.000    0.000    0.000    0.000 
#    0.000    0.000    0.000    0.000    0.000    0.000 
#
# Total GULP energy -189576.299020 kJ/mol
# GULP energy per Si atom -5575.773501 kJ/mol
# Density = 2.343627 g / cm^3
# Si number density = 23.489732 Si / 1000 Ang^3
#
#
#
# Elastic Constant Matrix: (Units=GPa)
#
#
# Indices 1 2 3 4 5 6 
#
# 1 71.9154 36.6978 21.2774 0.0000 0.0000 0.0000
# 2 36.6978 71.9177 21.2783 0.0000 0.0000 0.0000
# 3 21.2774 21.2783 72.0143 0.0000 0.0000 0.0000
# 4 0.0000 0.0000 0.0000 -12.8609 0.0000 0.0000
# 5 0.0000 0.0000 0.0000 0.0000 -12.8617 0.0000
# 6 0.0000 0.0000 0.0000 0.0000 0.0000 -31.9033
#
#
#
# Elastic Compliance Matrix: (Units=1/GPa)
#
#
# Indices 1 2 3 4 5 6 
#
# 1 0.019403 -0.008991 -0.003076 0.000000 0.000000 0.000000
# 2 -0.008991 0.019403 -0.003077 0.000000 0.000000 0.000000
# 3 -0.003076 -0.003077 0.015704 0.000000 0.000000 0.000000
# 4 0.000000 0.000000 0.000000 -0.077755 0.000000 0.000000
# 5 0.000000 0.000000 0.000000 0.000000 -0.077750 0.000000
# 6 0.000000 0.000000 0.000000 0.000000 0.000000 -0.031345
#
#
# Mechanical properties :
#
#
# Convention : Reuss Voigt Hill
#
# Bulk Modulus (GPa) = 41.28354 41.59495 41.43925
# Shear Modulus (GPa) = -53.20436 -2.41893 -27.81165
#
# Velocity S-wave (km/s) = -4.76437 -1.01588 -3.44465
# Velocity P-wave (km/s) = 3.55701 4.04600 1.36342
#
# Compressibility (1/GPa) = 0.02422273
#
# Stress axis : x y z
#
# Youngs Moduli (GPa) = 51.53745 51.53877 63.67755
#
# Poissons Ratio (x) = 0.46338 0.19590
# Poissons Ratio (y) = 0.46337 0.19591
# Poissons Ratio (z) = 0.15855 0.15856
#
# Static dielectric constant tensor:
#      x y z
#    x 1.921830 0.000000 0.000000 
#    y 0.000000 1.921830 0.000000 
#    z 0.000000 0.000000 1.988100 
# 
# From -- ./inp_files/1960.got.cif
#   From: 2010.05.17/outbox.cif.g08.bks.cpg/sg90_1_cif.got.tgz:1960.got - 2010.06.03 19:17:45.
