data_PCOD9547689
_publ_section_title
;
Structure prediction by ZEFSAII (Michael W. Deem and Ramdas Pophale) SiO2 
 PCOD9547689
Probable space group: P 41 2 2
;
_chemical_formula_sum "Si O2"
_cell_formula_units_Z 48
_cell_length_a 17.516304
_cell_length_b 17.516304
_cell_length_c 9.581751
_cell_angle_alpha 90.000000
_cell_angle_beta 90.000000
_cell_angle_gamma 90.000000
_cell_volume 2939.881521
_symmetry_space_group_name_H-M "P 41 2 2"
_symmetry_group_IT_number 91
_symmetry_cell_setting 'tetragonal'
loop_
_space_group_symop_operation_xyz
x,y,z
-y,x,1/4+z
-x,-y,1/2+z
y,-x,3/4+z
x,-y,1/2-z
-x,y,-z
y,x,3/4-z
-y,-x,1/4-z
loop_
_atom_site_type_symbol
_atom_site_label
_atom_site_fract_x
_atom_site_fract_y
_atom_site_fract_z
Si Si1 0.710167 0.280462 0.288718
Si Si2 0.862764 0.617388 0.538284
Si Si3 0.827533 0.552719 0.938811
Si Si4 0.589838 0.681863 0.977459
Si Si5 0.021287 0.588190 0.229234
Si Si6 0.138356 0.368355 0.708233
O O1 0.689782 0.191567 0.311671
O O2 0.647408 0.319228 0.390273
O O3 0.798611 0.302154 0.313852
O O4 0.698167 0.301834 0.125000
O O5 0.822413 0.538120 0.586384
O O6 0.940283 0.617775 0.627107
O O7 0.867660 0.611708 0.371651
O O8 0.760948 0.597646 0.860242
O O9 0.908293 0.579902 0.876864
O O10 0.829190 0.567969 0.103339
O O11 0.615881 0.615881 0.875000
O O12 0.500000 0.673973 0.000000
O O13 0.993683 0.500000 0.250000
O O14 0.951627 0.639205 0.175477
#
# Coordination Sequence:
#
# PCOD9547689 Si02
#       6
#     8   8   8   8   8   8
#     4  10  21  36  53  78 104 139 184 221 269 328
#     4  10  19  34  51  74 105 143 177 213 262 334
#     4  11  19  32  56  76 101 134 178 224 273 330
#     4  12  22  41  60  75  99 140 189 236 287 327
#     4  10  19  32  50  76 110 137 175 214 272 340
#     4  11  21  30  48  80 109 137 168 222 273 326
#
# _framework density 16.327189000000001
#
# number of rings (size 3 to 8) (size 9 to 14) (size 15 to 20)
#    0.000    1.333    5.000    3.000    0.000    2.667 
#    0.000    1.667    0.000    0.000    0.000    0.000 
#    0.000    0.000    0.000   49.500    0.000    3.333 
#
# Total GULP energy -267225.356627 kJ/mol
# GULP energy per Si atom -5567.194930 kJ/mol
# Density = 1.629003 g / cm^3
# Si number density = 16.327189 Si / 1000 Ang^3
#
#
#
# Elastic Constant Matrix: (Units=GPa)
#
#
# Indices 1 2 3 4 5 6 
#
# 1 87.1550 55.2750 31.3076 0.0000 0.0000 0.0000
# 2 55.2750 87.1547 31.3076 0.0000 0.0000 0.0000
# 3 31.3076 31.3076 77.2348 0.0000 0.0000 0.0000
# 4 0.0000 0.0000 0.0000 25.1509 0.0000 0.0000
# 5 0.0000 0.0000 0.0000 0.0000 25.1510 0.0000
# 6 0.0000 0.0000 0.0000 0.0000 0.0000 20.6227
#
#
#
# Elastic Compliance Matrix: (Units=1/GPa)
#
#
# Indices 1 2 3 4 5 6 
#
# 1 0.019956 -0.011412 -0.003463 0.000000 0.000000 0.000000
# 2 -0.011412 0.019956 -0.003463 0.000000 0.000000 0.000000
# 3 -0.003463 -0.003463 0.015755 0.000000 0.000000 0.000000
# 4 0.000000 0.000000 0.000000 0.039760 0.000000 0.000000
# 5 0.000000 0.000000 0.000000 0.000000 0.039760 0.000000
# 6 0.000000 0.000000 0.000000 0.000000 0.000000 0.048490
#
#
# Mechanical properties :
#
#
# Convention : Reuss Voigt Hill
#
# Bulk Modulus (GPa) = 52.66069 54.14722 53.40396
# Shear Modulus (GPa) = 22.05722 23.09522 22.57622
#
# Velocity S-wave (km/s) = 3.67952 3.76510 3.72255
# Velocity P-wave (km/s) = 7.09755 7.22060 7.15934
#
# Compressibility (1/GPa) = 0.01898950
#
# Stress axis : x y z
#
# Youngs Moduli (GPa) = 50.11130 50.11106 63.47135
#
# Poissons Ratio (x) = 0.57188 0.21981
# Poissons Ratio (y) = 0.57188 0.21981
# Poissons Ratio (z) = 0.17354 0.17354
#
# Static dielectric constant tensor:
#      x y z
#    x 1.559760 0.000000 0.000000 
#    y 0.000000 1.559760 0.000000 
#    z 0.000000 0.000000 1.625240 
# 
# From -- ./inp_files/9899.got.cif
#   From: 2010.05.17/outbox.cif.g08.bks.cpg/sg91_5_cif.got.tgz:9899.got - 2010.06.03 19:20:03.
