data_PCOD9547328
_publ_section_title
;
Structure prediction by ZEFSAII (Michael W. Deem and Ramdas Pophale) SiO2 
 PCOD9547328
Probable space group: P 4 21 2
;
_chemical_formula_sum "Si O2"
_cell_formula_units_Z 48
_cell_length_a 8.140385
_cell_length_b 8.140385
_cell_length_c 31.823004
_cell_angle_alpha 90.000000
_cell_angle_beta 90.000000
_cell_angle_gamma 90.000000
_cell_volume 2108.778981
_symmetry_space_group_name_H-M "P 4 21 2"
_symmetry_group_IT_number 90
_symmetry_cell_setting 'tetragonal'
loop_
_space_group_symop_operation_xyz
x,y,z
1/2-y,1/2+x,z
-x,-y,z
1/2+y,1/2-x,z
1/2+x,1/2-y,-z
1/2-x,1/2+y,-z
y,x,-z
-y,-x,-z
loop_
_atom_site_type_symbol
_atom_site_label
_atom_site_fract_x
_atom_site_fract_y
_atom_site_fract_z
Si Si1 0.736191 0.419639 0.539949
Si Si2 0.412157 0.736955 0.041162
Si Si3 0.092691 0.238208 0.379544
Si Si4 0.763290 0.914027 0.876833
Si Si5 0.914670 0.762543 0.795616
Si Si6 0.405551 0.738779 0.714490
O O1 0.802728 0.603601 0.538296
O O2 0.627683 0.372318 0.500000
O O3 0.644587 0.380145 0.583229
O O4 0.598568 0.799905 0.040965
O O5 0.368228 0.635908 0.082716
O O6 0.365236 0.634765 0.000000
O O7 0.200737 0.405017 0.383148
O O8 0.119130 0.170522 0.332528
O O9 0.599799 0.800682 0.877764
O O10 0.860924 0.874243 0.834487
O O11 0.800742 0.600040 0.798117
O O12 0.878587 0.851056 0.751698
O O13 0.593692 0.798574 0.718137
#
# Coordination Sequence:
#
# PCOD9547328 Si02
#       6
#     8   8   8   8   8   8
#     4  11  24  39  56  81 112 145 184 230 278 331
#     4  11  24  41  62  90 122 155 194 237 282 337
#     4   9  19  37  60  85 113 145 184 230 278 331
#     4  11  24  41  62  88 116 149 193 241 288 341
#     4  11  24  39  56  83 118 153 191 236 284 336
#     4   9  19  37  60  85 113 147 188 232 278 332
#
# _framework density 22.761986
#
# number of rings (size 3 to 8) (size 9 to 14) (size 15 to 20)
#    0.000    1.667    0.000    5.000    0.000   15.333 
#    0.000    5.000    0.000    0.000    0.000    0.000 
#    0.000    0.000    0.000    0.000    0.000    0.000 
#
# Total GULP energy -269214.067532 kJ/mol
# GULP energy per Si atom -5608.626407 kJ/mol
# Density = 2.271018 g / cm^3
# Si number density = 22.761986 Si / 1000 Ang^3
#
#
#
# Elastic Constant Matrix: (Units=GPa)
#
#
# Indices 1 2 3 4 5 6 
#
# 1 92.0448 60.3682 64.2501 0.0000 0.0000 0.0000
# 2 60.3682 92.0448 64.2500 0.0000 0.0000 0.0000
# 3 64.2501 64.2500 196.0829 0.0000 0.0000 0.0000
# 4 0.0000 0.0000 0.0000 340.7072 0.0000 0.0000
# 5 0.0000 0.0000 0.0000 0.0000 340.7119 0.0000
# 6 0.0000 0.0000 0.0000 0.0000 0.0000 48.4797
#
#
#
# Elastic Compliance Matrix: (Units=1/GPa)
#
#
# Indices 1 2 3 4 5 6 
#
# 1 0.020317 -0.011252 -0.002971 0.000000 0.000000 0.000000
# 2 -0.011252 0.020317 -0.002970 0.000000 0.000000 0.000000
# 3 -0.002971 -0.002970 0.007047 0.000000 0.000000 0.000000
# 4 0.000000 0.000000 0.000000 0.002935 0.000000 0.000000
# 5 0.000000 0.000000 0.000000 0.000000 0.002935 0.000000
# 6 0.000000 0.000000 0.000000 0.000000 0.000000 0.020627
#
#
# Mechanical properties :
#
#
# Convention : Reuss Voigt Hill
#
# Bulk Modulus (GPa) = 75.21230 84.21214 79.71222
# Shear Modulus (GPa) = 44.24943 158.73336 101.49140
#
# Velocity S-wave (km/s) = 4.41387 8.35988 6.68468
# Velocity P-wave (km/s) = 7.68707 11.41317 9.73015
#
# Compressibility (1/GPa) = 0.01329570
#
# Stress axis : x y z
#
# Youngs Moduli (GPa) = 49.21910 49.21919 141.91335
#
# Poissons Ratio (x) = 0.55380 0.42155
# Poissons Ratio (y) = 0.55380 0.42155
# Poissons Ratio (z) = 0.14621 0.14620
#
# Static dielectric constant tensor:
#      x y z
#    x 1.821420 0.000000 0.000000 
#    y 0.000000 1.821420 0.000000 
#    z 0.000000 0.000000 1.777540 
# 
# From -- ./inp_files/3042.got.cif
#   From: 2010.05.17/outbox.cif.g08.bks.cpg/sg90_2_cif.got.tgz:3042.got - 2010.06.03 19:17:45.
