data_PCOD9547217
_publ_section_title
;
Structure prediction by ZEFSAII (Michael W. Deem and Ramdas Pophale) SiO2 
 PCOD9547217
Probable space group: P 4 21 2
;
_chemical_formula_sum "Si O2"
_cell_formula_units_Z 58
_cell_length_a 17.078851
_cell_length_b 17.078851
_cell_length_c 9.253502
_cell_angle_alpha 90.000000
_cell_angle_beta 90.000000
_cell_angle_gamma 90.000000
_cell_volume 2699.127640
_symmetry_space_group_name_H-M "P 4 21 2"
_symmetry_group_IT_number 90
_symmetry_cell_setting 'tetragonal'
loop_
_space_group_symop_operation_xyz
x,y,z
1/2-y,1/2+x,z
-x,-y,z
1/2+y,1/2-x,z
1/2+x,1/2-y,-z
1/2-x,1/2+y,-z
y,x,-z
-y,-x,-z
loop_
_atom_site_type_symbol
_atom_site_label
_atom_site_fract_x
_atom_site_fract_y
_atom_site_fract_z
Si Si1 0.095223 0.703811 0.251305
Si Si2 0.230304 0.953347 0.285918
Si Si3 0.516000 0.667098 0.583026
Si Si4 0.608859 0.304303 0.120872
Si Si5 0.872642 0.514201 0.505570
Si Si6 0.500000 0.500000 0.500000
Si Si7 0.733550 0.342759 0.368791
Si Si8 0.210412 0.337786 0.950542
O O1 0.030133 0.655976 0.341471
O O2 0.179644 0.674742 0.310403
O O3 0.072785 0.791738 0.301785
O O4 0.100152 0.697330 0.079486
O O5 0.306989 0.980086 0.373792
O O6 0.257488 0.879602 0.192380
O O7 0.173311 0.944938 0.423516
O O8 0.198068 0.021398 0.181564
O O9 0.496819 0.576585 0.600182
O O10 0.432071 0.713304 0.584538
O O11 0.669970 0.322450 0.247943
O O12 0.634309 0.217230 0.068065
O O13 0.631601 0.368400 0.000000
O O14 0.916351 0.433763 0.527014
O O15 0.715050 0.284951 0.500000
O O16 0.277731 0.277731 0.000000
#
# Coordination Sequence:
#
# PCOD9547217 Si02
#       8
#     8   8   8   8   8   2   8   8
#     4  11  24  39  68  94 131 170 224 277 343 400
#     4  11  23  42  66  94 130 176 221 274 346 404
#     4  11  26  42  68  99 131 179 222 285 345 397
#     4  11  23  42  66  95 135 180 224 280 339 416
#     4  10  22  41  66  99 134 168 218 278 340 412
#     4  12  24  44  60  94 132 164 220 274 328 408
#     4  12  23  44  68  98 132 175 237 287 334 407
#     4  11  25  42  60  98 131 169 222 277 332 412
#
# _framework density 21.488423000000001
#
# number of rings (size 3 to 8) (size 9 to 14) (size 15 to 20)
#    0.000    0.966    4.828    2.483    8.690    1.103 
#    0.000    0.000    0.000    2.483    0.000    0.000 
#    0.000    0.000    0.000    0.000    0.000    0.000 
#
# Total GULP energy -324008.819209 kJ/mol
# GULP energy per Si atom -5586.358952 kJ/mol
# Density = 2.143951 g / cm^3
# Si number density = 21.488423 Si / 1000 Ang^3
#
#
#
# Elastic Constant Matrix: (Units=GPa)
#
#
# Indices 1 2 3 4 5 6 
#
# 1 42.7702 23.2970 -7.7994 0.0000 0.0000 0.0000
# 2 23.2970 42.7745 -7.8022 0.0000 0.0000 0.0000
# 3 -7.7994 -7.8022 76.9841 0.0000 0.0000 0.0000
# 4 0.0000 0.0000 0.0000 31.4756 0.0000 0.0000
# 5 0.0000 0.0000 0.0000 0.0000 31.4747 0.0000
# 6 0.0000 0.0000 0.0000 0.0000 0.0000 33.1469
#
#
#
# Elastic Compliance Matrix: (Units=1/GPa)
#
#
# Indices 1 2 3 4 5 6 
#
# 1 0.033428 -0.017920 0.001571 0.000000 0.000000 0.000000
# 2 -0.017920 0.033425 0.001572 0.000000 0.000000 0.000000
# 3 0.001571 0.001572 0.013308 0.000000 0.000000 0.000000
# 4 0.000000 0.000000 0.000000 0.031771 0.000000 0.000000
# 5 0.000000 0.000000 0.000000 0.000000 0.031772 0.000000
# 6 0.000000 0.000000 0.000000 0.000000 0.000000 0.030169
#
#
# Mechanical properties :
#
#
# Convention : Reuss Voigt Hill
#
# Bulk Modulus (GPa) = 19.76025 19.76883 19.76454
# Shear Modulus (GPa) = 22.69670 29.54168 26.11919
#
# Velocity S-wave (km/s) = 3.25349 3.71181 3.49019
# Velocity P-wave (km/s) = 4.83005 5.25260 5.04575
#
# Compressibility (1/GPa) = 0.05060664
#
# Stress axis : x y z
#
# Youngs Moduli (GPa) = 29.91487 29.91750 75.14204
#
# Poissons Ratio (x) = 0.53612 -0.11801
# Poissons Ratio (y) = 0.53608 -0.11813
# Poissons Ratio (z) = -0.04698 -0.04703
#
# Static dielectric constant tensor:
#      x y z
#    x 1.837570 0.000000 0.000000 
#    y 0.000000 1.837570 0.000000 
#    z 0.000000 0.000000 1.674380 
# 
# From -- ./inp_files/1640.got.cif
#   From: 2010.05.17/outbox.cif.g08.bks.cpg/sg90_1_cif.got.tgz:1640.got - 2010.06.03 19:17:45.
