data_PCOD9547368
_publ_section_title
;
Structure prediction by ZEFSAII (Michael W. Deem and Ramdas Pophale) SiO2 
 PCOD9547368
Probable space group: P 4 21 2
;
_chemical_formula_sum "Si O2"
_cell_formula_units_Z 36
_cell_length_a 8.031874
_cell_length_b 8.031874
_cell_length_c 25.336283
_cell_angle_alpha 90.000000
_cell_angle_beta 90.000000
_cell_angle_gamma 90.000000
_cell_volume 1634.468951
_symmetry_space_group_name_H-M "P 4 21 2"
_symmetry_group_IT_number 90
_symmetry_cell_setting 'tetragonal'
loop_
_space_group_symop_operation_xyz
x,y,z
1/2-y,1/2+x,z
-x,-y,z
1/2+y,1/2-x,z
1/2+x,1/2-y,-z
1/2-x,1/2+y,-z
y,x,-z
-y,-x,-z
loop_
_atom_site_type_symbol
_atom_site_label
_atom_site_fract_x
_atom_site_fract_y
_atom_site_fract_z
Si Si1 0.734789 0.405425 0.167544
Si Si2 0.000000 0.000000 0.253576
Si Si3 0.234184 0.088526 0.948643
Si Si4 0.404050 0.263732 0.553356
Si Si5 0.408273 0.264450 0.340419
O O1 0.796373 0.597909 0.171042
O O2 0.606779 0.382882 0.214829
O O3 0.657971 0.379235 0.109230
O O4 0.891021 0.115430 0.292150
O O5 0.399941 0.201643 0.950436
O O6 0.129714 0.129714 0.000000
O O7 0.594711 0.205572 0.554260
O O8 0.360179 0.360179 0.500000
O O9 0.353934 0.368260 0.604614
O O10 0.599491 0.204031 0.337714
#
# Coordination Sequence:
#
# PCOD9547368 Si02
#       5
#     8   4   8   8   8
#     4   9  20  38  58  83 116 152 193 242 295 353
#     4  12  22  38  62  86 112 156 206 248 294 350
#     4   9  19  35  55  82 114 146 185 234 288 349
#     4  11  24  42  66  96 127 161 202 248 302 364
#     4  11  24  41  61  89 124 159 199 250 304 358
#
# _framework density 22.025504999999999
#
# number of rings (size 3 to 8) (size 9 to 14) (size 15 to 20)
#    0.000    1.778    0.000    5.333    0.000    8.000 
#    0.000    2.222    0.000    2.667    0.000    0.000 
#    0.000    0.000    0.000    0.000    0.000    0.000 
#
# Total GULP energy -201479.222883 kJ/mol
# GULP energy per Si atom -5596.645080 kJ/mol
# Density = 2.197537 g / cm^3
# Si number density = 22.025505 Si / 1000 Ang^3
#
#
#
# Elastic Constant Matrix: (Units=GPa)
#
#
# Indices 1 2 3 4 5 6 
#
# 1 61.9827 24.7240 51.8058 0.0000 0.0000 0.0000
# 2 24.7240 61.9827 51.8058 0.0000 0.0000 0.0000
# 3 51.8058 51.8058 224.3419 0.0000 0.0000 0.0000
# 4 0.0000 0.0000 0.0000 43.5709 0.0000 0.0000
# 5 0.0000 0.0000 0.0000 0.0000 43.5709 0.0000
# 6 0.0000 0.0000 0.0000 0.0000 0.0000 32.3906
#
#
#
# Elastic Compliance Matrix: (Units=1/GPa)
#
#
# Indices 1 2 3 4 5 6 
#
# 1 0.021384 -0.005455 -0.003678 0.000000 0.000000 0.000000
# 2 -0.005455 0.021384 -0.003678 0.000000 0.000000 0.000000
# 3 -0.003678 -0.003678 0.006156 0.000000 0.000000 0.000000
# 4 0.000000 0.000000 0.000000 0.022951 0.000000 0.000000
# 5 0.000000 0.000000 0.000000 0.000000 0.022951 0.000000
# 6 0.000000 0.000000 0.000000 0.000000 0.000000 0.030873
#
#
# Mechanical properties :
#
#
# Convention : Reuss Voigt Hill
#
# Bulk Modulus (GPa) = 42.91796 67.21983 55.06890
# Shear Modulus (GPa) = 31.42871 38.57126 34.99999
#
# Velocity S-wave (km/s) = 3.78156 4.18928 3.99063
# Velocity P-wave (km/s) = 6.21247 7.34748 6.80369
#
# Compressibility (1/GPa) = 0.02330027
#
# Stress axis : x y z
#
# Youngs Moduli (GPa) = 46.76404 46.76404 162.43587
#
# Poissons Ratio (x) = 0.25512 0.59748
# Poissons Ratio (y) = 0.25512 0.59748
# Poissons Ratio (z) = 0.17201 0.17201
#
# Static dielectric constant tensor:
#      x y z
#    x -0.232470 0.000000 0.000000 
#    y 0.000000 -0.232470 0.000000 
#    z 0.000000 0.000000 1.783010 
# 
# From -- ./inp_files/2730.got.cif
#   From: 2010.05.17/outbox.cif.g08.bks.cpg/sg90_2_cif.got.tgz:2730.got - 2010.06.03 19:17:45.
