data_PCOD9547110
_publ_section_title
;
Structure prediction by ZEFSAII (Michael W. Deem and Ramdas Pophale) SiO2 
 PCOD9547110
Probable space group: P 4 21 2
;
_chemical_formula_sum "Si O2"
_cell_formula_units_Z 34
_cell_length_a 14.368907
_cell_length_b 14.368907
_cell_length_c 8.532366
_cell_angle_alpha 90.000000
_cell_angle_beta 90.000000
_cell_angle_gamma 90.000000
_cell_volume 1761.639113
_symmetry_space_group_name_H-M "P 4 21 2"
_symmetry_group_IT_number 90
_symmetry_cell_setting 'tetragonal'
loop_
_space_group_symop_operation_xyz
x,y,z
1/2-y,1/2+x,z
-x,-y,z
1/2+y,1/2-x,z
1/2+x,1/2-y,-z
1/2-x,1/2+y,-z
y,x,-z
-y,-x,-z
loop_
_atom_site_type_symbol
_atom_site_label
_atom_site_fract_x
_atom_site_fract_y
_atom_site_fract_z
Si Si1 0.746189 0.606921 0.571345
Si Si2 0.500000 0.000000 0.187542
Si Si3 0.602213 0.251084 0.553675
Si Si4 0.102092 0.243690 0.071272
Si Si5 0.582627 0.801722 0.094564
O O1 0.655948 0.655948 0.500000
O O2 0.835013 0.665006 0.507439
O O3 0.753749 0.500172 0.519410
O O4 0.742119 0.617187 0.758828
O O5 0.534400 0.891314 0.174313
O O6 0.656775 0.343226 0.500000
O O7 0.599575 0.252809 0.741493
O O8 0.154448 0.154448 0.000000
O O9 0.160423 0.333072 0.010023
O O10 0.997622 0.252600 0.005392
#
# Coordination Sequence:
#
# PCOD9547110 Si02
#       5
#     8   2   8   8   8
#     4  11  23  40  62  89 121 159 199 249 304 356
#     4   8  16  32  56  86 112 144 188 242 292 336
#     4  11  23  40  61  91 123 159 201 247 301 358
#     4  11  21  37  60  86 118 156 196 242 291 352
#     4  10  20  36  59  87 118 153 196 244 294 350
#
# _framework density 19.300208000000001
#
# number of rings (size 3 to 8) (size 9 to 14) (size 15 to 20)
#    0.000    1.412    0.000    8.471    0.000    0.941 
#    0.000    2.353    0.000    4.941    0.000    0.000 
#    0.000    0.000    0.000    0.000    0.000    0.000 
#
# Total GULP energy -189518.720509 kJ/mol
# GULP energy per Si atom -5574.080015 kJ/mol
# Density = 1.925628 g / cm^3
# Si number density = 19.300208 Si / 1000 Ang^3
#
#
#
# Elastic Constant Matrix: (Units=GPa)
#
#
# Indices 1 2 3 4 5 6 
#
# 1 65.9583 18.5938 16.7895 0.0000 0.0000 0.0000
# 2 18.5938 65.9525 16.7890 0.0000 0.0000 0.0000
# 3 16.7895 16.7890 155.1479 0.0000 0.0000 0.0000
# 4 0.0000 0.0000 0.0000 33.3088 0.0000 0.0000
# 5 0.0000 0.0000 0.0000 0.0000 33.3086 0.0000
# 6 0.0000 0.0000 0.0000 0.0000 0.0000 27.5536
#
#
#
# Elastic Compliance Matrix: (Units=1/GPa)
#
#
# Indices 1 2 3 4 5 6 
#
# 1 0.016736 -0.004378 -0.001337 0.000000 0.000000 0.000000
# 2 -0.004378 0.016737 -0.001337 0.000000 0.000000 0.000000
# 3 -0.001337 -0.001337 0.006735 0.000000 0.000000 0.000000
# 4 0.000000 0.000000 0.000000 0.030022 0.000000 0.000000
# 5 0.000000 0.000000 0.000000 0.000000 0.030022 0.000000
# 6 0.000000 0.000000 0.000000 0.000000 0.000000 0.036293
#
#
# Mechanical properties :
#
#
# Convention : Reuss Voigt Hill
#
# Bulk Modulus (GPa) = 38.31045 43.48926 40.89986
# Shear Modulus (GPa) = 31.37730 34.49329 32.93530
#
# Velocity S-wave (km/s) = 4.03643 4.23211 4.13543
# Velocity P-wave (km/s) = 6.45109 6.81638 6.63625
#
# Compressibility (1/GPa) = 0.02610254
#
# Stress axis : x y z
#
# Youngs Moduli (GPa) = 59.75284 59.74755 148.48011
#
# Poissons Ratio (x) = 0.26156 0.19857
# Poissons Ratio (y) = 0.26158 0.19858
# Poissons Ratio (z) = 0.07991 0.07991
#
# Static dielectric constant tensor:
#      x y z
#    x 1.661220 0.000000 0.000000 
#    y 0.000000 1.661220 0.000000 
#    z 0.000000 0.000000 1.668150 
# 
# From -- ./inp_files/1076.got.cif
#   From: 2010.05.17/outbox.cif.g08.bks.cpg/sg90_1_cif.got.tgz:1076.got - 2010.06.03 19:17:45.
