data_PCOD9547949
_publ_section_title
;
Structure prediction by ZEFSAII (Michael W. Deem and Ramdas Pophale) SiO2 
 PCOD9547949
Probable space group: P 41 2 2
;
_chemical_formula_sum "Si O2"
_cell_formula_units_Z 40
_cell_length_a 12.260467
_cell_length_b 12.260467
_cell_length_c 13.654603
_cell_angle_alpha 90.000000
_cell_angle_beta 90.000000
_cell_angle_gamma 90.000000
_cell_volume 2052.546966
_symmetry_space_group_name_H-M "P 41 2 2"
_symmetry_group_IT_number 91
_symmetry_cell_setting 'tetragonal'
loop_
_space_group_symop_operation_xyz
x,y,z
-y,x,1/4+z
-x,-y,1/2+z
y,-x,3/4+z
x,-y,1/2-z
-x,y,-z
y,x,3/4-z
-y,-x,1/4-z
loop_
_atom_site_type_symbol
_atom_site_label
_atom_site_fract_x
_atom_site_fract_y
_atom_site_fract_z
Si Si1 0.128357 0.627410 0.977470
Si Si2 0.699170 0.300831 0.625000
Si Si3 0.018111 0.111434 0.206109
Si Si4 0.398812 0.878246 0.796181
Si Si5 0.209828 0.500000 0.250000
Si Si6 0.175272 0.793502 0.827572
O O1 0.159203 0.677056 0.874238
O O2 0.194474 0.695579 0.057589
O O3 0.164383 0.503238 0.987625
O O4 0.000000 0.633253 0.000000
O O5 0.592664 0.283822 0.554662
O O6 0.112104 0.183061 0.160677
O O7 0.937773 0.175259 0.276414
O O8 0.067883 0.000000 0.250000
O O9 0.935970 0.064031 0.125000
O O10 0.289520 0.810621 0.774781
O O11 0.380152 0.000000 0.750000
O O12 0.440679 0.860829 0.911146
#
# Coordination Sequence:
#
# PCOD9547949 Si02
#       6
#     8   4   8   8   4   8
#     4  10  22  34  55  87 118 151 196 253 299 360
#     4  10  20  38  60  94 116 162 206 262 318 360
#     4   9  19  32  50  82 117 155 196 237 297 360
#     4  10  21  37  56  87 124 162 202 251 315 374
#     4  10  20  38  62  92 120 160 220 270 318 374
#     4  11  20  35  56  82 119 156 194 242 296 371
#
# _framework density 19.487981999999999
#
# number of rings (size 3 to 8) (size 9 to 14) (size 15 to 20)
#    0.000    2.000    2.000    2.400    2.800    1.600 
#    0.000    0.000    0.000    0.000   41.600    0.000 
#    0.000    0.000    0.000    0.000    0.000    0.000 
#
# Total GULP energy -222674.815743 kJ/mol
# GULP energy per Si atom -5566.870394 kJ/mol
# Density = 1.944363 g / cm^3
# Si number density = 19.487982 Si / 1000 Ang^3
#
#
#
# Elastic Constant Matrix: (Units=GPa)
#
#
# Indices 1 2 3 4 5 6 
#
# 1 25.1873 74.3912 19.8711 0.0000 0.0000 0.0000
# 2 74.3912 25.1937 19.8769 0.0000 0.0000 0.0000
# 3 19.8711 19.8769 48.5230 0.0000 0.0000 0.0000
# 4 0.0000 0.0000 0.0000 28.3573 0.0000 0.0000
# 5 0.0000 0.0000 0.0000 0.0000 28.3559 0.0000
# 6 0.0000 0.0000 0.0000 0.0000 0.0000 3.9127
#
#
#
# Elastic Compliance Matrix: (Units=1/GPa)
#
#
# Indices 1 2 3 4 5 6 
#
# 1 -0.004160 0.016165 -0.004918 0.000000 0.000000 0.000000
# 2 0.016165 -0.004160 -0.004916 0.000000 0.000000 0.000000
# 3 -0.004918 -0.004916 0.024636 0.000000 0.000000 0.000000
# 4 0.000000 0.000000 0.000000 0.035264 0.000000 0.000000
# 5 0.000000 0.000000 0.000000 0.000000 0.035266 0.000000
# 6 0.000000 0.000000 0.000000 0.000000 0.000000 0.255575
#
#
# Mechanical properties :
#
#
# Convention : Reuss Voigt Hill
#
# Bulk Modulus (GPa) = 34.50861 36.35360 35.43110
# Shear Modulus (GPa) = 14.73107 11.10951 12.92029
#
# Velocity S-wave (km/s) = 2.75236 2.39020 2.57765
# Velocity P-wave (km/s) = 5.27700 5.12955 5.20380
#
# Compressibility (1/GPa) = 0.02897828
#
# Stress axis : x y z
#
# Youngs Moduli (GPa) = -240.36223 -240.38553 40.59033
#
# Poissons Ratio (x) = 3.88577 0.19962
# Poissons Ratio (y) = 3.88539 0.19953
# Poissons Ratio (z) = -1.18208 -1.18166
#
# Static dielectric constant tensor:
#      x y z
#    x 1.717340 0.000000 0.000000 
#    y 0.000000 1.717330 0.000000 
#    z 0.000000 0.000000 1.816580 
# 
# From -- ./inp_files/16415.got.cif
#   From: 2010.05.17/outbox.cif.g08.bks.cpg/sg91_9_cif.got.tgz:16415.got - 2010.06.03 19:20:03.
