data_PCOD9547498
_publ_section_title
;
Structure prediction by ZEFSAII (Michael W. Deem and Ramdas Pophale) SiO2 
 PCOD9547498
Probable space group: P 41 2 2
;
_chemical_formula_sum "Si O2"
_cell_formula_units_Z 32
_cell_length_a 15.034871
_cell_length_b 15.034871
_cell_length_c 5.418826
_cell_angle_alpha 90.000000
_cell_angle_beta 90.000000
_cell_angle_gamma 90.000000
_cell_volume 1224.911236
_symmetry_space_group_name_H-M "P 41 2 2"
_symmetry_group_IT_number 91
_symmetry_cell_setting 'tetragonal'
loop_
_space_group_symop_operation_xyz
x,y,z
-y,x,1/4+z
-x,-y,1/2+z
y,-x,3/4+z
x,-y,1/2-z
-x,y,-z
y,x,3/4-z
-y,-x,1/4-z
loop_
_atom_site_type_symbol
_atom_site_label
_atom_site_fract_x
_atom_site_fract_y
_atom_site_fract_z
Si Si1 0.680993 0.155940 0.764729
Si Si2 0.409728 0.098980 0.740203
Si Si3 0.470919 0.280501 0.249786
Si Si4 0.081725 0.853925 0.885857
O O1 0.652243 0.112421 0.502305
O O2 0.630690 0.250272 0.764668
O O3 0.784124 0.161271 0.839434
O O4 0.643286 0.105065 0.004589
O O5 0.475609 0.183994 0.743520
O O6 0.451224 0.000000 0.750000
O O7 0.500000 0.326701 0.500000
O O8 0.500000 0.326362 0.000000
O O9 0.097052 0.902949 0.625000
O O10 0.081676 0.918325 0.125000
O O11 0.000000 0.795553 0.000000
#
# Coordination Sequence:
#
# PCOD9547498 Si02
#       4
#     8   8   8   8
#     4  10  20  33  49  69  93 117 142 177 226 288
#     4  10  17  26  44  71 100 124 140 157 196 264
#     4   8  16  26  41  68  99 125 142 157 192 257
#     4  12  26  43  60  74  87 110 152 211 277 329
#
# _framework density 26.124338000000002
#
# number of rings (size 3 to 8) (size 9 to 14) (size 15 to 20)
#    0.000    2.000    0.000    4.500    0.000   11.000 
#    0.000    0.000    0.000    0.000    0.000    0.000 
#    0.000    0.000    0.000    0.000    0.000    0.000 
#
# Total GULP energy -178280.592252 kJ/mol
# GULP energy per Si atom -5571.268508 kJ/mol
# Density = 2.606488 g / cm^3
# Si number density = 26.124338 Si / 1000 Ang^3
#
#
#
# Elastic Constant Matrix: (Units=GPa)
#
#
# Indices 1 2 3 4 5 6 
#
# 1 60.0341 -3.3136 47.0449 0.0000 0.0000 0.0000
# 2 -3.3136 60.0342 47.0445 0.0000 0.0000 0.0000
# 3 47.0449 47.0445 313.0100 0.0000 0.0000 0.0000
# 4 0.0000 0.0000 0.0000 11.4575 0.0000 0.0000
# 5 0.0000 0.0000 0.0000 0.0000 11.4572 0.0000
# 6 0.0000 0.0000 0.0000 0.0000 0.0000 -52.5799
#
#
#
# Elastic Compliance Matrix: (Units=1/GPa)
#
#
# Indices 1 2 3 4 5 6 
#
# 1 0.019636 0.003850 -0.003530 0.000000 0.000000 0.000000
# 2 0.003850 0.019636 -0.003530 0.000000 0.000000 0.000000
# 3 -0.003530 -0.003530 0.004256 0.000000 0.000000 0.000000
# 4 0.000000 0.000000 0.000000 0.087279 0.000000 0.000000
# 5 0.000000 0.000000 0.000000 0.000000 0.087282 0.000000
# 6 0.000000 0.000000 0.000000 0.000000 0.000000 -0.019019
#
#
# Mechanical properties :
#
#
# Convention : Reuss Voigt Hill
#
# Bulk Modulus (GPa) = 26.94846 68.29220 47.62033
# Shear Modulus (GPa) = 22.95073 16.88712 19.91893
#
# Velocity S-wave (km/s) = 2.96720 2.54522 2.76427
# Velocity P-wave (km/s) = 4.69860 5.90216 5.33444
#
# Compressibility (1/GPa) = 0.03710787
#
# Stress axis : x y z
#
# Youngs Moduli (GPa) = 50.92727 50.92755 234.97105
#
# Poissons Ratio (x) = -0.19607 0.82942
# Poissons Ratio (y) = -0.19607 0.82941
# Poissons Ratio (z) = 0.17977 0.17977
#
# Static dielectric constant tensor:
#      x y z
#    x 3.365650 0.000000 0.000000 
#    y 0.000000 3.366000 0.000000 
#    z 0.000000 0.000000 2.106180 
# 
# From -- ./inp_files/691.got.cif
#   From: 2010.05.17/outbox.cif.g08.bks.cpg/sg91_1_cif.got.tgz:691.got - 2010.06.03 19:20:03.
