data_PCOD9547542
_publ_section_title
;
Structure prediction by ZEFSAII (Michael W. Deem and Ramdas Pophale) SiO2 
 PCOD9547542
Probable space group: P 41 2 2
;
_chemical_formula_sum "Si O2"
_cell_formula_units_Z 56
_cell_length_a 14.798385
_cell_length_b 14.798385
_cell_length_c 14.445011
_cell_angle_alpha 90.000000
_cell_angle_beta 90.000000
_cell_angle_gamma 90.000000
_cell_volume 3163.344718
_symmetry_space_group_name_H-M "P 41 2 2"
_symmetry_group_IT_number 91
_symmetry_cell_setting 'tetragonal'
loop_
_space_group_symop_operation_xyz
x,y,z
-y,x,1/4+z
-x,-y,1/2+z
y,-x,3/4+z
x,-y,1/2-z
-x,y,-z
y,x,3/4-z
-y,-x,1/4-z
loop_
_atom_site_type_symbol
_atom_site_label
_atom_site_fract_x
_atom_site_fract_y
_atom_site_fract_z
Si Si1 0.886623 0.596284 0.294547
Si Si2 0.100251 0.592630 0.297755
Si Si3 0.244502 0.265255 0.269933
Si Si4 0.595962 0.593511 0.772761
Si Si5 0.272547 0.242657 0.065184
Si Si6 0.347504 0.894169 0.751153
Si Si7 0.394034 0.390691 0.978562
O O1 0.861003 0.500000 0.250000
O O2 0.830931 0.673149 0.242669
O O3 0.871236 0.603600 0.404871
O O4 0.994013 0.608378 0.281117
O O5 0.125995 0.500000 0.250000
O O6 0.160381 0.671103 0.254894
O O7 0.115678 0.589736 0.408176
O O8 0.229574 0.229574 0.375000
O O9 0.336042 0.324451 0.273449
O O10 0.259551 0.212784 0.172314
O O11 0.645856 0.500000 0.750000
O O12 0.566849 0.566849 0.875000
O O13 0.499905 0.614471 0.726567
O O14 0.175760 0.266805 0.020528
O O15 0.331935 0.335962 0.051665
O O16 0.319601 0.000000 0.750000
O O17 0.363566 0.363566 0.875000
O O18 0.500000 0.371758 0.000000
#
# Coordination Sequence:
#
# PCOD9547542 Si02
#       7
#     8   8   8   8   8   8   8
#     4  10  20  34  53  80 106 134 171 210 256 311
#     4   9  19  35  54  74 103 139 175 213 254 300
#     4  10  21  34  50  71  96 130 172 211 249 296
#     4  10  18  29  43  60  87 127 169 202 231 275
#     4  11  21  34  51  73 100 132 164 208 257 301
#     4   9  19  35  53  74 101 134 171 213 255 300
#     4  11  20  29  42  66 100 132 161 197 242 291
#
# _framework density 17.702781999999999
#
# number of rings (size 3 to 8) (size 9 to 14) (size 15 to 20)
#    0.000    2.000    0.000    5.571    0.000    5.714 
#    0.000    2.143    0.000    0.000    0.000    6.000 
#    0.000    0.000    0.000    0.000    0.000    0.000 
#
# Total GULP energy -311881.736386 kJ/mol
# GULP energy per Si atom -5569.316721 kJ/mol
# Density = 1.766249 g / cm^3
# Si number density = 17.702782 Si / 1000 Ang^3
#
#
#
# Elastic Constant Matrix: (Units=GPa)
#
#
# Indices 1 2 3 4 5 6 
#
# 1 57.8816 22.1509 40.1570 0.0000 0.0000 0.0000
# 2 22.1509 57.8816 40.1570 0.0000 0.0000 0.0000
# 3 40.1570 40.1570 160.6560 0.0000 0.0000 0.0000
# 4 0.0000 0.0000 0.0000 18.8766 0.0000 0.0000
# 5 0.0000 0.0000 0.0000 0.0000 18.8766 0.0000
# 6 0.0000 0.0000 0.0000 0.0000 0.0000 18.2157
#
#
#
# Elastic Compliance Matrix: (Units=1/GPa)
#
#
# Indices 1 2 3 4 5 6 
#
# 1 0.022333 -0.005654 -0.004169 0.000000 0.000000 0.000000
# 2 -0.005654 0.022333 -0.004169 0.000000 0.000000 0.000000
# 3 -0.004169 -0.004169 0.008309 0.000000 0.000000 0.000000
# 4 0.000000 0.000000 0.000000 0.052976 0.000000 0.000000
# 5 0.000000 0.000000 0.000000 0.000000 0.052976 0.000000
# 6 0.000000 0.000000 0.000000 0.000000 0.000000 0.054898
#
#
# Mechanical properties :
#
#
# Convention : Reuss Voigt Hill
#
# Bulk Modulus (GPa) = 40.01606 53.48318 46.74962
# Shear Modulus (GPa) = 19.98902 22.79074 21.38988
#
# Velocity S-wave (km/s) = 3.36392 3.59194 3.47980
# Velocity P-wave (km/s) = 6.14340 6.89058 6.52769
#
# Compressibility (1/GPa) = 0.02498997
#
# Stress axis : x y z
#
# Youngs Moduli (GPa) = 44.77715 44.77715 120.35778
#
# Poissons Ratio (x) = 0.25318 0.50176
# Poissons Ratio (y) = 0.25318 0.50176
# Poissons Ratio (z) = 0.18667 0.18667
#
# Static dielectric constant tensor:
#      x y z
#    x 1.623130 0.000000 0.000000 
#    y 0.000000 1.623130 0.000000 
#    z 0.000000 0.000000 1.671950 
# 
# From -- ./inp_files/20828.got.cif
#   From: 2010.05.17/outbox.cif.g08.bks.cpg/sg91_11_cif.got.tgz:20828.got - 2010.06.03 19:20:03.
