data_PCOD9547027
_publ_section_title
;
Structure prediction by ZEFSAII (Michael W. Deem and Ramdas Pophale) SiO2 
 PCOD9547027
Probable space group: P 4 2 2
;
_chemical_formula_sum "Si O2"
_cell_formula_units_Z 34
_cell_length_a 8.287822
_cell_length_b 8.287822
_cell_length_c 22.493523
_cell_angle_alpha 90.000000
_cell_angle_beta 90.000000
_cell_angle_gamma 90.000000
_cell_volume 1545.034962
_symmetry_space_group_name_H-M "P 4 2 2"
_symmetry_group_IT_number 89
_symmetry_cell_setting 'tetragonal'
loop_
_space_group_symop_operation_xyz
x,y,z
-y,x,z
-x,-y,z
y,-x,z
x,-y,-z
-x,y,-z
y,x,-z
-y,-x,-z
loop_
_atom_site_type_symbol
_atom_site_label
_atom_site_fract_x
_atom_site_fract_y
_atom_site_fract_z
Si Si1 0.229880 0.868070 0.813864
Si Si2 0.676535 0.708292 0.066542
Si Si3 0.500000 0.000000 0.500000
Si Si4 0.748578 0.402305 0.296079
Si Si5 0.919055 0.742113 0.595402
O O1 0.258509 0.823959 0.882425
O O2 0.368173 0.798546 0.771654
O O3 0.056784 0.788247 0.800288
O O4 0.481966 0.717648 0.072820
O O5 0.740737 0.740737 0.000000
O O6 0.386888 0.895754 0.543344
O O7 0.701474 0.586436 0.306597
O O8 0.882397 0.338950 0.341419
O O9 0.101520 0.806151 0.590079
#
# Coordination Sequence:
#
# PCOD9547027 Si02
#       5
#     8   8   2   8   8
#     4  11  24  39  57  86 123 163 208 258 314 378
#     4   9  19  37  60  86 117 155 202 256 314 377
#     4  12  24  42  68  98 132 170 212 264 324 386
#     4  11  24  42  65  94 127 164 211 267 325 387
#     4  11  24  43  68  98 132 172 217 264 322 392
#
# _framework density 22.005976
#
# number of rings (size 3 to 8) (size 9 to 14) (size 15 to 20)
#    0.000    1.412    0.000    5.647    0.000   11.294 
#    0.000    3.529    0.000    1.412    0.000    0.000 
#    0.000    0.000    0.000    0.000    0.000    0.000 
#
# Total GULP energy -190203.350403 kJ/mol
# GULP energy per Si atom -5594.216188 kJ/mol
# Density = 2.195589 g / cm^3
# Si number density = 22.005976 Si / 1000 Ang^3
#
#
#
# Elastic Constant Matrix: (Units=GPa)
#
#
# Indices 1 2 3 4 5 6 
#
# 1 63.2662 32.5560 30.1209 0.0000 0.0000 0.0000
# 2 32.5560 63.2662 30.1209 0.0000 0.0000 0.0000
# 3 30.1209 30.1209 123.2400 0.0000 0.0000 0.0000
# 4 0.0000 0.0000 0.0000 39.2797 0.0000 0.0000
# 5 0.0000 0.0000 0.0000 0.0000 39.2797 0.0000
# 6 0.0000 0.0000 0.0000 0.0000 0.0000 22.8619
#
#
#
# Elastic Compliance Matrix: (Units=1/GPa)
#
#
# Indices 1 2 3 4 5 6 
#
# 1 0.022447 -0.010116 -0.003014 0.000000 0.000000 0.000000
# 2 -0.010116 0.022447 -0.003014 0.000000 0.000000 0.000000
# 3 -0.003014 -0.003014 0.009587 0.000000 0.000000 0.000000
# 4 0.000000 0.000000 0.000000 0.025458 0.000000 0.000000
# 5 0.000000 0.000000 0.000000 0.000000 0.025458 0.000000
# 6 0.000000 0.000000 0.000000 0.000000 0.000000 0.043741
#
#
# Mechanical properties :
#
#
# Convention : Reuss Voigt Hill
#
# Bulk Modulus (GPa) = 45.05749 48.37421 46.71585
# Shear Modulus (GPa) = 26.47985 30.74923 28.61454
#
# Velocity S-wave (km/s) = 3.47263 3.74212 3.60989
# Velocity P-wave (km/s) = 6.04966 6.37976 6.21690
#
# Compressibility (1/GPa) = 0.02219387
#
# Stress axis : x y z
#
# Youngs Moduli (GPa) = 44.55030 44.55030 104.30348
#
# Poissons Ratio (x) = 0.45067 0.31434
# Poissons Ratio (y) = 0.45067 0.31434
# Poissons Ratio (z) = 0.13426 0.13426
#
# Static dielectric constant tensor:
#      x y z
#    x 1.798310 0.000000 0.000000 
#    y 0.000000 1.798310 0.000000 
#    z 0.000000 0.000000 1.788160 
# 
# From -- ./inp_files/2538.got.cif
#   From: 2010.05.17/outbox.cif.g08.bks.cpg/sg89_2_cif.got.tgz:2538.got - 2010.06.03 19:15:31.
