data_PCOD9547223
_publ_section_title
;
Structure prediction by ZEFSAII (Michael W. Deem and Ramdas Pophale) SiO2 
 PCOD9547223
Probable space group: P 4 21 2
;
_chemical_formula_sum "Si O2"
_cell_formula_units_Z 48
_cell_length_a 19.164398
_cell_length_b 19.164398
_cell_length_c 5.330989
_cell_angle_alpha 90.000000
_cell_angle_beta 90.000000
_cell_angle_gamma 90.000000
_cell_volume 1957.934457
_symmetry_space_group_name_H-M "P 4 21 2"
_symmetry_group_IT_number 90
_symmetry_cell_setting 'tetragonal'
loop_
_space_group_symop_operation_xyz
x,y,z
1/2-y,1/2+x,z
-x,-y,z
1/2+y,1/2-x,z
1/2+x,1/2-y,-z
1/2-x,1/2+y,-z
y,x,-z
-y,-x,-z
loop_
_atom_site_type_symbol
_atom_site_label
_atom_site_fract_x
_atom_site_fract_y
_atom_site_fract_z
Si Si1 0.326965 0.090867 0.429730
Si Si2 0.109913 0.536555 0.079630
Si Si3 0.187188 0.086830 0.113515
Si Si4 0.167729 0.832272 0.000000
Si Si5 0.937164 0.937164 0.500000
Si Si6 0.166537 0.968794 0.698862
Si Si7 0.750867 0.636341 0.592973
O O1 0.335912 0.055214 0.700049
O O2 0.250887 0.096505 0.303810
O O3 0.355805 0.169138 0.472614
O O4 0.366907 0.050056 0.206735
O O5 0.085313 0.457617 0.116252
O O6 0.123319 0.065842 0.292011
O O7 0.160715 0.160715 0.000000
O O8 0.194514 0.027164 0.896790
O O9 0.154359 0.893072 0.808241
O O10 0.149857 0.757286 0.890326
O O11 0.004551 0.911482 0.357063
O O12 0.219673 0.940471 0.479853
O O13 0.703291 0.703291 0.500000
#
# Coordination Sequence:
#
# PCOD9547223 Si02
#       7
#     8   8   8   4   4   8   8
#     4  12  28  44  82 105 140 201 240 300 376 440
#     4  11  28  51  72 107 146 183 242 309 370 443
#     4  10  25  43  70 104 150 185 249 303 368 436
#     4  10  22  42  67  98 144 186 240 303 356 438
#     4  10  22  42  67  98 144 186 240 303 356 438
#     4  10  22  44  65 102 145 194 236 312 356 444
#     4  10  25  43  70 104 150 185 249 303 368 436
#
# _framework density 24.515633999999999
#
# number of rings (size 3 to 8) (size 9 to 14) (size 15 to 20)
#    0.000    1.500    0.000    2.000   14.000    4.000 
#    0.000   24.167    0.000    0.000    0.000    0.000 
#    0.000    0.000    0.000    0.000    0.000    0.000 
#
# Total GULP energy -267670.345182 kJ/mol
# GULP energy per Si atom -5576.465525 kJ/mol
# Density = 2.445984 g / cm^3
# Si number density = 24.515634 Si / 1000 Ang^3
#
#
#
# Elastic Constant Matrix: (Units=GPa)
#
#
# Indices 1 2 3 4 5 6 
#
# 1 35.6465 47.6121 16.8746 0.0000 0.0000 0.0000
# 2 47.6121 35.6488 16.8766 0.0000 0.0000 0.0000
# 3 16.8746 16.8766 79.3180 0.0000 0.0000 0.0000
# 4 0.0000 0.0000 0.0000 30.3208 0.0000 0.0000
# 5 0.0000 0.0000 0.0000 0.0000 30.3236 0.0000
# 6 0.0000 0.0000 0.0000 0.0000 0.0000 17.5335
#
#
#
# Elastic Compliance Matrix: (Units=1/GPa)
#
#
# Indices 1 2 3 4 5 6 
#
# 1 -0.035219 0.048362 -0.002797 0.000000 0.000000 0.000000
# 2 0.048362 -0.035217 -0.002796 0.000000 0.000000 0.000000
# 3 -0.002797 -0.002796 0.013797 0.000000 0.000000 0.000000
# 4 0.000000 0.000000 0.000000 0.032981 0.000000 0.000000
# 5 0.000000 0.000000 0.000000 0.000000 0.032978 0.000000
# 6 0.000000 0.000000 0.000000 0.000000 0.000000 0.057034
#
#
# Mechanical properties :
#
#
# Convention : Reuss Voigt Hill
#
# Bulk Modulus (GPa) = 34.60239 34.81555 34.70897
# Shear Modulus (GPa) = -523.44193 20.25224 -251.59484
#
# Velocity S-wave (km/s) = -14.62795 2.87730 -10.14145
# Velocity P-wave (km/s) = 16.46687 5.02700 11.08799
#
# Compressibility (1/GPa) = 0.02889974
#
# Stress axis : x y z
#
# Youngs Moduli (GPa) = -28.39386 -28.39507 72.47712
#
# Poissons Ratio (x) = 1.37325 0.20275
# Poissons Ratio (y) = 1.37319 0.20262
# Poissons Ratio (z) = -0.07943 -0.07938
#
# Static dielectric constant tensor:
#      x y z
#    x 2.010120 0.000000 0.000000 
#    y 0.000000 2.010120 0.000000 
#    z 0.000000 0.000000 2.608900 
# 
# From -- ./inp_files/619.got.cif
#   From: 2010.05.17/outbox.cif.g08.bks.cpg/sg90_1_cif.got.tgz:619.got - 2010.06.03 19:17:45.
