data_PCOD9547278
_publ_section_title
;
Structure prediction by ZEFSAII (Michael W. Deem and Ramdas Pophale) SiO2 
 PCOD9547278
Probable space group: P 4 21 2
;
_chemical_formula_sum "Si O2"
_cell_formula_units_Z 40
_cell_length_a 14.692276
_cell_length_b 14.692276
_cell_length_c 9.321860
_cell_angle_alpha 90.000000
_cell_angle_beta 90.000000
_cell_angle_gamma 90.000000
_cell_volume 2012.244423
_symmetry_space_group_name_H-M "P 4 21 2"
_symmetry_group_IT_number 90
_symmetry_cell_setting 'tetragonal'
loop_
_space_group_symop_operation_xyz
x,y,z
1/2-y,1/2+x,z
-x,-y,z
1/2+y,1/2-x,z
1/2+x,1/2-y,-z
1/2-x,1/2+y,-z
y,x,-z
-y,-x,-z
loop_
_atom_site_type_symbol
_atom_site_label
_atom_site_fract_x
_atom_site_fract_y
_atom_site_fract_z
Si Si1 0.138478 0.141841 0.164215
Si Si2 0.299772 0.466401 0.662727
Si Si3 0.928008 0.366448 0.840277
Si Si4 0.336818 0.229090 0.897466
Si Si5 0.181370 0.955579 0.667093
O O1 0.193249 0.237041 0.148627
O O2 0.047564 0.162017 0.249928
O O3 0.187975 0.059548 0.247433
O O4 0.115937 0.115937 0.000000
O O5 0.216619 0.409086 0.731510
O O6 0.393144 0.409048 0.668758
O O7 0.285767 0.478455 0.493000
O O8 0.882773 0.464398 0.820049
O O9 0.893745 0.336150 0.997139
O O10 0.395750 0.248523 0.758361
O O11 0.316474 0.316474 0.000000
#
# Coordination Sequence:
#
# PCOD9547278 Si02
#       5
#     8   8   8   8   8
#     4  11  24  40  67  98 129 174 226 282 336 403
#     4  11  24  42  62  95 137 174 225 275 348 412
#     4  11  23  41  67  95 131 176 226 284 338 406
#     4  11  21  41  65  94 126 169 225 278 338 401
#     4  11  24  41  64  95 134 179 217 283 341 412
#
# _framework density 19.878301
#
# number of rings (size 3 to 8) (size 9 to 14) (size 15 to 20)
#    0.000    1.000    2.000    6.000    0.000    4.000 
#    3.600    0.000    0.000    2.400    0.000    0.000 
#    0.000    0.000    0.000    0.000    0.000    0.000 
#
# Total GULP energy -223302.296671 kJ/mol
# GULP energy per Si atom -5582.557417 kJ/mol
# Density = 1.983306 g / cm^3
# Si number density = 19.878301 Si / 1000 Ang^3
#
#
#
# Elastic Constant Matrix: (Units=GPa)
#
#
# Indices 1 2 3 4 5 6 
#
# 1 43.7337 63.3465 45.8453 0.0000 0.0000 0.0000
# 2 63.3465 43.7337 45.8453 0.0000 0.0000 0.0000
# 3 45.8453 45.8453 160.6661 0.0000 0.0000 0.0000
# 4 0.0000 0.0000 0.0000 13.5173 0.0000 0.0000
# 5 0.0000 0.0000 0.0000 0.0000 13.5173 0.0000
# 6 0.0000 0.0000 0.0000 0.0000 0.0000 23.0082
#
#
#
# Elastic Compliance Matrix: (Units=1/GPa)
#
#
# Indices 1 2 3 4 5 6 
#
# 1 -0.019314 0.031673 -0.003526 0.000000 0.000000 0.000000
# 2 0.031673 -0.019314 -0.003526 0.000000 0.000000 0.000000
# 3 -0.003526 -0.003526 0.008237 0.000000 0.000000 0.000000
# 4 0.000000 0.000000 0.000000 0.073979 0.000000 0.000000
# 5 0.000000 0.000000 0.000000 0.000000 0.073979 0.000000
# 6 0.000000 0.000000 0.000000 0.000000 0.000000 0.043463
#
#
# Mechanical properties :
#
#
# Convention : Reuss Voigt Hill
#
# Bulk Modulus (GPa) = 53.05682 62.02306 57.53994
# Shear Modulus (GPa) = 42.34708 16.21500 29.28104
#
# Velocity S-wave (km/s) = 4.62054 2.85917 3.84215
# Velocity P-wave (km/s) = 7.43066 6.49376 6.97795
#
# Compressibility (1/GPa) = 0.01884772
#
# Stress axis : x y z
#
# Youngs Moduli (GPa) = -51.77518 -51.77518 121.40983
#
# Poissons Ratio (x) = 1.63986 0.42814
# Poissons Ratio (y) = 1.63986 0.42814
# Poissons Ratio (z) = -0.18258 -0.18258
#
# Static dielectric constant tensor:
#      x y z
#    x 1.720520 0.000000 0.000000 
#    y 0.000000 1.720520 0.000000 
#    z 0.000000 0.000000 1.698440 
# 
# From -- ./inp_files/1274.got.cif
#   From: 2010.05.17/outbox.cif.g08.bks.cpg/sg90_1_cif.got.tgz:1274.got - 2010.06.03 19:17:45.
