data_PCOD9547782
_publ_section_title
;
Structure prediction by ZEFSAII (Michael W. Deem and Ramdas Pophale) SiO2 
 PCOD9547782
Probable space group: P 41 2 2
;
_chemical_formula_sum "Si O2"
_cell_formula_units_Z 40
_cell_length_a 8.924724
_cell_length_b 8.924724
_cell_length_c 25.492970
_cell_angle_alpha 90.000000
_cell_angle_beta 90.000000
_cell_angle_gamma 90.000000
_cell_volume 2030.532867
_symmetry_space_group_name_H-M "P 41 2 2"
_symmetry_group_IT_number 91
_symmetry_cell_setting 'tetragonal'
loop_
_space_group_symop_operation_xyz
x,y,z
-y,x,1/4+z
-x,-y,1/2+z
y,-x,3/4+z
x,-y,1/2-z
-x,y,-z
y,x,3/4-z
-y,-x,1/4-z
loop_
_atom_site_type_symbol
_atom_site_label
_atom_site_fract_x
_atom_site_fract_y
_atom_site_fract_z
Si Si1 0.481002 0.185716 0.560425
Si Si2 0.574938 0.643593 0.607052
Si Si3 0.046516 0.953485 0.625000
Si Si4 0.500000 0.656937 0.500000
Si Si5 0.045926 0.723199 0.835843
Si Si6 0.732905 0.095222 0.034297
O O1 0.500000 0.240314 0.500000
O O2 0.422707 0.308030 0.601235
O O3 0.631220 0.108519 0.583612
O O4 0.365009 0.046848 0.553620
O O5 0.411941 0.588060 0.625000
O O6 0.586383 0.578571 0.547600
O O7 0.612282 0.818669 0.601545
O O8 0.131505 0.888378 0.574412
O O9 0.867627 0.936690 0.621850
O O10 0.377970 0.763675 0.528159
O O11 0.066542 0.778784 0.775869
#
# Coordination Sequence:
#
# PCOD9547782 Si02
#       6
#     8   8   4   4   8   8
#     4  10  20  41  62  86 123 168 206 254 325 380
#     4  11  23  39  64  88 122 168 213 252 317 383
#     4  12  22  34  66  94 118 162 212 258 314 380
#     4  10  22  42  60  92 128 166 210 266 318 372
#     4  10  22  40  59  92 124 159 208 260 317 371
#     4  10  19  38  63  84 120 164 204 254 310 376
#
# _framework density 19.699262999999998
#
# number of rings (size 3 to 8) (size 9 to 14) (size 15 to 20)
#    0.000    1.600    7.000    0.600    4.200    0.000 
#    0.000    0.000    0.000    0.000    0.000    0.000 
#    0.000    0.000    0.000    0.000    0.000    0.000 
#
# Total GULP energy -222835.284423 kJ/mol
# GULP energy per Si atom -5570.882111 kJ/mol
# Density = 1.965443 g / cm^3
# Si number density = 19.699263 Si / 1000 Ang^3
#
#
#
# Elastic Constant Matrix: (Units=GPa)
#
#
# Indices 1 2 3 4 5 6 
#
# 1 55.6575 21.7772 38.9160 0.0000 0.0000 0.0000
# 2 21.7772 55.6566 38.9159 0.0000 0.0000 0.0000
# 3 38.9160 38.9159 113.7462 0.0000 0.0000 0.0000
# 4 0.0000 0.0000 0.0000 39.4833 0.0000 0.0000
# 5 0.0000 0.0000 0.0000 0.0000 39.4836 0.0000
# 6 0.0000 0.0000 0.0000 0.0000 0.0000 9.4993
#
#
#
# Elastic Compliance Matrix: (Units=1/GPa)
#
#
# Indices 1 2 3 4 5 6 
#
# 1 0.024599 -0.004917 -0.006734 0.000000 0.000000 0.000000
# 2 -0.004917 0.024600 -0.006734 0.000000 0.000000 0.000000
# 3 -0.006734 -0.006734 0.013399 0.000000 0.000000 0.000000
# 4 0.000000 0.000000 0.000000 0.025327 0.000000 0.000000
# 5 0.000000 0.000000 0.000000 0.000000 0.025327 0.000000
# 6 0.000000 0.000000 0.000000 0.000000 0.000000 0.105271
#
#
# Mechanical properties :
#
#
# Convention : Reuss Voigt Hill
#
# Bulk Modulus (GPa) = 38.71661 47.14206 42.92934
# Shear Modulus (GPa) = 18.94639 26.05665 22.50152
#
# Velocity S-wave (km/s) = 3.10462 3.64087 3.38339
# Velocity P-wave (km/s) = 5.70509 6.45426 6.09120
#
# Compressibility (1/GPa) = 0.02582871
#
# Stress axis : x y z
#
# Youngs Moduli (GPa) = 40.65167 40.65087 74.63039
#
# Poissons Ratio (x) = 0.19987 0.50256
# Poissons Ratio (y) = 0.19987 0.50257
# Poissons Ratio (z) = 0.27375 0.27375
#
# Static dielectric constant tensor:
#      x y z
#    x 1.713510 0.000000 0.000000 
#    y 0.000000 1.713510 0.000000 
#    z 0.000000 0.000000 1.751000 
# 
# From -- ./inp_files/6806.got.cif
#   From: 2010.05.17/outbox.cif.g08.bks.cpg/sg91_4_cif.got.tgz:6806.got - 2010.06.03 19:20:03.
