data_PCOD9547687
_publ_section_title
;
Structure prediction by ZEFSAII (Michael W. Deem and Ramdas Pophale) SiO2 
 PCOD9547687
Probable space group: P 41 2 2
;
_chemical_formula_sum "Si O2"
_cell_formula_units_Z 52
_cell_length_a 24.738138
_cell_length_b 24.738138
_cell_length_c 5.071619
_cell_angle_alpha 90.000000
_cell_angle_beta 90.000000
_cell_angle_gamma 90.000000
_cell_volume 3103.706430
_symmetry_space_group_name_H-M "P 41 2 2"
_symmetry_group_IT_number 91
_symmetry_cell_setting 'tetragonal'
loop_
_space_group_symop_operation_xyz
x,y,z
-y,x,1/4+z
-x,-y,1/2+z
y,-x,3/4+z
x,-y,1/2-z
-x,y,-z
y,x,3/4-z
-y,-x,1/4-z
loop_
_atom_site_type_symbol
_atom_site_label
_atom_site_fract_x
_atom_site_fract_y
_atom_site_fract_z
Si Si1 0.886531 0.059956 0.363873
Si Si2 0.460882 0.879057 0.248772
Si Si3 0.915308 0.233317 0.032921
Si Si4 0.827853 0.349325 0.494186
Si Si5 0.539067 0.000000 0.750000
Si Si6 0.057510 0.706195 0.037183
Si Si7 0.201824 0.714361 0.508081
O O1 0.919157 0.080843 0.625000
O O2 0.821941 0.067419 0.363370
O O3 0.900008 0.000000 0.250000
O O4 0.901682 0.098319 0.125000
O O5 0.500000 0.871436 0.500000
O O6 0.412966 0.835669 0.217848
O O7 0.435380 0.940083 0.261142
O O8 0.500000 0.876871 0.000000
O O9 0.939959 0.278093 0.842048
O O10 0.937522 0.243155 0.328735
O O11 0.851027 0.245898 0.025293
O O12 0.888743 0.326401 0.483398
O O13 0.804770 0.334922 0.210115
O O14 0.798318 0.313053 0.718849
O O15 0.500000 0.001422 0.500000
O O16 0.000000 0.679007 0.000000
O O17 0.250885 0.749116 0.625000
#
# Coordination Sequence:
#
# PCOD9547687 Si02
#       7
#     8   8   8   8   4   8   8
#     4  12  25  40  57  73  89 111 139 174 220 285
#     4  10  19  33  49  69 100 134 174 214 243 289
#     4  10  21  36  54  74  91 116 148 178 233 295
#     4  10  21  32  50  75  96 132 170 197 257 302
#     4   8  16  28  44  64  88 128 166 202 244 278
#     4  10  19  32  50  72 100 122 146 194 235 283
#     4  10  20  36  53  74 101 124 156 205 251 304
#
# _framework density 16.754161
#
# number of rings (size 3 to 8) (size 9 to 14) (size 15 to 20)
#    0.000    1.846    0.000    4.615    1.077    3.077 
#    0.000    0.000    0.000    0.000    0.000    0.000 
#    0.000    0.000    0.000    0.000    0.000    0.000 
#
# Total GULP energy -289508.489413 kJ/mol
# GULP energy per Si atom -5567.470950 kJ/mol
# Density = 1.671603 g / cm^3
# Si number density = 16.754161 Si / 1000 Ang^3
#
#
#
# Elastic Constant Matrix: (Units=GPa)
#
#
# Indices 1 2 3 4 5 6 
#
# 1 62.5341 1.7701 9.2237 0.0000 0.0000 0.0000
# 2 1.7701 62.5354 9.2200 0.0000 0.0000 0.0000
# 3 9.2237 9.2200 100.3409 0.0000 0.0000 0.0000
# 4 0.0000 0.0000 0.0000 12.9366 0.0000 0.0000
# 5 0.0000 0.0000 0.0000 0.0000 12.9388 0.0000
# 6 0.0000 0.0000 0.0000 0.0000 0.0000 11.7377
#
#
#
# Elastic Compliance Matrix: (Units=1/GPa)
#
#
# Indices 1 2 3 4 5 6 
#
# 1 0.016215 -0.000242 -0.001468 0.000000 0.000000 0.000000
# 2 -0.000242 0.016214 -0.001468 0.000000 0.000000 0.000000
# 3 -0.001468 -0.001468 0.010236 0.000000 0.000000 0.000000
# 4 0.000000 0.000000 0.000000 0.077300 0.000000 0.000000
# 5 0.000000 0.000000 0.000000 0.000000 0.077287 0.000000
# 6 0.000000 0.000000 0.000000 0.000000 0.000000 0.085196
#
#
# Mechanical properties :
#
#
# Convention : Reuss Voigt Hill
#
# Bulk Modulus (GPa) = 27.54206 29.53756 28.53981
# Shear Modulus (GPa) = 16.61644 21.20239 18.90941
#
# Velocity S-wave (km/s) = 3.15267 3.56125 3.36317
# Velocity P-wave (km/s) = 5.45225 5.88032 5.67033
#
# Compressibility (1/GPa) = 0.03630811
#
# Stress axis : x y z
#
# Youngs Moduli (GPa) = 61.67245 61.67441 97.69591
#
# Poissons Ratio (x) = 0.01496 0.14344
# Poissons Ratio (y) = 0.01496 0.14338
# Poissons Ratio (z) = 0.09055 0.09051
#
# Static dielectric constant tensor:
#      x y z
#    x 1.495890 0.000000 0.000000 
#    y 0.000000 1.495870 0.000000 
#    z 0.000000 0.000000 1.554970 
# 
# From -- ./inp_files/1357.got.cif
#   From: 2010.05.17/outbox.cif.g08.bks.cpg/sg91_1_cif.got.tgz:1357.got - 2010.06.03 19:20:03.
