data_PCOD9547933
_publ_section_title
;
Structure prediction by ZEFSAII (Michael W. Deem and Ramdas Pophale) SiO2 
 PCOD9547933
Probable space group: P 41 2 2
;
_chemical_formula_sum "Si O2"
_cell_formula_units_Z 60
_cell_length_a 18.135228
_cell_length_b 18.135228
_cell_length_c 9.086863
_cell_angle_alpha 90.000000
_cell_angle_beta 90.000000
_cell_angle_gamma 90.000000
_cell_volume 2988.546519
_symmetry_space_group_name_H-M "P 41 2 2"
_symmetry_group_IT_number 91
_symmetry_cell_setting 'tetragonal'
loop_
_space_group_symop_operation_xyz
x,y,z
-y,x,1/4+z
-x,-y,1/2+z
y,-x,3/4+z
x,-y,1/2-z
-x,y,-z
y,x,3/4-z
-y,-x,1/4-z
loop_
_atom_site_type_symbol
_atom_site_label
_atom_site_fract_x
_atom_site_fract_y
_atom_site_fract_z
Si Si1 0.009578 0.274134 0.323167
Si Si2 0.568820 0.956768 0.596961
Si Si3 0.143339 0.771829 0.745476
Si Si4 0.793495 0.613474 0.231516
Si Si5 0.650927 0.380395 0.457613
Si Si6 0.331057 0.444371 0.949950
Si Si7 0.000000 0.088260 0.000000
Si Si8 0.836938 0.115554 0.472867
O O1 0.086035 0.242777 0.269578
O O2 0.000000 0.268466 0.500000
O O3 0.990904 0.356878 0.280635
O O4 0.944630 0.226975 0.250442
O O5 0.500000 0.975724 0.500000
O O6 0.576719 0.866889 0.591236
O O7 0.561026 0.000000 0.750000
O O8 0.175216 0.824785 0.625000
O O9 0.174750 0.691124 0.711719
O O10 0.166439 0.803203 0.904362
O O11 0.731527 0.632872 0.111217
O O12 0.745786 0.570746 0.359359
O O13 0.642645 0.357356 0.625000
O O14 0.589737 0.335531 0.363472
O O15 0.645547 0.470155 0.445001
O O16 0.393577 0.393577 0.875000
O O17 0.061878 0.131671 0.096070
O O18 0.959824 0.040177 0.125000
O O19 0.883655 0.116346 0.625000
#
# Coordination Sequence:
#
# PCOD9547933 Si02
#       8
#     8   8   8   8   8   8   4   8
#     4  10  21  40  62  89 123 160 199 252 317 390
#     4  10  22  45  70  92 123 160 215 270 337 393
#     4  11  22  39  61  88 119 159 211 260 313 384
#     4  10  22  43  66  87 126 177 214 264 328 402
#     4  11  22  36  59  98 137 168 219 268 318 378
#     4  10  20  37  63  89 130 180 220 252 317 386
#     4  12  26  40  58  88 126 166 212 254 308 390
#     4  12  23  38  64  88 126 162 206 256 326 382
#
# _framework density 20.076647999999999
#
# number of rings (size 3 to 8) (size 9 to 14) (size 15 to 20)
#    0.000    1.333    1.333    6.400    0.000    2.133 
#    6.000    2.667    0.000    0.000    0.000    0.000 
#    0.000    0.000    0.000    0.000    0.000    0.000 
#
# Total GULP energy -334568.359821 kJ/mol
# GULP energy per Si atom -5576.139330 kJ/mol
# Density = 2.003095 g / cm^3
# Si number density = 20.076648 Si / 1000 Ang^3
#
#
#
# Elastic Constant Matrix: (Units=GPa)
#
#
# Indices 1 2 3 4 5 6 
#
# 1 70.6915 44.2976 34.1925 0.0000 0.0000 0.0000
# 2 44.2976 70.6945 34.1944 0.0000 0.0000 0.0000
# 3 34.1925 34.1944 116.9872 0.0000 0.0000 0.0000
# 4 0.0000 0.0000 0.0000 24.3125 0.0000 0.0000
# 5 0.0000 0.0000 0.0000 0.0000 24.3132 0.0000
# 6 0.0000 0.0000 0.0000 0.0000 0.0000 15.1406
#
#
#
# Elastic Compliance Matrix: (Units=1/GPa)
#
#
# Indices 1 2 3 4 5 6 
#
# 1 0.024206 -0.013680 -0.003076 0.000000 0.000000 0.000000
# 2 -0.013680 0.024205 -0.003077 0.000000 0.000000 0.000000
# 3 -0.003076 -0.003077 0.010346 0.000000 0.000000 0.000000
# 4 0.000000 0.000000 0.000000 0.041131 0.000000 0.000000
# 5 0.000000 0.000000 0.000000 0.000000 0.041130 0.000000
# 6 0.000000 0.000000 0.000000 0.000000 0.000000 0.066048
#
#
# Mechanical properties :
#
#
# Convention : Reuss Voigt Hill
#
# Bulk Modulus (GPa) = 52.37752 53.74915 53.06334
# Shear Modulus (GPa) = 19.75530 22.46582 21.11056
#
# Velocity S-wave (km/s) = 3.14027 3.34878 3.24620
# Velocity P-wave (km/s) = 6.26848 6.46394 6.36696
#
# Compressibility (1/GPa) = 0.01909216
#
# Stress axis : x y z
#
# Youngs Moduli (GPa) = 41.31184 41.31310 96.65175
#
# Poissons Ratio (x) = 0.56515 0.29734
# Poissons Ratio (y) = 0.56513 0.29738
# Poissons Ratio (z) = 0.12709 0.12711
#
# Static dielectric constant tensor:
#      x y z
#    x 1.732980 0.000000 0.000000 
#    y 0.000000 1.732980 0.000000 
#    z 0.000000 0.000000 1.748540 
# 
# From -- ./inp_files/10071.got.cif
#   From: 2010.05.17/outbox.cif.g08.bks.cpg/sg91_6_cif.got.tgz:10071.got - 2010.06.03 19:20:03.
