data_PCOD9547920
_publ_section_title
;
Structure prediction by ZEFSAII (Michael W. Deem and Ramdas Pophale) SiO2 
 PCOD9547920
Probable space group: P 41 2 2
;
_chemical_formula_sum "Si O2"
_cell_formula_units_Z 64
_cell_length_a 11.975641
_cell_length_b 11.975641
_cell_length_c 24.540850
_cell_angle_alpha 90.000000
_cell_angle_beta 90.000000
_cell_angle_gamma 90.000000
_cell_volume 3519.549988
_symmetry_space_group_name_H-M "P 41 2 2"
_symmetry_group_IT_number 91
_symmetry_cell_setting 'tetragonal'
loop_
_space_group_symop_operation_xyz
x,y,z
-y,x,1/4+z
-x,-y,1/2+z
y,-x,3/4+z
x,-y,1/2-z
-x,y,-z
y,x,3/4-z
-y,-x,1/4-z
loop_
_atom_site_type_symbol
_atom_site_label
_atom_site_fract_x
_atom_site_fract_y
_atom_site_fract_z
Si Si1 0.089086 0.682472 0.771676
Si Si2 0.450094 0.057039 0.913342
Si Si3 0.452369 0.166813 0.382026
Si Si4 0.127371 0.785533 0.182905
Si Si5 0.508250 0.239492 0.172903
Si Si6 0.346211 0.868785 0.236642
Si Si7 0.384973 0.568464 0.384862
Si Si8 0.333701 0.366344 0.747290
O O1 0.058800 0.641501 0.710725
O O2 0.079533 0.571694 0.809345
O O3 0.222025 0.702899 0.767085
O O4 0.000487 0.773030 0.794986
O O5 0.435718 0.146874 0.865683
O O6 0.463513 0.934646 0.889507
O O7 0.342942 0.158931 0.419570
O O8 0.403808 0.158397 0.321170
O O9 0.518325 0.278582 0.394582
O O10 0.147609 0.852392 0.125000
O O11 0.217695 0.829338 0.226963
O O12 0.424708 0.186918 0.217647
O O13 0.427849 0.313705 0.135621
O O14 0.602804 0.317477 0.200432
O O15 0.344555 0.000000 0.250000
O O16 0.483722 0.483722 0.375000
O O17 0.356476 0.580072 0.447995
O O18 0.306303 0.500000 0.750000
#
# Coordination Sequence:
#
# PCOD9547920 Si02
#       8
#     8   8   8   8   8   8   8   8
#     4  10  20  38  60  83 116 161 210 245 299 378
#     4  10  20  37  58  82 116 162 211 242 292 375
#     4  10  21  38  56  85 123 160 196 254 311 375
#     4   9  21  38  62  88 115 152 201 267 322 363
#     4  12  24  35  59  90 125 168 205 254 308 371
#     4  11  21  38  60  87 120 154 205 257 323 370
#     4  12  23  35  54  86 131 160 194 249 316 374
#     4  12  22  37  57  89 128 170 209 249 309 390
#
# _framework density 18.184144
#
# number of rings (size 3 to 8) (size 9 to 14) (size 15 to 20)
#    0.000    1.250    6.250    1.125    1.750    0.000 
#    0.000    0.000    0.000    2.250    3.250    0.000 
#    0.000    0.000    0.000    0.000    0.000    0.000 
#
# Total GULP energy -356815.487300 kJ/mol
# GULP energy per Si atom -5575.241989 kJ/mol
# Density = 1.814276 g / cm^3
# Si number density = 18.184144 Si / 1000 Ang^3
#
#
#
# Elastic Constant Matrix: (Units=GPa)
#
#
# Indices 1 2 3 4 5 6 
#
# 1 85.0434 22.1567 22.4121 0.0000 0.0000 0.0000
# 2 22.1567 85.0432 22.4123 0.0000 0.0000 0.0000
# 3 22.4121 22.4123 59.1053 0.0000 0.0000 0.0000
# 4 0.0000 0.0000 0.0000 19.1949 0.0000 0.0000
# 5 0.0000 0.0000 0.0000 0.0000 19.1949 0.0000
# 6 0.0000 0.0000 0.0000 0.0000 0.0000 7.8699
#
#
#
# Elastic Compliance Matrix: (Units=1/GPa)
#
#
# Indices 1 2 3 4 5 6 
#
# 1 0.013494 -0.002408 -0.004204 0.000000 0.000000 0.000000
# 2 -0.002408 0.013494 -0.004204 0.000000 0.000000 0.000000
# 3 -0.004204 -0.004204 0.020107 0.000000 0.000000 0.000000
# 4 0.000000 0.000000 0.000000 0.052097 0.000000 0.000000
# 5 0.000000 0.000000 0.000000 0.000000 0.052097 0.000000
# 6 0.000000 0.000000 0.000000 0.000000 0.000000 0.127067
#
#
# Mechanical properties :
#
#
# Convention : Reuss Voigt Hill
#
# Bulk Modulus (GPa) = 39.27081 40.35046 39.81063
# Shear Modulus (GPa) = 16.20878 20.06598 18.13738
#
# Velocity S-wave (km/s) = 2.98882 3.32548 3.16164
# Velocity P-wave (km/s) = 5.79256 6.08138 5.93873
#
# Compressibility (1/GPa) = 0.02546421
#
# Stress axis : x y z
#
# Youngs Moduli (GPa) = 74.10786 74.10757 49.73395
#
# Poissons Ratio (x) = 0.17843 0.20907
# Poissons Ratio (y) = 0.17843 0.20907
# Poissons Ratio (z) = 0.31153 0.31153
#
# Static dielectric constant tensor:
#      x y z
#    x 1.621140 0.000000 0.000000 
#    y 0.000000 1.621140 0.000000 
#    z 0.000000 0.000000 1.657630 
# 
# From -- ./inp_files/17674.got.cif
#   From: 2010.05.17/outbox.cif.g08.bks.cpg/sg91_9_cif.got.tgz:17674.got - 2010.06.03 19:20:03.
