data_PCOD9547750
_publ_section_title
;
Structure prediction by ZEFSAII (Michael W. Deem and Ramdas Pophale) SiO2 
 PCOD9547750
Probable space group: P 41 2 2
;
_chemical_formula_sum "Si O2"
_cell_formula_units_Z 48
_cell_length_a 13.541113
_cell_length_b 13.541113
_cell_length_c 13.843018
_cell_angle_alpha 90.000000
_cell_angle_beta 90.000000
_cell_angle_gamma 90.000000
_cell_volume 2538.279885
_symmetry_space_group_name_H-M "P 41 2 2"
_symmetry_group_IT_number 91
_symmetry_cell_setting 'tetragonal'
loop_
_space_group_symop_operation_xyz
x,y,z
-y,x,1/4+z
-x,-y,1/2+z
y,-x,3/4+z
x,-y,1/2-z
-x,y,-z
y,x,3/4-z
-y,-x,1/4-z
loop_
_atom_site_type_symbol
_atom_site_label
_atom_site_fract_x
_atom_site_fract_y
_atom_site_fract_z
Si Si1 0.248666 0.817305 0.337224
Si Si2 0.773230 0.606623 0.730544
Si Si3 0.064020 0.710785 0.744775
Si Si4 0.439081 0.970758 0.857136
Si Si5 0.086769 0.337312 0.397603
Si Si6 0.979102 0.128947 0.888596
O O1 0.274609 0.705200 0.309913
O O2 0.295442 0.839768 0.440988
O O3 0.290875 0.884377 0.249640
O O4 0.131595 0.841770 0.354290
O O5 0.724389 0.500000 0.750000
O O6 0.864354 0.587577 0.654781
O O7 0.816954 0.640220 0.833745
O O8 0.042971 0.613161 0.683039
O O9 0.980093 0.728189 0.827110
O O10 0.051830 0.803209 0.674931
O O11 0.557334 0.969385 0.850576
O O12 0.402566 0.000000 0.750000
O O13 0.015637 0.015637 0.875000
O O14 0.000000 0.153230 0.000000
#
# Coordination Sequence:
#
# PCOD9547750 Si02
#       6
#     8   8   8   8   8   8
#     4  12  22  38  58  82 123 161 218 250 317 383
#     4   9  20  36  58  83 116 156 201 267 317 365
#     4  11  22  35  57  79 118 163 208 258 309 368
#     4  10  19  36  58  80 118 154 210 262 322 349
#     4  10  21  37  57  88 113 160 207 269 308 367
#     4  12  25  40  50  77 119 174 215 249 294 368
#
# _framework density 18.910443000000001
#
# number of rings (size 3 to 8) (size 9 to 14) (size 15 to 20)
#    0.000    1.333    5.000    4.000    0.000    1.333 
#    0.000    0.000    0.000    0.000    0.000    0.000 
#    0.000   90.667    0.000    0.000    0.000    0.000 
#
# Total GULP energy -267408.413020 kJ/mol
# GULP energy per Si atom -5571.008605 kJ/mol
# Density = 1.886740 g / cm^3
# Si number density = 18.910443 Si / 1000 Ang^3
#
#
#
# Elastic Constant Matrix: (Units=GPa)
#
#
# Indices 1 2 3 4 5 6 
#
# 1 81.3009 24.8761 42.1665 0.0000 0.0000 0.0000
# 2 24.8761 81.3009 42.1665 0.0000 0.0000 0.0000
# 3 42.1665 42.1665 166.3255 0.0000 0.0000 0.0000
# 4 0.0000 0.0000 0.0000 28.8076 0.0000 0.0000
# 5 0.0000 0.0000 0.0000 0.0000 28.8076 0.0000
# 6 0.0000 0.0000 0.0000 0.0000 0.0000 8.8051
#
#
#
# Elastic Compliance Matrix: (Units=1/GPa)
#
#
# Indices 1 2 3 4 5 6 
#
# 1 0.014758 -0.002965 -0.002990 0.000000 0.000000 0.000000
# 2 -0.002965 0.014758 -0.002990 0.000000 0.000000 0.000000
# 3 -0.002990 -0.002990 0.007528 0.000000 0.000000 0.000000
# 4 0.000000 0.000000 0.000000 0.034713 0.000000 0.000000
# 5 0.000000 0.000000 0.000000 0.000000 0.034713 0.000000
# 6 0.000000 0.000000 0.000000 0.000000 0.000000 0.113571
#
#
# Mechanical properties :
#
#
# Convention : Reuss Voigt Hill
#
# Bulk Modulus (GPa) = 52.20539 60.81616 56.51078
# Shear Modulus (GPa) = 20.46545 27.93193 24.19869
#
# Velocity S-wave (km/s) = 3.29330 3.84743 3.58110
# Velocity P-wave (km/s) = 6.49058 7.20880 6.85910
#
# Compressibility (1/GPa) = 0.01915511
#
# Stress axis : x y z
#
# Youngs Moduli (GPa) = 67.76084 67.76084 132.83399
#
# Poissons Ratio (x) = 0.20091 0.39713
# Poissons Ratio (y) = 0.20091 0.39713
# Poissons Ratio (z) = 0.20258 0.20258
#
# Static dielectric constant tensor:
#      x y z
#    x 1.722070 0.000000 0.000000 
#    y 0.000000 1.722070 0.000000 
#    z 0.000000 0.000000 1.687630 
# 
# From -- ./inp_files/20243.got.cif
#   From: 2010.05.17/outbox.cif.g08.bks.cpg/sg91_11_cif.got.tgz:20243.got - 2010.06.03 19:20:03.
