data_PCOD9547916
_publ_section_title
;
Structure prediction by ZEFSAII (Michael W. Deem and Ramdas Pophale) SiO2 
 PCOD9547916
Probable space group: P 41 2 2
;
_chemical_formula_sum "Si O2"
_cell_formula_units_Z 48
_cell_length_a 11.586426
_cell_length_b 11.586426
_cell_length_c 20.526875
_cell_angle_alpha 90.000000
_cell_angle_beta 90.000000
_cell_angle_gamma 90.000000
_cell_volume 2755.635824
_symmetry_space_group_name_H-M "P 41 2 2"
_symmetry_group_IT_number 91
_symmetry_cell_setting 'tetragonal'
loop_
_space_group_symop_operation_xyz
x,y,z
-y,x,1/4+z
-x,-y,1/2+z
y,-x,3/4+z
x,-y,1/2-z
-x,y,-z
y,x,3/4-z
-y,-x,1/4-z
loop_
_atom_site_type_symbol
_atom_site_label
_atom_site_fract_x
_atom_site_fract_y
_atom_site_fract_z
Si Si1 0.186470 0.626178 0.219880
Si Si2 0.365804 0.349392 0.681822
Si Si3 0.345883 0.781235 0.307419
Si Si4 0.974911 0.601182 0.145763
Si Si5 0.111009 0.459435 0.037767
Si Si6 0.192931 0.500000 0.750000
Si Si7 0.399693 0.399693 0.375000
O O1 0.164622 0.500000 0.250000
O O2 0.245469 0.719004 0.267274
O O3 0.064159 0.667026 0.191925
O O4 0.280866 0.600567 0.164317
O O5 0.310647 0.384031 0.612215
O O6 0.375722 0.211647 0.688394
O O7 0.283802 0.395700 0.739235
O O8 0.494760 0.400381 0.676027
O O9 0.447337 0.824879 0.259399
O O10 0.318876 0.893971 0.351028
O O11 0.054640 0.526233 0.098144
O O12 0.892026 0.517612 0.188476
O O13 0.000000 0.408687 0.000000
#
# Coordination Sequence:
#
# PCOD9547916 Si02
#       7
#     8   8   8   8   8   4   4
#     4  12  19  33  56  80 117 158 194 236 288 353
#     4  11  22  35  52  87 124 155 185 229 304 358
#     4  10  21  34  54  86 113 151 196 243 290 340
#     4  10  20  38  53  81 120 156 201 233 290 355
#     4  10  20  37  57  81 118 153 199 239 282 353
#     4  10  24  36  54  80 126 154 188 238 290 372
#     4  12  22  30  54  90 118 150 186 232 294 352
#
# _framework density 17.418847
#
# number of rings (size 3 to 8) (size 9 to 14) (size 15 to 20)
#    0.000    1.333    5.833    0.000    3.500    0.000 
#    0.000    0.000    0.000    0.000    0.000   42.000 
#    0.000    0.000    0.000    0.000    0.000    0.000 
#
# Total GULP energy -267251.979802 kJ/mol
# GULP energy per Si atom -5567.749579 kJ/mol
# Density = 1.737920 g / cm^3
# Si number density = 17.418847 Si / 1000 Ang^3
#
#
#
# Elastic Constant Matrix: (Units=GPa)
#
#
# Indices 1 2 3 4 5 6 
#
# 1 85.2496 33.9401 31.1172 0.0000 0.0000 0.0000
# 2 33.9401 85.2496 31.1172 0.0000 0.0000 0.0000
# 3 31.1172 31.1172 68.9247 0.0000 0.0000 0.0000
# 4 0.0000 0.0000 0.0000 31.8522 0.0000 0.0000
# 5 0.0000 0.0000 0.0000 0.0000 31.8522 0.0000
# 6 0.0000 0.0000 0.0000 0.0000 0.0000 -0.3235
#
#
#
# Elastic Compliance Matrix: (Units=1/GPa)
#
#
# Indices 1 2 3 4 5 6 
#
# 1 0.015234 -0.004256 -0.004956 0.000000 0.000000 0.000000
# 2 -0.004256 0.015234 -0.004956 0.000000 0.000000 0.000000
# 3 -0.004956 -0.004956 0.018984 0.000000 0.000000 0.000000
# 4 0.000000 0.000000 0.000000 0.031395 0.000000 0.000000
# 5 0.000000 0.000000 0.000000 0.000000 0.031395 0.000000
# 6 0.000000 0.000000 0.000000 0.000000 0.000000 -3.091543
#
#
# Mechanical properties :
#
#
# Convention : Reuss Voigt Hill
#
# Bulk Modulus (GPa) = 47.36021 47.97480 47.66750
# Shear Modulus (GPa) = -1.69841 22.22615 10.26387
#
# Velocity S-wave (km/s) = -0.98851 3.57597 2.43006
# Velocity P-wave (km/s) = 5.09364 6.68219 5.94125
#
# Compressibility (1/GPa) = 0.02111477
#
# Stress axis : x y z
#
# Youngs Moduli (GPa) = 65.64403 65.64403 52.67699
#
# Poissons Ratio (x) = 0.27937 0.26107
# Poissons Ratio (y) = 0.27937 0.26107
# Poissons Ratio (z) = 0.32534 0.32534
#
# Static dielectric constant tensor:
#      x y z
#    x 1.611370 0.000000 0.000000 
#    y 0.000000 1.611370 0.000000 
#    z 0.000000 0.000000 1.671090 
# 
# From -- ./inp_files/6357.got.cif
#   From: 2010.05.17/outbox.cif.g08.bks.cpg/sg91_4_cif.got.tgz:6357.got - 2010.06.03 19:20:03.
