data_PCOD9547896
_publ_section_title
;
Structure prediction by ZEFSAII (Michael W. Deem and Ramdas Pophale) SiO2 
 PCOD9547896
Probable space group: P 41 2 2
;
_chemical_formula_sum "Si O2"
_cell_formula_units_Z 48
_cell_length_a 9.104163
_cell_length_b 9.104163
_cell_length_c 31.404883
_cell_angle_alpha 90.000000
_cell_angle_beta 90.000000
_cell_angle_gamma 90.000000
_cell_volume 2603.018347
_symmetry_space_group_name_H-M "P 41 2 2"
_symmetry_group_IT_number 91
_symmetry_cell_setting 'tetragonal'
loop_
_space_group_symop_operation_xyz
x,y,z
-y,x,1/4+z
-x,-y,1/2+z
y,-x,3/4+z
x,-y,1/2-z
-x,y,-z
y,x,3/4-z
-y,-x,1/4-z
loop_
_atom_site_type_symbol
_atom_site_label
_atom_site_fract_x
_atom_site_fract_y
_atom_site_fract_z
Si Si1 0.401588 0.126422 0.956920
Si Si2 0.308797 0.162229 0.087590
Si Si3 0.683556 0.827416 0.243037
Si Si4 0.659668 0.184032 0.586818
Si Si5 0.186505 0.321175 0.169229
Si Si6 0.671173 0.377417 0.502896
O O1 0.519184 0.195426 0.923639
O O2 0.273951 0.235265 0.971874
O O3 0.327838 0.981443 0.936447
O O4 0.500000 0.090151 0.000000
O O5 0.241627 0.212704 0.132441
O O6 0.305258 0.987138 0.082182
O O7 0.215286 0.241535 0.051387
O O8 0.515663 0.775836 0.242216
O O9 0.697389 0.000000 0.250000
O O10 0.752472 0.247529 0.625000
O O11 0.487848 0.207076 0.597242
O O12 0.686174 0.269314 0.542936
O O13 0.287809 0.296769 0.210223
O O14 0.500000 0.426728 0.500000
#
# Coordination Sequence:
#
# PCOD9547896 Si02
#       6
#     8   8   8   8   8   8
#     4   9  19  40  61  80 115 156 189 231 291 347
#     4  10  21  38  59  85 116 150 186 233 291 347
#     4  11  23  38  58  85 114 150 195 243 288 336
#     4  10  21  37  59  85 115 151 192 233 280 342
#     4  10  20  36  61  88 113 147 191 234 284 346
#     4  10  20  37  59  83 111 150 194 234 281 340
#
# _framework density 18.440131000000001
#
# number of rings (size 3 to 8) (size 9 to 14) (size 15 to 20)
#    0.000    2.000    0.000    6.000    0.000    6.667 
#    0.000    3.333    0.000    0.000    0.000    0.000 
#    0.000    0.000    0.000    0.000    0.000    0.000 
#
# Total GULP energy -267860.444260 kJ/mol
# GULP energy per Si atom -5580.425922 kJ/mol
# Density = 1.839816 g / cm^3
# Si number density = 18.440131 Si / 1000 Ang^3
#
#
#
# Elastic Constant Matrix: (Units=GPa)
#
#
# Indices 1 2 3 4 5 6 
#
# 1 100.8655 88.3068 49.8779 0.0000 0.0000 0.0000
# 2 88.3068 100.8665 49.8802 0.0000 0.0000 0.0000
# 3 49.8779 49.8802 61.1114 0.0000 0.0000 0.0000
# 4 0.0000 0.0000 0.0000 30.0853 0.0000 0.0000
# 5 0.0000 0.0000 0.0000 0.0000 30.0855 0.0000
# 6 0.0000 0.0000 0.0000 0.0000 0.0000 -2.0572
#
#
#
# Elastic Compliance Matrix: (Units=1/GPa)
#
#
# Indices 1 2 3 4 5 6 
#
# 1 0.044451 -0.035171 -0.007573 0.000000 0.000000 0.000000
# 2 -0.035171 0.044453 -0.007577 0.000000 0.000000 0.000000
# 3 -0.007573 -0.007577 0.028729 0.000000 0.000000 0.000000
# 4 0.000000 0.000000 0.000000 0.033239 0.000000 0.000000
# 5 0.000000 0.000000 0.000000 0.000000 0.033239 0.000000
# 6 0.000000 0.000000 0.000000 0.000000 0.000000 -0.486095
#
#
# Mechanical properties :
#
#
# Convention : Reuss Voigt Hill
#
# Bulk Modulus (GPa) = 58.85604 70.99704 64.92654
# Shear Modulus (GPa) = -25.55187 16.60797 -4.47195
#
# Velocity S-wave (km/s) = -3.72649 3.00433 -1.55897
# Velocity P-wave (km/s) = 3.67029 7.11474 5.66086
#
# Compressibility (1/GPa) = 0.01699061
#
# Stress axis : x y z
#
# Youngs Moduli (GPa) = 22.49684 22.49577 34.80829
#
# Poissons Ratio (x) = 0.79120 0.26359
# Poissons Ratio (y) = 0.79124 0.26375
# Poissons Ratio (z) = 0.17036 0.17046
#
# Static dielectric constant tensor:
#      x y z
#    x 1.635890 0.000000 0.000000 
#    y 0.000000 1.635890 0.000000 
#    z 0.000000 0.000000 1.630860 
# 
# From -- ./inp_files/13602.got.cif
#   From: 2010.05.17/outbox.cif.g08.bks.cpg/sg91_7_cif.got.tgz:13602.got - 2010.06.03 19:20:03.
