data_PCOD9547436
_publ_section_title
;
Structure prediction by ZEFSAII (Michael W. Deem and Ramdas Pophale) SiO2 
 PCOD9547436
Probable space group: P 4 21 2
;
_chemical_formula_sum "Si O2"
_cell_formula_units_Z 34
_cell_length_a 8.703770
_cell_length_b 8.703770
_cell_length_c 21.803039
_cell_angle_alpha 90.000000
_cell_angle_beta 90.000000
_cell_angle_gamma 90.000000
_cell_volume 1651.702568
_symmetry_space_group_name_H-M "P 4 21 2"
_symmetry_group_IT_number 90
_symmetry_cell_setting 'tetragonal'
loop_
_space_group_symop_operation_xyz
x,y,z
1/2-y,1/2+x,z
-x,-y,z
1/2+y,1/2-x,z
1/2+x,1/2-y,-z
1/2-x,1/2+y,-z
y,x,-z
-y,-x,-z
loop_
_atom_site_type_symbol
_atom_site_label
_atom_site_fract_x
_atom_site_fract_y
_atom_site_fract_z
Si Si1 0.398454 0.237318 0.310583
Si Si2 0.162001 0.915978 0.813647
Si Si3 0.721128 0.137306 0.939710
Si Si4 0.257740 0.904491 0.445858
Si Si5 0.000000 0.500000 0.198424
O O1 0.577664 0.193593 0.308823
O O2 0.356524 0.330640 0.250863
O O3 0.372258 0.309597 0.377901
O O4 0.192719 0.821908 0.876571
O O5 0.312286 0.022848 0.804688
O O6 0.000000 0.000000 0.823878
O O7 0.547855 0.202835 0.939791
O O8 0.807049 0.192952 0.000000
O O9 0.417611 0.808620 0.450320
O O10 0.147041 0.852960 0.500000
#
# Coordination Sequence:
#
# PCOD9547436 Si02
#       5
#     8   8   8   8   2
#     4   9  20  40  65  92 131 178 234 285 343 429
#     4  12  24  43  71  98 138 190 226 292 369 404
#     4  11  26  46  67  99 138 180 232 291 344 421
#     4   9  19  40  61  88 129 170 217 281 338 408
#     4  12  24  48  64 104 156 164 236 314 320 428
#
# _framework density 20.584817999999999
#
# number of rings (size 3 to 8) (size 9 to 14) (size 15 to 20)
#    0.000    1.647    2.353    2.824    3.294    0.471 
#   12.706    2.353    0.000    0.000    0.000    0.000 
#    0.000    0.000    0.000    0.000    0.000    0.000 
#
# Total GULP energy -189327.622048 kJ/mol
# GULP energy per Si atom -5568.459472 kJ/mol
# Density = 2.053797 g / cm^3
# Si number density = 20.584818 Si / 1000 Ang^3
#
#
#
# Elastic Constant Matrix: (Units=GPa)
#
#
# Indices 1 2 3 4 5 6 
#
# 1 59.7800 24.3901 44.7754 0.0000 0.0000 0.0000
# 2 24.3901 59.7781 44.7737 0.0000 0.0000 0.0000
# 3 44.7754 44.7737 204.5571 0.0000 0.0000 0.0000
# 4 0.0000 0.0000 0.0000 32.1115 0.0000 0.0000
# 5 0.0000 0.0000 0.0000 0.0000 32.1114 0.0000
# 6 0.0000 0.0000 0.0000 0.0000 0.0000 52.4310
#
#
#
# Elastic Compliance Matrix: (Units=1/GPa)
#
#
# Indices 1 2 3 4 5 6 
#
# 1 0.021872 -0.006385 -0.003390 0.000000 0.000000 0.000000
# 2 -0.006385 0.021873 -0.003390 0.000000 0.000000 0.000000
# 3 -0.003390 -0.003390 0.006373 0.000000 0.000000 0.000000
# 4 0.000000 0.000000 0.000000 0.031141 0.000000 0.000000
# 5 0.000000 0.000000 0.000000 0.000000 0.031142 0.000000
# 6 0.000000 0.000000 0.000000 0.000000 0.000000 0.019073
#
#
# Mechanical properties :
#
#
# Convention : Reuss Voigt Hill
#
# Bulk Modulus (GPa) = 42.03849 61.33259 51.68554
# Shear Modulus (GPa) = 30.16913 37.34253 33.75583
#
# Velocity S-wave (km/s) = 3.83247 4.26382 4.05389
# Velocity P-wave (km/s) = 6.32852 7.35527 6.86113
#
# Compressibility (1/GPa) = 0.02378772
#
# Stress axis : x y z
#
# Youngs Moduli (GPa) = 45.72011 45.71913 156.92067
#
# Poissons Ratio (x) = 0.29191 0.53197
# Poissons Ratio (y) = 0.29192 0.53195
# Poissons Ratio (z) = 0.15499 0.15498
#
# Static dielectric constant tensor:
#      x y z
#    x 1.747760 0.000000 0.000000 
#    y 0.000000 1.747760 0.000000 
#    z 0.000000 0.000000 1.761060 
# 
# From -- ./inp_files/2724.got.cif
#   From: 2010.05.17/outbox.cif.g08.bks.cpg/sg90_2_cif.got.tgz:2724.got - 2010.06.03 19:17:45.
