data_PCOD9547383
_publ_section_title
;
Structure prediction by ZEFSAII (Michael W. Deem and Ramdas Pophale) SiO2 
 PCOD9547383
Probable space group: P 4 21 2
;
_chemical_formula_sum "Si O2"
_cell_formula_units_Z 44
_cell_length_a 9.854239
_cell_length_b 9.854239
_cell_length_c 25.823722
_cell_angle_alpha 90.000000
_cell_angle_beta 90.000000
_cell_angle_gamma 90.000000
_cell_volume 2507.639027
_symmetry_space_group_name_H-M "P 4 21 2"
_symmetry_group_IT_number 90
_symmetry_cell_setting 'tetragonal'
loop_
_space_group_symop_operation_xyz
x,y,z
1/2-y,1/2+x,z
-x,-y,z
1/2+y,1/2-x,z
1/2+x,1/2-y,-z
1/2-x,1/2+y,-z
y,x,-z
-y,-x,-z
loop_
_atom_site_type_symbol
_atom_site_label
_atom_site_fract_x
_atom_site_fract_y
_atom_site_fract_z
Si Si1 0.500000 0.000000 0.231331
Si Si2 0.000000 0.000000 0.000000
Si Si3 0.237229 0.719019 0.761210
Si Si4 0.999474 0.277019 0.064838
Si Si5 0.841229 0.335983 0.341559
Si Si6 0.158628 0.663950 0.461320
Si Si7 0.657001 0.510834 0.177918
O O1 0.359117 0.090831 0.231665
O O2 0.000280 0.864128 0.034514
O O3 0.253353 0.759182 0.701029
O O4 0.385944 0.690043 0.784430
O O5 0.182728 0.849085 0.792443
O O6 0.131103 0.368221 0.052270
O O7 0.997846 0.246040 0.126091
O O8 0.815751 0.497114 0.334289
O O9 0.809231 0.302891 0.401259
O O10 0.184863 0.503029 0.468675
O O11 0.246146 0.753855 0.500000
O O12 0.500000 0.500000 0.162430
#
# Coordination Sequence:
#
# PCOD9547383 Si02
#       7
#     2   2   8   8   8   8   8
#     4  12  28  40  52  84 136 164 192 240 296 412
#     4  12  24  44  64  84 140 172 188 248 330 368
#     4  12  23  40  63  91 122 164 203 248 316 363
#     4  11  24  41  66  97 121 156 216 261 293 355
#     4   9  18  35  63  91 114 147 204 260 303 349
#     4   9  19  38  59  85 117 153 200 254 301 360
#     4  12  23  39  66  94 126 163 203 258 308 366
#
# _framework density 17.546385000000001
#
# number of rings (size 3 to 8) (size 9 to 14) (size 15 to 20)
#    0.000    1.273    6.364    1.636    0.000    0.727 
#    3.273    0.000    0.000    0.000    0.000    0.000 
#    0.000    0.000    0.000    0.000    0.000    0.000 
#
# Total GULP energy -245154.491387 kJ/mol
# GULP energy per Si atom -5571.692986 kJ/mol
# Density = 1.750645 g / cm^3
# Si number density = 17.546385 Si / 1000 Ang^3
#
#
#
# Elastic Constant Matrix: (Units=GPa)
#
#
# Indices 1 2 3 4 5 6 
#
# 1 84.2482 28.0679 42.8783 0.0000 0.0000 0.0000
# 2 28.0679 84.2475 42.8780 0.0000 0.0000 0.0000
# 3 42.8783 42.8780 102.3376 0.0000 0.0000 0.0000
# 4 0.0000 0.0000 0.0000 21.5893 0.0000 0.0000
# 5 0.0000 0.0000 0.0000 0.0000 21.5894 0.0000
# 6 0.0000 0.0000 0.0000 0.0000 0.0000 47.5897
#
#
#
# Elastic Compliance Matrix: (Units=1/GPa)
#
#
# Indices 1 2 3 4 5 6 
#
# 1 0.015446 -0.002354 -0.005485 0.000000 0.000000 0.000000
# 2 -0.002354 0.015446 -0.005485 0.000000 0.000000 0.000000
# 3 -0.005485 -0.005485 0.014368 0.000000 0.000000 0.000000
# 4 0.000000 0.000000 0.000000 0.046319 0.000000 0.000000
# 5 0.000000 0.000000 0.000000 0.000000 0.046319 0.000000
# 6 0.000000 0.000000 0.000000 0.000000 0.000000 0.021013
#
#
# Mechanical properties :
#
#
# Convention : Reuss Voigt Hill
#
# Bulk Modulus (GPa) = 53.73345 55.38686 54.56015
# Shear Modulus (GPa) = 26.07381 28.62097 27.34739
#
# Velocity S-wave (km/s) = 3.85904 4.04314 3.95216
# Velocity P-wave (km/s) = 7.10960 7.30962 7.21030
#
# Compressibility (1/GPa) = 0.01861038
#
# Stress axis : x y z
#
# Youngs Moduli (GPa) = 64.74296 64.74249 69.59893
#
# Poissons Ratio (x) = 0.15242 0.38176
# Poissons Ratio (y) = 0.15242 0.38176
# Poissons Ratio (z) = 0.35513 0.35513
#
# Static dielectric constant tensor:
#      x y z
#    x 1.578730 0.000000 0.000000 
#    y 0.000000 1.578730 0.000000 
#    z 0.000000 0.000000 1.581150 
# 
# From -- ./inp_files/3028.got.cif
#   From: 2010.05.17/outbox.cif.g08.bks.cpg/sg90_2_cif.got.tgz:3028.got - 2010.06.03 19:17:45.
