data_PCOD9547824
_publ_section_title
;
Structure prediction by ZEFSAII (Michael W. Deem and Ramdas Pophale) SiO2 
 PCOD9547824
Probable space group: P 41 2 2
;
_chemical_formula_sum "Si O2"
_cell_formula_units_Z 40
_cell_length_a 9.651008
_cell_length_b 9.651008
_cell_length_c 24.907992
_cell_angle_alpha 90.000000
_cell_angle_beta 90.000000
_cell_angle_gamma 90.000000
_cell_volume 2319.979080
_symmetry_space_group_name_H-M "P 41 2 2"
_symmetry_group_IT_number 91
_symmetry_cell_setting 'tetragonal'
loop_
_space_group_symop_operation_xyz
x,y,z
-y,x,1/4+z
-x,-y,1/2+z
y,-x,3/4+z
x,-y,1/2-z
-x,y,-z
y,x,3/4-z
-y,-x,1/4-z
loop_
_atom_site_type_symbol
_atom_site_label
_atom_site_fract_x
_atom_site_fract_y
_atom_site_fract_z
Si Si1 0.014828 0.649484 0.237367
Si Si2 0.860983 0.266266 0.850609
Si Si3 0.082765 0.923404 0.804693
Si Si4 0.417359 0.795516 0.111704
Si Si5 0.999890 0.244721 0.562547
O O1 0.951675 0.500000 0.250000
O O2 0.058981 0.714634 0.294181
O O3 0.146600 0.621533 0.197951
O O4 0.919432 0.759497 0.207568
O O5 0.948315 0.189654 0.897196
O O6 0.809857 0.417880 0.867206
O O7 0.743722 0.154019 0.836073
O O8 0.121721 0.000000 0.750000
O O9 0.920092 0.959805 0.815862
O O10 0.354363 0.645638 0.125000
O O11 0.336283 0.896137 0.152882
O O12 0.000000 0.280655 0.500000
#
# Coordination Sequence:
#
# PCOD9547824 Si02
#       5
#     8   8   8   8   8
#     4  10  20  33  54  82 105 145 184 224 269 329
#     4  11  21  32  54  88 110 140 181 238 273 326
#     4  11  20  33  57  83 113 140 182 233 282 326
#     4  11  20  35  56  79 109 146 191 224 272 329
#     4  11  19  35  59  83 108 143 188 232 272 327
#
# _framework density 17.241534999999999
#
# number of rings (size 3 to 8) (size 9 to 14) (size 15 to 20)
#    0.000    1.200    8.000    0.600    0.000    0.800 
#    0.000    0.000    0.000   10.800    0.000    0.000 
#    0.000    0.000    0.000    0.000    0.000    0.000 
#
# Total GULP energy -222952.829780 kJ/mol
# GULP energy per Si atom -5573.820744 kJ/mol
# Density = 1.720229 g / cm^3
# Si number density = 17.241535 Si / 1000 Ang^3
#
#
#
# Elastic Constant Matrix: (Units=GPa)
#
#
# Indices 1 2 3 4 5 6 
#
# 1 95.6769 24.7370 41.4032 0.0000 0.0000 0.0000
# 2 24.7370 95.6783 41.4031 0.0000 0.0000 0.0000
# 3 41.4032 41.4031 130.1300 0.0000 0.0000 0.0000
# 4 0.0000 0.0000 0.0000 23.6927 0.0000 0.0000
# 5 0.0000 0.0000 0.0000 0.0000 23.6925 0.0000
# 6 0.0000 0.0000 0.0000 0.0000 0.0000 13.1569
#
#
#
# Elastic Compliance Matrix: (Units=1/GPa)
#
#
# Indices 1 2 3 4 5 6 
#
# 1 0.012364 -0.001733 -0.003382 0.000000 0.000000 0.000000
# 2 -0.001733 0.012363 -0.003382 0.000000 0.000000 0.000000
# 3 -0.003382 -0.003382 0.009837 0.000000 0.000000 0.000000
# 4 0.000000 0.000000 0.000000 0.042207 0.000000 0.000000
# 5 0.000000 0.000000 0.000000 0.000000 0.042207 0.000000
# 6 0.000000 0.000000 0.000000 0.000000 0.000000 0.076006
#
#
# Mechanical properties :
#
#
# Convention : Reuss Voigt Hill
#
# Bulk Modulus (GPa) = 56.91899 59.61909 58.26904
# Shear Modulus (GPa) = 22.95313 26.37122 24.66218
#
# Velocity S-wave (km/s) = 3.65262 3.91515 3.78616
# Velocity P-wave (km/s) = 7.13254 7.42238 7.27890
#
# Compressibility (1/GPa) = 0.01756883
#
# Stress axis : x y z
#
# Youngs Moduli (GPa) = 80.88297 80.88438 101.65805
#
# Poissons Ratio (x) = 0.14016 0.34384
# Poissons Ratio (y) = 0.14016 0.34383
# Poissons Ratio (z) = 0.27357 0.27357
#
# Static dielectric constant tensor:
#      x y z
#    x 1.599010 0.000000 0.000000 
#    y 0.000000 1.599010 0.000000 
#    z 0.000000 0.000000 1.643390 
# 
# From -- ./inp_files/13187.got.cif
#   From: 2010.05.17/outbox.cif.g08.bks.cpg/sg91_7_cif.got.tgz:13187.got - 2010.06.03 19:20:03.
