data_PCOD9547609
_publ_section_title
;
Structure prediction by ZEFSAII (Michael W. Deem and Ramdas Pophale) SiO2 
 PCOD9547609
Probable space group: P 41 2 2
;
_chemical_formula_sum "Si O2"
_cell_formula_units_Z 56
_cell_length_a 15.050634
_cell_length_b 15.050634
_cell_length_c 12.671064
_cell_angle_alpha 90.000000
_cell_angle_beta 90.000000
_cell_angle_gamma 90.000000
_cell_volume 2870.269486
_symmetry_space_group_name_H-M "P 41 2 2"
_symmetry_group_IT_number 91
_symmetry_cell_setting 'tetragonal'
loop_
_space_group_symop_operation_xyz
x,y,z
-y,x,1/4+z
-x,-y,1/2+z
y,-x,3/4+z
x,-y,1/2-z
-x,y,-z
y,x,3/4-z
-y,-x,1/4-z
loop_
_atom_site_type_symbol
_atom_site_label
_atom_site_fract_x
_atom_site_fract_y
_atom_site_fract_z
Si Si1 0.796561 0.325923 0.927634
Si Si2 0.624949 0.453575 0.521496
Si Si3 0.524163 0.809603 0.878091
Si Si4 0.160070 0.105023 0.758691
Si Si5 0.993029 0.845911 0.877445
Si Si6 0.648327 0.403292 0.288557
Si Si7 0.286809 0.843771 0.063022
O O1 0.829000 0.429495 0.928583
O O2 0.696018 0.311290 0.973427
O O3 0.806030 0.300432 0.804314
O O4 0.859926 0.258477 0.987311
O O5 0.567666 0.432335 0.625000
O O6 0.722579 0.445088 0.567643
O O7 0.624470 0.399764 0.413784
O O8 0.603259 0.552573 0.485351
O O9 0.615516 0.865480 0.887826
O O10 0.500000 0.789477 0.000000
O O11 0.131426 0.131426 0.875000
O O12 0.088695 0.144595 0.675776
O O13 0.156866 0.000000 0.750000
O O14 0.939570 0.939570 0.875000
O O15 0.930760 0.775185 0.817195
O O16 0.000000 0.819546 0.000000
O O17 0.687658 0.500000 0.250000
O O18 0.232179 0.767822 0.125000
#
# Coordination Sequence:
#
# PCOD9547609 Si02
#       7
#     8   8   8   8   8   8   8
#     4  10  22  37  55  82 115 160 207 245 298 365
#     4  11  18  29  49  76 108 150 201 249 301 358
#     4   9  18  32  53  80 113 155 202 248 292 351
#     4  12  24  41  64  89 119 155 197 250 314 382
#     4  11  22  38  65  97 122 143 179 241 313 377
#     4  11  22  33  50  76 114 156 202 255 304 353
#     4  10  18  34  59  88 119 149 192 248 304 366
#
# _framework density 19.510363999999999
#
# number of rings (size 3 to 8) (size 9 to 14) (size 15 to 20)
#    0.000    1.429    0.000    9.857    0.000    2.286 
#    0.000    0.714    0.000    4.286    0.000    0.000 
#    0.000    0.000    0.000    0.000    0.000    0.000 
#
# Total GULP energy -311992.187032 kJ/mol
# GULP energy per Si atom -5571.289054 kJ/mol
# Density = 1.946596 g / cm^3
# Si number density = 19.510364 Si / 1000 Ang^3
#
#
#
# Elastic Constant Matrix: (Units=GPa)
#
#
# Indices 1 2 3 4 5 6 
#
# 1 82.7178 44.1185 25.8584 0.0000 0.0000 0.0000
# 2 44.1185 82.7174 25.8574 0.0000 0.0000 0.0000
# 3 25.8584 25.8574 57.0402 0.0000 0.0000 0.0000
# 4 0.0000 0.0000 0.0000 26.6901 0.0000 0.0000
# 5 0.0000 0.0000 0.0000 0.0000 26.6903 0.0000
# 6 0.0000 0.0000 0.0000 0.0000 0.0000 30.7278
#
#
#
# Elastic Compliance Matrix: (Units=1/GPa)
#
#
# Indices 1 2 3 4 5 6 
#
# 1 0.017790 -0.008118 -0.004385 0.000000 0.000000 0.000000
# 2 -0.008118 0.017790 -0.004384 0.000000 0.000000 0.000000
# 3 -0.004385 -0.004384 0.021507 0.000000 0.000000 0.000000
# 4 0.000000 0.000000 0.000000 0.037467 0.000000 0.000000
# 5 0.000000 0.000000 0.000000 0.000000 0.037467 0.000000
# 6 0.000000 0.000000 0.000000 0.000000 0.000000 0.032544
#
#
# Mechanical properties :
#
#
# Convention : Reuss Voigt Hill
#
# Bulk Modulus (GPa) = 42.89560 46.01601 44.45580
# Shear Modulus (GPa) = 24.25911 25.26439 24.76175
#
# Velocity S-wave (km/s) = 3.53001 3.60241 3.56639
# Velocity P-wave (km/s) = 6.21678 6.39842 6.30825
#
# Compressibility (1/GPa) = 0.02331242
#
# Stress axis : x y z
#
# Youngs Moduli (GPa) = 56.21231 56.21277 46.49698
#
# Poissons Ratio (x) = 0.45632 0.20388
# Poissons Ratio (y) = 0.45631 0.20386
# Poissons Ratio (z) = 0.24648 0.24645
#
# Static dielectric constant tensor:
#      x y z
#    x 1.724080 0.000000 0.000000 
#    y 0.000000 1.724090 0.000000 
#    z 0.000000 0.000000 1.771900 
# 
# From -- ./inp_files/3938.got.cif
#   From: 2010.05.17/outbox.cif.g08.bks.cpg/sg91_2_cif.got.tgz:3938.got - 2010.06.03 19:20:03.
