data_PCOD9547418
_publ_section_title
;
Structure prediction by ZEFSAII (Michael W. Deem and Ramdas Pophale) SiO2 
 PCOD9547418
Probable space group: P 4 21 2
;
_chemical_formula_sum "Si O2"
_cell_formula_units_Z 50
_cell_length_a 9.553894
_cell_length_b 9.553894
_cell_length_c 28.573201
_cell_angle_alpha 90.000000
_cell_angle_beta 90.000000
_cell_angle_gamma 90.000000
_cell_volume 2608.072941
_symmetry_space_group_name_H-M "P 4 21 2"
_symmetry_group_IT_number 90
_symmetry_cell_setting 'tetragonal'
loop_
_space_group_symop_operation_xyz
x,y,z
1/2-y,1/2+x,z
-x,-y,z
1/2+y,1/2-x,z
1/2+x,1/2-y,-z
1/2-x,1/2+y,-z
y,x,-z
-y,-x,-z
loop_
_atom_site_type_symbol
_atom_site_label
_atom_site_fract_x
_atom_site_fract_y
_atom_site_fract_z
Si Si1 0.195660 0.371315 0.535999
Si Si2 0.362633 0.190802 0.719390
Si Si3 0.253922 0.772405 0.179440
Si Si4 0.693260 0.133432 0.355232
Si Si5 0.500000 0.000000 0.181438
Si Si6 0.158360 0.017690 0.879848
Si Si7 0.783568 0.425174 0.021661
O O1 0.186629 0.538243 0.529134
O O2 0.299574 0.299574 0.500000
O O3 0.231907 0.343892 0.590369
O O4 0.530293 0.188408 0.715252
O O5 0.312449 0.244576 0.769861
O O6 0.294749 0.287374 0.679735
O O7 0.333173 0.635544 0.160068
O O8 0.127564 0.797741 0.143368
O O9 0.357828 0.902350 0.181178
O O10 0.534018 0.187162 0.347705
O O11 0.255707 0.063311 0.922938
O O12 0.000000 0.000000 0.897484
O O13 0.828187 0.583110 0.008076
O O14 0.646362 0.353639 0.000000
#
# Coordination Sequence:
#
# PCOD9547418 Si02
#       7
#     8   8   8   8   2   8   8
#     4   9  19  37  59  87 120 164 216 270 332 398
#     4  11  25  41  62  92 130 169 215 266 319 389
#     4  12  25  45  69 100 134 174 223 269 328 400
#     4   9  21  40  62  86 123 171 216 270 333 395
#     4  12  28  44  64 104 136 168 216 268 340 376
#     4  12  25  44  75 102 135 176 225 275 326 390
#     4  11  27  47  72 105 138 180 224 270 330 395
#
# _framework density 19.171244000000002
#
# number of rings (size 3 to 8) (size 9 to 14) (size 15 to 20)
#    0.000    1.280    4.800    0.960    4.480    2.560 
#    0.000    4.800    0.000    0.000    0.000    0.000 
#    0.000    0.000    0.000    0.000    0.000    0.000 
#
# Total GULP energy -278792.513321 kJ/mol
# GULP energy per Si atom -5575.850266 kJ/mol
# Density = 1.912761 g / cm^3
# Si number density = 19.171244 Si / 1000 Ang^3
#
#
#
# Elastic Constant Matrix: (Units=GPa)
#
#
# Indices 1 2 3 4 5 6 
#
# 1 60.9249 38.2716 19.9373 0.0000 0.0000 0.0000
# 2 38.2716 60.9233 19.9380 0.0000 0.0000 0.0000
# 3 19.9373 19.9380 45.5279 0.0000 0.0000 0.0000
# 4 0.0000 0.0000 0.0000 -50.6119 0.0000 0.0000
# 5 0.0000 0.0000 0.0000 0.0000 -50.6075 0.0000
# 6 0.0000 0.0000 0.0000 0.0000 0.0000 40.3614
#
#
#
# Elastic Compliance Matrix: (Units=1/GPa)
#
#
# Indices 1 2 3 4 5 6 
#
# 1 0.028189 -0.015955 -0.005357 0.000000 0.000000 0.000000
# 2 -0.015955 0.028191 -0.005358 0.000000 0.000000 0.000000
# 3 -0.005357 -0.005358 0.026657 0.000000 0.000000 0.000000
# 4 0.000000 0.000000 0.000000 -0.019758 0.000000 0.000000
# 5 0.000000 0.000000 0.000000 0.000000 -0.019760 0.000000
# 6 0.000000 0.000000 0.000000 0.000000 0.000000 0.024776
#
#
# Mechanical properties :
#
#
# Convention : Reuss Voigt Hill
#
# Bulk Modulus (GPa) = 33.67531 35.96332 34.81932
# Shear Modulus (GPa) = 38.01250 -6.22299 15.89475
#
# Velocity S-wave (km/s) = 4.45768 -1.80362 2.88252
# Velocity P-wave (km/s) = 6.64065 3.80294 5.41112
#
# Compressibility (1/GPa) = 0.02969535
#
# Stress axis : x y z
#
# Youngs Moduli (GPa) = 35.47432 35.47283 37.51324
#
# Poissons Ratio (x) = 0.56597 0.20097
# Poissons Ratio (y) = 0.56600 0.20101
# Poissons Ratio (z) = 0.19005 0.19008
#
# Static dielectric constant tensor:
#      x y z
#    x 1.659620 0.000000 0.000000 
#    y 0.000000 1.659620 0.000000 
#    z 0.000000 0.000000 1.646330 
# 
# From -- ./inp_files/3054.got.cif
#   From: 2010.05.17/outbox.cif.g08.bks.cpg/sg90_2_cif.got.tgz:3054.got - 2010.06.03 19:17:45.
