data_PCOD9547240
_publ_section_title
;
Structure prediction by ZEFSAII (Michael W. Deem and Ramdas Pophale) SiO2 
 PCOD9547240
Probable space group: P 4 21 2
;
_chemical_formula_sum "Si O2"
_cell_formula_units_Z 56
_cell_length_a 11.800027
_cell_length_b 11.800027
_cell_length_c 19.779845
_cell_angle_alpha 90.000000
_cell_angle_beta 90.000000
_cell_angle_gamma 90.000000
_cell_volume 2754.158222
_symmetry_space_group_name_H-M "P 4 21 2"
_symmetry_group_IT_number 90
_symmetry_cell_setting 'tetragonal'
loop_
_space_group_symop_operation_xyz
x,y,z
1/2-y,1/2+x,z
-x,-y,z
1/2+y,1/2-x,z
1/2+x,1/2-y,-z
1/2-x,1/2+y,-z
y,x,-z
-y,-x,-z
loop_
_atom_site_type_symbol
_atom_site_label
_atom_site_fract_x
_atom_site_fract_y
_atom_site_fract_z
Si Si1 0.893127 0.918346 0.659547
Si Si2 0.980612 0.313691 0.977280
Si Si3 0.816048 0.469245 0.594359
Si Si4 0.858779 0.818478 0.794405
Si Si5 0.100884 0.775146 0.833333
Si Si6 0.365042 0.499255 0.093660
Si Si7 0.519073 0.186072 0.567655
O O1 0.939926 0.800048 0.630401
O O2 0.826849 0.890987 0.729119
O O3 0.803171 0.969180 0.606781
O O4 0.000000 0.000000 0.670707
O O5 0.879917 0.402589 0.990517
O O6 0.958316 0.279979 0.899733
O O7 0.983901 0.206006 0.025858
O O8 0.873801 0.589746 0.611265
O O9 0.797827 0.473027 0.513301
O O10 0.802378 0.696156 0.800701
O O11 0.994375 0.804034 0.787096
O O12 0.836411 0.888586 0.863366
O O13 0.157483 0.890724 0.859271
O O14 0.500000 0.500000 0.082110
O O15 0.402008 0.120775 0.583963
#
# Coordination Sequence:
#
# PCOD9547240 Si02
#       7
#     8   8   8   8   8   8   8
#     4  12  26  40  65 100 136 178 229 276 330 405
#     4  11  22  39  64  92 120 154 209 263 315 383
#     4   9  21  42  66 100 137 175 226 282 340 390
#     4  11  26  42  64  90 130 170 217 262 324 396
#     4  11  22  43  63  85 125 167 205 263 323 379
#     4  10  23  41  62  93 125 161 202 258 324 389
#     4   9  21  43  69  95 133 179 224 281 337 393
#
# _framework density 20.332891
#
# number of rings (size 3 to 8) (size 9 to 14) (size 15 to 20)
#    0.000    1.571    1.429    3.857    4.000    6.571 
#    0.000    0.000    0.000    1.714    0.000    0.000 
#    0.000    0.000    0.000    0.000    0.000    0.000 
#
# Total GULP energy -313049.861417 kJ/mol
# GULP energy per Si atom -5590.176097 kJ/mol
# Density = 2.028661 g / cm^3
# Si number density = 20.332891 Si / 1000 Ang^3
#
#
#
# Elastic Constant Matrix: (Units=GPa)
#
#
# Indices 1 2 3 4 5 6 
#
# 1 73.3637 24.0069 28.3469 0.0000 0.0000 0.0000
# 2 24.0069 73.3637 28.3469 0.0000 0.0000 0.0000
# 3 28.3469 28.3469 47.7771 0.0000 0.0000 0.0000
# 4 0.0000 0.0000 0.0000 20.9614 0.0000 0.0000
# 5 0.0000 0.0000 0.0000 0.0000 20.9614 0.0000
# 6 0.0000 0.0000 0.0000 0.0000 0.0000 7.3585
#
#
#
# Elastic Compliance Matrix: (Units=1/GPa)
#
#
# Indices 1 2 3 4 5 6 
#
# 1 0.017976 -0.002285 -0.009309 0.000000 0.000000 0.000000
# 2 -0.002285 0.017976 -0.009309 0.000000 0.000000 0.000000
# 3 -0.009309 -0.009309 0.031977 0.000000 0.000000 0.000000
# 4 0.000000 0.000000 0.000000 0.047707 0.000000 0.000000
# 5 0.000000 0.000000 0.000000 0.000000 0.047707 0.000000
# 6 0.000000 0.000000 0.000000 0.000000 0.000000 0.135897
#
#
# Mechanical properties :
#
#
# Convention : Reuss Voigt Hill
#
# Bulk Modulus (GPa) = 38.28387 39.54511 38.91449
# Shear Modulus (GPa) = 14.29577 17.44317 15.86947
#
# Velocity S-wave (km/s) = 2.65445 2.93214 2.79674
# Velocity P-wave (km/s) = 5.31641 5.56366 5.44144
#
# Compressibility (1/GPa) = 0.02612066
#
# Stress axis : x y z
#
# Youngs Moduli (GPa) = 55.63127 55.63127 31.27214
#
# Poissons Ratio (x) = 0.12712 0.29112
# Poissons Ratio (y) = 0.12712 0.29112
# Poissons Ratio (z) = 0.51789 0.51789
#
# Static dielectric constant tensor:
#      x y z
#    x 1.714630 0.000000 0.000000 
#    y 0.000000 1.714630 0.000000 
#    z 0.000000 0.000000 1.761550 
# 
# From -- ./inp_files/2828.got.cif
#   From: 2010.05.17/outbox.cif.g08.bks.cpg/sg90_2_cif.got.tgz:2828.got - 2010.06.03 19:17:45.
