data_PCOD9547754
_publ_section_title
;
Structure prediction by ZEFSAII (Michael W. Deem and Ramdas Pophale) SiO2 
 PCOD9547754
Probable space group: P 41 2 2
;
_chemical_formula_sum "Si O2"
_cell_formula_units_Z 52
_cell_length_a 23.533506
_cell_length_b 23.533506
_cell_length_c 5.019871
_cell_angle_alpha 90.000000
_cell_angle_beta 90.000000
_cell_angle_gamma 90.000000
_cell_volume 2780.134598
_symmetry_space_group_name_H-M "P 41 2 2"
_symmetry_group_IT_number 91
_symmetry_cell_setting 'tetragonal'
loop_
_space_group_symop_operation_xyz
x,y,z
-y,x,1/4+z
-x,-y,1/2+z
y,-x,3/4+z
x,-y,1/2-z
-x,y,-z
y,x,3/4-z
-y,-x,1/4-z
loop_
_atom_site_type_symbol
_atom_site_label
_atom_site_fract_x
_atom_site_fract_y
_atom_site_fract_z
Si Si1 0.346403 0.433430 0.243952
Si Si2 0.770109 0.134958 0.126599
Si Si3 0.465009 0.000000 0.250000
Si Si4 0.374560 0.907740 0.157923
Si Si5 0.751556 0.940353 0.881511
Si Si6 0.357459 0.165649 0.828844
Si Si7 0.432832 0.729012 0.489494
O O1 0.362232 0.500000 0.250000
O O2 0.395689 0.395689 0.375000
O O3 0.293118 0.423466 0.441361
O O4 0.323201 0.422831 0.946232
O O5 0.822484 0.177517 0.125000
O O6 0.775643 0.083509 0.340521
O O7 0.711213 0.168506 0.188606
O O8 0.763910 0.107658 0.836810
O O9 0.426294 0.049947 0.364186
O O10 0.500000 0.977343 0.500000
O O11 0.316693 0.940824 0.082777
O O12 0.369165 0.883993 0.456009
O O13 0.379251 0.855286 0.956502
O O14 0.769787 0.000000 0.750000
O O15 0.390518 0.220954 0.927448
O O16 0.500000 0.745382 0.500000
#
# Coordination Sequence:
#
# PCOD9547754 Si02
#       7
#     8   8   4   8   8   8   8
#     4  10  21  38  58  81 107 134 172 222 279 341
#     4  10  21  34  53  86 120 143 184 244 285 329
#     4  12  24  36  52  78 110 142 188 256 298 310
#     4  10  21  37  53  77 106 142 197 235 273 341
#     4  10  19  36  59  77 107 156 191 222 280 345
#     4  10  21  36  57  78 109 153 186 226 292 337
#     4  10  21  37  56  80 108 143 188 229 269 339
#
# _framework density 18.704129999999999
#
# number of rings (size 3 to 8) (size 9 to 14) (size 15 to 20)
#    0.000    1.846    0.769    3.231    0.000    3.077 
#    0.000    2.308    0.000    0.000    0.000    0.000 
#    0.000   17.231    0.000    0.000    0.000    0.000 
#
# Total GULP energy -290199.730931 kJ/mol
# GULP energy per Si atom -5580.764056 kJ/mol
# Density = 1.866156 g / cm^3
# Si number density = 18.704130 Si / 1000 Ang^3
#
#
#
# Elastic Constant Matrix: (Units=GPa)
#
#
# Indices 1 2 3 4 5 6 
#
# 1 47.2302 33.2528 -9.2426 0.0000 0.0000 0.0000
# 2 33.2528 47.2376 -9.2403 0.0000 0.0000 0.0000
# 3 -9.2426 -9.2403 70.2628 0.0000 0.0000 0.0000
# 4 0.0000 0.0000 0.0000 22.1317 0.0000 0.0000
# 5 0.0000 0.0000 0.0000 0.0000 22.1324 0.0000
# 6 0.0000 0.0000 0.0000 0.0000 0.0000 20.3906
#
#
#
# Elastic Compliance Matrix: (Units=1/GPa)
#
#
# Indices 1 2 3 4 5 6 
#
# 1 0.042172 -0.029357 0.001687 0.000000 0.000000 0.000000
# 2 -0.029357 0.042165 0.001683 0.000000 0.000000 0.000000
# 3 0.001687 0.001683 0.014676 0.000000 0.000000 0.000000
# 4 0.000000 0.000000 0.000000 0.045184 0.000000 0.000000
# 5 0.000000 0.000000 0.000000 0.000000 0.045183 0.000000
# 6 0.000000 0.000000 0.000000 0.000000 0.000000 0.049042
#
#
# Mechanical properties :
#
#
# Convention : Reuss Voigt Hill
#
# Bulk Modulus (GPa) = 21.25923 21.58561 21.42242
# Shear Modulus (GPa) = 16.33587 22.92830 19.63208
#
# Velocity S-wave (km/s) = 2.95851 3.50500 3.24329
# Velocity P-wave (km/s) = 4.80220 5.28636 5.05009
#
# Compressibility (1/GPa) = 0.04703839
#
# Stress axis : x y z
#
# Youngs Moduli (GPa) = 23.71236 23.71650 68.14060
#
# Poissons Ratio (x) = 0.69625 -0.11493
# Poissons Ratio (y) = 0.69613 -0.11471
# Poissons Ratio (z) = -0.04000 -0.03992
#
# Static dielectric constant tensor:
#      x y z
#    x 1.635390 0.000000 0.000000 
#    y 0.000000 1.635390 0.000000 
#    z 0.000000 0.000000 1.633390 
# 
# From -- ./inp_files/9006.got.cif
#   From: 2010.05.17/outbox.cif.g08.bks.cpg/sg91_5_cif.got.tgz:9006.got - 2010.06.03 19:20:03.
