data_PCOD9547991
_publ_section_title
;
Structure prediction by ZEFSAII (Michael W. Deem and Ramdas Pophale) SiO2 
 PCOD9547991
Probable space group: P 41 2 2
;
_chemical_formula_sum "Si O2"
_cell_formula_units_Z 48
_cell_length_a 8.533122
_cell_length_b 8.533122
_cell_length_c 31.162593
_cell_angle_alpha 90.000000
_cell_angle_beta 90.000000
_cell_angle_gamma 90.000000
_cell_volume 2269.078378
_symmetry_space_group_name_H-M "P 41 2 2"
_symmetry_group_IT_number 91
_symmetry_cell_setting 'tetragonal'
loop_
_space_group_symop_operation_xyz
x,y,z
-y,x,1/4+z
-x,-y,1/2+z
y,-x,3/4+z
x,-y,1/2-z
-x,y,-z
y,x,3/4-z
-y,-x,1/4-z
loop_
_atom_site_type_symbol
_atom_site_label
_atom_site_fract_x
_atom_site_fract_y
_atom_site_fract_z
Si Si1 0.077592 0.306500 0.636960
Si Si2 0.218846 0.455441 0.460687
Si Si3 0.857490 0.040881 0.031695
Si Si4 0.359351 0.223283 0.026492
Si Si5 0.294656 0.294656 0.375000
Si Si6 0.668928 0.860956 0.704096
Si Si7 0.933051 0.066950 0.125000
O O1 0.889662 0.326030 0.634207
O O2 0.092710 0.116790 0.636677
O O3 0.140867 0.391483 0.678655
O O4 0.175910 0.360660 0.595513
O O5 0.236189 0.640925 0.462496
O O6 0.316173 0.386821 0.420226
O O7 0.252082 0.394564 0.508992
O O8 0.037667 0.401054 0.456390
O O9 0.873988 0.855076 0.038569
O O10 0.852713 0.109280 0.079912
O O11 0.000000 0.088938 0.000000
O O12 0.707819 0.091996 0.005172
O O13 0.500000 0.298757 0.000000
#
# Coordination Sequence:
#
# PCOD9547991 Si02
#       7
#     8   8   8   8   4   8   4
#     4   9  18  38  65  93 123 152 218 277 315 364
#     4  10  20  39  62  94 126 168 214 255 320 386
#     4  11  19  39  69  92 122 154 220 276 310 364
#     4  12  27  43  55  94 144 175 196 252 340 400
#     4   9  18  40  73  88 114 172 233 275 298 366
#     4   9  19  38  70  98 111 155 230 276 309 358
#     4   9  18  32  67 100 108 154 209 281 322 342
#
# _framework density 21.153963999999998
#
# number of rings (size 3 to 8) (size 9 to 14) (size 15 to 20)
#    0.000    2.000    3.333    2.000    2.333    0.000 
#   18.000    1.667    0.000    0.000    0.000    0.000 
#    0.000    0.000    0.000    0.000    0.000    0.000 
#
# Total GULP energy -267305.654949 kJ/mol
# GULP energy per Si atom -5568.867811 kJ/mol
# Density = 2.110582 g / cm^3
# Si number density = 21.153964 Si / 1000 Ang^3
#
#
#
# Elastic Constant Matrix: (Units=GPa)
#
#
# Indices 1 2 3 4 5 6 
#
# 1 28.2690 24.5194 26.5384 0.0000 0.0000 0.0000
# 2 24.5194 28.2688 26.5384 0.0000 0.0000 0.0000
# 3 26.5384 26.5384 204.2023 0.0000 0.0000 0.0000
# 4 0.0000 0.0000 0.0000 3.9702 0.0000 0.0000
# 5 0.0000 0.0000 0.0000 0.0000 3.9702 0.0000
# 6 0.0000 0.0000 0.0000 0.0000 0.0000 11.8942
#
#
#
# Elastic Compliance Matrix: (Units=1/GPa)
#
#
# Indices 1 2 3 4 5 6 
#
# 1 0.144248 -0.122458 -0.002832 0.000000 0.000000 0.000000
# 2 -0.122458 0.144249 -0.002832 0.000000 0.000000 0.000000
# 3 -0.002832 -0.002832 0.005633 0.000000 0.000000 0.000000
# 4 0.000000 0.000000 0.000000 0.251880 0.000000 0.000000
# 5 0.000000 0.000000 0.000000 0.000000 0.251876 0.000000
# 6 0.000000 0.000000 0.000000 0.000000 0.000000 0.084074
#
#
# Mechanical properties :
#
#
# Convention : Reuss Voigt Hill
#
# Bulk Modulus (GPa) = 26.39405 46.21474 36.30439
# Shear Modulus (GPa) = 4.34468 16.17651 10.26059
#
# Velocity S-wave (km/s) = 1.43468 2.76833 2.20476
# Velocity P-wave (km/s) = 3.90495 5.66678 4.86626
#
# Compressibility (1/GPa) = 0.03788733
#
# Stress axis : x y z
#
# Youngs Moduli (GPa) = 6.93251 6.93244 177.51882
#
# Poissons Ratio (x) = 0.84893 0.50271
# Poissons Ratio (y) = 0.84894 0.50276
# Poissons Ratio (z) = 0.01963 0.01963
#
# Static dielectric constant tensor:
#      x y z
#    x 1.795340 0.000000 0.000000 
#    y 0.000000 1.795340 0.000000 
#    z 0.000000 0.000000 1.843200 
# 
# From -- ./inp_files/18219.got.cif
#   From: 2010.05.17/outbox.cif.g08.bks.cpg/sg91_10_cif.got.tgz:18219.got - 2010.06.03 19:20:03.
