data_PCOD9547848
_publ_section_title
;
Structure prediction by ZEFSAII (Michael W. Deem and Ramdas Pophale) SiO2 
 PCOD9547848
Probable space group: P 41 2 2
;
_chemical_formula_sum "Si O2"
_cell_formula_units_Z 48
_cell_length_a 11.257564
_cell_length_b 11.257564
_cell_length_c 16.602626
_cell_angle_alpha 90.000000
_cell_angle_beta 90.000000
_cell_angle_gamma 90.000000
_cell_volume 2104.096404
_symmetry_space_group_name_H-M "P 41 2 2"
_symmetry_group_IT_number 91
_symmetry_cell_setting 'tetragonal'
loop_
_space_group_symop_operation_xyz
x,y,z
-y,x,1/4+z
-x,-y,1/2+z
y,-x,3/4+z
x,-y,1/2-z
-x,y,-z
y,x,3/4-z
-y,-x,1/4-z
loop_
_atom_site_type_symbol
_atom_site_label
_atom_site_fract_x
_atom_site_fract_y
_atom_site_fract_z
Si Si1 0.378598 0.614505 0.028838
Si Si2 0.405928 0.113017 0.934639
Si Si3 0.836572 0.230422 0.315479
Si Si4 0.850948 0.341300 0.819490
Si Si5 0.076759 0.876980 0.208664
Si Si6 0.435287 0.873669 0.296774
O O1 0.380038 0.619963 0.125000
O O2 0.500000 0.546965 0.000000
O O3 0.387135 0.736688 0.977027
O O4 0.243787 0.576586 0.007163
O O5 0.443657 0.148485 0.846311
O O6 0.418119 0.969300 0.929939
O O7 0.500000 0.158843 0.000000
O O8 0.285010 0.154087 0.976190
O O9 0.708948 0.184573 0.343268
O O10 0.872465 0.330317 0.383788
O O11 0.938133 0.130028 0.315302
O O12 0.891573 0.226053 0.769334
O O13 0.143941 0.856060 0.125000
O O14 0.107252 0.000000 0.250000
O O15 0.431493 0.000000 0.250000
#
# Coordination Sequence:
#
# PCOD9547848 Si02
#       6
#     8   8   8   8   8   8
#     4  11  26  44  71 106 141 184 236 303 367 432
#     4   9  19  37  62  93 131 171 224 293 348 421
#     4   9  20  35  57  94 127 179 220 284 358 427
#     4  10  20  34  63  94 131 173 230 289 355 426
#     4  11  20  31  53  85 137 177 219 283 358 426
#     4  10  23  40  70 101 130 175 242 297 361 429
#
# _framework density 22.812640999999999
#
# number of rings (size 3 to 8) (size 9 to 14) (size 15 to 20)
#    0.000    2.000    1.667    1.000   14.000    0.000 
#    0.000    5.000    0.000    0.000    0.000    0.000 
#    0.000    0.000    0.000    0.000    0.000    0.000 
#
# Total GULP energy -267710.024690 kJ/mol
# GULP energy per Si atom -5577.292181 kJ/mol
# Density = 2.276072 g / cm^3
# Si number density = 22.812641 Si / 1000 Ang^3
#
#
#
# Elastic Constant Matrix: (Units=GPa)
#
#
# Indices 1 2 3 4 5 6 
#
# 1 58.1453 5.7354 35.2244 0.0000 0.0000 0.0000
# 2 5.7354 58.1460 35.2246 0.0000 0.0000 0.0000
# 3 35.2244 35.2246 124.1368 0.0000 0.0000 0.0000
# 4 0.0000 0.0000 0.0000 18.1047 0.0000 0.0000
# 5 0.0000 0.0000 0.0000 0.0000 18.1047 0.0000
# 6 0.0000 0.0000 0.0000 0.0000 0.0000 4.1499
#
#
#
# Elastic Compliance Matrix: (Units=1/GPa)
#
#
# Indices 1 2 3 4 5 6 
#
# 1 0.020932 0.001852 -0.006465 0.000000 0.000000 0.000000
# 2 0.001852 0.020932 -0.006465 0.000000 0.000000 0.000000
# 3 -0.006465 -0.006465 0.011725 0.000000 0.000000 0.000000
# 4 0.000000 0.000000 0.000000 0.055234 0.000000 0.000000
# 5 0.000000 0.000000 0.000000 0.000000 0.055234 0.000000
# 6 0.000000 0.000000 0.000000 0.000000 0.000000 0.240968
#
#
# Mechanical properties :
#
#
# Convention : Reuss Voigt Hill
#
# Bulk Modulus (GPa) = 31.81460 43.64410 37.72935
# Shear Modulus (GPa) = 11.42443 19.02145 15.22294
#
# Velocity S-wave (km/s) = 2.24027 2.89071 2.58602
# Velocity P-wave (km/s) = 4.54621 5.50588 5.04890
#
# Compressibility (1/GPa) = 0.03143211
#
# Stress axis : x y z
#
# Youngs Moduli (GPa) = 47.77343 47.77399 85.29078
#
# Poissons Ratio (x) = -0.08847 0.55141
# Poissons Ratio (y) = -0.08847 0.55141
# Poissons Ratio (z) = 0.30886 0.30886
#
# Static dielectric constant tensor:
#      x y z
#    x 1.898580 0.000000 0.000000 
#    y 0.000000 1.898580 0.000000 
#    z 0.000000 0.000000 2.351800 
# 
# From -- ./inp_files/11943.got.cif
#   From: 2010.05.17/outbox.cif.g08.bks.cpg/sg91_6_cif.got.tgz:11943.got - 2010.06.03 19:20:03.
