data_PCOD9547778
_publ_section_title
;
Structure prediction by ZEFSAII (Michael W. Deem and Ramdas Pophale) SiO2 
 PCOD9547778
Probable space group: P 41 2 2
;
_chemical_formula_sum "Si O2"
_cell_formula_units_Z 36
_cell_length_a 11.892977
_cell_length_b 11.892977
_cell_length_c 12.789525
_cell_angle_alpha 90.000000
_cell_angle_beta 90.000000
_cell_angle_gamma 90.000000
_cell_volume 1808.987530
_symmetry_space_group_name_H-M "P 41 2 2"
_symmetry_group_IT_number 91
_symmetry_cell_setting 'tetragonal'
loop_
_space_group_symop_operation_xyz
x,y,z
-y,x,1/4+z
-x,-y,1/2+z
y,-x,3/4+z
x,-y,1/2-z
-x,y,-z
y,x,3/4-z
-y,-x,1/4-z
loop_
_atom_site_type_symbol
_atom_site_label
_atom_site_fract_x
_atom_site_fract_y
_atom_site_fract_z
Si Si1 0.298613 0.642423 0.905350
Si Si2 0.251320 0.153629 0.470746
Si Si3 0.009724 0.636784 0.381642
Si Si4 0.830727 0.500000 0.250000
Si Si5 0.516408 0.231012 0.642537
O O1 0.248424 0.594196 0.799908
O O2 0.428819 0.676779 0.899323
O O3 0.228139 0.751844 0.942038
O O4 0.275368 0.553112 0.995458
O O5 0.163278 0.163278 0.375000
O O6 0.277509 0.042194 0.537322
O O7 0.369343 0.197874 0.418630
O O8 0.116745 0.554329 0.393155
O O9 0.000000 0.684490 0.500000
O O10 0.908831 0.559451 0.337893
#
# Coordination Sequence:
#
# PCOD9547778 Si02
#       5
#     8   8   8   4   8
#     4  10  21  34  49  79 111 151 193 235 268 346
#     4   9  19  38  58  76 107 158 204 231 271 358
#     4  11  19  34  58  77 106 153 191 240 301 332
#     4  12  22  34  52  80 114 146 178 250 300 334
#     4  10  19  38  54  74 111 157 200 229 276 345
#
# _framework density 19.900632999999999
#
# number of rings (size 3 to 8) (size 9 to 14) (size 15 to 20)
#    0.000    1.778    4.444    2.000    0.000    0.889 
#   16.000    0.000    0.000    0.000    0.000    0.000 
#    0.000   56.889    0.000    0.000    0.000    0.000 
#
# Total GULP energy -200500.204382 kJ/mol
# GULP energy per Si atom -5569.450122 kJ/mol
# Density = 1.985534 g / cm^3
# Si number density = 19.900633 Si / 1000 Ang^3
#
#
#
# Elastic Constant Matrix: (Units=GPa)
#
#
# Indices 1 2 3 4 5 6 
#
# 1 34.1669 13.1897 24.1508 0.0000 0.0000 0.0000
# 2 13.1897 34.1669 24.1508 0.0000 0.0000 0.0000
# 3 24.1508 24.1508 97.2139 0.0000 0.0000 0.0000
# 4 0.0000 0.0000 0.0000 32.3754 0.0000 0.0000
# 5 0.0000 0.0000 0.0000 0.0000 32.3754 0.0000
# 6 0.0000 0.0000 0.0000 0.0000 0.0000 8.1515
#
#
#
# Elastic Compliance Matrix: (Units=1/GPa)
#
#
# Indices 1 2 3 4 5 6 
#
# 1 0.037977 -0.009694 -0.007026 0.000000 0.000000 0.000000
# 2 -0.009694 0.037977 -0.007026 0.000000 0.000000 0.000000
# 3 -0.007026 -0.007026 0.013778 0.000000 0.000000 0.000000
# 4 0.000000 0.000000 0.000000 0.030888 0.000000 0.000000
# 5 0.000000 0.000000 0.000000 0.000000 0.030888 0.000000
# 6 0.000000 0.000000 0.000000 0.000000 0.000000 0.122676
#
#
# Mechanical properties :
#
#
# Convention : Reuss Voigt Hill
#
# Bulk Modulus (GPa) = 23.67519 32.05889 27.86704
# Shear Modulus (GPa) = 14.89178 21.51756 18.20467
#
# Velocity S-wave (km/s) = 2.73849 3.29180 3.02781
# Velocity P-wave (km/s) = 4.68205 5.53104 5.12416
#
# Compressibility (1/GPa) = 0.04223831
#
# Stress axis : x y z
#
# Youngs Moduli (GPa) = 26.33180 26.33180 72.58117
#
# Poissons Ratio (x) = 0.25526 0.50998
# Poissons Ratio (y) = 0.25526 0.50998
# Poissons Ratio (z) = 0.18502 0.18502
#
# Static dielectric constant tensor:
#      x y z
#    x 1.715660 0.000000 0.000000 
#    y 0.000000 1.715660 0.000000 
#    z 0.000000 0.000000 1.801160 
# 
# From -- ./inp_files/4587.got.cif
#   From: 2010.05.17/outbox.cif.g08.bks.cpg/sg91_3_cif.got.tgz:4587.got - 2010.06.03 19:20:03.
