data_PCOD9547454
_publ_section_title
;
Structure prediction by ZEFSAII (Michael W. Deem and Ramdas Pophale) SiO2 
 PCOD9547454
Probable space group: P 4 21 2
;
_chemical_formula_sum "Si O2"
_cell_formula_units_Z 32
_cell_length_a 9.160086
_cell_length_b 9.160086
_cell_length_c 14.984478
_cell_angle_alpha 90.000000
_cell_angle_beta 90.000000
_cell_angle_gamma 90.000000
_cell_volume 1257.305226
_symmetry_space_group_name_H-M "P 4 21 2"
_symmetry_group_IT_number 90
_symmetry_cell_setting 'tetragonal'
loop_
_space_group_symop_operation_xyz
x,y,z
1/2-y,1/2+x,z
-x,-y,z
1/2+y,1/2-x,z
1/2+x,1/2-y,-z
1/2-x,1/2+y,-z
y,x,-z
-y,-x,-z
loop_
_atom_site_type_symbol
_atom_site_label
_atom_site_fract_x
_atom_site_fract_y
_atom_site_fract_z
Si Si1 0.774566 0.536630 0.778881
Si Si2 0.275704 0.939917 0.529852
Si Si3 0.725604 0.954660 0.011838
Si Si4 0.063810 0.724817 0.255643
O O1 0.839612 0.386329 0.740292
O O2 0.786095 0.492128 0.883025
O O3 0.620755 0.616007 0.769301
O O4 0.402070 0.827942 0.498323
O O5 0.121749 0.878252 0.500000
O O6 0.278826 0.941397 0.637014
O O7 0.609039 0.834024 0.975442
O O8 0.882887 0.882887 0.000000
O O9 0.174826 0.596536 0.224702
#
# Coordination Sequence:
#
# PCOD9547454 Si02
#       4
#     8   8   8   8
#     4   9  19  37  57  84 118 149 189 242 296 352
#     4   9  19  35  54  81 120 161 202 251 301 351
#     4   9  19  39  62  88 120 151 189 239 293 352
#     4   9  19  37  59  85 118 157 203 250 297 353
#
# _framework density 25.451256999999998
#
# number of rings (size 3 to 8) (size 9 to 14) (size 15 to 20)
#    0.000    3.000    0.000    3.000    0.000    4.000 
#    0.000   32.500    0.000   12.000    0.000    0.000 
#    0.000    0.000    0.000    0.000    0.000    0.000 
#
# Total GULP energy -178437.578962 kJ/mol
# GULP energy per Si atom -5576.174343 kJ/mol
# Density = 2.539333 g / cm^3
# Si number density = 25.451257 Si / 1000 Ang^3
#
#
#
# Elastic Constant Matrix: (Units=GPa)
#
#
# Indices 1 2 3 4 5 6 
#
# 1 87.5447 133.3382 10.1622 0.0000 0.0000 0.0000
# 2 133.3382 87.5416 10.1615 0.0000 0.0000 0.0000
# 3 10.1622 10.1615 47.9417 0.0000 0.0000 0.0000
# 4 0.0000 0.0000 0.0000 62.9616 0.0000 0.0000
# 5 0.0000 0.0000 0.0000 0.0000 62.9595 0.0000
# 6 0.0000 0.0000 0.0000 0.0000 0.0000 83.1023
#
#
#
# Elastic Compliance Matrix: (Units=1/GPa)
#
#
# Indices 1 2 3 4 5 6 
#
# 1 -0.008609 0.013227 -0.000979 0.000000 0.000000 0.000000
# 2 0.013227 -0.008610 -0.000979 0.000000 0.000000 0.000000
# 3 -0.000979 -0.000979 0.021274 0.000000 0.000000 0.000000
# 4 0.000000 0.000000 0.000000 0.015883 0.000000 0.000000
# 5 0.000000 0.000000 0.000000 0.000000 0.015883 0.000000
# 6 0.000000 0.000000 0.000000 0.000000 0.000000 0.012033
#
#
# Mechanical properties :
#
#
# Convention : Reuss Voigt Hill
#
# Bulk Modulus (GPa) = 37.60320 58.92798 48.26559
# Shear Modulus (GPa) = 146.28688 46.42908 96.35798
#
# Velocity S-wave (km/s) = 7.58960 4.27574 6.15971
# Velocity P-wave (km/s) = 9.57128 6.89779 8.34233
#
# Compressibility (1/GPa) = 0.02659348
#
# Stress axis : x y z
#
# Youngs Moduli (GPa) = -116.15246 -116.14872 47.00665
#
# Poissons Ratio (x) = 1.53629 0.04600
# Poissons Ratio (y) = 1.53633 0.04601
# Poissons Ratio (z) = -0.11367 -0.11369
#
# Static dielectric constant tensor:
#      x y z
#    x 2.025380 0.000000 0.000000 
#    y 0.000000 2.025380 0.000000 
#    z 0.000000 0.000000 1.998840 
# 
# From -- ./inp_files/2702.got.cif
#   From: 2010.05.17/outbox.cif.g08.bks.cpg/sg90_2_cif.got.tgz:2702.got - 2010.06.03 19:17:45.
