data_PCOD9547841
_publ_section_title
;
Structure prediction by ZEFSAII (Michael W. Deem and Ramdas Pophale) SiO2 
 PCOD9547841
Probable space group: P 41 2 2
;
_chemical_formula_sum "Si O2"
_cell_formula_units_Z 52
_cell_length_a 15.486139
_cell_length_b 15.486139
_cell_length_c 11.844829
_cell_angle_alpha 90.000000
_cell_angle_beta 90.000000
_cell_angle_gamma 90.000000
_cell_volume 2840.632827
_symmetry_space_group_name_H-M "P 41 2 2"
_symmetry_group_IT_number 91
_symmetry_cell_setting 'tetragonal'
loop_
_space_group_symop_operation_xyz
x,y,z
-y,x,1/4+z
-x,-y,1/2+z
y,-x,3/4+z
x,-y,1/2-z
-x,y,-z
y,x,3/4-z
-y,-x,1/4-z
loop_
_atom_site_type_symbol
_atom_site_label
_atom_site_fract_x
_atom_site_fract_y
_atom_site_fract_z
Si Si1 0.337532 0.823822 0.861140
Si Si2 0.676824 0.011749 0.509877
Si Si3 0.916392 0.785710 0.429883
Si Si4 0.500000 0.089466 0.000000
Si Si5 0.000000 0.353752 0.500000
Si Si6 0.835536 0.520380 0.012211
Si Si7 0.553447 0.500000 0.750000
Si Si8 0.680416 0.345983 0.499163
O O1 0.275246 0.858546 0.761546
O O2 0.436946 0.828490 0.818110
O O3 0.313810 0.728992 0.905902
O O4 0.326369 0.891266 0.963850
O O5 0.729450 0.955497 0.421337
O O6 0.581440 0.972184 0.511316
O O7 0.704650 0.999484 0.638629
O O8 0.860365 0.860365 0.375000
O O9 0.000000 0.816566 0.500000
O O10 0.511548 0.146530 0.110956
O O11 0.917040 0.416986 0.513542
O O12 0.750611 0.578792 0.012353
O O13 0.506122 0.506122 0.875000
O O14 0.612154 0.585393 0.743697
O O15 0.691784 0.308217 0.625000
#
# Coordination Sequence:
#
# PCOD9547841 Si02
#       8
#     8   8   8   4   4   8   4   8
#     4  11  21  37  62  90 118 160 206 248 310 362
#     4  10  20  37  60  92 120 157 195 242 310 369
#     4  10  23  41  67  89 119 155 197 247 302 369
#     4  10  20  34  56  88 126 142 194 247 319 376
#     4  10  22  34  62  86 130 154 188 254 310 366
#     4  11  22  37  58  89 119 162 197 255 315 363
#     4  10  22  42  60  80 118 174 224 269 303 362
#     4  11  24  38  57  84 121 167 216 257 301 369
#
# _framework density 18.305781
#
# number of rings (size 3 to 8) (size 9 to 14) (size 15 to 20)
#    0.000    1.538    1.538    4.615    5.385    2.462 
#    0.000    1.538    1.692    0.000    0.000    0.000 
#    0.000    0.000    0.000    0.000    0.000    0.000 
#
# Total GULP energy -290162.631894 kJ/mol
# GULP energy per Si atom -5580.050613 kJ/mol
# Density = 1.826412 g / cm^3
# Si number density = 18.305781 Si / 1000 Ang^3
#
#
#
# Elastic Constant Matrix: (Units=GPa)
#
#
# Indices 1 2 3 4 5 6 
#
# 1 94.2765 46.8793 34.2616 0.0000 0.0000 0.0000
# 2 46.8793 94.2767 34.2615 0.0000 0.0000 0.0000
# 3 34.2616 34.2615 138.0590 0.0000 0.0000 0.0000
# 4 0.0000 0.0000 0.0000 18.8242 0.0000 0.0000
# 5 0.0000 0.0000 0.0000 0.0000 18.8245 0.0000
# 6 0.0000 0.0000 0.0000 0.0000 0.0000 19.3926
#
#
#
# Elastic Compliance Matrix: (Units=1/GPa)
#
#
# Indices 1 2 3 4 5 6 
#
# 1 0.014577 -0.006522 -0.001999 0.000000 0.000000 0.000000
# 2 -0.006522 0.014576 -0.001999 0.000000 0.000000 0.000000
# 3 -0.001999 -0.001999 0.008235 0.000000 0.000000 0.000000
# 4 0.000000 0.000000 0.000000 0.053123 0.000000 0.000000
# 5 0.000000 0.000000 0.000000 0.000000 0.053122 0.000000
# 6 0.000000 0.000000 0.000000 0.000000 0.000000 0.051566
#
#
# Mechanical properties :
#
#
# Convention : Reuss Voigt Hill
#
# Bulk Modulus (GPa) = 61.16502 61.93521 61.55012
# Shear Modulus (GPa) = 22.55412 25.48889 24.02151
#
# Velocity S-wave (km/s) = 3.51390 3.73553 3.62641
# Velocity P-wave (km/s) = 7.06745 7.24657 7.15757
#
# Compressibility (1/GPa) = 0.01634921
#
# Stress axis : x y z
#
# Youngs Moduli (GPa) = 68.60355 68.60369 121.42695
#
# Poissons Ratio (x) = 0.44742 0.24272
# Poissons Ratio (y) = 0.44742 0.24272
# Poissons Ratio (z) = 0.13713 0.13713
#
# Static dielectric constant tensor:
#      x y z
#    x 1.617010 0.000000 0.000000 
#    y 0.000000 1.617010 0.000000 
#    z 0.000000 0.000000 1.718190 
# 
# From -- ./inp_files/10872.got.cif
#   From: 2010.05.17/outbox.cif.g08.bks.cpg/sg91_6_cif.got.tgz:10872.got - 2010.06.03 19:20:03.
