data_PCOD9547325
_publ_section_title
;
Structure prediction by ZEFSAII (Michael W. Deem and Ramdas Pophale) SiO2 
 PCOD9547325
Probable space group: P 4 21 2
;
_chemical_formula_sum "Si O2"
_cell_formula_units_Z 40
_cell_length_a 8.235097
_cell_length_b 8.235097
_cell_length_c 26.877462
_cell_angle_alpha 90.000000
_cell_angle_beta 90.000000
_cell_angle_gamma 90.000000
_cell_volume 1822.744072
_symmetry_space_group_name_H-M "P 4 21 2"
_symmetry_group_IT_number 90
_symmetry_cell_setting 'tetragonal'
loop_
_space_group_symop_operation_xyz
x,y,z
1/2-y,1/2+x,z
-x,-y,z
1/2+y,1/2-x,z
1/2+x,1/2-y,-z
1/2-x,1/2+y,-z
y,x,-z
-y,-x,-z
loop_
_atom_site_type_symbol
_atom_site_label
_atom_site_fract_x
_atom_site_fract_y
_atom_site_fract_z
Si Si1 0.918682 0.238294 0.844221
Si Si2 0.410461 0.260207 0.641072
Si Si3 0.760604 0.083827 0.751912
Si Si4 0.918440 0.238130 0.953823
Si Si5 0.081798 0.761026 0.546992
O O1 0.805202 0.398527 0.841746
O O2 0.873216 0.129306 0.797657
O O3 0.892065 0.163149 0.898996
O O4 0.595661 0.197713 0.636686
O O5 0.388374 0.330273 0.696622
O O6 0.355337 0.378225 0.597608
O O7 0.599578 0.195822 0.755001
O O8 0.805126 0.398635 0.956485
O O9 0.872469 0.127531 0.000000
O O10 0.195965 0.600955 0.545189
O O11 0.130553 0.869448 0.500000
#
# Coordination Sequence:
#
# PCOD9547325 Si02
#       5
#     8   8   8   8   8
#     4   9  19  35  52  72 102 137 171 210 256 306
#     4   9  19  37  58  79 106 139 174 213 256 303
#     4   9  19  35  54  78 107 137 171 212 256 302
#     4   9  19  35  52  72 100 133 169 211 259 308
#     4  11  24  39  56  81 110 139 174 215 258 305
#
# _framework density 21.944936999999999
#
# number of rings (size 3 to 8) (size 9 to 14) (size 15 to 20)
#    0.000    2.600    0.000    3.600    0.000    8.800 
#    0.000   12.000    0.000    0.000    0.000    0.000 
#    0.000    0.000    0.000    0.000    0.000    0.000 
#
# Total GULP energy -223839.064314 kJ/mol
# GULP energy per Si atom -5595.976608 kJ/mol
# Density = 2.189499 g / cm^3
# Si number density = 21.944937 Si / 1000 Ang^3
#
#
#
# Elastic Constant Matrix: (Units=GPa)
#
#
# Indices 1 2 3 4 5 6 
#
# 1 64.0835 45.7605 72.1285 0.0000 0.0000 0.0000
# 2 45.7605 64.0829 72.1280 0.0000 0.0000 0.0000
# 3 72.1285 72.1280 226.6137 0.0000 0.0000 0.0000
# 4 0.0000 0.0000 0.0000 307.5521 0.0000 0.0000
# 5 0.0000 0.0000 0.0000 0.0000 307.5540 0.0000
# 6 0.0000 0.0000 0.0000 0.0000 0.0000 43.1830
#
#
#
# Elastic Compliance Matrix: (Units=1/GPa)
#
#
# Indices 1 2 3 4 5 6 
#
# 1 0.035110 -0.019467 -0.004979 0.000000 0.000000 0.000000
# 2 -0.019467 0.035110 -0.004979 0.000000 0.000000 0.000000
# 3 -0.004979 -0.004979 0.007582 0.000000 0.000000 0.000000
# 4 0.000000 0.000000 0.000000 0.003251 0.000000 0.000000
# 5 0.000000 0.000000 0.000000 0.000000 0.003251 0.000000
# 6 0.000000 0.000000 0.000000 0.000000 0.000000 0.023157
#
#
# Mechanical properties :
#
#
# Convention : Reuss Voigt Hill
#
# Bulk Modulus (GPa) = 52.76524 81.64600 67.20562
# Shear Modulus (GPa) = 28.96383 142.64202 85.80293
#
# Velocity S-wave (km/s) = 3.63690 8.07100 6.25972
# Velocity P-wave (km/s) = 6.46008 11.14183 9.10695
#
# Compressibility (1/GPa) = 0.01895187
#
# Stress axis : x y z
#
# Youngs Moduli (GPa) = 28.48218 28.48199 131.88856
#
# Poissons Ratio (x) = 0.55447 0.65665
# Poissons Ratio (y) = 0.55447 0.65664
# Poissons Ratio (z) = 0.14181 0.14180
#
# Static dielectric constant tensor:
#      x y z
#    x 1.786850 0.000000 0.000000 
#    y 0.000000 1.786850 0.000000 
#    z 0.000000 0.000000 1.778790 
# 
# From -- ./inp_files/2878.got.cif
#   From: 2010.05.17/outbox.cif.g08.bks.cpg/sg90_2_cif.got.tgz:2878.got - 2010.06.03 19:17:45.
