data_PCOD9547399
_publ_section_title
;
Structure prediction by ZEFSAII (Michael W. Deem and Ramdas Pophale) SiO2 
 PCOD9547399
Probable space group: P 4 21 2
;
_chemical_formula_sum "Si O2"
_cell_formula_units_Z 28
_cell_length_a 13.983827
_cell_length_b 13.983827
_cell_length_c 6.602198
_cell_angle_alpha 90.000000
_cell_angle_beta 90.000000
_cell_angle_gamma 90.000000
_cell_volume 1291.042769
_symmetry_space_group_name_H-M "P 4 21 2"
_symmetry_group_IT_number 90
_symmetry_cell_setting 'tetragonal'
loop_
_space_group_symop_operation_xyz
x,y,z
1/2-y,1/2+x,z
-x,-y,z
1/2+y,1/2-x,z
1/2+x,1/2-y,-z
1/2-x,1/2+y,-z
y,x,-z
-y,-x,-z
loop_
_atom_site_type_symbol
_atom_site_label
_atom_site_fract_x
_atom_site_fract_y
_atom_site_fract_z
Si Si1 0.138521 0.429076 0.219324
Si Si2 0.309035 0.462383 0.492556
Si Si3 0.153175 0.726951 0.839696
Si Si4 0.684177 0.315824 0.500000
O O1 0.121240 0.539679 0.274401
O O2 0.235539 0.407783 0.341877
O O3 0.149885 0.396200 0.987207
O O4 0.412259 0.412259 0.500000
O O5 0.268371 0.435205 0.712210
O O6 0.309810 0.573010 0.435311
O O7 0.237659 0.696474 0.681724
O O8 0.200541 0.799460 0.000000
#
# Coordination Sequence:
#
# PCOD9547399 Si02
#       4
#     8   8   8   4
#     4  11  24  43  71 105 139 186 245 300 363 435
#     4  12  24  45  69 102 147 187 237 298 367 442
#     4  12  22  45  69  98 140 183 236 301 360 423
#     4  12  27  44  76 105 144 198 240 300 376 443
#
# _framework density 21.687895000000001
#
# number of rings (size 3 to 8) (size 9 to 14) (size 15 to 20)
#    0.000    0.286    4.286    5.571    0.000    0.000 
#    0.000    2.857    0.000    0.000    0.000    0.000 
#    0.000    0.000    0.000    0.000    0.000    0.000 
#
# Total GULP energy -155986.290488 kJ/mol
# GULP energy per Si atom -5570.938946 kJ/mol
# Density = 2.163853 g / cm^3
# Si number density = 21.687895 Si / 1000 Ang^3
#
#
#
# Elastic Constant Matrix: (Units=GPa)
#
#
# Indices 1 2 3 4 5 6 
#
# 1 82.7797 60.6014 24.4750 0.0000 0.0000 0.0000
# 2 60.6014 82.7799 24.4758 0.0000 0.0000 0.0000
# 3 24.4750 24.4758 77.3916 0.0000 0.0000 0.0000
# 4 0.0000 0.0000 0.0000 27.4505 0.0000 0.0000
# 5 0.0000 0.0000 0.0000 0.0000 27.4509 0.0000
# 6 0.0000 0.0000 0.0000 0.0000 0.0000 19.9447
#
#
#
# Elastic Compliance Matrix: (Units=1/GPa)
#
#
# Indices 1 2 3 4 5 6 
#
# 1 0.026454 -0.018635 -0.002472 0.000000 0.000000 0.000000
# 2 -0.018635 0.026454 -0.002473 0.000000 0.000000 0.000000
# 3 -0.002472 -0.002473 0.014485 0.000000 0.000000 0.000000
# 4 0.000000 0.000000 0.000000 0.036429 0.000000 0.000000
# 5 0.000000 0.000000 0.000000 0.000000 0.036429 0.000000
# 6 0.000000 0.000000 0.000000 0.000000 0.000000 0.050139
#
#
# Mechanical properties :
#
#
# Convention : Reuss Voigt Hill
#
# Bulk Modulus (GPa) = 49.42713 51.33953 50.38333
# Shear Modulus (GPa) = 20.46712 23.86249 22.16480
#
# Velocity S-wave (km/s) = 3.07532 3.32063 3.20033
# Velocity P-wave (km/s) = 5.95397 6.19883 6.07763
#
# Compressibility (1/GPa) = 0.02023180
#
# Stress axis : x y z
#
# Youngs Moduli (GPa) = 37.80182 37.80169 69.03562
#
# Poissons Ratio (x) = 0.70444 0.17068
# Poissons Ratio (y) = 0.70444 0.17072
# Poissons Ratio (z) = 0.09346 0.09348
#
# Static dielectric constant tensor:
#      x y z
#    x 1.828500 0.000000 0.000000 
#    y 0.000000 1.828500 0.000000 
#    z 0.000000 0.000000 1.811720 
# 
# From -- ./inp_files/279.got.cif
#   From: 2010.05.17/outbox.cif.g08.bks.cpg/sg90_1_cif.got.tgz:279.got - 2010.06.03 19:17:45.
