data_PCOD9547681
_publ_section_title
;
Structure prediction by ZEFSAII (Michael W. Deem and Ramdas Pophale) SiO2 
 PCOD9547681
Probable space group: P 41 2 2
;
_chemical_formula_sum "Si O2"
_cell_formula_units_Z 56
_cell_length_a 21.128848
_cell_length_b 21.128848
_cell_length_c 9.777280
_cell_angle_alpha 90.000000
_cell_angle_beta 90.000000
_cell_angle_gamma 90.000000
_cell_volume 4364.853685
_symmetry_space_group_name_H-M "P 41 2 2"
_symmetry_group_IT_number 91
_symmetry_cell_setting 'tetragonal'
loop_
_space_group_symop_operation_xyz
x,y,z
-y,x,1/4+z
-x,-y,1/2+z
y,-x,3/4+z
x,-y,1/2-z
-x,y,-z
y,x,3/4-z
-y,-x,1/4-z
loop_
_atom_site_type_symbol
_atom_site_label
_atom_site_fract_x
_atom_site_fract_y
_atom_site_fract_z
Si Si1 0.675673 0.605079 0.994446
Si Si2 0.182289 0.567847 0.083220
Si Si3 0.643615 0.306789 0.255565
Si Si4 0.059707 0.420533 0.909210
Si Si5 0.425447 0.939774 0.342272
Si Si6 0.620652 0.520233 0.399017
Si Si7 0.584411 0.822832 0.149689
O O1 0.645994 0.645994 0.875000
O O2 0.748065 0.589735 0.960042
O O3 0.671003 0.646672 0.130465
O O4 0.632772 0.541802 0.011319
O O5 0.164822 0.590048 0.237097
O O6 0.186873 0.491268 0.081837
O O7 0.126683 0.589548 0.981406
O O8 0.577155 0.338162 0.208673
O O9 0.625240 0.238521 0.312248
O O10 0.689488 0.310513 0.125000
O O11 0.057617 0.401955 0.749243
O O12 0.058445 0.497547 0.905679
O O13 0.121061 0.399748 0.995084
O O14 0.000000 0.400065 0.000000
O O15 0.405281 0.000000 0.250000
O O16 0.644735 0.500000 0.250000
O O17 0.550912 0.550912 0.375000
#
# Coordination Sequence:
#
# PCOD9547681 Si02
#       7
#     8   8   8   8   8   8   8
#     4  12  23  36  50  62  81 103 144 180 226 275
#     4  10  20  31  48  63  83 107 133 171 210 263
#     4  11  22  35  48  60  80 105 135 181 220 270
#     4   9  17  28  45  67  88 107 126 154 193 252
#     4   9  17  29  45  68  88 107 128 155 196 246
#     4  11  22  37  46  59  73  98 133 181 230 271
#     4  10  19  32  46  63  82 106 135 163 217 258
#
# _framework density 12.829753999999999
#
# number of rings (size 3 to 8) (size 9 to 14) (size 15 to 20)
#    0.000    1.714    5.714    0.857    2.000    4.571 
#    0.000    0.000    0.000    0.000    0.000    0.000 
#    0.000    0.000    0.000    0.000    0.000    0.000 
#
# Total GULP energy -311940.418738 kJ/mol
# GULP energy per Si atom -5570.364620 kJ/mol
# Density = 1.280055 g / cm^3
# Si number density = 12.829754 Si / 1000 Ang^3
#
#
#
# Elastic Constant Matrix: (Units=GPa)
#
#
# Indices 1 2 3 4 5 6 
#
# 1 65.7312 19.9582 39.1857 0.0000 0.0000 0.0000
# 2 19.9582 65.7319 39.1860 0.0000 0.0000 0.0000
# 3 39.1857 39.1860 114.3954 0.0000 0.0000 0.0000
# 4 0.0000 0.0000 0.0000 15.5351 0.0000 0.0000
# 5 0.0000 0.0000 0.0000 0.0000 15.5336 0.0000
# 6 0.0000 0.0000 0.0000 0.0000 0.0000 7.0582
#
#
#
# Elastic Compliance Matrix: (Units=1/GPa)
#
#
# Indices 1 2 3 4 5 6 
#
# 1 0.019421 -0.002426 -0.005821 0.000000 0.000000 0.000000
# 2 -0.002426 0.019420 -0.005821 0.000000 0.000000 0.000000
# 3 -0.005821 -0.005821 0.012730 0.000000 0.000000 0.000000
# 4 0.000000 0.000000 0.000000 0.064371 0.000000 0.000000
# 5 0.000000 0.000000 0.000000 0.000000 0.064377 0.000000
# 6 0.000000 0.000000 0.000000 0.000000 0.000000 0.141679
#
#
# Mechanical properties :
#
#
# Convention : Reuss Voigt Hill
#
# Bulk Modulus (GPa) = 42.67513 49.16870 45.92191
# Shear Modulus (GPa) = 13.96860 17.46062 15.71461
#
# Velocity S-wave (km/s) = 3.30322 3.69310 3.50359
# Velocity P-wave (km/s) = 6.91977 7.52280 7.22758
#
# Compressibility (1/GPa) = 0.02343285
#
# Stress axis : x y z
#
# Youngs Moduli (GPa) = 51.49184 51.49233 78.55618
#
# Poissons Ratio (x) = 0.12494 0.45730
# Poissons Ratio (y) = 0.12494 0.45730
# Poissons Ratio (z) = 0.29975 0.29975
#
# Static dielectric constant tensor:
#      x y z
#    x 1.403570 0.000000 0.000000 
#    y 0.000000 1.403570 0.000000 
#    z 0.000000 0.000000 1.437710 
# 
# From -- ./inp_files/2915.got.cif
#   From: 2010.05.17/outbox.cif.g08.bks.cpg/sg91_2_cif.got.tgz:2915.got - 2010.06.03 19:20:03.
