data_PCOD9547132
_publ_section_title
;
Structure prediction by ZEFSAII (Michael W. Deem and Ramdas Pophale) SiO2 
 PCOD9547132
Probable space group: P 4 21 2
;
_chemical_formula_sum "Si O2"
_cell_formula_units_Z 40
_cell_length_a 15.002392
_cell_length_b 15.002392
_cell_length_c 10.409560
_cell_angle_alpha 90.000000
_cell_angle_beta 90.000000
_cell_angle_gamma 90.000000
_cell_volume 2342.898050
_symmetry_space_group_name_H-M "P 4 21 2"
_symmetry_group_IT_number 90
_symmetry_cell_setting 'tetragonal'
loop_
_space_group_symop_operation_xyz
x,y,z
1/2-y,1/2+x,z
-x,-y,z
1/2+y,1/2-x,z
1/2+x,1/2-y,-z
1/2-x,1/2+y,-z
y,x,-z
-y,-x,-z
loop_
_atom_site_type_symbol
_atom_site_label
_atom_site_fract_x
_atom_site_fract_y
_atom_site_fract_z
Si Si1 0.884814 0.258084 0.753661
Si Si2 0.115186 0.741915 0.246340
Si Si3 0.072881 0.927120 0.845443
Si Si4 0.414013 0.123034 0.000000
Si Si5 0.638821 0.056940 0.499999
O O1 0.788733 0.211267 0.733534
O O2 0.945553 0.172519 0.792957
O O3 0.918930 0.305977 0.626922
O O4 0.883124 0.325070 0.873112
O O5 0.054446 0.827480 0.207043
O O6 0.081070 0.694023 0.373079
O O7 0.116875 0.674929 0.126889
O O8 0.077017 0.922984 0.000000
O O9 0.000000 0.000000 0.807798
O O10 0.380579 0.021606 0.000001
O O11 0.546666 0.111916 0.499999
#
# Coordination Sequence:
#
# PCOD9547132 Si02
#       5
#     8   8   8   8   8
#     4  10  20  39  60  84 119 156 191 257 284 343
#     4  10  20  39  60  84 119 156 191 257 284 343
#     4   9  18  37  65  87 119 161 186 236 311 334
#     4  11  21  36  59  88 121 159 199 236 296 354
#     4  11  23  40  61  84 119 161 195 236 302 354
#
# _framework density 17.072873000000001
#
# number of rings (size 3 to 8) (size 9 to 14) (size 15 to 20)
#    1.200    0.600    2.000    3.600    0.000    3.200 
#    0.000   14.000    0.000    0.000    0.000    0.000 
#    0.000    0.000    0.000    0.000    0.000    0.000 
#
# Total GULP energy -222918.640131 kJ/mol
# GULP energy per Si atom -5572.966003 kJ/mol
# Density = 1.703401 g / cm^3
# Si number density = 17.072873 Si / 1000 Ang^3
#
#
#
# Elastic Constant Matrix: (Units=GPa)
#
#
# Indices 1 2 3 4 5 6 
#
# 1 98.6184 56.6215 61.6832 0.0000 0.0000 0.0000
# 2 56.6215 98.6180 61.6829 0.0000 0.0000 0.0000
# 3 61.6832 61.6829 156.7705 0.0000 0.0000 0.0000
# 4 0.0000 0.0000 0.0000 35.7697 0.0000 0.0000
# 5 0.0000 0.0000 0.0000 0.0000 35.7696 0.0000
# 6 0.0000 0.0000 0.0000 0.0000 0.0000 25.5269
#
#
#
# Elastic Compliance Matrix: (Units=1/GPa)
#
#
# Indices 1 2 3 4 5 6 
#
# 1 0.016592 -0.007220 -0.003688 0.000000 0.000000 0.000000
# 2 -0.007220 0.016592 -0.003688 0.000000 0.000000 0.000000
# 3 -0.003688 -0.003688 0.009281 0.000000 0.000000 0.000000
# 4 0.000000 0.000000 0.000000 0.027957 0.000000 0.000000
# 5 0.000000 0.000000 0.000000 0.000000 0.027957 0.000000
# 6 0.000000 0.000000 0.000000 0.000000 0.000000 0.039174
#
#
# Mechanical properties :
#
#
# Convention : Reuss Voigt Hill
#
# Bulk Modulus (GPa) = 75.33224 79.33135 77.33179
# Shear Modulus (GPa) = 29.21142 31.01455 30.11299
#
# Velocity S-wave (km/s) = 4.14089 4.26678 4.20431
# Velocity P-wave (km/s) = 8.19038 8.41671 8.30432
#
# Compressibility (1/GPa) = 0.01327453
#
# Stress axis : x y z
#
# Youngs Moduli (GPa) = 60.27112 60.27092 107.75215
#
# Poissons Ratio (x) = 0.43513 0.39734
# Poissons Ratio (y) = 0.43514 0.39734
# Poissons Ratio (z) = 0.22225 0.22225
#
# Static dielectric constant tensor:
#      x y z
#    x 1.571370 0.000000 0.000000 
#    y 0.000000 1.571370 0.000000 
#    z 0.000000 0.000000 1.542910 
# 
# From -- ./inp_files/1316.got.cif
#   From: 2010.05.17/outbox.cif.g08.bks.cpg/sg90_1_cif.got.tgz:1316.got - 2010.06.03 19:17:45.
