data_PCOD9547361
_publ_section_title
;
Structure prediction by ZEFSAII (Michael W. Deem and Ramdas Pophale) SiO2 
 PCOD9547361
Probable space group: P 4 21 2
;
_chemical_formula_sum "Si O2"
_cell_formula_units_Z 38
_cell_length_a 8.295379
_cell_length_b 8.295379
_cell_length_c 26.834832
_cell_angle_alpha 90.000000
_cell_angle_beta 90.000000
_cell_angle_gamma 90.000000
_cell_volume 1846.593687
_symmetry_space_group_name_H-M "P 4 21 2"
_symmetry_group_IT_number 90
_symmetry_cell_setting 'tetragonal'
loop_
_space_group_symop_operation_xyz
x,y,z
1/2-y,1/2+x,z
-x,-y,z
1/2+y,1/2-x,z
1/2+x,1/2-y,-z
1/2-x,1/2+y,-z
y,x,-z
-y,-x,-z
loop_
_atom_site_type_symbol
_atom_site_label
_atom_site_fract_x
_atom_site_fract_y
_atom_site_fract_z
Si Si1 0.761487 0.077980 0.822725
Si Si2 0.081872 0.758764 0.289432
Si Si3 0.000000 0.000000 0.369426
Si Si4 0.087260 0.240643 0.548481
Si Si5 0.235336 0.952847 0.091273
Si Si6 0.500000 0.500000 0.000000
O O1 0.602987 0.191970 0.827310
O O2 0.825665 0.102203 0.766533
O O3 0.888652 0.120892 0.864910
O O4 0.193933 0.601810 0.293653
O O5 0.103600 0.886607 0.332919
O O6 0.879880 0.899227 0.404758
O O7 0.197008 0.401797 0.548824
O O8 0.139565 0.139565 0.500000
O O9 0.376529 0.821740 0.095389
O O10 0.145570 0.970895 0.038668
#
# Coordination Sequence:
#
# PCOD9547361 Si02
#       6
#     8   8   4   8   8   2
#     4   9  19  38  63  90 122 162 203 241 290 357
#     4   9  20  37  58  88 125 165 204 239 289 362
#     4  12  21  35  60  90 123 159 202 258 310 352
#     4  11  24  42  63  88 120 160 209 262 318 377
#     4  11  24  40  61  89 117 151 199 251 302 356
#     4  12  24  42  60  80 118 160 192 240 306 372
#
# _framework density 20.578430999999998
#
# number of rings (size 3 to 8) (size 9 to 14) (size 15 to 20)
#    0.000    1.684    0.000    6.000    0.000    4.211 
#    0.000    4.211    0.000    2.526    0.000    0.000 
#    0.000    0.000    0.000    0.000    0.000    0.000 
#
# Total GULP energy -212111.697764 kJ/mol
# GULP energy per Si atom -5581.886783 kJ/mol
# Density = 2.053159 g / cm^3
# Si number density = 20.578431 Si / 1000 Ang^3
#
#
#
# Elastic Constant Matrix: (Units=GPa)
#
#
# Indices 1 2 3 4 5 6 
#
# 1 72.1530 41.8114 66.4183 0.0000 0.0000 0.0000
# 2 41.8114 72.1530 66.4183 0.0000 0.0000 0.0000
# 3 66.4183 66.4183 180.7558 0.0000 0.0000 0.0000
# 4 0.0000 0.0000 0.0000 472.2243 0.0000 0.0000
# 5 0.0000 0.0000 0.0000 0.0000 472.2243 0.0000
# 6 0.0000 0.0000 0.0000 0.0000 0.0000 28.7958
#
#
#
# Elastic Compliance Matrix: (Units=1/GPa)
#
#
# Indices 1 2 3 4 5 6 
#
# 1 0.024153 -0.008805 -0.005640 0.000000 0.000000 0.000000
# 2 -0.008805 0.024153 -0.005640 0.000000 0.000000 0.000000
# 3 -0.005640 -0.005640 0.009677 0.000000 0.000000 0.000000
# 4 0.000000 0.000000 0.000000 0.002118 0.000000 0.000000
# 5 0.000000 0.000000 0.000000 0.000000 0.002118 0.000000
# 6 0.000000 0.000000 0.000000 0.000000 0.000000 0.034727
#
#
# Mechanical properties :
#
#
# Convention : Reuss Voigt Hill
#
# Bulk Modulus (GPa) = 56.13344 74.92866 65.53105
# Shear Modulus (GPa) = 34.95218 204.67645 119.81432
#
# Velocity S-wave (km/s) = 4.12574 9.98387 7.63869
# Velocity P-wave (km/s) = 7.07338 13.01513 10.47441
#
# Compressibility (1/GPa) = 0.01781469
#
# Stress axis : x y z
#
# Youngs Moduli (GPa) = 41.40243 41.40243 103.33888
#
# Poissons Ratio (x) = 0.36454 0.58280
# Poissons Ratio (y) = 0.36454 0.58280
# Poissons Ratio (z) = 0.23350 0.23350
#
# Static dielectric constant tensor:
#      x y z
#    x 1.641120 0.000000 0.000000 
#    y 0.000000 1.641120 0.000000 
#    z 0.000000 0.000000 1.711810 
# 
# From -- ./inp_files/2897.got.cif
#   From: 2010.05.17/outbox.cif.g08.bks.cpg/sg90_2_cif.got.tgz:2897.got - 2010.06.03 19:17:45.
