data_PCOD9547375
_publ_section_title
;
Structure prediction by ZEFSAII (Michael W. Deem and Ramdas Pophale) SiO2 
 PCOD9547375
Probable space group: P 4 21 2
;
_chemical_formula_sum "Si O2"
_cell_formula_units_Z 36
_cell_length_a 8.287577
_cell_length_b 8.287577
_cell_length_c 24.493302
_cell_angle_alpha 90.000000
_cell_angle_beta 90.000000
_cell_angle_gamma 90.000000
_cell_volume 1682.296302
_symmetry_space_group_name_H-M "P 4 21 2"
_symmetry_group_IT_number 90
_symmetry_cell_setting 'tetragonal'
loop_
_space_group_symop_operation_xyz
x,y,z
1/2-y,1/2+x,z
-x,-y,z
1/2+y,1/2-x,z
1/2+x,1/2-y,-z
1/2-x,1/2+y,-z
y,x,-z
-y,-x,-z
loop_
_atom_site_type_symbol
_atom_site_label
_atom_site_fract_x
_atom_site_fract_y
_atom_site_fract_z
Si Si1 0.234422 0.953131 0.954609
Si Si2 0.946303 0.235285 0.755045
Si Si3 0.906523 0.242529 0.553548
Si Si4 0.918746 0.239084 0.341255
Si Si5 0.500000 0.500000 0.854499
O O1 0.376322 0.822448 0.960401
O O2 0.147930 0.974906 0.896339
O O3 0.109467 0.890534 0.000000
O O4 0.819432 0.381319 0.747768
O O5 0.871550 0.112048 0.711384
O O6 0.971106 0.148932 0.813222
O O7 0.800665 0.408015 0.554055
O O8 0.856827 0.143174 0.500000
O O9 0.861129 0.136155 0.605922
O O10 0.805747 0.399310 0.341647
#
# Coordination Sequence:
#
# PCOD9547375 Si02
#       5
#     8   8   8   8   4
#     4  11  24  43  70 104 144 189 235 285 342 406
#     4  11  24  41  63  92 127 171 223 279 340 408
#     4  11  24  41  63  94 130 170 220 278 343 418
#     4  11  24  42  65  94 129 171 221 279 346 421
#     4  12  23  42  66  96 135 178 228 284 340 404
#
# _framework density 21.399318999999998
#
# number of rings (size 3 to 8) (size 9 to 14) (size 15 to 20)
#    0.000    0.889    0.000    7.000    0.000    8.444 
#    0.000    4.444    0.000    0.000    0.000    0.000 
#    0.000    0.000    0.000    0.000    0.000    0.000 
#
# Total GULP energy -201018.901310 kJ/mol
# GULP energy per Si atom -5583.858370 kJ/mol
# Density = 2.135061 g / cm^3
# Si number density = 21.399319 Si / 1000 Ang^3
#
#
#
# Elastic Constant Matrix: (Units=GPa)
#
#
# Indices 1 2 3 4 5 6 
#
# 1 167.1585 15.7417 58.2456 0.0000 0.0000 0.0000
# 2 15.7417 167.1615 58.2459 0.0000 0.0000 0.0000
# 3 58.2456 58.2459 133.4497 0.0000 0.0000 0.0000
# 4 0.0000 0.0000 0.0000 50.3071 0.0000 0.0000
# 5 0.0000 0.0000 0.0000 0.0000 50.3073 0.0000
# 6 0.0000 0.0000 0.0000 0.0000 0.0000 47.2428
#
#
#
# Elastic Compliance Matrix: (Units=1/GPa)
#
#
# Indices 1 2 3 4 5 6 
#
# 1 0.007088 0.000484 -0.003305 0.000000 0.000000 0.000000
# 2 0.000484 0.007088 -0.003305 0.000000 0.000000 0.000000
# 3 -0.003305 -0.003305 0.010379 0.000000 0.000000 0.000000
# 4 0.000000 0.000000 0.000000 0.019878 0.000000 0.000000
# 5 0.000000 0.000000 0.000000 0.000000 0.019878 0.000000
# 6 0.000000 0.000000 0.000000 0.000000 0.000000 0.021167
#
#
# Mechanical properties :
#
#
# Convention : Reuss Voigt Hill
#
# Bulk Modulus (GPa) = 81.28032 81.35958 81.31995
# Shear Modulus (GPa) = 49.10078 51.94054 50.52066
#
# Velocity S-wave (km/s) = 4.79529 4.93201 4.86413
# Velocity P-wave (km/s) = 8.29005 8.39853 8.34446
#
# Compressibility (1/GPa) = 0.01230310
#
# Stress axis : x y z
#
# Youngs Moduli (GPa) = 141.07551 141.07814 96.35257
#
# Poissons Ratio (x) = -0.06830 0.31846
# Poissons Ratio (y) = -0.06830 0.31845
# Poissons Ratio (z) = 0.46627 0.46627
#
# Static dielectric constant tensor:
#      x y z
#    x 1.823390 0.000000 0.000000 
#    y 0.000000 1.823390 0.000000 
#    z 0.000000 0.000000 1.732900 
# 
# From -- ./inp_files/2742.got.cif
#   From: 2010.05.17/outbox.cif.g08.bks.cpg/sg90_2_cif.got.tgz:2742.got - 2010.06.03 19:17:45.
