data_PCOD9547716
_publ_section_title
;
Structure prediction by ZEFSAII (Michael W. Deem and Ramdas Pophale) SiO2 
 PCOD9547716
Probable space group: P 41 2 2
;
_chemical_formula_sum "Si O2"
_cell_formula_units_Z 48
_cell_length_a 13.767419
_cell_length_b 13.767419
_cell_length_c 12.840040
_cell_angle_alpha 90.000000
_cell_angle_beta 90.000000
_cell_angle_gamma 90.000000
_cell_volume 2433.724627
_symmetry_space_group_name_H-M "P 41 2 2"
_symmetry_group_IT_number 91
_symmetry_cell_setting 'tetragonal'
loop_
_space_group_symop_operation_xyz
x,y,z
-y,x,1/4+z
-x,-y,1/2+z
y,-x,3/4+z
x,-y,1/2-z
-x,y,-z
y,x,3/4-z
-y,-x,1/4-z
loop_
_atom_site_type_symbol
_atom_site_label
_atom_site_fract_x
_atom_site_fract_y
_atom_site_fract_z
Si Si1 0.609989 0.635599 0.494164
Si Si2 0.079258 0.564849 0.586513
Si Si3 0.710628 0.242082 0.859814
Si Si4 0.680761 0.825166 0.935656
Si Si5 0.256013 0.475709 0.463317
Si Si6 0.647832 0.951032 0.562914
O O1 0.500000 0.670169 0.500000
O O2 0.615594 0.615594 0.375000
O O3 0.684055 0.717225 0.528651
O O4 0.646409 0.538085 0.553303
O O5 0.179348 0.545247 0.523378
O O6 0.076203 0.631368 0.690572
O O7 0.053345 0.457863 0.632141
O O8 0.000000 0.594099 0.500000
O O9 0.797239 0.298364 0.804863
O O10 0.615330 0.270808 0.791245
O O11 0.712872 0.126908 0.874249
O O12 0.765241 0.765241 0.875000
O O13 0.578029 0.787327 0.888534
O O14 0.685052 0.939900 0.924073
#
# Coordination Sequence:
#
# PCOD9547716 Si02
#       6
#     8   8   8   8   8   8
#     4  12  24  39  57  78 120 175 209 240 296 359
#     4  10  19  33  62  86 118 158 203 267 310 359
#     4  10  23  39  57  86 121 156 207 252 304 380
#     4  10  22  39  62  92 122 157 201 266 314 367
#     4  10  21  39  56  84 121 157 206 250 300 357
#     4  10  21  37  60  89 120 156 206 256 328 373
#
# _framework density 19.722857000000001
#
# number of rings (size 3 to 8) (size 9 to 14) (size 15 to 20)
#    0.000    1.667    3.333    1.000    4.667    2.667 
#    0.000    0.000    0.000    0.000    0.000   10.500 
#    0.000    0.000    0.000    0.000    0.000    0.000 
#
# Total GULP energy -267607.729548 kJ/mol
# GULP energy per Si atom -5575.161032 kJ/mol
# Density = 1.967797 g / cm^3
# Si number density = 19.722857 Si / 1000 Ang^3
#
#
#
# Elastic Constant Matrix: (Units=GPa)
#
#
# Indices 1 2 3 4 5 6 
#
# 1 54.0726 33.1363 -2.3489 0.0000 0.0000 0.0000
# 2 33.1363 54.0726 -2.3489 0.0000 0.0000 0.0000
# 3 -2.3489 -2.3489 40.4290 0.0000 0.0000 0.0000
# 4 0.0000 0.0000 0.0000 16.3726 0.0000 0.0000
# 5 0.0000 0.0000 0.0000 0.0000 16.3726 0.0000
# 6 0.0000 0.0000 0.0000 0.0000 0.0000 14.3649
#
#
#
# Elastic Compliance Matrix: (Units=1/GPa)
#
#
# Indices 1 2 3 4 5 6 
#
# 1 0.029633 -0.018131 0.000668 0.000000 0.000000 0.000000
# 2 -0.018131 0.029633 0.000668 0.000000 0.000000 0.000000
# 3 0.000668 0.000668 0.024812 0.000000 0.000000 0.000000
# 4 0.000000 0.000000 0.000000 0.061078 0.000000 0.000000
# 5 0.000000 0.000000 0.000000 0.000000 0.061078 0.000000
# 6 0.000000 0.000000 0.000000 0.000000 0.000000 0.069614
#
#
# Mechanical properties :
#
#
# Convention : Reuss Voigt Hill
#
# Bulk Modulus (GPa) = 19.80551 22.82792 21.31672
# Shear Modulus (GPa) = 15.32485 17.43105 16.37795
#
# Velocity S-wave (km/s) = 2.79051 2.97610 2.88480
# Velocity P-wave (km/s) = 4.52176 4.83829 4.68270
#
# Compressibility (1/GPa) = 0.05049099
#
# Stress axis : x y z
#
# Youngs Moduli (GPa) = 33.74572 33.74572 40.30251
#
# Poissons Ratio (x) = 0.61183 -0.02693
# Poissons Ratio (y) = 0.61183 -0.02693
# Poissons Ratio (z) = -0.02255 -0.02255
#
# Static dielectric constant tensor:
#      x y z
#    x 1.747310 0.000000 0.000000 
#    y 0.000000 1.747310 0.000000 
#    z 0.000000 0.000000 1.795490 
# 
# From -- ./inp_files/15892.got.cif
#   From: 2010.05.17/outbox.cif.g08.bks.cpg/sg91_8_cif.got.tgz:15892.got - 2010.06.03 19:20:03.
