data_PCOD9547429
_publ_section_title
;
Structure prediction by ZEFSAII (Michael W. Deem and Ramdas Pophale) SiO2 
 PCOD9547429
Probable space group: P 4 21 2
;
_chemical_formula_sum "Si O2"
_cell_formula_units_Z 50
_cell_length_a 8.421301
_cell_length_b 8.421301
_cell_length_c 31.837031
_cell_angle_alpha 90.000000
_cell_angle_beta 90.000000
_cell_angle_gamma 90.000000
_cell_volume 2257.828451
_symmetry_space_group_name_H-M "P 4 21 2"
_symmetry_group_IT_number 90
_symmetry_cell_setting 'tetragonal'
loop_
_space_group_symop_operation_xyz
x,y,z
1/2-y,1/2+x,z
-x,-y,z
1/2+y,1/2-x,z
1/2+x,1/2-y,-z
1/2-x,1/2+y,-z
y,x,-z
-y,-x,-z
loop_
_atom_site_type_symbol
_atom_site_label
_atom_site_fract_x
_atom_site_fract_y
_atom_site_fract_z
Si Si1 0.581788 0.256749 0.721004
Si Si2 0.894252 0.736249 0.132338
Si Si3 0.743673 0.416535 0.461914
Si Si4 0.078380 0.246203 0.795713
Si Si5 0.415654 0.744367 0.629500
Si Si6 0.000000 0.500000 0.940903
Si Si7 0.606531 0.342492 0.046567
O O1 0.402200 0.191114 0.723695
O O2 0.629331 0.370129 0.758694
O O3 0.609927 0.333520 0.674850
O O4 0.798754 0.576541 0.143280
O O5 0.830610 0.882367 0.159434
O O6 0.871243 0.767511 0.083278
O O7 0.807892 0.596802 0.464369
O O8 0.632048 0.367953 0.500000
O O9 0.666222 0.389002 0.415807
O O10 0.190694 0.401087 0.792327
O O11 0.596332 0.808574 0.629497
O O12 0.805708 0.504305 0.942204
O O13 0.500000 0.500000 0.045845
O O14 0.678290 0.321710 0.000000
#
# Coordination Sequence:
#
# PCOD9547429 Si02
#       7
#     8   8   8   8   8   2   8
#     4   9  17  34  61  87 109 138 189 249 306 362
#     4  11  26  45  70  99 131 168 214 267 317 374
#     4   9  17  30  48  72 104 141 184 231 288 351
#     4  11  26  42  59  85 123 166 206 249 308 376
#     4   7  12  26  50  76 101 136 182 236 290 352
#     4  12  28  44  80 100 144 188 224 276 340 392
#     4  11  28  48  74 111 142 180 228 274 328 391
#
# _framework density 22.145171000000001
#
# number of rings (size 3 to 8) (size 9 to 14) (size 15 to 20)
#    0.000    2.240    0.000    3.840    8.960    3.520 
#    0.000    1.600    0.000    7.680    0.000    0.000 
#    0.000    0.000    0.000    0.000    0.000    0.000 
#
# Total GULP energy -279037.271825 kJ/mol
# GULP energy per Si atom -5580.745436 kJ/mol
# Density = 2.209477 g / cm^3
# Si number density = 22.145171 Si / 1000 Ang^3
#
#
#
# Elastic Constant Matrix: (Units=GPa)
#
#
# Indices 1 2 3 4 5 6 
#
# 1 64.9098 30.9814 23.2946 0.0000 0.0000 0.0000
# 2 30.9814 64.9096 23.2943 0.0000 0.0000 0.0000
# 3 23.2946 23.2943 136.4698 0.0000 0.0000 0.0000
# 4 0.0000 0.0000 0.0000 46.2846 0.0000 0.0000
# 5 0.0000 0.0000 0.0000 0.0000 46.2845 0.0000
# 6 0.0000 0.0000 0.0000 0.0000 0.0000 -78.9192
#
#
#
# Elastic Compliance Matrix: (Units=1/GPa)
#
#
# Indices 1 2 3 4 5 6 
#
# 1 0.020423 -0.009051 -0.001941 0.000000 0.000000 0.000000
# 2 -0.009051 0.020423 -0.001941 0.000000 0.000000 0.000000
# 3 -0.001941 -0.001941 0.007990 0.000000 0.000000 0.000000
# 4 0.000000 0.000000 0.000000 0.021605 0.000000 0.000000
# 5 0.000000 0.000000 0.000000 0.000000 0.021605 0.000000
# 6 0.000000 0.000000 0.000000 0.000000 0.000000 -0.012671
#
#
# Mechanical properties :
#
#
# Convention : Reuss Voigt Hill
#
# Bulk Modulus (GPa) = 43.53656 46.82555 45.18106
# Shear Modulus (GPa) = 44.28762 15.31125 29.79944
#
# Velocity S-wave (km/s) = 4.47685 2.63231 3.67228
# Velocity P-wave (km/s) = 6.81361 5.51629 6.19898
#
# Compressibility (1/GPa) = 0.02296920
#
# Stress axis : x y z
#
# Youngs Moduli (GPa) = 48.96514 48.96504 125.15210
#
# Poissons Ratio (x) = 0.44319 0.24293
# Poissons Ratio (y) = 0.44319 0.24292
# Poissons Ratio (z) = 0.09505 0.09504
#
# Static dielectric constant tensor:
#      x y z
#    x 1.790870 0.000000 0.000000 
#    y 0.000000 1.790870 0.000000 
#    z 0.000000 0.000000 1.853300 
# 
# From -- ./inp_files/3070.got.cif
#   From: 2010.05.17/outbox.cif.g08.bks.cpg/sg90_2_cif.got.tgz:3070.got - 2010.06.03 19:17:45.
