data_PCOD9547643
_publ_section_title
;
Structure prediction by ZEFSAII (Michael W. Deem and Ramdas Pophale) SiO2 
 PCOD9547643
Probable space group: P 41 2 2
;
_chemical_formula_sum "Si O2"
_cell_formula_units_Z 40
_cell_length_a 11.762900
_cell_length_b 11.762900
_cell_length_c 13.920781
_cell_angle_alpha 90.000000
_cell_angle_beta 90.000000
_cell_angle_gamma 90.000000
_cell_volume 1926.160228
_symmetry_space_group_name_H-M "P 41 2 2"
_symmetry_group_IT_number 91
_symmetry_cell_setting 'tetragonal'
loop_
_space_group_symop_operation_xyz
x,y,z
-y,x,1/4+z
-x,-y,1/2+z
y,-x,3/4+z
x,-y,1/2-z
-x,y,-z
y,x,3/4-z
-y,-x,1/4-z
loop_
_atom_site_type_symbol
_atom_site_label
_atom_site_fract_x
_atom_site_fract_y
_atom_site_fract_z
Si Si1 0.851280 0.500000 0.250000
Si Si2 0.713237 0.641321 0.107429
Si Si3 0.465817 0.957331 0.848865
Si Si4 0.789986 0.869587 0.167047
Si Si5 0.889968 0.889968 0.375000
Si Si6 0.460994 0.278171 0.344879
O O1 0.768959 0.590442 0.202241
O O2 0.937640 0.454329 0.169721
O O3 0.780396 0.760741 0.097658
O O4 0.579601 0.665383 0.123044
O O5 0.729897 0.554454 0.019966
O O6 0.340985 0.909542 0.824726
O O7 0.537514 0.849635 0.886230
O O8 0.519913 0.000000 0.750000
O O9 0.835782 0.844840 0.274973
O O10 0.861727 0.975709 0.127150
O O11 0.356104 0.356104 0.375000
#
# Coordination Sequence:
#
# PCOD9547643 Si02
#       6
#     4   8   8   8   4   8
#     4  12  26  42  72 100 134 180 232 298 344 426
#     4  11  26  42  69 101 137 180 238 286 353 421
#     4  11  22  45  67  98 136 180 232 284 351 419
#     4  10  22  38  68  96 130 173 221 280 346 404
#     4  10  18  38  66  96 132 164 228 280 338 406
#     4  11  26  46  68 100 144 189 234 290 357 427
#
# _framework density 20.766703
#
# number of rings (size 3 to 8) (size 9 to 14) (size 15 to 20)
#    0.000    1.200    4.000    1.800    8.400    0.000 
#    0.000    4.000    2.200    0.000    0.000    0.000 
#    0.000    0.000    0.000    0.000    0.000    0.000 
#
# Total GULP energy -223276.979285 kJ/mol
# GULP energy per Si atom -5581.924482 kJ/mol
# Density = 2.071944 g / cm^3
# Si number density = 20.766703 Si / 1000 Ang^3
#
#
#
# Elastic Constant Matrix: (Units=GPa)
#
#
# Indices 1 2 3 4 5 6 
#
# 1 59.2481 9.4187 -14.0441 0.0000 0.0000 0.0000
# 2 9.4187 59.2481 -14.0441 0.0000 0.0000 0.0000
# 3 -14.0441 -14.0441 52.1935 0.0000 0.0000 0.0000
# 4 0.0000 0.0000 0.0000 28.3929 0.0000 0.0000
# 5 0.0000 0.0000 0.0000 0.0000 28.3929 0.0000
# 6 0.0000 0.0000 0.0000 0.0000 0.0000 26.1692
#
#
#
# Elastic Compliance Matrix: (Units=1/GPa)
#
#
# Indices 1 2 3 4 5 6 
#
# 1 0.018216 -0.001852 0.004403 0.000000 0.000000 0.000000
# 2 -0.001852 0.018216 0.004403 0.000000 0.000000 0.000000
# 3 0.004403 0.004403 0.021529 0.000000 0.000000 0.000000
# 4 0.000000 0.000000 0.000000 0.035220 0.000000 0.000000
# 5 0.000000 0.000000 0.000000 0.000000 0.035220 0.000000
# 6 0.000000 0.000000 0.000000 0.000000 0.000000 0.038213
#
#
# Mechanical properties :
#
#
# Convention : Reuss Voigt Hill
#
# Bulk Modulus (GPa) = 13.91389 14.81673 14.36531
# Shear Modulus (GPa) = 28.30250 29.21495 28.75873
#
# Velocity S-wave (km/s) = 3.69572 3.75483 3.72539
# Velocity P-wave (km/s) = 4.99258 5.09398 5.04353
#
# Compressibility (1/GPa) = 0.07187061
#
# Stress axis : x y z
#
# Youngs Moduli (GPa) = 54.89571 54.89571 46.44876
#
# Poissons Ratio (x) = 0.10167 -0.20453
# Poissons Ratio (y) = 0.10167 -0.20453
# Poissons Ratio (z) = -0.24172 -0.24172
#
# Static dielectric constant tensor:
#      x y z
#    x 1.756500 0.000000 0.000000 
#    y 0.000000 1.756500 0.000000 
#    z 0.000000 0.000000 1.792140 
# 
# From -- ./inp_files/16428.got.cif
#   From: 2010.05.17/outbox.cif.g08.bks.cpg/sg91_9_cif.got.tgz:16428.got - 2010.06.03 19:20:03.
