data_PCOD9547261
_publ_section_title
;
Structure prediction by ZEFSAII (Michael W. Deem and Ramdas Pophale) SiO2 
 PCOD9547261
Probable space group: P 4 21 2
;
_chemical_formula_sum "Si O2"
_cell_formula_units_Z 32
_cell_length_a 14.470691
_cell_length_b 14.470691
_cell_length_c 7.179056
_cell_angle_alpha 90.000000
_cell_angle_beta 90.000000
_cell_angle_gamma 90.000000
_cell_volume 1503.300773
_symmetry_space_group_name_H-M "P 4 21 2"
_symmetry_group_IT_number 90
_symmetry_cell_setting 'tetragonal'
loop_
_space_group_symop_operation_xyz
x,y,z
1/2-y,1/2+x,z
-x,-y,z
1/2+y,1/2-x,z
1/2+x,1/2-y,-z
1/2-x,1/2+y,-z
y,x,-z
-y,-x,-z
loop_
_atom_site_type_symbol
_atom_site_label
_atom_site_fract_x
_atom_site_fract_y
_atom_site_fract_z
Si Si1 0.277712 0.722289 0.000000
Si Si2 0.000000 0.500000 0.058981
Si Si3 0.019729 0.199522 0.879876
Si Si4 0.082176 0.692363 0.174305
Si Si5 0.500000 0.500000 0.000000
Si Si6 0.964216 0.349240 0.601131
O O1 0.280976 0.629086 0.876334
O O2 0.279813 0.812850 0.870663
O O3 0.906139 0.563610 0.075633
O O4 0.002289 0.091082 0.872827
O O5 0.962587 0.261091 0.734086
O O6 0.983891 0.232565 0.081109
O O7 0.054608 0.678477 0.388441
O O8 0.894802 0.434682 0.633771
#
# Coordination Sequence:
#
# PCOD9547261 Si02
#       6
#     4   2   8   8   2   8
#     4  11  23  41  70 103 145 189 224 284 368 436
#     4  12  20  40  78 104 148 174 224 320 358 400
#     4  11  24  43  68  94 134 187 236 279 348 430
#     4  12  22  44  70 106 144 178 227 299 359 418
#     4  10  26  52  58  84 138 192 240 288 330 424
#     4  11  22  39  71 111 138 167 226 300 366 419
#
# _framework density 21.286493
#
# number of rings (size 3 to 8) (size 9 to 14) (size 15 to 20)
#    0.000    0.750    5.000    2.250    0.000    0.000 
#    0.000   25.000    0.000    0.000    0.000    0.000 
#    0.000    0.000    0.000    0.000    0.000    0.000 
#
# Total GULP energy -178463.157835 kJ/mol
# GULP energy per Si atom -5576.973682 kJ/mol
# Density = 2.123804 g / cm^3
# Si number density = 21.286493 Si / 1000 Ang^3
#
#
#
# Elastic Constant Matrix: (Units=GPa)
#
#
# Indices 1 2 3 4 5 6 
#
# 1 140.2538 37.1465 42.6687 0.0000 0.0000 0.0000
# 2 37.1465 140.2531 42.6691 0.0000 0.0000 0.0000
# 3 42.6687 42.6691 79.6576 0.0000 0.0000 0.0000
# 4 0.0000 0.0000 0.0000 23.9167 0.0000 0.0000
# 5 0.0000 0.0000 0.0000 0.0000 23.9165 0.0000
# 6 0.0000 0.0000 0.0000 0.0000 0.0000 37.2759
#
#
#
# Elastic Compliance Matrix: (Units=1/GPa)
#
#
# Indices 1 2 3 4 5 6 
#
# 1 0.008646 -0.001052 -0.004068 0.000000 0.000000 0.000000
# 2 -0.001052 0.008646 -0.004068 0.000000 0.000000 0.000000
# 3 -0.004068 -0.004068 0.016911 0.000000 0.000000 0.000000
# 4 0.000000 0.000000 0.000000 0.041812 0.000000 0.000000
# 5 0.000000 0.000000 0.000000 0.000000 0.041812 0.000000
# 6 0.000000 0.000000 0.000000 0.000000 0.000000 0.026827
#
#
# Mechanical properties :
#
#
# Convention : Reuss Voigt Hill
#
# Bulk Modulus (GPa) = 63.17761 67.23700 65.20730
# Shear Modulus (GPa) = 29.70777 32.86716 31.28747
#
# Velocity S-wave (km/s) = 3.73985 3.93369 3.83799
# Velocity P-wave (km/s) = 6.95649 7.23098 7.09506
#
# Compressibility (1/GPa) = 0.01582839
#
# Stress axis : x y z
#
# Youngs Moduli (GPa) = 115.65867 115.65750 59.13187
#
# Poissons Ratio (x) = 0.12173 0.24052
# Poissons Ratio (y) = 0.12173 0.24053
# Poissons Ratio (z) = 0.47045 0.47045
#
# Static dielectric constant tensor:
#      x y z
#    x 1.800940 0.000000 0.000000 
#    y 0.000000 1.800940 0.000000 
#    z 0.000000 0.000000 1.800250 
# 
# From -- ./inp_files/1136.got.cif
#   From: 2010.05.17/outbox.cif.g08.bks.cpg/sg90_1_cif.got.tgz:1136.got - 2010.06.03 19:17:45.
