data_PCOD9547957
_publ_section_title
;
Structure prediction by ZEFSAII (Michael W. Deem and Ramdas Pophale) SiO2 
 PCOD9547957
Probable space group: P 41 2 2
;
_chemical_formula_sum "Si O2"
_cell_formula_units_Z 60
_cell_length_a 17.999692
_cell_length_b 17.999692
_cell_length_c 9.080201
_cell_angle_alpha 90.000000
_cell_angle_beta 90.000000
_cell_angle_gamma 90.000000
_cell_volume 2941.884444
_symmetry_space_group_name_H-M "P 41 2 2"
_symmetry_group_IT_number 91
_symmetry_cell_setting 'tetragonal'
loop_
_space_group_symop_operation_xyz
x,y,z
-y,x,1/4+z
-x,-y,1/2+z
y,-x,3/4+z
x,-y,1/2-z
-x,y,-z
y,x,3/4-z
-y,-x,1/4-z
loop_
_atom_site_type_symbol
_atom_site_label
_atom_site_fract_x
_atom_site_fract_y
_atom_site_fract_z
Si Si1 0.012029 0.283987 0.174946
Si Si2 0.571133 0.959649 0.593535
Si Si3 0.140796 0.769631 0.741388
Si Si4 0.794904 0.612040 0.235737
Si Si5 0.652785 0.378179 0.458120
Si Si6 0.331473 0.445303 0.951699
Si Si7 0.000000 0.912589 0.500000
Si Si8 0.835650 0.119041 0.468806
O O1 0.992869 0.358784 0.258216
O O2 0.947413 0.228511 0.228586
O O3 0.089316 0.248500 0.224462
O O4 0.000000 0.292873 0.000000
O O5 0.500000 0.980309 0.500000
O O6 0.575947 0.868801 0.587351
O O7 0.568029 0.000000 0.750000
O O8 0.175930 0.824071 0.625000
O O9 0.172021 0.688753 0.701660
O O10 0.162024 0.798571 0.901816
O O11 0.732993 0.633877 0.115900
O O12 0.746036 0.568658 0.361313
O O13 0.646846 0.353154 0.625000
O O14 0.590143 0.334450 0.364267
O O15 0.645518 0.468516 0.449260
O O16 0.394542 0.394542 0.875000
O O17 0.936767 0.869512 0.595098
O O18 0.039718 0.960283 0.625000
O O19 0.877809 0.122192 0.625000
#
# Coordination Sequence:
#
# PCOD9547957 Si02
#       8
#     8   8   8   8   8   8   4   8
#     4  11  23  42  65  97 131 167 215 268 327 405
#     4  11  25  47  74  99 128 166 221 278 344 399
#     4  11  21  40  65  89 124 170 218 265 328 400
#     4  10  23  42  66  91 127 179 217 268 329 408
#     4  11  22  37  60  98 138 172 221 271 324 385
#     4  10  20  38  63  91 133 181 223 260 320 393
#     4  12  24  42  60  90 128 174 222 266 324 410
#     4  12  25  39  63  94 132 171 216 271 341 396
#
# _framework density 20.39509
#
# number of rings (size 3 to 8) (size 9 to 14) (size 15 to 20)
#    0.000    1.067    2.000    6.000    3.733    3.200 
#    0.000    2.667    0.000    0.000    0.000    0.000 
#    0.000    0.000    0.000    0.000    0.000    0.000 
#
# Total GULP energy -334809.234460 kJ/mol
# GULP energy per Si atom -5580.153908 kJ/mol
# Density = 2.034867 g / cm^3
# Si number density = 20.395090 Si / 1000 Ang^3
#
#
#
# Elastic Constant Matrix: (Units=GPa)
#
#
# Indices 1 2 3 4 5 6 
#
# 1 34.7146 72.8799 47.6994 0.0000 0.0000 0.0000
# 2 72.8799 34.7254 47.6974 0.0000 0.0000 0.0000
# 3 47.6994 47.6974 147.3596 0.0000 0.0000 0.0000
# 4 0.0000 0.0000 0.0000 22.6482 0.0000 0.0000
# 5 0.0000 0.0000 0.0000 0.0000 22.6467 0.0000
# 6 0.0000 0.0000 0.0000 0.0000 0.0000 9.4180
#
#
#
# Elastic Compliance Matrix: (Units=1/GPa)
#
#
# Indices 1 2 3 4 5 6 
#
# 1 -0.006588 0.019620 -0.004218 0.000000 0.000000 0.000000
# 2 0.019620 -0.006584 -0.004220 0.000000 0.000000 0.000000
# 3 -0.004218 -0.004220 0.009517 0.000000 0.000000 0.000000
# 4 0.000000 0.000000 0.000000 0.044154 0.000000 0.000000
# 5 0.000000 0.000000 0.000000 0.000000 0.044157 0.000000
# 6 0.000000 0.000000 0.000000 0.000000 0.000000 0.106180
#
#
# Mechanical properties :
#
#
# Convention : Reuss Voigt Hill
#
# Bulk Modulus (GPa) = 53.44796 61.48366 57.46581
# Shear Modulus (GPa) = 28.61906 14.17744 21.39825
#
# Velocity S-wave (km/s) = 3.75004 2.63941 3.24263
# Velocity P-wave (km/s) = 6.70921 6.28493 6.50054
#
# Compressibility (1/GPa) = 0.01870979
#
# Stress axis : x y z
#
# Youngs Moduli (GPa) = -151.79830 -151.89303 105.07077
#
# Poissons Ratio (x) = 2.98012 0.44321
# Poissons Ratio (y) = 2.97826 0.44338
# Poissons Ratio (z) = -0.64031 -0.64096
#
# Static dielectric constant tensor:
#      x y z
#    x 1.737740 0.000000 0.000000 
#    y 0.000000 1.737740 0.000000 
#    z 0.000000 0.000000 1.738030 
# 
# From -- ./inp_files/10072.got.cif
#   From: 2010.05.17/outbox.cif.g08.bks.cpg/sg91_6_cif.got.tgz:10072.got - 2010.06.03 19:20:03.
