data_PCOD9547850
_publ_section_title
;
Structure prediction by ZEFSAII (Michael W. Deem and Ramdas Pophale) SiO2 
 PCOD9547850
Probable space group: P 41 2 2
;
_chemical_formula_sum "Si O2"
_cell_formula_units_Z 48
_cell_length_a 11.563644
_cell_length_b 11.563644
_cell_length_c 18.314188
_cell_angle_alpha 90.000000
_cell_angle_beta 90.000000
_cell_angle_gamma 90.000000
_cell_volume 2448.934074
_symmetry_space_group_name_H-M "P 41 2 2"
_symmetry_group_IT_number 91
_symmetry_cell_setting 'tetragonal'
loop_
_space_group_symop_operation_xyz
x,y,z
-y,x,1/4+z
-x,-y,1/2+z
y,-x,3/4+z
x,-y,1/2-z
-x,y,-z
y,x,3/4-z
-y,-x,1/4-z
loop_
_atom_site_type_symbol
_atom_site_label
_atom_site_fract_x
_atom_site_fract_y
_atom_site_fract_z
Si Si1 0.363484 0.217832 0.989433
Si Si2 0.810081 0.189920 0.125000
Si Si3 0.135852 0.671624 0.984969
Si Si4 0.317261 0.484585 0.990518
Si Si5 0.202815 0.202815 0.375000
Si Si6 0.000000 0.135290 0.000000
Si Si7 0.522193 0.477808 0.625000
Si Si8 0.212600 0.934743 0.405699
O O1 0.315918 0.178295 0.911348
O O2 0.310144 0.346183 0.997571
O O3 0.500000 0.227263 0.000000
O O4 0.309169 0.127018 0.045379
O O5 0.815542 0.093321 0.189700
O O6 0.201511 0.552291 0.968940
O O7 0.128722 0.769336 0.921901
O O8 0.210298 0.722809 0.051858
O O9 0.000000 0.648731 0.000000
O O10 0.410138 0.515414 0.927424
O O11 0.371225 0.521022 0.068964
O O12 0.070462 0.227938 0.353623
O O13 0.910809 0.075578 0.944599
#
# Coordination Sequence:
#
# PCOD9547850 Si02
#       8
#     8   4   8   8   4   4   4   8
#     4  11  23  40  67  96 131 169 216 273 336 385
#     4  10  24  40  67  99 132 174 212 285 325 405
#     4  10  23  40  64  92 130 170 211 265 325 386
#     4  11  21  39  64  92 127 167 223 263 327 390
#     4  10  22  42  65  93 130 174 210 265 319 395
#     4  10  22  42  64 100 126 164 224 260 330 394
#     4  10  20  34  68  92 114 176 216 272 308 386
#     4  10  23  39  69  95 125 173 212 269 322 391
#
# _framework density 19.600366000000001
#
# number of rings (size 3 to 8) (size 9 to 14) (size 15 to 20)
#    0.000    1.667    1.667    2.500   10.500    0.000 
#    6.000    0.000   11.000    0.000    0.000    0.000 
#    0.000    0.000    0.000    0.000    0.000    0.000 
#
# Total GULP energy -267248.776820 kJ/mol
# GULP energy per Si atom -5567.682850 kJ/mol
# Density = 1.955575 g / cm^3
# Si number density = 19.600366 Si / 1000 Ang^3
#
#
#
# Elastic Constant Matrix: (Units=GPa)
#
#
# Indices 1 2 3 4 5 6 
#
# 1 36.9059 59.3938 27.0718 0.0000 0.0000 0.0000
# 2 59.3938 36.9068 27.0722 0.0000 0.0000 0.0000
# 3 27.0718 27.0722 99.7813 0.0000 0.0000 0.0000
# 4 0.0000 0.0000 0.0000 4.6392 0.0000 0.0000
# 5 0.0000 0.0000 0.0000 0.0000 4.6349 0.0000
# 6 0.0000 0.0000 0.0000 0.0000 0.0000 24.9224
#
#
#
# Elastic Compliance Matrix: (Units=1/GPa)
#
#
# Indices 1 2 3 4 5 6 
#
# 1 -0.016108 0.028361 -0.003325 0.000000 0.000000 0.000000
# 2 0.028361 -0.016108 -0.003324 0.000000 0.000000 0.000000
# 3 -0.003325 -0.003324 0.011826 0.000000 0.000000 0.000000
# 4 0.000000 0.000000 0.000000 0.215555 0.000000 0.000000
# 5 0.000000 0.000000 0.000000 0.000000 0.215752 0.000000
# 6 0.000000 0.000000 0.000000 0.000000 0.000000 0.040125
#
#
# Mechanical properties :
#
#
# Convention : Reuss Voigt Hill
#
# Bulk Modulus (GPa) = 43.41293 44.51885 43.96589
# Shear Modulus (GPa) = 12.03963 10.84305 11.44134
#
# Velocity S-wave (km/s) = 2.48111 2.35459 2.41867
# Velocity P-wave (km/s) = 5.51407 5.49133 5.50271
#
# Compressibility (1/GPa) = 0.02303461
#
# Stress axis : x y z
#
# Youngs Moduli (GPa) = -62.08057 -62.08194 84.56028
#
# Poissons Ratio (x) = 1.76072 0.28113
# Poissons Ratio (y) = 1.76069 0.28112
# Poissons Ratio (z) = -0.20639 -0.20639
#
# Static dielectric constant tensor:
#      x y z
#    x 1.703610 0.000000 0.000000 
#    y 0.000000 1.703620 0.000000 
#    z 0.000000 0.000000 1.833180 
# 
# From -- ./inp_files/5674.got.cif
#   From: 2010.05.17/outbox.cif.g08.bks.cpg/sg91_3_cif.got.tgz:5674.got - 2010.06.03 19:20:03.
