data_PCOD9547723
_publ_section_title
;
Structure prediction by ZEFSAII (Michael W. Deem and Ramdas Pophale) SiO2 
 PCOD9547723
Probable space group: P 41 2 2
;
_chemical_formula_sum "Si O2"
_cell_formula_units_Z 36
_cell_length_a 11.799332
_cell_length_b 11.799332
_cell_length_c 15.024220
_cell_angle_alpha 90.000000
_cell_angle_beta 90.000000
_cell_angle_gamma 90.000000
_cell_volume 2091.735546
_symmetry_space_group_name_H-M "P 41 2 2"
_symmetry_group_IT_number 91
_symmetry_cell_setting 'tetragonal'
loop_
_space_group_symop_operation_xyz
x,y,z
-y,x,1/4+z
-x,-y,1/2+z
y,-x,3/4+z
x,-y,1/2-z
-x,y,-z
y,x,3/4-z
-y,-x,1/4-z
loop_
_atom_site_type_symbol
_atom_site_label
_atom_site_fract_x
_atom_site_fract_y
_atom_site_fract_z
Si Si1 0.887776 0.611249 0.297528
Si Si2 0.801554 0.069129 0.408994
Si Si3 0.695143 0.299503 0.904613
Si Si4 0.300383 0.460608 0.933227
Si Si5 0.000000 0.029258 0.000000
O O1 0.937922 0.500000 0.250000
O O2 0.797460 0.659966 0.226296
O O3 0.815515 0.576604 0.384050
O O4 0.978485 0.703452 0.324383
O O5 0.743431 0.189046 0.389535
O O6 0.882549 0.031483 0.327863
O O7 0.891506 0.052129 0.488314
O O8 0.594316 0.312043 0.833240
O O9 0.701455 0.411522 0.967036
O O10 0.398548 0.398548 0.875000
#
# Coordination Sequence:
#
# PCOD9547723 Si02
#       5
#     8   8   8   8   4
#     4   9  18  32  51  78 110 144 188 237 276 323
#     4  11  19  35  53  83 113 149 191 229 284 328
#     4  10  19  34  56  80 111 144 188 230 282 333
#     4   9  18  33  55  81 105 140 184 240 278 326
#     4  10  22  30  56  84 110 154 194 236 268 342
#
# _framework density 17.210588000000001
#
# number of rings (size 3 to 8) (size 9 to 14) (size 15 to 20)
#    0.000    2.222    2.222    3.333    6.222    0.000 
#    0.000    6.667    0.000    0.000    0.000    0.000 
#    0.000    0.000    0.000    0.000    0.000    0.000 
#
# Total GULP energy -200479.025906 kJ/mol
# GULP energy per Si atom -5568.861831 kJ/mol
# Density = 1.717142 g / cm^3
# Si number density = 17.210588 Si / 1000 Ang^3
#
#
#
# Elastic Constant Matrix: (Units=GPa)
#
#
# Indices 1 2 3 4 5 6 
#
# 1 110.5657 64.4777 46.5970 0.0000 0.0000 0.0000
# 2 64.4777 110.5657 46.5970 0.0000 0.0000 0.0000
# 3 46.5970 46.5970 47.9841 0.0000 0.0000 0.0000
# 4 0.0000 0.0000 0.0000 35.3550 0.0000 0.0000
# 5 0.0000 0.0000 0.0000 0.0000 35.3550 0.0000
# 6 0.0000 0.0000 0.0000 0.0000 0.0000 0.9412
#
#
#
# Elastic Compliance Matrix: (Units=1/GPa)
#
#
# Indices 1 2 3 4 5 6 
#
# 1 0.016763 -0.004935 -0.011486 0.000000 0.000000 0.000000
# 2 -0.004935 0.016763 -0.011486 0.000000 0.000000 0.000000
# 3 -0.011486 -0.011486 0.043149 0.000000 0.000000 0.000000
# 4 0.000000 0.000000 0.000000 0.028285 0.000000 0.000000
# 5 0.000000 0.000000 0.000000 0.000000 0.028285 0.000000
# 6 0.000000 0.000000 0.000000 0.000000 0.000000 1.062457
#
#
# Mechanical properties :
#
#
# Convention : Reuss Voigt Hill
#
# Bulk Modulus (GPa) = 47.93862 64.93987 56.43925
# Shear Modulus (GPa) = 3.97308 21.75984 12.86646
#
# Velocity S-wave (km/s) = 1.52103 3.55960 2.73718
# Velocity P-wave (km/s) = 5.56770 7.39654 6.54630
#
# Compressibility (1/GPa) = 0.02086001
#
# Stress axis : x y z
#
# Youngs Moduli (GPa) = 59.65543 59.65543 23.17559
#
# Poissons Ratio (x) = 0.29438 0.26620
# Poissons Ratio (y) = 0.29438 0.26620
# Poissons Ratio (z) = 0.68522 0.68522
#
# Static dielectric constant tensor:
#      x y z
#    x 1.576090 0.000000 0.000000 
#    y 0.000000 1.576090 0.000000 
#    z 0.000000 0.000000 1.656430 
# 
# From -- ./inp_files/4583.got.cif
#   From: 2010.05.17/outbox.cif.g08.bks.cpg/sg91_3_cif.got.tgz:4583.got - 2010.06.03 19:20:03.
