data_PCOD9547514
_publ_section_title
;
Structure prediction by ZEFSAII (Michael W. Deem and Ramdas Pophale) SiO2 
 PCOD9547514
Probable space group: P 41 2 2
;
_chemical_formula_sum "Si O2"
_cell_formula_units_Z 40
_cell_length_a 14.977746
_cell_length_b 14.977746
_cell_length_c 10.080872
_cell_angle_alpha 90.000000
_cell_angle_beta 90.000000
_cell_angle_gamma 90.000000
_cell_volume 2261.471001
_symmetry_space_group_name_H-M "P 41 2 2"
_symmetry_group_IT_number 91
_symmetry_cell_setting 'tetragonal'
loop_
_space_group_symop_operation_xyz
x,y,z
-y,x,1/4+z
-x,-y,1/2+z
y,-x,3/4+z
x,-y,1/2-z
-x,y,-z
y,x,3/4-z
-y,-x,1/4-z
loop_
_atom_site_type_symbol
_atom_site_label
_atom_site_fract_x
_atom_site_fract_y
_atom_site_fract_z
Si Si1 0.102984 0.766349 0.853606
Si Si2 0.033292 0.347207 0.203169
Si Si3 0.000000 0.087565 0.500000
Si Si4 0.407140 0.895910 0.219768
Si Si5 0.134109 0.596727 0.554405
Si Si6 0.241902 0.758099 0.625000
O O1 0.180784 0.785521 0.750019
O O2 0.013401 0.739867 0.768623
O O3 0.078435 0.847385 0.948747
O O4 0.126103 0.680042 0.943888
O O5 0.099151 0.386374 0.314134
O O6 0.943449 0.403620 0.167094
O O7 0.088288 0.348783 0.067307
O O8 0.030045 0.030045 0.375000
O O9 0.496772 0.845250 0.259158
O O10 0.427072 0.000000 0.250000
O O11 0.216931 0.655529 0.600809
#
# Coordination Sequence:
#
# PCOD9547514 Si02
#       6
#     8   8   4   8   8   4
#     4  10  22  39  55  74 109 146 200 247 296 324
#     4   9  17  30  50  78  98 139 184 240 289 334
#     4  12  28  44  56  78 108 166 216 250 278 344
#     4  10  17  31  57  84 101 139 185 253 305 344
#     4  10  19  30  51  80 116 140 179 230 301 374
#     4  10  24  34  50  78 116 160 176 236 292 364
#
# _framework density 17.687601999999998
#
# number of rings (size 3 to 8) (size 9 to 14) (size 15 to 20)
#    0.000    2.000    5.000    0.600    7.000    2.400 
#    0.000    0.000    0.000    0.000    0.000    0.000 
#    0.000    0.000   68.000    0.000    0.000    0.000 
#
# Total GULP energy -222916.695561 kJ/mol
# GULP energy per Si atom -5572.917389 kJ/mol
# Density = 1.764734 g / cm^3
# Si number density = 17.687602 Si / 1000 Ang^3
#
#
#
# Elastic Constant Matrix: (Units=GPa)
#
#
# Indices 1 2 3 4 5 6 
#
# 1 55.1118 52.2674 34.8805 0.0000 0.0000 0.0000
# 2 52.2674 55.1122 34.8819 0.0000 0.0000 0.0000
# 3 34.8805 34.8819 114.2018 0.0000 0.0000 0.0000
# 4 0.0000 0.0000 0.0000 23.7571 0.0000 0.0000
# 5 0.0000 0.0000 0.0000 0.0000 23.7569 0.0000
# 6 0.0000 0.0000 0.0000 0.0000 0.0000 6.2481
#
#
#
# Elastic Compliance Matrix: (Units=1/GPa)
#
#
# Indices 1 2 3 4 5 6 
#
# 1 0.181581 -0.169964 -0.003546 0.000000 0.000000 0.000000
# 2 -0.169964 0.181583 -0.003551 0.000000 0.000000 0.000000
# 3 -0.003546 -0.003551 0.010924 0.000000 0.000000 0.000000
# 4 0.000000 0.000000 0.000000 0.042093 0.000000 0.000000
# 5 0.000000 0.000000 0.000000 0.000000 0.042093 0.000000
# 6 0.000000 0.000000 0.000000 0.000000 0.000000 0.160049
#
#
# Mechanical properties :
#
#
# Convention : Reuss Voigt Hill
#
# Bulk Modulus (GPa) = 50.08466 52.05394 51.06930
# Shear Modulus (GPa) = 5.10673 17.57882 11.34277
#
# Velocity S-wave (km/s) = 1.70101 3.15596 2.53511
# Velocity P-wave (km/s) = 5.67765 6.54015 6.12410
#
# Compressibility (1/GPa) = 0.01996619
#
# Stress axis : x y z
#
# Youngs Moduli (GPa) = 5.50718 5.50713 91.54015
#
# Poissons Ratio (x) = 0.93601 0.32462
# Poissons Ratio (y) = 0.93602 0.32506
# Poissons Ratio (z) = 0.01953 0.01956
#
# Static dielectric constant tensor:
#      x y z
#    x 1.622260 0.000000 0.000000 
#    y 0.000000 1.622260 0.000000 
#    z 0.000000 0.000000 1.700740 
# 
# From -- ./inp_files/15758.got.cif
#   From: 2010.05.17/outbox.cif.g08.bks.cpg/sg91_8_cif.got.tgz:15758.got - 2010.06.03 19:20:03.
