data_PCOD9547646
_publ_section_title
;
Structure prediction by ZEFSAII (Michael W. Deem and Ramdas Pophale) SiO2 
 PCOD9547646
Probable space group: P 41 2 2
;
_chemical_formula_sum "Si O2"
_cell_formula_units_Z 40
_cell_length_a 9.123119
_cell_length_b 9.123119
_cell_length_c 22.578204
_cell_angle_alpha 90.000000
_cell_angle_beta 90.000000
_cell_angle_gamma 90.000000
_cell_volume 1879.213277
_symmetry_space_group_name_H-M "P 41 2 2"
_symmetry_group_IT_number 91
_symmetry_cell_setting 'tetragonal'
loop_
_space_group_symop_operation_xyz
x,y,z
-y,x,1/4+z
-x,-y,1/2+z
y,-x,3/4+z
x,-y,1/2-z
-x,y,-z
y,x,3/4-z
-y,-x,1/4-z
loop_
_atom_site_type_symbol
_atom_site_label
_atom_site_fract_x
_atom_site_fract_y
_atom_site_fract_z
Si Si1 0.190268 0.192134 0.008976
Si Si2 0.293857 0.436221 0.668984
Si Si3 0.000000 0.454860 0.000000
Si Si4 0.500000 0.567629 0.000000
Si Si5 0.064522 0.000000 0.250000
Si Si6 0.755566 0.244435 0.125000
Si Si7 0.306533 0.788082 0.300886
O O1 0.173231 0.197364 0.937166
O O2 0.113518 0.342578 0.030060
O O3 0.356964 0.205575 0.028491
O O4 0.109533 0.048758 0.032777
O O5 0.454577 0.475020 0.695054
O O6 0.229300 0.584369 0.641574
O O7 0.279814 0.319483 0.615917
O O8 0.098043 0.560638 0.960212
O O9 0.646805 0.662580 0.009155
O O10 0.165594 0.112233 0.213015
#
# Coordination Sequence:
#
# PCOD9547646 Si02
#       7
#     8   8   4   4   4   4   8
#     4  11  23  40  70  95 139 175 233 274 336 422
#     4  12  19  38  71 108 122 170 232 294 331 394
#     4  10  18  40  64  92 122 188 212 268 344 408
#     4  12  20  42  68 106 134 170 236 292 336 408
#     4  10  28  48  58  98 144 186 218 272 346 436
#     4  12  20  40  70 104 126 174 230 294 330 394
#     4  11  23  42  69  93 142 175 223 281 351 404
#
# _framework density 21.285502999999999
#
# number of rings (size 3 to 8) (size 9 to 14) (size 15 to 20)
#    0.000    0.800    8.000    0.000    0.000    4.000 
#    3.600    0.000    8.800    0.000    0.000    0.000 
#    0.000    0.000    0.000    0.000    0.000    0.000 
#
# Total GULP energy -222833.902810 kJ/mol
# GULP energy per Si atom -5570.847570 kJ/mol
# Density = 2.123706 g / cm^3
# Si number density = 21.285503 Si / 1000 Ang^3
#
#
#
# Elastic Constant Matrix: (Units=GPa)
#
#
# Indices 1 2 3 4 5 6 
#
# 1 126.2814 53.7200 29.8998 0.0000 0.0000 0.0000
# 2 53.7200 126.2818 29.8998 0.0000 0.0000 0.0000
# 3 29.8998 29.8998 88.3293 0.0000 0.0000 0.0000
# 4 0.0000 0.0000 0.0000 17.0637 0.0000 0.0000
# 5 0.0000 0.0000 0.0000 0.0000 17.0637 0.0000
# 6 0.0000 0.0000 0.0000 0.0000 0.0000 36.0022
#
#
#
# Elastic Compliance Matrix: (Units=1/GPa)
#
#
# Indices 1 2 3 4 5 6 
#
# 1 0.010020 -0.003761 -0.002119 0.000000 0.000000 0.000000
# 2 -0.003761 0.010020 -0.002119 0.000000 0.000000 0.000000
# 3 -0.002119 -0.002119 0.012756 0.000000 0.000000 0.000000
# 4 0.000000 0.000000 0.000000 0.058604 0.000000 0.000000
# 5 0.000000 0.000000 0.000000 0.000000 0.058604 0.000000
# 6 0.000000 0.000000 0.000000 0.000000 0.000000 0.027776
#
#
# Mechanical properties :
#
#
# Convention : Reuss Voigt Hill
#
# Bulk Modulus (GPa) = 59.52653 63.10352 61.31503
# Shear Modulus (GPa) = 25.07804 29.18411 27.13107
#
# Velocity S-wave (km/s) = 3.43618 3.70683 3.57406
# Velocity P-wave (km/s) = 6.61586 6.93047 6.77499
#
# Compressibility (1/GPa) = 0.01679923
#
# Stress axis : x y z
#
# Youngs Moduli (GPa) = 99.79618 99.79645 78.39609
#
# Poissons Ratio (x) = 0.37533 0.16611
# Poissons Ratio (y) = 0.37533 0.16611
# Poissons Ratio (z) = 0.21145 0.21145
#
# Static dielectric constant tensor:
#      x y z
#    x 1.798420 0.000000 0.000000 
#    y 0.000000 1.798420 0.000000 
#    z 0.000000 0.000000 1.872300 
# 
# From -- ./inp_files/6891.got.cif
#   From: 2010.05.17/outbox.cif.g08.bks.cpg/sg91_4_cif.got.tgz:6891.got - 2010.06.03 19:20:03.
