data_PCOD9547036
_publ_section_title
;
Structure prediction by ZEFSAII (Michael W. Deem and Ramdas Pophale) SiO2 
 PCOD9547036
Probable space group: P 4 2 2
;
_chemical_formula_sum "Si O2"
_cell_formula_units_Z 44
_cell_length_a 8.599941
_cell_length_b 8.599941
_cell_length_c 29.987565
_cell_angle_alpha 90.000000
_cell_angle_beta 90.000000
_cell_angle_gamma 90.000000
_cell_volume 2217.849876
_symmetry_space_group_name_H-M "P 4 2 2"
_symmetry_group_IT_number 89
_symmetry_cell_setting 'tetragonal'
loop_
_space_group_symop_operation_xyz
x,y,z
-y,x,z
-x,-y,z
y,-x,z
x,-y,-z
-x,y,-z
y,x,-z
-y,-x,-z
loop_
_atom_site_type_symbol
_atom_site_label
_atom_site_fract_x
_atom_site_fract_y
_atom_site_fract_z
Si Si1 0.500000 0.000000 0.718096
Si Si2 0.738064 0.018757 0.548142
Si Si3 0.420474 0.251406 0.787229
Si Si4 0.665681 0.701731 0.948433
Si Si5 0.118454 0.771192 0.865302
Si Si6 0.052012 0.742489 0.354293
O O1 0.408138 0.120898 0.749326
O O2 0.378305 0.919264 0.684904
O O3 0.664382 0.047363 0.596492
O O4 0.841672 0.862975 0.548434
O O5 0.658398 0.000000 0.500000
O O6 0.596853 0.312126 0.783610
O O7 0.368032 0.178056 0.834132
O O8 0.479317 0.709458 0.940219
O O9 0.736656 0.829702 0.915879
O O10 0.716615 0.716615 0.000000
O O11 0.936634 0.798100 0.856058
O O12 0.175478 0.882732 0.350830
#
# Coordination Sequence:
#
# PCOD9547036 Si02
#       6
#     4   8   8   8   8   8
#     4  12  22  36  55  80 108 139 182 238 290 340
#     4   7  10  20  41  68  98 134 175 217 267 332
#     4  11  24  41  60  80 105 142 186 230 280 343
#     4   9  19  37  61  89 121 157 195 232 274 331
#     4  11  24  40  59  86 118 149 186 236 289 338
#     4   9  18  32  51  76 106 141 180 227 284 342
#
# _framework density 19.839034999999999
#
# number of rings (size 3 to 8) (size 9 to 14) (size 15 to 20)
#    0.000    2.364    0.000    5.455    0.000    4.364 
#    0.000    5.000    0.000    0.000    0.000    0.000 
#    0.000    0.000    0.000   22.182    0.000    1.455 
#
# Total GULP energy -245008.861188 kJ/mol
# GULP energy per Si atom -5568.383209 kJ/mol
# Density = 1.979388 g / cm^3
# Si number density = 19.839035 Si / 1000 Ang^3
#
#
#
# Elastic Constant Matrix: (Units=GPa)
#
#
# Indices 1 2 3 4 5 6 
#
# 1 51.3372 12.5164 31.3339 0.0000 0.0000 0.0000
# 2 12.5164 51.3372 31.3339 0.0000 0.0000 0.0000
# 3 31.3339 31.3339 125.0030 0.0000 0.0000 0.0000
# 4 0.0000 0.0000 0.0000 101.7485 0.0000 0.0000
# 5 0.0000 0.0000 0.0000 0.0000 101.7485 0.0000
# 6 0.0000 0.0000 0.0000 0.0000 0.0000 18.4436
#
#
#
# Elastic Compliance Matrix: (Units=1/GPa)
#
#
# Indices 1 2 3 4 5 6 
#
# 1 0.023265 -0.002494 -0.005206 0.000000 0.000000 0.000000
# 2 -0.002494 0.023265 -0.005206 0.000000 0.000000 0.000000
# 3 -0.005206 -0.005206 0.010610 0.000000 0.000000 0.000000
# 4 0.000000 0.000000 0.000000 0.009828 0.000000 0.000000
# 5 0.000000 0.000000 0.000000 0.000000 0.009828 0.000000
# 6 0.000000 0.000000 0.000000 0.000000 0.000000 0.054219
#
#
# Mechanical properties :
#
#
# Convention : Reuss Voigt Hill
#
# Bulk Modulus (GPa) = 31.92306 42.00506 36.96406
# Shear Modulus (GPa) = 29.89141 54.55434 42.22287
#
# Velocity S-wave (km/s) = 3.88583 5.24959 4.61833
# Velocity P-wave (km/s) = 6.02153 7.61335 6.86375
#
# Compressibility (1/GPa) = 0.03132532
#
# Stress axis : x y z
#
# Youngs Moduli (GPa) = 42.98303 42.98303 94.25102
#
# Poissons Ratio (x) = 0.10722 0.49071
# Poissons Ratio (y) = 0.10722 0.49071
# Poissons Ratio (z) = 0.22379 0.22379
#
# Static dielectric constant tensor:
#      x y z
#    x 1.695210 0.000000 0.000000 
#    y 0.000000 1.695210 0.000000 
#    z 0.000000 0.000000 1.746900 
# 
# From -- ./inp_files/2917.got.cif
#   From: 2010.05.17/outbox.cif.g08.bks.cpg/sg89_2_cif.got.tgz:2917.got - 2010.06.03 19:15:31.
