data_PCOD9547010
_publ_section_title
;
Structure prediction by ZEFSAII (Michael W. Deem and Ramdas Pophale) SiO2 
 PCOD9547010
Probable space group: P 4 2 2
;
_chemical_formula_sum "Si O2"
_cell_formula_units_Z 40
_cell_length_a 8.935488
_cell_length_b 8.935488
_cell_length_c 27.072329
_cell_angle_alpha 90.000000
_cell_angle_beta 90.000000
_cell_angle_gamma 90.000000
_cell_volume 2161.534497
_symmetry_space_group_name_H-M "P 4 2 2"
_symmetry_group_IT_number 89
_symmetry_cell_setting 'tetragonal'
loop_
_space_group_symop_operation_xyz
x,y,z
-y,x,z
-x,-y,z
y,-x,z
x,-y,-z
-x,y,-z
y,x,-z
-y,-x,-z
loop_
_atom_site_type_symbol
_atom_site_label
_atom_site_fract_x
_atom_site_fract_y
_atom_site_fract_z
Si Si1 0.977859 0.250404 0.444672
Si Si2 0.874618 0.778305 0.205949
Si Si3 0.500000 0.000000 0.634349
Si Si4 0.675956 0.324045 0.000000
Si Si5 0.742608 0.574743 0.289694
Si Si6 0.155297 0.196873 0.094064
O O1 0.129998 0.154732 0.439937
O O2 0.000000 0.314884 0.500000
O O3 0.948866 0.370210 0.402654
O O4 0.822944 0.644890 0.241495
O O5 0.823823 0.743167 0.149719
O O6 0.054090 0.804076 0.213314
O O7 0.428811 0.131356 0.667781
O O8 0.703266 0.500000 0.000000
O O9 0.728443 0.240886 0.049344
O O10 0.594651 0.679151 0.291909
O O11 0.976474 0.201007 0.089778
#
# Coordination Sequence:
#
# PCOD9547010 Si02
#       6
#     8   8   4   4   8   8
#     4   9  19  36  58  85 114 145 188 242 297 350
#     4   9  19  38  62  85 109 143 189 239 292 353
#     4  12  21  36  58  82 112 154 195 234 288 356
#     4  11  24  37  50  78 118 153 186 227 280 344
#     4  11  24  38  53  79 115 151 189 236 287 341
#     4   9  19  37  61  85 108 138 182 234 285 342
#
# _framework density 18.505374
#
# number of rings (size 3 to 8) (size 9 to 14) (size 15 to 20)
#    0.000    2.100    0.000    5.100    0.000    4.000 
#    0.000    8.000    0.000    0.000    0.000    8.400 
#    0.000    0.000    0.000    0.000    0.000    0.000 
#
# Total GULP energy -222702.121852 kJ/mol
# GULP energy per Si atom -5567.553046 kJ/mol
# Density = 1.846325 g / cm^3
# Si number density = 18.505374 Si / 1000 Ang^3
#
#
#
# Elastic Constant Matrix: (Units=GPa)
#
#
# Indices 1 2 3 4 5 6 
#
# 1 42.2914 58.4626 73.0264 0.0000 0.0000 0.0000
# 2 58.4626 42.2922 73.0265 0.0000 0.0000 0.0000
# 3 73.0264 73.0265 164.4338 0.0000 0.0000 0.0000
# 4 0.0000 0.0000 0.0000 42.2292 0.0000 0.0000
# 5 0.0000 0.0000 0.0000 0.0000 42.2291 0.0000
# 6 0.0000 0.0000 0.0000 0.0000 0.0000 25.5809
#
#
#
# Elastic Compliance Matrix: (Units=1/GPa)
#
#
# Indices 1 2 3 4 5 6 
#
# 1 -0.016990 0.044851 -0.012373 0.000000 0.000000 0.000000
# 2 0.044851 -0.016988 -0.012374 0.000000 0.000000 0.000000
# 3 -0.012373 -0.012374 0.017072 0.000000 0.000000 0.000000
# 4 0.000000 0.000000 0.000000 0.023680 0.000000 0.000000
# 5 0.000000 0.000000 0.000000 0.000000 0.023680 0.000000
# 6 0.000000 0.000000 0.000000 0.000000 0.000000 0.039092
#
#
# Mechanical properties :
#
#
# Convention : Reuss Voigt Hill
#
# Bulk Modulus (GPa) = 42.91651 73.11651 58.01651
# Shear Modulus (GPa) = 134.74705 24.97466 79.86085
#
# Velocity S-wave (km/s) = 8.54243 3.67766 6.57641
# Velocity P-wave (km/s) = 10.97904 7.59146 9.43847
#
# Compressibility (1/GPa) = 0.02330105
#
# Stress axis : x y z
#
# Youngs Moduli (GPa) = -58.85961 -58.86415 58.57530
#
# Poissons Ratio (x) = 2.64011 0.72478
# Poissons Ratio (y) = 2.63991 0.72481
# Poissons Ratio (z) = -0.72830 -0.72839
#
# Static dielectric constant tensor:
#      x y z
#    x 1.637500 0.000000 0.000000 
#    y 0.000000 1.637490 0.000000 
#    z 0.000000 0.000000 1.662150 
# 
# From -- ./inp_files/2887.got.cif
#   From: 2010.05.17/outbox.cif.g08.bks.cpg/sg89_2_cif.got.tgz:2887.got - 2010.06.03 19:15:31.
