data_PCOD9547264
_publ_section_title
;
Structure prediction by ZEFSAII (Michael W. Deem and Ramdas Pophale) SiO2 
 PCOD9547264
Probable space group: P 4 21 2
;
_chemical_formula_sum "Si O2"
_cell_formula_units_Z 42
_cell_length_a 14.836804
_cell_length_b 14.836804
_cell_length_c 7.324289
_cell_angle_alpha 90.000000
_cell_angle_beta 90.000000
_cell_angle_gamma 90.000000
_cell_volume 1612.301252
_symmetry_space_group_name_H-M "P 4 21 2"
_symmetry_group_IT_number 90
_symmetry_cell_setting 'tetragonal'
loop_
_space_group_symop_operation_xyz
x,y,z
1/2-y,1/2+x,z
-x,-y,z
1/2+y,1/2-x,z
1/2+x,1/2-y,-z
1/2-x,1/2+y,-z
y,x,-z
-y,-x,-z
loop_
_atom_site_type_symbol
_atom_site_label
_atom_site_fract_x
_atom_site_fract_y
_atom_site_fract_z
Si Si1 0.234756 0.216124 0.287450
Si Si2 0.622228 0.643770 0.283303
Si Si3 0.151479 0.502029 0.257929
Si Si4 0.043475 0.166524 0.125103
Si Si5 0.983040 0.701133 0.690511
Si Si6 0.500000 0.000000 0.206549
O O1 0.234956 0.234956 0.500000
O O2 0.291469 0.299677 0.209881
O O3 0.131648 0.200287 0.237516
O O4 0.282533 0.120726 0.259023
O O5 0.631484 0.631484 0.500000
O O6 0.616468 0.544111 0.203820
O O7 0.537144 0.708780 0.255906
O O8 0.087408 0.414981 0.237592
O O9 0.231571 0.502467 0.111749
O O10 0.187632 0.503986 0.468588
O O11 0.094427 0.094427 0.000000
O O12 0.017852 0.608824 0.774969
#
# Coordination Sequence:
#
# PCOD9547264 Si02
#       6
#     8   8   8   8   8   2
#     4  11  22  41  74 111 152 200 266 335 402 469
#     4  11  22  41  75 114 158 213 274 341 405 475
#     4  11  19  38  77 118 155 195 258 332 411 483
#     4  12  27  45  66 109 168 221 269 320 400 496
#     4  12  20  37  73 122 158 188 247 344 415 465
#     4  12  20  36  68 128 170 168 244 352 430 456
#
# _framework density 26.049721999999999
#
# number of rings (size 3 to 8) (size 9 to 14) (size 15 to 20)
#    0.000    0.571    7.619    1.143    0.000    0.762 
#    0.000    7.619    0.000    2.286    0.000    0.000 
#    0.000    0.000    0.000    0.000    0.000    0.000 
#
# Total GULP energy -234496.087642 kJ/mol
# GULP energy per Si atom -5583.240182 kJ/mol
# Density = 2.599043 g / cm^3
# Si number density = 26.049722 Si / 1000 Ang^3
#
#
#
# Elastic Constant Matrix: (Units=GPa)
#
#
# Indices 1 2 3 4 5 6 
#
# 1 219.7662 65.5325 58.9001 0.0000 0.0000 0.0000
# 2 65.5325 219.7662 58.9001 0.0000 0.0000 0.0000
# 3 58.9001 58.9001 93.8533 0.0000 0.0000 0.0000
# 4 0.0000 0.0000 0.0000 -91.0051 0.0000 0.0000
# 5 0.0000 0.0000 0.0000 0.0000 -91.0051 0.0000
# 6 0.0000 0.0000 0.0000 0.0000 0.0000 53.7966
#
#
#
# Elastic Compliance Matrix: (Units=1/GPa)
#
#
# Indices 1 2 3 4 5 6 
#
# 1 0.005607 -0.000876 -0.002969 0.000000 0.000000 0.000000
# 2 -0.000876 0.005607 -0.002969 0.000000 0.000000 0.000000
# 3 -0.002969 -0.002969 0.014382 0.000000 0.000000 0.000000
# 4 0.000000 0.000000 0.000000 -0.010988 0.000000 0.000000
# 5 0.000000 0.000000 0.000000 0.000000 -0.010988 0.000000
# 6 0.000000 0.000000 0.000000 0.000000 0.000000 0.018589
#
#
# Mechanical properties :
#
#
# Convention : Reuss Voigt Hill
#
# Bulk Modulus (GPa) = 83.56093 100.00566 91.78330
# Shear Modulus (GPa) = 125.54575 -2.30583 61.61996
#
# Velocity S-wave (km/s) = 6.94977 -0.94185 4.86889
# Velocity P-wave (km/s) = 9.82579 6.10662 8.18037
#
# Compressibility (1/GPa) = 0.01196732
#
# Stress axis : x y z
#
# Youngs Moduli (GPa) = 178.33727 178.33727 69.53333
#
# Poissons Ratio (x) = 0.15628 0.20645
# Poissons Ratio (y) = 0.15628 0.20645
# Poissons Ratio (z) = 0.52950 0.52950
#
# Static dielectric constant tensor:
#      x y z
#    x 2.095520 0.000000 0.000000 
#    y 0.000000 2.095520 0.000000 
#    z 0.000000 0.000000 2.131170 
# 
# From -- ./inp_files/1340.got.cif
#   From: 2010.05.17/outbox.cif.g08.bks.cpg/sg90_1_cif.got.tgz:1340.got - 2010.06.03 19:17:45.
