data_PCOD9547170
_publ_section_title
;
Structure prediction by ZEFSAII (Michael W. Deem and Ramdas Pophale) SiO2 
 PCOD9547170
Probable space group: P 4 21 2
;
_chemical_formula_sum "Si O2"
_cell_formula_units_Z 40
_cell_length_a 13.442625
_cell_length_b 13.442625
_cell_length_c 8.863587
_cell_angle_alpha 90.000000
_cell_angle_beta 90.000000
_cell_angle_gamma 90.000000
_cell_volume 1601.687104
_symmetry_space_group_name_H-M "P 4 21 2"
_symmetry_group_IT_number 90
_symmetry_cell_setting 'tetragonal'
loop_
_space_group_symop_operation_xyz
x,y,z
1/2-y,1/2+x,z
-x,-y,z
1/2+y,1/2-x,z
1/2+x,1/2-y,-z
1/2-x,1/2+y,-z
y,x,-z
-y,-x,-z
loop_
_atom_site_type_symbol
_atom_site_label
_atom_site_fract_x
_atom_site_fract_y
_atom_site_fract_z
Si Si1 0.509960 0.166782 0.789593
Si Si2 0.681901 0.473070 0.951749
Si Si3 0.610536 0.234111 0.483098
Si Si4 0.089006 0.364694 0.811116
Si Si5 0.039872 0.888412 0.651671
O O1 0.411264 0.100644 0.812762
O O2 0.543494 0.207754 0.626624
O O3 0.496504 0.261287 0.896781
O O4 0.758984 0.387756 0.885526
O O5 0.656092 0.554974 0.821292
O O6 0.582273 0.417728 0.000000
O O7 0.720969 0.279032 0.500000
O O8 0.610349 0.143380 0.366424
O O9 0.551996 0.321459 0.399718
O O10 0.130225 0.471676 0.852436
O O11 0.109246 0.890755 0.500000
O O12 0.000000 0.000000 0.670429
#
# Coordination Sequence:
#
# PCOD9547170 Si02
#       5
#     8   8   8   8   8
#     4  11  24  45  71 104 148 198 243 297 378 442
#     4  11  24  41  69 100 140 180 228 306 362 428
#     4  11  21  40  70  97 143 186 238 311 347 416
#     4  10  21  41  69  95 128 185 245 292 353 422
#     4  10  21  42  69  95 128 187 237 268 353 439
#
# _framework density 24.973666000000001
#
# number of rings (size 3 to 8) (size 9 to 14) (size 15 to 20)
#    0.000    1.400    2.000    4.800    0.000    3.600 
#    0.000   15.000    8.800    0.000    0.000    0.000 
#    0.000    0.000    0.000    0.000    0.000    0.000 
#
# Total GULP energy -223042.417411 kJ/mol
# GULP energy per Si atom -5576.060435 kJ/mol
# Density = 2.491683 g / cm^3
# Si number density = 24.973666 Si / 1000 Ang^3
#
#
#
# Elastic Constant Matrix: (Units=GPa)
#
#
# Indices 1 2 3 4 5 6 
#
# 1 84.8193 26.8382 17.6953 0.0000 0.0000 0.0000
# 2 26.8382 84.8177 17.6949 0.0000 0.0000 0.0000
# 3 17.6953 17.6949 115.9546 0.0000 0.0000 0.0000
# 4 0.0000 0.0000 0.0000 25.1646 0.0000 0.0000
# 5 0.0000 0.0000 0.0000 0.0000 25.1636 0.0000
# 6 0.0000 0.0000 0.0000 0.0000 0.0000 26.8774
#
#
#
# Elastic Compliance Matrix: (Units=1/GPa)
#
#
# Indices 1 2 3 4 5 6 
#
# 1 0.013329 -0.003918 -0.001436 0.000000 0.000000 0.000000
# 2 -0.003918 0.013329 -0.001436 0.000000 0.000000 0.000000
# 3 -0.001436 -0.001436 0.009062 0.000000 0.000000 0.000000
# 4 0.000000 0.000000 0.000000 0.039738 0.000000 0.000000
# 5 0.000000 0.000000 0.000000 0.000000 0.039740 0.000000
# 6 0.000000 0.000000 0.000000 0.000000 0.000000 0.037206
#
#
# Mechanical properties :
#
#
# Convention : Reuss Voigt Hill
#
# Bulk Modulus (GPa) = 45.16689 45.56093 45.36391
# Shear Modulus (GPa) = 28.84074 30.33201 29.58638
#
# Velocity S-wave (km/s) = 3.40199 3.48883 3.44569
# Velocity P-wave (km/s) = 5.79279 5.87473 5.83391
#
# Compressibility (1/GPa) = 0.02214011
#
# Stress axis : x y z
#
# Youngs Moduli (GPa) = 75.02376 75.02241 110.34606
#
# Poissons Ratio (x) = 0.29394 0.15848
# Poissons Ratio (y) = 0.29394 0.15848
# Poissons Ratio (z) = 0.10775 0.10775
#
# Static dielectric constant tensor:
#      x y z
#    x 1.963670 0.000000 0.000000 
#    y 0.000000 1.963670 0.000000 
#    z 0.000000 0.000000 2.155380 
# 
# From -- ./inp_files/1314.got.cif
#   From: 2010.05.17/outbox.cif.g08.bks.cpg/sg90_1_cif.got.tgz:1314.got - 2010.06.03 19:17:45.
