data_PCOD9547421
_publ_section_title
;
Structure prediction by ZEFSAII (Michael W. Deem and Ramdas Pophale) SiO2 
 PCOD9547421
Probable space group: P 4 21 2
;
_chemical_formula_sum "Si O2"
_cell_formula_units_Z 60
_cell_length_a 11.560872
_cell_length_b 11.560872
_cell_length_c 21.564050
_cell_angle_alpha 90.000000
_cell_angle_beta 90.000000
_cell_angle_gamma 90.000000
_cell_volume 2882.116394
_symmetry_space_group_name_H-M "P 4 21 2"
_symmetry_group_IT_number 90
_symmetry_cell_setting 'tetragonal'
loop_
_space_group_symop_operation_xyz
x,y,z
1/2-y,1/2+x,z
-x,-y,z
1/2+y,1/2-x,z
1/2+x,1/2-y,-z
1/2-x,1/2+y,-z
y,x,-z
-y,-x,-z
loop_
_atom_site_type_symbol
_atom_site_label
_atom_site_fract_x
_atom_site_fract_y
_atom_site_fract_z
Si Si1 0.521823 0.195649 0.634900
Si Si2 0.048760 0.310282 0.637341
Si Si3 0.723776 0.305939 0.927581
Si Si4 0.000000 0.000000 0.830738
Si Si5 0.570697 0.655802 0.068917
Si Si6 0.653411 0.366548 0.266711
Si Si7 0.119359 0.346868 0.176616
Si Si8 0.966106 0.692823 0.501935
O O1 0.402398 0.123244 0.640695
O O2 0.538530 0.292214 0.686696
O O3 0.536056 0.248869 0.565799
O O4 0.135315 0.420422 0.641144
O O5 0.086768 0.224892 0.691147
O O6 0.052788 0.250798 0.568924
O O7 0.855602 0.269242 0.916225
O O8 0.686915 0.437407 0.920058
O O9 0.651671 0.212413 0.888539
O O10 0.710981 0.289020 0.000000
O O11 0.068502 0.084442 0.785315
O O12 0.909601 0.061494 0.877485
O O13 0.604108 0.604108 0.000000
O O14 0.765371 0.322718 0.228469
O O15 0.154947 0.480100 0.183269
O O16 0.871829 0.589823 0.502077
#
# Coordination Sequence:
#
# PCOD9547421 Si02
#       8
#     8   8   8   4   8   8   8   8
#     4   9  18  34  58  90 119 153 206 265 321 385
#     4   9  20  39  59  83 117 163 214 264 318 386
#     4  11  25  43  72 106 129 176 211 273 331 390
#     4  12  25  46  62  89 132 178 206 260 326 401
#     4  11  25  47  75  99 137 169 223 269 332 395
#     4  12  24  37  62  89 123 168 208 262 322 387
#     4  11  25  46  67  93 131 174 224 273 323 392
#     4   7  12  29  57  82 112 153 202 260 321 382
#
# _framework density 20.818034999999998
#
# number of rings (size 3 to 8) (size 9 to 14) (size 15 to 20)
#    0.000    1.867    1.333    4.200    3.733    5.067 
#    0.000    0.000    0.000    3.200    0.000    0.000 
#    0.000    0.000    0.000    0.000    0.000    0.000 
#
# Total GULP energy -334600.471447 kJ/mol
# GULP energy per Si atom -5576.674524 kJ/mol
# Density = 2.077065 g / cm^3
# Si number density = 20.818035 Si / 1000 Ang^3
#
#
#
# Elastic Constant Matrix: (Units=GPa)
#
#
# Indices 1 2 3 4 5 6 
#
# 1 51.9605 12.2954 25.2941 0.0000 0.0000 0.0000
# 2 12.2954 51.9602 25.2941 0.0000 0.0000 0.0000
# 3 25.2941 25.2941 162.8174 0.0000 0.0000 0.0000
# 4 0.0000 0.0000 0.0000 26.6530 0.0000 0.0000
# 5 0.0000 0.0000 0.0000 0.0000 26.6531 0.0000
# 6 0.0000 0.0000 0.0000 0.0000 0.0000 27.0156
#
#
#
# Elastic Compliance Matrix: (Units=1/GPa)
#
#
# Indices 1 2 3 4 5 6 
#
# 1 0.021471 -0.003740 -0.002755 0.000000 0.000000 0.000000
# 2 -0.003740 0.021471 -0.002755 0.000000 0.000000 0.000000
# 3 -0.002755 -0.002755 0.006998 0.000000 0.000000 0.000000
# 4 0.000000 0.000000 0.000000 0.037519 0.000000 0.000000
# 5 0.000000 0.000000 0.000000 0.000000 0.037519 0.000000
# 6 0.000000 0.000000 0.000000 0.000000 0.000000 0.037016
#
#
# Mechanical properties :
#
#
# Convention : Reuss Voigt Hill
#
# Bulk Modulus (GPa) = 31.80436 43.61170 37.70803
# Shear Modulus (GPa) = 26.18167 29.65464 27.91815
#
# Velocity S-wave (km/s) = 3.55017 3.77831 3.66602
# Velocity P-wave (km/s) = 5.66705 6.32682 6.00600
#
# Compressibility (1/GPa) = 0.03144223
#
# Stress axis : x y z
#
# Youngs Moduli (GPa) = 46.57382 46.57351 142.90348
#
# Poissons Ratio (x) = 0.17418 0.39365
# Poissons Ratio (y) = 0.17418 0.39365
# Poissons Ratio (z) = 0.12829 0.12829
#
# Static dielectric constant tensor:
#      x y z
#    x 1.895320 0.000000 0.000000 
#    y 0.000000 1.895340 0.000000 
#    z 0.000000 0.000000 1.764840 
# 
# From -- ./inp_files/2851.got.cif
#   From: 2010.05.17/outbox.cif.g08.bks.cpg/sg90_2_cif.got.tgz:2851.got - 2010.06.03 19:17:45.
