data_PCOD9547294
_publ_section_title
;
Structure prediction by ZEFSAII (Michael W. Deem and Ramdas Pophale) SiO2 
 PCOD9547294
Probable space group: P 4 21 2
;
_chemical_formula_sum "Si O2"
_cell_formula_units_Z 40
_cell_length_a 14.275964
_cell_length_b 14.275964
_cell_length_c 8.254941
_cell_angle_alpha 90.000000
_cell_angle_beta 90.000000
_cell_angle_gamma 90.000000
_cell_volume 1682.382963
_symmetry_space_group_name_H-M "P 4 21 2"
_symmetry_group_IT_number 90
_symmetry_cell_setting 'tetragonal'
loop_
_space_group_symop_operation_xyz
x,y,z
1/2-y,1/2+x,z
-x,-y,z
1/2+y,1/2-x,z
1/2+x,1/2-y,-z
1/2-x,1/2+y,-z
y,x,-z
-y,-x,-z
loop_
_atom_site_type_symbol
_atom_site_label
_atom_site_fract_x
_atom_site_fract_y
_atom_site_fract_z
Si Si1 0.072216 0.225795 0.537829
Si Si2 0.107422 0.388841 0.701427
Si Si3 0.750093 0.549203 0.215768
Si Si4 0.860186 0.703831 0.040783
Si Si5 0.406261 0.446288 0.691438
O O1 0.135409 0.135409 0.500000
O O2 0.143721 0.309024 0.582176
O O3 0.004865 0.252850 0.388712
O O4 0.011056 0.184926 0.688453
O O5 0.124957 0.496284 0.672041
O O6 0.132061 0.359713 0.881377
O O7 0.823623 0.631298 0.178305
O O8 0.759555 0.462502 0.091706
O O9 0.648996 0.598896 0.210494
O O10 0.787795 0.787795 0.000000
O O11 0.500000 0.500000 0.743987
O O12 0.421379 0.421379 0.500000
#
# Coordination Sequence:
#
# PCOD9547294 Si02
#       5
#     8   8   8   8   8
#     4  11  22  45  77 110 145 182 242 319 373 439
#     4  11  26  49  71  99 146 198 239 305 378 441
#     4  11  25  44  73 106 142 199 246 306 366 455
#     4  12  27  48  70 105 148 196 253 302 377 452
#     4   9  17  39  66 102 141 175 219 297 379 417
#
# _framework density 23.775797000000001
#
# number of rings (size 3 to 8) (size 9 to 14) (size 15 to 20)
#    0.000    1.200    6.000    1.200    5.600    0.400 
#    0.000    0.000    0.000    0.000    0.000    0.000 
#    0.000    0.000    0.000    0.000    0.000    0.000 
#
# Total GULP energy -223545.274346 kJ/mol
# GULP energy per Si atom -5588.631859 kJ/mol
# Density = 2.372168 g / cm^3
# Si number density = 23.775797 Si / 1000 Ang^3
#
#
#
# Elastic Constant Matrix: (Units=GPa)
#
#
# Indices 1 2 3 4 5 6 
#
# 1 96.5474 17.0999 8.3991 0.0000 0.0000 0.0000
# 2 17.0999 96.5474 8.3991 0.0000 0.0000 0.0000
# 3 8.3991 8.3991 61.5358 0.0000 0.0000 0.0000
# 4 0.0000 0.0000 0.0000 20.3063 0.0000 0.0000
# 5 0.0000 0.0000 0.0000 0.0000 20.3063 0.0000
# 6 0.0000 0.0000 0.0000 0.0000 0.0000 21.7665
#
#
#
# Elastic Compliance Matrix: (Units=1/GPa)
#
#
# Indices 1 2 3 4 5 6 
#
# 1 0.010784 -0.001803 -0.001226 0.000000 0.000000 0.000000
# 2 -0.001803 0.010784 -0.001226 0.000000 0.000000 0.000000
# 3 -0.001226 -0.001226 0.016585 0.000000 0.000000 0.000000
# 4 0.000000 0.000000 0.000000 0.049246 0.000000 0.000000
# 5 0.000000 0.000000 0.000000 0.000000 0.049246 0.000000
# 6 0.000000 0.000000 0.000000 0.000000 0.000000 0.045942
#
#
# Mechanical properties :
#
#
# Convention : Reuss Voigt Hill
#
# Bulk Modulus (GPa) = 33.73479 35.82523 34.78001
# Shear Modulus (GPa) = 24.87849 27.19133 26.03491
#
# Velocity S-wave (km/s) = 3.23829 3.38547 3.31269
# Velocity P-wave (km/s) = 5.31051 5.51203 5.41221
#
# Compressibility (1/GPa) = 0.02964299
#
# Stress axis : x y z
#
# Youngs Moduli (GPa) = 92.73317 92.73317 60.29436
#
# Poissons Ratio (x) = 0.16723 0.07391
# Poissons Ratio (y) = 0.16723 0.07391
# Poissons Ratio (z) = 0.11367 0.11367
#
# Static dielectric constant tensor:
#      x y z
#    x 1.934980 0.000000 0.000000 
#    y 0.000000 1.934980 0.000000 
#    z 0.000000 0.000000 1.900750 
# 
# From -- ./inp_files/1301.got.cif
#   From: 2010.05.17/outbox.cif.g08.bks.cpg/sg90_1_cif.got.tgz:1301.got - 2010.06.03 19:17:45.
