data_PCOD9547966
_publ_section_title
;
Structure prediction by ZEFSAII (Michael W. Deem and Ramdas Pophale) SiO2 
 PCOD9547966
Probable space group: P 41 2 2
;
_chemical_formula_sum "Si O2"
_cell_formula_units_Z 36
_cell_length_a 12.339745
_cell_length_b 12.339745
_cell_length_c 11.680531
_cell_angle_alpha 90.000000
_cell_angle_beta 90.000000
_cell_angle_gamma 90.000000
_cell_volume 1778.586357
_symmetry_space_group_name_H-M "P 41 2 2"
_symmetry_group_IT_number 91
_symmetry_cell_setting 'tetragonal'
loop_
_space_group_symop_operation_xyz
x,y,z
-y,x,1/4+z
-x,-y,1/2+z
y,-x,3/4+z
x,-y,1/2-z
-x,y,-z
y,x,3/4-z
-y,-x,1/4-z
loop_
_atom_site_type_symbol
_atom_site_label
_atom_site_fract_x
_atom_site_fract_y
_atom_site_fract_z
Si Si1 0.921305 0.000000 0.250000
Si Si2 0.621548 0.880767 0.050986
Si Si3 0.383078 0.103519 0.038354
Si Si4 0.291811 0.000000 0.250000
Si Si5 0.197909 0.247297 0.004725
Si Si6 0.201685 0.798316 0.125000
O O1 0.842961 0.895989 0.234189
O O2 0.980965 0.980965 0.375000
O O3 0.645032 0.839046 0.179426
O O4 0.500000 0.875563 0.000000
O O5 0.699096 0.812920 0.964553
O O6 0.655584 0.009096 0.050126
O O7 0.374927 0.036419 0.153350
O O8 0.303888 0.200738 0.064977
O O9 0.500000 0.139778 0.000000
O O10 0.215281 0.093904 0.299315
O O11 0.241127 0.241127 0.875000
#
# Coordination Sequence:
#
# PCOD9547966 Si02
#       6
#     4   8   8   4   8   4
#     4  10  22  39  59  90 138 182 217 273 336 412
#     4  10  21  39  63  92 124 166 214 265 318 388
#     4  10  22  38  60  91 124 165 211 257 313 380
#     4  10  20  39  63  90 128 166 209 271 312 396
#     4  11  22  40  59  89 128 168 213 265 329 389
#     4  10  20  38  64  90 122 162 216 256 328 372
#
# _framework density 20.240793
#
# number of rings (size 3 to 8) (size 9 to 14) (size 15 to 20)
#    0.000    1.778    2.222    2.667    0.000    6.222 
#   10.000    1.111    0.000    1.333    0.000    0.000 
#    0.000    0.000    0.000    0.000    0.000    0.000 
#
# Total GULP energy -200491.503413 kJ/mol
# GULP energy per Si atom -5569.208428 kJ/mol
# Density = 2.019472 g / cm^3
# Si number density = 20.240793 Si / 1000 Ang^3
#
#
#
# Elastic Constant Matrix: (Units=GPa)
#
#
# Indices 1 2 3 4 5 6 
#
# 1 68.8562 35.3654 27.9127 0.0000 0.0000 0.0000
# 2 35.3654 68.8568 27.9134 0.0000 0.0000 0.0000
# 3 27.9127 27.9134 111.7051 0.0000 0.0000 0.0000
# 4 0.0000 0.0000 0.0000 29.6763 0.0000 0.0000
# 5 0.0000 0.0000 0.0000 0.0000 29.6764 0.0000
# 6 0.0000 0.0000 0.0000 0.0000 0.0000 2.2420
#
#
#
# Elastic Compliance Matrix: (Units=1/GPa)
#
#
# Indices 1 2 3 4 5 6 
#
# 1 0.020468 -0.009391 -0.002768 0.000000 0.000000 0.000000
# 2 -0.009391 0.020468 -0.002768 0.000000 0.000000 0.000000
# 3 -0.002768 -0.002768 0.010336 0.000000 0.000000 0.000000
# 4 0.000000 0.000000 0.000000 0.033697 0.000000 0.000000
# 5 0.000000 0.000000 0.000000 0.000000 0.033697 0.000000
# 6 0.000000 0.000000 0.000000 0.000000 0.000000 0.446035
#
#
# Mechanical properties :
#
#
# Convention : Reuss Voigt Hill
#
# Bulk Modulus (GPa) = 46.68879 47.97790 47.33334
# Shear Modulus (GPa) = 8.30987 22.86737 15.58862
#
# Velocity S-wave (km/s) = 2.02840 3.36485 2.77818
# Velocity P-wave (km/s) = 5.34814 6.23308 5.80749
#
# Compressibility (1/GPa) = 0.02141842
#
# Stress axis : x y z
#
# Youngs Moduli (GPa) = 48.85620 48.85637 96.75357
#
# Poissons Ratio (x) = 0.45879 0.26781
# Poissons Ratio (y) = 0.45879 0.26783
# Poissons Ratio (z) = 0.13523 0.13524
#
# Static dielectric constant tensor:
#      x y z
#    x 1.906190 0.000000 0.000000 
#    y 0.000000 1.906140 0.000000 
#    z 0.000000 0.000000 1.728450 
# 
# From -- ./inp_files/3592.got.cif
#   From: 2010.05.17/outbox.cif.g08.bks.cpg/sg91_2_cif.got.tgz:3592.got - 2010.06.03 19:20:03.
