data_PCOD9547197
_publ_section_title
;
Structure prediction by ZEFSAII (Michael W. Deem and Ramdas Pophale) SiO2 
 PCOD9547197
Probable space group: P 4 21 2
;
_chemical_formula_sum "Si O2"
_cell_formula_units_Z 48
_cell_length_a 8.562969
_cell_length_b 8.562969
_cell_length_c 33.681229
_cell_angle_alpha 90.000000
_cell_angle_beta 90.000000
_cell_angle_gamma 90.000000
_cell_volume 2469.657191
_symmetry_space_group_name_H-M "P 4 21 2"
_symmetry_group_IT_number 90
_symmetry_cell_setting 'tetragonal'
loop_
_space_group_symop_operation_xyz
x,y,z
1/2-y,1/2+x,z
-x,-y,z
1/2+y,1/2-x,z
1/2+x,1/2-y,-z
1/2-x,1/2+y,-z
y,x,-z
-y,-x,-z
loop_
_atom_site_type_symbol
_atom_site_label
_atom_site_fract_x
_atom_site_fract_y
_atom_site_fract_z
Si Si1 0.000000 0.000000 0.259095
Si Si2 0.759298 0.950648 0.531654
Si Si3 0.000000 0.000000 0.398264
Si Si4 0.474832 0.741898 0.327586
Si Si5 0.244319 0.935460 0.808000
Si Si6 0.751377 0.082737 0.124081
Si Si7 0.249264 0.921474 0.033483
O O1 0.865761 0.948977 0.289352
O O2 0.933544 0.136026 0.230889
O O3 0.617978 0.825945 0.527579
O O4 0.885232 0.885232 0.500000
O O5 0.852287 0.971830 0.572919
O O6 0.855591 0.990414 0.367992
O O7 0.336347 0.864897 0.326307
O O8 0.391433 0.817759 0.808856
O O9 0.138543 0.880604 0.844955
O O10 0.594944 0.189635 0.129204
O O11 0.807978 0.099411 0.078664
O O12 0.402780 0.812205 0.029268
O O13 0.128906 0.871095 0.000000
#
# Coordination Sequence:
#
# PCOD9547197 Si02
#       7
#     4   8   4   8   8   8   8
#     4  11  22  40  61  82 114 150 185 230 288 357
#     4  11  23  39  61  90 127 172 221 272 324 378
#     4  11  21  38  61  88 124 160 203 258 317 371
#     4  10  22  39  61  88 116 151 196 244 295 358
#     4  11  23  37  56  84 114 144 182 233 289 344
#     4   9  19  37  58  79 108 149 192 233 284 347
#     4   9  19  35  54  78 109 145 186 230 276 330
#
# _framework density 19.435897000000001
#
# number of rings (size 3 to 8) (size 9 to 14) (size 15 to 20)
#    0.000    1.833    0.000    5.250    0.000    1.667 
#    0.000    8.333    0.000    8.000    0.000    0.000 
#    0.000    0.000    0.000    0.000    0.000    0.000 
#
# Total GULP energy -267800.141702 kJ/mol
# GULP energy per Si atom -5579.169619 kJ/mol
# Density = 1.939166 g / cm^3
# Si number density = 19.435897 Si / 1000 Ang^3
#
#
#
# Elastic Constant Matrix: (Units=GPa)
#
#
# Indices 1 2 3 4 5 6 
#
# 1 65.0832 31.5502 59.3253 0.0000 0.0000 0.0000
# 2 31.5502 65.0830 59.3249 0.0000 0.0000 0.0000
# 3 59.3253 59.3249 153.8865 0.0000 0.0000 0.0000
# 4 0.0000 0.0000 0.0000 -242.0276 0.0000 0.0000
# 5 0.0000 0.0000 0.0000 0.0000 -242.0320 0.0000
# 6 0.0000 0.0000 0.0000 0.0000 0.0000 40.2742
#
#
#
# Elastic Compliance Matrix: (Units=1/GPa)
#
#
# Indices 1 2 3 4 5 6 
#
# 1 0.024735 -0.005086 -0.007575 0.000000 0.000000 0.000000
# 2 -0.005086 0.024735 -0.007575 0.000000 0.000000 0.000000
# 3 -0.007575 -0.007575 0.012339 0.000000 0.000000 0.000000
# 4 0.000000 0.000000 0.000000 -0.004132 0.000000 0.000000
# 5 0.000000 0.000000 0.000000 0.000000 -0.004132 0.000000
# 6 0.000000 0.000000 0.000000 0.000000 0.000000 0.024830
#
#
# Mechanical properties :
#
#
# Convention : Reuss Voigt Hill
#
# Bulk Modulus (GPa) = 46.86624 64.93927 55.90276
# Shear Modulus (GPa) = 39.69488 -79.83359 -20.06935
#
# Velocity S-wave (km/s) = 4.52414 -6.41596 -3.21688
# Velocity P-wave (km/s) = 7.17329 4.62617 3.87651
#
# Compressibility (1/GPa) = 0.02133732
#
# Stress axis : x y z
#
# Youngs Moduli (GPa) = 40.42786 40.42790 81.04477
#
# Poissons Ratio (x) = 0.20562 0.61392
# Poissons Ratio (y) = 0.20562 0.61392
# Poissons Ratio (z) = 0.30625 0.30624
#
# Static dielectric constant tensor:
#      x y z
#    x 1.805620 0.000000 0.000000 
#    y 0.000000 1.805630 0.000000 
#    z 0.000000 0.000000 1.645340 
# 
# From -- ./inp_files/3109.got.cif
#   From: 2010.05.17/outbox.cif.g08.bks.cpg/sg90_2_cif.got.tgz:3109.got - 2010.06.03 19:17:45.
