data_PCOD9547413
_publ_section_title
;
Structure prediction by ZEFSAII (Michael W. Deem and Ramdas Pophale) SiO2 
 PCOD9547413
Probable space group: P 4 21 2
;
_chemical_formula_sum "Si O2"
_cell_formula_units_Z 36
_cell_length_a 8.700452
_cell_length_b 8.700452
_cell_length_c 20.641408
_cell_angle_alpha 90.000000
_cell_angle_beta 90.000000
_cell_angle_gamma 90.000000
_cell_volume 1562.510516
_symmetry_space_group_name_H-M "P 4 21 2"
_symmetry_group_IT_number 90
_symmetry_cell_setting 'tetragonal'
loop_
_space_group_symop_operation_xyz
x,y,z
1/2-y,1/2+x,z
-x,-y,z
1/2+y,1/2-x,z
1/2+x,1/2-y,-z
1/2-x,1/2+y,-z
y,x,-z
-y,-x,-z
loop_
_atom_site_type_symbol
_atom_site_label
_atom_site_fract_x
_atom_site_fract_y
_atom_site_fract_z
Si Si1 0.000000 0.500000 0.584730
Si Si2 0.082727 0.835918 0.818146
Si Si3 0.406366 0.236376 0.946191
Si Si4 0.903928 0.158744 0.573203
Si Si5 0.716050 0.133971 0.699904
Si Si6 0.000000 0.500000 0.841974
O O1 0.189976 0.506414 0.583646
O O2 0.203234 0.872569 0.874805
O O3 0.161773 0.796604 0.749633
O O4 0.982017 0.689892 0.840066
O O5 0.000000 0.000000 0.809127
O O6 0.582118 0.191034 0.955614
O O7 0.357428 0.357428 0.000000
O O8 0.841325 0.158675 0.500000
O O9 0.770946 0.155376 0.626789
O O10 0.000000 0.000000 0.581273
O O11 0.548586 0.203466 0.711884
#
# Coordination Sequence:
#
# PCOD9547413 Si02
#       6
#     2   8   8   8   8   2
#     4  12  28  45  80 100 152 197 252 310 396 457
#     4  12  27  48  75 114 155 202 259 322 390 466
#     4  11  27  46  73 107 149 196 253 316 388 463
#     4  11  27  46  71 111 151 197 260 320 389 472
#     4  11  24  45  77 108 155 206 257 323 396 466
#     4  12  28  45  84 108 156 201 256 310 392 461
#
# _framework density 23.039843000000001
#
# number of rings (size 3 to 8) (size 9 to 14) (size 15 to 20)
#    0.000    0.667    0.000    6.000   12.444    4.444 
#    0.000    0.000    0.000    0.000    0.000    0.000 
#    0.000    0.000    0.000    0.000    0.000    0.000 
#
# Total GULP energy -200672.280442 kJ/mol
# GULP energy per Si atom -5574.230012 kJ/mol
# Density = 2.298740 g / cm^3
# Si number density = 23.039843 Si / 1000 Ang^3
#
#
#
# Elastic Constant Matrix: (Units=GPa)
#
#
# Indices 1 2 3 4 5 6 
#
# 1 117.7646 15.5505 1.5887 0.0000 0.0000 0.0000
# 2 15.5505 117.7644 1.5888 0.0000 0.0000 0.0000
# 3 1.5887 1.5888 56.9480 0.0000 0.0000 0.0000
# 4 0.0000 0.0000 0.0000 27.9910 0.0000 0.0000
# 5 0.0000 0.0000 0.0000 0.0000 27.9912 0.0000
# 6 0.0000 0.0000 0.0000 0.0000 0.0000 15.2607
#
#
#
# Elastic Compliance Matrix: (Units=1/GPa)
#
#
# Indices 1 2 3 4 5 6 
#
# 1 0.008645 -0.001139 -0.000209 0.000000 0.000000 0.000000
# 2 -0.001139 0.008645 -0.000209 0.000000 0.000000 0.000000
# 3 -0.000209 -0.000209 0.017572 0.000000 0.000000 0.000000
# 4 0.000000 0.000000 0.000000 0.035726 0.000000 0.000000
# 5 0.000000 0.000000 0.000000 0.000000 0.035726 0.000000
# 6 0.000000 0.000000 0.000000 0.000000 0.000000 0.065528
#
#
# Mechanical properties :
#
#
# Convention : Reuss Voigt Hill
#
# Bulk Modulus (GPa) = 31.50005 36.65923 34.07964
# Shear Modulus (GPa) = 26.94877 32.49850 29.72363
#
# Velocity S-wave (km/s) = 3.42374 3.75978 3.59569
# Velocity P-wave (km/s) = 5.41581 5.89862 5.66236
#
# Compressibility (1/GPa) = 0.03174598
#
# Stress axis : x y z
#
# Youngs Moduli (GPa) = 115.67774 115.67754 56.91012
#
# Poissons Ratio (x) = 0.13172 0.01192
# Poissons Ratio (y) = 0.13172 0.01192
# Poissons Ratio (z) = 0.02422 0.02423
#
# Static dielectric constant tensor:
#      x y z
#    x 1.853680 0.000000 0.000000 
#    y 0.000000 1.853680 0.000000 
#    z 0.000000 0.000000 1.822970 
# 
# From -- ./inp_files/2788.got.cif
#   From: 2010.05.17/outbox.cif.g08.bks.cpg/sg90_2_cif.got.tgz:2788.got - 2010.06.03 19:17:45.
