data_PCOD9547978
_publ_section_title
;
Structure prediction by ZEFSAII (Michael W. Deem and Ramdas Pophale) SiO2 
 PCOD9547978
Probable space group: P 41 2 2
;
_chemical_formula_sum "Si O2"
_cell_formula_units_Z 20
_cell_length_a 10.012733
_cell_length_b 10.012733
_cell_length_c 10.491637
_cell_angle_alpha 90.000000
_cell_angle_beta 90.000000
_cell_angle_gamma 90.000000
_cell_volume 1051.837201
_symmetry_space_group_name_H-M "P 41 2 2"
_symmetry_group_IT_number 91
_symmetry_cell_setting 'tetragonal'
loop_
_space_group_symop_operation_xyz
x,y,z
-y,x,1/4+z
-x,-y,1/2+z
y,-x,3/4+z
x,-y,1/2-z
-x,y,-z
y,x,3/4-z
-y,-x,1/4-z
loop_
_atom_site_type_symbol
_atom_site_label
_atom_site_fract_x
_atom_site_fract_y
_atom_site_fract_z
Si Si1 0.355970 0.355970 0.375000
Si Si2 0.277849 0.333918 0.097768
Si Si3 0.864106 0.500000 0.250000
Si Si4 0.000000 0.403447 0.000000
O O1 0.277844 0.311616 0.249495
O O2 0.511894 0.330467 0.340573
O O3 0.375900 0.234472 0.024925
O O4 0.131138 0.324135 0.040814
O O5 0.954561 0.514674 0.375426
#
# Coordination Sequence:
#
# PCOD9547978 Si02
#       4
#     4   8   4   4
#     4  10  20  38  68 100 128 176 210 282 330 408
#     4  11  22  40  67 100 137 170 221 278 342 390
#     4  12  24  44  66  98 140 182 214 292 334 400
#     4  12  26  38  66 106 132 174 228 274 332 408
#
# _framework density 19.01435
#
# number of rings (size 3 to 8) (size 9 to 14) (size 15 to 20)
#    0.000    0.800    4.000    6.000    0.000    0.000 
#    0.000    0.000    0.000    9.600    0.000    0.000 
#    0.000    0.000    0.000    0.000    0.000    0.000 
#
# Total GULP energy -111732.584118 kJ/mol
# GULP energy per Si atom -5586.629206 kJ/mol
# Density = 1.897107 g / cm^3
# Si number density = 19.014350 Si / 1000 Ang^3
#
#
#
# Elastic Constant Matrix: (Units=GPa)
#
#
# Indices 1 2 3 4 5 6 
#
# 1 102.5799 62.2235 52.4091 0.0000 0.0000 0.0000
# 2 62.2235 102.5799 52.4091 0.0000 0.0000 0.0000
# 3 52.4091 52.4091 160.0843 0.0000 0.0000 0.0000
# 4 0.0000 0.0000 0.0000 34.4996 0.0000 0.0000
# 5 0.0000 0.0000 0.0000 0.0000 34.4996 0.0000
# 6 0.0000 0.0000 0.0000 0.0000 0.0000 1.1633
#
#
#
# Elastic Compliance Matrix: (Units=1/GPa)
#
#
# Indices 1 2 3 4 5 6 
#
# 1 0.016221 -0.008558 -0.002509 0.000000 0.000000 0.000000
# 2 -0.008558 0.016221 -0.002509 0.000000 0.000000 0.000000
# 3 -0.002509 -0.002509 0.007889 0.000000 0.000000 0.000000
# 4 0.000000 0.000000 0.000000 0.028986 0.000000 0.000000
# 5 0.000000 0.000000 0.000000 0.000000 0.028986 0.000000
# 6 0.000000 0.000000 0.000000 0.000000 0.000000 0.859619
#
#
# Mechanical properties :
#
#
# Convention : Reuss Voigt Hill
#
# Bulk Modulus (GPa) = 75.86745 77.70305 76.78525
# Shear Modulus (GPa) = 5.05322 27.24601 16.14961
#
# Velocity S-wave (km/s) = 1.63198 3.78950 2.91750
# Velocity P-wave (km/s) = 6.59832 7.75250 7.19858
#
# Compressibility (1/GPa) = 0.01318088
#
# Stress axis : x y z
#
# Youngs Moduli (GPa) = 61.64706 61.64706 126.75109
#
# Poissons Ratio (x) = 0.52756 0.31801
# Poissons Ratio (y) = 0.52756 0.31801
# Poissons Ratio (z) = 0.15467 0.15467
#
# Static dielectric constant tensor:
#      x y z
#    x 1.650410 0.000000 0.000000 
#    y 0.000000 1.650410 0.000000 
#    z 0.000000 0.000000 1.736190 
# 
# From -- ./inp_files/3030.got.cif
#   From: 2010.05.17/outbox.cif.g08.bks.cpg/sg91_2_cif.got.tgz:3030.got - 2010.06.03 19:20:03.
