data_PCOD9547624
_publ_section_title
;
Structure prediction by ZEFSAII (Michael W. Deem and Ramdas Pophale) SiO2 
 PCOD9547624
Probable space group: P 41 2 2
;
_chemical_formula_sum "Si O2"
_cell_formula_units_Z 32
_cell_length_a 12.791065
_cell_length_b 12.791065
_cell_length_c 11.153857
_cell_angle_alpha 90.000000
_cell_angle_beta 90.000000
_cell_angle_gamma 90.000000
_cell_volume 1824.897533
_symmetry_space_group_name_H-M "P 41 2 2"
_symmetry_group_IT_number 91
_symmetry_cell_setting 'tetragonal'
loop_
_space_group_symop_operation_xyz
x,y,z
-y,x,1/4+z
-x,-y,1/2+z
y,-x,3/4+z
x,-y,1/2-z
-x,y,-z
y,x,3/4-z
-y,-x,1/4-z
loop_
_atom_site_type_symbol
_atom_site_label
_atom_site_fract_x
_atom_site_fract_y
_atom_site_fract_z
Si Si1 0.765858 0.500000 0.750000
Si Si2 0.118646 0.609779 0.046787
Si Si3 0.000000 0.046354 0.500000
Si Si4 0.166161 0.833839 0.125000
Si Si5 0.619699 0.619699 0.375000
Si Si6 0.320619 0.623198 0.888662
O O1 0.838052 0.480100 0.634062
O O2 0.692319 0.599570 0.718212
O O3 0.134806 0.714184 0.125940
O O4 0.203720 0.624341 0.940934
O O5 0.000000 0.598614 0.000000
O O6 0.102042 0.117681 0.485353
O O7 0.012138 0.987863 0.625000
O O8 0.639431 0.496415 0.393208
O O9 0.654259 0.674187 0.498652
#
# Coordination Sequence:
#
# PCOD9547624 Si02
#       6
#     4   8   4   4   4   8
#     4  12  22  38  64  94 122 170 218 256 324 394
#     4  12  24  40  65  90 131 171 212 263 323 392
#     4   8  16  32  62  86 114 150 214 260 310 358
#     4  10  18  35  64  85 116 162 212 260 310 375
#     4  10  22  35  64  99 130 160 214 268 324 369
#     4  11  21  38  64  95 130 166 212 268 315 388
#
# _framework density 17.535231
#
# number of rings (size 3 to 8) (size 9 to 14) (size 15 to 20)
#    0.750    0.500    6.250    1.500    0.000    2.000 
#    0.000    0.000   13.750    0.000    0.000    0.000 
#    0.000    0.000    0.000    0.000    0.000    0.000 
#
# Total GULP energy -178145.298514 kJ/mol
# GULP energy per Si atom -5567.040579 kJ/mol
# Density = 1.749532 g / cm^3
# Si number density = 17.535231 Si / 1000 Ang^3
#
#
#
# Elastic Constant Matrix: (Units=GPa)
#
#
# Indices 1 2 3 4 5 6 
#
# 1 105.2439 28.7917 36.5966 0.0000 0.0000 0.0000
# 2 28.7917 105.2434 36.5970 0.0000 0.0000 0.0000
# 3 36.5966 36.5970 110.0994 0.0000 0.0000 0.0000
# 4 0.0000 0.0000 0.0000 31.6342 0.0000 0.0000
# 5 0.0000 0.0000 0.0000 0.0000 31.6341 0.0000
# 6 0.0000 0.0000 0.0000 0.0000 0.0000 18.4150
#
#
#
# Elastic Compliance Matrix: (Units=1/GPa)
#
#
# Indices 1 2 3 4 5 6 
#
# 1 0.011098 -0.001982 -0.003030 0.000000 0.000000 0.000000
# 2 -0.001982 0.011098 -0.003030 0.000000 0.000000 0.000000
# 3 -0.003030 -0.003030 0.011097 0.000000 0.000000 0.000000
# 4 0.000000 0.000000 0.000000 0.031611 0.000000 0.000000
# 5 0.000000 0.000000 0.000000 0.000000 0.031611 0.000000
# 6 0.000000 0.000000 0.000000 0.000000 0.000000 0.054304
#
#
# Mechanical properties :
#
#
# Convention : Reuss Voigt Hill
#
# Bulk Modulus (GPa) = 58.11276 58.28414 58.19845
# Shear Modulus (GPa) = 28.96216 30.91010 29.93613
#
# Velocity S-wave (km/s) = 4.06847 4.20306 4.13631
# Velocity P-wave (km/s) = 7.43521 7.54087 7.48823
#
# Compressibility (1/GPa) = 0.01720793
#
# Stress axis : x y z
#
# Youngs Moduli (GPa) = 90.10921 90.10845 90.11476
#
# Poissons Ratio (x) = 0.17863 0.27303
# Poissons Ratio (y) = 0.17863 0.27304
# Poissons Ratio (z) = 0.27302 0.27302
#
# Static dielectric constant tensor:
#      x y z
#    x 1.618170 0.000000 0.000000 
#    y 0.000000 1.618170 0.000000 
#    z 0.000000 0.000000 1.725210 
# 
# From -- ./inp_files/3486.got.cif
#   From: 2010.05.17/outbox.cif.g08.bks.cpg/sg91_2_cif.got.tgz:3486.got - 2010.06.03 19:20:03.
