data_PCOD9547701
_publ_section_title
;
Structure prediction by ZEFSAII (Michael W. Deem and Ramdas Pophale) SiO2 
 PCOD9547701
Probable space group: P 41 2 2
;
_chemical_formula_sum "Si O2"
_cell_formula_units_Z 44
_cell_length_a 19.510553
_cell_length_b 19.510553
_cell_length_c 8.047445
_cell_angle_alpha 90.000000
_cell_angle_beta 90.000000
_cell_angle_gamma 90.000000
_cell_volume 3063.353920
_symmetry_space_group_name_H-M "P 41 2 2"
_symmetry_group_IT_number 91
_symmetry_cell_setting 'tetragonal'
loop_
_space_group_symop_operation_xyz
x,y,z
-y,x,1/4+z
-x,-y,1/2+z
y,-x,3/4+z
x,-y,1/2-z
-x,y,-z
y,x,3/4-z
-y,-x,1/4-z
loop_
_atom_site_type_symbol
_atom_site_label
_atom_site_fract_x
_atom_site_fract_y
_atom_site_fract_z
Si Si1 0.577144 0.081176 0.557938
Si Si2 0.371343 0.074211 0.099818
Si Si3 0.218171 0.076032 0.239063
Si Si4 0.812926 0.885866 0.110556
Si Si5 0.089841 0.000000 0.750000
Si Si6 0.084118 0.327441 0.001922
O O1 0.500000 0.091982 0.500000
O O2 0.592156 0.109407 0.742845
O O3 0.628930 0.104338 0.413743
O O4 0.592595 0.999511 0.574395
O O5 0.292571 0.065404 0.158940
O O6 0.365866 0.105589 0.916748
O O7 0.219267 0.103667 0.427385
O O8 0.176610 0.133631 0.139228
O O9 0.185049 0.000000 0.250000
O O10 0.860492 0.950592 0.147805
O O11 0.748827 0.885788 0.234278
O O12 0.043500 0.043500 0.875000
O O13 0.000000 0.321355 0.000000
#
# Coordination Sequence:
#
# PCOD9547701 Si02
#       6
#     8   8   8   8   4   8
#     4  10  20  31  48  70  92 112 135 172 232 294
#     4  10  20  31  49  66  92 110 138 178 226 282
#     4  11  20  36  50  63  85 118 150 196 247 291
#     4  11  23  34  51  61  82 117 154 193 245 290
#     4  12  28  36  42  60  80 106 150 204 250 292
#     4  10  19  33  47  67  89 111 145 182 226 284
#
# _framework density 14.363341
#
# number of rings (size 3 to 8) (size 9 to 14) (size 15 to 20)
#    0.000    1.455    4.545    2.182   14.000    0.000 
#    0.000    0.000    0.000    0.000    0.000    0.000 
#    0.000    0.000    0.000    0.000    0.000    0.000 
#
# Total GULP energy -245304.076795 kJ/mol
# GULP energy per Si atom -5575.092654 kJ/mol
# Density = 1.433065 g / cm^3
# Si number density = 14.363341 Si / 1000 Ang^3
#
#
#
# Elastic Constant Matrix: (Units=GPa)
#
#
# Indices 1 2 3 4 5 6 
#
# 1 55.7760 17.0448 22.5776 0.0000 0.0000 0.0000
# 2 17.0448 55.7760 22.5776 0.0000 0.0000 0.0000
# 3 22.5776 22.5776 102.6811 0.0000 0.0000 0.0000
# 4 0.0000 0.0000 0.0000 15.2367 0.0000 0.0000
# 5 0.0000 0.0000 0.0000 0.0000 15.2367 0.0000
# 6 0.0000 0.0000 0.0000 0.0000 0.0000 12.7197
#
#
#
# Elastic Compliance Matrix: (Units=1/GPa)
#
#
# Indices 1 2 3 4 5 6 
#
# 1 0.020860 -0.004959 -0.003496 0.000000 0.000000 0.000000
# 2 -0.004959 0.020860 -0.003496 0.000000 0.000000 0.000000
# 3 -0.003496 -0.003496 0.011276 0.000000 0.000000 0.000000
# 4 0.000000 0.000000 0.000000 0.065631 0.000000 0.000000
# 5 0.000000 0.000000 0.000000 0.000000 0.065631 0.000000
# 6 0.000000 0.000000 0.000000 0.000000 0.000000 0.078618
#
#
# Mechanical properties :
#
#
# Convention : Reuss Voigt Hill
#
# Bulk Modulus (GPa) = 34.37340 37.62588 35.99964
# Shear Modulus (GPa) = 16.86470 18.77414 17.81942
#
# Velocity S-wave (km/s) = 3.43030 3.61929 3.52606
# Velocity P-wave (km/s) = 6.29862 6.61198 6.45720
#
# Compressibility (1/GPa) = 0.02909226
#
# Stress axis : x y z
#
# Youngs Moduli (GPa) = 47.93955 47.93955 88.68106
#
# Poissons Ratio (x) = 0.23775 0.31004
# Poissons Ratio (y) = 0.23775 0.31004
# Poissons Ratio (z) = 0.16760 0.16760
#
# Static dielectric constant tensor:
#      x y z
#    x 1.460660 0.000000 0.000000 
#    y 0.000000 1.460660 0.000000 
#    z 0.000000 0.000000 1.558500 
# 
# From -- ./inp_files/19563.got.cif
#   From: 2010.05.17/outbox.cif.g08.bks.cpg/sg91_10_cif.got.tgz:19563.got - 2010.06.03 19:20:03.
