data_PCOD9547744
_publ_section_title
;
Structure prediction by ZEFSAII (Michael W. Deem and Ramdas Pophale) SiO2 
 PCOD9547744
Probable space group: P 41 2 2
;
_chemical_formula_sum "Si O2"
_cell_formula_units_Z 40
_cell_length_a 11.198369
_cell_length_b 11.198369
_cell_length_c 14.642250
_cell_angle_alpha 90.000000
_cell_angle_beta 90.000000
_cell_angle_gamma 90.000000
_cell_volume 1836.188933
_symmetry_space_group_name_H-M "P 41 2 2"
_symmetry_group_IT_number 91
_symmetry_cell_setting 'tetragonal'
loop_
_space_group_symop_operation_xyz
x,y,z
-y,x,1/4+z
-x,-y,1/2+z
y,-x,3/4+z
x,-y,1/2-z
-x,y,-z
y,x,3/4-z
-y,-x,1/4-z
loop_
_atom_site_type_symbol
_atom_site_label
_atom_site_fract_x
_atom_site_fract_y
_atom_site_fract_z
Si Si1 0.762771 0.622806 0.297228
Si Si2 0.413259 0.241920 0.431433
Si Si3 0.886276 0.182958 0.728725
Si Si4 0.249759 0.886512 0.402926
Si Si5 0.490508 0.994876 0.644540
O O1 0.720063 0.500000 0.250000
O O2 0.679256 0.679256 0.375000
O O3 0.772823 0.715227 0.212668
O O4 0.897700 0.590079 0.337971
O O5 0.500000 0.308253 0.500000
O O6 0.337266 0.337266 0.375000
O O7 0.314250 0.168674 0.487606
O O8 0.487170 0.133877 0.383707
O O9 0.852368 0.147633 0.625000
O O10 0.831489 0.116767 0.813906
O O11 0.027052 0.187587 0.725853
O O12 0.375915 0.939974 0.367566
O O13 0.453443 0.000000 0.750000
#
# Coordination Sequence:
#
# PCOD9547744 Si02
#       5
#     8   8   8   8   8
#     4  10  23  42  66  94 128 172 220 275 340 405
#     4  10  20  35  61  95 125 163 216 269 325 391
#     4  10  19  35  61  90 126 170 216 270 334 400
#     4  10  20  37  61  93 128 166 217 274 335 401
#     4  10  19  37  67  96 126 169 217 270 335 401
#
# _framework density 21.784251000000001
#
# number of rings (size 3 to 8) (size 9 to 14) (size 15 to 20)
#    0.000    2.000    0.000    7.200    0.000    3.200 
#    0.000    3.000    0.000   43.200    0.000    0.000 
#    0.000    0.000    0.000    0.000    0.000    0.000 
#
# Total GULP energy -222763.680584 kJ/mol
# GULP energy per Si atom -5569.092015 kJ/mol
# Density = 2.173467 g / cm^3
# Si number density = 21.784251 Si / 1000 Ang^3
#
#
#
# Elastic Constant Matrix: (Units=GPa)
#
#
# Indices 1 2 3 4 5 6 
#
# 1 70.2908 52.9508 59.9443 0.0000 0.0000 0.0000
# 2 52.9508 70.2905 59.9442 0.0000 0.0000 0.0000
# 3 59.9443 59.9442 134.0512 0.0000 0.0000 0.0000
# 4 0.0000 0.0000 0.0000 29.0334 0.0000 0.0000
# 5 0.0000 0.0000 0.0000 0.0000 29.0335 0.0000
# 6 0.0000 0.0000 0.0000 0.0000 0.0000 13.4822
#
#
#
# Elastic Compliance Matrix: (Units=1/GPa)
#
#
# Indices 1 2 3 4 5 6 
#
# 1 0.036016 -0.021655 -0.006422 0.000000 0.000000 0.000000
# 2 -0.021655 0.036016 -0.006422 0.000000 0.000000 0.000000
# 3 -0.006422 -0.006422 0.013203 0.000000 0.000000 0.000000
# 4 0.000000 0.000000 0.000000 0.034443 0.000000 0.000000
# 5 0.000000 0.000000 0.000000 0.000000 0.034443 0.000000
# 6 0.000000 0.000000 0.000000 0.000000 0.000000 0.074172
#
#
# Mechanical properties :
#
#
# Convention : Reuss Voigt Hill
#
# Bulk Modulus (GPa) = 61.58364 68.92346 65.25355
# Shear Modulus (GPa) = 16.51780 21.09604 18.80692
#
# Velocity S-wave (km/s) = 2.75661 3.11530 2.94143
# Velocity P-wave (km/s) = 6.20186 6.68191 6.44636
#
# Compressibility (1/GPa) = 0.01623808
#
# Stress axis : x y z
#
# Youngs Moduli (GPa) = 27.76545 27.76524 75.73778
#
# Poissons Ratio (x) = 0.60124 0.48639
# Poissons Ratio (y) = 0.60125 0.48640
# Poissons Ratio (z) = 0.17831 0.17831
#
# Static dielectric constant tensor:
#      x y z
#    x 1.860100 0.000000 0.000000 
#    y 0.000000 1.860090 0.000000 
#    z 0.000000 0.000000 1.841440 
# 
# From -- ./inp_files/11326.got.cif
#   From: 2010.05.17/outbox.cif.g08.bks.cpg/sg91_6_cif.got.tgz:11326.got - 2010.06.03 19:20:03.
