data_PCOD9547191
_publ_section_title
;
Structure prediction by ZEFSAII (Michael W. Deem and Ramdas Pophale) SiO2 
 PCOD9547191
Probable space group: P 4 21 2
;
_chemical_formula_sum "Si O2"
_cell_formula_units_Z 50
_cell_length_a 11.032897
_cell_length_b 11.032897
_cell_length_c 20.949456
_cell_angle_alpha 90.000000
_cell_angle_beta 90.000000
_cell_angle_gamma 90.000000
_cell_volume 2550.068681
_symmetry_space_group_name_H-M "P 4 21 2"
_symmetry_group_IT_number 90
_symmetry_cell_setting 'tetragonal'
loop_
_space_group_symop_operation_xyz
x,y,z
1/2-y,1/2+x,z
-x,-y,z
1/2+y,1/2-x,z
1/2+x,1/2-y,-z
1/2-x,1/2+y,-z
y,x,-z
-y,-x,-z
loop_
_atom_site_type_symbol
_atom_site_label
_atom_site_fract_x
_atom_site_fract_y
_atom_site_fract_z
Si Si1 0.308377 0.951364 0.514413
Si Si2 0.000000 0.500000 0.040102
Si Si3 0.804838 0.297540 0.064865
Si Si4 0.979855 0.703934 0.264563
Si Si5 0.313366 0.937312 0.360605
Si Si6 0.943462 0.131797 0.373240
Si Si7 0.145365 0.014014 0.863808
O O1 0.414799 0.857328 0.530835
O O2 0.299346 0.944511 0.437912
O O3 0.193845 0.927780 0.558085
O O4 0.881665 0.413560 0.044899
O O5 0.691884 0.361854 0.101555
O O6 0.893488 0.209594 0.105834
O O7 0.766635 0.233366 0.000000
O O8 0.104445 0.626421 0.260473
O O9 0.977852 0.777723 0.330364
O O10 0.975677 0.798957 0.207071
O O11 0.426108 0.851687 0.342633
O O12 0.185444 0.887512 0.338192
O O13 0.000000 0.000000 0.380566
O O14 0.000000 0.000000 0.865390
#
# Coordination Sequence:
#
# PCOD9547191 Si02
#       7
#     8   2   8   8   8   8   8
#     4   9  19  38  60  85 119 155 199 254 315 372
#     4   8  20  36  60  84 136 172 216 248 300 358
#     4  10  22  38  63  98 133 174 211 258 311 384
#     4  11  24  45  69  88 117 164 213 262 316 366
#     4   9  21  40  59  82 120 166 195 241 321 389
#     4  12  25  36  59  93 118 151 207 262 309 363
#     4  11  23  41  66  96 133 169 212 263 320 370
#
# _framework density 19.607313999999999
#
# number of rings (size 3 to 8) (size 9 to 14) (size 15 to 20)
#    0.000    1.760    1.600    2.880    8.960    2.560 
#    0.000    0.000    0.000    0.000    0.000    0.000 
#    0.000    0.000    0.000    0.000    0.000    0.000 
#
# Total GULP energy -278516.381048 kJ/mol
# GULP energy per Si atom -5570.327621 kJ/mol
# Density = 1.956269 g / cm^3
# Si number density = 19.607314 Si / 1000 Ang^3
#
#
#
# Elastic Constant Matrix: (Units=GPa)
#
#
# Indices 1 2 3 4 5 6 
#
# 1 86.0227 4.0797 -1.8518 0.0000 0.0000 0.0000
# 2 4.0797 86.0240 -1.8516 0.0000 0.0000 0.0000
# 3 -1.8518 -1.8516 47.6877 0.0000 0.0000 0.0000
# 4 0.0000 0.0000 0.0000 64.7197 0.0000 0.0000
# 5 0.0000 0.0000 0.0000 0.0000 64.7353 0.0000
# 6 0.0000 0.0000 0.0000 0.0000 0.0000 134.1631
#
#
#
# Elastic Compliance Matrix: (Units=1/GPa)
#
#
# Indices 1 2 3 4 5 6 
#
# 1 0.011660 -0.000544 0.000432 0.000000 0.000000 0.000000
# 2 -0.000544 0.011660 0.000432 0.000000 0.000000 0.000000
# 3 0.000432 0.000432 0.021003 0.000000 0.000000 0.000000
# 4 0.000000 0.000000 0.000000 0.015451 0.000000 0.000000
# 5 0.000000 0.000000 0.000000 0.000000 0.015448 0.000000
# 6 0.000000 0.000000 0.000000 0.000000 0.000000 0.007454
#
#
# Mechanical properties :
#
#
# Convention : Reuss Voigt Hill
#
# Bulk Modulus (GPa) = 22.24093 24.49855 23.36974
# Shear Modulus (GPa) = 51.53391 67.34749 59.44070
#
# Velocity S-wave (km/s) = 5.13226 5.86709 5.51193
# Velocity P-wave (km/s) = 6.81820 7.64321 7.24246
#
# Compressibility (1/GPa) = 0.04496214
#
# Stress axis : x y z
#
# Youngs Moduli (GPa) = 85.76395 85.76518 47.61161
#
# Poissons Ratio (x) = 0.04663 -0.02055
# Poissons Ratio (y) = 0.04663 -0.02055
# Poissons Ratio (z) = -0.03702 -0.03702
#
# Static dielectric constant tensor:
#      x y z
#    x 1.677450 0.000000 0.000000 
#    y 0.000000 1.677450 0.000000 
#    z 0.000000 0.000000 1.706220 
# 
# From -- ./inp_files/2807.got.cif
#   From: 2010.05.17/outbox.cif.g08.bks.cpg/sg90_2_cif.got.tgz:2807.got - 2010.06.03 19:17:45.
