data_PCOD9547969
_publ_section_title
;
Structure prediction by ZEFSAII (Michael W. Deem and Ramdas Pophale) SiO2 
 PCOD9547969
Probable space group: P 41 2 2
;
_chemical_formula_sum "Si O2"
_cell_formula_units_Z 40
_cell_length_a 11.099972
_cell_length_b 11.099972
_cell_length_c 15.100409
_cell_angle_alpha 90.000000
_cell_angle_beta 90.000000
_cell_angle_gamma 90.000000
_cell_volume 1860.512006
_symmetry_space_group_name_H-M "P 41 2 2"
_symmetry_group_IT_number 91
_symmetry_cell_setting 'tetragonal'
loop_
_space_group_symop_operation_xyz
x,y,z
-y,x,1/4+z
-x,-y,1/2+z
y,-x,3/4+z
x,-y,1/2-z
-x,y,-z
y,x,3/4-z
-y,-x,1/4-z
loop_
_atom_site_type_symbol
_atom_site_label
_atom_site_fract_x
_atom_site_fract_y
_atom_site_fract_z
Si Si1 0.259128 0.110817 0.526297
Si Si2 0.251904 0.957362 0.353192
Si Si3 0.364968 0.639690 0.021129
Si Si4 0.076401 0.260471 0.912438
Si Si5 0.871366 0.490229 0.447372
O O1 0.147008 0.154183 0.588044
O O2 0.344241 0.225506 0.515642
O O3 0.224523 0.054139 0.430159
O O4 0.315019 0.007543 0.585610
O O5 0.385457 0.904851 0.373303
O O6 0.260835 0.000000 0.250000
O O7 0.353668 0.646333 0.125000
O O8 0.500000 0.595443 0.000000
O O9 0.247368 0.565552 0.991991
O O10 0.145949 0.145949 0.875000
O O11 0.163849 0.372299 0.929970
O O12 0.000000 0.230604 0.000000
O O13 0.000000 0.504071 0.500000
#
# Coordination Sequence:
#
# PCOD9547969 Si02
#       5
#     8   8   8   8   8
#     4  11  23  39  66 102 138 185 234 285 356 423
#     4  10  20  38  64  98 135 179 229 291 345 418
#     4  11  25  43  74 108 140 183 241 303 362 432
#     4  11  25  43  67  97 140 186 235 287 357 428
#     4   9  21  42  69  96 142 181 228 291 350 432
#
# _framework density 21.499459000000002
#
# number of rings (size 3 to 8) (size 9 to 14) (size 15 to 20)
#    0.000    1.600    0.000    5.400    8.400    3.200 
#    0.000    1.000    0.000    0.000    0.000    0.000 
#    0.000    0.000    0.000    0.000    0.000    0.000 
#
# Total GULP energy -222734.271081 kJ/mol
# GULP energy per Si atom -5568.356777 kJ/mol
# Density = 2.145053 g / cm^3
# Si number density = 21.499459 Si / 1000 Ang^3
#
#
#
# Elastic Constant Matrix: (Units=GPa)
#
#
# Indices 1 2 3 4 5 6 
#
# 1 84.6432 51.6750 35.3697 0.0000 0.0000 0.0000
# 2 51.6750 84.6429 35.3693 0.0000 0.0000 0.0000
# 3 35.3697 35.3693 94.2865 0.0000 0.0000 0.0000
# 4 0.0000 0.0000 0.0000 -16.2307 0.0000 0.0000
# 5 0.0000 0.0000 0.0000 0.0000 -16.2312 0.0000
# 6 0.0000 0.0000 0.0000 0.0000 0.0000 10.3373
#
#
#
# Elastic Compliance Matrix: (Units=1/GPa)
#
#
# Indices 1 2 3 4 5 6 
#
# 1 0.019721 -0.010612 -0.003417 0.000000 0.000000 0.000000
# 2 -0.010612 0.019721 -0.003417 0.000000 0.000000 0.000000
# 3 -0.003417 -0.003417 0.013170 0.000000 0.000000 0.000000
# 4 0.000000 0.000000 0.000000 -0.061612 0.000000 0.000000
# 5 0.000000 0.000000 0.000000 0.000000 -0.061610 0.000000
# 6 0.000000 0.000000 0.000000 0.000000 0.000000 0.096737
#
#
# Mechanical properties :
#
#
# Convention : Reuss Voigt Hill
#
# Bulk Modulus (GPa) = 56.43517 56.48894 56.46205
# Shear Modulus (GPa) = 74.71057 4.98565 39.84811
#
# Velocity S-wave (km/s) = 5.90131 1.52447 4.30984
# Velocity P-wave (km/s) = 8.52880 5.42497 7.14740
#
# Compressibility (1/GPa) = 0.01771945
#
# Stress axis : x y z
#
# Youngs Moduli (GPa) = 50.70820 50.70819 75.93234
#
# Poissons Ratio (x) = 0.53810 0.25947
# Poissons Ratio (y) = 0.53810 0.25946
# Poissons Ratio (z) = 0.17327 0.17327
#
# Static dielectric constant tensor:
#      x y z
#    x 1.803630 0.000000 0.000000 
#    y 0.000000 1.803630 0.000000 
#    z 0.000000 0.000000 1.837410 
# 
# From -- ./inp_files/4743.got.cif
#   From: 2010.05.17/outbox.cif.g08.bks.cpg/sg91_3_cif.got.tgz:4743.got - 2010.06.03 19:20:03.
