data_PCOD9547996
_publ_section_title
;
Structure prediction by ZEFSAII (Michael W. Deem and Ramdas Pophale) SiO2 
 PCOD9547996
Probable space group: P 41 2 2
;
_chemical_formula_sum "Si O2"
_cell_formula_units_Z 40
_cell_length_a 12.262915
_cell_length_b 12.262915
_cell_length_c 13.778902
_cell_angle_alpha 90.000000
_cell_angle_beta 90.000000
_cell_angle_gamma 90.000000
_cell_volume 2072.058665
_symmetry_space_group_name_H-M "P 41 2 2"
_symmetry_group_IT_number 91
_symmetry_cell_setting 'tetragonal'
loop_
_space_group_symop_operation_xyz
x,y,z
-y,x,1/4+z
-x,-y,1/2+z
y,-x,3/4+z
x,-y,1/2-z
-x,y,-z
y,x,3/4-z
-y,-x,1/4-z
loop_
_atom_site_type_symbol
_atom_site_label
_atom_site_fract_x
_atom_site_fract_y
_atom_site_fract_z
Si Si1 0.299895 0.269698 0.071930
Si Si2 0.869012 0.602556 0.015938
Si Si3 0.484783 0.698840 0.113428
Si Si4 0.892261 0.576825 0.325286
Si Si5 0.094059 0.768803 0.552738
O O1 0.306718 0.194550 0.168996
O O2 0.330365 0.394470 0.095085
O O3 0.372209 0.206801 0.988931
O O4 0.180630 0.273709 0.024893
O O5 0.854327 0.499433 0.087679
O O6 0.800386 0.570679 0.920684
O O7 0.000000 0.620226 0.000000
O O8 0.403746 0.596255 0.125000
O O9 0.500000 0.723962 0.000000
O O10 0.955914 0.500000 0.250000
O O11 0.954010 0.672138 0.380839
O O12 0.156537 0.843464 0.625000
O O13 0.000000 0.831581 0.500000
#
# Coordination Sequence:
#
# PCOD9547996 Si02
#       5
#     8   8   8   8   8
#     4  10  22  41  60  92 128 162 212 252 320 379
#     4  11  23  42  62  91 126 163 214 261 310 373
#     4  12  25  41  61  93 134 175 203 253 323 391
#     4   9  19  35  61  92 116 152 204 257 307 360
#     4  10  20  39  65  92 125 162 212 269 313 377
#
# _framework density 19.304473000000002
#
# number of rings (size 3 to 8) (size 9 to 14) (size 15 to 20)
#    0.000    1.600    4.000    0.600    0.000    4.800 
#    3.600    1.000    0.000    0.000    0.000    0.000 
#    0.000    0.000    0.000    0.000    0.000    0.000 
#
# Total GULP energy -222683.625573 kJ/mol
# GULP energy per Si atom -5567.090639 kJ/mol
# Density = 1.926054 g / cm^3
# Si number density = 19.304473 Si / 1000 Ang^3
#
#
#
# Elastic Constant Matrix: (Units=GPa)
#
#
# Indices 1 2 3 4 5 6 
#
# 1 89.1255 42.7392 49.9296 0.0000 0.0000 0.0000
# 2 42.7392 89.1258 49.9312 0.0000 0.0000 0.0000
# 3 49.9296 49.9312 139.3224 0.0000 0.0000 0.0000
# 4 0.0000 0.0000 0.0000 -5.1217 0.0000 0.0000
# 5 0.0000 0.0000 0.0000 0.0000 -5.1217 0.0000
# 6 0.0000 0.0000 0.0000 0.0000 0.0000 -190.4347
#
#
#
# Elastic Compliance Matrix: (Units=1/GPa)
#
#
# Indices 1 2 3 4 5 6 
#
# 1 0.015983 -0.005575 -0.003730 0.000000 0.000000 0.000000
# 2 -0.005575 0.015983 -0.003730 0.000000 0.000000 0.000000
# 3 -0.003730 -0.003730 0.009851 0.000000 0.000000 0.000000
# 4 0.000000 0.000000 0.000000 -0.195248 0.000000 0.000000
# 5 0.000000 0.000000 0.000000 0.000000 -0.195246 0.000000
# 6 0.000000 0.000000 0.000000 0.000000 0.000000 -0.005251
#
#
# Mechanical properties :
#
#
# Convention : Reuss Voigt Hill
#
# Bulk Modulus (GPa) = 63.50283 66.97485 65.23884
# Shear Modulus (GPa) = -15.49871 -28.47071 -21.98471
#
# Velocity S-wave (km/s) = -2.83654 -3.84451 -3.37833
# Velocity P-wave (km/s) = 4.71581 3.88101 4.31863
#
# Compressibility (1/GPa) = 0.01574733
#
# Stress axis : x y z
#
# Youngs Moduli (GPa) = 62.56611 62.56544 101.51032
#
# Poissons Ratio (x) = 0.34879 0.37863
# Poissons Ratio (y) = 0.34880 0.37866
# Poissons Ratio (z) = 0.23337 0.23339
#
# Static dielectric constant tensor:
#      x y z
#    x 1.687990 0.000000 0.000000 
#    y 0.000000 1.687990 0.000000 
#    z 0.000000 0.000000 1.713840 
# 
# From -- ./inp_files/16399.got.cif
#   From: 2010.05.17/outbox.cif.g08.bks.cpg/sg91_9_cif.got.tgz:16399.got - 2010.06.03 19:20:03.
