data_PCOD9547958
_publ_section_title
;
Structure prediction by ZEFSAII (Michael W. Deem and Ramdas Pophale) SiO2 
 PCOD9547958
Probable space group: P 41 2 2
;
_chemical_formula_sum "Si O2"
_cell_formula_units_Z 52
_cell_length_a 21.211563
_cell_length_b 21.211563
_cell_length_c 5.440232
_cell_angle_alpha 90.000000
_cell_angle_beta 90.000000
_cell_angle_gamma 90.000000
_cell_volume 2447.725787
_symmetry_space_group_name_H-M "P 41 2 2"
_symmetry_group_IT_number 91
_symmetry_cell_setting 'tetragonal'
loop_
_space_group_symop_operation_xyz
x,y,z
-y,x,1/4+z
-x,-y,1/2+z
y,-x,3/4+z
x,-y,1/2-z
-x,y,-z
y,x,3/4-z
-y,-x,1/4-z
loop_
_atom_site_type_symbol
_atom_site_label
_atom_site_fract_x
_atom_site_fract_y
_atom_site_fract_z
Si Si1 0.356651 0.065839 0.835401
Si Si2 0.611369 0.388632 0.625000
Si Si3 0.426628 0.816493 0.453813
Si Si4 0.063019 0.228910 0.634802
Si Si5 0.619061 0.749729 0.047038
Si Si6 0.156595 0.277572 0.235406
Si Si7 0.841663 0.158338 0.125000
Si Si8 0.594856 0.500000 0.250000
O O1 0.393679 0.114694 0.011955
O O2 0.332520 0.109548 0.611929
O O3 0.388202 0.000000 0.750000
O O4 0.290883 0.046352 0.960337
O O5 0.674379 0.385621 0.790769
O O6 0.621271 0.454326 0.469772
O O7 0.500000 0.825437 0.500000
O O8 0.415820 0.782227 0.190179
O O9 0.402215 0.774204 0.684032
O O10 0.123317 0.251501 0.476300
O O11 0.089896 0.167982 0.765388
O O12 0.000000 0.212261 0.500000
O O13 0.689214 0.776348 0.004537
O O14 0.161366 0.219064 0.052159
O O15 0.550902 0.550902 0.375000
#
# Coordination Sequence:
#
# PCOD9547958 Si02
#       8
#     8   4   8   8   8   8   4   4
#     4  10  20  38  63  97 130 183 234 284 342 416
#     4  12  30  46  82 107 136 186 239 302 388 448
#     4  11  25  46  68  99 144 190 236 293 352 430
#     4  11  20  37  63  92 138 181 227 288 351 420
#     4  11  27  45  71 104 142 183 234 290 369 441
#     4  10  21  40  62  96 143 177 216 290 348 417
#     4  10  24  34  62  97 140 174 233 282 354 418
#     4  12  26  54  74 100 132 170 232 306 360 450
#
# _framework density 21.244209000000001
#
# number of rings (size 3 to 8) (size 9 to 14) (size 15 to 20)
#    0.000    1.231    3.846    0.923    5.385    1.231 
#    0.000    3.846    0.000    0.000    0.000    0.000 
#   32.308    0.000    0.000    0.000    0.000    0.000 
#
# Total GULP energy -289825.300535 kJ/mol
# GULP energy per Si atom -5573.563472 kJ/mol
# Density = 2.119586 g / cm^3
# Si number density = 21.244209 Si / 1000 Ang^3
#
#
#
# Elastic Constant Matrix: (Units=GPa)
#
#
# Indices 1 2 3 4 5 6 
#
# 1 82.1455 43.7801 15.3419 0.0000 0.0000 0.0000
# 2 43.7801 82.1478 15.3415 0.0000 0.0000 0.0000
# 3 15.3419 15.3415 65.0524 0.0000 0.0000 0.0000
# 4 0.0000 0.0000 0.0000 25.3705 0.0000 0.0000
# 5 0.0000 0.0000 0.0000 0.0000 25.3672 0.0000
# 6 0.0000 0.0000 0.0000 0.0000 0.0000 37.4812
#
#
#
# Elastic Compliance Matrix: (Units=1/GPa)
#
#
# Indices 1 2 3 4 5 6 
#
# 1 0.017245 -0.008820 -0.001987 0.000000 0.000000 0.000000
# 2 -0.008820 0.017245 -0.001987 0.000000 0.000000 0.000000
# 3 -0.001987 -0.001987 0.016309 0.000000 0.000000 0.000000
# 4 0.000000 0.000000 0.000000 0.039416 0.000000 0.000000
# 5 0.000000 0.000000 0.000000 0.000000 0.039421 0.000000
# 6 0.000000 0.000000 0.000000 0.000000 0.000000 0.026680
#
#
# Mechanical properties :
#
#
# Convention : Reuss Voigt Hill
#
# Bulk Modulus (GPa) = 39.66359 42.03030 40.84695
# Shear Modulus (GPa) = 26.27331 27.96924 27.12127
#
# Velocity S-wave (km/s) = 3.52053 3.63238 3.57689
# Velocity P-wave (km/s) = 5.93602 6.11715 6.02727
#
# Compressibility (1/GPa) = 0.02521204
#
# Stress axis : x y z
#
# Youngs Moduli (GPa) = 57.98748 57.98928 61.31421
#
# Poissons Ratio (x) = 0.51144 0.12184
# Poissons Ratio (y) = 0.51142 0.12182
# Poissons Ratio (z) = 0.11523 0.11522
#
# Static dielectric constant tensor:
#      x y z
#    x 1.731620 0.000000 0.000000 
#    y 0.000000 1.731610 0.000000 
#    z 0.000000 0.000000 2.096920 
# 
# From -- ./inp_files/14486.got.cif
#   From: 2010.05.17/outbox.cif.g08.bks.cpg/sg91_8_cif.got.tgz:14486.got - 2010.06.03 19:20:03.
