data_PCOD9547340
_publ_section_title
;
Structure prediction by ZEFSAII (Michael W. Deem and Ramdas Pophale) SiO2 
 PCOD9547340
Probable space group: P 4 21 2
;
_chemical_formula_sum "Si O2"
_cell_formula_units_Z 48
_cell_length_a 8.976370
_cell_length_b 8.976370
_cell_length_c 25.950853
_cell_angle_alpha 90.000000
_cell_angle_beta 90.000000
_cell_angle_gamma 90.000000
_cell_volume 2090.995648
_symmetry_space_group_name_H-M "P 4 21 2"
_symmetry_group_IT_number 90
_symmetry_cell_setting 'tetragonal'
loop_
_space_group_symop_operation_xyz
x,y,z
1/2-y,1/2+x,z
-x,-y,z
1/2+y,1/2-x,z
1/2+x,1/2-y,-z
1/2-x,1/2+y,-z
y,x,-z
-y,-x,-z
loop_
_atom_site_type_symbol
_atom_site_label
_atom_site_fract_x
_atom_site_fract_y
_atom_site_fract_z
Si Si1 0.270844 0.964597 0.625125
Si Si2 0.728440 0.071844 0.343565
Si Si3 0.400447 0.220627 0.219978
Si Si4 0.224312 0.381191 0.951845
Si Si5 0.961526 0.729176 0.496025
Si Si6 0.891543 0.273063 0.141527
O O1 0.383676 0.837679 0.646955
O O2 0.115912 0.887468 0.635058
O O3 0.283902 0.999082 0.564536
O O4 0.592273 0.178412 0.359863
O O5 0.732729 0.087487 0.281615
O O6 0.571179 0.190010 0.203913
O O7 0.314235 0.356136 0.194320
O O8 0.194502 0.559196 0.952617
O O9 0.319157 0.330852 0.902276
O O10 0.318487 0.318487 0.000000
O O11 0.835277 0.615638 0.518122
O O12 0.889777 0.889777 0.500000
O O13 0.808998 0.433413 0.137470
#
# Coordination Sequence:
#
# PCOD9547340 Si02
#       6
#     8   8   8   8   8   8
#     4   9  19  37  57  84 120 153 190 238 290 346
#     4   9  19  37  61  91 123 156 199 247 295 356
#     4   9  19  37  60  86 119 157 199 249 302 359
#     4  11  24  41  62  88 118 156 206 262 318 378
#     4   9  19  39  62  88 120 153 193 240 289 344
#     4  11  24  39  56  85 123 161 205 256 310 371
#
# _framework density 22.955573000000001
#
# number of rings (size 3 to 8) (size 9 to 14) (size 15 to 20)
#    0.000    2.333    0.000    4.000    0.000    9.333 
#    0.000   21.667    0.000    8.000    0.000    0.000 
#    0.000    0.000    0.000    0.000    0.000    0.000 
#
# Total GULP energy -267824.477063 kJ/mol
# GULP energy per Si atom -5579.676605 kJ/mol
# Density = 2.290333 g / cm^3
# Si number density = 22.955573 Si / 1000 Ang^3
#
#
#
# Elastic Constant Matrix: (Units=GPa)
#
#
# Indices 1 2 3 4 5 6 
#
# 1 48.3034 92.1832 18.2604 0.0000 0.0000 0.0000
# 2 92.1832 48.3034 18.2604 0.0000 0.0000 0.0000
# 3 18.2604 18.2604 35.0939 0.0000 0.0000 0.0000
# 4 0.0000 0.0000 0.0000 -63.3725 0.0000 0.0000
# 5 0.0000 0.0000 0.0000 0.0000 -63.3725 0.0000
# 6 0.0000 0.0000 0.0000 0.0000 0.0000 65.0666
#
#
#
# Elastic Compliance Matrix: (Units=1/GPa)
#
#
# Indices 1 2 3 4 5 6 
#
# 1 -0.007279 0.015511 -0.004283 0.000000 0.000000 0.000000
# 2 0.015511 -0.007279 -0.004283 0.000000 0.000000 0.000000
# 3 -0.004283 -0.004283 0.032952 0.000000 0.000000 0.000000
# 4 0.000000 0.000000 0.000000 -0.015780 0.000000 0.000000
# 5 0.000000 0.000000 0.000000 0.000000 -0.015780 0.000000
# 6 0.000000 0.000000 0.000000 0.000000 0.000000 0.015369
#
#
# Mechanical properties :
#
#
# Convention : Reuss Voigt Hill
#
# Bulk Modulus (GPa) = 30.97619 43.23430 37.10525
# Shear Modulus (GPa) = -5410.99667 -12.13589 -2711.56628
#
# Velocity S-wave (km/s) = -48.60327 -2.30177 -34.40622
# Velocity P-wave (km/s) = 56.00161 3.43665 39.52448
#
# Compressibility (1/GPa) = 0.03228286
#
# Stress axis : x y z
#
# Youngs Moduli (GPa) = -137.38150 -137.38150 30.34697
#
# Poissons Ratio (x) = 2.13086 0.12998
# Poissons Ratio (y) = 2.13086 0.12998
# Poissons Ratio (z) = -0.58842 -0.58842
#
# Static dielectric constant tensor:
#      x y z
#    x 1.901990 0.000000 0.000000 
#    y 0.000000 1.901990 0.000000 
#    z 0.000000 0.000000 1.873650 
# 
# From -- ./inp_files/3044.got.cif
#   From: 2010.05.17/outbox.cif.g08.bks.cpg/sg90_2_cif.got.tgz:3044.got - 2010.06.03 19:17:45.
