data_PCOD9547092
_publ_section_title
;
Structure prediction by ZEFSAII (Michael W. Deem and Ramdas Pophale) SiO2 
 PCOD9547092
Probable space group: P 4 21 2
;
_chemical_formula_sum "Si O2"
_cell_formula_units_Z 32
_cell_length_a 12.206067
_cell_length_b 12.206067
_cell_length_c 11.045165
_cell_angle_alpha 90.000000
_cell_angle_beta 90.000000
_cell_angle_gamma 90.000000
_cell_volume 1645.597834
_symmetry_space_group_name_H-M "P 4 21 2"
_symmetry_group_IT_number 90
_symmetry_cell_setting 'tetragonal'
loop_
_space_group_symop_operation_xyz
x,y,z
1/2-y,1/2+x,z
-x,-y,z
1/2+y,1/2-x,z
1/2+x,1/2-y,-z
1/2-x,1/2+y,-z
y,x,-z
-y,-x,-z
loop_
_atom_site_type_symbol
_atom_site_label
_atom_site_fract_x
_atom_site_fract_y
_atom_site_fract_z
Si Si1 0.471794 0.180240 0.268550
Si Si2 0.051625 0.121427 0.122943
Si Si3 0.466852 0.179408 0.984006
Si Si4 0.616195 0.438050 0.627169
O O1 0.380232 0.088414 0.289536
O O2 0.474863 0.287194 0.350788
O O3 0.462749 0.209965 0.126223
O O4 0.961438 0.214479 0.099882
O O5 0.113287 0.134519 0.250084
O O6 0.123850 0.123850 0.000000
O O7 0.000000 0.000000 0.125692
O O8 0.377887 0.085079 0.962498
O O9 0.500000 0.500000 0.624320
O O10 0.624633 0.375368 0.500000
#
# Coordination Sequence:
#
# PCOD9547092 Si02
#       4
#     8   8   8   8
#     4   9  18  36  60  83 111 151 192 228 274 343
#     4  10  19  35  53  81 113 142 185 229 279 333
#     4   9  18  35  57  85 116 145 185 234 284 335
#     4  10  21  39  55  80 119 151 189 233 278 333
#
# _framework density 19.445820999999999
#
# number of rings (size 3 to 8) (size 9 to 14) (size 15 to 20)
#    0.000    2.500    2.500    1.500    0.000    0.000 
#   18.000    0.000    0.000    3.000    0.000    0.000 
#    0.000    0.000    0.000    0.000    0.000    0.000 
#
# Total GULP energy -178289.321124 kJ/mol
# GULP energy per Si atom -5571.541285 kJ/mol
# Density = 1.940156 g / cm^3
# Si number density = 19.445821 Si / 1000 Ang^3
#
#
#
# Elastic Constant Matrix: (Units=GPa)
#
#
# Indices 1 2 3 4 5 6 
#
# 1 88.2903 8.3155 15.0731 0.0000 0.0000 0.0000
# 2 8.3155 88.2907 15.0733 0.0000 0.0000 0.0000
# 3 15.0731 15.0733 120.5729 0.0000 0.0000 0.0000
# 4 0.0000 0.0000 0.0000 14.7149 0.0000 0.0000
# 5 0.0000 0.0000 0.0000 0.0000 14.7151 0.0000
# 6 0.0000 0.0000 0.0000 0.0000 0.0000 15.6443
#
#
#
# Elastic Compliance Matrix: (Units=1/GPa)
#
#
# Indices 1 2 3 4 5 6 
#
# 1 0.011638 -0.000866 -0.001347 0.000000 0.000000 0.000000
# 2 -0.000866 0.011638 -0.001347 0.000000 0.000000 0.000000
# 3 -0.001347 -0.001347 0.008630 0.000000 0.000000 0.000000
# 4 0.000000 0.000000 0.000000 0.067958 0.000000 0.000000
# 5 0.000000 0.000000 0.000000 0.000000 0.067957 0.000000
# 6 0.000000 0.000000 0.000000 0.000000 0.000000 0.063921
#
#
# Mechanical properties :
#
#
# Convention : Reuss Voigt Hill
#
# Bulk Modulus (GPa) = 40.34348 41.56418 40.95383
# Shear Modulus (GPa) = 20.23275 26.26098 23.24687
#
# Velocity S-wave (km/s) = 3.22913 3.67886 3.46131
# Velocity P-wave (km/s) = 5.89022 6.28221 6.08937
#
# Compressibility (1/GPa) = 0.02478715
#
# Stress axis : x y z
#
# Youngs Moduli (GPa) = 85.92735 85.92764 115.86929
#
# Poissons Ratio (x) = 0.07443 0.15603
# Poissons Ratio (y) = 0.07443 0.15603
# Poissons Ratio (z) = 0.11571 0.11571
#
# Static dielectric constant tensor:
#      x y z
#    x 1.724200 0.000000 0.000000 
#    y 0.000000 1.724200 0.000000 
#    z 0.000000 0.000000 1.731150 
# 
# From -- ./inp_files/1856.got.cif
#   From: 2010.05.17/outbox.cif.g08.bks.cpg/sg90_1_cif.got.tgz:1856.got - 2010.06.03 19:17:45.
