data_PCOD9547988
_publ_section_title
;
Structure prediction by ZEFSAII (Michael W. Deem and Ramdas Pophale) SiO2 
 PCOD9547988
Probable space group: P 41 2 2
;
_chemical_formula_sum "Si O2"
_cell_formula_units_Z 56
_cell_length_a 11.890227
_cell_length_b 11.890227
_cell_length_c 19.192831
_cell_angle_alpha 90.000000
_cell_angle_beta 90.000000
_cell_angle_gamma 90.000000
_cell_volume 2713.434428
_symmetry_space_group_name_H-M "P 41 2 2"
_symmetry_group_IT_number 91
_symmetry_cell_setting 'tetragonal'
loop_
_space_group_symop_operation_xyz
x,y,z
-y,x,1/4+z
-x,-y,1/2+z
y,-x,3/4+z
x,-y,1/2-z
-x,y,-z
y,x,3/4-z
-y,-x,1/4-z
loop_
_atom_site_type_symbol
_atom_site_label
_atom_site_fract_x
_atom_site_fract_y
_atom_site_fract_z
Si Si1 0.264299 0.880156 0.578477
Si Si2 0.875613 0.693009 0.723782
Si Si3 0.747256 0.641988 0.054765
Si Si4 0.367457 0.464524 0.440289
Si Si5 0.862708 0.457495 0.642237
Si Si6 0.460126 0.069678 0.812997
Si Si7 0.621633 0.278530 0.970501
O O1 0.160594 0.839407 0.625000
O O2 0.370819 0.884513 0.631572
O O3 0.290423 0.789567 0.517733
O O4 0.256315 0.004055 0.546037
O O5 0.770211 0.775322 0.714032
O O6 0.855653 0.584004 0.673885
O O7 0.875629 0.636910 0.799409
O O8 0.833039 0.542160 0.036673
O O9 0.740033 0.634172 0.138107
O O10 0.635783 0.617660 0.007454
O O11 0.453329 0.453329 0.375000
O O12 0.250722 0.439672 0.400279
O O13 0.370293 0.587098 0.474678
O O14 0.977357 0.460809 0.599228
O O15 0.403251 0.000000 0.750000
O O16 0.500000 0.242619 0.000000
#
# Coordination Sequence:
#
# PCOD9547988 Si02
#       7
#     8   8   8   8   8   8   8
#     4  11  25  44  68  97 137 178 231 288 348 417
#     4  10  22  39  67  91 131 175 226 280 336 404
#     4  12  23  41  65  99 136 177 232 285 348 410
#     4  12  25  38  63 100 141 184 221 282 345 427
#     4  10  20  39  61  94 125 173 231 274 328 401
#     4  11  22  39  68  99 128 174 233 293 339 412
#     4  12  27  40  62  99 145 185 217 281 361 428
#
# _framework density 20.638051000000001
#
# number of rings (size 3 to 8) (size 9 to 14) (size 15 to 20)
#    0.000    0.857    5.714    1.714    4.000    0.000 
#    0.000    0.000    0.000    5.143    0.000    0.000 
#    0.000    0.000    0.000    0.000    0.000    0.000 
#
# Total GULP energy -312644.658851 kJ/mol
# GULP energy per Si atom -5582.940337 kJ/mol
# Density = 2.059108 g / cm^3
# Si number density = 20.638051 Si / 1000 Ang^3
#
#
#
# Elastic Constant Matrix: (Units=GPa)
#
#
# Indices 1 2 3 4 5 6 
#
# 1 64.7368 1.5283 13.2870 0.0000 0.0000 0.0000
# 2 1.5283 64.7362 13.2867 0.0000 0.0000 0.0000
# 3 13.2870 13.2867 114.3269 0.0000 0.0000 0.0000
# 4 0.0000 0.0000 0.0000 30.1012 0.0000 0.0000
# 5 0.0000 0.0000 0.0000 0.0000 30.1015 0.0000
# 6 0.0000 0.0000 0.0000 0.0000 0.0000 13.5183
#
#
#
# Elastic Compliance Matrix: (Units=1/GPa)
#
#
# Indices 1 2 3 4 5 6 
#
# 1 0.015825 0.000004 -0.001840 0.000000 0.000000 0.000000
# 2 0.000004 0.015825 -0.001840 0.000000 0.000000 0.000000
# 3 -0.001840 -0.001840 0.009174 0.000000 0.000000 0.000000
# 4 0.000000 0.000000 0.000000 0.033221 0.000000 0.000000
# 5 0.000000 0.000000 0.000000 0.000000 0.033221 0.000000
# 6 0.000000 0.000000 0.000000 0.000000 0.000000 0.073974
#
#
# Mechanical properties :
#
#
# Convention : Reuss Voigt Hill
#
# Bulk Modulus (GPa) = 29.87438 33.33375 31.60406
# Shear Modulus (GPa) = 25.03150 29.12405 27.07778
#
# Velocity S-wave (km/s) = 3.48642 3.76065 3.62613
# Velocity P-wave (km/s) = 5.54199 5.91974 5.73397
#
# Compressibility (1/GPa) = 0.03347350
#
# Stress axis : x y z
#
# Youngs Moduli (GPa) = 63.19258 63.19202 108.99859
#
# Poissons Ratio (x) = -0.00025 0.20051
# Poissons Ratio (y) = -0.00025 0.20051
# Poissons Ratio (z) = 0.11625 0.11625
#
# Static dielectric constant tensor:
#      x y z
#    x 1.750270 0.000000 0.000000 
#    y 0.000000 1.750270 0.000000 
#    z 0.000000 0.000000 1.791010 
# 
# From -- ./inp_files/6421.got.cif
#   From: 2010.05.17/outbox.cif.g08.bks.cpg/sg91_4_cif.got.tgz:6421.got - 2010.06.03 19:20:03.
