data_PCOD9547618
_publ_section_title
;
Structure prediction by ZEFSAII (Michael W. Deem and Ramdas Pophale) SiO2 
 PCOD9547618
Probable space group: P 41 2 2
;
_chemical_formula_sum "Si O2"
_cell_formula_units_Z 56
_cell_length_a 10.609184
_cell_length_b 10.609184
_cell_length_c 21.697572
_cell_angle_alpha 90.000000
_cell_angle_beta 90.000000
_cell_angle_gamma 90.000000
_cell_volume 2442.165555
_symmetry_space_group_name_H-M "P 41 2 2"
_symmetry_group_IT_number 91
_symmetry_cell_setting 'tetragonal'
loop_
_space_group_symop_operation_xyz
x,y,z
-y,x,1/4+z
-x,-y,1/2+z
y,-x,3/4+z
x,-y,1/2-z
-x,y,-z
y,x,3/4-z
-y,-x,1/4-z
loop_
_atom_site_type_symbol
_atom_site_label
_atom_site_fract_x
_atom_site_fract_y
_atom_site_fract_z
Si Si1 0.840413 0.063011 0.683558
Si Si2 0.872359 0.555980 0.537190
Si Si3 0.568444 0.431557 0.625000
Si Si4 0.703353 0.302000 0.053299
Si Si5 0.687506 0.579456 0.093805
Si Si6 0.892084 0.500000 0.250000
Si Si7 0.423695 0.979390 0.378113
Si Si8 0.292708 0.301607 0.475344
O O1 0.935478 0.064523 0.625000
O O2 0.810332 0.208162 0.700463
O O3 0.871376 0.000000 0.750000
O O4 0.707241 0.011043 0.656511
O O5 0.806357 0.672629 0.501451
O O6 0.789586 0.430557 0.530021
O O7 0.000000 0.532716 0.500000
O O8 0.931252 0.538784 0.605277
O O9 0.423318 0.403915 0.643187
O O10 0.665393 0.404579 0.679669
O O11 0.736745 0.263256 0.125000
O O12 0.651801 0.445400 0.062245
O O13 0.603592 0.200812 0.029951
O O14 0.830126 0.559771 0.114004
O O15 0.680541 0.696152 0.047230
O O16 0.979296 0.572176 0.201316
#
# Coordination Sequence:
#
# PCOD9547618 Si02
#       8
#     8   8   4   8   8   4   8   8
#     4  11  22  45  74  99 123 178 244 303 365 433
#     4  10  18  35  58  80 121 183 229 262 324 410
#     4  12  22  30  52 102 146 176 212 276 346 432
#     4  11  21  34  60  95 132 178 229 273 345 425
#     4  11  20  33  54  87 144 183 218 269 336 425
#     4  12  24  38  60 102 144 178 236 298 350 424
#     4  11  21  41  61  91 137 191 234 277 344 432
#     4  10  20  34  56  89 134 175 220 265 341 427
#
# _framework density 22.930468999999999
#
# number of rings (size 3 to 8) (size 9 to 14) (size 15 to 20)
#    0.000    1.143    7.143    1.286    8.000    0.000 
#    0.000    4.286    0.000    1.714    0.000    0.000 
#    0.000    0.000    0.000    0.000    0.000    0.000 
#
# Total GULP energy -311759.826143 kJ/mol
# GULP energy per Si atom -5567.139753 kJ/mol
# Density = 2.287828 g / cm^3
# Si number density = 22.930469 Si / 1000 Ang^3
#
#
#
# Elastic Constant Matrix: (Units=GPa)
#
#
# Indices 1 2 3 4 5 6 
#
# 1 60.5276 32.1778 37.7349 0.0000 0.0000 0.0000
# 2 32.1778 60.5280 37.7349 0.0000 0.0000 0.0000
# 3 37.7349 37.7349 140.4579 0.0000 0.0000 0.0000
# 4 0.0000 0.0000 0.0000 22.3612 0.0000 0.0000
# 5 0.0000 0.0000 0.0000 0.0000 22.3601 0.0000
# 6 0.0000 0.0000 0.0000 0.0000 0.0000 13.1337
#
#
#
# Elastic Compliance Matrix: (Units=1/GPa)
#
#
# Indices 1 2 3 4 5 6 
#
# 1 0.024540 -0.010733 -0.003709 0.000000 0.000000 0.000000
# 2 -0.010733 0.024540 -0.003709 0.000000 0.000000 0.000000
# 3 -0.003709 -0.003709 0.009113 0.000000 0.000000 0.000000
# 4 0.000000 0.000000 0.000000 0.044720 0.000000 0.000000
# 5 0.000000 0.000000 0.000000 0.000000 0.044723 0.000000
# 6 0.000000 0.000000 0.000000 0.000000 0.000000 0.076140
#
#
# Mechanical properties :
#
#
# Convention : Reuss Voigt Hill
#
# Bulk Modulus (GPa) = 45.68577 52.97875 49.33226
# Shear Modulus (GPa) = 18.70032 21.82871 20.26452
#
# Velocity S-wave (km/s) = 2.85883 3.08872 2.97600
# Velocity P-wave (km/s) = 5.55555 5.98953 5.77662
#
# Compressibility (1/GPa) = 0.02188866
#
# Stress axis : x y z
#
# Youngs Moduli (GPa) = 40.74985 40.75019 109.73858
#
# Poissons Ratio (x) = 0.43739 0.40704
# Poissons Ratio (y) = 0.43739 0.40704
# Poissons Ratio (z) = 0.15115 0.15115
#
# Static dielectric constant tensor:
#      x y z
#    x 1.880130 0.000000 0.000000 
#    y 0.000000 1.880130 0.000000 
#    z 0.000000 0.000000 2.065980 
# 
# From -- ./inp_files/6430.got.cif
#   From: 2010.05.17/outbox.cif.g08.bks.cpg/sg91_4_cif.got.tgz:6430.got - 2010.06.03 19:20:03.
