data_PCOD9547790
_publ_section_title
;
Structure prediction by ZEFSAII (Michael W. Deem and Ramdas Pophale) SiO2 
 PCOD9547790
Probable space group: P 41 2 2
;
_chemical_formula_sum "Si O2"
_cell_formula_units_Z 48
_cell_length_a 14.636520
_cell_length_b 14.636520
_cell_length_c 10.845770
_cell_angle_alpha 90.000000
_cell_angle_beta 90.000000
_cell_angle_gamma 90.000000
_cell_volume 2323.464554
_symmetry_space_group_name_H-M "P 41 2 2"
_symmetry_group_IT_number 91
_symmetry_cell_setting 'tetragonal'
loop_
_space_group_symop_operation_xyz
x,y,z
-y,x,1/4+z
-x,-y,1/2+z
y,-x,3/4+z
x,-y,1/2-z
-x,y,-z
y,x,3/4-z
-y,-x,1/4-z
loop_
_atom_site_type_symbol
_atom_site_label
_atom_site_fract_x
_atom_site_fract_y
_atom_site_fract_z
Si Si1 0.137976 0.275285 0.738062
Si Si2 0.165276 0.320338 0.260617
Si Si3 0.974924 0.827989 0.861912
Si Si4 0.665276 0.820338 0.260617
Si Si5 0.362024 0.224715 0.238062
Si Si6 0.474924 0.327989 0.861912
O O1 0.235262 0.225415 0.747886
O O2 0.117154 0.325649 0.867447
O O3 0.153194 0.346806 0.625000
O O4 0.066696 0.194196 0.711761
O O5 0.098280 0.238604 0.299314
O O6 0.264738 0.274585 0.247886
O O7 0.174351 0.382846 0.382553
O O8 0.141570 0.358430 0.125000
O O9 0.927242 0.927242 0.875000
O O10 0.000000 0.798605 0.000000
O O11 0.598280 0.738604 0.299314
O O12 0.433304 0.305804 0.211761
O O13 0.427242 0.427242 0.875000
O O14 0.500000 0.298605 0.000000
#
# Coordination Sequence:
#
# PCOD9547790 Si02
#       6
#     8   8   8   8   8   8
#     4  10  19  38  68  96 135 200 236 287 371 435
#     4  10  20  40  66  97 140 196 241 298 364 442
#     4  12  22  41  72 108 145 192 250 303 367 444
#     4  10  20  40  66  97 140 196 241 298 364 442
#     4  10  19  38  68  96 135 200 236 287 371 435
#     4  12  22  41  72 108 145 192 250 303 367 444
#
# _framework density 20.658802000000001
#
# number of rings (size 3 to 8) (size 9 to 14) (size 15 to 20)
#    0.000    1.333    6.667    2.000    0.000    1.333 
#    6.000    0.000    0.000    6.000    0.000    0.000 
#    0.000    0.000    0.000    0.000    0.000    0.000 
#
# Total GULP energy -267216.914963 kJ/mol
# GULP energy per Si atom -5567.019062 kJ/mol
# Density = 2.061178 g / cm^3
# Si number density = 20.658802 Si / 1000 Ang^3
#
#
#
# Elastic Constant Matrix: (Units=GPa)
#
#
# Indices 1 2 3 4 5 6 
#
# 1 55.3500 47.6842 29.8209 0.0000 0.0000 0.0000
# 2 47.6842 55.3500 29.8209 0.0000 0.0000 0.0000
# 3 29.8209 29.8209 196.0351 0.0000 0.0000 0.0000
# 4 0.0000 0.0000 0.0000 23.5761 0.0000 0.0000
# 5 0.0000 0.0000 0.0000 0.0000 23.5761 0.0000
# 6 0.0000 0.0000 0.0000 0.0000 0.0000 10.9626
#
#
#
# Elastic Compliance Matrix: (Units=1/GPa)
#
#
# Indices 1 2 3 4 5 6 
#
# 1 0.070547 -0.059904 -0.001619 0.000000 0.000000 0.000000
# 2 -0.059904 0.070547 -0.001619 0.000000 0.000000 0.000000
# 3 -0.001619 -0.001619 0.005594 0.000000 0.000000 0.000000
# 4 0.000000 0.000000 0.000000 0.042416 0.000000 0.000000
# 5 0.000000 0.000000 0.000000 0.000000 0.042416 0.000000
# 6 0.000000 0.000000 0.000000 0.000000 0.000000 0.091219
#
#
# Mechanical properties :
#
#
# Convention : Reuss Voigt Hill
#
# Bulk Modulus (GPa) = 49.01205 57.93191 53.47198
# Shear Modulus (GPa) = 10.96920 24.91691 17.94305
#
# Velocity S-wave (km/s) = 2.30678 3.47669 2.95030
# Velocity P-wave (km/s) = 5.55617 6.64978 6.12742
#
# Compressibility (1/GPa) = 0.02040315
#
# Stress axis : x y z
#
# Youngs Moduli (GPa) = 14.17504 14.17504 178.77312
#
# Poissons Ratio (x) = 0.84914 0.28943
# Poissons Ratio (y) = 0.84914 0.28943
# Poissons Ratio (z) = 0.02295 0.02295
#
# Static dielectric constant tensor:
#      x y z
#    x 1.720890 0.000000 0.000000 
#    y 0.000000 1.720890 0.000000 
#    z 0.000000 0.000000 1.797940 
# 
# From -- ./inp_files/20254.got.cif
#   From: 2010.05.17/outbox.cif.g08.bks.cpg/sg91_11_cif.got.tgz:20254.got - 2010.06.03 19:20:03.
