data_PCOD9547068
_publ_section_title
;
Structure prediction by ZEFSAII (Michael W. Deem and Ramdas Pophale) SiO2 
 PCOD9547068
Probable space group: P 4 21 2
;
_chemical_formula_sum "Si O2"
_cell_formula_units_Z 48
_cell_length_a 16.242992
_cell_length_b 16.242992
_cell_length_c 7.249611
_cell_angle_alpha 90.000000
_cell_angle_beta 90.000000
_cell_angle_gamma 90.000000
_cell_volume 1912.699589
_symmetry_space_group_name_H-M "P 4 21 2"
_symmetry_group_IT_number 90
_symmetry_cell_setting 'tetragonal'
loop_
_space_group_symop_operation_xyz
x,y,z
1/2-y,1/2+x,z
-x,-y,z
1/2+y,1/2-x,z
1/2+x,1/2-y,-z
1/2-x,1/2+y,-z
y,x,-z
-y,-x,-z
loop_
_atom_site_type_symbol
_atom_site_label
_atom_site_fract_x
_atom_site_fract_y
_atom_site_fract_z
Si Si1 0.171229 0.067854 0.749528
Si Si2 0.946522 0.791068 0.826380
Si Si3 0.398212 0.079543 0.794563
Si Si4 0.596780 0.596807 0.780499
Si Si5 0.010657 0.310502 0.529489
Si Si6 0.164223 0.732142 0.377145
O O1 0.133941 0.158053 0.768839
O O2 0.236928 0.052341 0.591922
O O3 0.100678 0.998348 0.719377
O O4 0.207953 0.047591 0.952836
O O5 0.955978 0.702612 0.733793
O O6 0.019978 0.845737 0.737330
O O7 0.486159 0.111142 0.872262
O O8 0.387546 0.045864 0.581645
O O9 0.339792 0.160910 0.781810
O O10 0.637566 0.681146 0.712017
O O11 0.594698 0.594698 0.000000
O O12 0.913474 0.294671 0.505125
O O13 0.243801 0.756200 0.500000
#
# Coordination Sequence:
#
# PCOD9547068 Si02
#       6
#     8   8   8   8   8   8
#     4   9  19  28  47  79 117 157 191 224 275 346
#     4  10  17  30  48  77 120 154 190 228 276 341
#     4   9  20  38  61  83 108 149 197 245 297 350
#     4   9  17  30  48  76 116 157 187 228 285 344
#     4  10  19  33  54  77 107 149 191 237 286 330
#     4  10  18  32  55  85 106 136 190 239 289 346
#
# _framework density 25.095419
#
# number of rings (size 3 to 8) (size 9 to 14) (size 15 to 20)
#    0.000    2.500    1.667    1.000    0.000    3.333 
#    0.000    1.667    7.333    2.000    0.000    4.667 
#    0.000    0.000    0.000    0.000    0.000    0.000 
#
# Total GULP energy -267311.983322 kJ/mol
# GULP energy per Si atom -5568.999653 kJ/mol
# Density = 2.503830 g / cm^3
# Si number density = 25.095419 Si / 1000 Ang^3
#
#
#
# Elastic Constant Matrix: (Units=GPa)
#
#
# Indices 1 2 3 4 5 6 
#
# 1 83.9504 17.8826 1.7504 0.0000 0.0000 0.0000
# 2 17.8826 83.9499 1.7497 0.0000 0.0000 0.0000
# 3 1.7504 1.7497 44.9191 0.0000 0.0000 0.0000
# 4 0.0000 0.0000 0.0000 25.7864 0.0000 0.0000
# 5 0.0000 0.0000 0.0000 0.0000 25.7862 0.0000
# 6 0.0000 0.0000 0.0000 0.0000 0.0000 42.5279
#
#
#
# Elastic Compliance Matrix: (Units=1/GPa)
#
#
# Indices 1 2 3 4 5 6 
#
# 1 0.012485 -0.002651 -0.000383 0.000000 0.000000 0.000000
# 2 -0.002651 0.012485 -0.000383 0.000000 0.000000 0.000000
# 3 -0.000383 -0.000383 0.022292 0.000000 0.000000 0.000000
# 4 0.000000 0.000000 0.000000 0.038780 0.000000 0.000000
# 5 0.000000 0.000000 0.000000 0.000000 0.038780 0.000000
# 6 0.000000 0.000000 0.000000 0.000000 0.000000 0.023514
#
#
# Mechanical properties :
#
#
# Convention : Reuss Voigt Hill
#
# Bulk Modulus (GPa) = 24.73652 28.39833 26.56743
# Shear Modulus (GPa) = 29.64783 31.58255 30.61519
#
# Velocity S-wave (km/s) = 3.44088 3.55138 3.49657
# Velocity P-wave (km/s) = 5.06603 5.30633 5.18757
#
# Compressibility (1/GPa) = 0.04042605
#
# Stress axis : x y z
#
# Youngs Moduli (GPa) = 80.09890 80.09847 44.85892
#
# Poissons Ratio (x) = 0.21237 0.01719
# Poissons Ratio (y) = 0.21238 0.01718
# Poissons Ratio (z) = 0.03070 0.03068
#
# Static dielectric constant tensor:
#      x y z
#    x 2.103060 0.000000 0.000000 
#    y 0.000000 2.103060 0.000000 
#    z 0.000000 0.000000 1.995550 
# 
# From -- ./inp_files/1523.got.cif
#   From: 2010.05.17/outbox.cif.g08.bks.cpg/sg90_1_cif.got.tgz:1523.got - 2010.06.03 19:17:45.
