data_PCOD9547726
_publ_section_title
;
Structure prediction by ZEFSAII (Michael W. Deem and Ramdas Pophale) SiO2 
 PCOD9547726
Probable space group: P 41 2 2
;
_chemical_formula_sum "Si O2"
_cell_formula_units_Z 52
_cell_length_a 23.182873
_cell_length_b 23.182873
_cell_length_c 5.066134
_cell_angle_alpha 90.000000
_cell_angle_beta 90.000000
_cell_angle_gamma 90.000000
_cell_volume 2722.771430
_symmetry_space_group_name_H-M "P 41 2 2"
_symmetry_group_IT_number 91
_symmetry_cell_setting 'tetragonal'
loop_
_space_group_symop_operation_xyz
x,y,z
-y,x,1/4+z
-x,-y,1/2+z
y,-x,3/4+z
x,-y,1/2-z
-x,y,-z
y,x,3/4-z
-y,-x,1/4-z
loop_
_atom_site_type_symbol
_atom_site_label
_atom_site_fract_x
_atom_site_fract_y
_atom_site_fract_z
Si Si1 0.239474 0.065480 0.717124
Si Si2 0.686715 0.628288 0.117314
Si Si3 0.105943 0.369540 0.000343
Si Si4 0.000000 0.541745 0.500000
Si Si5 0.588391 0.500000 0.750000
Si Si6 0.343962 0.180948 0.235094
Si Si7 0.866241 0.782947 0.036276
Si Si8 0.500000 0.661761 0.500000
O O1 0.307423 0.074368 0.778518
O O2 0.231285 0.082139 0.413877
O O3 0.221902 0.000000 0.750000
O O4 0.206875 0.107705 0.923390
O O5 0.661876 0.661876 0.375000
O O6 0.751134 0.646853 0.037837
O O7 0.691141 0.559315 0.160343
O O8 0.644757 0.644757 0.875000
O O9 0.056670 0.417685 0.029951
O O10 0.150211 0.363071 0.244147
O O11 0.145666 0.376713 0.743508
O O12 0.993653 0.500000 0.250000
O O13 0.548471 0.548471 0.875000
O O14 0.625247 0.520637 0.502924
O O15 0.275541 0.170888 0.196563
O O16 0.830095 0.830095 0.875000
#
# Coordination Sequence:
#
# PCOD9547726 Si02
#       8
#     8   8   8   4   4   8   8   4
#     4  10  19  34  57  81 117 159 191 233 294 354
#     4  12  25  43  66  88 121 159 199 250 309 387
#     4  10  21  40  60  87 121 152 206 253 296 354
#     4  12  24  40  62  92 120 170 212 264 302 344
#     4  12  23  38  62  88 112 136 173 230 300 372
#     4  10  22  39  63  89 117 163 200 245 308 364
#     4  10  20  33  55  88 121 150 195 246 286 342
#     4  12  25  42  60  90 112 148 191 240 302 362
#
# _framework density 19.098189000000001
#
# number of rings (size 3 to 8) (size 9 to 14) (size 15 to 20)
#    0.000    1.231    0.769    6.462    0.000    2.462 
#    4.154    0.000    0.000    0.000    0.000    0.000 
#    0.000   17.231    0.000    0.000    0.000    0.000 
#
# Total GULP energy -290347.581862 kJ/mol
# GULP energy per Si atom -5583.607344 kJ/mol
# Density = 1.905472 g / cm^3
# Si number density = 19.098189 Si / 1000 Ang^3
#
#
#
# Elastic Constant Matrix: (Units=GPa)
#
#
# Indices 1 2 3 4 5 6 
#
# 1 86.8763 32.9964 15.1074 0.0000 0.0000 0.0000
# 2 32.9964 86.8763 15.1074 0.0000 0.0000 0.0000
# 3 15.1074 15.1074 108.1640 0.0000 0.0000 0.0000
# 4 0.0000 0.0000 0.0000 14.5216 0.0000 0.0000
# 5 0.0000 0.0000 0.0000 0.0000 14.5216 0.0000
# 6 0.0000 0.0000 0.0000 0.0000 0.0000 28.3648
#
#
#
# Elastic Compliance Matrix: (Units=1/GPa)
#
#
# Indices 1 2 3 4 5 6 
#
# 1 0.013603 -0.004957 -0.001208 0.000000 0.000000 0.000000
# 2 -0.004957 0.013603 -0.001208 0.000000 0.000000 0.000000
# 3 -0.001208 -0.001208 0.009583 0.000000 0.000000 0.000000
# 4 0.000000 0.000000 0.000000 0.068863 0.000000 0.000000
# 5 0.000000 0.000000 0.000000 0.000000 0.068863 0.000000
# 6 0.000000 0.000000 0.000000 0.000000 0.000000 0.035255
#
#
# Mechanical properties :
#
#
# Convention : Reuss Voigt Hill
#
# Bulk Modulus (GPa) = 45.36168 45.37099 45.36633
# Shear Modulus (GPa) = 21.56453 26.06196 23.81325
#
# Velocity S-wave (km/s) = 3.36391 3.69810 3.53496
# Velocity P-wave (km/s) = 6.23629 6.48404 6.36137
#
# Compressibility (1/GPa) = 0.02204504
#
# Stress axis : x y z
#
# Youngs Moduli (GPa) = 73.51217 73.51217 104.35610
#
# Poissons Ratio (x) = 0.36437 0.12603
# Poissons Ratio (y) = 0.36437 0.12603
# Poissons Ratio (z) = 0.08878 0.08878
#
# Static dielectric constant tensor:
#      x y z
#    x 1.668760 0.000000 0.000000 
#    y 0.000000 1.668760 0.000000 
#    z 0.000000 0.000000 1.689600 
# 
# From -- ./inp_files/18940.got.cif
#   From: 2010.05.17/outbox.cif.g08.bks.cpg/sg91_10_cif.got.tgz:18940.got - 2010.06.03 19:20:03.
