data_PCOD9547152
_publ_section_title
;
Structure prediction by ZEFSAII (Michael W. Deem and Ramdas Pophale) SiO2 
 PCOD9547152
Probable space group: P 4 21 2
;
_chemical_formula_sum "Si O2"
_cell_formula_units_Z 58
_cell_length_a 20.169358
_cell_length_b 20.169358
_cell_length_c 7.449099
_cell_angle_alpha 90.000000
_cell_angle_beta 90.000000
_cell_angle_gamma 90.000000
_cell_volume 3030.315836
_symmetry_space_group_name_H-M "P 4 21 2"
_symmetry_group_IT_number 90
_symmetry_cell_setting 'tetragonal'
loop_
_space_group_symop_operation_xyz
x,y,z
1/2-y,1/2+x,z
-x,-y,z
1/2+y,1/2-x,z
1/2+x,1/2-y,-z
1/2-x,1/2+y,-z
y,x,-z
-y,-x,-z
loop_
_atom_site_type_symbol
_atom_site_label
_atom_site_fract_x
_atom_site_fract_y
_atom_site_fract_z
Si Si1 0.099168 0.214816 0.676728
Si Si2 0.068167 0.068298 0.207924
Si Si3 0.204204 0.013616 0.681079
Si Si4 0.000000 0.000000 0.500000
Si Si5 0.469856 0.800486 0.022167
Si Si6 0.117746 0.658265 0.025614
Si Si7 0.200829 0.727175 0.726472
Si Si8 0.130642 0.739091 0.369187
O O1 0.095031 0.141960 0.761757
O O2 0.174749 0.240510 0.685567
O O3 0.065743 0.215340 0.480614
O O4 0.054848 0.261153 0.803855
O O5 0.058569 0.009809 0.354095
O O6 0.019797 0.127696 0.264071
O O7 0.054363 0.054363 0.000000
O O8 0.220019 0.937618 0.630507
O O9 0.250545 0.031412 0.851448
O O10 0.543858 0.827452 0.040961
O O11 0.416454 0.858236 0.995118
O O12 0.120635 0.679002 0.232675
O O13 0.168107 0.705395 0.913338
O O14 0.147676 0.716266 0.568718
O O15 0.222762 0.803558 0.704124
#
# Coordination Sequence:
#
# PCOD9547152 Si02
#       8
#     8   8   8   2   8   8   8   8
#     4  11  22  39  68  90 122 160 212 262 311 371
#     4  12  25  43  63  91 120 164 223 254 308 368
#     4  11  22  40  61  90 122 165 200 255 320 373
#     4  12  26  44  60  82 124 168 198 260 288 370
#     4  10  22  38  62  88 121 159 197 256 310 377
#     4  10  21  39  57  88 121 155 201 247 312 372
#     4  10  22  37  62  93 118 156 204 260 313 371
#     4  10  22  36  57  89 124 154 196 253 314 371
#
# _framework density 19.139918999999999
#
# number of rings (size 3 to 8) (size 9 to 14) (size 15 to 20)
#    0.000    1.379    2.759    2.276    5.793    1.379 
#    2.483    1.379    0.000    0.000    0.000    3.862 
#    0.000    0.000    0.000    0.000    0.000    0.000 
#
# Total GULP energy -323764.400014 kJ/mol
# GULP energy per Si atom -5582.144828 kJ/mol
# Density = 1.909636 g / cm^3
# Si number density = 19.139919 Si / 1000 Ang^3
#
#
#
# Elastic Constant Matrix: (Units=GPa)
#
#
# Indices 1 2 3 4 5 6 
#
# 1 118.8151 -24.5488 10.7372 0.0000 0.0000 0.0000
# 2 -24.5488 118.8151 10.7372 0.0000 0.0000 0.0000
# 3 10.7372 10.7372 103.1539 0.0000 0.0000 0.0000
# 4 0.0000 0.0000 0.0000 18.0868 0.0000 0.0000
# 5 0.0000 0.0000 0.0000 0.0000 18.0868 0.0000
# 6 0.0000 0.0000 0.0000 0.0000 0.0000 22.8948
#
#
#
# Elastic Compliance Matrix: (Units=1/GPa)
#
#
# Indices 1 2 3 4 5 6 
#
# 1 0.008921 0.001945 -0.001131 0.000000 0.000000 0.000000
# 2 0.001945 0.008921 -0.001131 0.000000 0.000000 0.000000
# 3 -0.001131 -0.001131 0.009930 0.000000 0.000000 0.000000
# 4 0.000000 0.000000 0.000000 0.055289 0.000000 0.000000
# 5 0.000000 0.000000 0.000000 0.000000 0.055289 0.000000
# 6 0.000000 0.000000 0.000000 0.000000 0.000000 0.043678
#
#
# Mechanical properties :
#
#
# Convention : Reuss Voigt Hill
#
# Bulk Modulus (GPa) = 36.84951 37.18172 37.01561
# Shear Modulus (GPa) = 26.08159 34.73758 30.40959
#
# Velocity S-wave (km/s) = 3.69545 4.26482 3.99031
# Velocity P-wave (km/s) = 6.12397 6.61211 6.37272
#
# Compressibility (1/GPa) = 0.02713740
#
# Stress axis : x y z
#
# Youngs Moduli (GPa) = 112.10038 112.10038 100.70784
#
# Poissons Ratio (x) = -0.21807 0.11390
# Poissons Ratio (y) = -0.21807 0.11390
# Poissons Ratio (z) = 0.12679 0.12679
#
# Static dielectric constant tensor:
#      x y z
#    x 1.663770 0.000000 0.000000 
#    y 0.000000 1.663770 0.000000 
#    z 0.000000 0.000000 1.669590 
# 
# From -- ./inp_files/1644.got.cif
#   From: 2010.05.17/outbox.cif.g08.bks.cpg/sg90_1_cif.got.tgz:1644.got - 2010.06.03 19:17:45.
