data_PCOD9547741
_publ_section_title
;
Structure prediction by ZEFSAII (Michael W. Deem and Ramdas Pophale) SiO2 
 PCOD9547741
Probable space group: P 41 2 2
;
_chemical_formula_sum "Si O2"
_cell_formula_units_Z 60
_cell_length_a 12.583177
_cell_length_b 12.583177
_cell_length_c 20.746286
_cell_angle_alpha 90.000000
_cell_angle_beta 90.000000
_cell_angle_gamma 90.000000
_cell_volume 3284.891065
_symmetry_space_group_name_H-M "P 41 2 2"
_symmetry_group_IT_number 91
_symmetry_cell_setting 'tetragonal'
loop_
_space_group_symop_operation_xyz
x,y,z
-y,x,1/4+z
-x,-y,1/2+z
y,-x,3/4+z
x,-y,1/2-z
-x,y,-z
y,x,3/4-z
-y,-x,1/4-z
loop_
_atom_site_type_symbol
_atom_site_label
_atom_site_fract_x
_atom_site_fract_y
_atom_site_fract_z
Si Si1 0.685566 0.190358 0.003930
Si Si2 0.418115 0.733693 0.377086
Si Si3 0.885630 0.314294 0.971397
Si Si4 0.374677 0.953311 0.015110
Si Si5 0.629169 0.808624 0.871669
Si Si6 0.389195 0.204794 0.592567
Si Si7 0.124574 0.457914 0.513530
Si Si8 0.653438 0.653438 0.375000
O O1 0.600346 0.231442 0.950825
O O2 0.801785 0.220798 0.977436
O O3 0.676180 0.063532 0.007834
O O4 0.673175 0.259605 0.068638
O O5 0.316362 0.664240 0.357978
O O6 0.416432 0.837502 0.331905
O O7 0.527703 0.672232 0.362376
O O8 0.880220 0.358063 0.898481
O O9 0.844880 0.417508 0.010566
O O10 0.000000 0.287148 0.000000
O O11 0.348198 0.917503 0.088242
O O12 0.500000 0.969017 0.000000
O O13 0.348530 0.849584 0.972359
O O14 0.721686 0.721686 0.875000
O O15 0.515912 0.776972 0.904135
O O16 0.602896 0.824131 0.796467
O O17 0.000000 0.454476 0.500000
#
# Coordination Sequence:
#
# PCOD9547741 Si02
#       8
#     8   8   8   8   8   8   8   4
#     4  11  23  38  59  87 120 158 200 251 305 357
#     4  11  22  39  54  90 126 154 197 247 308 369
#     4   9  19  36  56  82 111 148 202 246 291 358
#     4  10  20  37  57  85 117 157 203 253 297 351
#     4  10  20  35  57  86 111 152 200 236 298 362
#     4   9  21  35  56  83 118 160 191 247 301 354
#     4  10  19  35  59  80 111 153 197 242 286 351
#     4  12  24  36  58  92 122 168 192 242 322 372
#
# _framework density 18.265445
#
# number of rings (size 3 to 8) (size 9 to 14) (size 15 to 20)
#    0.000    1.867    1.333    2.800    2.800    2.133 
#    0.000    1.333    0.000    6.400    0.000    0.000 
#    0.000    0.000    0.000    0.000    0.000    0.000 
#
# Total GULP energy -334367.682337 kJ/mol
# GULP energy per Si atom -5572.794706 kJ/mol
# Density = 1.822387 g / cm^3
# Si number density = 18.265445 Si / 1000 Ang^3
#
#
#
# Elastic Constant Matrix: (Units=GPa)
#
#
# Indices 1 2 3 4 5 6 
#
# 1 87.8814 46.6230 35.9524 0.0000 0.0000 0.0000
# 2 46.6230 87.8814 35.9524 0.0000 0.0000 0.0000
# 3 35.9524 35.9524 94.1292 0.0000 0.0000 0.0000
# 4 0.0000 0.0000 0.0000 26.8676 0.0000 0.0000
# 5 0.0000 0.0000 0.0000 0.0000 26.8676 0.0000
# 6 0.0000 0.0000 0.0000 0.0000 0.0000 22.6370
#
#
#
# Elastic Compliance Matrix: (Units=1/GPa)
#
#
# Indices 1 2 3 4 5 6 
#
# 1 0.016790 -0.007448 -0.003568 0.000000 0.000000 0.000000
# 2 -0.007448 0.016790 -0.003568 0.000000 0.000000 0.000000
# 3 -0.003568 -0.003568 0.013349 0.000000 0.000000 0.000000
# 4 0.000000 0.000000 0.000000 0.037220 0.000000 0.000000
# 5 0.000000 0.000000 0.000000 0.000000 0.037220 0.000000
# 6 0.000000 0.000000 0.000000 0.000000 0.000000 0.044176
#
#
# Mechanical properties :
#
#
# Convention : Reuss Voigt Hill
#
# Bulk Modulus (GPa) = 56.30322 56.32751 56.31536
# Shear Modulus (GPa) = 24.92120 25.36538 25.14329
#
# Velocity S-wave (km/s) = 3.69777 3.73058 3.71421
# Velocity P-wave (km/s) = 7.00880 7.03289 7.02086
#
# Compressibility (1/GPa) = 0.01776098
#
# Stress axis : x y z
#
# Youngs Moduli (GPa) = 59.55977 59.55977 74.90936
#
# Poissons Ratio (x) = 0.44358 0.26730
# Poissons Ratio (y) = 0.44358 0.26730
# Poissons Ratio (z) = 0.21252 0.21252
#
# Static dielectric constant tensor:
#      x y z
#    x 1.628960 0.000000 0.000000 
#    y 0.000000 1.628960 0.000000 
#    z 0.000000 0.000000 1.692290 
# 
# From -- ./inp_files/6450.got.cif
#   From: 2010.05.17/outbox.cif.g08.bks.cpg/sg91_4_cif.got.tgz:6450.got - 2010.06.03 19:20:03.
