data_PCOD9547410
_publ_section_title
;
Structure prediction by ZEFSAII (Michael W. Deem and Ramdas Pophale) SiO2 
 PCOD9547410
Probable space group: P 4 21 2
;
_chemical_formula_sum "Si O2"
_cell_formula_units_Z 40
_cell_length_a 15.045245
_cell_length_b 15.045245
_cell_length_c 8.497455
_cell_angle_alpha 90.000000
_cell_angle_beta 90.000000
_cell_angle_gamma 90.000000
_cell_volume 1923.478791
_symmetry_space_group_name_H-M "P 4 21 2"
_symmetry_group_IT_number 90
_symmetry_cell_setting 'tetragonal'
loop_
_space_group_symop_operation_xyz
x,y,z
1/2-y,1/2+x,z
-x,-y,z
1/2+y,1/2-x,z
1/2+x,1/2-y,-z
1/2-x,1/2+y,-z
y,x,-z
-y,-x,-z
loop_
_atom_site_type_symbol
_atom_site_label
_atom_site_fract_x
_atom_site_fract_y
_atom_site_fract_z
Si Si1 0.683176 0.177182 0.941643
Si Si2 0.588393 0.452038 0.817664
Si Si3 0.728988 0.368235 0.366579
Si Si4 0.722794 0.998186 0.115774
Si Si5 0.855711 0.484448 0.542402
O O1 0.668873 0.200750 0.759593
O O2 0.768266 0.231735 0.000000
O O3 0.693669 0.075685 0.996896
O O4 0.596262 0.215869 0.029329
O O5 0.500000 0.500000 0.756028
O O6 0.609913 0.362475 0.723508
O O7 0.676695 0.512020 0.823283
O O8 0.570893 0.429108 0.000000
O O9 0.703312 0.296689 0.500000
O O10 0.768094 0.456260 0.448920
O O11 0.663511 0.990745 0.271819
O O12 0.905264 0.575438 0.503861
#
# Coordination Sequence:
#
# PCOD9547410 Si02
#       5
#     8   8   8   8   8
#     4  12  26  44  74 105 139 193 248 295 357 440
#     4  11  24  45  72 101 140 187 246 299 353 434
#     4  12  24  46  69 102 150 184 226 310 367 426
#     4  12  23  47  73 100 142 189 244 295 353 431
#     4  11  25  45  68 101 143 188 230 291 366 434
#
# _framework density 20.795653999999999
#
# number of rings (size 3 to 8) (size 9 to 14) (size 15 to 20)
#    0.000    0.400    8.000    0.000    5.600    0.800 
#    0.000    0.000    0.000    0.000    0.000    0.000 
#    0.000    0.000    0.000    0.000    0.000    0.000 
#
# Total GULP energy -223593.416337 kJ/mol
# GULP energy per Si atom -5589.835408 kJ/mol
# Density = 2.074832 g / cm^3
# Si number density = 20.795654 Si / 1000 Ang^3
#
#
#
# Elastic Constant Matrix: (Units=GPa)
#
#
# Indices 1 2 3 4 5 6 
#
# 1 59.9560 54.0525 27.5077 0.0000 0.0000 0.0000
# 2 54.0525 59.9561 27.5071 0.0000 0.0000 0.0000
# 3 27.5077 27.5071 105.1421 0.0000 0.0000 0.0000
# 4 0.0000 0.0000 0.0000 30.1273 0.0000 0.0000
# 5 0.0000 0.0000 0.0000 0.0000 30.1260 0.0000
# 6 0.0000 0.0000 0.0000 0.0000 0.0000 29.4008
#
#
#
# Elastic Compliance Matrix: (Units=1/GPa)
#
#
# Indices 1 2 3 4 5 6 
#
# 1 0.089714 -0.079675 -0.002627 0.000000 0.000000 0.000000
# 2 -0.079675 0.089713 -0.002626 0.000000 0.000000 0.000000
# 3 -0.002627 -0.002626 0.010885 0.000000 0.000000 0.000000
# 4 0.000000 0.000000 0.000000 0.033193 0.000000 0.000000
# 5 0.000000 0.000000 0.000000 0.000000 0.033194 0.000000
# 6 0.000000 0.000000 0.000000 0.000000 0.000000 0.034013
#
#
# Mechanical properties :
#
#
# Convention : Reuss Voigt Hill
#
# Bulk Modulus (GPa) = 48.88282 49.24322 49.06302
# Shear Modulus (GPa) = 10.69781 25.66328 18.18054
#
# Velocity S-wave (km/s) = 2.27055 3.51674 2.95997
# Velocity P-wave (km/s) = 5.51645 6.34200 5.94357
#
# Compressibility (1/GPa) = 0.02045708
#
# Stress axis : x y z
#
# Youngs Moduli (GPa) = 11.14655 11.14663 91.86842
#
# Poissons Ratio (x) = 0.88811 0.24133
# Poissons Ratio (y) = 0.88810 0.24122
# Poissons Ratio (z) = 0.02928 0.02927
#
# Static dielectric constant tensor:
#      x y z
#    x 1.741240 0.000000 0.000000 
#    y 0.000000 1.741240 0.000000 
#    z 0.000000 0.000000 1.748900 
# 
# From -- ./inp_files/1265.got.cif
#   From: 2010.05.17/outbox.cif.g08.bks.cpg/sg90_1_cif.got.tgz:1265.got - 2010.06.03 19:17:45.
