data_PCOD9547476
_publ_section_title
;
Structure prediction by ZEFSAII (Michael W. Deem and Ramdas Pophale) SiO2 
 PCOD9547476
Probable space group: P 41 2 2
;
_chemical_formula_sum "Si O2"
_cell_formula_units_Z 48
_cell_length_a 12.621976
_cell_length_b 12.621976
_cell_length_c 15.271886
_cell_angle_alpha 90.000000
_cell_angle_beta 90.000000
_cell_angle_gamma 90.000000
_cell_volume 2433.029494
_symmetry_space_group_name_H-M "P 41 2 2"
_symmetry_group_IT_number 91
_symmetry_cell_setting 'tetragonal'
loop_
_space_group_symop_operation_xyz
x,y,z
-y,x,1/4+z
-x,-y,1/2+z
y,-x,3/4+z
x,-y,1/2-z
-x,y,-z
y,x,3/4-z
-y,-x,1/4-z
loop_
_atom_site_type_symbol
_atom_site_label
_atom_site_fract_x
_atom_site_fract_y
_atom_site_fract_z
Si Si1 0.843647 0.598718 0.843305
Si Si2 0.268151 0.304134 0.513363
Si Si3 0.879638 0.119167 0.521725
Si Si4 0.203844 0.576452 0.826081
Si Si5 0.963807 0.276947 0.248491
Si Si6 0.006835 0.565414 0.603641
O O1 0.747999 0.626198 0.777126
O O2 0.944263 0.667985 0.809052
O O3 0.899296 0.485891 0.856778
O O4 0.796747 0.634976 0.936856
O O5 0.192333 0.202621 0.531278
O O6 0.277630 0.379453 0.596984
O O7 0.862299 0.137702 0.625000
O O8 0.843816 0.999264 0.501775
O O9 0.000000 0.139339 0.500000
O O10 0.249111 0.500000 0.750000
O O11 0.146895 0.678960 0.783209
O O12 0.106462 0.508310 0.867810
O O13 0.976786 0.324038 0.151831
O O14 0.000000 0.569576 0.500000
#
# Coordination Sequence:
#
# PCOD9547476 Si02
#       6
#     8   8   8   8   8   8
#     4   9  16  26  41  70  99 132 160 220 283 346
#     4  10  16  26  44  71 105 127 166 216 288 348
#     4  11  20  31  48  69  97 140 180 235 291 328
#     4   9  17  27  45  68  99 135 174 224 284 356
#     4   9  18  30  40  69  95 134 187 225 280 339
#     4  10  17  27  46  65 100 140 175 221 290 343
#
# _framework density 19.728490000000001
#
# number of rings (size 3 to 8) (size 9 to 14) (size 15 to 20)
#    0.000    2.333    5.000    2.500    2.333    0.000 
#    0.000    0.833    0.000    0.000    0.000   14.000 
#    0.000    0.000   39.667    0.333    0.000    0.000 
#
# Total GULP energy -267341.802384 kJ/mol
# GULP energy per Si atom -5569.620883 kJ/mol
# Density = 1.968359 g / cm^3
# Si number density = 19.728490 Si / 1000 Ang^3
#
#
#
# Elastic Constant Matrix: (Units=GPa)
#
#
# Indices 1 2 3 4 5 6 
#
# 1 31.9310 1.8669 21.7926 0.0000 0.0000 0.0000
# 2 1.8669 31.9310 21.7925 0.0000 0.0000 0.0000
# 3 21.7926 21.7925 111.8206 0.0000 0.0000 0.0000
# 4 0.0000 0.0000 0.0000 27.6108 0.0000 0.0000
# 5 0.0000 0.0000 0.0000 0.0000 27.6109 0.0000
# 6 0.0000 0.0000 0.0000 0.0000 0.0000 10.7767
#
#
#
# Elastic Compliance Matrix: (Units=1/GPa)
#
#
# Indices 1 2 3 4 5 6 
#
# 1 0.036391 0.003129 -0.007702 0.000000 0.000000 0.000000
# 2 0.003129 0.036391 -0.007702 0.000000 0.000000 0.000000
# 3 -0.007702 -0.007702 0.011945 0.000000 0.000000 0.000000
# 4 0.000000 0.000000 0.000000 0.036218 0.000000 0.000000
# 5 0.000000 0.000000 0.000000 0.000000 0.036218 0.000000
# 6 0.000000 0.000000 0.000000 0.000000 0.000000 0.092792
#
#
# Mechanical properties :
#
#
# Convention : Reuss Voigt Hill
#
# Bulk Modulus (GPa) = 16.61764 29.62073 23.11919
# Shear Modulus (GPa) = 16.97422 21.88171 19.42797
#
# Velocity S-wave (km/s) = 2.93643 3.33399 3.14150
# Velocity P-wave (km/s) = 4.46523 5.46511 4.99028
#
# Compressibility (1/GPa) = 0.06017701
#
# Stress axis : x y z
#
# Youngs Moduli (GPa) = 27.47924 27.47921 83.71722
#
# Poissons Ratio (x) = -0.08598 0.64479
# Poissons Ratio (y) = -0.08598 0.64479
# Poissons Ratio (z) = 0.21165 0.21164
#
# Static dielectric constant tensor:
#      x y z
#    x 1.735640 0.000000 0.000000 
#    y 0.000000 1.735640 0.000000 
#    z 0.000000 0.000000 1.727080 
# 
# From -- ./inp_files/11470.got.cif
#   From: 2010.05.17/outbox.cif.g08.bks.cpg/sg91_6_cif.got.tgz:11470.got - 2010.06.03 19:20:03.
