data_PCOD9547680
_publ_section_title
;
Structure prediction by ZEFSAII (Michael W. Deem and Ramdas Pophale) SiO2 
 PCOD9547680
Probable space group: P 41 2 2
;
_chemical_formula_sum "Si O2"
_cell_formula_units_Z 56
_cell_length_a 16.930908
_cell_length_b 16.930908
_cell_length_c 12.788870
_cell_angle_alpha 90.000000
_cell_angle_beta 90.000000
_cell_angle_gamma 90.000000
_cell_volume 3666.001788
_symmetry_space_group_name_H-M "P 41 2 2"
_symmetry_group_IT_number 91
_symmetry_cell_setting 'tetragonal'
loop_
_space_group_symop_operation_xyz
x,y,z
-y,x,1/4+z
-x,-y,1/2+z
y,-x,3/4+z
x,-y,1/2-z
-x,y,-z
y,x,3/4-z
-y,-x,1/4-z
loop_
_atom_site_type_symbol
_atom_site_label
_atom_site_fract_x
_atom_site_fract_y
_atom_site_fract_z
Si Si1 0.687046 0.459157 0.454766
Si Si2 0.403368 0.064640 0.487507
Si Si3 0.652888 0.447550 0.852917
Si Si4 0.145552 0.576912 0.023650
Si Si5 0.246447 0.377904 0.871558
Si Si6 0.172080 0.598549 0.419462
Si Si7 0.113001 0.408025 0.715418
O O1 0.635856 0.501315 0.544412
O O2 0.631146 0.399071 0.395846
O O3 0.759357 0.415457 0.513989
O O4 0.725116 0.530633 0.387367
O O5 0.500000 0.068687 0.500000
O O6 0.385742 0.103915 0.374590
O O7 0.367513 0.115590 0.581631
O O8 0.379193 0.973736 0.497803
O O9 0.641275 0.500000 0.750000
O O10 0.745394 0.424937 0.863506
O O11 0.133325 0.482722 0.038268
O O12 0.115279 0.599848 0.909646
O O13 0.322391 0.322391 0.875000
O O14 0.189077 0.370778 0.772262
O O15 0.195931 0.356790 0.975503
O O16 0.116167 0.500000 0.750000
#
# Coordination Sequence:
#
# PCOD9547680 Si02
#       7
#     8   8   8   8   8   8   8
#     4  10  21  31  46  60  88 119 162 208 243 284
#     4   9  18  29  48  69  87 112 139 191 244 292
#     4  10  19  32  46  61  81 121 160 208 248 276
#     4   9  17  31  45  67  87 111 145 194 244 291
#     4  10  22  33  45  64  90 125 157 202 237 274
#     4   9  18  33  46  62  93 113 147 195 243 291
#     4  11  18  29  49  67  90 112 150 191 238 295
#
# _framework density 15.275497
#
# number of rings (size 3 to 8) (size 9 to 14) (size 15 to 20)
#    0.000    2.571    2.857    3.000    4.000    1.714 
#    0.000    0.000    0.000    0.000    0.000    0.000 
#    0.000    0.000    0.000    0.000    0.000   11.429 
#
# Total GULP energy -311862.433012 kJ/mol
# GULP energy per Si atom -5568.972018 kJ/mol
# Density = 1.524073 g / cm^3
# Si number density = 15.275497 Si / 1000 Ang^3
#
#
#
# Elastic Constant Matrix: (Units=GPa)
#
#
# Indices 1 2 3 4 5 6 
#
# 1 39.8423 27.2987 21.6690 0.0000 0.0000 0.0000
# 2 27.2987 39.8423 21.6690 0.0000 0.0000 0.0000
# 3 21.6690 21.6690 85.0475 0.0000 0.0000 0.0000
# 4 0.0000 0.0000 0.0000 14.2079 0.0000 0.0000
# 5 0.0000 0.0000 0.0000 0.0000 14.2079 0.0000
# 6 0.0000 0.0000 0.0000 0.0000 0.0000 1.2718
#
#
#
# Elastic Compliance Matrix: (Units=1/GPa)
#
#
# Indices 1 2 3 4 5 6 
#
# 1 0.048774 -0.030948 -0.004542 0.000000 0.000000 0.000000
# 2 -0.030948 0.048774 -0.004542 0.000000 0.000000 0.000000
# 3 -0.004542 -0.004542 0.014072 0.000000 0.000000 0.000000
# 4 0.000000 0.000000 0.000000 0.070383 0.000000 0.000000
# 5 0.000000 0.000000 0.000000 0.000000 0.070383 0.000000
# 6 0.000000 0.000000 0.000000 0.000000 0.000000 0.786259
#
#
# Mechanical properties :
#
#
# Convention : Reuss Voigt Hill
#
# Bulk Modulus (GPa) = 31.68892 34.00060 32.84476
# Shear Modulus (GPa) = 4.42780 12.21054 8.31917
#
# Velocity S-wave (km/s) = 1.70438 2.83035 2.33622
# Velocity P-wave (km/s) = 4.96621 5.74350 5.36894
#
# Compressibility (1/GPa) = 0.03155677
#
# Stress axis : x y z
#
# Youngs Moduli (GPa) = 20.50276 20.50276 71.06062
#
# Poissons Ratio (x) = 0.63453 0.32274
# Poissons Ratio (y) = 0.63453 0.32274
# Poissons Ratio (z) = 0.09312 0.09312
#
# Static dielectric constant tensor:
#      x y z
#    x 1.510550 0.000000 0.000000 
#    y 0.000000 1.510550 0.000000 
#    z 0.000000 0.000000 1.567610 
# 
# From -- ./inp_files/16035.got.cif
#   From: 2010.05.17/outbox.cif.g08.bks.cpg/sg91_9_cif.got.tgz:16035.got - 2010.06.03 19:20:03.
