data_PCOD9547569
_publ_section_title
;
Structure prediction by ZEFSAII (Michael W. Deem and Ramdas Pophale) SiO2 
 PCOD9547569
Probable space group: P 41 2 2
;
_chemical_formula_sum "Si O2"
_cell_formula_units_Z 40
_cell_length_a 8.859021
_cell_length_b 8.859021
_cell_length_c 23.247275
_cell_angle_alpha 90.000000
_cell_angle_beta 90.000000
_cell_angle_gamma 90.000000
_cell_volume 1824.498520
_symmetry_space_group_name_H-M "P 41 2 2"
_symmetry_group_IT_number 91
_symmetry_cell_setting 'tetragonal'
loop_
_space_group_symop_operation_xyz
x,y,z
-y,x,1/4+z
-x,-y,1/2+z
y,-x,3/4+z
x,-y,1/2-z
-x,y,-z
y,x,3/4-z
-y,-x,1/4-z
loop_
_atom_site_type_symbol
_atom_site_label
_atom_site_fract_x
_atom_site_fract_y
_atom_site_fract_z
Si Si1 0.157686 0.370537 0.497273
Si Si2 0.241771 0.380220 0.922354
Si Si3 0.174029 0.840855 0.475705
Si Si4 0.686540 0.854958 0.927409
Si Si5 0.397612 0.912027 0.855488
O O1 0.214465 0.453810 0.553458
O O2 0.294306 0.278673 0.472159
O O3 0.107301 0.500259 0.452233
O O4 0.000000 0.277652 0.500000
O O5 0.369825 0.369825 0.875000
O O6 0.084967 0.345662 0.889319
O O7 0.254499 0.262606 0.975390
O O8 0.175235 0.750789 0.414642
O O9 0.000000 0.855845 0.500000
O O10 0.252860 0.997168 0.459911
O O11 0.798391 0.798391 0.875000
O O12 0.516437 0.871424 0.904500
#
# Coordination Sequence:
#
# PCOD9547569 Si02
#       5
#     8   8   8   8   8
#     4   8  15  30  53  85 117 147 190 246 298 350
#     4   9  17  33  55  76 113 161 194 234 296 354
#     4   9  18  32  53  85 117 149 199 249 289 351
#     4  10  18  31  58  91 117 149 194 247 307 357
#     4   8  17  32  51  81 119 150 184 242 300 348
#
# _framework density 21.923832000000001
#
# number of rings (size 3 to 8) (size 9 to 14) (size 15 to 20)
#    0.000    3.200    0.000    3.000    0.000    3.200 
#    0.000    1.000    0.000   10.800    0.000    2.800 
#    0.000    0.000    0.000    0.000    0.000    0.000 
#
# Total GULP energy -222724.085286 kJ/mol
# GULP energy per Si atom -5568.102132 kJ/mol
# Density = 2.187393 g / cm^3
# Si number density = 21.923832 Si / 1000 Ang^3
#
#
#
# Elastic Constant Matrix: (Units=GPa)
#
#
# Indices 1 2 3 4 5 6 
#
# 1 48.5254 23.4368 39.9422 0.0000 0.0000 0.0000
# 2 23.4368 48.5254 39.9422 0.0000 0.0000 0.0000
# 3 39.9422 39.9422 81.8297 0.0000 0.0000 0.0000
# 4 0.0000 0.0000 0.0000 27.4315 0.0000 0.0000
# 5 0.0000 0.0000 0.0000 0.0000 27.4315 0.0000
# 6 0.0000 0.0000 0.0000 0.0000 0.0000 10.9588
#
#
#
# Elastic Compliance Matrix: (Units=1/GPa)
#
#
# Indices 1 2 3 4 5 6 
#
# 1 0.035095 -0.004764 -0.014805 0.000000 0.000000 0.000000
# 2 -0.004764 0.035095 -0.014805 0.000000 0.000000 0.000000
# 3 -0.014805 -0.014805 0.026673 0.000000 0.000000 0.000000
# 4 0.000000 0.000000 0.000000 0.036455 0.000000 0.000000
# 5 0.000000 0.000000 0.000000 0.000000 0.036455 0.000000
# 6 0.000000 0.000000 0.000000 0.000000 0.000000 0.091251
#
#
# Mechanical properties :
#
#
# Convention : Reuss Voigt Hill
#
# Bulk Modulus (GPa) = 35.56744 42.83589 39.20166
# Shear Modulus (GPa) = 14.74305 18.20163 16.47234
#
# Velocity S-wave (km/s) = 2.59601 2.88448 2.74404
# Velocity P-wave (km/s) = 5.02435 5.53846 5.28766
#
# Compressibility (1/GPa) = 0.02811560
#
# Stress axis : x y z
#
# Youngs Moduli (GPa) = 28.49423 28.49423 37.49042
#
# Poissons Ratio (x) = 0.13574 0.55504
# Poissons Ratio (y) = 0.13574 0.55504
# Poissons Ratio (z) = 0.42186 0.42186
#
# Static dielectric constant tensor:
#      x y z
#    x 1.827670 0.000000 0.000000 
#    y 0.000000 1.827670 0.000000 
#    z 0.000000 0.000000 1.858900 
# 
# From -- ./inp_files/6771.got.cif
#   From: 2010.05.17/outbox.cif.g08.bks.cpg/sg91_4_cif.got.tgz:6771.got - 2010.06.03 19:20:03.
