data_PCOD9547859
_publ_section_title
;
Structure prediction by ZEFSAII (Michael W. Deem and Ramdas Pophale) SiO2 
 PCOD9547859
Probable space group: P 41 2 2
;
_chemical_formula_sum "Si O2"
_cell_formula_units_Z 48
_cell_length_a 11.920125
_cell_length_b 11.920125
_cell_length_c 16.837077
_cell_angle_alpha 90.000000
_cell_angle_beta 90.000000
_cell_angle_gamma 90.000000
_cell_volume 2392.369832
_symmetry_space_group_name_H-M "P 41 2 2"
_symmetry_group_IT_number 91
_symmetry_cell_setting 'tetragonal'
loop_
_space_group_symop_operation_xyz
x,y,z
-y,x,1/4+z
-x,-y,1/2+z
y,-x,3/4+z
x,-y,1/2-z
-x,y,-z
y,x,3/4-z
-y,-x,1/4-z
loop_
_atom_site_type_symbol
_atom_site_label
_atom_site_fract_x
_atom_site_fract_y
_atom_site_fract_z
Si Si1 0.984273 0.161380 0.284320
Si Si2 0.612681 0.869067 0.769472
Si Si3 0.680761 0.680761 0.375000
Si Si4 0.802321 0.197680 0.625000
Si Si5 0.278739 0.500000 0.750000
Si Si6 0.303314 0.806194 0.395354
Si Si7 0.866250 0.653525 0.504794
Si Si8 0.934633 0.065368 0.125000
O O1 0.929569 0.261602 0.332210
O O2 0.944561 0.158615 0.193218
O O3 0.116425 0.162493 0.301491
O O4 0.936977 0.050296 0.326409
O O5 0.677222 0.827786 0.847359
O O6 0.664887 0.798617 0.696289
O O7 0.478652 0.857293 0.773570
O O8 0.635313 0.000000 0.750000
O O9 0.660739 0.586096 0.308727
O O10 0.799709 0.672468 0.421371
O O11 0.210995 0.417158 0.693683
O O12 0.205925 0.724613 0.430586
O O13 0.000000 0.682613 0.500000
#
# Coordination Sequence:
#
# PCOD9547859 Si02
#       8
#     8   8   4   4   4   8   8   4
#     4  10  20  35  57  92 126 167 205 266 312 394
#     4  11  22  45  67  92 135 179 217 268 331 406
#     4  10  20  45  70  94 131 170 226 274 335 396
#     4  11  22  38  66  94 129 180 218 256 339 394
#     4  10  22  40  68  94 120 174 218 274 326 390
#     4  11  22  42  65  94 125 166 218 264 325 390
#     4  10  24  43  68  96 130 173 219 278 326 390
#     4   9  20  33  52  90 132 162 210 246 324 370
#
# _framework density 20.063787999999999
#
# number of rings (size 3 to 8) (size 9 to 14) (size 15 to 20)
#    0.000    1.667    3.333    1.000    4.667    2.667 
#    6.000    4.167    0.000    0.000    0.000    0.000 
#    0.000    0.000    0.000    0.000    0.000    0.000 
#
# Total GULP energy -267767.762327 kJ/mol
# GULP energy per Si atom -5578.495048 kJ/mol
# Density = 2.001812 g / cm^3
# Si number density = 20.063788 Si / 1000 Ang^3
#
#
#
# Elastic Constant Matrix: (Units=GPa)
#
#
# Indices 1 2 3 4 5 6 
#
# 1 105.1181 29.6164 25.2234 0.0000 0.0000 0.0000
# 2 29.6164 105.1187 25.2239 0.0000 0.0000 0.0000
# 3 25.2234 25.2239 78.5886 0.0000 0.0000 0.0000
# 4 0.0000 0.0000 0.0000 24.9389 0.0000 0.0000
# 5 0.0000 0.0000 0.0000 0.0000 24.9390 0.0000
# 6 0.0000 0.0000 0.0000 0.0000 0.0000 15.1453
#
#
#
# Elastic Compliance Matrix: (Units=1/GPa)
#
#
# Indices 1 2 3 4 5 6 
#
# 1 0.010840 -0.002404 -0.002707 0.000000 0.000000 0.000000
# 2 -0.002404 0.010840 -0.002708 0.000000 0.000000 0.000000
# 3 -0.002707 -0.002708 0.014462 0.000000 0.000000 0.000000
# 4 0.000000 0.000000 0.000000 0.040098 0.000000 0.000000
# 5 0.000000 0.000000 0.000000 0.000000 0.040098 0.000000
# 6 0.000000 0.000000 0.000000 0.000000 0.000000 0.066027
#
#
# Mechanical properties :
#
#
# Convention : Reuss Voigt Hill
#
# Bulk Modulus (GPa) = 48.77124 49.88364 49.32744
# Shear Modulus (GPa) = 24.40934 26.92208 25.66571
#
# Velocity S-wave (km/s) = 3.49174 3.66707 3.58048
# Velocity P-wave (km/s) = 6.37317 6.54571 6.46001
#
# Compressibility (1/GPa) = 0.02050389
#
# Stress axis : x y z
#
# Youngs Moduli (GPa) = 92.24901 92.24931 69.14441
#
# Poissons Ratio (x) = 0.22181 0.18721
# Poissons Ratio (y) = 0.22181 0.18721
# Poissons Ratio (z) = 0.24976 0.24977
#
# Static dielectric constant tensor:
#      x y z
#    x 1.751930 0.000000 0.000000 
#    y 0.000000 1.751930 0.000000 
#    z 0.000000 0.000000 1.588190 
# 
# From -- ./inp_files/5676.got.cif
#   From: 2010.05.17/outbox.cif.g08.bks.cpg/sg91_3_cif.got.tgz:5676.got - 2010.06.03 19:20:03.
