data_PCOD9547449
_publ_section_title
;
Structure prediction by ZEFSAII (Michael W. Deem and Ramdas Pophale) SiO2 
 PCOD9547449
Probable space group: P 4 21 2
;
_chemical_formula_sum "Si O2"
_cell_formula_units_Z 22
_cell_length_a 13.742869
_cell_length_b 13.742869
_cell_length_c 4.779456
_cell_angle_alpha 90.000000
_cell_angle_beta 90.000000
_cell_angle_gamma 90.000000
_cell_volume 902.678880
_symmetry_space_group_name_H-M "P 4 21 2"
_symmetry_group_IT_number 90
_symmetry_cell_setting 'tetragonal'
loop_
_space_group_symop_operation_xyz
x,y,z
1/2-y,1/2+x,z
-x,-y,z
1/2+y,1/2-x,z
1/2+x,1/2-y,-z
1/2-x,1/2+y,-z
y,x,-z
-y,-x,-z
loop_
_atom_site_type_symbol
_atom_site_label
_atom_site_fract_x
_atom_site_fract_y
_atom_site_fract_z
Si Si1 0.000000 0.500000 0.034651
Si Si2 0.453732 0.684073 0.617974
Si Si3 0.770118 0.770118 0.000000
Si Si4 0.946233 0.276072 0.907674
O O1 0.022129 0.618515 0.021917
O O2 0.419864 0.580137 0.500000
O O3 0.490061 0.748918 0.361001
O O4 0.357968 0.722009 0.780428
O O5 0.534947 0.694732 0.854928
O O6 0.667528 0.777640 0.155646
#
# Coordination Sequence:
#
# PCOD9547449 Si02
#       4
#     2   8   4   8
#     4  12  24  46  72 122 144 194 268 326 388 470
#     4  12  25  50  72 108 156 203 255 325 390 475
#     4  12  28  52  77 117 168 204 264 336 406 466
#     4  12  28  43  82 110 154 207 261 326 406 461
#
# _framework density 24.371898000000002
#
# number of rings (size 3 to 8) (size 9 to 14) (size 15 to 20)
#    0.000    0.000    7.273    0.000   10.182    1.455 
#    0.000    5.455    0.000    0.000    0.000    0.000 
#    0.000    0.000    0.000    0.000    0.000    0.000 
#
# Total GULP energy -122673.611634 kJ/mol
# GULP energy per Si atom -5576.073256 kJ/mol
# Density = 2.431643 g / cm^3
# Si number density = 24.371898 Si / 1000 Ang^3
#
#
#
# Elastic Constant Matrix: (Units=GPa)
#
#
# Indices 1 2 3 4 5 6 
#
# 1 104.0319 34.0289 18.0690 0.0000 0.0000 0.0000
# 2 34.0289 104.0352 18.0708 0.0000 0.0000 0.0000
# 3 18.0690 18.0708 102.2408 0.0000 0.0000 0.0000
# 4 0.0000 0.0000 0.0000 17.6791 0.0000 0.0000
# 5 0.0000 0.0000 0.0000 0.0000 17.6783 0.0000
# 6 0.0000 0.0000 0.0000 0.0000 0.0000 48.1691
#
#
#
# Elastic Compliance Matrix: (Units=1/GPa)
#
#
# Indices 1 2 3 4 5 6 
#
# 1 0.010940 -0.003345 -0.001342 0.000000 0.000000 0.000000
# 2 -0.003345 0.010939 -0.001342 0.000000 0.000000 0.000000
# 3 -0.001342 -0.001342 0.010255 0.000000 0.000000 0.000000
# 4 0.000000 0.000000 0.000000 0.056564 0.000000 0.000000
# 5 0.000000 0.000000 0.000000 0.000000 0.056567 0.000000
# 6 0.000000 0.000000 0.000000 0.000000 0.000000 0.020760
#
#
# Mechanical properties :
#
#
# Convention : Reuss Voigt Hill
#
# Bulk Modulus (GPa) = 49.81259 50.07170 49.94215
# Shear Modulus (GPa) = 27.05973 32.71457 29.88715
#
# Velocity S-wave (km/s) = 3.33571 3.66773 3.50565
# Velocity P-wave (km/s) = 5.94297 6.20691 6.07637
#
# Compressibility (1/GPa) = 0.02007524
#
# Stress axis : x y z
#
# Youngs Moduli (GPa) = 91.40970 91.41213 97.51074
#
# Poissons Ratio (x) = 0.30579 0.13087
# Poissons Ratio (y) = 0.30578 0.13089
# Poissons Ratio (z) = 0.12268 0.12271
#
# Static dielectric constant tensor:
#      x y z
#    x 1.953390 0.000000 0.000000 
#    y 0.000000 1.953390 0.000000 
#    z 0.000000 0.000000 1.949150 
# 
# From -- ./inp_files/193.got.cif
#   From: 2010.05.17/outbox.cif.g08.bks.cpg/sg90_1_cif.got.tgz:193.got - 2010.06.03 19:17:45.
