data_PCOD9547022
_publ_section_title
;
Structure prediction by ZEFSAII (Michael W. Deem and Ramdas Pophale) SiO2 
 PCOD9547022
Probable space group: P 4 2 2
;
_chemical_formula_sum "Si O2"
_cell_formula_units_Z 40
_cell_length_a 8.395154
_cell_length_b 8.395154
_cell_length_c 25.134347
_cell_angle_alpha 90.000000
_cell_angle_beta 90.000000
_cell_angle_gamma 90.000000
_cell_volume 1771.433857
_symmetry_space_group_name_H-M "P 4 2 2"
_symmetry_group_IT_number 89
_symmetry_cell_setting 'tetragonal'
loop_
_space_group_symop_operation_xyz
x,y,z
-y,x,z
-x,-y,z
y,-x,z
x,-y,-z
-x,y,-z
y,x,-z
-y,-x,-z
loop_
_atom_site_type_symbol
_atom_site_label
_atom_site_fract_x
_atom_site_fract_y
_atom_site_fract_z
Si Si1 0.539237 0.763314 0.561018
Si Si2 0.593818 0.747362 0.738008
Si Si3 0.868445 0.772954 0.165265
Si Si4 0.325514 0.704867 0.060257
Si Si5 0.069687 0.741591 0.644248
O O1 0.375781 0.670348 0.572276
O O2 0.500000 0.809316 0.500000
O O3 0.622432 0.898516 0.595673
O O4 0.412550 0.697359 0.728566
O O5 0.633860 0.798399 0.798052
O O6 0.650768 0.883608 0.698114
O O7 0.822725 0.743673 0.104092
O O8 0.055199 0.790611 0.177467
O O9 0.284844 0.517307 0.067003
O O10 0.266722 0.733279 0.000000
O O11 0.894148 0.813344 0.642573
#
# Coordination Sequence:
#
# PCOD9547022 Si02
#       5
#     8   8   8   8   8
#     4   9  19  39  63  89 119 154 200 246 286 340
#     4  11  24  41  64  93 122 157 205 256 306 367
#     4  11  24  39  56  85 125 163 203 255 313 373
#     4   9  19  37  60  85 115 156 209 264 314 370
#     4  11  24  41  63  95 132 165 201 247 302 365
#
# _framework density 22.580580000000001
#
# number of rings (size 3 to 8) (size 9 to 14) (size 15 to 20)
#    0.000    1.800    0.000    4.800    0.000   13.600 
#    0.000   13.000    0.000    4.800    0.000    0.000 
#    0.000    0.000    0.000    0.000    0.000    0.000 
#
# Total GULP energy -223463.000900 kJ/mol
# GULP energy per Si atom -5586.575022 kJ/mol
# Density = 2.252919 g / cm^3
# Si number density = 22.580580 Si / 1000 Ang^3
#
#
#
# Elastic Constant Matrix: (Units=GPa)
#
#
# Indices 1 2 3 4 5 6 
#
# 1 50.5594 53.5618 28.8821 0.0000 0.0000 0.0000
# 2 53.5618 50.5593 28.8820 0.0000 0.0000 0.0000
# 3 28.8821 28.8820 86.7421 0.0000 0.0000 0.0000
# 4 0.0000 0.0000 0.0000 -303.1062 0.0000 0.0000
# 5 0.0000 0.0000 0.0000 0.0000 -303.1235 0.0000
# 6 0.0000 0.0000 0.0000 0.0000 0.0000 47.2463
#
#
#
# Elastic Compliance Matrix: (Units=1/GPa)
#
#
# Indices 1 2 3 4 5 6 
#
# 1 -0.160638 0.172419 -0.003922 0.000000 0.000000 0.000000
# 2 0.172419 -0.160639 -0.003923 0.000000 0.000000 0.000000
# 3 -0.003922 -0.003923 0.014140 0.000000 0.000000 0.000000
# 4 0.000000 0.000000 0.000000 -0.003299 0.000000 0.000000
# 5 0.000000 0.000000 0.000000 0.000000 -0.003299 0.000000
# 6 0.000000 0.000000 0.000000 0.000000 0.000000 0.021166
#
#
# Mechanical properties :
#
#
# Convention : Reuss Voigt Hill
#
# Bulk Modulus (GPa) = 45.43110 45.61253 45.52181
# Shear Modulus (GPa) = -8.13828 -106.69436 -57.41632
#
# Velocity S-wave (km/s) = -1.90051 -6.88136 -5.04802
# Velocity P-wave (km/s) = 3.91757 6.54933 3.71122
#
# Compressibility (1/GPa) = 0.02201135
#
# Stress axis : x y z
#
# Youngs Moduli (GPa) = -6.22516 -6.22515 70.71893
#
# Poissons Ratio (x) = 1.07333 0.27738
# Poissons Ratio (y) = 1.07333 0.27740
# Poissons Ratio (z) = -0.02442 -0.02442
#
# Static dielectric constant tensor:
#      x y z
#    x 1.887140 0.000000 0.000000 
#    y 0.000000 1.887140 0.000000 
#    z 0.000000 0.000000 1.833230 
# 
# From -- ./inp_files/2687.got.cif
#   From: 2010.05.17/outbox.cif.g08.bks.cpg/sg89_2_cif.got.tgz:2687.got - 2010.06.03 19:15:31.
