data_PCOD9547392
_publ_section_title
;
Structure prediction by ZEFSAII (Michael W. Deem and Ramdas Pophale) SiO2 
 PCOD9547392
Probable space group: P 4 21 2
;
_chemical_formula_sum "Si O2"
_cell_formula_units_Z 18
_cell_length_a 8.246882
_cell_length_b 8.246882
_cell_length_c 12.141594
_cell_angle_alpha 90.000000
_cell_angle_beta 90.000000
_cell_angle_gamma 90.000000
_cell_volume 825.762711
_symmetry_space_group_name_H-M "P 4 21 2"
_symmetry_group_IT_number 90
_symmetry_cell_setting 'tetragonal'
loop_
_space_group_symop_operation_xyz
x,y,z
1/2-y,1/2+x,z
-x,-y,z
1/2+y,1/2-x,z
1/2+x,1/2-y,-z
1/2-x,1/2+y,-z
y,x,-z
-y,-x,-z
loop_
_atom_site_type_symbol
_atom_site_label
_atom_site_fract_x
_atom_site_fract_y
_atom_site_fract_z
Si Si1 0.054005 0.765774 0.798523
Si Si2 0.000000 0.000000 0.000000
Si Si3 0.236784 0.922710 0.604053
O O1 0.181288 0.619040 0.782355
O O2 0.130622 0.892226 0.712674
O O3 0.027248 0.849958 0.916651
O O4 0.395736 0.806633 0.601140
O O5 0.129206 0.870795 0.500000
#
# Coordination Sequence:
#
# PCOD9547392 Si02
#       3
#     8   2   8
#     4  11  24  42  66  96 131 176 229 285 350 419
#     4  12  24  44  66  92 128 172 224 290 352 412
#     4  11  24  42  67 102 143 186 232 285 349 419
#
# _framework density 21.798029
#
# number of rings (size 3 to 8) (size 9 to 14) (size 15 to 20)
#    0.000    0.889    0.000    6.667    0.000    8.000 
#    0.000    4.444    0.000    0.000    0.000    0.000 
#    0.000    0.000    0.000    0.000    0.000    0.000 
#
# Total GULP energy -100498.669622 kJ/mol
# GULP energy per Si atom -5583.259423 kJ/mol
# Density = 2.174842 g / cm^3
# Si number density = 21.798029 Si / 1000 Ang^3
#
#
#
# Elastic Constant Matrix: (Units=GPa)
#
#
# Indices 1 2 3 4 5 6 
#
# 1 241.6300 -30.3163 54.6998 0.0000 0.0000 0.0000
# 2 -30.3163 241.6237 54.7052 0.0000 0.0000 0.0000
# 3 54.6998 54.7052 112.4078 0.0000 0.0000 0.0000
# 4 0.0000 0.0000 0.0000 44.6754 0.0000 0.0000
# 5 0.0000 0.0000 0.0000 0.0000 44.6755 0.0000
# 6 0.0000 0.0000 0.0000 0.0000 0.0000 48.8445
#
#
#
# Elastic Compliance Matrix: (Units=1/GPa)
#
#
# Indices 1 2 3 4 5 6 
#
# 1 0.005002 0.001325 -0.003079 0.000000 0.000000 0.000000
# 2 0.001325 0.005002 -0.003079 0.000000 0.000000 0.000000
# 3 -0.003079 -0.003079 0.011893 0.000000 0.000000 0.000000
# 4 0.000000 0.000000 0.000000 0.022384 0.000000 0.000000
# 5 0.000000 0.000000 0.000000 0.000000 0.022384 0.000000
# 6 0.000000 0.000000 0.000000 0.000000 0.000000 0.020473
#
#
# Mechanical properties :
#
#
# Convention : Reuss Voigt Hill
#
# Bulk Modulus (GPa) = 81.76211 83.75989 82.76100
# Shear Modulus (GPa) = 49.56430 62.07727 55.82079
#
# Velocity S-wave (km/s) = 4.77361 5.34230 5.06594
# Velocity P-wave (km/s) = 8.24460 8.75000 8.50106
#
# Compressibility (1/GPa) = 0.01223060
#
# Stress axis : x y z
#
# Youngs Moduli (GPa) = 199.93389 199.92313 84.08582
#
# Poissons Ratio (x) = -0.26481 0.25886
# Poissons Ratio (y) = -0.26482 0.25889
# Poissons Ratio (z) = 0.61550 0.61553
#
# Static dielectric constant tensor:
#      x y z
#    x 1.864450 0.000000 0.000000 
#    y 0.000000 1.864450 0.000000 
#    z 0.000000 0.000000 1.763340 
# 
# From -- ./inp_files/837.got.cif
#   From: 2010.05.17/outbox.cif.g08.bks.cpg/sg90_1_cif.got.tgz:837.got - 2010.06.03 19:17:45.
