data_PCOD9547356
_publ_section_title
;
Structure prediction by ZEFSAII (Michael W. Deem and Ramdas Pophale) SiO2 
 PCOD9547356
Probable space group: P 4 21 2
;
_chemical_formula_sum "Si O2"
_cell_formula_units_Z 48
_cell_length_a 7.895357
_cell_length_b 7.895357
_cell_length_c 34.415454
_cell_angle_alpha 90.000000
_cell_angle_beta 90.000000
_cell_angle_gamma 90.000000
_cell_volume 2145.344529
_symmetry_space_group_name_H-M "P 4 21 2"
_symmetry_group_IT_number 90
_symmetry_cell_setting 'tetragonal'
loop_
_space_group_symop_operation_xyz
x,y,z
1/2-y,1/2+x,z
-x,-y,z
1/2+y,1/2-x,z
1/2+x,1/2-y,-z
1/2-x,1/2+y,-z
y,x,-z
-y,-x,-z
loop_
_atom_site_type_symbol
_atom_site_label
_atom_site_fract_x
_atom_site_fract_y
_atom_site_fract_z
Si Si1 0.266809 0.599869 0.040449
Si Si2 0.594421 0.267453 0.619252
Si Si3 0.903576 0.767622 0.539845
Si Si4 0.733681 0.603779 0.832630
Si Si5 0.233669 0.896097 0.254062
Si Si6 0.000000 0.000000 0.316838
Si Si7 0.500000 0.500000 0.104482
O O1 0.209862 0.403707 0.042340
O O2 0.395222 0.623358 0.076099
O O3 0.356800 0.643201 0.000000
O O4 0.399920 0.207894 0.621992
O O5 0.628490 0.352644 0.577849
O O6 0.622880 0.397326 0.654347
O O7 0.791388 0.596919 0.540703
O O8 0.862185 0.862185 0.500000
O O9 0.906423 0.709663 0.835483
O O10 0.662625 0.632987 0.789290
O O11 0.601654 0.626095 0.867111
O O12 0.406478 0.790273 0.256974
O O13 0.101095 0.873645 0.288431
#
# Coordination Sequence:
#
# PCOD9547356 Si02
#       7
#     8   8   8   8   8   4   4
#     4  11  24  41  60  84 117 158 204 252 303 361
#     4  11  24  40  58  85 120 156 196 243 296 354
#     4  11  24  42  65  92 121 156 198 243 293 350
#     4   9  19  35  55  82 115 150 189 235 290 354
#     4   9  19  36  57  82 113 150 193 238 287 348
#     4  12  21  36  59  85 112 151 195 244 295 342
#     4  12  20  34  58  87 116 149 192 246 302 356
#
# _framework density 22.374026000000001
#
# number of rings (size 3 to 8) (size 9 to 14) (size 15 to 20)
#    0.000    1.500    0.000    6.750    0.000    3.000 
#    0.000    3.333    0.000    0.000    0.000   14.000 
#    0.000    0.000    0.000    0.000    0.000    0.000 
#
# Total GULP energy -268647.109904 kJ/mol
# GULP energy per Si atom -5596.814790 kJ/mol
# Density = 2.232310 g / cm^3
# Si number density = 22.374026 Si / 1000 Ang^3
#
#
#
# Elastic Constant Matrix: (Units=GPa)
#
#
# Indices 1 2 3 4 5 6 
#
# 1 62.5773 6.5929 31.7068 0.0000 0.0000 0.0000
# 2 6.5929 62.5774 31.7068 0.0000 0.0000 0.0000
# 3 31.7068 31.7068 188.4320 0.0000 0.0000 0.0000
# 4 0.0000 0.0000 0.0000 28.8196 0.0000 0.0000
# 5 0.0000 0.0000 0.0000 0.0000 28.8196 0.0000
# 6 0.0000 0.0000 0.0000 0.0000 0.0000 29.2954
#
#
#
# Elastic Compliance Matrix: (Units=1/GPa)
#
#
# Indices 1 2 3 4 5 6 
#
# 1 0.017478 -0.000384 -0.002876 0.000000 0.000000 0.000000
# 2 -0.000384 0.017478 -0.002876 0.000000 0.000000 0.000000
# 3 -0.002876 -0.002876 0.006275 0.000000 0.000000 0.000000
# 4 0.000000 0.000000 0.000000 0.034699 0.000000 0.000000
# 5 0.000000 0.000000 0.000000 0.000000 0.034699 0.000000
# 6 0.000000 0.000000 0.000000 0.000000 0.000000 0.034135
#
#
# Mechanical properties :
#
#
# Convention : Reuss Voigt Hill
#
# Bulk Modulus (GPa) = 34.53321 50.39998 42.46659
# Shear Modulus (GPa) = 29.99588 33.62557 31.81073
#
# Velocity S-wave (km/s) = 3.66547 3.88091 3.77473
# Velocity P-wave (km/s) = 5.77774 6.53123 6.16600
#
# Compressibility (1/GPa) = 0.02895763
#
# Stress axis : x y z
#
# Youngs Moduli (GPa) = 57.21444 57.21451 159.36389
#
# Poissons Ratio (x) = 0.02197 0.45839
# Poissons Ratio (y) = 0.02197 0.45839
# Poissons Ratio (z) = 0.16457 0.16457
#
# Static dielectric constant tensor:
#      x y z
#    x 1.841750 0.000000 0.000000 
#    y 0.000000 1.841750 0.000000 
#    z 0.000000 0.000000 1.802210 
# 
# From -- ./inp_files/3122.got.cif
#   From: 2010.05.17/outbox.cif.g08.bks.cpg/sg90_2_cif.got.tgz:3122.got - 2010.06.03 19:17:45.
