data_PCOD9547839
_publ_section_title
;
Structure prediction by ZEFSAII (Michael W. Deem and Ramdas Pophale) SiO2 
 PCOD9547839
Probable space group: P 41 2 2
;
_chemical_formula_sum "Si O2"
_cell_formula_units_Z 48
_cell_length_a 8.826758
_cell_length_b 8.826758
_cell_length_c 26.243142
_cell_angle_alpha 90.000000
_cell_angle_beta 90.000000
_cell_angle_gamma 90.000000
_cell_volume 2044.646673
_symmetry_space_group_name_H-M "P 41 2 2"
_symmetry_group_IT_number 91
_symmetry_cell_setting 'tetragonal'
loop_
_space_group_symop_operation_xyz
x,y,z
-y,x,1/4+z
-x,-y,1/2+z
y,-x,3/4+z
x,-y,1/2-z
-x,y,-z
y,x,3/4-z
-y,-x,1/4-z
loop_
_atom_site_type_symbol
_atom_site_label
_atom_site_fract_x
_atom_site_fract_y
_atom_site_fract_z
Si Si1 0.911636 0.488760 0.431084
Si Si2 0.783127 0.781305 0.315107
Si Si3 0.515213 0.239359 0.631260
Si Si4 0.560863 0.737913 0.577267
Si Si5 0.321320 0.009192 0.013164
Si Si6 0.300151 0.652647 0.273319
O O1 0.899884 0.658419 0.451966
O O2 0.800035 0.486839 0.382276
O O3 0.811065 0.385684 0.468206
O O4 0.076781 0.460829 0.407681
O O5 0.808024 0.808024 0.375000
O O6 0.722937 0.607953 0.303162
O O7 0.934921 0.783202 0.282767
O O8 0.672265 0.327736 0.625000
O O9 0.415934 0.349084 0.667284
O O10 0.413717 0.234186 0.578245
O O11 0.677989 0.864961 0.556668
O O12 0.301741 0.831615 0.016725
O O13 0.500000 0.016697 0.000000
O O14 0.375859 0.500000 0.250000
#
# Coordination Sequence:
#
# PCOD9547839 Si02
#       6
#     8   8   8   8   8   8
#     4  10  20  34  55  84 114 151 190 229 287 355
#     4   9  16  30  52  79 105 137 188 242 281 326
#     4  11  22  38  58  86 124 160 192 240 306 372
#     4   9  18  35  59  83 108 144 195 246 287 335
#     4   9  17  32  58  83 104 139 194 248 283 326
#     4  10  20  37  61  83 111 157 203 241 289 354
#
# _framework density 23.475936999999998
#
# number of rings (size 3 to 8) (size 9 to 14) (size 15 to 20)
#    0.000    2.333    0.000    6.500    0.000    3.333 
#    0.000    7.500    0.000    6.000    0.000    0.000 
#    0.000    0.000    0.000    0.000    0.000    0.000 
#
# Total GULP energy -267312.801644 kJ/mol
# GULP energy per Si atom -5569.016701 kJ/mol
# Density = 2.342250 g / cm^3
# Si number density = 23.475937 Si / 1000 Ang^3
#
#
#
# Elastic Constant Matrix: (Units=GPa)
#
#
# Indices 1 2 3 4 5 6 
#
# 1 76.8932 47.1057 5.9849 0.0000 0.0000 0.0000
# 2 47.1057 76.8940 5.9848 0.0000 0.0000 0.0000
# 3 5.9849 5.9848 54.9235 0.0000 0.0000 0.0000
# 4 0.0000 0.0000 0.0000 39.9688 0.0000 0.0000
# 5 0.0000 0.0000 0.0000 0.0000 39.9686 0.0000
# 6 0.0000 0.0000 0.0000 0.0000 0.0000 -9.4179
#
#
#
# Elastic Compliance Matrix: (Units=1/GPa)
#
#
# Indices 1 2 3 4 5 6 
#
# 1 0.020861 -0.012710 -0.000888 0.000000 0.000000 0.000000
# 2 -0.012710 0.020860 -0.000888 0.000000 0.000000 0.000000
# 3 -0.000888 -0.000888 0.018401 0.000000 0.000000 0.000000
# 4 0.000000 0.000000 0.000000 0.025020 0.000000 0.000000
# 5 0.000000 0.000000 0.000000 0.000000 0.025020 0.000000
# 6 0.000000 0.000000 0.000000 0.000000 0.000000 -0.106181
#
#
# Mechanical properties :
#
#
# Convention : Reuss Voigt Hill
#
# Bulk Modulus (GPa) = 32.10394 36.31794 34.21094
# Shear Modulus (GPa) = 115.37932 24.07961 69.72946
#
# Velocity S-wave (km/s) = 7.01816 3.20615 5.45592
# Velocity P-wave (km/s) = 8.90942 5.40460 7.36843
#
# Compressibility (1/GPa) = 0.03114883
#
# Stress axis : x y z
#
# Youngs Moduli (GPa) = 47.93737 47.93789 54.34577
#
# Poissons Ratio (x) = 0.60930 0.04827
# Poissons Ratio (y) = 0.60929 0.04826
# Poissons Ratio (z) = 0.04258 0.04257
#
# Static dielectric constant tensor:
#      x y z
#    x 1.946470 0.000000 0.000000 
#    y 0.000000 1.946470 0.000000 
#    z 0.000000 0.000000 2.092650 
# 
# From -- ./inp_files/7959.got.cif
#   From: 2010.05.17/outbox.cif.g08.bks.cpg/sg91_4_cif.got.tgz:7959.got - 2010.06.03 19:20:03.
