data_PCOD9547630
_publ_section_title
;
Structure prediction by ZEFSAII (Michael W. Deem and Ramdas Pophale) SiO2 
 PCOD9547630
Probable space group: P 41 2 2
;
_chemical_formula_sum "Si O2"
_cell_formula_units_Z 48
_cell_length_a 11.750813
_cell_length_b 11.750813
_cell_length_c 17.847968
_cell_angle_alpha 90.000000
_cell_angle_beta 90.000000
_cell_angle_gamma 90.000000
_cell_volume 2464.476088
_symmetry_space_group_name_H-M "P 41 2 2"
_symmetry_group_IT_number 91
_symmetry_cell_setting 'tetragonal'
loop_
_space_group_symop_operation_xyz
x,y,z
-y,x,1/4+z
-x,-y,1/2+z
y,-x,3/4+z
x,-y,1/2-z
-x,y,-z
y,x,3/4-z
-y,-x,1/4-z
loop_
_atom_site_type_symbol
_atom_site_label
_atom_site_fract_x
_atom_site_fract_y
_atom_site_fract_z
Si Si1 0.506473 0.000000 0.750000
Si Si2 0.177382 0.342988 0.946351
Si Si3 0.087746 0.729507 0.708203
Si Si4 0.500000 0.504502 0.500000
Si Si5 0.087543 0.929798 0.323719
Si Si6 0.458982 0.668215 0.359168
Si Si7 0.340233 0.094471 0.117414
O O1 0.420257 0.107615 0.745507
O O2 0.587265 0.021423 0.822329
O O3 0.212809 0.214647 0.968838
O O4 0.100283 0.331889 0.871619
O O5 0.282692 0.419091 0.918882
O O6 0.063270 0.651371 0.779794
O O7 0.988990 0.822115 0.699040
O O8 0.461940 0.588048 0.432290
O O9 0.405549 0.425166 0.537432
O O10 0.206270 0.906272 0.364181
O O11 0.116394 0.000000 0.250000
O O12 0.007308 0.007308 0.375000
O O13 0.384471 0.777359 0.374583
#
# Coordination Sequence:
#
# PCOD9547630 Si02
#       7
#     4   8   8   4   8   8   8
#     4  10  24  38  56  84 136 170 202 248 320 394
#     4  10  21  37  60  99 128 153 209 272 334 370
#     4  11  22  36  68  98 122 158 211 279 328 374
#     4  10  18  36  64  92 112 154 210 258 316 362
#     4  12  23  39  64  94 126 168 212 257 315 395
#     4  10  20  36  63  88 123 160 200 264 312 380
#     4  11  23  40  60  88 129 173 205 250 324 390
#
# _framework density 19.476756999999999
#
# number of rings (size 3 to 8) (size 9 to 14) (size 15 to 20)
#    0.000    1.333    4.167    4.000    3.500    2.000 
#    0.000    0.000   22.000    0.000    0.000    0.000 
#    0.000    0.000    0.000    0.000    0.000    0.000 
#
# Total GULP energy -267686.405587 kJ/mol
# GULP energy per Si atom -5576.800116 kJ/mol
# Density = 1.943243 g / cm^3
# Si number density = 19.476757 Si / 1000 Ang^3
#
#
#
# Elastic Constant Matrix: (Units=GPa)
#
#
# Indices 1 2 3 4 5 6 
#
# 1 29.5568 40.7581 17.5171 0.0000 0.0000 0.0000
# 2 40.7581 29.5568 17.5171 0.0000 0.0000 0.0000
# 3 17.5171 17.5171 103.3275 0.0000 0.0000 0.0000
# 4 0.0000 0.0000 0.0000 27.5722 0.0000 0.0000
# 5 0.0000 0.0000 0.0000 0.0000 27.5722 0.0000
# 6 0.0000 0.0000 0.0000 0.0000 0.0000 33.9174
#
#
#
# Elastic Compliance Matrix: (Units=1/GPa)
#
#
# Indices 1 2 3 4 5 6 
#
# 1 -0.036870 0.052404 -0.002633 0.000000 0.000000 0.000000
# 2 0.052404 -0.036870 -0.002633 0.000000 0.000000 0.000000
# 3 -0.002633 -0.002633 0.010571 0.000000 0.000000 0.000000
# 4 0.000000 0.000000 0.000000 0.036268 0.000000 0.000000
# 5 0.000000 0.000000 0.000000 0.000000 0.036268 0.000000
# 6 0.000000 0.000000 0.000000 0.000000 0.000000 0.029483
#
#
# Mechanical properties :
#
#
# Convention : Reuss Voigt Hill
#
# Bulk Modulus (GPa) = 32.14942 34.89173 33.52058
# Shear Modulus (GPa) = -110.97277 23.58892 -43.69193
#
# Velocity S-wave (km/s) = -7.55650 3.48391 -4.74147
# Velocity P-wave (km/s) = 7.71958 5.84268 3.56756
#
# Compressibility (1/GPa) = 0.03110476
#
# Stress axis : x y z
#
# Youngs Moduli (GPa) = -27.12201 -27.12201 94.59966
#
# Poissons Ratio (x) = 1.42131 0.24912
# Poissons Ratio (y) = 1.42131 0.24912
# Poissons Ratio (z) = -0.07142 -0.07142
#
# Static dielectric constant tensor:
#      x y z
#    x 1.751800 0.000000 0.000000 
#    y 0.000000 1.751800 0.000000 
#    z 0.000000 0.000000 1.730730 
# 
# From -- ./inp_files/5637.got.cif
#   From: 2010.05.17/outbox.cif.g08.bks.cpg/sg91_3_cif.got.tgz:5637.got - 2010.06.03 19:20:03.
