data_PCOD9547273
_publ_section_title
;
Structure prediction by ZEFSAII (Michael W. Deem and Ramdas Pophale) SiO2 
 PCOD9547273
Probable space group: P 4 21 2
;
_chemical_formula_sum "Si O2"
_cell_formula_units_Z 40
_cell_length_a 13.588438
_cell_length_b 13.588438
_cell_length_c 10.049938
_cell_angle_alpha 90.000000
_cell_angle_beta 90.000000
_cell_angle_gamma 90.000000
_cell_volume 1855.677307
_symmetry_space_group_name_H-M "P 4 21 2"
_symmetry_group_IT_number 90
_symmetry_cell_setting 'tetragonal'
loop_
_space_group_symop_operation_xyz
x,y,z
1/2-y,1/2+x,z
-x,-y,z
1/2+y,1/2-x,z
1/2+x,1/2-y,-z
1/2-x,1/2+y,-z
y,x,-z
-y,-x,-z
loop_
_atom_site_type_symbol
_atom_site_label
_atom_site_fract_x
_atom_site_fract_y
_atom_site_fract_z
Si Si1 0.633078 0.734795 0.613825
Si Si2 0.097393 0.367251 0.026056
Si Si3 0.442370 0.604697 0.151229
Si Si4 0.091962 0.255526 0.306115
Si Si5 0.131721 0.778914 0.870826
O O1 0.655667 0.655667 0.500000
O O2 0.519524 0.758982 0.641027
O O3 0.695407 0.834086 0.589167
O O4 0.678955 0.689470 0.746900
O O5 0.131570 0.480623 0.014668
O O6 0.171359 0.327667 0.913216
O O7 0.109024 0.319616 0.171057
O O8 0.500000 0.500000 0.170679
O O9 0.355629 0.611002 0.258272
O O10 0.518225 0.695297 0.159560
O O11 0.400561 0.599440 0.000000
O O12 0.155317 0.844684 0.000000
#
# Coordination Sequence:
#
# PCOD9547273 Si02
#       5
#     8   8   8   8   8
#     4  12  29  48  72 107 145 200 255 312 376 459
#     4  11  23  39  69 107 142 188 240 297 368 448
#     4  11  21  37  67 108 144 180 231 312 373 425
#     4  12  24  47  74 101 146 198 246 303 381 450
#     4  12  22  42  68 106 146 182 246 307 371 444
#
# _framework density 21.555472000000002
#
# number of rings (size 3 to 8) (size 9 to 14) (size 15 to 20)
#    0.000    0.400    8.000    1.200    5.600    2.000 
#    0.000    1.000    0.000    0.000    0.000    0.000 
#    0.000    0.000    0.000    0.000    0.000    0.000 
#
# Total GULP energy -223376.661919 kJ/mol
# GULP energy per Si atom -5584.416548 kJ/mol
# Density = 2.150641 g / cm^3
# Si number density = 21.555472 Si / 1000 Ang^3
#
#
#
# Elastic Constant Matrix: (Units=GPa)
#
#
# Indices 1 2 3 4 5 6 
#
# 1 174.5410 -1.6483 29.1439 0.0000 0.0000 0.0000
# 2 -1.6483 174.5425 29.1437 0.0000 0.0000 0.0000
# 3 29.1439 29.1437 57.7994 0.0000 0.0000 0.0000
# 4 0.0000 0.0000 0.0000 19.6191 0.0000 0.0000
# 5 0.0000 0.0000 0.0000 0.0000 19.6191 0.0000
# 6 0.0000 0.0000 0.0000 0.0000 0.0000 52.2012
#
#
#
# Elastic Compliance Matrix: (Units=1/GPa)
#
#
# Indices 1 2 3 4 5 6 
#
# 1 0.006322 0.000646 -0.003514 0.000000 0.000000 0.000000
# 2 0.000646 0.006322 -0.003514 0.000000 0.000000 0.000000
# 3 -0.003514 -0.003514 0.020845 0.000000 0.000000 0.000000
# 4 0.000000 0.000000 0.000000 0.050971 0.000000 0.000000
# 5 0.000000 0.000000 0.000000 0.000000 0.050971 0.000000
# 6 0.000000 0.000000 0.000000 0.000000 0.000000 0.019157
#
#
# Mechanical properties :
#
#
# Convention : Reuss Voigt Hill
#
# Bulk Modulus (GPa) = 48.24665 57.79575 53.02120
# Shear Modulus (GPa) = 28.69314 41.63745 35.16529
#
# Velocity S-wave (km/s) = 3.65242 4.39981 4.04342
# Velocity P-wave (km/s) = 6.34177 7.25823 6.81542
#
# Compressibility (1/GPa) = 0.02072683
#
# Stress axis : x y z
#
# Youngs Moduli (GPa) = 158.17495 158.17664 47.97418
#
# Poissons Ratio (x) = -0.10224 0.16857
# Poissons Ratio (y) = -0.10224 0.16856
# Poissons Ratio (z) = 0.55578 0.55578
#
# Static dielectric constant tensor:
#      x y z
#    x 1.866270 0.000000 0.000000 
#    y 0.000000 1.866270 0.000000 
#    z 0.000000 0.000000 1.742810 
# 
# From -- ./inp_files/1329.got.cif
#   From: 2010.05.17/outbox.cif.g08.bks.cpg/sg90_1_cif.got.tgz:1329.got - 2010.06.03 19:17:45.
