data_PCOD9547189
_publ_section_title
;
Structure prediction by ZEFSAII (Michael W. Deem and Ramdas Pophale) SiO2 
 PCOD9547189
Probable space group: P 4 21 2
;
_chemical_formula_sum "Si O2"
_cell_formula_units_Z 52
_cell_length_a 18.974947
_cell_length_b 18.974947
_cell_length_c 6.388455
_cell_angle_alpha 90.000000
_cell_angle_beta 90.000000
_cell_angle_gamma 90.000000
_cell_volume 2300.154366
_symmetry_space_group_name_H-M "P 4 21 2"
_symmetry_group_IT_number 90
_symmetry_cell_setting 'tetragonal'
loop_
_space_group_symop_operation_xyz
x,y,z
1/2-y,1/2+x,z
-x,-y,z
1/2+y,1/2-x,z
1/2+x,1/2-y,-z
1/2-x,1/2+y,-z
y,x,-z
-y,-x,-z
loop_
_atom_site_type_symbol
_atom_site_label
_atom_site_fract_x
_atom_site_fract_y
_atom_site_fract_z
Si Si1 0.316155 0.599619 0.326749
Si Si2 0.645142 0.204874 0.973903
Si Si3 0.045498 0.293325 0.649406
Si Si4 0.031524 0.873175 0.118913
Si Si5 0.402388 0.250723 0.171770
Si Si6 0.862424 0.137577 0.500000
Si Si7 0.438489 0.900642 0.680769
O O1 0.362449 0.637552 0.500000
O O2 0.268839 0.653082 0.189138
O O3 0.262208 0.549810 0.458489
O O4 0.360976 0.549418 0.175251
O O5 0.595402 0.149533 0.851999
O O6 0.600473 0.229602 0.173759
O O7 0.711472 0.159398 0.047803
O O8 0.071735 0.366165 0.547543
O O9 0.967439 0.296338 0.745247
O O10 0.074597 0.869337 0.334861
O O11 0.056690 0.943311 0.000000
O O12 0.060607 0.809317 0.975062
O O13 0.369184 0.290846 0.369722
O O14 0.522347 0.906328 0.704002
#
# Coordination Sequence:
#
# PCOD9547189 Si02
#       7
#     8   8   8   8   8   4   8
#     4  11  25  47  72 101 147 184 232 300 368 436
#     4  11  24  41  66 102 140 191 233 286 358 423
#     4  11  22  41  68  96 139 186 228 293 360 413
#     4  10  22  45  76 103 134 181 237 298 357 430
#     4  11  22  42  73 102 140 186 241 293 353 426
#     4  10  22  42  73 100 134 176 238 295 350 424
#     4  10  22  38  62  98 138 185 242 288 337 415
#
# _framework density 22.607178999999999
#
# number of rings (size 3 to 8) (size 9 to 14) (size 15 to 20)
#    0.000    1.385    3.077    1.846    2.154    3.077 
#   11.077    1.923    3.385    0.000    2.000    0.000 
#    0.000    0.000    0.000    0.000    0.000    0.000 
#
# Total GULP energy -291013.118833 kJ/mol
# GULP energy per Si atom -5596.406131 kJ/mol
# Density = 2.255572 g / cm^3
# Si number density = 22.607179 Si / 1000 Ang^3
#
#
#
# Elastic Constant Matrix: (Units=GPa)
#
#
# Indices 1 2 3 4 5 6 
#
# 1 81.8871 68.1882 48.2912 0.0000 0.0000 0.0000
# 2 68.1882 81.8863 48.2928 0.0000 0.0000 0.0000
# 3 48.2912 48.2928 122.8780 0.0000 0.0000 0.0000
# 4 0.0000 0.0000 0.0000 41.0041 0.0000 0.0000
# 5 0.0000 0.0000 0.0000 0.0000 41.0031 0.0000
# 6 0.0000 0.0000 0.0000 0.0000 0.0000 6.3412
#
#
#
# Elastic Compliance Matrix: (Units=1/GPa)
#
#
# Indices 1 2 3 4 5 6 
#
# 1 0.040960 -0.032041 -0.003505 0.000000 0.000000 0.000000
# 2 -0.032041 0.040961 -0.003506 0.000000 0.000000 0.000000
# 3 -0.003505 -0.003506 0.010893 0.000000 0.000000 0.000000
# 4 0.000000 0.000000 0.000000 0.024388 0.000000 0.000000
# 5 0.000000 0.000000 0.000000 0.000000 0.024388 0.000000
# 6 0.000000 0.000000 0.000000 0.000000 0.000000 0.157700
#
#
# Mechanical properties :
#
#
# Convention : Reuss Voigt Hill
#
# Bulk Modulus (GPa) = 67.97826 68.46622 68.22224
# Shear Modulus (GPa) = 13.07885 25.79494 19.43689
#
# Velocity S-wave (km/s) = 2.40787 3.38154 2.93536
# Velocity P-wave (km/s) = 6.15346 6.75258 6.45997
#
# Compressibility (1/GPa) = 0.01471058
#
# Stress axis : x y z
#
# Youngs Moduli (GPa) = 24.41436 24.41359 91.79863
#
# Poissons Ratio (x) = 0.78223 0.32172
# Poissons Ratio (y) = 0.78226 0.32185
# Poissons Ratio (z) = 0.08556 0.08560
#
# Static dielectric constant tensor:
#      x y z
#    x 1.846960 0.000000 0.000000 
#    y 0.000000 1.846960 0.000000 
#    z 0.000000 0.000000 1.828910 
# 
# From -- ./inp_files/678.got.cif
#   From: 2010.05.17/outbox.cif.g08.bks.cpg/sg90_1_cif.got.tgz:678.got - 2010.06.03 19:17:45.
