data_PCOD9547507
_publ_section_title
;
Structure prediction by ZEFSAII (Michael W. Deem and Ramdas Pophale) SiO2 
 PCOD9547507
Probable space group: P 41 2 2
;
_chemical_formula_sum "Si O2"
_cell_formula_units_Z 48
_cell_length_a 11.569635
_cell_length_b 11.569635
_cell_length_c 22.405680
_cell_angle_alpha 90.000000
_cell_angle_beta 90.000000
_cell_angle_gamma 90.000000
_cell_volume 2999.144875
_symmetry_space_group_name_H-M "P 41 2 2"
_symmetry_group_IT_number 91
_symmetry_cell_setting 'tetragonal'
loop_
_space_group_symop_operation_xyz
x,y,z
-y,x,1/4+z
-x,-y,1/2+z
y,-x,3/4+z
x,-y,1/2-z
-x,y,-z
y,x,3/4-z
-y,-x,1/4-z
loop_
_atom_site_type_symbol
_atom_site_label
_atom_site_fract_x
_atom_site_fract_y
_atom_site_fract_z
Si Si1 0.723647 0.909993 0.601128
Si Si2 0.854117 0.874094 0.720696
Si Si3 0.700082 0.824063 0.925030
Si Si4 0.751778 0.248223 0.125000
Si Si5 0.500000 0.923100 0.000000
Si Si6 0.132135 0.124443 0.982712
Si Si7 0.852663 0.530819 0.313524
O O1 0.787098 0.864118 0.659113
O O2 0.787599 0.867984 0.541205
O O3 0.589548 0.875456 0.597000
O O4 0.732192 0.049811 0.601994
O O5 0.807835 0.783526 0.768676
O O6 0.991379 0.858474 0.710981
O O7 0.839237 0.000000 0.750000
O O8 0.728235 0.728235 0.875000
O O9 0.575175 0.846581 0.955023
O O10 0.789226 0.171152 0.181381
O O11 0.623409 0.215650 0.102390
O O12 0.428202 0.018414 0.960166
O O13 0.000000 0.144585 0.000000
O O14 0.792790 0.500000 0.250000
#
# Coordination Sequence:
#
# PCOD9547507 Si02
#       7
#     8   8   8   4   4   8   8
#     4  10  18  33  46  77 116 138 182 222 275 331
#     4  10  18  28  50  80 111 144 176 217 270 335
#     4  10  17  29  53  76 103 148 178 218 268 329
#     4  12  18  34  56  76 106 152 190 212 280 340
#     4   8  18  34  48  80 112 142 180 220 282 326
#     4  10  20  28  48  80 118 143 171 224 277 341
#     4   9  18  34  53  72 108 151 178 224 269 331
#
# _framework density 16.004562
#
# number of rings (size 3 to 8) (size 9 to 14) (size 15 to 20)
#    0.500    1.667    3.333    2.000    0.000    0.000 
#    0.000    0.833    3.667    0.000    4.333    0.000 
#    0.000    0.000    0.000    0.000    0.000    0.000 
#
# Total GULP energy -267224.435303 kJ/mol
# GULP energy per Si atom -5567.175735 kJ/mol
# Density = 1.596813 g / cm^3
# Si number density = 16.004562 Si / 1000 Ang^3
#
#
#
# Elastic Constant Matrix: (Units=GPa)
#
#
# Indices 1 2 3 4 5 6 
#
# 1 75.3373 39.4179 56.8305 0.0000 0.0000 0.0000
# 2 39.4179 75.3375 56.8307 0.0000 0.0000 0.0000
# 3 56.8305 56.8307 118.7960 0.0000 0.0000 0.0000
# 4 0.0000 0.0000 0.0000 27.6499 0.0000 0.0000
# 5 0.0000 0.0000 0.0000 0.0000 27.6502 0.0000
# 6 0.0000 0.0000 0.0000 0.0000 0.0000 11.0508
#
#
#
# Elastic Compliance Matrix: (Units=1/GPa)
#
#
# Indices 1 2 3 4 5 6 
#
# 1 0.022201 -0.005639 -0.007923 0.000000 0.000000 0.000000
# 2 -0.005639 0.022201 -0.007923 0.000000 0.000000 0.000000
# 3 -0.007923 -0.007923 0.015998 0.000000 0.000000 0.000000
# 4 0.000000 0.000000 0.000000 0.036166 0.000000 0.000000
# 5 0.000000 0.000000 0.000000 0.000000 0.036166 0.000000
# 6 0.000000 0.000000 0.000000 0.000000 0.000000 0.090491
#
#
# Mechanical properties :
#
#
# Convention : Reuss Voigt Hill
#
# Bulk Modulus (GPa) = 57.37285 63.95876 60.66581
# Shear Modulus (GPa) = 18.38216 21.02964 19.70590
#
# Velocity S-wave (km/s) = 3.39271 3.62882 3.51275
# Velocity P-wave (km/s) = 7.16052 7.58995 7.37836
#
# Compressibility (1/GPa) = 0.01742985
#
# Stress axis : x y z
#
# Youngs Moduli (GPa) = 45.04351 45.04354 62.50723
#
# Poissons Ratio (x) = 0.25401 0.49523
# Poissons Ratio (y) = 0.25401 0.49523
# Poissons Ratio (z) = 0.35687 0.35687
#
# Static dielectric constant tensor:
#      x y z
#    x 1.550240 0.000000 0.000000 
#    y 0.000000 1.550240 0.000000 
#    z 0.000000 0.000000 1.539240 
# 
# From -- ./inp_files/6361.got.cif
#   From: 2010.05.17/outbox.cif.g08.bks.cpg/sg91_4_cif.got.tgz:6361.got - 2010.06.03 19:20:03.
