data_PCOD9547688
_publ_section_title
;
Structure prediction by ZEFSAII (Michael W. Deem and Ramdas Pophale) SiO2 
 PCOD9547688
Probable space group: P 41 2 2
;
_chemical_formula_sum "Si O2"
_cell_formula_units_Z 48
_cell_length_a 14.888859
_cell_length_b 14.888859
_cell_length_c 13.691561
_cell_angle_alpha 90.000000
_cell_angle_beta 90.000000
_cell_angle_gamma 90.000000
_cell_volume 3035.119534
_symmetry_space_group_name_H-M "P 41 2 2"
_symmetry_group_IT_number 91
_symmetry_cell_setting 'tetragonal'
loop_
_space_group_symop_operation_xyz
x,y,z
-y,x,1/4+z
-x,-y,1/2+z
y,-x,3/4+z
x,-y,1/2-z
-x,y,-z
y,x,3/4-z
-y,-x,1/4-z
loop_
_atom_site_type_symbol
_atom_site_label
_atom_site_fract_x
_atom_site_fract_y
_atom_site_fract_z
Si Si1 0.830440 0.776990 0.180034
Si Si2 0.665361 0.103693 0.252095
Si Si3 0.597324 0.112529 0.034945
Si Si4 0.024755 0.897688 0.721547
Si Si5 0.404346 0.899546 0.964561
Si Si6 0.154419 0.208102 0.266244
O O1 0.745850 0.827903 0.227940
O O2 0.844569 0.681019 0.228894
O O3 0.913714 0.842586 0.203838
O O4 0.817584 0.770882 0.063715
O O5 0.615525 0.122114 0.150643
O O6 0.603408 0.109713 0.347663
O O7 0.700145 0.000000 0.250000
O O8 0.500000 0.145890 0.000000
O O9 0.600281 0.005817 0.013187
O O10 0.085266 0.914735 0.625000
O O11 0.935498 0.837328 0.720041
O O12 0.000374 0.000000 0.750000
O O13 0.315520 0.857093 0.012338
O O14 0.500000 0.864137 0.000000
O O15 0.172465 0.172465 0.375000
#
# Coordination Sequence:
#
# PCOD9547688 Si02
#       6
#     8   8   8   8   8   8
#     4  11  21  33  50  72 101 137 177 218 255 306
#     4   9  18  32  51  74  99 131 173 216 256 310
#     4  10  19  32  50  75 100 132 176 219 267 306
#     4  12  21  32  48  69 101 144 177 207 249 299
#     4   9  19  36  53  70  99 140 181 216 259 312
#     4  11  24  36  49  75 107 138 182 221 262 312
#
# _framework density 15.814862
#
# number of rings (size 3 to 8) (size 9 to 14) (size 15 to 20)
#    0.000    1.667    3.333    2.500    2.333    1.333 
#    0.000    1.667    0.000    0.000    0.000    0.000 
#    0.000   37.333    0.000    0.000    0.000    0.000 
#
# Total GULP energy -267596.365606 kJ/mol
# GULP energy per Si atom -5574.924283 kJ/mol
# Density = 1.577887 g / cm^3
# Si number density = 15.814862 Si / 1000 Ang^3
#
#
#
# Elastic Constant Matrix: (Units=GPa)
#
#
# Indices 1 2 3 4 5 6 
#
# 1 88.7832 33.1392 43.3772 0.0000 0.0000 0.0000
# 2 33.1392 88.7831 43.3770 0.0000 0.0000 0.0000
# 3 43.3772 43.3770 107.2040 0.0000 0.0000 0.0000
# 4 0.0000 0.0000 0.0000 15.0306 0.0000 0.0000
# 5 0.0000 0.0000 0.0000 0.0000 15.0305 0.0000
# 6 0.0000 0.0000 0.0000 0.0000 0.0000 10.8575
#
#
#
# Elastic Compliance Matrix: (Units=1/GPa)
#
#
# Indices 1 2 3 4 5 6 
#
# 1 0.014745 -0.003227 -0.004661 0.000000 0.000000 0.000000
# 2 -0.003227 0.014745 -0.004660 0.000000 0.000000 0.000000
# 3 -0.004661 -0.004660 0.013099 0.000000 0.000000 0.000000
# 4 0.000000 0.000000 0.000000 0.066531 0.000000 0.000000
# 5 0.000000 0.000000 0.000000 0.000000 0.066532 0.000000
# 6 0.000000 0.000000 0.000000 0.000000 0.000000 0.092102
#
#
# Mechanical properties :
#
#
# Convention : Reuss Voigt Hill
#
# Bulk Modulus (GPa) = 57.16315 58.28411 57.72363
# Shear Modulus (GPa) = 16.74032 19.17551 17.95791
#
# Velocity S-wave (km/s) = 3.25702 3.48587 3.37339
# Velocity P-wave (km/s) = 7.09703 7.28943 7.19387
#
# Compressibility (1/GPa) = 0.01749379
#
# Stress axis : x y z
#
# Youngs Moduli (GPa) = 67.82062 67.82071 76.33883
#
# Poissons Ratio (x) = 0.21883 0.35578
# Poissons Ratio (y) = 0.21883 0.35577
# Poissons Ratio (z) = 0.31608 0.31608
#
# Static dielectric constant tensor:
#      x y z
#    x 1.519950 0.000000 0.000000 
#    y 0.000000 1.519950 0.000000 
#    z 0.000000 0.000000 1.577050 
# 
# From -- ./inp_files/3798.got.cif
#   From: 2010.05.17/outbox.cif.g08.bks.cpg/sg91_2_cif.got.tgz:3798.got - 2010.06.03 19:20:03.
