data_PCOD9547594
_publ_section_title
;
Structure prediction by ZEFSAII (Michael W. Deem and Ramdas Pophale) SiO2 
 PCOD9547594
Probable space group: P 41 2 2
;
_chemical_formula_sum "Si O2"
_cell_formula_units_Z 40
_cell_length_a 15.101814
_cell_length_b 15.101814
_cell_length_c 9.846916
_cell_angle_alpha 90.000000
_cell_angle_beta 90.000000
_cell_angle_gamma 90.000000
_cell_volume 2245.734791
_symmetry_space_group_name_H-M "P 41 2 2"
_symmetry_group_IT_number 91
_symmetry_cell_setting 'tetragonal'
loop_
_space_group_symop_operation_xyz
x,y,z
-y,x,1/4+z
-x,-y,1/2+z
y,-x,3/4+z
x,-y,1/2-z
-x,y,-z
y,x,3/4-z
-y,-x,1/4-z
loop_
_atom_site_type_symbol
_atom_site_label
_atom_site_fract_x
_atom_site_fract_y
_atom_site_fract_z
Si Si1 0.191882 0.696770 0.534319
Si Si2 0.000000 0.608677 0.000000
Si Si3 0.539512 0.122970 0.361668
Si Si4 0.811282 0.154936 0.475002
Si Si5 0.692028 0.986156 0.464203
Si Si6 0.000000 0.091216 0.500000
O O1 0.273385 0.726616 0.625000
O O2 0.187298 0.596802 0.481106
O O3 0.195524 0.758916 0.400618
O O4 0.100231 0.709984 0.622007
O O5 0.920132 0.543612 0.961534
O O6 0.030332 0.662726 0.868544
O O7 0.500000 0.162308 0.500000
O O8 0.609496 0.043939 0.401862
O O9 0.801397 0.198604 0.625000
O O10 0.915871 0.148258 0.455081
O O11 0.773570 0.054299 0.473704
O O12 0.967679 0.032322 0.625000
#
# Coordination Sequence:
#
# PCOD9547594 Si02
#       6
#     8   4   8   8   8   4
#     4  11  23  34  55  78 112 138 184 255 302 342
#     4  10  18  33  63  78 102 132 202 252 291 357
#     4   9  17  36  55  82 103 139 193 246 295 352
#     4  10  23  37  46  66 101 148 203 239 291 329
#     4  10  21  33  55  79 105 141 201 255 297 327
#     4  10  24  33  47  60  80 138 210 242 273 309
#
# _framework density 17.811541999999999
#
# number of rings (size 3 to 8) (size 9 to 14) (size 15 to 20)
#    0.000    2.000    2.000    1.800   11.200    0.800 
#    0.000    0.000    0.000    0.000    0.000    0.000 
#    0.000    0.000    0.000    0.000   30.400   27.600 
#
# Total GULP energy -223133.103971 kJ/mol
# GULP energy per Si atom -5578.327599 kJ/mol
# Density = 1.777100 g / cm^3
# Si number density = 17.811542 Si / 1000 Ang^3
#
#
#
# Elastic Constant Matrix: (Units=GPa)
#
#
# Indices 1 2 3 4 5 6 
#
# 1 62.3585 21.0183 35.3232 0.0000 0.0000 0.0000
# 2 21.0183 62.3593 35.3227 0.0000 0.0000 0.0000
# 3 35.3232 35.3227 125.9031 0.0000 0.0000 0.0000
# 4 0.0000 0.0000 0.0000 30.2797 0.0000 0.0000
# 5 0.0000 0.0000 0.0000 0.0000 30.2798 0.0000
# 6 0.0000 0.0000 0.0000 0.0000 0.0000 13.2599
#
#
#
# Elastic Compliance Matrix: (Units=1/GPa)
#
#
# Indices 1 2 3 4 5 6 
#
# 1 0.019962 -0.004228 -0.004414 0.000000 0.000000 0.000000
# 2 -0.004228 0.019961 -0.004414 0.000000 0.000000 0.000000
# 3 -0.004414 -0.004414 0.010420 0.000000 0.000000 0.000000
# 4 0.000000 0.000000 0.000000 0.033025 0.000000 0.000000
# 5 0.000000 0.000000 0.000000 0.000000 0.033025 0.000000
# 6 0.000000 0.000000 0.000000 0.000000 0.000000 0.075415
#
#
# Mechanical properties :
#
#
# Convention : Reuss Voigt Hill
#
# Bulk Modulus (GPa) = 41.27063 48.21661 44.74362
# Shear Modulus (GPa) = 22.12410 25.36100 23.74255
#
# Velocity S-wave (km/s) = 3.52820 3.77749 3.65497
# Velocity P-wave (km/s) = 6.31020 6.79375 6.55644
#
# Compressibility (1/GPa) = 0.02423031
#
# Stress axis : x y z
#
# Youngs Moduli (GPa) = 50.09566 50.09665 95.97379
#
# Poissons Ratio (x) = 0.21179 0.42366
# Poissons Ratio (y) = 0.21179 0.42364
# Poissons Ratio (z) = 0.22114 0.22113
#
# Static dielectric constant tensor:
#      x y z
#    x 1.619730 0.000000 0.000000 
#    y 0.000000 1.619730 0.000000 
#    z 0.000000 0.000000 1.686490 
# 
# From -- ./inp_files/3677.got.cif
#   From: 2010.05.17/outbox.cif.g08.bks.cpg/sg91_2_cif.got.tgz:3677.got - 2010.06.03 19:20:03.
