data_PCOD9547365
_publ_section_title
;
Structure prediction by ZEFSAII (Michael W. Deem and Ramdas Pophale) SiO2 
 PCOD9547365
Probable space group: P 4 21 2
;
_chemical_formula_sum "Si O2"
_cell_formula_units_Z 48
_cell_length_a 8.775782
_cell_length_b 8.775782
_cell_length_c 33.840809
_cell_angle_alpha 90.000000
_cell_angle_beta 90.000000
_cell_angle_gamma 90.000000
_cell_volume 2606.227899
_symmetry_space_group_name_H-M "P 4 21 2"
_symmetry_group_IT_number 90
_symmetry_cell_setting 'tetragonal'
loop_
_space_group_symop_operation_xyz
x,y,z
1/2-y,1/2+x,z
-x,-y,z
1/2+y,1/2-x,z
1/2+x,1/2-y,-z
1/2-x,1/2+y,-z
y,x,-z
-y,-x,-z
loop_
_atom_site_type_symbol
_atom_site_label
_atom_site_fract_x
_atom_site_fract_y
_atom_site_fract_z
Si Si1 0.247067 0.572405 0.968986
Si Si2 0.254063 0.444628 0.531334
Si Si3 0.745260 0.504431 0.333714
Si Si4 0.746223 0.538988 0.245999
Si Si5 0.435837 0.752210 0.121330
Si Si6 0.500000 0.500000 0.817695
Si Si7 0.500000 0.500000 0.598561
O O1 0.181606 0.401676 0.973843
O O2 0.303536 0.584042 0.923751
O O3 0.371655 0.628346 0.000000
O O4 0.173648 0.611331 0.527794
O O5 0.377171 0.377171 0.500000
O O6 0.353755 0.462936 0.571213
O O7 0.851804 0.356970 0.335473
O O8 0.675289 0.527858 0.290028
O O9 0.638991 0.487770 0.371167
O O10 0.833731 0.377390 0.242640
O O11 0.625726 0.566885 0.211807
O O12 0.605752 0.821719 0.125703
O O13 0.420944 0.622940 0.153841
#
# Coordination Sequence:
#
# PCOD9547365 Si02
#       7
#     8   8   8   8   8   4   4
#     4   9  19  35  53  73  99 130 165 207 254 306
#     4  11  24  41  60  84 117 156 196 241 292 344
#     4   9  19  35  54  77 108 144 177 216 273 333
#     4   9  19  35  52  75 107 138 174 220 264 311
#     4   9  20  36  50  72 106 135 164 208 260 312
#     4  12  19  30  55  79  96 135 181 212 253 308
#     4  12  20  34  58  87 112 139 186 238 280 330
#
# _framework density 18.417421999999998
#
# number of rings (size 3 to 8) (size 9 to 14) (size 15 to 20)
#    0.000    2.167    0.000    5.750    0.000    3.000 
#    0.000    1.667    0.000    2.000    0.000   14.000 
#    0.000    0.000    0.000    0.000    0.000    0.000 
#
# Total GULP energy -267380.784985 kJ/mol
# GULP energy per Si atom -5570.433021 kJ/mol
# Density = 1.837550 g / cm^3
# Si number density = 18.417422 Si / 1000 Ang^3
#
#
#
# Elastic Constant Matrix: (Units=GPa)
#
#
# Indices 1 2 3 4 5 6 
#
# 1 58.0147 22.2000 49.4918 0.0000 0.0000 0.0000
# 2 22.2000 58.0153 49.4920 0.0000 0.0000 0.0000
# 3 49.4918 49.4920 145.3043 0.0000 0.0000 0.0000
# 4 0.0000 0.0000 0.0000 -58.1582 0.0000 0.0000
# 5 0.0000 0.0000 0.0000 0.0000 -58.1752 0.0000
# 6 0.0000 0.0000 0.0000 0.0000 0.0000 22.2815
#
#
#
# Elastic Compliance Matrix: (Units=1/GPa)
#
#
# Indices 1 2 3 4 5 6 
#
# 1 0.024713 -0.003208 -0.007325 0.000000 0.000000 0.000000
# 2 -0.003208 0.024713 -0.007325 0.000000 0.000000 0.000000
# 3 -0.007325 -0.007325 0.011872 0.000000 0.000000 0.000000
# 4 0.000000 0.000000 0.000000 -0.017194 0.000000 0.000000
# 5 0.000000 0.000000 0.000000 0.000000 -0.017189 0.000000
# 6 0.000000 0.000000 0.000000 0.000000 0.000000 0.044880
#
#
# Mechanical properties :
#
#
# Convention : Reuss Voigt Hill
#
# Bulk Modulus (GPa) = 39.08858 55.96688 47.52773
# Shear Modulus (GPa) = 43.08937 -9.46701 16.81118
#
# Velocity S-wave (km/s) = 4.84219 -2.26967 3.02451
# Velocity P-wave (km/s) = 7.24791 4.85648 6.16918
#
# Compressibility (1/GPa) = 0.02558292
#
# Stress axis : x y z
#
# Youngs Moduli (GPa) = 40.46394 40.46432 84.23237
#
# Poissons Ratio (x) = 0.12981 0.61699
# Poissons Ratio (y) = 0.12981 0.61699
# Poissons Ratio (z) = 0.29639 0.29639
#
# Static dielectric constant tensor:
#      x y z
#    x 1.682020 0.000000 0.000000 
#    y 0.000000 1.682030 0.000000 
#    z 0.000000 0.000000 1.632330 
# 
# From -- ./inp_files/3059.got.cif
#   From: 2010.05.17/outbox.cif.g08.bks.cpg/sg90_2_cif.got.tgz:3059.got - 2010.06.03 19:17:45.
