data_PCOD9547077
_publ_section_title
;
Structure prediction by ZEFSAII (Michael W. Deem and Ramdas Pophale) SiO2 
 PCOD9547077
Probable space group: P 4 21 2
;
_chemical_formula_sum "Si O2"
_cell_formula_units_Z 60
_cell_length_a 15.292792
_cell_length_b 15.292792
_cell_length_c 14.753619
_cell_angle_alpha 90.000000
_cell_angle_beta 90.000000
_cell_angle_gamma 90.000000
_cell_volume 3450.421309
_symmetry_space_group_name_H-M "P 4 21 2"
_symmetry_group_IT_number 90
_symmetry_cell_setting 'tetragonal'
loop_
_space_group_symop_operation_xyz
x,y,z
1/2-y,1/2+x,z
-x,-y,z
1/2+y,1/2-x,z
1/2+x,1/2-y,-z
1/2-x,1/2+y,-z
y,x,-z
-y,-x,-z
loop_
_atom_site_type_symbol
_atom_site_label
_atom_site_fract_x
_atom_site_fract_y
_atom_site_fract_z
Si Si1 0.764682 0.182992 0.291542
Si Si2 0.616811 0.090125 0.396338
Si Si3 0.930644 0.896549 0.103254
Si Si4 0.687940 0.687940 0.000000
Si Si5 0.794482 0.317602 0.441958
Si Si6 0.067601 0.370174 0.296194
Si Si7 0.127551 0.926551 0.158635
Si Si8 0.332341 0.778916 0.857652
O O1 0.675264 0.134730 0.318443
O O2 0.804432 0.231436 0.379539
O O3 0.831170 0.114749 0.247505
O O4 0.752350 0.258750 0.216559
O O5 0.515068 0.118296 0.393206
O O6 0.659630 0.128697 0.488007
O O7 0.884427 0.804468 0.108103
O O8 0.028686 0.893739 0.141232
O O9 0.877691 0.969414 0.159000
O O10 0.930043 0.930043 0.000000
O O11 0.609578 0.680839 0.072104
O O12 0.776645 0.682449 0.058915
O O13 0.707032 0.292969 0.500000
O O14 0.800299 0.396161 0.369262
O O15 0.113980 0.464711 0.308699
O O16 0.099269 0.339036 0.197059
#
# Coordination Sequence:
#
# PCOD9547077 Si02
#       8
#     8   8   8   4   8   8   8   8
#     4   9  21  36  54  77 112 141 179 224 284 319
#     4  10  20  35  58  82 109 142 179 222 272 335
#     4  11  20  35  56  84 105 144 198 231 270 321
#     4  10  18  35  50  77 108 140 182 220 282 322
#     4   9  18  35  54  79 106 139 179 218 270 326
#     4  10  21  35  55  84 115 146 182 227 280 333
#     4  10  20  35  57  77 109 147 183 236 274 315
#     4  10  22  33  53  81 109 145 185 227 278 325
#
# _framework density 17.38918
#
# number of rings (size 3 to 8) (size 9 to 14) (size 15 to 20)
#    0.000    2.133    2.000    1.200    7.467    1.067 
#    0.000    0.000    0.000    0.000    0.000   20.533 
#    0.000    0.000    0.000    0.000    0.000    0.000 
#
# Total GULP energy -334245.230706 kJ/mol
# GULP energy per Si atom -5570.753845 kJ/mol
# Density = 1.734960 g / cm^3
# Si number density = 17.389180 Si / 1000 Ang^3
#
#
#
# Elastic Constant Matrix: (Units=GPa)
#
#
# Indices 1 2 3 4 5 6 
#
# 1 63.4982 41.4009 11.4865 0.0000 0.0000 0.0000
# 2 41.4009 63.4979 11.4864 0.0000 0.0000 0.0000
# 3 11.4865 11.4864 40.7085 0.0000 0.0000 0.0000
# 4 0.0000 0.0000 0.0000 20.7516 0.0000 0.0000
# 5 0.0000 0.0000 0.0000 0.0000 20.7517 0.0000
# 6 0.0000 0.0000 0.0000 0.0000 0.0000 30.8132
#
#
#
# Elastic Compliance Matrix: (Units=1/GPa)
#
#
# Indices 1 2 3 4 5 6 
#
# 1 0.027708 -0.017547 -0.002867 0.000000 0.000000 0.000000
# 2 -0.017547 0.027708 -0.002867 0.000000 0.000000 0.000000
# 3 -0.002867 -0.002867 0.026183 0.000000 0.000000 0.000000
# 4 0.000000 0.000000 0.000000 0.048189 0.000000 0.000000
# 5 0.000000 0.000000 0.000000 0.000000 0.048189 0.000000
# 6 0.000000 0.000000 0.000000 0.000000 0.000000 0.032454
#
#
# Mechanical properties :
#
#
# Convention : Reuss Voigt Hill
#
# Bulk Modulus (GPa) = 28.54170 32.93913 30.74042
# Shear Modulus (GPa) = 18.61015 21.35201 19.98108
#
# Velocity S-wave (km/s) = 3.27496 3.50793 3.39344
# Velocity P-wave (km/s) = 5.54523 5.94902 5.75067
#
# Compressibility (1/GPa) = 0.03503645
#
# Stress axis : x y z
#
# Youngs Moduli (GPa) = 36.09105 36.09090 38.19297
#
# Poissons Ratio (x) = 0.63328 0.10950
# Poissons Ratio (y) = 0.63329 0.10950
# Poissons Ratio (z) = 0.10348 0.10347
#
# Static dielectric constant tensor:
#      x y z
#    x 1.586100 0.000000 0.000000 
#    y 0.000000 1.586100 0.000000 
#    z 0.000000 0.000000 1.624860 
# 
# From -- ./inp_files/2581.got.cif
#   From: 2010.05.17/outbox.cif.g08.bks.cpg/sg90_2_cif.got.tgz:2581.got - 2010.06.03 19:17:45.
