data_PCOD9547291
_publ_section_title
;
Structure prediction by ZEFSAII (Michael W. Deem and Ramdas Pophale) SiO2 
 PCOD9547291
Probable space group: P 4 21 2
;
_chemical_formula_sum "Si O2"
_cell_formula_units_Z 36
_cell_length_a 11.705076
_cell_length_b 11.705076
_cell_length_c 11.293683
_cell_angle_alpha 90.000000
_cell_angle_beta 90.000000
_cell_angle_gamma 90.000000
_cell_volume 1547.334002
_symmetry_space_group_name_H-M "P 4 21 2"
_symmetry_group_IT_number 90
_symmetry_cell_setting 'tetragonal'
loop_
_space_group_symop_operation_xyz
x,y,z
1/2-y,1/2+x,z
-x,-y,z
1/2+y,1/2-x,z
1/2+x,1/2-y,-z
1/2-x,1/2+y,-z
y,x,-z
-y,-x,-z
loop_
_atom_site_type_symbol
_atom_site_label
_atom_site_fract_x
_atom_site_fract_y
_atom_site_fract_z
Si Si1 0.868032 0.702496 0.039832
Si Si2 0.176698 0.419524 0.688283
Si Si3 0.714945 0.565375 0.936041
Si Si4 0.250975 0.250975 0.500000
Si Si5 0.413410 0.828076 0.691278
O O1 0.892115 0.717846 0.176410
O O2 0.733388 0.733388 0.000000
O O3 0.837551 0.570072 0.013235
O O4 0.927776 0.778780 0.941177
O O5 0.144951 0.553677 0.688695
O O6 0.254168 0.396551 0.803746
O O7 0.240649 0.366970 0.575820
O O8 0.597168 0.597168 0.000000
O O9 0.250578 0.146274 0.592734
O O10 0.547908 0.852042 0.678998
#
# Coordination Sequence:
#
# PCOD9547291 Si02
#       5
#     8   8   8   4   8
#     4  11  22  39  66 100 135 170 214 275 344 403
#     4  11  24  43  69  98 130 174 228 282 330 393
#     4  11  22  39  66 100 135 170 214 275 344 403
#     4  12  24  42  66  94 132 174 224 276 328 394
#     4  11  24  43  69  98 130 174 228 282 330 393
#
# _framework density 23.265823000000001
#
# number of rings (size 3 to 8) (size 9 to 14) (size 15 to 20)
#    0.000    0.889    4.444    4.000    0.000    2.667 
#    0.000    0.000    0.000   10.667    0.000    0.000 
#    0.000    0.000    0.000    0.000    0.000    0.000 
#
# Total GULP energy -200408.083835 kJ/mol
# GULP energy per Si atom -5566.891218 kJ/mol
# Density = 2.321287 g / cm^3
# Si number density = 23.265823 Si / 1000 Ang^3
#
#
#
# Elastic Constant Matrix: (Units=GPa)
#
#
# Indices 1 2 3 4 5 6 
#
# 1 14.7233 41.0879 31.0473 0.0000 0.0000 0.0000
# 2 41.0879 14.7233 31.0473 0.0000 0.0000 0.0000
# 3 31.0473 31.0473 176.9133 0.0000 0.0000 0.0000
# 4 0.0000 0.0000 0.0000 36.1716 0.0000 0.0000
# 5 0.0000 0.0000 0.0000 0.0000 36.1716 0.0000
# 6 0.0000 0.0000 0.0000 0.0000 0.0000 31.7450
#
#
#
# Elastic Compliance Matrix: (Units=1/GPa)
#
#
# Indices 1 2 3 4 5 6 
#
# 1 -0.007832 0.030097 -0.003907 0.000000 0.000000 0.000000
# 2 0.030097 -0.007832 -0.003907 0.000000 0.000000 0.000000
# 3 -0.003907 -0.003907 0.007024 0.000000 0.000000 0.000000
# 4 0.000000 0.000000 0.000000 0.027646 0.000000 0.000000
# 5 0.000000 0.000000 0.000000 0.000000 0.027646 0.000000
# 6 0.000000 0.000000 0.000000 0.000000 0.000000 0.031501
#
#
# Mechanical properties :
#
#
# Convention : Reuss Voigt Hill
#
# Bulk Modulus (GPa) = 27.83642 45.85830 36.84736
# Shear Modulus (GPa) = 109.74114 27.69615 68.71864
#
# Velocity S-wave (km/s) = 6.87538 3.45399 5.44063
# Velocity P-wave (km/s) = 8.66130 5.97161 7.43903
#
# Compressibility (1/GPa) = 0.03592416
#
# Stress axis : x y z
#
# Youngs Moduli (GPa) = -127.67473 -127.67473 142.37067
#
# Poissons Ratio (x) = 3.84265 0.55629
# Poissons Ratio (y) = 3.84265 0.55629
# Poissons Ratio (z) = -0.49887 -0.49887
#
# Static dielectric constant tensor:
#      x y z
#    x 1.998860 0.000000 0.000000 
#    y 0.000000 1.998860 0.000000 
#    z 0.000000 0.000000 2.129100 
# 
# From -- ./inp_files/1945.got.cif
#   From: 2010.05.17/outbox.cif.g08.bks.cpg/sg90_1_cif.got.tgz:1945.got - 2010.06.03 19:17:45.
