data_PCOD9547712
_publ_section_title
;
Structure prediction by ZEFSAII (Michael W. Deem and Ramdas Pophale) SiO2 
 PCOD9547712
Probable space group: P 41 2 2
;
_chemical_formula_sum "Si O2"
_cell_formula_units_Z 24
_cell_length_a 14.279585
_cell_length_b 14.279585
_cell_length_c 4.884979
_cell_angle_alpha 90.000000
_cell_angle_beta 90.000000
_cell_angle_gamma 90.000000
_cell_volume 996.079204
_symmetry_space_group_name_H-M "P 41 2 2"
_symmetry_group_IT_number 91
_symmetry_cell_setting 'tetragonal'
loop_
_space_group_symop_operation_xyz
x,y,z
-y,x,1/4+z
-x,-y,1/2+z
y,-x,3/4+z
x,-y,1/2-z
-x,y,-z
y,x,3/4-z
-y,-x,1/4-z
loop_
_atom_site_type_symbol
_atom_site_label
_atom_site_fract_x
_atom_site_fract_y
_atom_site_fract_z
Si Si1 0.898319 0.761648 0.537206
Si Si2 0.102644 0.633001 0.950438
Si Si3 0.309842 0.597718 0.867613
O O1 0.824668 0.824668 0.375000
O O2 0.887952 0.724312 0.847247
O O3 0.000000 0.807918 0.500000
O O4 0.901745 0.666981 0.360927
O O5 0.202539 0.583385 0.967591
O O6 0.000000 0.588986 0.000000
O O7 0.344072 0.500000 0.750000
O O8 0.326017 0.673984 0.625000
O O9 0.367369 0.632632 0.125000
#
# Coordination Sequence:
#
# PCOD9547712 Si02
#       3
#     8   8   8
#     4  10  19  33  55  84 122 169 218 270 329 394
#     4  10  21  39  65  94 126 168 217 273 336 399
#     4  12  26  46  72 102 137 179 227 279 336 399
#
# _framework density 24.094470999999999
#
# number of rings (size 3 to 8) (size 9 to 14) (size 15 to 20)
#    0.000    1.333    0.000    7.000    0.000    1.333 
#    0.000   13.333    0.000    0.000    0.000    0.000 
#    0.000    0.000    0.000    0.000    0.000    0.000 
#
# Total GULP energy -134006.918400 kJ/mol
# GULP energy per Si atom -5583.621600 kJ/mol
# Density = 2.403963 g / cm^3
# Si number density = 24.094471 Si / 1000 Ang^3
#
#
#
# Elastic Constant Matrix: (Units=GPa)
#
#
# Indices 1 2 3 4 5 6 
#
# 1 93.2518 60.2693 39.3102 0.0000 0.0000 0.0000
# 2 60.2693 93.2514 39.3102 0.0000 0.0000 0.0000
# 3 39.3102 39.3102 141.7665 0.0000 0.0000 0.0000
# 4 0.0000 0.0000 0.0000 27.4843 0.0000 0.0000
# 5 0.0000 0.0000 0.0000 0.0000 27.4837 0.0000
# 6 0.0000 0.0000 0.0000 0.0000 0.0000 -2.0016
#
#
#
# Elastic Compliance Matrix: (Units=1/GPa)
#
#
# Indices 1 2 3 4 5 6 
#
# 1 0.018956 -0.011364 -0.002105 0.000000 0.000000 0.000000
# 2 -0.011364 0.018956 -0.002105 0.000000 0.000000 0.000000
# 3 -0.002105 -0.002105 0.008221 0.000000 0.000000 0.000000
# 4 0.000000 0.000000 0.000000 0.036384 0.000000 0.000000
# 5 0.000000 0.000000 0.000000 0.000000 0.036385 0.000000
# 6 0.000000 0.000000 0.000000 0.000000 0.000000 -0.499588
#
#
# Mechanical properties :
#
#
# Convention : Reuss Voigt Hill
#
# Bulk Modulus (GPa) = 66.73577 67.33881 67.03729
# Shear Modulus (GPa) = -14.51197 23.21859 4.35331
#
# Velocity S-wave (km/s) = -2.45683 3.10764 1.34562
# Velocity P-wave (km/s) = 4.43955 6.39414 5.50430
#
# Compressibility (1/GPa) = 0.01498447
#
# Stress axis : x y z
#
# Youngs Moduli (GPa) = 52.75505 52.75483 121.63512
#
# Poissons Ratio (x) = 0.59949 0.25606
# Poissons Ratio (y) = 0.59949 0.25606
# Poissons Ratio (z) = 0.11106 0.11106
#
# Static dielectric constant tensor:
#      x y z
#    x 1.987430 0.000000 0.000000 
#    y 0.000000 1.987440 0.000000 
#    z 0.000000 0.000000 1.741500 
# 
# From -- ./inp_files/237.got.cif
#   From: 2010.05.17/outbox.cif.g08.bks.cpg/sg91_1_cif.got.tgz:237.got - 2010.06.03 19:20:03.
