data_PCOD9547102
_publ_section_title
;
Structure prediction by ZEFSAII (Michael W. Deem and Ramdas Pophale) SiO2 
 PCOD9547102
Probable space group: P 4 21 2
;
_chemical_formula_sum "Si O2"
_cell_formula_units_Z 58
_cell_length_a 17.368280
_cell_length_b 17.368280
_cell_length_c 8.401887
_cell_angle_alpha 90.000000
_cell_angle_beta 90.000000
_cell_angle_gamma 90.000000
_cell_volume 2534.489288
_symmetry_space_group_name_H-M "P 4 21 2"
_symmetry_group_IT_number 90
_symmetry_cell_setting 'tetragonal'
loop_
_space_group_symop_operation_xyz
x,y,z
1/2-y,1/2+x,z
-x,-y,z
1/2+y,1/2-x,z
1/2+x,1/2-y,-z
1/2-x,1/2+y,-z
y,x,-z
-y,-x,-z
loop_
_atom_site_type_symbol
_atom_site_label
_atom_site_fract_x
_atom_site_fract_y
_atom_site_fract_z
Si Si1 0.000000 0.500000 0.621922
Si Si2 0.376172 0.017416 0.757388
Si Si3 0.054135 0.925033 0.311428
Si Si4 0.914182 0.762870 0.432598
Si Si5 0.340043 0.578682 0.139049
Si Si6 0.967547 0.214709 0.687099
Si Si7 0.691358 0.932117 0.066785
Si Si8 0.126117 0.643309 0.643552
O O1 0.925784 0.562726 0.624936
O O2 0.416149 0.937481 0.714721
O O3 0.296373 0.032400 0.670106
O O4 0.365496 0.025037 0.946492
O O5 0.078855 0.921146 0.500000
O O6 0.137536 0.936933 0.233450
O O7 0.004297 0.861296 0.216726
O O8 0.000000 0.000000 0.300447
O O9 0.968601 0.806674 0.555968
O O10 0.876204 0.821507 0.305973
O O11 0.866459 0.701531 0.534157
O O12 0.400920 0.599081 0.000000
O O13 0.261716 0.593903 0.042592
O O14 0.906340 0.272191 0.610972
O O15 0.009113 0.270194 0.811709
O O16 0.652869 0.866709 0.172861
#
# Coordination Sequence:
#
# PCOD9547102 Si02
#       8
#     2   8   8   8   8   8   8   8
#     4  12  20  32  72 102 148 208 268 282 348 460
#     4  10  20  30  53  87 129 179 236 282 335 417
#     4  11  24  44  75 107 124 171 250 326 387 450
#     4  10  21  38  60  98 138 185 228 298 367 439
#     4  11  24  46  71  97 137 181 244 311 391 464
#     4  11  21  40  66 100 142 178 239 317 369 430
#     4  10  22  37  59  93 138 186 229 293 373 435
#     4  11  22  37  66 102 150 198 248 293 359 449
#
# _framework density 22.884293
#
# number of rings (size 3 to 8) (size 9 to 14) (size 15 to 20)
#    0.000    1.379    4.138    2.483    0.000    1.931 
#    0.000    1.379    9.103    0.000    0.000    0.000 
#    0.000    0.000    0.000    0.000    0.000    0.000 
#
# Total GULP energy -322915.439073 kJ/mol
# GULP energy per Si atom -5567.507570 kJ/mol
# Density = 2.283221 g / cm^3
# Si number density = 22.884293 Si / 1000 Ang^3
#
#
#
# Elastic Constant Matrix: (Units=GPa)
#
#
# Indices 1 2 3 4 5 6 
#
# 1 87.6906 25.1074 29.7152 0.0000 0.0000 0.0000
# 2 25.1074 87.6929 29.7150 0.0000 0.0000 0.0000
# 3 29.7152 29.7150 116.9570 0.0000 0.0000 0.0000
# 4 0.0000 0.0000 0.0000 20.2151 0.0000 0.0000
# 5 0.0000 0.0000 0.0000 0.0000 20.2139 0.0000
# 6 0.0000 0.0000 0.0000 0.0000 0.0000 34.6877
#
#
#
# Elastic Compliance Matrix: (Units=1/GPa)
#
#
# Indices 1 2 3 4 5 6 
#
# 1 0.013107 -0.002871 -0.002601 0.000000 0.000000 0.000000
# 2 -0.002871 0.013107 -0.002600 0.000000 0.000000 0.000000
# 3 -0.002601 -0.002600 0.009872 0.000000 0.000000 0.000000
# 4 0.000000 0.000000 0.000000 0.049468 0.000000 0.000000
# 5 0.000000 0.000000 0.000000 0.000000 0.049471 0.000000
# 6 0.000000 0.000000 0.000000 0.000000 0.000000 0.028829
#
#
# Mechanical properties :
#
#
# Convention : Reuss Voigt Hill
#
# Bulk Modulus (GPa) = 50.14938 51.26841 50.70890
# Shear Modulus (GPa) = 26.78884 28.87685 27.83285
#
# Velocity S-wave (km/s) = 3.42515 3.55613 3.49125
# Velocity P-wave (km/s) = 6.13222 6.27003 6.20151
#
# Compressibility (1/GPa) = 0.01994042
#
# Stress axis : x y z
#
# Youngs Moduli (GPa) = 76.29433 76.29661 101.30106
#
# Poissons Ratio (x) = 0.21909 0.26344
# Poissons Ratio (y) = 0.21908 0.26343
# Poissons Ratio (z) = 0.19841 0.19841
#
# Static dielectric constant tensor:
#      x y z
#    x 1.918570 0.000000 0.000000 
#    y 0.000000 1.918570 0.000000 
#    z 0.000000 0.000000 2.014130 
# 
# From -- ./inp_files/1670.got.cif
#   From: 2010.05.17/outbox.cif.g08.bks.cpg/sg90_1_cif.got.tgz:1670.got - 2010.06.03 19:17:45.
