data_PCOD9547759
_publ_section_title
;
Structure prediction by ZEFSAII (Michael W. Deem and Ramdas Pophale) SiO2 
 PCOD9547759
Probable space group: P 41 2 2
;
_chemical_formula_sum "Si O2"
_cell_formula_units_Z 56
_cell_length_a 14.445064
_cell_length_b 14.445064
_cell_length_c 12.868265
_cell_angle_alpha 90.000000
_cell_angle_beta 90.000000
_cell_angle_gamma 90.000000
_cell_volume 2685.090553
_symmetry_space_group_name_H-M "P 41 2 2"
_symmetry_group_IT_number 91
_symmetry_cell_setting 'tetragonal'
loop_
_space_group_symop_operation_xyz
x,y,z
-y,x,1/4+z
-x,-y,1/2+z
y,-x,3/4+z
x,-y,1/2-z
-x,y,-z
y,x,3/4-z
-y,-x,1/4-z
loop_
_atom_site_type_symbol
_atom_site_label
_atom_site_fract_x
_atom_site_fract_y
_atom_site_fract_z
Si Si1 0.955420 0.607657 0.271090
Si Si2 0.336281 0.197988 0.817405
Si Si3 0.341686 0.491781 0.871297
Si Si4 0.288190 0.863218 0.915259
Si Si5 0.094414 0.341566 0.545233
Si Si6 0.297338 0.341510 0.488206
Si Si7 0.899635 0.873551 0.995000
O O1 0.959915 0.500000 0.250000
O O2 0.891592 0.634059 0.367669
O O3 0.905311 0.645726 0.168088
O O4 0.058377 0.645115 0.289681
O O5 0.253350 0.253350 0.875000
O O6 0.423078 0.269257 0.821259
O O7 0.307621 0.164837 0.703146
O O8 0.313286 0.500000 0.750000
O O9 0.439824 0.439824 0.875000
O O10 0.343544 0.590389 0.928128
O O11 0.185855 0.906390 0.935652
O O12 0.296704 0.766010 0.976813
O O13 0.188855 0.371992 0.490017
O O14 0.088553 0.231982 0.529448
O O15 0.000000 0.384822 0.500000
O O16 0.343139 0.343139 0.375000
O O17 0.871816 0.871816 0.875000
O O18 0.000000 0.921124 0.000000
#
# Coordination Sequence:
#
# PCOD9547759 Si02
#       7
#     8   8   8   8   8   8   8
#     4  12  25  41  65  96 134 180 227 277 346 424
#     4  11  23  42  67  95 132 179 226 283 351 423
#     4  11  24  45  67  90 124 176 233 280 342 426
#     4  11  23  41  63  98 137 171 222 285 343 409
#     4  10  19  36  63  92 125 166 212 267 336 408
#     4  11  22  40  67  97 129 169 221 285 343 402
#     4  10  20  39  66  94 126 169 217 263 323 400
#
# _framework density 20.855909
#
# number of rings (size 3 to 8) (size 9 to 14) (size 15 to 20)
#    0.000    1.143    0.000   10.286    0.000    4.000 
#    0.000    4.286    0.000    0.000    0.000    0.000 
#    0.000    0.000    0.000    0.000    0.000    0.000 
#
# Total GULP energy -312867.403923 kJ/mol
# GULP energy per Si atom -5586.917927 kJ/mol
# Density = 2.080844 g / cm^3
# Si number density = 20.855909 Si / 1000 Ang^3
#
#
#
# Elastic Constant Matrix: (Units=GPa)
#
#
# Indices 1 2 3 4 5 6 
#
# 1 97.9633 37.2461 35.2156 0.0000 0.0000 0.0000
# 2 37.2461 97.9633 35.2156 0.0000 0.0000 0.0000
# 3 35.2156 35.2156 135.0713 0.0000 0.0000 0.0000
# 4 0.0000 0.0000 0.0000 9.4780 0.0000 0.0000
# 5 0.0000 0.0000 0.0000 0.0000 9.4780 0.0000
# 6 0.0000 0.0000 0.0000 0.0000 0.0000 20.3082
#
#
#
# Elastic Compliance Matrix: (Units=1/GPa)
#
#
# Indices 1 2 3 4 5 6 
#
# 1 0.012514 -0.003956 -0.002231 0.000000 0.000000 0.000000
# 2 -0.003956 0.012514 -0.002231 0.000000 0.000000 0.000000
# 3 -0.002231 -0.002231 0.008567 0.000000 0.000000 0.000000
# 4 0.000000 0.000000 0.000000 0.105507 0.000000 0.000000
# 5 0.000000 0.000000 0.000000 0.000000 0.105507 0.000000
# 6 0.000000 0.000000 0.000000 0.000000 0.000000 0.049241
#
#
# Mechanical properties :
#
#
# Convention : Reuss Voigt Hill
#
# Bulk Modulus (GPa) = 59.67203 60.70583 60.18893
# Shear Modulus (GPa) = 15.80910 22.74088 19.27499
#
# Velocity S-wave (km/s) = 2.75619 3.30567 3.04336
# Velocity P-wave (km/s) = 6.22917 6.61365 6.42429
#
# Compressibility (1/GPa) = 0.01675827
#
# Stress axis : x y z
#
# Youngs Moduli (GPa) = 79.91037 79.91037 116.72736
#
# Poissons Ratio (x) = 0.31611 0.26045
# Poissons Ratio (y) = 0.31611 0.26045
# Poissons Ratio (z) = 0.17830 0.17830
#
# Static dielectric constant tensor:
#      x y z
#    x 1.784850 0.000000 0.000000 
#    y 0.000000 1.784850 0.000000 
#    z 0.000000 0.000000 1.720090 
# 
# From -- ./inp_files/15963.got.cif
#   From: 2010.05.17/outbox.cif.g08.bks.cpg/sg91_8_cif.got.tgz:15963.got - 2010.06.03 19:20:03.
