data_PCOD9547456
_publ_section_title
;
Structure prediction by ZEFSAII (Michael W. Deem and Ramdas Pophale) SiO2 
 PCOD9547456
Probable space group: P 4 21 2
;
_chemical_formula_sum "Si O2"
_cell_formula_units_Z 58
_cell_length_a 18.000000
_cell_length_b 18.000000
_cell_length_c 9.000000
_cell_angle_alpha 90.000000
_cell_angle_beta 90.000000
_cell_angle_gamma 90.000000
_cell_volume 2916.000000
_symmetry_space_group_name_H-M "P 4 21 2"
_symmetry_group_IT_number 90
_symmetry_cell_setting 'tetragonal'
loop_
_space_group_symop_operation_xyz
x,y,z
1/2-y,1/2+x,z
-x,-y,z
1/2+y,1/2-x,z
1/2+x,1/2-y,-z
1/2-x,1/2+y,-z
y,x,-z
-y,-x,-z
loop_
_atom_site_type_symbol
_atom_site_label
_atom_site_fract_x
_atom_site_fract_y
_atom_site_fract_z
Si Si1 0.467182 0.119123 0.437486
Si Si2 0.544994 0.836952 0.785912
Si Si3 0.250660 0.807553 0.842283
Si Si4 0.333554 0.689500 0.326515
Si Si5 0.276703 0.502249 0.651430
Si Si6 0.898217 0.112565 0.821475
Si Si7 0.500000 0.000000 0.883544
Si Si8 0.319296 0.519177 0.303821
O O1 0.550447 0.087868 0.407443
O O2 0.456009 0.136416 0.612961
O O3 0.460862 0.196923 0.350991
O O4 0.627530 0.812990 0.840074
O O5 0.511521 0.907624 0.872242
O O6 0.499890 0.758449 0.781422
O O7 0.275856 0.736489 0.752778
O O8 0.177644 0.845484 0.773686
O O9 0.223159 0.776842 0.000000
O O10 0.314503 0.685498 0.500000
O O11 0.411413 0.731016 0.303987
O O12 0.340430 0.604056 0.278151
O O13 0.337050 0.463574 0.756754
O O14 0.304227 0.504555 0.479300
O O15 0.886553 0.032327 0.749840
O O16 0.896688 0.103313 0.000000
#
# Coordination Sequence:
#
# PCOD9547456 Si02
#       8
#     8   8   8   8   8   8   2   8
#     4  10  19  33  57  97 133 161 197 264 331 388
#     4  10  18  31  58  90 127 160 201 252 328 372
#     4  10  23  39  58  86 123 167 211 260 313 374
#     4  10  22  37  59  92 122 158 205 259 321 378
#     4  10  22  35  60  90 120 164 200 259 321 374
#     4  10  22  41  60  83 114 168 214 257 309 380
#     4  12  16  28  56  96 128 158 204 268 312 394
#     4   9  20  38  58  87 124 150 206 265 311 375
#
# _framework density 19.890260999999999
#
# number of rings (size 3 to 8) (size 9 to 14) (size 15 to 20)
#    0.000    2.069    1.379    1.241    5.793    3.862 
#    0.000    4.138    0.000    0.000    7.172    0.000 
#    0.000    0.000    0.000    0.000    0.000    0.000 
#
# Total GULP energy -323106.051514 kJ/mol
# GULP energy per Si atom -5570.793992 kJ/mol
# Density = 1.984499 g / cm^3
# Si number density = 19.890261 Si / 1000 Ang^3
#
#
#
# Elastic Constant Matrix: (Units=GPa)
#
#
# Indices 1 2 3 4 5 6 
#
# 1 62.7947 13.9753 26.3536 0.0000 0.0000 0.0000
# 2 13.9753 62.7937 26.3547 0.0000 0.0000 0.0000
# 3 26.3536 26.3547 12.9753 0.0000 0.0000 0.0000
# 4 0.0000 0.0000 0.0000 9.7278 0.0000 0.0000
# 5 0.0000 0.0000 0.0000 0.0000 9.7282 0.0000
# 6 0.0000 0.0000 0.0000 0.0000 0.0000 35.2014
#
#
#
# Elastic Compliance Matrix: (Units=1/GPa)
#
#
# Indices 1 2 3 4 5 6 
#
# 1 -0.006265 -0.026751 0.067061 0.000000 0.000000 0.000000
# 2 -0.026751 -0.006269 0.067067 0.000000 0.000000 0.000000
# 3 0.067061 0.067067 -0.195357 0.000000 0.000000 0.000000
# 4 0.000000 0.000000 0.000000 0.102798 0.000000 0.000000
# 5 0.000000 0.000000 0.000000 0.000000 0.102794 0.000000
# 6 0.000000 0.000000 0.000000 0.000000 0.000000 0.028408
#
#
# Mechanical properties :
#
#
# Convention : Reuss Voigt Hill
#
# Bulk Modulus (GPa) = 145.74116 30.21452 87.97784
# Shear Modulus (GPa) = -26.83021 15.72349 -5.55336
#
# Velocity S-wave (km/s) = -3.67674 2.81466 -1.67274
# Velocity P-wave (km/s) = 7.44360 5.07805 6.37157
#
# Compressibility (1/GPa) = 0.00686148
#
# Stress axis : x y z
#
# Youngs Moduli (GPa) = -159.60569 -159.50984 -5.11884
#
# Poissons Ratio (x) = -4.26708 0.34327
# Poissons Ratio (y) = -4.26964 0.34330
# Poissons Ratio (z) = 10.70329 10.69780
#
# Static dielectric constant tensor:
#      x y z
#    x 1.727280 0.000000 0.000000 
#    y 0.000000 1.727270 0.000000 
#    z 0.000000 0.000000 1.755280 
# 
# From -- ./inp_files/1639.got.cif
#   From: 2010.05.17/outbox.ucp.g08.bks.cvg/sg90_1_cif.got.tgz:1639.got - 2010.06.11 10:36:03.
