data_PCOD9547452
_publ_section_title
;
Structure prediction by ZEFSAII (Michael W. Deem and Ramdas Pophale) SiO2 
 PCOD9547452
Probable space group: P 4 21 2
;
_chemical_formula_sum "Si O2"
_cell_formula_units_Z 24
_cell_length_a 14.025001
_cell_length_b 14.025001
_cell_length_c 4.730717
_cell_angle_alpha 90.000000
_cell_angle_beta 90.000000
_cell_angle_gamma 90.000000
_cell_volume 930.535123
_symmetry_space_group_name_H-M "P 4 21 2"
_symmetry_group_IT_number 90
_symmetry_cell_setting 'tetragonal'
loop_
_space_group_symop_operation_xyz
x,y,z
1/2-y,1/2+x,z
-x,-y,z
1/2+y,1/2-x,z
1/2+x,1/2-y,-z
1/2-x,1/2+y,-z
y,x,-z
-y,-x,-z
loop_
_atom_site_type_symbol
_atom_site_label
_atom_site_fract_x
_atom_site_fract_y
_atom_site_fract_z
Si Si1 0.277102 0.277102 0.500000
Si Si2 0.500000 0.000000 0.737865
Si Si3 0.288030 0.083029 0.822419
Si Si4 0.000000 0.000000 0.000000
Si Si5 0.512562 0.697137 0.326574
O O1 0.273935 0.189972 0.717729
O O2 0.376814 0.274363 0.330012
O O3 0.394162 0.050768 0.746664
O O4 0.211021 0.021541 0.646181
O O5 0.267561 0.054634 0.144700
O O6 0.001594 0.906822 0.802407
#
# Coordination Sequence:
#
# PCOD9547452 Si02
#       5
#     4   2   8   2   8
#     4  12  28  55  86 121 168 216 278 344 424 502
#     4  12  28  54  80 122 160 222 272 350 412 494
#     4  12  29  51  83 120 163 214 275 341 420 494
#     4  12  28  50  80 114 164 206 280 330 424 490
#     4  12  29  51  80 119 161 216 269 345 409 504
#
# _framework density 25.791611
#
# number of rings (size 3 to 8) (size 9 to 14) (size 15 to 20)
#    0.000    0.000    3.333    4.000    4.667    8.667 
#    0.000    0.000    0.000    0.000    0.000    0.000 
#    0.000    0.000    0.000    0.000    0.000    0.000 
#
# Total GULP energy -134379.551963 kJ/mol
# GULP energy per Si atom -5599.147998 kJ/mol
# Density = 2.573291 g / cm^3
# Si number density = 25.791611 Si / 1000 Ang^3
#
#
#
# Elastic Constant Matrix: (Units=GPa)
#
#
# Indices 1 2 3 4 5 6 
#
# 1 217.2321 18.4487 23.4182 0.0000 0.0000 0.0000
# 2 18.4487 217.2321 23.4182 0.0000 0.0000 0.0000
# 3 23.4182 23.4182 85.1745 0.0000 0.0000 0.0000
# 4 0.0000 0.0000 0.0000 15.9444 0.0000 0.0000
# 5 0.0000 0.0000 0.0000 0.0000 15.9444 0.0000
# 6 0.0000 0.0000 0.0000 0.0000 0.0000 47.8757
#
#
#
# Elastic Compliance Matrix: (Units=1/GPa)
#
#
# Indices 1 2 3 4 5 6 
#
# 1 0.004759 -0.000271 -0.001234 0.000000 0.000000 0.000000
# 2 -0.000271 0.004759 -0.001234 0.000000 0.000000 0.000000
# 3 -0.001234 -0.001234 0.012419 0.000000 0.000000 0.000000
# 4 0.000000 0.000000 0.000000 0.062718 0.000000 0.000000
# 5 0.000000 0.000000 0.000000 0.000000 0.062718 0.000000
# 6 0.000000 0.000000 0.000000 0.000000 0.000000 0.020887
#
#
# Mechanical properties :
#
#
# Convention : Reuss Voigt Hill
#
# Bulk Modulus (GPa) = 60.75474 72.24543 66.50009
# Shear Modulus (GPa) = 27.89766 46.24312 37.07039
#
# Velocity S-wave (km/s) = 3.29242 4.23892 3.79529
# Velocity P-wave (km/s) = 6.16932 7.21318 6.71158
#
# Compressibility (1/GPa) = 0.01645962
#
# Stress axis : x y z
#
# Youngs Moduli (GPa) = 210.10910 210.10910 80.52059
#
# Poissons Ratio (x) = 0.05698 0.09936
# Poissons Ratio (y) = 0.05698 0.09936
# Poissons Ratio (z) = 0.25928 0.25928
#
# Static dielectric constant tensor:
#      x y z
#    x 1.985060 0.000000 0.000000 
#    y 0.000000 1.985060 0.000000 
#    z 0.000000 0.000000 2.653910 
# 
# From -- ./inp_files/298.got.cif
#   From: 2010.05.17/outbox.cif.g08.bks.cpg/sg90_1_cif.got.tgz:298.got - 2010.06.03 19:17:45.
