data_PCOD9547568
_publ_section_title
;
Structure prediction by ZEFSAII (Michael W. Deem and Ramdas Pophale) SiO2 
 PCOD9547568
Probable space group: P 41 2 2
;
_chemical_formula_sum "Si O2"
_cell_formula_units_Z 64
_cell_length_a 14.689249
_cell_length_b 14.689249
_cell_length_c 15.031014
_cell_angle_alpha 90.000000
_cell_angle_beta 90.000000
_cell_angle_gamma 90.000000
_cell_volume 3243.302559
_symmetry_space_group_name_H-M "P 41 2 2"
_symmetry_group_IT_number 91
_symmetry_cell_setting 'tetragonal'
loop_
_space_group_symop_operation_xyz
x,y,z
-y,x,1/4+z
-x,-y,1/2+z
y,-x,3/4+z
x,-y,1/2-z
-x,y,-z
y,x,3/4-z
-y,-x,1/4-z
loop_
_atom_site_type_symbol
_atom_site_label
_atom_site_fract_x
_atom_site_fract_y
_atom_site_fract_z
Si Si1 0.862442 0.251576 0.356865
Si Si2 0.009957 0.606108 0.140990
Si Si3 0.210441 0.651361 0.141343
Si Si4 0.039162 0.098976 0.099656
Si Si5 0.654012 0.773830 0.101480
Si Si6 0.645426 0.495763 0.643262
Si Si7 0.902717 0.758785 0.340997
Si Si8 0.602788 0.021577 0.390539
O O1 0.895149 0.146527 0.360553
O O2 0.759410 0.251373 0.389575
O O3 0.865009 0.274130 0.252494
O O4 0.932877 0.325580 0.394077
O O5 0.109395 0.636347 0.108886
O O6 0.998301 0.500553 0.117076
O O7 0.016428 0.609843 0.250346
O O8 0.248523 0.751478 0.125000
O O9 0.213774 0.634529 0.246828
O O10 0.283727 0.579300 0.104252
O O11 0.989188 0.172165 0.163650
O O12 0.998827 0.001174 0.125000
O O13 0.000000 0.120412 0.000000
O O14 0.590825 0.691278 0.136577
O O15 0.630062 0.875315 0.137785
O O16 0.648878 0.500000 0.750000
O O17 0.544882 0.455119 0.625000
O O18 0.821554 0.821554 0.375000
O O19 0.945589 0.673879 0.393095
#
# Coordination Sequence:
#
# PCOD9547568 Si02
#       8
#     8   8   8   8   8   8   8   8
#     4  11  21  33  53  82 111 145 182 232 275 333
#     4   9  18  31  50  78 106 137 177 215 272 324
#     4   9  17  31  55  81 107 136 177 225 274 334
#     4  11  20  33  52  80 113 145 191 234 271 333
#     4  10  18  31  56  82 104 139 185 223 270 329
#     4   9  17  32  59  85 104 138 185 235 278 339
#     4  10  19  33  57  79 105 140 192 233 272 324
#     4   9  16  31  55  75 100 138 182 222 258 324
#
# _framework density 19.732973999999999
#
# number of rings (size 3 to 8) (size 9 to 14) (size 15 to 20)
#    0.000    2.250    5.000    0.000    0.000    0.500 
#    0.000    0.625   13.750    1.500    0.000    0.000 
#    0.000    0.000    0.000    0.000    0.000    0.000 
#
# Total GULP energy -356319.756552 kJ/mol
# GULP energy per Si atom -5567.496196 kJ/mol
# Density = 1.968806 g / cm^3
# Si number density = 19.732974 Si / 1000 Ang^3
#
#
#
# Elastic Constant Matrix: (Units=GPa)
#
#
# Indices 1 2 3 4 5 6 
#
# 1 125.7717 85.5054 -6.3579 0.0000 0.0000 0.0000
# 2 85.5054 125.7735 -6.3552 0.0000 0.0000 0.0000
# 3 -6.3579 -6.3552 20.1621 0.0000 0.0000 0.0000
# 4 0.0000 0.0000 0.0000 6.0007 0.0000 0.0000
# 5 0.0000 0.0000 0.0000 0.0000 6.0028 0.0000
# 6 0.0000 0.0000 0.0000 0.0000 0.0000 31.1533
#
#
#
# Elastic Compliance Matrix: (Units=1/GPa)
#
#
# Indices 1 2 3 4 5 6 
#
# 1 0.014830 -0.010005 0.001523 0.000000 0.000000 0.000000
# 2 -0.010005 0.014829 0.001519 0.000000 0.000000 0.000000
# 3 0.001523 0.001519 0.050557 0.000000 0.000000 0.000000
# 4 0.000000 0.000000 0.000000 0.166648 0.000000 0.000000
# 5 0.000000 0.000000 0.000000 0.000000 0.166589 0.000000
# 6 0.000000 0.000000 0.000000 0.000000 0.000000 0.032099
#
#
# Mechanical properties :
#
#
# Convention : Reuss Voigt Hill
#
# Bulk Modulus (GPa) = 15.08511 46.36577 30.72544
# Shear Modulus (GPa) = 10.38261 21.89236 16.13749
#
# Velocity S-wave (km/s) = 2.29630 3.33442 2.86281
# Velocity P-wave (km/s) = 3.83300 6.19452 5.15092
#
# Compressibility (1/GPa) = 0.06629053
#
# Stress axis : x y z
#
# Youngs Moduli (GPa) = 67.43274 67.43467 19.77965
#
# Poissons Ratio (x) = 0.67467 -0.03012
# Poissons Ratio (y) = 0.67465 -0.03005
# Poissons Ratio (z) = -0.10269 -0.10245
#
# Static dielectric constant tensor:
#      x y z
#    x 1.738630 0.000000 0.000000 
#    y 0.000000 1.738630 0.000000 
#    z 0.000000 0.000000 1.776980 
# 
# From -- ./inp_files/5744.got.cif
#   From: 2010.05.17/outbox.cif.g08.bks.cpg/sg91_3_cif.got.tgz:5744.got - 2010.06.03 19:20:03.
