data_PCOD9547979
_publ_section_title
;
Structure prediction by ZEFSAII (Michael W. Deem and Ramdas Pophale) SiO2 
 PCOD9547979
Probable space group: P 41 2 2
;
_chemical_formula_sum "Si O2"
_cell_formula_units_Z 40
_cell_length_a 9.300828
_cell_length_b 9.300828
_cell_length_c 21.043075
_cell_angle_alpha 90.000000
_cell_angle_beta 90.000000
_cell_angle_gamma 90.000000
_cell_volume 1820.339651
_symmetry_space_group_name_H-M "P 41 2 2"
_symmetry_group_IT_number 91
_symmetry_cell_setting 'tetragonal'
loop_
_space_group_symop_operation_xyz
x,y,z
-y,x,1/4+z
-x,-y,1/2+z
y,-x,3/4+z
x,-y,1/2-z
-x,y,-z
y,x,3/4-z
-y,-x,1/4-z
loop_
_atom_site_type_symbol
_atom_site_label
_atom_site_fract_x
_atom_site_fract_y
_atom_site_fract_z
Si Si1 0.698717 0.838055 0.232913
Si Si2 0.163910 0.602660 0.687243
Si Si3 0.981807 0.884349 0.805891
Si Si4 0.620017 0.382481 0.368016
Si Si5 0.348381 0.145529 0.531925
O O1 0.749439 0.747025 0.294643
O O2 0.603562 0.729243 0.191102
O O3 0.848695 0.850563 0.193803
O O4 0.649389 0.000000 0.250000
O O5 0.153709 0.500000 0.750000
O O6 0.255062 0.500002 0.642646
O O7 0.999243 0.645985 0.674202
O O8 0.932721 0.932721 0.875000
O O9 0.891109 0.754577 0.776740
O O10 0.965179 0.000000 0.750000
O O11 0.473622 0.473622 0.375000
O O12 0.673252 0.285554 0.426266
O O13 0.500000 0.166702 0.500000
#
# Coordination Sequence:
#
# PCOD9547979 Si02
#       5
#     8   8   8   8   8
#     4   9  19  38  65  97 128 163 214 270 330 398
#     4   8  18  39  63  88 123 164 207 261 323 386
#     4  10  20  38  69 104 133 165 221 290 352 414
#     4  11  23  39  62  91 131 177 220 269 330 398
#     4  10  22  40  61  88 128 175 215 268 337 400
#
# _framework density 21.973921000000001
#
# number of rings (size 3 to 8) (size 9 to 14) (size 15 to 20)
#    0.000    2.400    0.000    2.400    0.000    4.800 
#    0.000    2.000    0.000    9.600    0.000    0.000 
#    0.000    0.000    0.000    0.000    0.000    0.000 
#
# Total GULP energy -223312.801106 kJ/mol
# GULP energy per Si atom -5582.820028 kJ/mol
# Density = 2.192391 g / cm^3
# Si number density = 21.973921 Si / 1000 Ang^3
#
#
#
# Elastic Constant Matrix: (Units=GPa)
#
#
# Indices 1 2 3 4 5 6 
#
# 1 123.1848 55.8236 70.2502 0.0000 0.0000 0.0000
# 2 55.8236 123.1848 70.2502 0.0000 0.0000 0.0000
# 3 70.2502 70.2502 102.9846 0.0000 0.0000 0.0000
# 4 0.0000 0.0000 0.0000 36.0568 0.0000 0.0000
# 5 0.0000 0.0000 0.0000 0.0000 36.0568 0.0000
# 6 0.0000 0.0000 0.0000 0.0000 0.0000 44.4937
#
#
#
# Elastic Compliance Matrix: (Units=1/GPa)
#
#
# Indices 1 2 3 4 5 6 
#
# 1 0.013435 -0.001411 -0.008202 0.000000 0.000000 0.000000
# 2 -0.001411 0.013435 -0.008202 0.000000 0.000000 0.000000
# 3 -0.008202 -0.008202 0.020900 0.000000 0.000000 0.000000
# 4 0.000000 0.000000 0.000000 0.027734 0.000000 0.000000
# 5 0.000000 0.000000 0.000000 0.000000 0.027734 0.000000
# 6 0.000000 0.000000 0.000000 0.000000 0.000000 0.022475
#
#
# Mechanical properties :
#
#
# Convention : Reuss Voigt Hill
#
# Bulk Modulus (GPa) = 82.37345 82.44469 82.40907
# Shear Modulus (GPa) = 30.23178 33.52347 31.87762
#
# Velocity S-wave (km/s) = 3.71321 3.91013 3.81294
# Velocity P-wave (km/s) = 7.48012 7.61487 7.54780
#
# Compressibility (1/GPa) = 0.01213983
#
# Stress axis : x y z
#
# Youngs Moduli (GPa) = 74.43434 74.43434 47.84654
#
# Poissons Ratio (x) = 0.10500 0.39244
# Poissons Ratio (y) = 0.10500 0.39244
# Poissons Ratio (z) = 0.61052 0.61052
#
# Static dielectric constant tensor:
#      x y z
#    x 1.798180 0.000000 0.000000 
#    y 0.000000 1.798180 0.000000 
#    z 0.000000 0.000000 2.223880 
# 
# From -- ./inp_files/12754.got.cif
#   From: 2010.05.17/outbox.cif.g08.bks.cpg/sg91_7_cif.got.tgz:12754.got - 2010.06.03 19:20:03.
