data_PCOD9547233
_publ_section_title
;
Structure prediction by ZEFSAII (Michael W. Deem and Ramdas Pophale) SiO2 
 PCOD9547233
Probable space group: P 4 21 2
;
_chemical_formula_sum "Si O2"
_cell_formula_units_Z 36
_cell_length_a 13.385724
_cell_length_b 13.385724
_cell_length_c 10.406462
_cell_angle_alpha 90.000000
_cell_angle_beta 90.000000
_cell_angle_gamma 90.000000
_cell_volume 1864.604959
_symmetry_space_group_name_H-M "P 4 21 2"
_symmetry_group_IT_number 90
_symmetry_cell_setting 'tetragonal'
loop_
_space_group_symop_operation_xyz
x,y,z
1/2-y,1/2+x,z
-x,-y,z
1/2+y,1/2-x,z
1/2+x,1/2-y,-z
1/2-x,1/2+y,-z
y,x,-z
-y,-x,-z
loop_
_atom_site_type_symbol
_atom_site_label
_atom_site_fract_x
_atom_site_fract_y
_atom_site_fract_z
Si Si1 0.218512 0.965408 0.296915
Si Si2 0.332567 0.001336 0.040699
Si Si3 0.896545 0.809624 0.127872
Si Si4 0.500000 0.500000 0.239898
Si Si5 0.818083 0.744073 0.636698
O O1 0.247295 0.988074 0.148081
O O2 0.267255 0.861431 0.334044
O O3 0.264162 0.061718 0.366963
O O4 0.099238 0.967068 0.316139
O O5 0.403375 0.905445 0.056627
O O6 0.278295 0.025980 0.906886
O O7 0.823266 0.793507 0.248911
O O8 0.962352 0.906817 0.157354
O O9 0.830387 0.830387 0.000000
O O10 0.782509 0.782509 0.500000
#
# Coordination Sequence:
#
# PCOD9547233 Si02
#       5
#     8   8   8   4   8
#     4  11  22  44  68  95 133 183 224 278 345 414
#     4  11  22  38  65  96 130 172 226 279 338 406
#     4  11  21  41  62 100 128 171 220 274 339 408
#     4  10  23  36  67  98 133 166 223 274 349 402
#     4  11  26  44  68  98 135 179 236 279 338 411
#
# _framework density 19.307037000000001
#
# number of rings (size 3 to 8) (size 9 to 14) (size 15 to 20)
#    0.000    1.111    6.667    0.333    3.111    4.000 
#    0.000    5.000    0.000    0.000    0.000    0.000 
#    0.000    0.000    0.000    0.000    0.000    0.000 
#
# Total GULP energy -200867.203444 kJ/mol
# GULP energy per Si atom -5579.644540 kJ/mol
# Density = 1.926309 g / cm^3
# Si number density = 19.307037 Si / 1000 Ang^3
#
#
#
# Elastic Constant Matrix: (Units=GPa)
#
#
# Indices 1 2 3 4 5 6 
#
# 1 126.2456 63.8890 44.7194 0.0000 0.0000 0.0000
# 2 63.8890 126.2456 44.7194 0.0000 0.0000 0.0000
# 3 44.7194 44.7194 104.3811 0.0000 0.0000 0.0000
# 4 0.0000 0.0000 0.0000 -1.2506 0.0000 0.0000
# 5 0.0000 0.0000 0.0000 0.0000 -1.2506 0.0000
# 6 0.0000 0.0000 0.0000 0.0000 0.0000 25.7053
#
#
#
# Elastic Compliance Matrix: (Units=1/GPa)
#
#
# Indices 1 2 3 4 5 6 
#
# 1 0.011312 -0.004725 -0.002822 0.000000 0.000000 0.000000
# 2 -0.004725 0.011312 -0.002822 0.000000 0.000000 0.000000
# 3 -0.002822 -0.002822 0.011998 0.000000 0.000000 0.000000
# 4 0.000000 0.000000 0.000000 -0.799590 0.000000 0.000000
# 5 0.000000 0.000000 0.000000 0.000000 -0.799590 0.000000
# 6 0.000000 0.000000 0.000000 0.000000 0.000000 0.038902
#
#
# Mechanical properties :
#
#
# Convention : Reuss Voigt Hill
#
# Bulk Modulus (GPa) = 72.02468 73.72533 72.87501
# Shear Modulus (GPa) = -3.33269 18.21045 7.43888
#
# Velocity S-wave (km/s) = -1.31526 3.07449 1.96502
# Velocity P-wave (km/s) = 5.92278 7.13246 6.55558
#
# Compressibility (1/GPa) = 0.01388413
#
# Stress axis : x y z
#
# Youngs Moduli (GPa) = 88.40295 88.40295 83.34523
#
# Poissons Ratio (x) = 0.41770 0.23520
# Poissons Ratio (y) = 0.41770 0.23520
# Poissons Ratio (z) = 0.24947 0.24947
#
# Static dielectric constant tensor:
#      x y z
#    x 1.690110 0.000000 0.000000 
#    y 0.000000 1.690110 0.000000 
#    z 0.000000 0.000000 1.677140 
# 
# From -- ./inp_files/1154.got.cif
#   From: 2010.05.17/outbox.cif.g08.bks.cpg/sg90_1_cif.got.tgz:1154.got - 2010.06.03 19:17:45.
