data_PCOD9547142
_publ_section_title
;
Structure prediction by ZEFSAII (Michael W. Deem and Ramdas Pophale) SiO2 
 PCOD9547142
Probable space group: P 4 21 2
;
_chemical_formula_sum "Si O2"
_cell_formula_units_Z 54
_cell_length_a 13.793738
_cell_length_b 13.793738
_cell_length_c 12.356394
_cell_angle_alpha 90.000000
_cell_angle_beta 90.000000
_cell_angle_gamma 90.000000
_cell_volume 2351.016587
_symmetry_space_group_name_H-M "P 4 21 2"
_symmetry_group_IT_number 90
_symmetry_cell_setting 'tetragonal'
loop_
_space_group_symop_operation_xyz
x,y,z
1/2-y,1/2+x,z
-x,-y,z
1/2+y,1/2-x,z
1/2+x,1/2-y,-z
1/2-x,1/2+y,-z
y,x,-z
-y,-x,-z
loop_
_atom_site_type_symbol
_atom_site_label
_atom_site_fract_x
_atom_site_fract_y
_atom_site_fract_z
Si Si1 0.000000 0.500000 0.803906
Si Si2 0.646898 0.934885 0.576791
Si Si3 0.610950 0.473806 0.769185
Si Si4 0.680758 0.667069 0.703087
Si Si5 0.460974 0.720424 0.758575
Si Si6 0.226684 0.226684 0.500000
Si Si7 0.783991 0.981836 0.013797
Si Si8 0.853657 0.331847 0.879334
O O1 0.089139 0.417882 0.813111
O O2 0.547359 0.877092 0.552903
O O3 0.678948 0.929876 0.703707
O O4 0.737119 0.884043 0.516124
O O5 0.500000 0.500000 0.749079
O O6 0.677404 0.549515 0.705718
O O7 0.616630 0.363596 0.730019
O O8 0.630463 0.490962 0.897641
O O9 0.569263 0.699930 0.713915
O O10 0.730097 0.715222 0.601618
O O11 0.746695 0.689740 0.806741
O O12 0.470722 0.705951 0.886799
O O13 0.728424 0.888850 0.058623
O O14 0.716570 0.074200 0.035094
#
# Coordination Sequence:
#
# PCOD9547142 Si02
#       8
#     2   8   8   8   8   4   8   8
#     4   8  16  40  56  92 144 170 228 280 348 416
#     4  11  27  51  73 105 143 185 242 310 379 438
#     4   9  21  40  64 101 143 188 235 291 357 428
#     4  10  23  45  69  97 141 183 245 306 357 430
#     4  11  23  42  66 103 143 188 233 298 358 449
#     4  12  26  50  75  99 134 190 252 308 380 426
#     4  10  21  36  63  98 139 188 227 276 361 431
#     4   9  20  38  61  98 137 183 234 284 345 432
#
# _framework density 22.968786999999999
#
# number of rings (size 3 to 8) (size 9 to 14) (size 15 to 20)
#    0.000    1.926    1.481    0.444    4.148    8.296 
#    8.000    2.593    0.000    0.000    0.000    0.000 
#    0.000    0.000    0.000    0.000    0.000    0.000 
#
# Total GULP energy -301003.357390 kJ/mol
# GULP energy per Si atom -5574.136248 kJ/mol
# Density = 2.291651 g / cm^3
# Si number density = 22.968787 Si / 1000 Ang^3
#
#
#
# Elastic Constant Matrix: (Units=GPa)
#
#
# Indices 1 2 3 4 5 6 
#
# 1 75.2279 18.9190 11.5993 0.0000 0.0000 0.0000
# 2 18.9190 75.2279 11.5993 0.0000 0.0000 0.0000
# 3 11.5993 11.5993 41.1975 0.0000 0.0000 0.0000
# 4 0.0000 0.0000 0.0000 27.6092 0.0000 0.0000
# 5 0.0000 0.0000 0.0000 0.0000 27.6092 0.0000
# 6 0.0000 0.0000 0.0000 0.0000 0.0000 40.6254
#
#
#
# Elastic Compliance Matrix: (Units=1/GPa)
#
#
# Indices 1 2 3 4 5 6 
#
# 1 0.014586 -0.003173 -0.003214 0.000000 0.000000 0.000000
# 2 -0.003173 0.014586 -0.003214 0.000000 0.000000 0.000000
# 3 -0.003214 -0.003214 0.026083 0.000000 0.000000 0.000000
# 4 0.000000 0.000000 0.000000 0.036220 0.000000 0.000000
# 5 0.000000 0.000000 0.000000 0.000000 0.036220 0.000000
# 6 0.000000 0.000000 0.000000 0.000000 0.000000 0.024615
#
#
# Mechanical properties :
#
#
# Convention : Reuss Voigt Hill
#
# Bulk Modulus (GPa) = 27.73474 30.65429 29.19452
# Shear Modulus (GPa) = 27.24370 29.13781 28.19075
#
# Velocity S-wave (km/s) = 3.44774 3.56558 3.50716
# Velocity P-wave (km/s) = 5.28682 5.50692 5.39799
#
# Compressibility (1/GPa) = 0.03605586
#
# Stress axis : x y z
#
# Youngs Moduli (GPa) = 68.55722 68.55722 38.33936
#
# Poissons Ratio (x) = 0.21752 0.12320
# Poissons Ratio (y) = 0.21752 0.12320
# Poissons Ratio (z) = 0.22031 0.22031
#
# Static dielectric constant tensor:
#      x y z
#    x 1.908470 0.000000 0.000000 
#    y 0.000000 1.908470 0.000000 
#    z 0.000000 0.000000 1.867830 
# 
# From -- ./inp_files/2279.got.cif
#   From: 2010.05.17/outbox.cif.g08.bks.cpg/sg90_2_cif.got.tgz:2279.got - 2010.06.03 19:17:45.
