data_PCOD9547049
_publ_section_title
;
Structure prediction by ZEFSAII (Michael W. Deem and Ramdas Pophale) SiO2 
 PCOD9547049
Probable space group: P 4 2 2
;
_chemical_formula_sum "Si O2"
_cell_formula_units_Z 32
_cell_length_a 11.751921
_cell_length_b 11.751921
_cell_length_c 11.702200
_cell_angle_alpha 90.000000
_cell_angle_beta 90.000000
_cell_angle_gamma 90.000000
_cell_volume 1616.163309
_symmetry_space_group_name_H-M "P 4 2 2"
_symmetry_group_IT_number 89
_symmetry_cell_setting 'tetragonal'
loop_
_space_group_symop_operation_xyz
x,y,z
-y,x,z
-x,-y,z
y,-x,z
x,-y,-z
-x,y,-z
y,x,-z
-y,-x,-z
loop_
_atom_site_type_symbol
_atom_site_label
_atom_site_fract_x
_atom_site_fract_y
_atom_site_fract_z
Si Si1 0.073830 0.175355 0.190945
Si Si2 0.000000 0.327763 0.000000
Si Si3 0.365691 0.365691 0.500000
Si Si4 0.210264 0.558686 0.117658
Si Si5 0.334718 0.247813 0.738743
O O1 0.080450 0.244790 0.072777
O O2 0.131908 0.263421 0.275415
O O3 0.942001 0.142311 0.199564
O O4 0.916800 0.399301 0.082392
O O5 0.500000 0.345324 0.500000
O O6 0.327099 0.311039 0.618345
O O7 0.277412 0.667183 0.167547
O O8 0.217650 0.459731 0.213098
O O9 0.255160 0.500000 0.000000
#
# Coordination Sequence:
#
# PCOD9547049 Si02
#       5
#     8   4   4   8   8
#     4  11  24  41  67  99 136 184 232 282 350 427
#     4  12  23  41  64 104 154 187 225 282 368 440
#     4  11  24  48  74  97 136 192 242 295 346 416
#     4  12  25  40  65 105 147 184 222 285 360 431
#     4  12  25  45  70 101 140 185 238 289 355 420
#
# _framework density 19.799982
#
# number of rings (size 3 to 8) (size 9 to 14) (size 15 to 20)
#    0.000    0.375    7.500    1.875    0.000    1.500 
#    0.000    2.500    0.000    3.000    0.000    0.000 
#    0.000    0.000    0.000    0.000    0.000    0.000 
#
# Total GULP energy -178551.353800 kJ/mol
# GULP energy per Si atom -5579.729806 kJ/mol
# Density = 1.975492 g / cm^3
# Si number density = 19.799982 Si / 1000 Ang^3
#
#
#
# Elastic Constant Matrix: (Units=GPa)
#
#
# Indices 1 2 3 4 5 6 
#
# 1 98.2426 57.3622 31.2323 0.0000 0.0000 0.0000
# 2 57.3622 98.2426 31.2323 0.0000 0.0000 0.0000
# 3 31.2323 31.2323 106.5137 0.0000 0.0000 0.0000
# 4 0.0000 0.0000 0.0000 29.9116 0.0000 0.0000
# 5 0.0000 0.0000 0.0000 0.0000 29.9116 0.0000
# 6 0.0000 0.0000 0.0000 0.0000 0.0000 39.7156
#
#
#
# Elastic Compliance Matrix: (Units=1/GPa)
#
#
# Indices 1 2 3 4 5 6 
#
# 1 0.015873 -0.008589 -0.002136 0.000000 0.000000 0.000000
# 2 -0.008589 0.015873 -0.002136 0.000000 0.000000 0.000000
# 3 -0.002136 -0.002136 0.010641 0.000000 0.000000 0.000000
# 4 0.000000 0.000000 0.000000 0.033432 0.000000 0.000000
# 5 0.000000 0.000000 0.000000 0.000000 0.033432 0.000000
# 6 0.000000 0.000000 0.000000 0.000000 0.000000 0.025179
#
#
# Mechanical properties :
#
#
# Convention : Reuss Voigt Hill
#
# Bulk Modulus (GPa) = 60.00390 60.29472 60.14931
# Shear Modulus (GPa) = 30.17406 32.11925 31.14666
#
# Velocity S-wave (km/s) = 3.90801 4.03201 3.97049
# Velocity P-wave (km/s) = 7.12279 7.22455 7.17385
#
# Compressibility (1/GPa) = 0.01666558
#
# Stress axis : x y z
#
# Youngs Moduli (GPa) = 63.00108 63.00108 93.97609
#
# Poissons Ratio (x) = 0.54111 0.20072
# Poissons Ratio (y) = 0.54111 0.20072
# Poissons Ratio (z) = 0.13456 0.13456
#
# Static dielectric constant tensor:
#      x y z
#    x 1.737250 0.000000 0.000000 
#    y 0.000000 1.737250 0.000000 
#    z 0.000000 0.000000 1.815470 
# 
# From -- ./inp_files/1585.got.cif
#   From: 2010.05.17/outbox.cif.g08.bks.cpg/sg89_1_cif.got.tgz:1585.got - 2010.06.03 19:15:31.
