data_PCOD9547519
_publ_section_title
;
Structure prediction by ZEFSAII (Michael W. Deem and Ramdas Pophale) SiO2 
 PCOD9547519
Probable space group: P 41 2 2
;
_chemical_formula_sum "Si O2"
_cell_formula_units_Z 40
_cell_length_a 8.157793
_cell_length_b 8.157793
_cell_length_c 22.317766
_cell_angle_alpha 90.000000
_cell_angle_beta 90.000000
_cell_angle_gamma 90.000000
_cell_volume 1485.238102
_symmetry_space_group_name_H-M "P 41 2 2"
_symmetry_group_IT_number 91
_symmetry_cell_setting 'tetragonal'
loop_
_space_group_symop_operation_xyz
x,y,z
-y,x,1/4+z
-x,-y,1/2+z
y,-x,3/4+z
x,-y,1/2-z
-x,y,-z
y,x,3/4-z
-y,-x,1/4-z
loop_
_atom_site_type_symbol
_atom_site_label
_atom_site_fract_x
_atom_site_fract_y
_atom_site_fract_z
Si Si1 0.317983 0.478493 0.972169
Si Si2 0.394366 0.814702 0.937818
Si Si3 0.050411 0.001931 0.064875
Si Si4 0.696517 0.122096 0.006030
Si Si5 0.628699 0.153752 0.663658
O O1 0.328561 0.630340 0.925477
O O2 0.262386 0.292299 0.960709
O O3 0.500000 0.460149 0.000000
O O4 0.201133 0.545900 0.024499
O O5 0.489094 0.900174 0.882869
O O6 0.265752 0.949857 0.959945
O O7 0.500000 0.790971 0.000000
O O8 0.957002 0.042999 0.125000
O O9 0.071892 0.803783 0.070072
O O10 0.000000 0.065291 0.000000
O O11 0.228452 0.092645 0.060541
O O12 0.500000 0.121408 0.000000
O O13 0.688040 0.311961 0.625000
#
# Coordination Sequence:
#
# PCOD9547519 Si02
#       5
#     8   8   8   8   8
#     4  10  19  33  61 100 131 172 232 288 363 446
#     4  10  17  33  60  91 138 174 224 297 358 436
#     4  11  24  43  69  96 136 196 251 312 388 463
#     4  10  20  38  63  95 138 180 233 295 369 437
#     4  11  18  35  66  96 128 184 241 298 367 454
#
# _framework density 26.931709000000001
#
# number of rings (size 3 to 8) (size 9 to 14) (size 15 to 20)
#    0.000    1.600    6.000    3.600    0.000    1.600 
#    0.000    1.000   13.200    0.000    0.000    0.000 
#    0.000    0.000    0.000    0.000    0.000    0.000 
#
# Total GULP energy -222825.122157 kJ/mol
# GULP energy per Si atom -5570.628054 kJ/mol
# Density = 2.687041 g / cm^3
# Si number density = 26.931709 Si / 1000 Ang^3
#
#
#
# Elastic Constant Matrix: (Units=GPa)
#
#
# Indices 1 2 3 4 5 6 
#
# 1 106.8163 14.9418 35.0244 0.0000 0.0000 0.0000
# 2 14.9418 106.8159 35.0246 0.0000 0.0000 0.0000
# 3 35.0244 35.0246 94.0463 0.0000 0.0000 0.0000
# 4 0.0000 0.0000 0.0000 33.1533 0.0000 0.0000
# 5 0.0000 0.0000 0.0000 0.0000 33.1533 0.0000
# 6 0.0000 0.0000 0.0000 0.0000 0.0000 15.5729
#
#
#
# Elastic Compliance Matrix: (Units=1/GPa)
#
#
# Indices 1 2 3 4 5 6 
#
# 1 0.010668 -0.000216 -0.003893 0.000000 0.000000 0.000000
# 2 -0.000216 0.010669 -0.003893 0.000000 0.000000 0.000000
# 3 -0.003893 -0.003893 0.013532 0.000000 0.000000 0.000000
# 4 0.000000 0.000000 0.000000 0.030163 0.000000 0.000000
# 5 0.000000 0.000000 0.000000 0.000000 0.030163 0.000000
# 6 0.000000 0.000000 0.000000 0.000000 0.000000 0.064214
#
#
# Mechanical properties :
#
#
# Convention : Reuss Voigt Hill
#
# Bulk Modulus (GPa) = 53.00335 53.07336 53.03836
# Shear Modulus (GPa) = 27.51774 31.22175 29.36974
#
# Velocity S-wave (km/s) = 3.19997 3.40853 3.30589
# Velocity P-wave (km/s) = 5.77723 5.93635 5.85733
#
# Compressibility (1/GPa) = 0.01886673
#
# Stress axis : x y z
#
# Youngs Moduli (GPa) = 93.73419 93.73364 73.89623
#
# Poissons Ratio (x) = 0.02024 0.28766
# Poissons Ratio (y) = 0.02024 0.28766
# Poissons Ratio (z) = 0.36488 0.36488
#
# Static dielectric constant tensor:
#      x y z
#    x 2.996830 0.000000 0.000000 
#    y 0.000000 2.996780 0.000000 
#    z 0.000000 0.000000 2.290660 
# 
# From -- ./inp_files/21723.got.cif
#   From: 2010.05.17/outbox.cif.g08.bks.cpg/sg91_11_cif.got.tgz:21723.got - 2010.06.03 19:20:03.
