data_PCOD9547246
_publ_section_title
;
Structure prediction by ZEFSAII (Michael W. Deem and Ramdas Pophale) SiO2 
 PCOD9547246
Probable space group: P 4 21 2
;
_chemical_formula_sum "Si O2"
_cell_formula_units_Z 58
_cell_length_a 18.009344
_cell_length_b 18.009344
_cell_length_c 7.486988
_cell_angle_alpha 90.000000
_cell_angle_beta 90.000000
_cell_angle_gamma 90.000000
_cell_volume 2428.303269
_symmetry_space_group_name_H-M "P 4 21 2"
_symmetry_group_IT_number 90
_symmetry_cell_setting 'tetragonal'
loop_
_space_group_symop_operation_xyz
x,y,z
1/2-y,1/2+x,z
-x,-y,z
1/2+y,1/2-x,z
1/2+x,1/2-y,-z
1/2-x,1/2+y,-z
y,x,-z
-y,-x,-z
loop_
_atom_site_type_symbol
_atom_site_label
_atom_site_fract_x
_atom_site_fract_y
_atom_site_fract_z
Si Si1 0.261967 0.878913 0.364167
Si Si2 0.167699 0.124315 0.797044
Si Si3 0.977113 0.617418 0.283744
Si Si4 0.870542 0.427472 0.697266
Si Si5 0.266693 0.479285 0.121104
Si Si6 0.706378 0.472099 0.724655
Si Si7 0.000000 0.500000 0.882495
Si Si8 0.735527 0.188638 0.753258
O O1 0.343311 0.898637 0.297793
O O2 0.276688 0.838428 0.550965
O O3 0.225570 0.817015 0.238969
O O4 0.215215 0.954011 0.395576
O O5 0.094436 0.149978 0.688509
O O6 0.244369 0.174556 0.778348
O O7 0.177983 0.035581 0.772370
O O8 0.142788 0.142788 0.000000
O O9 0.917882 0.555865 0.233590
O O10 0.964299 0.620504 0.498582
O O11 0.976209 0.692476 0.177612
O O12 0.783705 0.427894 0.726408
O O13 0.914639 0.472511 0.844254
O O14 0.246260 0.392385 0.151518
O O15 0.295202 0.490105 0.920215
#
# Coordination Sequence:
#
# PCOD9547246 Si02
#       8
#     8   8   8   8   8   8   2   8
#     4  11  24  40  65  96 128 169 226 270 335 398
#     4  10  23  44  66  96 132 176 223 271 340 407
#     4  11  20  36  56  87 128 172 205 262 333 401
#     4  12  19  36  58  88 126 167 212 261 327 407
#     4  11  24  39  62  89 126 168 224 271 328 397
#     4  11  24  40  63  91 128 171 216 275 330 396
#     4  12  20  32  60  86 128 172 204 258 340 392
#     4  11  24  43  66  97 132 174 221 278 336 403
#
# _framework density 23.884989999999998
#
# number of rings (size 3 to 8) (size 9 to 14) (size 15 to 20)
#    0.000    0.966    4.138    3.310    1.931    1.103 
#    0.000    0.690    0.000    4.138    0.000    0.000 
#    0.000    0.000    0.000    0.000    0.000    0.000 
#
# Total GULP energy -322880.453180 kJ/mol
# GULP energy per Si atom -5566.904365 kJ/mol
# Density = 2.383063 g / cm^3
# Si number density = 23.884990 Si / 1000 Ang^3
#
#
#
# Elastic Constant Matrix: (Units=GPa)
#
#
# Indices 1 2 3 4 5 6 
#
# 1 95.1741 13.6139 14.3063 0.0000 0.0000 0.0000
# 2 13.6139 95.1741 14.3063 0.0000 0.0000 0.0000
# 3 14.3063 14.3063 45.3149 0.0000 0.0000 0.0000
# 4 0.0000 0.0000 0.0000 22.7871 0.0000 0.0000
# 5 0.0000 0.0000 0.0000 0.0000 22.7871 0.0000
# 6 0.0000 0.0000 0.0000 0.0000 0.0000 73.1689
#
#
#
# Elastic Compliance Matrix: (Units=1/GPa)
#
#
# Indices 1 2 3 4 5 6 
#
# 1 0.011143 -0.001118 -0.003165 0.000000 0.000000 0.000000
# 2 -0.001118 0.011143 -0.003165 0.000000 0.000000 0.000000
# 3 -0.003165 -0.003165 0.024066 0.000000 0.000000 0.000000
# 4 0.000000 0.000000 0.000000 0.043885 0.000000 0.000000
# 5 0.000000 0.000000 0.000000 0.000000 0.043885 0.000000
# 6 0.000000 0.000000 0.000000 0.000000 0.000000 0.013667
#
#
# Mechanical properties :
#
#
# Convention : Reuss Voigt Hill
#
# Bulk Modulus (GPa) = 31.79051 35.56844 33.67947
# Shear Modulus (GPa) = 28.87358 36.64438 32.75898
#
# Velocity S-wave (km/s) = 3.48064 3.92114 3.70744
# Velocity P-wave (km/s) = 5.43064 5.95183 5.69720
#
# Compressibility (1/GPa) = 0.03145593
#
# Stress axis : x y z
#
# Youngs Moduli (GPa) = 89.74456 89.74456 41.55215
#
# Poissons Ratio (x) = 0.10035 0.13151
# Poissons Ratio (y) = 0.10035 0.13151
# Poissons Ratio (z) = 0.28403 0.28403
#
# Static dielectric constant tensor:
#      x y z
#    x 2.209940 0.000000 0.000000 
#    y 0.000000 2.209940 0.000000 
#    z 0.000000 0.000000 2.104400 
# 
# From -- ./inp_files/1671.got.cif
#   From: 2010.05.17/outbox.cif.g08.bks.cpg/sg90_1_cif.got.tgz:1671.got - 2010.06.03 19:17:45.
