data_PCOD9547552
_publ_section_title
;
Structure prediction by ZEFSAII (Michael W. Deem and Ramdas Pophale) SiO2 
 PCOD9547552
Probable space group: P 41 2 2
;
_chemical_formula_sum "Si O2"
_cell_formula_units_Z 40
_cell_length_a 14.438312
_cell_length_b 14.438312
_cell_length_c 8.383552
_cell_angle_alpha 90.000000
_cell_angle_beta 90.000000
_cell_angle_gamma 90.000000
_cell_volume 1747.675939
_symmetry_space_group_name_H-M "P 41 2 2"
_symmetry_group_IT_number 91
_symmetry_cell_setting 'tetragonal'
loop_
_space_group_symop_operation_xyz
x,y,z
-y,x,1/4+z
-x,-y,1/2+z
y,-x,3/4+z
x,-y,1/2-z
-x,y,-z
y,x,3/4-z
-y,-x,1/4-z
loop_
_atom_site_type_symbol
_atom_site_label
_atom_site_fract_x
_atom_site_fract_y
_atom_site_fract_z
Si Si1 0.360319 0.152512 0.624671
Si Si2 0.001845 0.765633 0.681829
Si Si3 0.688543 0.311458 0.625000
Si Si4 0.081164 0.918837 0.125000
Si Si5 0.242681 0.493044 0.559068
Si Si6 0.199364 0.199364 0.875000
Si Si7 0.418901 0.418901 0.875000
O O1 0.334983 0.045854 0.580329
O O2 0.330896 0.221768 0.483639
O O3 0.464551 0.164902 0.692797
O O4 0.288733 0.182974 0.765566
O O5 0.932607 0.822019 0.790620
O O6 0.000000 0.803006 0.500000
O O7 0.106493 0.789258 0.733740
O O8 0.601197 0.293822 0.749007
O O9 0.069562 0.000000 0.250000
O O10 0.219117 0.500000 0.750000
O O11 0.323093 0.569154 0.537732
O O12 0.426841 0.500000 0.750000
#
# Coordination Sequence:
#
# PCOD9547552 Si02
#       7
#     8   8   4   4   8   4   4
#     4  11  22  39  63  96 133 172 219 275 330 393
#     4  10  22  38  62  92 130 172 215 268 333 389
#     4  12  24  40  64 100 135 172 219 274 327 394
#     4  12  20  32  54  90 129 166 213 272 329 394
#     4  11  23  39  63  94 132 177 219 270 332 391
#     4  10  20  42  66  90 129 178 221 274 335 396
#     4  10  18  30  50  82 117 158 201 254 313 376
#
# _framework density 22.887540000000001
#
# number of rings (size 3 to 8) (size 9 to 14) (size 15 to 20)
#    0.000    1.200    0.000    9.600    0.000    0.000 
#    0.000    0.000    0.000   36.000    0.000    0.000 
#    0.000    0.000    0.000    0.000    0.000    0.000 
#
# Total GULP energy -222751.814169 kJ/mol
# GULP energy per Si atom -5568.795354 kJ/mol
# Density = 2.283545 g / cm^3
# Si number density = 22.887540 Si / 1000 Ang^3
#
#
#
# Elastic Constant Matrix: (Units=GPa)
#
#
# Indices 1 2 3 4 5 6 
#
# 1 74.1544 43.5390 16.6073 0.0000 0.0000 0.0000
# 2 43.5390 74.1514 16.6076 0.0000 0.0000 0.0000
# 3 16.6073 16.6076 86.6593 0.0000 0.0000 0.0000
# 4 0.0000 0.0000 0.0000 23.4588 0.0000 0.0000
# 5 0.0000 0.0000 0.0000 0.0000 23.4597 0.0000
# 6 0.0000 0.0000 0.0000 0.0000 0.0000 9.9685
#
#
#
# Elastic Compliance Matrix: (Units=1/GPa)
#
#
# Indices 1 2 3 4 5 6 
#
# 1 0.020823 -0.011841 -0.001721 0.000000 0.000000 0.000000
# 2 -0.011841 0.020824 -0.001722 0.000000 0.000000 0.000000
# 3 -0.001721 -0.001722 0.012199 0.000000 0.000000 0.000000
# 4 0.000000 0.000000 0.000000 0.042628 0.000000 0.000000
# 5 0.000000 0.000000 0.000000 0.000000 0.042626 0.000000
# 6 0.000000 0.000000 0.000000 0.000000 0.000000 0.100316
#
#
# Mechanical properties :
#
#
# Convention : Reuss Voigt Hill
#
# Bulk Modulus (GPa) = 42.95777 43.16367 43.06072
# Shear Modulus (GPa) = 18.00216 21.92481 19.96349
#
# Velocity S-wave (km/s) = 2.80759 3.09841 2.95658
# Velocity P-wave (km/s) = 5.41478 5.63029 5.52359
#
# Compressibility (1/GPa) = 0.02327868
#
# Stress axis : x y z
#
# Youngs Moduli (GPa) = 48.02316 48.02103 81.97236
#
# Poissons Ratio (x) = 0.56863 0.14110
# Poissons Ratio (y) = 0.56865 0.14112
# Poissons Ratio (z) = 0.08266 0.08267
#
# Static dielectric constant tensor:
#      x y z
#    x 1.950870 0.000000 0.000000 
#    y 0.000000 1.950870 0.000000 
#    z 0.000000 0.000000 2.331550 
# 
# From -- ./inp_files/15098.got.cif
#   From: 2010.05.17/outbox.cif.g08.bks.cpg/sg91_8_cif.got.tgz:15098.got - 2010.06.03 19:20:03.
