data_PCOD9547258
_publ_section_title
;
Structure prediction by ZEFSAII (Michael W. Deem and Ramdas Pophale) SiO2 
 PCOD9547258
Probable space group: P 4 21 2
;
_chemical_formula_sum "Si O2"
_cell_formula_units_Z 36
_cell_length_a 13.284596
_cell_length_b 13.284596
_cell_length_c 9.169766
_cell_angle_alpha 90.000000
_cell_angle_beta 90.000000
_cell_angle_gamma 90.000000
_cell_volume 1618.284805
_symmetry_space_group_name_H-M "P 4 21 2"
_symmetry_group_IT_number 90
_symmetry_cell_setting 'tetragonal'
loop_
_space_group_symop_operation_xyz
x,y,z
1/2-y,1/2+x,z
-x,-y,z
1/2+y,1/2-x,z
1/2+x,1/2-y,-z
1/2-x,1/2+y,-z
y,x,-z
-y,-x,-z
loop_
_atom_site_type_symbol
_atom_site_label
_atom_site_fract_x
_atom_site_fract_y
_atom_site_fract_z
Si Si1 0.102430 0.871340 0.279476
Si Si2 0.000000 0.500000 0.690481
Si Si3 0.000000 0.000000 0.500000
Si Si4 0.210763 0.056592 0.919454
Si Si5 0.206321 0.235065 0.333746
Si Si6 0.973005 0.719422 0.782170
O O1 0.016569 0.906228 0.393002
O O2 0.165665 0.775467 0.332092
O O3 0.043283 0.845039 0.133618
O O4 0.181338 0.962283 0.258278
O O5 0.014928 0.622624 0.701714
O O6 0.252360 0.111278 0.773772
O O7 0.131704 0.131704 0.000000
O O8 0.291284 0.026055 0.042179
O O9 0.197361 0.197361 0.500000
O O10 0.262519 0.142461 0.257632
#
# Coordination Sequence:
#
# PCOD9547258 Si02
#       6
#     8   2   2   8   8   8
#     4  12  25  43  70 105 144 185 240 299 360 431
#     4  12  24  44  68 102 140 192 240 278 368 432
#     4  12  24  40  70 104 136 186 234 298 364 432
#     4  10  25  44  71 103 137 182 240 302 358 429
#     4  11  25  44  67 102 142 179 229 295 369 427
#     4  11  25  44  71  98 139 190 239 294 355 434
#
# _framework density 22.245775999999999
#
# number of rings (size 3 to 8) (size 9 to 14) (size 15 to 20)
#    0.000    0.889    3.333    3.333    9.333    4.444 
#    0.000    0.000    0.000    1.333    0.000    0.000 
#    0.000    0.000    0.000    0.000    0.000    0.000 
#
# Total GULP energy -200576.656848 kJ/mol
# GULP energy per Si atom -5571.573801 kJ/mol
# Density = 2.219514 g / cm^3
# Si number density = 22.245776 Si / 1000 Ang^3
#
#
#
# Elastic Constant Matrix: (Units=GPa)
#
#
# Indices 1 2 3 4 5 6 
#
# 1 77.5471 26.1201 10.6338 0.0000 0.0000 0.0000
# 2 26.1201 77.5471 10.6338 0.0000 0.0000 0.0000
# 3 10.6338 10.6338 107.8424 0.0000 0.0000 0.0000
# 4 0.0000 0.0000 0.0000 -15.1245 0.0000 0.0000
# 5 0.0000 0.0000 0.0000 0.0000 -15.1245 0.0000
# 6 0.0000 0.0000 0.0000 0.0000 0.0000 50.1759
#
#
#
# Elastic Compliance Matrix: (Units=1/GPa)
#
#
# Indices 1 2 3 4 5 6 
#
# 1 0.014645 -0.004800 -0.000971 0.000000 0.000000 0.000000
# 2 -0.004800 0.014645 -0.000971 0.000000 0.000000 0.000000
# 3 -0.000971 -0.000971 0.009464 0.000000 0.000000 0.000000
# 4 0.000000 0.000000 0.000000 -0.066118 0.000000 0.000000
# 5 0.000000 0.000000 0.000000 0.000000 -0.066118 0.000000
# 6 0.000000 0.000000 0.000000 0.000000 0.000000 0.019930
#
#
# Mechanical properties :
#
#
# Convention : Reuss Voigt Hill
#
# Bulk Modulus (GPa) = 39.56970 39.74576 39.65773
# Shear Modulus (GPa) = -96.81608 18.35531 -39.23039
#
# Velocity S-wave (km/s) = -6.60421 2.87560 -4.20396
# Velocity P-wave (km/s) = 6.35043 5.37874 2.38717
#
# Compressibility (1/GPa) = 0.02527186
#
# Stress axis : x y z
#
# Youngs Moduli (GPa) = 68.28165 68.28165 105.66082
#
# Poissons Ratio (x) = 0.32774 0.10258
# Poissons Ratio (y) = 0.32774 0.10258
# Poissons Ratio (z) = 0.06629 0.06629
#
# Static dielectric constant tensor:
#      x y z
#    x 1.822260 0.000000 0.000000 
#    y 0.000000 1.822260 0.000000 
#    z 0.000000 0.000000 1.910480 
# 
# From -- ./inp_files/1217.got.cif
#   From: 2010.05.17/outbox.cif.g08.bks.cpg/sg90_1_cif.got.tgz:1217.got - 2010.06.03 19:17:45.
