data_PCOD9547134
_publ_section_title
;
Structure prediction by ZEFSAII (Michael W. Deem and Ramdas Pophale) SiO2 
 PCOD9547134
Probable space group: P 4 21 2
;
_chemical_formula_sum "Si O2"
_cell_formula_units_Z 48
_cell_length_a 12.364006
_cell_length_b 12.364006
_cell_length_c 15.447185
_cell_angle_alpha 90.000000
_cell_angle_beta 90.000000
_cell_angle_gamma 90.000000
_cell_volume 2361.390230
_symmetry_space_group_name_H-M "P 4 21 2"
_symmetry_group_IT_number 90
_symmetry_cell_setting 'tetragonal'
loop_
_space_group_symop_operation_xyz
x,y,z
1/2-y,1/2+x,z
-x,-y,z
1/2+y,1/2-x,z
1/2+x,1/2-y,-z
1/2-x,1/2+y,-z
y,x,-z
-y,-x,-z
loop_
_atom_site_type_symbol
_atom_site_label
_atom_site_fract_x
_atom_site_fract_y
_atom_site_fract_z
Si Si1 0.092649 0.208953 0.183585
Si Si2 0.769598 0.989363 0.174883
Si Si3 0.528713 0.172484 0.359413
Si Si4 0.113905 0.944234 0.404111
Si Si5 0.672550 0.946582 0.989461
Si Si6 0.792931 0.149520 0.758621
O O1 0.125320 0.084058 0.192175
O O2 0.186765 0.277600 0.230784
O O3 0.974401 0.232705 0.219998
O O4 0.087148 0.241874 0.082767
O O5 0.689922 0.969912 0.255712
O O6 0.717301 0.947388 0.086679
O O7 0.803466 0.114832 0.176480
O O8 0.413647 0.119162 0.383365
O O9 0.532662 0.290487 0.400591
O O10 0.102390 0.897610 0.500000
O O11 0.146966 0.853684 0.333888
O O12 0.000000 0.000000 0.381266
O O13 0.568996 0.869829 0.976725
#
# Coordination Sequence:
#
# PCOD9547134 Si02
#       6
#     8   8   8   8   8   8
#     4  12  23  41  62  89 131 171 211 267 317 392
#     4  11  22  37  63  93 122 168 223 272 317 369
#     4  10  20  39  64  94 129 164 212 269 325 383
#     4  10  22  43  66  97 129 166 216 273 333 397
#     4  11  22  38  59  88 129 171 214 264 313 376
#     4  11  24  42  66  92 128 172 219 258 332 398
#
# _framework density 20.327009
#
# number of rings (size 3 to 8) (size 9 to 14) (size 15 to 20)
#    0.000    1.167    1.667    7.000    0.000    2.333 
#    6.000    1.667    0.000    0.000    0.000    0.000 
#    0.000    0.000    0.000    0.000    0.000    0.000 
#
# Total GULP energy -268291.269256 kJ/mol
# GULP energy per Si atom -5589.401443 kJ/mol
# Density = 2.028074 g / cm^3
# Si number density = 20.327009 Si / 1000 Ang^3
#
#
#
# Elastic Constant Matrix: (Units=GPa)
#
#
# Indices 1 2 3 4 5 6 
#
# 1 96.7629 21.5415 1.7816 0.0000 0.0000 0.0000
# 2 21.5415 96.7632 1.7818 0.0000 0.0000 0.0000
# 3 1.7816 1.7818 76.9618 0.0000 0.0000 0.0000
# 4 0.0000 0.0000 0.0000 23.2726 0.0000 0.0000
# 5 0.0000 0.0000 0.0000 0.0000 23.2727 0.0000
# 6 0.0000 0.0000 0.0000 0.0000 0.0000 33.1469
#
#
#
# Elastic Compliance Matrix: (Units=1/GPa)
#
#
# Indices 1 2 3 4 5 6 
#
# 1 0.010876 -0.002418 -0.000196 0.000000 0.000000 0.000000
# 2 -0.002418 0.010876 -0.000196 0.000000 0.000000 0.000000
# 3 -0.000196 -0.000196 0.013003 0.000000 0.000000 0.000000
# 4 0.000000 0.000000 0.000000 0.042969 0.000000 0.000000
# 5 0.000000 0.000000 0.000000 0.000000 0.042969 0.000000
# 6 0.000000 0.000000 0.000000 0.000000 0.000000 0.030169
#
#
# Mechanical properties :
#
#
# Convention : Reuss Voigt Hill
#
# Bulk Modulus (GPa) = 34.32115 35.63308 34.97712
# Shear Modulus (GPa) = 30.08558 32.29731 31.19145
#
# Velocity S-wave (km/s) = 3.85135 3.99041 3.92150
# Velocity P-wave (km/s) = 6.05792 6.22889 6.14400
#
# Compressibility (1/GPa) = 0.02913655
#
# Stress axis : x y z
#
# Youngs Moduli (GPa) = 91.94235 91.94263 76.90817
#
# Poissons Ratio (x) = 0.22229 0.01506
# Poissons Ratio (y) = 0.22229 0.01506
# Poissons Ratio (z) = 0.01800 0.01801
#
# Static dielectric constant tensor:
#      x y z
#    x 1.726310 0.000000 0.000000 
#    y 0.000000 1.726310 0.000000 
#    z 0.000000 0.000000 1.719780 
# 
# From -- ./inp_files/2638.got.cif
#   From: 2010.05.17/outbox.cif.g08.bks.cpg/sg90_2_cif.got.tgz:2638.got - 2010.06.03 19:17:45.
