data_PCOD9547351
_publ_section_title
;
Structure prediction by ZEFSAII (Michael W. Deem and Ramdas Pophale) SiO2 
 PCOD9547351
Probable space group: P 4 21 2
;
_chemical_formula_sum "Si O2"
_cell_formula_units_Z 48
_cell_length_a 7.896797
_cell_length_b 7.896797
_cell_length_c 34.448868
_cell_angle_alpha 90.000000
_cell_angle_beta 90.000000
_cell_angle_gamma 90.000000
_cell_volume 2148.210838
_symmetry_space_group_name_H-M "P 4 21 2"
_symmetry_group_IT_number 90
_symmetry_cell_setting 'tetragonal'
loop_
_space_group_symop_operation_xyz
x,y,z
1/2-y,1/2+x,z
-x,-y,z
1/2+y,1/2-x,z
1/2+x,1/2-y,-z
1/2-x,1/2+y,-z
y,x,-z
-y,-x,-z
loop_
_atom_site_type_symbol
_atom_site_label
_atom_site_fract_x
_atom_site_fract_y
_atom_site_fract_z
Si Si1 0.733159 0.599514 0.040369
Si Si2 0.000000 0.000000 0.104432
Si Si3 0.603627 0.266756 0.667481
Si Si4 0.500000 0.500000 0.604398
Si Si5 0.233746 0.104119 0.753374
Si Si6 0.099678 0.766798 0.540382
Si Si7 0.407314 0.733611 0.167861
O O1 0.790313 0.403477 0.042242
O O2 0.605309 0.622561 0.076069
O O3 0.642900 0.642900 0.000000
O O4 0.101889 0.122777 0.133359
O O5 0.406252 0.209525 0.664884
O O6 0.625436 0.397520 0.632757
O O7 0.634615 0.341051 0.710489
O O8 0.605149 0.623048 0.576059
O O9 0.408656 0.209959 0.755600
O O10 0.123043 0.155392 0.789873
O O11 0.209762 0.596399 0.542237
O O12 0.143006 0.856995 0.500000
O O13 0.600995 0.792552 0.164273
#
# Coordination Sequence:
#
# PCOD9547351 Si02
#       7
#     8   4   8   4   8   8   8
#     4  11  24  43  68  95 124 162 207 254 308 371
#     4  12  23  41  62  88 126 164 202 247 303 370
#     4   9  20  37  58  86 119 158 202 244 294 360
#     4  12  21  35  60  90 122 154 194 251 311 356
#     4   9  19  38  61  84 115 159 207 248 292 354
#     4  11  24  42  63  88 120 159 204 251 304 368
#     4  11  24  39  59  89 122 158 202 254 308 357
#
# _framework density 22.344176000000001
#
# number of rings (size 3 to 8) (size 9 to 14) (size 15 to 20)
#    0.000    1.500    0.000    6.500    0.000    3.333 
#    0.000    5.000    0.000    2.000    0.000    0.000 
#    0.000    0.000    0.000    0.000    0.000    0.000 
#
# Total GULP energy -268624.744764 kJ/mol
# GULP energy per Si atom -5596.348849 kJ/mol
# Density = 2.229332 g / cm^3
# Si number density = 22.344176 Si / 1000 Ang^3
#
#
#
# Elastic Constant Matrix: (Units=GPa)
#
#
# Indices 1 2 3 4 5 6 
#
# 1 56.0734 4.1524 33.8689 0.0000 0.0000 0.0000
# 2 4.1524 56.0733 33.8689 0.0000 0.0000 0.0000
# 3 33.8689 33.8689 192.3331 0.0000 0.0000 0.0000
# 4 0.0000 0.0000 0.0000 32.2887 0.0000 0.0000
# 5 0.0000 0.0000 0.0000 0.0000 32.2887 0.0000
# 6 0.0000 0.0000 0.0000 0.0000 0.0000 30.4921
#
#
#
# Elastic Compliance Matrix: (Units=1/GPa)
#
#
# Indices 1 2 3 4 5 6 
#
# 1 0.019983 0.000722 -0.003646 0.000000 0.000000 0.000000
# 2 0.000722 0.019983 -0.003646 0.000000 0.000000 0.000000
# 3 -0.003646 -0.003646 0.006483 0.000000 0.000000 0.000000
# 4 0.000000 0.000000 0.000000 0.030971 0.000000 0.000000
# 5 0.000000 0.000000 0.000000 0.000000 0.030971 0.000000
# 6 0.000000 0.000000 0.000000 0.000000 0.000000 0.032795
#
#
# Mechanical properties :
#
#
# Convention : Reuss Voigt Hill
#
# Bulk Modulus (GPa) = 30.02170 49.80672 39.91421
# Shear Modulus (GPa) = 30.22474 34.51987 32.37231
#
# Velocity S-wave (km/s) = 3.68188 3.93481 3.81044
# Velocity P-wave (km/s) = 5.61607 6.55612 6.10422
#
# Compressibility (1/GPa) = 0.03330924
#
# Stress axis : x y z
#
# Youngs Moduli (GPa) = 50.04378 50.04360 154.23966
#
# Poissons Ratio (x) = -0.03616 0.56237
# Poissons Ratio (y) = -0.03616 0.56237
# Poissons Ratio (z) = 0.18246 0.18246
#
# Static dielectric constant tensor:
#      x y z
#    x 1.849110 0.000000 0.000000 
#    y 0.000000 1.849110 0.000000 
#    z 0.000000 0.000000 1.800600 
# 
# From -- ./inp_files/3100.got.cif
#   From: 2010.05.17/outbox.cif.g08.bks.cpg/sg90_2_cif.got.tgz:3100.got - 2010.06.03 19:17:45.
