data_PCOD9547117
_publ_section_title
;
Structure prediction by ZEFSAII (Michael W. Deem and Ramdas Pophale) SiO2 
 PCOD9547117
Probable space group: P 4 21 2
;
_chemical_formula_sum "Si O2"
_cell_formula_units_Z 48
_cell_length_a 8.706376
_cell_length_b 8.706376
_cell_length_c 32.137464
_cell_angle_alpha 90.000000
_cell_angle_beta 90.000000
_cell_angle_gamma 90.000000
_cell_volume 2436.051364
_symmetry_space_group_name_H-M "P 4 21 2"
_symmetry_group_IT_number 90
_symmetry_cell_setting 'tetragonal'
loop_
_space_group_symop_operation_xyz
x,y,z
1/2-y,1/2+x,z
-x,-y,z
1/2+y,1/2-x,z
1/2+x,1/2-y,-z
1/2-x,1/2+y,-z
y,x,-z
-y,-x,-z
loop_
_atom_site_type_symbol
_atom_site_label
_atom_site_fract_x
_atom_site_fract_y
_atom_site_fract_z
Si Si1 0.000000 0.500000 0.724728
Si Si2 0.244609 0.034100 0.072642
Si Si3 0.742868 0.078568 0.796319
Si Si4 0.500000 0.500000 0.000000
Si Si5 0.000000 0.000000 0.858491
Si Si6 0.368803 0.224265 0.630889
Si Si7 0.088595 0.840212 0.711765
Si Si8 0.269301 0.882723 0.538644
O O1 0.989414 0.690877 0.723858
O O2 0.334576 0.872840 0.074955
O O3 0.127238 0.066323 0.110231
O O4 0.145523 0.017167 0.030604
O O5 0.595946 0.185757 0.802235
O O6 0.802014 0.116124 0.750289
O O7 0.880755 0.089724 0.829013
O O8 0.553077 0.201222 0.633940
O O9 0.307719 0.323991 0.668638
O O10 0.341425 0.291633 0.584717
O O11 0.000000 0.000000 0.704328
O O12 0.435909 0.801812 0.536312
O O13 0.168735 0.831266 0.500000
#
# Coordination Sequence:
#
# PCOD9547117 Si02
#       8
#     2   8   8   2   4   8   8   8
#     4  12  28  44  68 104 136 172 232 288 348 416
#     4  10  21  38  59  90 126 167 216 271 341 406
#     4  11  23  40  63  91 124 171 223 271 338 408
#     4  10  20  36  64  88 124 164 220 276 334 404
#     4  11  22  39  60  90 126 172 215 278 329 410
#     4   9  18  37  64  85 118 167 209 256 326 399
#     4  12  24  44  64  95 134 169 215 284 338 402
#     4   9  19  38  58  84 116 154 200 247 310 387
#
# _framework density 19.704018999999999
#
# number of rings (size 3 to 8) (size 9 to 14) (size 15 to 20)
#    0.000    1.667    0.833    5.500    0.000    1.667 
#    9.000    0.000    0.000    8.000    0.000    0.000 
#    0.000    0.000    0.000    0.000    0.000    0.000 
#
# Total GULP energy -267410.630356 kJ/mol
# GULP energy per Si atom -5571.054799 kJ/mol
# Density = 1.965917 g / cm^3
# Si number density = 19.704019 Si / 1000 Ang^3
#
#
#
# Elastic Constant Matrix: (Units=GPa)
#
#
# Indices 1 2 3 4 5 6 
#
# 1 45.4134 5.8690 10.3755 0.0000 0.0000 0.0000
# 2 5.8690 45.4128 10.3750 0.0000 0.0000 0.0000
# 3 10.3755 10.3750 97.3819 0.0000 0.0000 0.0000
# 4 0.0000 0.0000 0.0000 16.9985 0.0000 0.0000
# 5 0.0000 0.0000 0.0000 0.0000 16.9984 0.0000
# 6 0.0000 0.0000 0.0000 0.0000 0.0000 316.0136
#
#
#
# Elastic Compliance Matrix: (Units=1/GPa)
#
#
# Indices 1 2 3 4 5 6 
#
# 1 0.022833 -0.002455 -0.002171 0.000000 0.000000 0.000000
# 2 -0.002455 0.022833 -0.002171 0.000000 0.000000 0.000000
# 3 -0.002171 -0.002171 0.010731 0.000000 0.000000 0.000000
# 4 0.000000 0.000000 0.000000 0.058829 0.000000 0.000000
# 5 0.000000 0.000000 0.000000 0.000000 0.058829 0.000000
# 6 0.000000 0.000000 0.000000 0.000000 0.000000 0.003164
#
#
# Mechanical properties :
#
#
# Convention : Reuss Voigt Hill
#
# Bulk Modulus (GPa) = 23.36237 26.82745 25.09491
# Shear Modulus (GPa) = 24.38039 80.77468 52.57753
#
# Velocity S-wave (km/s) = 3.52139 6.40960 5.17123
# Velocity P-wave (km/s) = 5.33066 8.27177 6.95838
#
# Compressibility (1/GPa) = 0.04280387
#
# Stress axis : x y z
#
# Youngs Moduli (GPa) = 43.79578 43.79536 93.18370
#
# Poissons Ratio (x) = 0.10751 0.20232
# Poissons Ratio (y) = 0.10751 0.20231
# Poissons Ratio (z) = 0.09509 0.09508
#
# Static dielectric constant tensor:
#      x y z
#    x 1.715240 0.000000 0.000000 
#    y 0.000000 1.715240 0.000000 
#    z 0.000000 0.000000 1.678850 
# 
# From -- ./inp_files/3134.got.cif
#   From: 2010.05.17/outbox.cif.g08.bks.cpg/sg90_2_cif.got.tgz:3134.got - 2010.06.03 19:17:45.
