data_PCOD9547799
_publ_section_title
;
Structure prediction by ZEFSAII (Michael W. Deem and Ramdas Pophale) SiO2 
 PCOD9547799
Probable space group: P 41 2 2
;
_chemical_formula_sum "Si O2"
_cell_formula_units_Z 36
_cell_length_a 11.871302
_cell_length_b 11.871302
_cell_length_c 12.027712
_cell_angle_alpha 90.000000
_cell_angle_beta 90.000000
_cell_angle_gamma 90.000000
_cell_volume 1695.039126
_symmetry_space_group_name_H-M "P 41 2 2"
_symmetry_group_IT_number 91
_symmetry_cell_setting 'tetragonal'
loop_
_space_group_symop_operation_xyz
x,y,z
-y,x,1/4+z
-x,-y,1/2+z
y,-x,3/4+z
x,-y,1/2-z
-x,y,-z
y,x,3/4-z
-y,-x,1/4-z
loop_
_atom_site_type_symbol
_atom_site_label
_atom_site_fract_x
_atom_site_fract_y
_atom_site_fract_z
Si Si1 0.324989 0.850415 0.573060
Si Si2 0.458700 0.458700 0.875000
Si Si3 0.795197 0.544756 0.097367
Si Si4 0.240748 0.865711 0.236342
Si Si5 0.026610 0.155174 0.123727
O O1 0.247795 0.752206 0.625000
O O2 0.381930 0.819426 0.457029
O O3 0.432945 0.872706 0.652588
O O4 0.239579 0.952545 0.553315
O O5 0.495331 0.500000 0.750000
O O6 0.492824 0.328343 0.863442
O O7 0.810713 0.635794 0.000276
O O8 0.178919 0.821082 0.125000
O O9 0.152513 0.837210 0.334891
O O10 0.255014 0.000000 0.250000
O O11 0.970036 0.029965 0.125000
O O12 0.000000 0.195476 0.000000
#
# Coordination Sequence:
#
# PCOD9547799 Si02
#       5
#     8   4   8   8   8
#     4  10  19  39  66  94 123 171 230 286 341 412
#     4  12  24  44  76 104 136 186 242 306 360 438
#     4  11  22  40  65  95 134 182 228 290 362 423
#     4  12  25  42  64 100 148 190 229 301 380 440
#     4  11  22  39  69  96 125 174 239 282 341 436
#
# _framework density 21.23845
#
# number of rings (size 3 to 8) (size 9 to 14) (size 15 to 20)
#    0.000    0.889    3.333    6.667    1.556    0.889 
#    0.000    0.000    4.889    0.000    0.000    0.000 
#    0.000    0.000    0.000    0.000    0.000    0.000 
#
# Total GULP energy -200751.009494 kJ/mol
# GULP energy per Si atom -5576.416930 kJ/mol
# Density = 2.119011 g / cm^3
# Si number density = 21.238450 Si / 1000 Ang^3
#
#
#
# Elastic Constant Matrix: (Units=GPa)
#
#
# Indices 1 2 3 4 5 6 
#
# 1 99.3200 35.6789 13.9724 0.0000 0.0000 0.0000
# 2 35.6789 99.3209 13.9723 0.0000 0.0000 0.0000
# 3 13.9724 13.9723 84.1794 0.0000 0.0000 0.0000
# 4 0.0000 0.0000 0.0000 27.4472 0.0000 0.0000
# 5 0.0000 0.0000 0.0000 0.0000 27.4479 0.0000
# 6 0.0000 0.0000 0.0000 0.0000 0.0000 31.4804
#
#
#
# Elastic Compliance Matrix: (Units=1/GPa)
#
#
# Indices 1 2 3 4 5 6 
#
# 1 0.011692 -0.004021 -0.001273 0.000000 0.000000 0.000000
# 2 -0.004021 0.011692 -0.001273 0.000000 0.000000 0.000000
# 3 -0.001273 -0.001273 0.012302 0.000000 0.000000 0.000000
# 4 0.000000 0.000000 0.000000 0.036434 0.000000 0.000000
# 5 0.000000 0.000000 0.000000 0.000000 0.036433 0.000000
# 6 0.000000 0.000000 0.000000 0.000000 0.000000 0.031766
#
#
# Mechanical properties :
#
#
# Convention : Reuss Voigt Hill
#
# Bulk Modulus (GPa) = 44.34380 45.56302 44.95341
# Shear Modulus (GPa) = 31.06166 31.88821 31.47494
#
# Velocity S-wave (km/s) = 3.82844 3.87904 3.85382
# Velocity P-wave (km/s) = 6.36136 6.44688 6.40427
#
# Compressibility (1/GPa) = 0.02255107
#
# Stress axis : x y z
#
# Youngs Moduli (GPa) = 85.52812 85.52896 81.28712
#
# Poissons Ratio (x) = 0.34391 0.10350
# Poissons Ratio (y) = 0.34391 0.10350
# Poissons Ratio (z) = 0.10890 0.10890
#
# Static dielectric constant tensor:
#      x y z
#    x 1.802200 0.000000 0.000000 
#    y 0.000000 1.802200 0.000000 
#    z 0.000000 0.000000 1.908640 
# 
# From -- ./inp_files/10483.got.cif
#   From: 2010.05.17/outbox.cif.g08.bks.cpg/sg91_6_cif.got.tgz:10483.got - 2010.06.03 19:20:03.
