data_PCOD9547408
_publ_section_title
;
Structure prediction by ZEFSAII (Michael W. Deem and Ramdas Pophale) SiO2 
 PCOD9547408
Probable space group: P 4 21 2
;
_chemical_formula_sum "Si O2"
_cell_formula_units_Z 38
_cell_length_a 8.261126
_cell_length_b 8.261126
_cell_length_c 24.052493
_cell_angle_alpha 90.000000
_cell_angle_beta 90.000000
_cell_angle_gamma 90.000000
_cell_volume 1641.491315
_symmetry_space_group_name_H-M "P 4 21 2"
_symmetry_group_IT_number 90
_symmetry_cell_setting 'tetragonal'
loop_
_space_group_symop_operation_xyz
x,y,z
1/2-y,1/2+x,z
-x,-y,z
1/2+y,1/2-x,z
1/2+x,1/2-y,-z
1/2-x,1/2+y,-z
y,x,-z
-y,-x,-z
loop_
_atom_site_type_symbol
_atom_site_label
_atom_site_fract_x
_atom_site_fract_y
_atom_site_fract_z
Si Si1 0.763597 0.924751 0.117791
Si Si2 0.806536 0.806536 0.000000
Si Si3 0.738760 0.421527 0.220605
Si Si4 0.588495 0.259802 0.324766
Si Si5 0.740171 0.417161 0.551205
Si Si6 0.500000 0.000000 0.983814
O O1 0.604791 0.808170 0.121152
O O2 0.842068 0.894555 0.058157
O O3 0.876115 0.870747 0.168114
O O4 0.841119 0.617825 0.013112
O O5 0.805954 0.602849 0.218794
O O6 0.643773 0.379587 0.276832
O O7 0.404018 0.196821 0.319591
O O8 0.610059 0.328967 0.386962
O O9 0.805040 0.599743 0.547778
O O10 0.628355 0.371646 0.500000
#
# Coordination Sequence:
#
# PCOD9547408 Si02
#       6
#     8   4   8   8   8   2
#     4  11  24  45  67  94 129 169 215 265 331 399
#     4  12  24  50  72 106 140 186 224 294 344 426
#     4  11  26  41  58  87 124 160 205 260 318 378
#     4   9  19  39  62  83 112 153 200 249 304 368
#     4   9  19  35  56  84 117 153 193 241 298 361
#     4  12  28  48  76 108 148 184 244 284 366 416
#
# _framework density 23.149681999999999
#
# number of rings (size 3 to 8) (size 9 to 14) (size 15 to 20)
#    0.000    1.684    2.105    2.526    2.947    7.579 
#    0.000    6.316    0.000    0.000    0.000    0.000 
#    0.000    0.000    0.000    0.000    0.000    0.000 
#
# Total GULP energy -212288.835056 kJ/mol
# GULP energy per Si atom -5586.548291 kJ/mol
# Density = 2.309699 g / cm^3
# Si number density = 23.149682 Si / 1000 Ang^3
#
#
#
# Elastic Constant Matrix: (Units=GPa)
#
#
# Indices 1 2 3 4 5 6 
#
# 1 89.5470 68.6491 66.1856 0.0000 0.0000 0.0000
# 2 68.6491 89.5466 66.1850 0.0000 0.0000 0.0000
# 3 66.1856 66.1850 199.1990 0.0000 0.0000 0.0000
# 4 0.0000 0.0000 0.0000 1022.1490 0.0000 0.0000
# 5 0.0000 0.0000 0.0000 0.0000 1022.1437 0.0000
# 6 0.0000 0.0000 0.0000 0.0000 0.0000 57.3973
#
#
#
# Elastic Compliance Matrix: (Units=1/GPa)
#
#
# Indices 1 2 3 4 5 6 
#
# 1 0.028304 -0.019548 -0.002909 0.000000 0.000000 0.000000
# 2 -0.019548 0.028304 -0.002909 0.000000 0.000000 0.000000
# 3 -0.002909 -0.002909 0.006953 0.000000 0.000000 0.000000
# 4 0.000000 0.000000 0.000000 0.000978 0.000000 0.000000
# 5 0.000000 0.000000 0.000000 0.000000 0.000978 0.000000
# 6 0.000000 0.000000 0.000000 0.000000 0.000000 0.017422
#
#
# Mechanical properties :
#
#
# Convention : Reuss Voigt Hill
#
# Bulk Modulus (GPa) = 77.95532 86.70355 82.32943
# Shear Modulus (GPa) = 36.24536 432.15619 234.20078
#
# Velocity S-wave (km/s) = 3.96118 13.67788 10.06914
# Velocity P-wave (km/s) = 7.39384 16.94050 13.06999
#
# Compressibility (1/GPa) = 0.01282786
#
# Stress axis : x y z
#
# Youngs Moduli (GPa) = 35.33100 35.33097 143.81837
#
# Poissons Ratio (x) = 0.69066 0.41838
# Poissons Ratio (y) = 0.69066 0.41837
# Poissons Ratio (z) = 0.10278 0.10278
#
# Static dielectric constant tensor:
#      x y z
#    x 1.833210 0.000000 0.000000 
#    y 0.000000 1.833210 0.000000 
#    z 0.000000 0.000000 1.841470 
# 
# From -- ./inp_files/2894.got.cif
#   From: 2010.05.17/outbox.cif.g08.bks.cpg/sg90_2_cif.got.tgz:2894.got - 2010.06.03 19:17:45.
