data_PCOD9547165
_publ_section_title
;
Structure prediction by ZEFSAII (Michael W. Deem and Ramdas Pophale) SiO2 
 PCOD9547165
Probable space group: P 4 21 2
;
_chemical_formula_sum "Si O2"
_cell_formula_units_Z 56
_cell_length_a 14.351666
_cell_length_b 14.351666
_cell_length_c 13.030725
_cell_angle_alpha 90.000000
_cell_angle_beta 90.000000
_cell_angle_gamma 90.000000
_cell_volume 2683.942559
_symmetry_space_group_name_H-M "P 4 21 2"
_symmetry_group_IT_number 90
_symmetry_cell_setting 'tetragonal'
loop_
_space_group_symop_operation_xyz
x,y,z
1/2-y,1/2+x,z
-x,-y,z
1/2+y,1/2-x,z
1/2+x,1/2-y,-z
1/2-x,1/2+y,-z
y,x,-z
-y,-x,-z
loop_
_atom_site_type_symbol
_atom_site_label
_atom_site_fract_x
_atom_site_fract_y
_atom_site_fract_z
Si Si1 0.994469 0.652614 0.690140
Si Si2 0.319909 0.178638 0.962478
Si Si3 0.209526 0.889468 0.418513
Si Si4 0.633138 0.079010 0.570525
Si Si5 0.135734 0.753212 0.245260
Si Si6 0.070984 0.921362 0.876606
Si Si7 0.220980 0.501473 0.915013
O O1 0.086743 0.592306 0.663535
O O2 0.014275 0.751900 0.633969
O O3 0.984510 0.661528 0.812779
O O4 0.314336 0.190049 0.840747
O O5 0.273571 0.273571 0.000000
O O6 0.423357 0.177888 0.010066
O O7 0.267873 0.093150 0.015957
O O8 0.122222 0.877779 0.500000
O O9 0.292858 0.869684 0.497968
O O10 0.195000 0.818978 0.322974
O O11 0.531594 0.122209 0.554704
O O12 0.678834 0.085559 0.682924
O O13 0.075681 0.828674 0.179325
O O14 0.031563 0.817881 0.866184
O O15 0.072398 0.927603 0.000000
O O16 0.000000 0.000000 0.837387
#
# Coordination Sequence:
#
# PCOD9547165 Si02
#       7
#     8   8   8   8   8   8   8
#     4  11  21  36  63  98 131 171 224 281 348 414
#     4  12  25  41  64  97 145 180 229 287 343 419
#     4  10  21  40  66  89 126 174 220 280 342 402
#     4  10  23  43  68  99 129 169 223 283 357 426
#     4  11  22  42  66  94 135 180 219 285 344 407
#     4  11  23  42  65  91 132 188 235 268 324 415
#     4  12  23  41  64  98 138 183 229 283 346 417
#
# _framework density 20.864830000000001
#
# number of rings (size 3 to 8) (size 9 to 14) (size 15 to 20)
#    0.000    1.000    5.714    0.857    4.000    1.429 
#    0.000    0.000    3.143    3.000    0.000    0.000 
#    0.000    0.000    0.000    0.000    0.000    0.000 
#
# Total GULP energy -311800.862260 kJ/mol
# GULP energy per Si atom -5567.872540 kJ/mol
# Density = 2.081734 g / cm^3
# Si number density = 20.864830 Si / 1000 Ang^3
#
#
#
# Elastic Constant Matrix: (Units=GPa)
#
#
# Indices 1 2 3 4 5 6 
#
# 1 28.9300 8.4231 11.5324 0.0000 0.0000 0.0000
# 2 8.4231 28.9287 11.5323 0.0000 0.0000 0.0000
# 3 11.5324 11.5323 132.0610 0.0000 0.0000 0.0000
# 4 0.0000 0.0000 0.0000 33.6202 0.0000 0.0000
# 5 0.0000 0.0000 0.0000 0.0000 33.6203 0.0000
# 6 0.0000 0.0000 0.0000 0.0000 0.0000 26.4110
#
#
#
# Elastic Compliance Matrix: (Units=1/GPa)
#
#
# Indices 1 2 3 4 5 6 
#
# 1 0.038531 -0.010234 -0.002471 0.000000 0.000000 0.000000
# 2 -0.010234 0.038533 -0.002471 0.000000 0.000000 0.000000
# 3 -0.002471 -0.002471 0.008004 0.000000 0.000000 0.000000
# 4 0.000000 0.000000 0.000000 0.029744 0.000000 0.000000
# 5 0.000000 0.000000 0.000000 0.000000 0.029744 0.000000
# 6 0.000000 0.000000 0.000000 0.000000 0.000000 0.037863
#
#
# Mechanical properties :
#
#
# Convention : Reuss Voigt Hill
#
# Bulk Modulus (GPa) = 18.27649 28.09949 23.18799
# Shear Modulus (GPa) = 21.64418 29.29243 25.46830
#
# Velocity S-wave (km/s) = 3.22429 3.75095 3.49755
# Velocity P-wave (km/s) = 4.75814 5.67945 5.23908
#
# Compressibility (1/GPa) = 0.05471510
#
# Stress axis : x y z
#
# Youngs Moduli (GPa) = 25.95320 25.95201 124.93992
#
# Poissons Ratio (x) = 0.26559 0.30874
# Poissons Ratio (y) = 0.26560 0.30875
# Poissons Ratio (z) = 0.06413 0.06413
#
# Static dielectric constant tensor:
#      x y z
#    x 1.767650 0.000000 0.000000 
#    y 0.000000 1.767650 0.000000 
#    z 0.000000 0.000000 1.891000 
# 
# From -- ./inp_files/2227.got.cif
#   From: 2010.05.17/outbox.cif.g08.bks.cpg/sg90_2_cif.got.tgz:2227.got - 2010.06.03 19:17:45.
