data_PCOD9547803
_publ_section_title
;
Structure prediction by ZEFSAII (Michael W. Deem and Ramdas Pophale) SiO2 
 PCOD9547803
Probable space group: P 41 2 2
;
_chemical_formula_sum "Si O2"
_cell_formula_units_Z 40
_cell_length_a 10.966177
_cell_length_b 10.966177
_cell_length_c 13.378902
_cell_angle_alpha 90.000000
_cell_angle_beta 90.000000
_cell_angle_gamma 90.000000
_cell_volume 1608.907126
_symmetry_space_group_name_H-M "P 41 2 2"
_symmetry_group_IT_number 91
_symmetry_cell_setting 'tetragonal'
loop_
_space_group_symop_operation_xyz
x,y,z
-y,x,1/4+z
-x,-y,1/2+z
y,-x,3/4+z
x,-y,1/2-z
-x,y,-z
y,x,3/4-z
-y,-x,1/4-z
loop_
_atom_site_type_symbol
_atom_site_label
_atom_site_fract_x
_atom_site_fract_y
_atom_site_fract_z
Si Si1 0.341428 0.341428 0.375000
Si Si2 0.217291 0.500000 0.750000
Si Si3 0.105799 0.925776 0.850310
Si Si4 0.662220 0.994527 0.061230
Si Si5 0.796835 0.338026 0.416667
Si Si6 0.205848 0.500000 0.250000
Si Si7 0.516179 0.000000 0.250000
O O1 0.315334 0.270604 0.271122
O O2 0.296954 0.476477 0.342553
O O3 0.278796 0.578000 0.837725
O O4 0.125680 0.396516 0.794130
O O5 0.193713 0.992043 0.933035
O O6 0.147547 0.785906 0.867982
O O7 0.140195 0.000000 0.750000
O O8 0.967287 0.967287 0.875000
O O9 0.605435 0.945950 0.165895
O O10 0.607955 0.894865 0.986725
O O11 0.906808 0.426924 0.446235
#
# Coordination Sequence:
#
# PCOD9547803 Si02
#       7
#     4   4   8   8   8   4   4
#     4  12  24  42  78 106 142 186 254 328 390 454
#     4   9  22  42  67  96 136 194 259 298 347 464
#     4  12  26  41  63 106 159 197 233 309 399 472
#     4  10  19  40  67  92 134 195 251 291 364 456
#     4  11  24  42  69 105 143 196 254 312 378 455
#     4  11  22  42  69 104 136 186 249 322 379 458
#     4  10  20  40  70  96 130 190 264 302 342 460
#
# _framework density 24.861595000000001
#
# number of rings (size 3 to 8) (size 9 to 14) (size 15 to 20)
#    0.000    1.200    5.000    1.200    1.400    1.600 
#    0.000    1.000    0.000    0.000    0.000    0.000 
#    0.000    0.000    0.000    0.000    0.000    0.000 
#
# Total GULP energy -222751.483635 kJ/mol
# GULP energy per Si atom -5568.787091 kJ/mol
# Density = 2.480501 g / cm^3
# Si number density = 24.861595 Si / 1000 Ang^3
#
#
#
# Elastic Constant Matrix: (Units=GPa)
#
#
# Indices 1 2 3 4 5 6 
#
# 1 98.8019 26.6484 37.5825 0.0000 0.0000 0.0000
# 2 26.6484 98.8019 37.5825 0.0000 0.0000 0.0000
# 3 37.5825 37.5825 127.7669 0.0000 0.0000 0.0000
# 4 0.0000 0.0000 0.0000 37.2241 0.0000 0.0000
# 5 0.0000 0.0000 0.0000 0.0000 37.2241 0.0000
# 6 0.0000 0.0000 0.0000 0.0000 0.0000 25.9424
#
#
#
# Elastic Compliance Matrix: (Units=1/GPa)
#
#
# Indices 1 2 3 4 5 6 
#
# 1 0.011768 -0.002091 -0.002846 0.000000 0.000000 0.000000
# 2 -0.002091 0.011768 -0.002846 0.000000 0.000000 0.000000
# 3 -0.002846 -0.002846 0.009501 0.000000 0.000000 0.000000
# 4 0.000000 0.000000 0.000000 0.026864 0.000000 0.000000
# 5 0.000000 0.000000 0.000000 0.000000 0.026864 0.000000
# 6 0.000000 0.000000 0.000000 0.000000 0.000000 0.038547
#
#
# Mechanical properties :
#
#
# Convention : Reuss Voigt Hill
#
# Bulk Modulus (GPa) = 57.24376 58.77749 58.01062
# Shear Modulus (GPa) = 34.08219 34.98194 34.53206
#
# Velocity S-wave (km/s) = 3.70655 3.75516 3.73093
# Velocity P-wave (km/s) = 6.43374 6.51881 6.47641
#
# Compressibility (1/GPa) = 0.01746915
#
# Stress axis : x y z
#
# Youngs Moduli (GPa) = 84.97596 84.97596 105.24892
#
# Poissons Ratio (x) = 0.17771 0.29958
# Poissons Ratio (y) = 0.17771 0.29958
# Poissons Ratio (z) = 0.24188 0.24188
#
# Static dielectric constant tensor:
#      x y z
#    x 2.113580 0.000000 0.000000 
#    y 0.000000 2.113580 0.000000 
#    z 0.000000 0.000000 2.148450 
# 
# From -- ./inp_files/20716.got.cif
#   From: 2010.05.17/outbox.cif.g08.bks.cpg/sg91_11_cif.got.tgz:20716.got - 2010.06.03 19:20:03.
