data_PCOD9547842
_publ_section_title
;
Structure prediction by ZEFSAII (Michael W. Deem and Ramdas Pophale) SiO2 
 PCOD9547842
Probable space group: P 41 2 2
;
_chemical_formula_sum "Si O2"
_cell_formula_units_Z 60
_cell_length_a 11.694964
_cell_length_b 11.694964
_cell_length_c 22.902827
_cell_angle_alpha 90.000000
_cell_angle_beta 90.000000
_cell_angle_gamma 90.000000
_cell_volume 3132.469645
_symmetry_space_group_name_H-M "P 41 2 2"
_symmetry_group_IT_number 91
_symmetry_cell_setting 'tetragonal'
loop_
_space_group_symop_operation_xyz
x,y,z
-y,x,1/4+z
-x,-y,1/2+z
y,-x,3/4+z
x,-y,1/2-z
-x,y,-z
y,x,3/4-z
-y,-x,1/4-z
loop_
_atom_site_type_symbol
_atom_site_label
_atom_site_fract_x
_atom_site_fract_y
_atom_site_fract_z
Si Si1 0.509066 0.842689 0.116162
Si Si2 0.371871 0.703899 0.505791
Si Si3 0.281157 0.771554 0.962893
Si Si4 0.753131 0.753131 0.375000
Si Si5 0.519428 0.737404 0.761648
Si Si6 0.556169 0.904577 0.339972
Si Si7 0.685099 0.848336 0.601788
Si Si8 0.253060 0.892601 0.078255
O O1 0.600214 0.812105 0.066232
O O2 0.497535 0.756248 0.169869
O O3 0.382834 0.851790 0.089807
O O4 0.543392 0.961476 0.147852
O O5 0.500000 0.744608 0.500000
O O6 0.322416 0.734787 0.567959
O O7 0.362437 0.567745 0.504007
O O8 0.304195 0.762682 0.452722
O O9 0.198684 0.750520 0.908067
O O10 0.290055 0.648582 0.994532
O O11 0.230008 0.856283 0.011542
O O12 0.688573 0.870129 0.353705
O O13 0.477174 0.847576 0.722734
O O14 0.450109 0.856482 0.380170
O O15 0.736876 0.971473 0.586153
O O16 0.169126 0.830875 0.125000
#
# Coordination Sequence:
#
# PCOD9547842 Si02
#       8
#     8   8   8   4   8   8   8   8
#     4  11  21  39  63  89 125 168 209 261 317 383
#     4  11  21  36  58  89 126 164 203 250 311 386
#     4  11  23  41  63  95 126 163 212 262 322 379
#     4  10  20  34  56  88 130 156 206 260 312 372
#     4  10  21  38  59  88 128 164 207 258 317 387
#     4   9  20  35  61  92 120 165 208 256 316 375
#     4  10  22  40  65  91 122 166 212 253 314 379
#     4  11  24  41  65  93 121 162 215 266 315 373
#
# _framework density 19.154216999999999
#
# number of rings (size 3 to 8) (size 9 to 14) (size 15 to 20)
#    0.000    1.600    4.000    0.800    1.867    1.600 
#    0.000    0.000    1.467    3.200    0.000    0.000 
#    0.000    0.000    0.000    0.000    0.000    0.000 
#
# Total GULP energy -334056.777088 kJ/mol
# GULP energy per Si atom -5567.612951 kJ/mol
# Density = 1.911062 g / cm^3
# Si number density = 19.154217 Si / 1000 Ang^3
#
#
#
# Elastic Constant Matrix: (Units=GPa)
#
#
# Indices 1 2 3 4 5 6 
#
# 1 59.2582 7.7844 19.1578 0.0000 0.0000 0.0000
# 2 7.7844 59.2567 19.1571 0.0000 0.0000 0.0000
# 3 19.1578 19.1571 120.2730 0.0000 0.0000 0.0000
# 4 0.0000 0.0000 0.0000 13.6421 0.0000 0.0000
# 5 0.0000 0.0000 0.0000 0.0000 13.6422 0.0000
# 6 0.0000 0.0000 0.0000 0.0000 0.0000 21.1994
#
#
#
# Elastic Compliance Matrix: (Units=1/GPa)
#
#
# Indices 1 2 3 4 5 6 
#
# 1 0.017919 -0.001509 -0.002614 0.000000 0.000000 0.000000
# 2 -0.001509 0.017919 -0.002614 0.000000 0.000000 0.000000
# 3 -0.002614 -0.002614 0.009147 0.000000 0.000000 0.000000
# 4 0.000000 0.000000 0.000000 0.073302 0.000000 0.000000
# 5 0.000000 0.000000 0.000000 0.000000 0.073302 0.000000
# 6 0.000000 0.000000 0.000000 0.000000 0.000000 0.047171
#
#
# Mechanical properties :
#
#
# Convention : Reuss Voigt Hill
#
# Bulk Modulus (GPa) = 31.73438 36.77627 34.25532
# Shear Modulus (GPa) = 19.03047 22.54267 20.78657
#
# Velocity S-wave (km/s) = 3.15547 3.43432 3.29784
# Velocity P-wave (km/s) = 5.46624 5.91337 5.69419
#
# Compressibility (1/GPa) = 0.03151157
#
# Stress axis : x y z
#
# Youngs Moduli (GPa) = 55.80810 55.80680 109.32436
#
# Poissons Ratio (x) = 0.08421 0.28576
# Poissons Ratio (y) = 0.08421 0.28575
# Poissons Ratio (z) = 0.14587 0.14587
#
# Static dielectric constant tensor:
#      x y z
#    x 1.667310 0.000000 0.000000 
#    y 0.000000 1.667310 0.000000 
#    z 0.000000 0.000000 1.681560 
# 
# From -- ./inp_files/17366.got.cif
#   From: 2010.05.17/outbox.cif.g08.bks.cpg/sg91_9_cif.got.tgz:17366.got - 2010.06.03 19:20:03.
