data_PCOD9547031
_publ_section_title
;
Structure prediction by ZEFSAII (Michael W. Deem and Ramdas Pophale) SiO2 
 PCOD9547031
Probable space group: P 4 2 2
;
_chemical_formula_sum "Si O2"
_cell_formula_units_Z 48
_cell_length_a 8.384194
_cell_length_b 8.384194
_cell_length_c 30.300520
_cell_angle_alpha 90.000000
_cell_angle_beta 90.000000
_cell_angle_gamma 90.000000
_cell_volume 2129.966237
_symmetry_space_group_name_H-M "P 4 2 2"
_symmetry_group_IT_number 89
_symmetry_cell_setting 'tetragonal'
loop_
_space_group_symop_operation_xyz
x,y,z
-y,x,z
-x,-y,z
y,-x,z
x,-y,-z
-x,y,-z
y,x,-z
-y,-x,-z
loop_
_atom_site_type_symbol
_atom_site_label
_atom_site_fract_x
_atom_site_fract_y
_atom_site_fract_z
Si Si1 0.745614 0.088424 0.778964
Si Si2 0.756778 0.419182 0.301297
Si Si3 0.076391 0.257898 0.880007
Si Si4 0.759582 0.543521 0.551399
Si Si5 0.258849 0.073090 0.381596
Si Si6 0.466595 0.233827 0.049177
O O1 0.619470 0.151464 0.743940
O O2 0.688202 0.101227 0.829449
O O3 0.906535 0.194727 0.772871
O O4 0.692696 0.598996 0.303798
O O5 0.871884 0.368607 0.341061
O O6 0.115869 0.393199 0.915005
O O7 0.897688 0.189813 0.885312
O O8 0.621153 0.673021 0.563984
O O9 0.788780 0.500000 0.500000
O O10 0.904173 0.633483 0.574895
O O11 0.103668 0.187609 0.379692
O O12 0.628987 0.331968 0.054038
O O13 0.500000 0.168557 0.000000
#
# Coordination Sequence:
#
# PCOD9547031 Si02
#       6
#     8   8   8   8   8   8
#     4   9  19  37  60  88 124 162 201 249 304 362
#     4  11  24  39  58  90 129 167 210 256 301 357
#     4   9  19  37  61  89 120 155 199 251 305 364
#     4   9  19  39  63  89 119 154 201 254 307 365
#     4  11  24  41  63  93 128 166 210 258 308 365
#     4   9  19  37  55  77 111 150 194 245 300 358
#
# _framework density 22.53557
#
# number of rings (size 3 to 8) (size 9 to 14) (size 15 to 20)
#    0.000    2.333    0.000    4.000    0.000    9.333 
#    0.000   21.667    0.000    8.000    0.000    0.000 
#    0.000    0.000    0.000    0.000    0.000    0.000 
#
# Total GULP energy -267905.106417 kJ/mol
# GULP energy per Si atom -5581.356384 kJ/mol
# Density = 2.248428 g / cm^3
# Si number density = 22.535570 Si / 1000 Ang^3
#
#
#
# Elastic Constant Matrix: (Units=GPa)
#
#
# Indices 1 2 3 4 5 6 
#
# 1 80.7074 83.7717 62.6026 0.0000 0.0000 0.0000
# 2 83.7717 80.7074 62.6026 0.0000 0.0000 0.0000
# 3 62.6026 62.6026 105.6205 0.0000 0.0000 0.0000
# 4 0.0000 0.0000 0.0000 0.7489 0.0000 0.0000
# 5 0.0000 0.0000 0.0000 0.0000 0.7489 0.0000
# 6 0.0000 0.0000 0.0000 0.0000 0.0000 48.4745
#
#
#
# Elastic Compliance Matrix: (Units=1/GPa)
#
#
# Indices 1 2 3 4 5 6 
#
# 1 -0.157631 0.168709 -0.006566 0.000000 0.000000 0.000000
# 2 0.168709 -0.157631 -0.006566 0.000000 0.000000 0.000000
# 3 -0.006566 -0.006566 0.017251 0.000000 0.000000 0.000000
# 4 0.000000 0.000000 0.000000 1.335294 0.000000 0.000000
# 5 0.000000 0.000000 0.000000 0.000000 1.335294 0.000000
# 6 0.000000 0.000000 0.000000 0.000000 0.000000 0.020629
#
#
# Mechanical properties :
#
#
# Convention : Reuss Voigt Hill
#
# Bulk Modulus (GPa) = 76.08501 76.10987 76.09744
# Shear Modulus (GPa) = 2.39643 13.86502 8.13073
#
# Velocity S-wave (km/s) = 1.03233 2.48312 1.90152
# Velocity P-wave (km/s) = 5.93771 6.48596 6.21788
#
# Compressibility (1/GPa) = 0.01314319
#
# Stress axis : x y z
#
# Youngs Moduli (GPa) = -6.34395 -6.34395 57.96606
#
# Poissons Ratio (x) = 1.07028 0.38061
# Poissons Ratio (y) = 1.07028 0.38061
# Poissons Ratio (z) = -0.04166 -0.04166
#
# Static dielectric constant tensor:
#      x y z
#    x 1.865310 0.000000 0.000000 
#    y 0.000000 1.865310 0.000000 
#    z 0.000000 0.000000 1.840340 
# 
# From -- ./inp_files/2959.got.cif
#   From: 2010.05.17/outbox.cif.g08.bks.cpg/sg89_2_cif.got.tgz:2959.got - 2010.06.03 19:15:31.
