data_PCOD9547501
_publ_section_title
;
Structure prediction by ZEFSAII (Michael W. Deem and Ramdas Pophale) SiO2 
 PCOD9547501
Probable space group: P 41 2 2
;
_chemical_formula_sum "Si O2"
_cell_formula_units_Z 56
_cell_length_a 25.622724
_cell_length_b 25.622724
_cell_length_c 5.296390
_cell_angle_alpha 90.000000
_cell_angle_beta 90.000000
_cell_angle_gamma 90.000000
_cell_volume 3477.207070
_symmetry_space_group_name_H-M "P 41 2 2"
_symmetry_group_IT_number 91
_symmetry_cell_setting 'tetragonal'
loop_
_space_group_symop_operation_xyz
x,y,z
-y,x,1/4+z
-x,-y,1/2+z
y,-x,3/4+z
x,-y,1/2-z
-x,y,-z
y,x,3/4-z
-y,-x,1/4-z
loop_
_atom_site_type_symbol
_atom_site_label
_atom_site_fract_x
_atom_site_fract_y
_atom_site_fract_z
Si Si1 0.627151 0.055432 0.705677
Si Si2 0.638642 0.677008 0.129978
Si Si3 0.167981 0.368420 0.552241
Si Si4 0.832772 0.559986 0.549418
Si Si5 0.472588 0.721392 0.756669
Si Si6 0.944526 0.558232 0.456108
Si Si7 0.246591 0.272856 0.620686
O O1 0.655421 0.110210 0.756426
O O2 0.603672 0.055355 0.422321
O O3 0.654921 0.000000 0.750000
O O4 0.581609 0.055714 0.922721
O O5 0.641226 0.641226 0.375000
O O6 0.588162 0.711251 0.186941
O O7 0.691377 0.711787 0.125863
O O8 0.643396 0.643396 0.875000
O O9 0.168435 0.399963 0.814201
O O10 0.212591 0.324975 0.584673
O O11 0.173796 0.407723 0.312072
O O12 0.783975 0.522465 0.511644
O O13 0.889003 0.532101 0.515894
O O14 0.500000 0.702797 0.500000
O O15 0.500000 0.697659 0.000000
O O16 0.000000 0.530209 0.500000
O O17 0.238525 0.238525 0.375000
O O18 0.240621 0.240621 0.875000
#
# Coordination Sequence:
#
# PCOD9547501 Si02
#       7
#     8   8   8   8   8   8   8
#     4   8  14  23  37  60  87 110 139 182 224 258
#     4  10  19  34  53  70  91 118 143 167 203 249
#     4  10  17  28  46  67  87 115 151 181 218 265
#     4  10  18  30  46  62  87 118 146 179 218 259
#     4  12  24  36  50  72 100 122 144 174 213 264
#     4   8  14  24  40  60  79 106 146 186 219 251
#     4  10  18  27  42  63  86 111 145 177 210 254
#
# _framework density 16.104880000000001
#
# number of rings (size 3 to 8) (size 9 to 14) (size 15 to 20)
#    0.000    2.286    0.000    6.000    0.000    0.000 
#    0.000    0.000    0.000    0.857    0.000    0.000 
#    0.000   16.000    0.000    0.000    0.000    0.000 
#
# Total GULP energy -311837.579249 kJ/mol
# GULP energy per Si atom -5568.528201 kJ/mol
# Density = 1.606822 g / cm^3
# Si number density = 16.104880 Si / 1000 Ang^3
#
#
#
# Elastic Constant Matrix: (Units=GPa)
#
#
# Indices 1 2 3 4 5 6 
#
# 1 70.7725 0.1960 18.5197 0.0000 0.0000 0.0000
# 2 0.1960 70.7725 18.5197 0.0000 0.0000 0.0000
# 3 18.5197 18.5197 136.1848 0.0000 0.0000 0.0000
# 4 0.0000 0.0000 0.0000 14.2296 0.0000 0.0000
# 5 0.0000 0.0000 0.0000 0.0000 14.2296 0.0000
# 6 0.0000 0.0000 0.0000 0.0000 0.0000 6.0767
#
#
#
# Elastic Compliance Matrix: (Units=1/GPa)
#
#
# Indices 1 2 3 4 5 6 
#
# 1 0.014668 0.000499 -0.002063 0.000000 0.000000 0.000000
# 2 0.000499 0.014668 -0.002063 0.000000 0.000000 0.000000
# 3 -0.002063 -0.002063 0.007904 0.000000 0.000000 0.000000
# 4 0.000000 0.000000 0.000000 0.070276 0.000000 0.000000
# 5 0.000000 0.000000 0.000000 0.000000 0.070276 0.000000
# 6 0.000000 0.000000 0.000000 0.000000 0.000000 0.164562
#
#
# Mechanical properties :
#
#
# Convention : Reuss Voigt Hill
#
# Bulk Modulus (GPa) = 33.34658 39.13340 36.23999
# Shear Modulus (GPa) = 13.90422 22.94014 18.42218
#
# Velocity S-wave (km/s) = 2.94148 3.77825 3.38581
# Velocity P-wave (km/s) = 5.68218 6.58676 6.15112
#
# Compressibility (1/GPa) = 0.02998809
#
# Stress axis : x y z
#
# Youngs Moduli (GPa) = 68.17504 68.17504 126.51911
#
# Poissons Ratio (x) = -0.03403 0.26096
# Poissons Ratio (y) = -0.03403 0.26096
# Poissons Ratio (z) = 0.14062 0.14062
#
# Static dielectric constant tensor:
#      x y z
#    x 1.487740 0.000000 0.000000 
#    y 0.000000 1.487740 0.000000 
#    z 0.000000 0.000000 1.651680 
# 
# From -- ./inp_files/9164.got.cif
#   From: 2010.05.17/outbox.cif.g08.bks.cpg/sg91_5_cif.got.tgz:9164.got - 2010.06.03 19:20:03.
