data_PCOD9547922
_publ_section_title
;
Structure prediction by ZEFSAII (Michael W. Deem and Ramdas Pophale) SiO2 
 PCOD9547922
Probable space group: P 41 2 2
;
_chemical_formula_sum "Si O2"
_cell_formula_units_Z 48
_cell_length_a 21.588802
_cell_length_b 21.588802
_cell_length_c 5.219427
_cell_angle_alpha 90.000000
_cell_angle_beta 90.000000
_cell_angle_gamma 90.000000
_cell_volume 2432.651599
_symmetry_space_group_name_H-M "P 41 2 2"
_symmetry_group_IT_number 91
_symmetry_cell_setting 'tetragonal'
loop_
_space_group_symop_operation_xyz
x,y,z
-y,x,1/4+z
-x,-y,1/2+z
y,-x,3/4+z
x,-y,1/2-z
-x,y,-z
y,x,3/4-z
-y,-x,1/4-z
loop_
_atom_site_type_symbol
_atom_site_label
_atom_site_fract_x
_atom_site_fract_y
_atom_site_fract_z
Si Si1 0.197857 0.435203 0.106401
Si Si2 0.933646 0.309192 0.552548
Si Si3 0.650213 0.253116 0.731391
Si Si4 0.671209 0.568362 0.299071
Si Si5 0.931947 0.608730 0.440385
Si Si6 0.185847 0.242948 0.634541
O O1 0.194983 0.500000 0.250000
O O2 0.201486 0.376333 0.295792
O O3 0.132564 0.428761 0.960222
O O4 0.265525 0.433853 0.968751
O O5 0.928613 0.336317 0.841601
O O6 0.881790 0.262236 0.454451
O O7 0.000000 0.278902 0.500000
O O8 0.933124 0.365497 0.347736
O O9 0.698839 0.301162 0.625000
O O10 0.690307 0.219036 0.949767
O O11 0.592767 0.296558 0.793462
O O12 0.645395 0.500000 0.250000
O O13 0.619323 0.619323 0.375000
O O14 0.000000 0.578854 0.500000
O O15 0.215528 0.215528 0.375000
O O16 0.198967 0.198967 0.875000
#
# Coordination Sequence:
#
# PCOD9547922 Si02
#       6
#     8   8   8   8   8   8
#     4  12  24  40  62  88 115 153 204 255 310 377
#     4  10  20  37  59  83 121 166 200 237 299 363
#     4  11  22  37  61  85 115 148 190 253 310 374
#     4  12  25  42  62  86 114 152 200 259 325 392
#     4  10  22  40  61  87 122 162 203 245 294 365
#     4  11  22  34  57  91 121 153 199 253 300 354
#
# _framework density 19.731558
#
# number of rings (size 3 to 8) (size 9 to 14) (size 15 to 20)
#    0.000    1.000    5.000    2.500    4.667    0.000 
#    0.000    5.000    0.000    0.000    0.000    0.000 
#    0.000    1.333    0.000    0.000    0.000    0.000 
#
# Total GULP energy -267369.204958 kJ/mol
# GULP energy per Si atom -5570.191770 kJ/mol
# Density = 1.968665 g / cm^3
# Si number density = 19.731558 Si / 1000 Ang^3
#
#
#
# Elastic Constant Matrix: (Units=GPa)
#
#
# Indices 1 2 3 4 5 6 
#
# 1 84.8760 65.6897 13.7816 0.0000 0.0000 0.0000
# 2 65.6897 84.8750 13.7769 0.0000 0.0000 0.0000
# 3 13.7816 13.7769 66.4061 0.0000 0.0000 0.0000
# 4 0.0000 0.0000 0.0000 27.8898 0.0000 0.0000
# 5 0.0000 0.0000 0.0000 0.0000 27.8886 0.0000
# 6 0.0000 0.0000 0.0000 0.0000 0.0000 6.7465
#
#
#
# Elastic Compliance Matrix: (Units=1/GPa)
#
#
# Indices 1 2 3 4 5 6 
#
# 1 0.029513 -0.022609 -0.001434 0.000000 0.000000 0.000000
# 2 -0.022609 0.029513 -0.001431 0.000000 0.000000 0.000000
# 3 -0.001434 -0.001431 0.015653 0.000000 0.000000 0.000000
# 4 0.000000 0.000000 0.000000 0.035855 0.000000 0.000000
# 5 0.000000 0.000000 0.000000 0.000000 0.035857 0.000000
# 6 0.000000 0.000000 0.000000 0.000000 0.000000 0.148226
#
#
# Mechanical properties :
#
#
# Convention : Reuss Voigt Hill
#
# Bulk Modulus (GPa) = 42.13919 46.96148 44.55033
# Shear Modulus (GPa) = 14.14524 22.03224 18.08874
#
# Velocity S-wave (km/s) = 2.68037 3.34518 3.03106
# Velocity P-wave (km/s) = 5.56613 6.22673 5.90567
#
# Compressibility (1/GPa) = 0.02373088
#
# Stress axis : x y z
#
# Youngs Moduli (GPa) = 33.88329 33.88367 63.88406
#
# Poissons Ratio (x) = 0.76608 0.09164
# Poissons Ratio (y) = 0.76607 0.09140
# Poissons Ratio (z) = 0.04860 0.04848
#
# Static dielectric constant tensor:
#      x y z
#    x 1.707340 0.000000 0.000000 
#    y 0.000000 1.707320 0.000000 
#    z 0.000000 0.000000 1.815690 
# 
# From -- ./inp_files/14354.got.cif
#   From: 2010.05.17/outbox.cif.g08.bks.cpg/sg91_8_cif.got.tgz:14354.got - 2010.06.03 19:20:03.
