data_PCOD9547344
_publ_section_title
;
Structure prediction by ZEFSAII (Michael W. Deem and Ramdas Pophale) SiO2 
 PCOD9547344
Probable space group: P 4 21 2
;
_chemical_formula_sum "Si O2"
_cell_formula_units_Z 34
_cell_length_a 8.285706
_cell_length_b 8.285706
_cell_length_c 23.517672
_cell_angle_alpha 90.000000
_cell_angle_beta 90.000000
_cell_angle_gamma 90.000000
_cell_volume 1614.556947
_symmetry_space_group_name_H-M "P 4 21 2"
_symmetry_group_IT_number 90
_symmetry_cell_setting 'tetragonal'
loop_
_space_group_symop_operation_xyz
x,y,z
1/2-y,1/2+x,z
-x,-y,z
1/2+y,1/2-x,z
1/2+x,1/2-y,-z
1/2-x,1/2+y,-z
y,x,-z
-y,-x,-z
loop_
_atom_site_type_symbol
_atom_site_label
_atom_site_fract_x
_atom_site_fract_y
_atom_site_fract_z
Si Si1 0.500000 0.500000 0.500000
Si Si2 0.414580 0.259198 0.835212
Si Si3 0.591581 0.742203 0.055321
Si Si4 0.735352 0.552277 0.604171
Si Si5 0.078745 0.762722 0.729018
O O1 0.633829 0.547944 0.547278
O O2 0.597659 0.196388 0.836606
O O3 0.360814 0.363561 0.889306
O O4 0.377545 0.360271 0.778606
O O5 0.406723 0.801346 0.055273
O O6 0.640868 0.640868 0.000000
O O7 0.818524 0.378046 0.603585
O O8 0.659668 0.587427 0.666078
O O9 0.192310 0.602633 0.733830
#
# Coordination Sequence:
#
# PCOD9547344 Si02
#       5
#     2   8   8   8   8
#     4  12  20  32  60  88 112 152 194 232 288 348
#     4  11  24  39  57  86 121 155 197 250 305 362
#     4  11  24  41  62  89 120 156 202 252 303 363
#     4   9  20  37  55  81 116 150 190 239 287 345
#     4   9  19  37  59  81 109 148 194 241 290 349
#
# _framework density 21.058411
#
# number of rings (size 3 to 8) (size 9 to 14) (size 15 to 20)
#    0.000    1.882    0.000    4.941    0.000   13.647 
#    0.000    0.000    0.000    2.824    0.000    0.000 
#    0.000    0.000    0.000    0.000    0.000    0.000 
#
# Total GULP energy -189818.627066 kJ/mol
# GULP energy per Si atom -5582.900796 kJ/mol
# Density = 2.101048 g / cm^3
# Si number density = 21.058411 Si / 1000 Ang^3
#
#
#
# Elastic Constant Matrix: (Units=GPa)
#
#
# Indices 1 2 3 4 5 6 
#
# 1 65.3627 24.5624 68.4299 0.0000 0.0000 0.0000
# 2 24.5624 65.3627 68.4299 0.0000 0.0000 0.0000
# 3 68.4299 68.4299 231.1556 0.0000 0.0000 0.0000
# 4 0.0000 0.0000 0.0000 51.2423 0.0000 0.0000
# 5 0.0000 0.0000 0.0000 0.0000 51.2423 0.0000
# 6 0.0000 0.0000 0.0000 0.0000 0.0000 32.9517
#
#
#
# Elastic Compliance Matrix: (Units=1/GPa)
#
#
# Indices 1 2 3 4 5 6 
#
# 1 0.022374 -0.002135 -0.005991 0.000000 0.000000 0.000000
# 2 -0.002135 0.022374 -0.005991 0.000000 0.000000 0.000000
# 3 -0.005991 -0.005991 0.007873 0.000000 0.000000 0.000000
# 4 0.000000 0.000000 0.000000 0.019515 0.000000 0.000000
# 5 0.000000 0.000000 0.000000 0.000000 0.019515 0.000000
# 6 0.000000 0.000000 0.000000 0.000000 0.000000 0.030347
#
#
# Mechanical properties :
#
#
# Convention : Reuss Voigt Hill
#
# Bulk Modulus (GPa) = 41.00791 76.08060 58.54426
# Shear Modulus (GPa) = 31.57275 40.45120 36.01197
#
# Velocity S-wave (km/s) = 3.87627 4.38757 4.13982
# Velocity P-wave (km/s) = 6.28885 7.86603 7.12124
#
# Compressibility (1/GPa) = 0.02438554
#
# Stress axis : x y z
#
# Youngs Moduli (GPa) = 44.69422 44.69422 127.00998
#
# Poissons Ratio (x) = 0.09544 0.76097
# Poissons Ratio (y) = 0.09544 0.76097
# Poissons Ratio (z) = 0.26778 0.26778
#
# Static dielectric constant tensor:
#      x y z
#    x 1.782440 0.000000 0.000000 
#    y 0.000000 1.782440 0.000000 
#    z 0.000000 0.000000 1.751260 
# 
# From -- ./inp_files/2737.got.cif
#   From: 2010.05.17/outbox.cif.g08.bks.cpg/sg90_2_cif.got.tgz:2737.got - 2010.06.03 19:17:45.
