data_PCOD9547512
_publ_section_title
;
Structure prediction by ZEFSAII (Michael W. Deem and Ramdas Pophale) SiO2 
 PCOD9547512
Probable space group: P 41 2 2
;
_chemical_formula_sum "Si O2"
_cell_formula_units_Z 56
_cell_length_a 14.655565
_cell_length_b 14.655565
_cell_length_c 12.340056
_cell_angle_alpha 90.000000
_cell_angle_beta 90.000000
_cell_angle_gamma 90.000000
_cell_volume 2650.466153
_symmetry_space_group_name_H-M "P 41 2 2"
_symmetry_group_IT_number 91
_symmetry_cell_setting 'tetragonal'
loop_
_space_group_symop_operation_xyz
x,y,z
-y,x,1/4+z
-x,-y,1/2+z
y,-x,3/4+z
x,-y,1/2-z
-x,y,-z
y,x,3/4-z
-y,-x,1/4-z
loop_
_atom_site_type_symbol
_atom_site_label
_atom_site_fract_x
_atom_site_fract_y
_atom_site_fract_z
Si Si1 0.644378 0.667959 0.178743
Si Si2 0.359299 0.546311 0.032356
Si Si3 0.288269 0.841855 0.410326
Si Si4 0.873150 0.389799 0.957781
Si Si5 0.154737 0.408470 0.449343
Si Si6 0.105975 0.805281 0.520845
Si Si7 0.604299 0.010745 0.504430
O O1 0.559448 0.639329 0.252527
O O2 0.750013 0.666663 0.212515
O O3 0.623811 0.773684 0.155515
O O4 0.632722 0.609471 0.071260
O O5 0.431804 0.568197 0.125000
O O6 0.259883 0.573228 0.081888
O O7 0.327931 0.846647 0.287821
O O8 0.179386 0.831026 0.426404
O O9 0.325637 0.932169 0.466110
O O10 0.877347 0.493585 0.000412
O O11 0.944477 0.378017 0.861499
O O12 0.883442 0.304046 0.036335
O O13 0.089251 0.391830 0.347401
O O14 0.141980 0.858021 0.625000
O O15 0.000000 0.825311 0.500000
O O16 0.500000 0.976146 0.500000
#
# Coordination Sequence:
#
# PCOD9547512 Si02
#       7
#     8   8   8   8   8   8   8
#     4   9  19  33  51  77 108 142 186 230 273 326
#     4  10  17  30  52  77 108 147 186 226 269 326
#     4  10  21  37  56  84 118 151 189 241 298 352
#     4   9  19  37  62  91 116 147 194 245 299 358
#     4   9  19  34  59  94 123 146 185 243 303 356
#     4  11  24  43  64  85 114 157 206 249 296 363
#     4  10  19  34  60  92 121 150 186 238 305 365
#
# _framework density 21.128359
#
# number of rings (size 3 to 8) (size 9 to 14) (size 15 to 20)
#    0.000    2.286    0.000    2.571    0.000    5.714 
#    0.000    2.857    0.000   18.000    0.000    0.000 
#    0.000    0.000    0.000    0.000    0.000    0.000 
#
# Total GULP energy -312561.266821 kJ/mol
# GULP energy per Si atom -5581.451193 kJ/mol
# Density = 2.108027 g / cm^3
# Si number density = 21.128359 Si / 1000 Ang^3
#
#
#
# Elastic Constant Matrix: (Units=GPa)
#
#
# Indices 1 2 3 4 5 6 
#
# 1 121.2066 42.1949 30.1138 0.0000 0.0000 0.0000
# 2 42.1949 121.2070 30.1139 0.0000 0.0000 0.0000
# 3 30.1138 30.1139 38.8434 0.0000 0.0000 0.0000
# 4 0.0000 0.0000 0.0000 29.6317 0.0000 0.0000
# 5 0.0000 0.0000 0.0000 0.0000 29.6319 0.0000
# 6 0.0000 0.0000 0.0000 0.0000 0.0000 23.5047
#
#
#
# Elastic Compliance Matrix: (Units=1/GPa)
#
#
# Indices 1 2 3 4 5 6 
#
# 1 0.010612 -0.002044 -0.006643 0.000000 0.000000 0.000000
# 2 -0.002044 0.010612 -0.006643 0.000000 0.000000 0.000000
# 3 -0.006643 -0.006643 0.036044 0.000000 0.000000 0.000000
# 4 0.000000 0.000000 0.000000 0.033748 0.000000 0.000000
# 5 0.000000 0.000000 0.000000 0.000000 0.033747 0.000000
# 6 0.000000 0.000000 0.000000 0.000000 0.000000 0.042545
#
#
# Mechanical properties :
#
#
# Convention : Reuss Voigt Hill
#
# Bulk Modulus (GPa) = 37.58000 54.01137 45.79568
# Shear Modulus (GPa) = 24.17362 28.47595 26.32478
#
# Velocity S-wave (km/s) = 3.38617 3.67517 3.53362
# Velocity P-wave (km/s) = 5.75442 6.60516 6.19441
#
# Compressibility (1/GPa) = 0.02660990
#
# Stress axis : x y z
#
# Youngs Moduli (GPa) = 94.23010 94.23034 27.74386
#
# Poissons Ratio (x) = 0.19261 0.18429
# Poissons Ratio (y) = 0.19261 0.18429
# Poissons Ratio (z) = 0.62594 0.62594
#
# Static dielectric constant tensor:
#      x y z
#    x 1.780500 0.000000 0.000000 
#    y 0.000000 1.780500 0.000000 
#    z 0.000000 0.000000 1.753650 
# 
# From -- ./inp_files/20318.got.cif
#   From: 2010.05.17/outbox.cif.g08.bks.cpg/sg91_11_cif.got.tgz:20318.got - 2010.06.03 19:20:03.
