data_PCOD9547158
_publ_section_title
;
Structure prediction by ZEFSAII (Michael W. Deem and Ramdas Pophale) SiO2 
 PCOD9547158
Probable space group: P 4 21 2
;
_chemical_formula_sum "Si O2"
_cell_formula_units_Z 40
_cell_length_a 15.021034
_cell_length_b 15.021034
_cell_length_c 8.997610
_cell_angle_alpha 90.000000
_cell_angle_beta 90.000000
_cell_angle_gamma 90.000000
_cell_volume 2030.143903
_symmetry_space_group_name_H-M "P 4 21 2"
_symmetry_group_IT_number 90
_symmetry_cell_setting 'tetragonal'
loop_
_space_group_symop_operation_xyz
x,y,z
1/2-y,1/2+x,z
-x,-y,z
1/2+y,1/2-x,z
1/2+x,1/2-y,-z
1/2-x,1/2+y,-z
y,x,-z
-y,-x,-z
loop_
_atom_site_type_symbol
_atom_site_label
_atom_site_fract_x
_atom_site_fract_y
_atom_site_fract_z
Si Si1 0.354333 0.402409 0.833542
Si Si2 0.686067 0.186818 0.302791
Si Si3 0.526739 0.752563 0.774213
Si Si4 0.148486 0.315941 0.366130
Si Si5 0.288318 0.575561 0.928397
O O1 0.258326 0.379033 0.767513
O O2 0.428613 0.344717 0.748191
O O3 0.358406 0.508693 0.848041
O O4 0.362831 0.362831 0.000000
O O5 0.740435 0.277923 0.335284
O O6 0.654717 0.153509 0.463175
O O7 0.611014 0.215039 0.185772
O O8 0.447094 0.775243 0.664693
O O9 0.604504 0.823891 0.744920
O O10 0.482495 0.752335 0.937311
O O11 0.342082 0.657919 0.000000
#
# Coordination Sequence:
#
# PCOD9547158 Si02
#       5
#     8   8   8   8   8
#     4   9  21  37  61  92 124 159 202 255 316 371
#     4  10  21  39  63  87 122 170 207 250 318 388
#     4  10  22  39  61  88 125 162 207 256 320 366
#     4  10  22  40  60  88 124 167 211 257 316 382
#     4  11  21  37  66  95 123 157 215 261 309 374
#
# _framework density 19.703037999999999
#
# number of rings (size 3 to 8) (size 9 to 14) (size 15 to 20)
#    0.000    2.000    2.000    0.600    8.400    4.000 
#    0.000    0.000    0.000    3.000    0.000    0.000 
#    0.000    0.000    0.000    0.000    0.000    0.000 
#
# Total GULP energy -223094.170895 kJ/mol
# GULP energy per Si atom -5577.354272 kJ/mol
# Density = 1.965819 g / cm^3
# Si number density = 19.703038 Si / 1000 Ang^3
#
#
#
# Elastic Constant Matrix: (Units=GPa)
#
#
# Indices 1 2 3 4 5 6 
#
# 1 39.1101 10.6886 23.2314 0.0000 0.0000 0.0000
# 2 10.6886 39.1170 23.2326 0.0000 0.0000 0.0000
# 3 23.2314 23.2326 69.5732 0.0000 0.0000 0.0000
# 4 0.0000 0.0000 0.0000 20.0516 0.0000 0.0000
# 5 0.0000 0.0000 0.0000 0.0000 20.0517 0.0000
# 6 0.0000 0.0000 0.0000 0.0000 0.0000 7.3709
#
#
#
# Elastic Compliance Matrix: (Units=1/GPa)
#
#
# Indices 1 2 3 4 5 6 
#
# 1 0.032176 -0.003007 -0.009740 0.000000 0.000000 0.000000
# 2 -0.003007 0.032170 -0.009738 0.000000 0.000000 0.000000
# 3 -0.009740 -0.009738 0.020878 0.000000 0.000000 0.000000
# 4 0.000000 0.000000 0.000000 0.049871 0.000000 0.000000
# 5 0.000000 0.000000 0.000000 0.000000 0.049871 0.000000
# 6 0.000000 0.000000 0.000000 0.000000 0.000000 0.135669
#
#
# Mechanical properties :
#
#
# Convention : Reuss Voigt Hill
#
# Bulk Modulus (GPa) = 24.84308 29.12285 26.98296
# Shear Modulus (GPa) = 13.19181 15.53802 14.36491
#
# Velocity S-wave (km/s) = 2.59034 2.81127 2.70306
# Velocity P-wave (km/s) = 4.64571 5.03494 4.84423
#
# Compressibility (1/GPa) = 0.04025266
#
# Stress axis : x y z
#
# Youngs Moduli (GPa) = 31.07889 31.08497 47.89838
#
# Poissons Ratio (x) = 0.09348 0.46652
# Poissons Ratio (y) = 0.09346 0.46645
# Poissons Ratio (z) = 0.30270 0.30271
#
# Static dielectric constant tensor:
#      x y z
#    x 1.699270 0.000000 0.000000 
#    y 0.000000 1.699270 0.000000 
#    z 0.000000 0.000000 1.735320 
# 
# From -- ./inp_files/1309.got.cif
#   From: 2010.05.17/outbox.cif.g08.bks.cpg/sg90_1_cif.got.tgz:1309.got - 2010.06.03 19:17:45.
