data_PCOD9547795
_publ_section_title
;
Structure prediction by ZEFSAII (Michael W. Deem and Ramdas Pophale) SiO2 
 PCOD9547795
Probable space group: P 41 2 2
;
_chemical_formula_sum "Si O2"
_cell_formula_units_Z 56
_cell_length_a 14.294338
_cell_length_b 14.294338
_cell_length_c 12.191212
_cell_angle_alpha 90.000000
_cell_angle_beta 90.000000
_cell_angle_gamma 90.000000
_cell_volume 2491.007171
_symmetry_space_group_name_H-M "P 41 2 2"
_symmetry_group_IT_number 91
_symmetry_cell_setting 'tetragonal'
loop_
_space_group_symop_operation_xyz
x,y,z
-y,x,1/4+z
-x,-y,1/2+z
y,-x,3/4+z
x,-y,1/2-z
-x,y,-z
y,x,3/4-z
-y,-x,1/4-z
loop_
_atom_site_type_symbol
_atom_site_label
_atom_site_fract_x
_atom_site_fract_y
_atom_site_fract_z
Si Si1 0.555451 0.290796 0.612582
Si Si2 0.063768 0.143673 0.090818
Si Si3 0.329441 0.843645 0.804707
Si Si4 0.651668 0.230177 0.975403
Si Si5 0.401349 0.913566 0.038260
Si Si6 0.522712 0.233792 0.174395
Si Si7 0.955725 0.238771 0.291516
O O1 0.500000 0.312944 0.500000
O O2 0.647476 0.352525 0.625000
O O3 0.577327 0.179788 0.606841
O O4 0.496223 0.302488 0.723760
O O5 0.101090 0.235894 0.025777
O O6 0.156804 0.084893 0.118767
O O7 0.009482 0.182635 0.195616
O O8 0.000000 0.092795 0.000000
O O9 0.299571 0.734889 0.806329
O O10 0.417842 0.852291 0.725183
O O11 0.358556 0.875247 0.924709
O O12 0.577392 0.212136 0.878891
O O13 0.704442 0.133742 0.004386
O O14 0.590340 0.266544 0.076777
O O15 0.320945 0.978561 0.088202
O O16 0.500000 0.959448 0.000000
#
# Coordination Sequence:
#
# PCOD9547795 Si02
#       7
#     8   8   8   8   8   8   8
#     4  11  23  44  69  90 130 179 230 275 344 412
#     4  10  20  37  65  95 132 176 219 272 343 408
#     4  10  19  39  61  90 127 177 216 271 343 403
#     4  10  23  38  60  97 141 166 223 283 344 406
#     4  10  20  39  67  94 132 175 230 276 334 411
#     4  11  21  36  62  95 126 179 216 283 334 403
#     4  10  22  40  65  99 136 179 223 281 343 416
#
# _framework density 22.480865000000001
#
# number of rings (size 3 to 8) (size 9 to 14) (size 15 to 20)
#    0.000    1.714    2.857    2.571    2.000    2.286 
#    0.000    5.000    0.000    3.429    0.000    0.000 
#    0.000    0.000    0.000    0.000    0.000    0.000 
#
# Total GULP energy -312493.713969 kJ/mol
# GULP energy per Si atom -5580.244892 kJ/mol
# Density = 2.242970 g / cm^3
# Si number density = 22.480865 Si / 1000 Ang^3
#
#
#
# Elastic Constant Matrix: (Units=GPa)
#
#
# Indices 1 2 3 4 5 6 
#
# 1 110.4229 49.9464 17.5106 0.0000 0.0000 0.0000
# 2 49.9464 110.4259 17.5116 0.0000 0.0000 0.0000
# 3 17.5106 17.5116 73.8703 0.0000 0.0000 0.0000
# 4 0.0000 0.0000 0.0000 19.0846 0.0000 0.0000
# 5 0.0000 0.0000 0.0000 0.0000 19.0834 0.0000
# 6 0.0000 0.0000 0.0000 0.0000 0.0000 24.4583
#
#
#
# Elastic Compliance Matrix: (Units=1/GPa)
#
#
# Indices 1 2 3 4 5 6 
#
# 1 0.011556 -0.004979 -0.001559 0.000000 0.000000 0.000000
# 2 -0.004979 0.011555 -0.001559 0.000000 0.000000 0.000000
# 3 -0.001559 -0.001559 0.014276 0.000000 0.000000 0.000000
# 4 0.000000 0.000000 0.000000 0.052398 0.000000 0.000000
# 5 0.000000 0.000000 0.000000 0.000000 0.052402 0.000000
# 6 0.000000 0.000000 0.000000 0.000000 0.000000 0.040886
#
#
# Mechanical properties :
#
#
# Convention : Reuss Voigt Hill
#
# Bulk Modulus (GPa) = 47.18569 51.62846 49.40708
# Shear Modulus (GPa) = 24.23284 26.50864 25.37074
#
# Velocity S-wave (km/s) = 3.28675 3.43762 3.36303
# Velocity P-wave (km/s) = 5.95302 6.22669 6.09139
#
# Compressibility (1/GPa) = 0.02119286
#
# Stress axis : x y z
#
# Youngs Moduli (GPa) = 86.53820 86.54028 70.04617
#
# Poissons Ratio (x) = 0.43093 0.10919
# Poissons Ratio (y) = 0.43092 0.10920
# Poissons Ratio (z) = 0.13489 0.13491
#
# Static dielectric constant tensor:
#      x y z
#    x 1.874620 0.000000 0.000000 
#    y 0.000000 1.874620 0.000000 
#    z 0.000000 0.000000 1.855210 
# 
# From -- ./inp_files/20325.got.cif
#   From: 2010.05.17/outbox.cif.g08.bks.cpg/sg91_11_cif.got.tgz:20325.got - 2010.06.03 19:20:03.
