data_PCOD9547259
_publ_section_title
;
Structure prediction by ZEFSAII (Michael W. Deem and Ramdas Pophale) SiO2 
 PCOD9547259
Probable space group: P 4 21 2
;
_chemical_formula_sum "Si O2"
_cell_formula_units_Z 54
_cell_length_a 15.202762
_cell_length_b 15.202762
_cell_length_c 10.356085
_cell_angle_alpha 90.000000
_cell_angle_beta 90.000000
_cell_angle_gamma 90.000000
_cell_volume 2393.539504
_symmetry_space_group_name_H-M "P 4 21 2"
_symmetry_group_IT_number 90
_symmetry_cell_setting 'tetragonal'
loop_
_space_group_symop_operation_xyz
x,y,z
1/2-y,1/2+x,z
-x,-y,z
1/2+y,1/2-x,z
1/2+x,1/2-y,-z
1/2-x,1/2+y,-z
y,x,-z
-y,-x,-z
loop_
_atom_site_type_symbol
_atom_site_label
_atom_site_fract_x
_atom_site_fract_y
_atom_site_fract_z
Si Si1 0.500000 0.000000 0.348902
Si Si2 0.360921 0.161907 0.390830
Si Si3 0.102132 0.825265 0.121201
Si Si4 0.241164 0.241164 0.000000
Si Si5 0.609455 0.904663 0.653217
Si Si6 0.836713 0.866900 0.346606
Si Si7 0.861030 0.069621 0.365668
Si Si8 0.236460 0.578206 0.135133
O O1 0.430221 0.085295 0.354200
O O2 0.341269 0.150239 0.545100
O O3 0.267288 0.147792 0.323836
O O4 0.400816 0.258689 0.373454
O O5 0.093152 0.873307 0.255497
O O6 0.022526 0.757537 0.105576
O O7 0.108064 0.891936 0.000000
O O8 0.198610 0.779907 0.114607
O O9 0.254916 0.137628 0.991465
O O10 0.508521 0.881129 0.629064
O O11 0.643460 0.900143 0.798058
O O12 0.852709 0.852709 0.500000
O O13 0.889200 0.804918 0.246331
O O14 0.862697 0.968146 0.326888
O O15 0.908445 0.091556 0.500000
#
# Coordination Sequence:
#
# PCOD9547259 Si02
#       8
#     2   8   8   4   8   8   8   8
#     4  12  20  40  64 100 144 198 224 296 380 438
#     4  12  22  40  66 104 147 185 233 300 369 442
#     4  10  27  51  71 105 144 191 253 299 372 454
#     4  10  26  48  69 103 130 192 252 298 364 444
#     4  11  21  37  67 108 142 184 236 295 368 441
#     4  12  25  41  66 108 144 187 243 291 371 442
#     4  12  27  44  71 102 150 190 237 306 361 438
#     4  12  25  44  75  97 144 190 242 307 364 435
#
# _framework density 22.560731000000001
#
# number of rings (size 3 to 8) (size 9 to 14) (size 15 to 20)
#    0.444    0.148    4.444    3.111    6.222    2.074 
#    0.000    0.000    0.000    0.000    0.000    0.000 
#    0.000    0.000    0.000    0.000    0.000    0.000 
#
# Total GULP energy -301137.342236 kJ/mol
# GULP energy per Si atom -5576.617449 kJ/mol
# Density = 2.250938 g / cm^3
# Si number density = 22.560731 Si / 1000 Ang^3
#
#
#
# Elastic Constant Matrix: (Units=GPa)
#
#
# Indices 1 2 3 4 5 6 
#
# 1 71.1306 5.6097 6.9833 0.0000 0.0000 0.0000
# 2 5.6097 71.1334 6.9845 0.0000 0.0000 0.0000
# 3 6.9833 6.9845 66.1138 0.0000 0.0000 0.0000
# 4 0.0000 0.0000 0.0000 22.7834 0.0000 0.0000
# 5 0.0000 0.0000 0.0000 0.0000 22.7832 0.0000
# 6 0.0000 0.0000 0.0000 0.0000 0.0000 41.7561
#
#
#
# Elastic Compliance Matrix: (Units=1/GPa)
#
#
# Indices 1 2 3 4 5 6 
#
# 1 0.014274 -0.000988 -0.001403 0.000000 0.000000 0.000000
# 2 -0.000988 0.014274 -0.001404 0.000000 0.000000 0.000000
# 3 -0.001403 -0.001404 0.015422 0.000000 0.000000 0.000000
# 4 0.000000 0.000000 0.000000 0.043892 0.000000 0.000000
# 5 0.000000 0.000000 0.000000 0.000000 0.043892 0.000000
# 6 0.000000 0.000000 0.000000 0.000000 0.000000 0.023949
#
#
# Mechanical properties :
#
#
# Convention : Reuss Voigt Hill
#
# Bulk Modulus (GPa) = 27.48736 27.50366 27.49551
# Shear Modulus (GPa) = 28.50323 30.05123 29.27723
#
# Velocity S-wave (km/s) = 3.55829 3.65364 3.60628
# Velocity P-wave (km/s) = 5.39371 5.47870 5.43637
#
# Compressibility (1/GPa) = 0.03638036
#
# Stress axis : x y z
#
# Youngs Moduli (GPa) = 70.05581 70.05834 64.84270
#
# Poissons Ratio (x) = 0.06921 0.09100
# Poissons Ratio (y) = 0.06921 0.09101
# Poissons Ratio (z) = 0.09831 0.09833
#
# Static dielectric constant tensor:
#      x y z
#    x 1.849930 0.000000 0.000000 
#    y 0.000000 1.849930 0.000000 
#    z 0.000000 0.000000 1.870620 
# 
# From -- ./inp_files/2298.got.cif
#   From: 2010.05.17/outbox.cif.g08.bks.cpg/sg90_2_cif.got.tgz:2298.got - 2010.06.03 19:17:45.
