data_PCOD9547684
_publ_section_title
;
Structure prediction by ZEFSAII (Michael W. Deem and Ramdas Pophale) SiO2 
 PCOD9547684
Probable space group: P 41 2 2
;
_chemical_formula_sum "Si O2"
_cell_formula_units_Z 48
_cell_length_a 26.671472
_cell_length_b 26.671472
_cell_length_c 5.293595
_cell_angle_alpha 90.000000
_cell_angle_beta 90.000000
_cell_angle_gamma 90.000000
_cell_volume 3765.691011
_symmetry_space_group_name_H-M "P 41 2 2"
_symmetry_group_IT_number 91
_symmetry_cell_setting 'tetragonal'
loop_
_space_group_symop_operation_xyz
x,y,z
-y,x,1/4+z
-x,-y,1/2+z
y,-x,3/4+z
x,-y,1/2-z
-x,y,-z
y,x,3/4-z
-y,-x,1/4-z
loop_
_atom_site_type_symbol
_atom_site_label
_atom_site_fract_x
_atom_site_fract_y
_atom_site_fract_z
Si Si1 0.209685 0.168025 0.627018
Si Si2 0.971440 0.205159 0.238857
Si Si3 0.939023 0.353489 0.512271
Si Si4 0.881741 0.898668 0.623603
Si Si5 0.939148 0.528840 0.999282
Si Si6 0.295123 0.908804 0.732603
O O1 0.200913 0.200913 0.375000
O O2 0.161614 0.129521 0.621256
O O3 0.261195 0.138205 0.672260
O O4 0.200796 0.200796 0.875000
O O5 0.927261 0.170414 0.347101
O O6 0.948780 0.253144 0.100153
O O7 0.000000 0.218544 0.500000
O O8 0.000000 0.179353 0.000000
O O9 0.926696 0.412536 0.508399
O O10 0.909978 0.328388 0.273958
O O11 0.000000 0.348508 0.500000
O O12 0.924293 0.328043 0.777137
O O13 0.911332 0.911332 0.375000
O O14 0.910434 0.910434 0.875000
O O15 0.921780 0.500000 0.250000
O O16 0.921507 0.500000 0.750000
O O17 0.000000 0.526483 0.000000
#
# Coordination Sequence:
#
# PCOD9547684 Si02
#       6
#     8   8   8   8   8   8
#     4  10  19  32  48  56  75 113 139 149 173 232
#     4  12  23  32  46  67  88 107 126 152 194 233
#     4  11  22  32  43  66  91 108 130 161 202 233
#     4  10  19  34  48  59  78 109 131 151 166 225
#     4   9  17  31  48  60  77 110 144 164 179 217
#     4  12  21  33  44  63  89 113 123 158 200 234
#
# _framework density 12.746664000000001
#
# number of rings (size 3 to 8) (size 9 to 14) (size 15 to 20)
#    0.000    1.333    3.333    6.000    4.667    2.667 
#    0.000    0.000    0.000    0.000    0.000    0.000 
#    0.000   18.667    0.000    0.000    0.000    0.000 
#
# Total GULP energy -267247.757411 kJ/mol
# GULP energy per Si atom -5567.661613 kJ/mol
# Density = 1.271765 g / cm^3
# Si number density = 12.746664 Si / 1000 Ang^3
#
#
#
# Elastic Constant Matrix: (Units=GPa)
#
#
# Indices 1 2 3 4 5 6 
#
# 1 42.3707 33.8119 40.8698 0.0000 0.0000 0.0000
# 2 33.8119 42.3707 40.8698 0.0000 0.0000 0.0000
# 3 40.8698 40.8698 159.1027 0.0000 0.0000 0.0000
# 4 0.0000 0.0000 0.0000 16.3419 0.0000 0.0000
# 5 0.0000 0.0000 0.0000 0.0000 16.3419 0.0000
# 6 0.0000 0.0000 0.0000 0.0000 0.0000 3.6599
#
#
#
# Elastic Compliance Matrix: (Units=1/GPa)
#
#
# Indices 1 2 3 4 5 6 
#
# 1 0.067479 -0.049359 -0.004655 0.000000 0.000000 0.000000
# 2 -0.049359 0.067479 -0.004655 0.000000 0.000000 0.000000
# 3 -0.004655 -0.004655 0.008677 0.000000 0.000000 0.000000
# 4 0.000000 0.000000 0.000000 0.061192 0.000000 0.000000
# 5 0.000000 0.000000 0.000000 0.000000 0.061192 0.000000
# 6 0.000000 0.000000 0.000000 0.000000 0.000000 0.273229
#
#
# Mechanical properties :
#
#
# Convention : Reuss Voigt Hill
#
# Bulk Modulus (GPa) = 38.02443 52.77188 45.39816
# Shear Modulus (GPa) = 7.51483 15.82162 11.66822
#
# Velocity S-wave (km/s) = 2.43071 3.52694 3.02883
# Velocity P-wave (km/s) = 6.14601 7.62077 6.92277
#
# Compressibility (1/GPa) = 0.02629888
#
# Stress axis : x y z
#
# Youngs Moduli (GPa) = 14.81937 14.81937 115.25184
#
# Poissons Ratio (x) = 0.73146 0.53647
# Poissons Ratio (y) = 0.73146 0.53647
# Poissons Ratio (z) = 0.06898 0.06898
#
# Static dielectric constant tensor:
#      x y z
#    x 1.422110 0.000000 0.000000 
#    y 0.000000 1.422110 0.000000 
#    z 0.000000 0.000000 1.510990 
# 
# From -- ./inp_files/14540.got.cif
#   From: 2010.05.17/outbox.cif.g08.bks.cpg/sg91_8_cif.got.tgz:14540.got - 2010.06.03 19:20:03.
