data_PCOD9547079
_publ_section_title
;
Structure prediction by ZEFSAII (Michael W. Deem and Ramdas Pophale) SiO2 
 PCOD9547079
Probable space group: P 4 21 2
;
_chemical_formula_sum "Si O2"
_cell_formula_units_Z 56
_cell_length_a 22.411585
_cell_length_b 22.411585
_cell_length_c 7.384697
_cell_angle_alpha 90.000000
_cell_angle_beta 90.000000
_cell_angle_gamma 90.000000
_cell_volume 3709.179275
_symmetry_space_group_name_H-M "P 4 21 2"
_symmetry_group_IT_number 90
_symmetry_cell_setting 'tetragonal'
loop_
_space_group_symop_operation_xyz
x,y,z
1/2-y,1/2+x,z
-x,-y,z
1/2+y,1/2-x,z
1/2+x,1/2-y,-z
1/2-x,1/2+y,-z
y,x,-z
-y,-x,-z
loop_
_atom_site_type_symbol
_atom_site_label
_atom_site_fract_x
_atom_site_fract_y
_atom_site_fract_z
Si Si1 0.816215 0.975153 0.282591
Si Si2 0.387799 0.288894 0.715395
Si Si3 0.683786 0.475154 0.282595
Si Si4 0.288895 0.387798 0.715400
Si Si5 0.047542 0.047541 0.719576
Si Si6 0.782268 0.680808 0.000002
Si Si7 0.619820 0.276952 0.999998
O O1 0.885508 0.968646 0.229218
O O2 0.811139 0.967024 0.499998
O O3 0.796819 0.042679 0.239068
O O4 0.782928 0.923536 0.172968
O O5 0.457321 0.296815 0.760927
O O6 0.348529 0.348527 0.758022
O O7 0.383062 0.279901 0.499997
O O8 0.358761 0.234834 0.826243
O O9 0.614493 0.468650 0.229222
O O10 0.717071 0.423535 0.172973
O O11 0.234835 0.358762 0.826250
O O12 0.045822 0.045822 0.500000
O O13 0.000000 0.000000 0.786889
O O14 0.734309 0.734309 0.000000
O O15 0.844817 0.714576 0.000000
O O16 0.668615 0.331386 0.000000
#
# Coordination Sequence:
#
# PCOD9547079 Si02
#       7
#     8   8   8   8   8   8   8
#     4  10  19  31  47  67  95 125 157 195 231 273
#     4   9  17  31  50  69  88 119 160 200 237 268
#     4  10  19  31  47  67  95 125 157 195 231 273
#     4   9  17  31  50  69  88 119 160 200 237 268
#     4   9  16  27  43  65  94 129 159 186 221 261
#     4   9  19  32  46  63  88 121 161 203 230 269
#     4  11  21  32  44  64  95 130 162 189 230 279
#
# _framework density 15.097678999999999
#
# number of rings (size 3 to 8) (size 9 to 14) (size 15 to 20)
#    0.000    2.429    1.429    1.714    0.000    4.571 
#    0.000    5.714    0.000    0.000    0.000    0.000 
#    0.000    9.143    0.000   25.143    0.000    0.000 
#
# Total GULP energy -312203.742255 kJ/mol
# GULP energy per Si atom -5575.066826 kJ/mol
# Density = 1.506332 g / cm^3
# Si number density = 15.097679 Si / 1000 Ang^3
#
#
#
# Elastic Constant Matrix: (Units=GPa)
#
#
# Indices 1 2 3 4 5 6 
#
# 1 99.4492 86.4434 49.1808 0.0000 0.0000 0.0000
# 2 86.4434 99.4490 49.1806 0.0000 0.0000 0.0000
# 3 49.1808 49.1806 73.9704 0.0000 0.0000 0.0000
# 4 0.0000 0.0000 0.0000 17.0265 0.0000 0.0000
# 5 0.0000 0.0000 0.0000 0.0000 17.0264 0.0000
# 6 0.0000 0.0000 0.0000 0.0000 0.0000 35.0505
#
#
#
# Elastic Compliance Matrix: (Units=1/GPa)
#
#
# Indices 1 2 3 4 5 6 
#
# 1 0.042594 -0.034295 -0.005518 0.000000 0.000000 0.000000
# 2 -0.034295 0.042594 -0.005518 0.000000 0.000000 0.000000
# 3 -0.005518 -0.005518 0.020856 0.000000 0.000000 0.000000
# 4 0.000000 0.000000 0.000000 0.058732 0.000000 0.000000
# 5 0.000000 0.000000 0.000000 0.000000 0.058732 0.000000
# 6 0.000000 0.000000 0.000000 0.000000 0.000000 0.028530
#
#
# Mechanical properties :
#
#
# Convention : Reuss Voigt Hill
#
# Bulk Modulus (GPa) = 65.00639 71.38646 68.19642
# Shear Modulus (GPa) = 14.37489 19.69158 17.03323
#
# Velocity S-wave (km/s) = 3.08900 3.61540 3.36252
# Velocity P-wave (km/s) = 7.47484 8.05070 7.76811
#
# Compressibility (1/GPa) = 0.01538310
#
# Stress axis : x y z
#
# Youngs Moduli (GPa) = 23.47735 23.47738 47.94734
#
# Poissons Ratio (x) = 0.80516 0.26457
# Poissons Ratio (y) = 0.80516 0.26456
# Poissons Ratio (z) = 0.12955 0.12954
#
# Static dielectric constant tensor:
#      x y z
#    x 1.481020 0.000000 0.000000 
#    y 0.000000 1.481020 0.000000 
#    z 0.000000 0.000000 1.542560 
# 
# From -- ./inp_files/1709.got.cif
#   From: 2010.05.17/outbox.cif.g08.bks.cpg/sg90_1_cif.got.tgz:1709.got - 2010.06.03 19:17:45.
