data_PCOD9547944
_publ_section_title
;
Structure prediction by ZEFSAII (Michael W. Deem and Ramdas Pophale) SiO2 
 PCOD9547944
Probable space group: P 41 2 2
;
_chemical_formula_sum "Si O2"
_cell_formula_units_Z 48
_cell_length_a 14.008319
_cell_length_b 14.008319
_cell_length_c 11.419073
_cell_angle_alpha 90.000000
_cell_angle_beta 90.000000
_cell_angle_gamma 90.000000
_cell_volume 2240.798966
_symmetry_space_group_name_H-M "P 41 2 2"
_symmetry_group_IT_number 91
_symmetry_cell_setting 'tetragonal'
loop_
_space_group_symop_operation_xyz
x,y,z
-y,x,1/4+z
-x,-y,1/2+z
y,-x,3/4+z
x,-y,1/2-z
-x,y,-z
y,x,3/4-z
-y,-x,1/4-z
loop_
_atom_site_type_symbol
_atom_site_label
_atom_site_fract_x
_atom_site_fract_y
_atom_site_fract_z
Si Si1 0.732043 0.803812 0.088069
Si Si2 0.477042 0.784234 0.309765
Si Si3 0.158005 0.691719 0.588921
Si Si4 0.386126 0.370306 0.508173
Si Si5 0.902859 0.594019 0.835166
Si Si6 0.104448 0.321474 0.664996
O O1 0.726032 0.864114 0.207893
O O2 0.838719 0.758384 0.088977
O O3 0.655875 0.714653 0.088471
O O4 0.686859 0.861552 0.981670
O O5 0.580647 0.824304 0.326746
O O6 0.465010 0.670610 0.296546
O O7 0.435582 0.835507 0.192658
O O8 0.407409 0.819095 0.412256
O O9 0.254967 0.745034 0.625000
O O10 0.091368 0.711552 0.700478
O O11 0.500000 0.375530 0.500000
O O12 0.352180 0.352180 0.375000
O O13 0.908273 0.500000 0.750000
O O14 0.007207 0.628856 0.873307
#
# Coordination Sequence:
#
# PCOD9547944 Si02
#       6
#     8   8   8   8   8   8
#     4  10  21  39  58  83 125 165 201 267 327 381
#     4  11  21  36  56  85 125 161 215 265 306 368
#     4  10  20  38  55  78 127 167 205 258 324 372
#     4  11  21  35  54  81 117 165 214 252 300 368
#     4  12  21  37  65  90 123 171 221 265 326 400
#     4  10  24  36  57  90 125 161 210 269 329 382
#
# _framework density 21.420931
#
# number of rings (size 3 to 8) (size 9 to 14) (size 15 to 20)
#    0.000    1.333    3.333    3.500    0.000    1.333 
#    0.000    0.000    0.000    0.000    0.000    0.000 
#  110.000    0.000    0.000    0.000    0.000    0.000 
#
# Total GULP energy -267588.894064 kJ/mol
# GULP energy per Si atom -5574.768626 kJ/mol
# Density = 2.137218 g / cm^3
# Si number density = 21.420931 Si / 1000 Ang^3
#
#
#
# Elastic Constant Matrix: (Units=GPa)
#
#
# Indices 1 2 3 4 5 6 
#
# 1 82.3172 20.5616 13.9548 0.0000 0.0000 0.0000
# 2 20.5616 82.3162 13.9547 0.0000 0.0000 0.0000
# 3 13.9548 13.9547 111.0245 0.0000 0.0000 0.0000
# 4 0.0000 0.0000 0.0000 22.4091 0.0000 0.0000
# 5 0.0000 0.0000 0.0000 0.0000 22.4092 0.0000
# 6 0.0000 0.0000 0.0000 0.0000 0.0000 6.8502
#
#
#
# Elastic Compliance Matrix: (Units=1/GPa)
#
#
# Indices 1 2 3 4 5 6 
#
# 1 0.013128 -0.003065 -0.001265 0.000000 0.000000 0.000000
# 2 -0.003065 0.013128 -0.001265 0.000000 0.000000 0.000000
# 3 -0.001265 -0.001265 0.009325 0.000000 0.000000 0.000000
# 4 0.000000 0.000000 0.000000 0.044625 0.000000 0.000000
# 5 0.000000 0.000000 0.000000 0.000000 0.044625 0.000000
# 6 0.000000 0.000000 0.000000 0.000000 0.000000 0.145982
#
#
# Mechanical properties :
#
#
# Convention : Reuss Voigt Hill
#
# Bulk Modulus (GPa) = 40.99666 41.40001 41.19833
# Shear Modulus (GPa) = 17.23353 25.47948 21.35650
#
# Velocity S-wave (km/s) = 2.83948 3.45261 3.16094
# Velocity P-wave (km/s) = 5.47086 5.93825 5.70934
#
# Compressibility (1/GPa) = 0.02439223
#
# Stress axis : x y z
#
# Youngs Moduli (GPa) = 76.17243 76.17156 107.23873
#
# Poissons Ratio (x) = 0.23345 0.13564
# Poissons Ratio (y) = 0.23345 0.13564
# Poissons Ratio (z) = 0.09635 0.09635
#
# Static dielectric constant tensor:
#      x y z
#    x 1.793670 0.000000 0.000000 
#    y 0.000000 1.793670 0.000000 
#    z 0.000000 0.000000 1.912140 
# 
# From -- ./inp_files/10759.got.cif
#   From: 2010.05.17/outbox.cif.g08.bks.cpg/sg91_6_cif.got.tgz:10759.got - 2010.06.03 19:20:03.
