data_PCOD9547370
_publ_section_title
;
Structure prediction by ZEFSAII (Michael W. Deem and Ramdas Pophale) SiO2 
 PCOD9547370
Probable space group: P 4 21 2
;
_chemical_formula_sum "Si O2"
_cell_formula_units_Z 50
_cell_length_a 8.413012
_cell_length_b 8.413012
_cell_length_c 31.086672
_cell_angle_alpha 90.000000
_cell_angle_beta 90.000000
_cell_angle_gamma 90.000000
_cell_volume 2200.276436
_symmetry_space_group_name_H-M "P 4 21 2"
_symmetry_group_IT_number 90
_symmetry_cell_setting 'tetragonal'
loop_
_space_group_symop_operation_xyz
x,y,z
1/2-y,1/2+x,z
-x,-y,z
1/2+y,1/2-x,z
1/2+x,1/2-y,-z
1/2-x,1/2+y,-z
y,x,-z
-y,-x,-z
loop_
_atom_site_type_symbol
_atom_site_label
_atom_site_fract_x
_atom_site_fract_y
_atom_site_fract_z
Si Si1 0.244720 0.085520 0.365070
Si Si2 0.414271 0.748666 0.210491
Si Si3 0.766508 0.387011 0.135480
Si Si4 0.500000 0.000000 0.060326
Si Si5 0.658070 0.393705 0.952194
Si Si6 0.580586 0.255427 0.461929
Si Si7 0.756193 0.922028 0.712621
O O1 0.404775 0.192907 0.360459
O O2 0.180549 0.104809 0.413600
O O3 0.122992 0.141666 0.329146
O O4 0.593474 0.806475 0.216179
O O5 0.377644 0.682660 0.163136
O O6 0.356925 0.622255 0.245402
O O7 0.795955 0.570859 0.146676
O O8 0.733979 0.367001 0.085227
O O9 0.694253 0.005990 0.058920
O O10 0.500000 0.500000 0.952308
O O11 0.677196 0.322805 0.000000
O O12 0.401472 0.191245 0.465413
O O13 0.628609 0.371392 0.500000
O O14 0.600224 0.809056 0.712614
#
# Coordination Sequence:
#
# PCOD9547370 Si02
#       7
#     8   8   8   2   8   8   8
#     4   9  19  37  60  84 114 155 205 256 311 375
#     4  11  26  44  67  96 128 168 218 270 325 394
#     4  11  26  45  70 101 139 179 221 277 338 394
#     4  12  28  44  80 100 144 188 236 284 340 424
#     4  11  28  48  74 111 144 186 237 288 344 405
#     4   9  19  35  54  80 116 156 199 253 310 372
#     4  11  24  41  61  89 125 160 203 258 322 387
#
# _framework density 22.724415
#
# number of rings (size 3 to 8) (size 9 to 14) (size 15 to 20)
#    0.000    1.600    0.000    3.840    8.960    8.000 
#    0.000    4.800    0.000    0.000    0.000    0.000 
#    0.000    0.000    0.000    0.000    0.000    0.000 
#
# Total GULP energy -279613.700311 kJ/mol
# GULP energy per Si atom -5592.274006 kJ/mol
# Density = 2.267269 g / cm^3
# Si number density = 22.724415 Si / 1000 Ang^3
#
#
#
# Elastic Constant Matrix: (Units=GPa)
#
#
# Indices 1 2 3 4 5 6 
#
# 1 77.1826 31.3287 26.4480 0.0000 0.0000 0.0000
# 2 31.3287 77.1825 26.4476 0.0000 0.0000 0.0000
# 3 26.4480 26.4476 119.4436 0.0000 0.0000 0.0000
# 4 0.0000 0.0000 0.0000 69.4054 0.0000 0.0000
# 5 0.0000 0.0000 0.0000 0.0000 69.4007 0.0000
# 6 0.0000 0.0000 0.0000 0.0000 0.0000-1002.4039
#
#
#
# Elastic Compliance Matrix: (Units=1/GPa)
#
#
# Indices 1 2 3 4 5 6 
#
# 1 0.016070 -0.005739 -0.002288 0.000000 0.000000 0.000000
# 2 -0.005739 0.016070 -0.002287 0.000000 0.000000 0.000000
# 3 -0.002288 -0.002287 0.009385 0.000000 0.000000 0.000000
# 4 0.000000 0.000000 0.000000 0.014408 0.000000 0.000000
# 5 0.000000 0.000000 0.000000 0.000000 0.014409 0.000000
# 6 0.000000 0.000000 0.000000 0.000000 0.000000 -0.000998
#
#
# Mechanical properties :
#
#
# Convention : Reuss Voigt Hill
#
# Bulk Modulus (GPa) = 47.85453 49.13970 48.49711
# Shear Modulus (GPa) = 51.57989 -160.08059 -54.25035
#
# Velocity S-wave (km/s) = 4.76941 -8.40222 -4.89132
# Velocity P-wave (km/s) = 7.17175 8.51226 3.24226
#
# Compressibility (1/GPa) = 0.02089666
#
# Stress axis : x y z
#
# Youngs Moduli (GPa) = 62.22948 62.22947 106.55124
#
# Poissons Ratio (x) = 0.35713 0.24374
# Poissons Ratio (y) = 0.35713 0.24373
# Poissons Ratio (z) = 0.14235 0.14235
#
# Static dielectric constant tensor:
#      x y z
#    x 0.263100 0.000000 0.000000 
#    y 0.000000 0.267590 0.000000 
#    z 0.000000 0.000000 1.832830 
# 
# From -- ./inp_files/3063.got.cif
#   From: 2010.05.17/outbox.cif.g08.bks.cpg/sg90_2_cif.got.tgz:3063.got - 2010.06.03 19:17:45.
