data_PCOD9547547
_publ_section_title
;
Structure prediction by ZEFSAII (Michael W. Deem and Ramdas Pophale) SiO2 
 PCOD9547547
Probable space group: P 41 2 2
;
_chemical_formula_sum "Si O2"
_cell_formula_units_Z 40
_cell_length_a 19.869742
_cell_length_b 19.869742
_cell_length_c 5.371177
_cell_angle_alpha 90.000000
_cell_angle_beta 90.000000
_cell_angle_gamma 90.000000
_cell_volume 2120.576383
_symmetry_space_group_name_H-M "P 41 2 2"
_symmetry_group_IT_number 91
_symmetry_cell_setting 'tetragonal'
loop_
_space_group_symop_operation_xyz
x,y,z
-y,x,1/4+z
-x,-y,1/2+z
y,-x,3/4+z
x,-y,1/2-z
-x,y,-z
y,x,3/4-z
-y,-x,1/4-z
loop_
_atom_site_type_symbol
_atom_site_label
_atom_site_fract_x
_atom_site_fract_y
_atom_site_fract_z
Si Si1 0.783471 0.534250 0.506619
Si Si2 0.075955 0.669762 0.978477
Si Si3 0.320285 0.270657 0.629830
Si Si4 0.173197 0.795313 0.880313
Si Si5 0.075189 0.579678 0.481923
O O1 0.759368 0.500000 0.250000
O O2 0.770944 0.612817 0.563030
O O3 0.864268 0.527328 0.508810
O O4 0.753185 0.500000 0.750000
O O5 0.130369 0.727780 0.924306
O O6 0.080457 0.623739 0.733131
O O7 0.083828 0.626013 0.232863
O O8 0.000000 0.698041 0.000000
O O9 0.313242 0.313242 0.375000
O O10 0.253288 0.224160 0.625613
O O11 0.315657 0.315657 0.875000
O O12 0.164891 0.835110 0.625000
O O13 0.161340 0.838661 0.125000
O O14 0.000000 0.549898 0.500000
#
# Coordination Sequence:
#
# PCOD9547547 Si02
#       5
#     8   8   8   8   8
#     4  12  24  36  52  78 112 143 181 232 276 319
#     4  10  19  33  53  79 108 140 184 234 272 313
#     4  10  19  34  55  74  99 136 177 217 267 321
#     4  10  18  29  50  75 101 134 178 219 267 321
#     4  10  20  34  51  70 102 151 193 220 257 312
#
# _framework density 18.862797
#
# number of rings (size 3 to 8) (size 9 to 14) (size 15 to 20)
#    0.000    1.600    0.000    8.400    0.000    0.800 
#    0.000    0.000    0.000    0.000    0.000    0.000 
#    0.000   24.000    0.000    0.000    0.000    0.000 
#
# Total GULP energy -222875.406254 kJ/mol
# GULP energy per Si atom -5571.885156 kJ/mol
# Density = 1.881986 g / cm^3
# Si number density = 18.862797 Si / 1000 Ang^3
#
#
#
# Elastic Constant Matrix: (Units=GPa)
#
#
# Indices 1 2 3 4 5 6 
#
# 1 46.6403 18.5393 23.2023 0.0000 0.0000 0.0000
# 2 18.5393 46.6378 23.2010 0.0000 0.0000 0.0000
# 3 23.2023 23.2010 203.9577 0.0000 0.0000 0.0000
# 4 0.0000 0.0000 0.0000 18.5323 0.0000 0.0000
# 5 0.0000 0.0000 0.0000 0.0000 18.5326 0.0000
# 6 0.0000 0.0000 0.0000 0.0000 0.0000 21.6125
#
#
#
# Elastic Compliance Matrix: (Units=1/GPa)
#
#
# Indices 1 2 3 4 5 6 
#
# 1 0.026140 -0.009446 -0.001899 0.000000 0.000000 0.000000
# 2 -0.009446 0.026142 -0.001899 0.000000 0.000000 0.000000
# 3 -0.001899 -0.001899 0.005335 0.000000 0.000000 0.000000
# 4 0.000000 0.000000 0.000000 0.053960 0.000000 0.000000
# 5 0.000000 0.000000 0.000000 0.000000 0.053959 0.000000
# 6 0.000000 0.000000 0.000000 0.000000 0.000000 0.046270
#
#
# Mechanical properties :
#
#
# Convention : Reuss Voigt Hill
#
# Bulk Modulus (GPa) = 32.12572 47.45790 39.79181
# Shear Modulus (GPa) = 20.10691 27.22170 23.66431
#
# Velocity S-wave (km/s) = 3.26844 3.80299 3.54580
# Velocity P-wave (km/s) = 5.59570 6.67067 6.15669
#
# Compressibility (1/GPa) = 0.03112770
#
# Stress axis : x y z
#
# Youngs Moduli (GPa) = 38.25499 38.25304 187.43945
#
# Poissons Ratio (x) = 0.36136 0.35598
# Poissons Ratio (y) = 0.36137 0.35597
# Poissons Ratio (z) = 0.07265 0.07265
#
# Static dielectric constant tensor:
#      x y z
#    x 1.753780 0.000000 0.000000 
#    y 0.000000 1.753780 0.000000 
#    z 0.000000 0.000000 1.882590 
# 
# From -- ./inp_files/824.got.cif
#   From: 2010.05.17/outbox.cif.g08.bks.cpg/sg91_1_cif.got.tgz:824.got - 2010.06.03 19:20:03.
