data_PCOD9547346
_publ_section_title
;
Structure prediction by ZEFSAII (Michael W. Deem and Ramdas Pophale) SiO2 
 PCOD9547346
Probable space group: P 4 21 2
;
_chemical_formula_sum "Si O2"
_cell_formula_units_Z 36
_cell_length_a 8.045002
_cell_length_b 8.045002
_cell_length_c 25.309730
_cell_angle_alpha 90.000000
_cell_angle_beta 90.000000
_cell_angle_gamma 90.000000
_cell_volume 1638.097792
_symmetry_space_group_name_H-M "P 4 21 2"
_symmetry_group_IT_number 90
_symmetry_cell_setting 'tetragonal'
loop_
_space_group_symop_operation_xyz
x,y,z
1/2-y,1/2+x,z
-x,-y,z
1/2+y,1/2-x,z
1/2+x,1/2-y,-z
1/2-x,1/2+y,-z
y,x,-z
-y,-x,-z
loop_
_atom_site_type_symbol
_atom_site_label
_atom_site_fract_x
_atom_site_fract_y
_atom_site_fract_z
Si Si1 0.906423 0.764243 0.446511
Si Si2 0.734491 0.588614 0.051367
Si Si3 0.500000 0.500000 0.641156
Si Si4 0.904619 0.235093 0.167276
Si Si5 0.412749 0.264257 0.271612
O O1 0.795587 0.598069 0.445032
O O2 0.859950 0.859950 0.500000
O O3 0.887140 0.887240 0.397066
O O4 0.798583 0.400243 0.049605
O O5 0.657227 0.621732 0.109123
O O6 0.630038 0.630038 0.000000
O O7 0.389849 0.387261 0.680085
O O8 0.796249 0.404842 0.170521
O O9 0.851663 0.122804 0.215935
O O10 0.602288 0.202218 0.274905
#
# Coordination Sequence:
#
# PCOD9547346 Si02
#       5
#     8   8   4   8   8
#     4  11  24  43  69  99 131 169 211 256 308 366
#     4   9  19  35  55  81 112 147 190 240 295 358
#     4  12  23  42  64  90 127 166 206 250 300 370
#     4   9  19  38  60  80 110 155 201 246 304 373
#     4  11  24  39  58  87 120 156 200 254 309 358
#
# _framework density 21.976707999999999
#
# number of rings (size 3 to 8) (size 9 to 14) (size 15 to 20)
#    0.000    1.778    0.000    5.667    0.000    2.222 
#    0.000   11.111    0.000    0.000    0.000    0.000 
#    0.000    0.000    0.000    0.000    0.000    0.000 
#
# Total GULP energy -201465.556639 kJ/mol
# GULP energy per Si atom -5596.265462 kJ/mol
# Density = 2.192669 g / cm^3
# Si number density = 21.976708 Si / 1000 Ang^3
#
#
#
# Elastic Constant Matrix: (Units=GPa)
#
#
# Indices 1 2 3 4 5 6 
#
# 1 58.3781 16.7553 51.8305 0.0000 0.0000 0.0000
# 2 16.7553 58.3781 51.8305 0.0000 0.0000 0.0000
# 3 51.8305 51.8305 216.3939 0.0000 0.0000 0.0000
# 4 0.0000 0.0000 0.0000 45.8594 0.0000 0.0000
# 5 0.0000 0.0000 0.0000 0.0000 45.8594 0.0000
# 6 0.0000 0.0000 0.0000 0.0000 0.0000 35.9053
#
#
#
# Elastic Compliance Matrix: (Units=1/GPa)
#
#
# Indices 1 2 3 4 5 6 
#
# 1 0.021952 -0.002073 -0.004761 0.000000 0.000000 0.000000
# 2 -0.002073 0.021952 -0.004761 0.000000 0.000000 0.000000
# 3 -0.004761 -0.004761 0.006902 0.000000 0.000000 0.000000
# 4 0.000000 0.000000 0.000000 0.021806 0.000000 0.000000
# 5 0.000000 0.000000 0.000000 0.000000 0.021806 0.000000
# 6 0.000000 0.000000 0.000000 0.000000 0.000000 0.027851
#
#
# Mechanical properties :
#
#
# Convention : Reuss Voigt Hill
#
# Bulk Modulus (GPa) = 36.21302 63.77585 49.99443
# Shear Modulus (GPa) = 32.32782 39.70708 36.01745
#
# Velocity S-wave (km/s) = 3.83953 4.25523 4.05271
# Velocity P-wave (km/s) = 6.01412 7.29558 6.68562
#
# Compressibility (1/GPa) = 0.02761438
#
# Stress axis : x y z
#
# Youngs Moduli (GPa) = 45.55375 45.55375 144.88376
#
# Poissons Ratio (x) = 0.09444 0.68985
# Poissons Ratio (y) = 0.09444 0.68985
# Poissons Ratio (z) = 0.21690 0.21690
#
# Static dielectric constant tensor:
#      x y z
#    x 1.817420 0.000000 0.000000 
#    y 0.000000 1.817420 0.000000 
#    z 0.000000 0.000000 1.777500 
# 
# From -- ./inp_files/2750.got.cif
#   From: 2010.05.17/outbox.cif.g08.bks.cpg/sg90_2_cif.got.tgz:2750.got - 2010.06.03 19:17:45.
