data_PCOD9547834
_publ_section_title
;
Structure prediction by ZEFSAII (Michael W. Deem and Ramdas Pophale) SiO2 
 PCOD9547834
Probable space group: P 41 2 2
;
_chemical_formula_sum "Si O2"
_cell_formula_units_Z 48
_cell_length_a 9.338903
_cell_length_b 9.338903
_cell_length_c 31.210327
_cell_angle_alpha 90.000000
_cell_angle_beta 90.000000
_cell_angle_gamma 90.000000
_cell_volume 2722.012079
_symmetry_space_group_name_H-M "P 41 2 2"
_symmetry_group_IT_number 91
_symmetry_cell_setting 'tetragonal'
loop_
_space_group_symop_operation_xyz
x,y,z
-y,x,1/4+z
-x,-y,1/2+z
y,-x,3/4+z
x,-y,1/2-z
-x,y,-z
y,x,3/4-z
-y,-x,1/4-z
loop_
_atom_site_type_symbol
_atom_site_label
_atom_site_fract_x
_atom_site_fract_y
_atom_site_fract_z
Si Si1 0.202076 0.154518 0.165638
Si Si2 0.709932 0.159960 0.323881
Si Si3 0.873980 0.666748 0.246631
Si Si4 0.395355 0.087764 0.294853
Si Si5 0.789727 0.331103 0.748218
Si Si6 0.867040 0.863691 0.327501
O O1 0.212489 0.235596 0.120374
O O2 0.225780 0.266222 0.204155
O O3 0.036730 0.104228 0.169329
O O4 0.305405 0.020394 0.174854
O O5 0.772687 0.265102 0.288562
O O6 0.541610 0.135453 0.317506
O O7 0.783361 0.006266 0.315692
O O8 0.846748 0.500000 0.250000
O O9 0.847826 0.744320 0.291782
O O10 0.042664 0.685718 0.235742
O O11 0.304775 0.228775 0.281952
O O12 0.422377 0.000000 0.250000
O O13 0.754770 0.500000 0.750000
O O14 0.818445 0.818445 0.375000
#
# Coordination Sequence:
#
# PCOD9547834 Si02
#       6
#     8   8   8   8   8   8
#     4   9  20  36  54  79 107 138 181 226 268 321
#     4  11  21  34  55  82 109 140 181 226 270 324
#     4  10  20  34  54  81 111 141 176 222 274 324
#     4  10  20  35  56  79 110 148 179 218 274 330
#     4   9  19  37  58  79 107 144 182 222 269 326
#     4   9  18  34  55  78 103 137 181 226 266 315
#
# _framework density 17.634014000000001
#
# number of rings (size 3 to 8) (size 9 to 14) (size 15 to 20)
#    0.000    2.333    0.000    2.500    0.000    8.667 
#    0.000    2.500    0.000    0.000    0.000    0.000 
#    0.000    0.000    0.000    0.000    0.000    0.000 
#
# Total GULP energy -267775.324637 kJ/mol
# GULP energy per Si atom -5578.652597 kJ/mol
# Density = 1.759388 g / cm^3
# Si number density = 17.634014 Si / 1000 Ang^3
#
#
#
# Elastic Constant Matrix: (Units=GPa)
#
#
# Indices 1 2 3 4 5 6 
#
# 1 107.9028 89.5173 75.9901 0.0000 0.0000 0.0000
# 2 89.5173 107.9028 75.9901 0.0000 0.0000 0.0000
# 3 75.9901 75.9901 102.1577 0.0000 0.0000 0.0000
# 4 0.0000 0.0000 0.0000 4.5384 0.0000 0.0000
# 5 0.0000 0.0000 0.0000 0.0000 4.5384 0.0000
# 6 0.0000 0.0000 0.0000 0.0000 0.0000 -2.5674
#
#
#
# Elastic Compliance Matrix: (Units=1/GPa)
#
#
# Indices 1 2 3 4 5 6 
#
# 1 0.033122 -0.021269 -0.008817 0.000000 0.000000 0.000000
# 2 -0.021269 0.033122 -0.008817 0.000000 0.000000 0.000000
# 3 -0.008817 -0.008817 0.022905 0.000000 0.000000 0.000000
# 4 0.000000 0.000000 0.000000 0.220343 0.000000 0.000000
# 5 0.000000 0.000000 0.000000 0.000000 0.220343 0.000000
# 6 0.000000 0.000000 0.000000 0.000000 0.000000 -0.389500
#
#
# Mechanical properties :
#
#
# Convention : Reuss Voigt Hill
#
# Bulk Modulus (GPa) = 88.15119 88.99536 88.57327
# Shear Modulus (GPa) = 22.53049 6.39959 14.46504
#
# Velocity S-wave (km/s) = 3.57833 1.90709 2.86718
# Velocity P-wave (km/s) = 8.19576 7.44492 7.82935
#
# Compressibility (1/GPa) = 0.01134415
#
# Stress axis : x y z
#
# Youngs Moduli (GPa) = 30.19163 30.19163 43.65818
#
# Poissons Ratio (x) = 0.64215 0.38492
# Poissons Ratio (y) = 0.64215 0.38492
# Poissons Ratio (z) = 0.26619 0.26619
#
# Static dielectric constant tensor:
#      x y z
#    x 1.585970 0.000000 0.000000 
#    y 0.000000 1.585970 0.000000 
#    z 0.000000 0.000000 1.613270 
# 
# From -- ./inp_files/7928.got.cif
#   From: 2010.05.17/outbox.cif.g08.bks.cpg/sg91_4_cif.got.tgz:7928.got - 2010.06.03 19:20:03.
