data_PCOD9547707
_publ_section_title
;
Structure prediction by ZEFSAII (Michael W. Deem and Ramdas Pophale) SiO2 
 PCOD9547707
Probable space group: P 41 2 2
;
_chemical_formula_sum "Si O2"
_cell_formula_units_Z 32
_cell_length_a 8.579301
_cell_length_b 8.579301
_cell_length_c 22.115292
_cell_angle_alpha 90.000000
_cell_angle_beta 90.000000
_cell_angle_gamma 90.000000
_cell_volume 1627.782923
_symmetry_space_group_name_H-M "P 41 2 2"
_symmetry_group_IT_number 91
_symmetry_cell_setting 'tetragonal'
loop_
_space_group_symop_operation_xyz
x,y,z
-y,x,1/4+z
-x,-y,1/2+z
y,-x,3/4+z
x,-y,1/2-z
-x,y,-z
y,x,3/4-z
-y,-x,1/4-z
loop_
_atom_site_type_symbol
_atom_site_label
_atom_site_fract_x
_atom_site_fract_y
_atom_site_fract_z
Si Si1 0.565210 0.926661 0.061650
Si Si2 0.438585 0.428403 0.438891
Si Si3 0.064493 0.932464 0.936495
Si Si4 0.064045 0.580361 0.063800
O O1 0.498472 0.749974 0.061359
O O2 0.750318 0.920032 0.058558
O O3 0.507248 0.992780 0.125835
O O4 0.500000 0.002720 0.000000
O O5 0.500000 0.504945 0.500000
O O6 0.495894 0.495894 0.375000
O O7 0.251525 0.425540 0.439264
O O8 0.989927 0.759790 0.931417
O O9 0.020503 0.020503 0.875000
O O10 0.000000 0.000660 0.000000
O O11 0.000000 0.518053 0.000000
#
# Coordination Sequence:
#
# PCOD9547707 Si02
#       4
#     8   8   8   8
#     4  10  19  33  54  79 108 140 179 223 267 318
#     4   9  16  29  51  77 103 133 172 215 259 313
#     4  11  21  35  58  83 110 143 185 227 269 322
#     4  10  19  33  56  81 107 140 178 219 268 325
#
# _framework density 19.658639999999998
#
# number of rings (size 3 to 8) (size 9 to 14) (size 15 to 20)
#    0.000    2.000    0.000    9.750    0.000    1.000 
#    0.000    0.000    0.000   43.500    0.000    1.750 
#    0.000    0.000    0.000    0.000    0.000    0.000 
#
# Total GULP energy -178430.436058 kJ/mol
# GULP energy per Si atom -5575.951127 kJ/mol
# Density = 1.961390 g / cm^3
# Si number density = 19.658640 Si / 1000 Ang^3
#
#
#
# Elastic Constant Matrix: (Units=GPa)
#
#
# Indices 1 2 3 4 5 6 
#
# 1 68.5491 7.1254 48.9541 0.0000 0.0000 0.0000
# 2 7.1254 68.5491 48.9541 0.0000 0.0000 0.0000
# 3 48.9541 48.9541 248.6062 0.0000 0.0000 0.0000
# 4 0.0000 0.0000 0.0000 32.6518 0.0000 0.0000
# 5 0.0000 0.0000 0.0000 0.0000 32.6518 0.0000
# 6 0.0000 0.0000 0.0000 0.0000 0.0000 -36.9622
#
#
#
# Elastic Compliance Matrix: (Units=1/GPa)
#
#
# Indices 1 2 3 4 5 6 
#
# 1 0.017006 0.000726 -0.003492 0.000000 0.000000 0.000000
# 2 0.000726 0.017006 -0.003492 0.000000 0.000000 0.000000
# 3 -0.003492 -0.003492 0.005398 0.000000 0.000000 0.000000
# 4 0.000000 0.000000 0.000000 0.030626 0.000000 0.000000
# 5 0.000000 0.000000 0.000000 0.000000 0.030626 0.000000
# 6 0.000000 0.000000 0.000000 0.000000 0.000000 -0.027055
#
#
# Mechanical properties :
#
#
# Convention : Reuss Voigt Hill
#
# Bulk Modulus (GPa) = 37.18173 66.19683 51.68928
# Shear Modulus (GPa) = 52.58308 24.37970 38.48139
#
# Velocity S-wave (km/s) = 5.17747 3.52540 4.42914
# Velocity P-wave (km/s) = 7.39569 7.09348 7.24616
#
# Compressibility (1/GPa) = 0.02689493
#
# Stress axis : x y z
#
# Youngs Moduli (GPa) = 58.80203 58.80203 185.26905
#
# Poissons Ratio (x) = -0.04268 0.64690
# Poissons Ratio (y) = -0.04268 0.64690
# Poissons Ratio (z) = 0.20532 0.20532
#
# Static dielectric constant tensor:
#      x y z
#    x 1.669770 0.000000 0.000000 
#    y 0.000000 1.669770 0.000000 
#    z 0.000000 0.000000 1.797330 
# 
# From -- ./inp_files/6648.got.cif
#   From: 2010.05.17/outbox.cif.g08.bks.cpg/sg91_4_cif.got.tgz:6648.got - 2010.06.03 19:20:03.
