data_PCOD9547310
_publ_section_title
;
Structure prediction by ZEFSAII (Michael W. Deem and Ramdas Pophale) SiO2 
 PCOD9547310
Probable space group: P 4 21 2
;
_chemical_formula_sum "Si O2"
_cell_formula_units_Z 48
_cell_length_a 8.226909
_cell_length_b 8.226909
_cell_length_c 31.999344
_cell_angle_alpha 90.000000
_cell_angle_beta 90.000000
_cell_angle_gamma 90.000000
_cell_volume 2165.780615
_symmetry_space_group_name_H-M "P 4 21 2"
_symmetry_group_IT_number 90
_symmetry_cell_setting 'tetragonal'
loop_
_space_group_symop_operation_xyz
x,y,z
1/2-y,1/2+x,z
-x,-y,z
1/2+y,1/2-x,z
1/2+x,1/2-y,-z
1/2-x,1/2+y,-z
y,x,-z
-y,-x,-z
loop_
_atom_site_type_symbol
_atom_site_label
_atom_site_fract_x
_atom_site_fract_y
_atom_site_fract_z
Si Si1 0.238690 0.919268 0.039308
Si Si2 0.759779 0.089011 0.787825
Si Si3 0.085275 0.761660 0.368509
Si Si4 0.917649 0.238587 0.461210
Si Si5 0.908976 0.240650 0.118110
Si Si6 0.761586 0.077761 0.290361
O O1 0.398231 0.804329 0.037584
O O2 0.146118 0.879773 0.082110
O O3 0.129368 0.870633 0.000000
O O4 0.595968 0.197703 0.783874
O O5 0.824421 0.113557 0.834841
O O6 0.879830 0.140798 0.751463
O O7 0.196183 0.598862 0.365309
O O8 0.109322 0.833483 0.414952
O O9 0.135804 0.877931 0.331229
O O10 0.804606 0.399170 0.463546
O O11 0.872248 0.127753 0.500000
O O12 0.801500 0.405435 0.113966
O O13 0.603888 0.194767 0.290803
#
# Coordination Sequence:
#
# PCOD9547310 Si02
#       6
#     8   8   8   8   8   8
#     4  11  24  39  56  81 112 145 182 224 268 315
#     4   9  19  37  60  83 107 139 179 220 262 313
#     4   9  19  37  58  77 100 135 179 221 261 311
#     4   9  19  35  54  78 107 137 171 214 262 312
#     4   9  19  37  60  85 111 139 176 221 266 315
#     4  11  24  37  50  76 112 143 174 218 268 314
#
# _framework density 22.162908000000002
#
# number of rings (size 3 to 8) (size 9 to 14) (size 15 to 20)
#    0.000    2.333    0.000    4.000    0.000   10.667 
#    0.000   10.000    0.000    0.000    0.000    0.000 
#    0.000    0.000    0.000    0.000    0.000    0.000 
#
# Total GULP energy -268815.099288 kJ/mol
# GULP energy per Si atom -5600.314568 kJ/mol
# Density = 2.211246 g / cm^3
# Si number density = 22.162908 Si / 1000 Ang^3
#
#
#
# Elastic Constant Matrix: (Units=GPa)
#
#
# Indices 1 2 3 4 5 6 
#
# 1 71.7376 53.5750 73.3865 0.0000 0.0000 0.0000
# 2 53.5750 71.7373 73.3865 0.0000 0.0000 0.0000
# 3 73.3865 73.3865 203.6372 0.0000 0.0000 0.0000
# 4 0.0000 0.0000 0.0000 192.5229 0.0000 0.0000
# 5 0.0000 0.0000 0.0000 0.0000 192.5240 0.0000
# 6 0.0000 0.0000 0.0000 0.0000 0.0000 45.5318
#
#
#
# Elastic Compliance Matrix: (Units=1/GPa)
#
#
# Indices 1 2 3 4 5 6 
#
# 1 0.034433 -0.020625 -0.004976 0.000000 0.000000 0.000000
# 2 -0.020625 0.034434 -0.004976 0.000000 0.000000 0.000000
# 3 -0.004976 -0.004976 0.008497 0.000000 0.000000 0.000000
# 4 0.000000 0.000000 0.000000 0.005194 0.000000 0.000000
# 5 0.000000 0.000000 0.000000 0.000000 0.005194 0.000000
# 6 0.000000 0.000000 0.000000 0.000000 0.000000 0.021963
#
#
# Mechanical properties :
#
#
# Convention : Reuss Voigt Hill
#
# Bulk Modulus (GPa) = 61.69291 83.08980 72.39135
# Shear Modulus (GPa) = 28.36494 95.90001 62.13248
#
# Velocity S-wave (km/s) = 3.58136 6.58517 5.30050
# Velocity P-wave (km/s) = 6.70806 9.76684 8.37822
#
# Compressibility (1/GPa) = 0.01620932
#
# Stress axis : x y z
#
# Youngs Moduli (GPa) = 29.04150 29.04135 117.68286
#
# Poissons Ratio (x) = 0.59898 0.58563
# Poissons Ratio (y) = 0.59898 0.58563
# Poissons Ratio (z) = 0.14452 0.14452
#
# Static dielectric constant tensor:
#      x y z
#    x 1.797400 0.000000 0.000000 
#    y 0.000000 1.797400 0.000000 
#    z 0.000000 0.000000 1.774390 
# 
# From -- ./inp_files/3034.got.cif
#   From: 2010.05.17/outbox.cif.g08.bks.cpg/sg90_2_cif.got.tgz:3034.got - 2010.06.03 19:17:45.
