data_PCOD9547174
_publ_section_title
;
Structure prediction by ZEFSAII (Michael W. Deem and Ramdas Pophale) SiO2 
 PCOD9547174
Probable space group: P 4 21 2
;
_chemical_formula_sum "Si O2"
_cell_formula_units_Z 20
_cell_length_a 10.877638
_cell_length_b 10.877638
_cell_length_c 6.742804
_cell_angle_alpha 90.000000
_cell_angle_beta 90.000000
_cell_angle_gamma 90.000000
_cell_volume 797.828855
_symmetry_space_group_name_H-M "P 4 21 2"
_symmetry_group_IT_number 90
_symmetry_cell_setting 'tetragonal'
loop_
_space_group_symop_operation_xyz
x,y,z
1/2-y,1/2+x,z
-x,-y,z
1/2+y,1/2-x,z
1/2+x,1/2-y,-z
1/2-x,1/2+y,-z
y,x,-z
-y,-x,-z
loop_
_atom_site_type_symbol
_atom_site_label
_atom_site_fract_x
_atom_site_fract_y
_atom_site_fract_z
Si Si1 0.500000 0.000000 0.086916
Si Si2 0.000000 0.000000 0.000000
Si Si3 0.815813 0.412924 0.324487
Si Si4 0.584400 0.267915 0.214084
O O1 0.440839 0.860037 0.106996
O O2 0.878300 0.003566 0.139006
O O3 0.844861 0.555530 0.288958
O O4 0.713651 0.339860 0.205125
O O5 0.772730 0.419181 0.554405
#
# Coordination Sequence:
#
# PCOD9547174 Si02
#       4
#     2   2   8   8
#     4  12  24  52  72 110 152 208 244 330 368 456
#     4  12  32  46  64 112 150 216 256 300 380 458
#     4  10  21  45  78 115 145 191 251 322 390 452
#     4  11  25  46  75 104 158 190 262 311 379 454
#
# _framework density 25.068035999999999
#
# number of rings (size 3 to 8) (size 9 to 14) (size 15 to 20)
#    0.000    1.200    4.000    0.000    5.600    4.800 
#    0.000    0.000    0.000    0.000    0.000    0.000 
#    0.000    0.000    0.000    0.000    0.000    0.000 
#
# Total GULP energy -111372.101443 kJ/mol
# GULP energy per Si atom -5568.605072 kJ/mol
# Density = 2.501098 g / cm^3
# Si number density = 25.068036 Si / 1000 Ang^3
#
#
#
# Elastic Constant Matrix: (Units=GPa)
#
#
# Indices 1 2 3 4 5 6 
#
# 1 288.7667 57.7742 74.4119 0.0000 0.0000 0.0000
# 2 57.7742 288.7667 74.4119 0.0000 0.0000 0.0000
# 3 74.4119 74.4119 145.5856 0.0000 0.0000 0.0000
# 4 0.0000 0.0000 0.0000 19.6129 0.0000 0.0000
# 5 0.0000 0.0000 0.0000 0.0000 19.6129 0.0000
# 6 0.0000 0.0000 0.0000 0.0000 0.0000 69.3026
#
#
#
# Elastic Compliance Matrix: (Units=1/GPa)
#
#
# Indices 1 2 3 4 5 6 
#
# 1 0.004013 -0.000316 -0.001890 0.000000 0.000000 0.000000
# 2 -0.000316 0.004013 -0.001890 0.000000 0.000000 0.000000
# 3 -0.001890 -0.001890 0.008801 0.000000 0.000000 0.000000
# 4 0.000000 0.000000 0.000000 0.050987 0.000000 0.000000
# 5 0.000000 0.000000 0.000000 0.000000 0.050987 0.000000
# 6 0.000000 0.000000 0.000000 0.000000 0.000000 0.014429
#
#
# Mechanical properties :
#
#
# Convention : Reuss Voigt Hill
#
# Bulk Modulus (GPa) = 115.79303 126.25719 121.02511
# Shear Modulus (GPa) = 34.65010 56.14040 45.39525
#
# Velocity S-wave (km/s) = 3.72189 4.73749 4.26006
# Velocity P-wave (km/s) = 8.04746 8.96662 8.51945
#
# Compressibility (1/GPa) = 0.00863610
#
# Stress axis : x y z
#
# Youngs Moduli (GPa) = 249.17898 249.17898 113.62908
#
# Poissons Ratio (x) = 0.07873 0.21473
# Poissons Ratio (y) = 0.07873 0.21473
# Poissons Ratio (z) = 0.47088 0.47088
#
# Static dielectric constant tensor:
#      x y z
#    x 1.998360 0.000000 0.000000 
#    y 0.000000 1.998360 0.000000 
#    z 0.000000 0.000000 2.221910 
# 
# From -- ./inp_files/888.got.cif
#   From: 2010.05.17/outbox.cif.g08.bks.cpg/sg90_1_cif.got.tgz:888.got - 2010.06.03 19:17:45.
