data_PCOD9547592
_publ_section_title
;
Structure prediction by ZEFSAII (Michael W. Deem and Ramdas Pophale) SiO2 
 PCOD9547592
Probable space group: P 41 2 2
;
_chemical_formula_sum "Si O2"
_cell_formula_units_Z 44
_cell_length_a 20.908943
_cell_length_b 20.908943
_cell_length_c 5.160850
_cell_angle_alpha 90.000000
_cell_angle_beta 90.000000
_cell_angle_gamma 90.000000
_cell_volume 2256.240517
_symmetry_space_group_name_H-M "P 41 2 2"
_symmetry_group_IT_number 91
_symmetry_cell_setting 'tetragonal'
loop_
_space_group_symop_operation_xyz
x,y,z
-y,x,1/4+z
-x,-y,1/2+z
y,-x,3/4+z
x,-y,1/2-z
-x,y,-z
y,x,3/4-z
-y,-x,1/4-z
loop_
_atom_site_type_symbol
_atom_site_label
_atom_site_fract_x
_atom_site_fract_y
_atom_site_fract_z
Si Si1 0.820129 0.632861 0.162725
Si Si2 0.500000 0.081344 0.500000
Si Si3 0.192441 0.192441 0.375000
Si Si4 0.827786 0.500000 0.250000
Si Si5 0.898777 0.000000 0.250000
Si Si6 0.360522 0.907978 0.908240
Si Si7 0.246698 0.753303 0.625000
Si Si8 0.779427 0.943432 0.943383
O O1 0.788779 0.564180 0.211833
O O2 0.877722 0.634493 0.372543
O O3 0.770236 0.686673 0.242648
O O4 0.851776 0.639535 0.879413
O O5 0.500280 0.125940 0.751986
O O6 0.573024 0.052558 0.477361
O O7 0.234876 0.200482 0.630971
O O8 0.207196 0.121235 0.286104
O O9 0.846393 0.041429 0.411664
O O10 0.947474 0.052527 0.125000
O O11 0.289687 0.938184 0.918192
O O12 0.770096 0.000000 0.750000
#
# Coordination Sequence:
#
# PCOD9547592 Si02
#       8
#     8   4   4   4   4   8   4   8
#     4  10  18  33  53  87 114 157 186 240 281 348
#     4   8  16  32  56  83 114 158 185 228 270 350
#     4  12  26  40  62  85 114 142 185 246 302 354
#     4   8  16  28  50  77 118 152 195 218 282 338
#     4  12  32  52  70  88 114 150 202 262 332 386
#     4  10  20  36  60  85 120 150 195 229 292 347
#     4  12  20  36  58  89 116 146 191 244 294 342
#     4  12  27  43  65  88 113 151 193 248 307 376
#
# _framework density 19.501469
#
# number of rings (size 3 to 8) (size 9 to 14) (size 15 to 20)
#    0.000    1.455    3.636    1.091    8.909    0.000 
#    0.000    0.000    2.000    0.000    0.000    0.000 
#    0.000    0.000    0.000   11.455    0.000    0.000 
#
# Total GULP energy -244946.294849 kJ/mol
# GULP energy per Si atom -5566.961247 kJ/mol
# Density = 1.945708 g / cm^3
# Si number density = 19.501469 Si / 1000 Ang^3
#
#
#
# Elastic Constant Matrix: (Units=GPa)
#
#
# Indices 1 2 3 4 5 6 
#
# 1 72.0418 58.4189 -1.3231 0.0000 0.0000 0.0000
# 2 58.4189 72.0470 -1.3257 0.0000 0.0000 0.0000
# 3 -1.3231 -1.3257 73.6589 0.0000 0.0000 0.0000
# 4 0.0000 0.0000 0.0000 14.0177 0.0000 0.0000
# 5 0.0000 0.0000 0.0000 0.0000 14.0171 0.0000
# 6 0.0000 0.0000 0.0000 0.0000 0.0000 -17.6712
#
#
#
# Elastic Compliance Matrix: (Units=1/GPa)
#
#
# Indices 1 2 3 4 5 6 
#
# 1 0.040531 -0.032862 0.000137 0.000000 0.000000 0.000000
# 2 -0.032862 0.040528 0.000139 0.000000 0.000000 0.000000
# 3 0.000137 0.000139 0.013581 0.000000 0.000000 0.000000
# 4 0.000000 0.000000 0.000000 0.071338 0.000000 0.000000
# 5 0.000000 0.000000 0.000000 0.000000 0.071341 0.000000
# 6 0.000000 0.000000 0.000000 0.000000 0.000000 -0.056589
#
#
# Mechanical properties :
#
#
# Convention : Reuss Voigt Hill
#
# Bulk Modulus (GPa) = 33.93498 36.58754 35.26126
# Shear Modulus (GPa) = 19.55216 12.87124 16.21170
#
# Velocity S-wave (km/s) = 3.16982 2.57186 2.88637
# Velocity P-wave (km/s) = 5.55302 5.25561 5.40636
#
# Compressibility (1/GPa) = 0.02946812
#
# Stress axis : x y z
#
# Youngs Moduli (GPa) = 24.67234 24.67408 73.63197
#
# Poissons Ratio (x) = 0.81084 -0.01006
# Poissons Ratio (y) = 0.81078 -0.01024
# Poissons Ratio (z) = -0.00337 -0.00343
#
# Static dielectric constant tensor:
#      x y z
#    x 1.901880 0.000000 0.000000 
#    y 0.000000 1.901910 0.000000 
#    z 0.000000 0.000000 1.692370 
# 
# From -- ./inp_files/1218.got.cif
#   From: 2010.05.17/outbox.cif.g08.bks.cpg/sg91_1_cif.got.tgz:1218.got - 2010.06.03 19:20:03.
