data_PCOD9547128
_publ_section_title
;
Structure prediction by ZEFSAII (Michael W. Deem and Ramdas Pophale) SiO2 
 PCOD9547128
Probable space group: P 4 21 2
;
_chemical_formula_sum "Si O2"
_cell_formula_units_Z 60
_cell_length_a 12.091996
_cell_length_b 12.091996
_cell_length_c 19.898283
_cell_angle_alpha 90.000000
_cell_angle_beta 90.000000
_cell_angle_gamma 90.000000
_cell_volume 2909.454655
_symmetry_space_group_name_H-M "P 4 21 2"
_symmetry_group_IT_number 90
_symmetry_cell_setting 'tetragonal'
loop_
_space_group_symop_operation_xyz
x,y,z
1/2-y,1/2+x,z
-x,-y,z
1/2+y,1/2-x,z
1/2+x,1/2-y,-z
1/2-x,1/2+y,-z
y,x,-z
-y,-x,-z
loop_
_atom_site_type_symbol
_atom_site_label
_atom_site_fract_x
_atom_site_fract_y
_atom_site_fract_z
Si Si1 0.676482 0.676482 0.500000
Si Si2 0.296835 0.637340 0.204778
Si Si3 0.526181 0.817978 0.419922
Si Si4 0.612635 0.853451 0.605004
Si Si5 0.733394 0.605266 0.253958
Si Si6 0.724148 0.511552 0.728519
Si Si7 0.882724 0.940950 0.071773
Si Si8 0.032472 0.677312 0.874297
O O1 0.562174 0.708366 0.461316
O O2 0.678213 0.769594 0.557523
O O3 0.254503 0.517267 0.226372
O O4 0.197633 0.724093 0.202554
O O5 0.388967 0.677069 0.258915
O O6 0.358466 0.629752 0.134090
O O7 0.410160 0.878947 0.434945
O O8 0.523120 0.788909 0.341034
O O9 0.479733 0.850790 0.593765
O O10 0.625503 0.809041 0.680612
O O11 0.605413 0.629537 0.270662
O O12 0.797742 0.535225 0.794534
O O13 0.788999 0.033463 0.083375
O O14 0.881430 0.881430 0.000000
O O15 0.000000 0.000000 0.077877
O O16 0.913409 0.623277 0.889723
#
# Coordination Sequence:
#
# PCOD9547128 Si02
#       8
#     4   8   8   8   8   8   8   8
#     4  12  24  42  62  92 126 164 222 268 330 412
#     4  11  24  40  69 100 136 171 228 277 338 405
#     4  11  23  39  63  91 122 164 215 270 330 395
#     4  11  24  45  69  92 130 180 223 275 342 414
#     4  12  22  41  67 100 132 176 222 281 337 408
#     4  11  21  38  65  99 130 166 217 284 341 386
#     4  10  22  43  64  95 136 183 223 271 341 407
#     4  10  20  38  64  96 132 170 220 274 333 397
#
# _framework density 20.622420999999999
#
# number of rings (size 3 to 8) (size 9 to 14) (size 15 to 20)
#    0.000    1.067    2.667    6.000    0.000    2.400 
#    4.800    0.000    0.000    2.400    0.000    0.000 
#    0.000    0.000    0.000    0.000    0.000    0.000 
#
# Total GULP energy -335267.152677 kJ/mol
# GULP energy per Si atom -5587.785878 kJ/mol
# Density = 2.057548 g / cm^3
# Si number density = 20.622421 Si / 1000 Ang^3
#
#
#
# Elastic Constant Matrix: (Units=GPa)
#
#
# Indices 1 2 3 4 5 6 
#
# 1 89.4227 29.5133 16.1677 0.0000 0.0000 0.0000
# 2 29.5133 89.4227 16.1677 0.0000 0.0000 0.0000
# 3 16.1677 16.1677 93.4999 0.0000 0.0000 0.0000
# 4 0.0000 0.0000 0.0000 21.8808 0.0000 0.0000
# 5 0.0000 0.0000 0.0000 0.0000 21.8808 0.0000
# 6 0.0000 0.0000 0.0000 0.0000 0.0000 37.9494
#
#
#
# Elastic Compliance Matrix: (Units=1/GPa)
#
#
# Indices 1 2 3 4 5 6 
#
# 1 0.012757 -0.003935 -0.001526 0.000000 0.000000 0.000000
# 2 -0.003935 0.012757 -0.001526 0.000000 0.000000 0.000000
# 3 -0.001526 -0.001526 0.011223 0.000000 0.000000 0.000000
# 4 0.000000 0.000000 0.000000 0.045702 0.000000 0.000000
# 5 0.000000 0.000000 0.000000 0.000000 0.045702 0.000000
# 6 0.000000 0.000000 0.000000 0.000000 0.000000 0.026351
#
#
# Mechanical properties :
#
#
# Convention : Reuss Voigt Hill
#
# Bulk Modulus (GPa) = 43.92561 44.00473 43.96517
# Shear Modulus (GPa) = 28.40062 30.37533 29.38797
#
# Velocity S-wave (km/s) = 3.71505 3.84204 3.77908
# Velocity P-wave (km/s) = 6.30463 6.40830 6.35667
#
# Compressibility (1/GPa) = 0.02276576
#
# Stress axis : x y z
#
# Youngs Moduli (GPa) = 78.38671 78.38671 89.10436
#
# Poissons Ratio (x) = 0.30842 0.13594
# Poissons Ratio (y) = 0.30842 0.13594
# Poissons Ratio (z) = 0.11959 0.11959
#
# Static dielectric constant tensor:
#      x y z
#    x 1.741160 0.000000 0.000000 
#    y 0.000000 1.741160 0.000000 
#    z 0.000000 0.000000 1.738340 
# 
# From -- ./inp_files/2864.got.cif
#   From: 2010.05.17/outbox.cif.g08.bks.cpg/sg90_2_cif.got.tgz:2864.got - 2010.06.03 19:17:45.
