data_PCOD9547465
_publ_section_title
;
Structure prediction by ZEFSAII (Michael W. Deem and Ramdas Pophale) SiO2 
 PCOD9547465
Probable space group: P 41 2 2
;
_chemical_formula_sum "Si O2"
_cell_formula_units_Z 28
_cell_length_a 7.121989
_cell_length_b 7.121989
_cell_length_c 19.143103
_cell_angle_alpha 90.000000
_cell_angle_beta 90.000000
_cell_angle_gamma 90.000000
_cell_volume 970.990393
_symmetry_space_group_name_H-M "P 41 2 2"
_symmetry_group_IT_number 91
_symmetry_cell_setting 'tetragonal'
loop_
_space_group_symop_operation_xyz
x,y,z
-y,x,1/4+z
-x,-y,1/2+z
y,-x,3/4+z
x,-y,1/2-z
-x,y,-z
y,x,3/4-z
-y,-x,1/4-z
loop_
_atom_site_type_symbol
_atom_site_label
_atom_site_fract_x
_atom_site_fract_y
_atom_site_fract_z
Si Si1 0.362557 0.035255 0.065314
Si Si2 0.618406 0.147341 0.174056
Si Si3 0.024365 0.000000 0.750000
Si Si4 0.333597 0.518585 0.442155
O O1 0.500119 0.996030 0.129716
O O2 0.315788 0.257164 0.077698
O O3 0.169537 0.932387 0.043599
O O4 0.500000 0.019864 0.000000
O O5 0.671197 0.328803 0.125000
O O6 0.505251 0.182910 0.244684
O O7 0.829929 0.097263 0.197179
O O8 0.500000 0.496130 0.500000
O O9 0.388387 0.388387 0.375000
#
# Coordination Sequence:
#
# PCOD9547465 Si02
#       4
#     8   8   4   8
#     4  10  17  32  56  88 128 160 208 266 309 376
#     4  11  18  33  58  85 126 165 211 266 319 370
#     4  10  22  30  58 104 122 162 226 254 318 394
#     4  10  14  23  48  81 106 153 200 235 309 360
#
# _framework density 28.836537
#
# number of rings (size 3 to 8) (size 9 to 14) (size 15 to 20)
#    0.000    1.714   11.429    0.000    0.000    0.000 
#    0.000    0.000   12.571    1.714    0.000    0.000 
#    0.000    0.000    0.000    0.000    0.000    0.000 
#
# Total GULP energy -156010.428949 kJ/mol
# GULP energy per Si atom -5571.801034 kJ/mol
# Density = 2.877090 g / cm^3
# Si number density = 28.836537 Si / 1000 Ang^3
#
#
#
# Elastic Constant Matrix: (Units=GPa)
#
#
# Indices 1 2 3 4 5 6 
#
# 1 87.2703 -1.6445 19.4554 0.0000 0.0000 0.0000
# 2 -1.6445 87.2706 19.4552 0.0000 0.0000 0.0000
# 3 19.4554 19.4552 235.5546 0.0000 0.0000 0.0000
# 4 0.0000 0.0000 0.0000 48.2529 0.0000 0.0000
# 5 0.0000 0.0000 0.0000 0.0000 48.2531 0.0000
# 6 0.0000 0.0000 0.0000 0.0000 0.0000 -7.6273
#
#
#
# Elastic Compliance Matrix: (Units=1/GPa)
#
#
# Indices 1 2 3 4 5 6 
#
# 1 0.011690 0.000444 -0.001002 0.000000 0.000000 0.000000
# 2 0.000444 0.011690 -0.001002 0.000000 0.000000 0.000000
# 3 -0.001002 -0.001002 0.004411 0.000000 0.000000 0.000000
# 4 0.000000 0.000000 0.000000 0.020724 0.000000 0.000000
# 5 0.000000 0.000000 0.000000 0.000000 0.020724 0.000000
# 6 0.000000 0.000000 0.000000 0.000000 0.000000 -0.131107
#
#
# Mechanical properties :
#
#
# Convention : Reuss Voigt Hill
#
# Bulk Modulus (GPa) = 40.53457 53.84752 47.19105
# Shear Modulus (GPa) = -98.96534 42.63102 -28.16716
#
# Velocity S-wave (km/s) = -5.86463 3.84913 -3.12875
# Velocity P-wave (km/s) = 5.63661 6.20228 1.82988
#
# Compressibility (1/GPa) = 0.02467030
#
# Stress axis : x y z
#
# Youngs Moduli (GPa) = 85.54000 85.54028 226.71359
#
# Poissons Ratio (x) = -0.03795 0.22721
# Poissons Ratio (y) = -0.03795 0.22721
# Poissons Ratio (z) = 0.08573 0.08573
#
# Static dielectric constant tensor:
#      x y z
#    x 2.616110 0.000000 0.000000 
#    y 0.000000 2.616100 0.000000 
#    z 0.000000 0.000000 2.143920 
# 
# From -- ./inp_files/5904.got.cif
#   From: 2010.05.17/outbox.cif.g08.bks.cpg/sg91_3_cif.got.tgz:5904.got - 2010.06.03 19:20:03.
