data_PCOD9547656
_publ_section_title
;
Structure prediction by ZEFSAII (Michael W. Deem and Ramdas Pophale) SiO2 
 PCOD9547656
Probable space group: P 41 2 2
;
_chemical_formula_sum "Si O2"
_cell_formula_units_Z 40
_cell_length_a 11.829941
_cell_length_b 11.829941
_cell_length_c 12.351617
_cell_angle_alpha 90.000000
_cell_angle_beta 90.000000
_cell_angle_gamma 90.000000
_cell_volume 1728.577970
_symmetry_space_group_name_H-M "P 41 2 2"
_symmetry_group_IT_number 91
_symmetry_cell_setting 'tetragonal'
loop_
_space_group_symop_operation_xyz
x,y,z
-y,x,1/4+z
-x,-y,1/2+z
y,-x,3/4+z
x,-y,1/2-z
-x,y,-z
y,x,3/4-z
-y,-x,1/4-z
loop_
_atom_site_type_symbol
_atom_site_label
_atom_site_fract_x
_atom_site_fract_y
_atom_site_fract_z
Si Si1 0.187340 0.877232 0.294206
Si Si2 0.361879 0.293013 0.253717
Si Si3 0.574062 0.793246 0.170362
Si Si4 0.247887 0.030687 0.985427
Si Si5 0.000000 0.729206 0.500000
Si Si6 0.500000 0.964162 0.000000
O O1 0.307888 0.830886 0.259282
O O2 0.192652 0.890918 0.424432
O O3 0.098523 0.789901 0.243753
O O4 0.160456 0.000000 0.250000
O O5 0.339286 0.339286 0.375000
O O6 0.496558 0.276455 0.246649
O O7 0.294491 0.365130 0.162558
O O8 0.656119 0.887300 0.221796
O O9 0.495452 0.877254 0.099780
O O10 0.211371 0.037218 0.860657
O O11 0.384248 0.034660 0.992080
#
# Coordination Sequence:
#
# PCOD9547656 Si02
#       6
#     8   8   8   8   4   4
#     4  12  24  42  69 106 140 184 242 297 361 445
#     4  12  22  42  70 107 142 186 240 304 367 443
#     4  11  22  40  71 102 142 183 238 299 371 432
#     4  11  25  44  66 101 142 186 238 297 365 430
#     4  10  24  46  64 102 140 188 240 304 358 428
#     4  10  18  42  66 100 132 178 236 306 344 424
#
# _framework density 23.140408999999998
#
# number of rings (size 3 to 8) (size 9 to 14) (size 15 to 20)
#    0.000    0.800    6.000    3.000    7.000    0.800 
#    5.400    0.000    0.000   12.000    0.000    0.000 
#    0.000    0.000    0.000    0.000    0.000    0.000 
#
# Total GULP energy -223265.616317 kJ/mol
# GULP energy per Si atom -5581.640408 kJ/mol
# Density = 2.308774 g / cm^3
# Si number density = 23.140409 Si / 1000 Ang^3
#
#
#
# Elastic Constant Matrix: (Units=GPa)
#
#
# Indices 1 2 3 4 5 6 
#
# 1 82.8427 48.0727 32.1931 0.0000 0.0000 0.0000
# 2 48.0727 82.8427 32.1931 0.0000 0.0000 0.0000
# 3 32.1931 32.1931 94.4670 0.0000 0.0000 0.0000
# 4 0.0000 0.0000 0.0000 33.8457 0.0000 0.0000
# 5 0.0000 0.0000 0.0000 0.0000 33.8457 0.0000
# 6 0.0000 0.0000 0.0000 0.0000 0.0000 14.4892
#
#
#
# Elastic Compliance Matrix: (Units=1/GPa)
#
#
# Indices 1 2 3 4 5 6 
#
# 1 0.018968 -0.009792 -0.003127 0.000000 0.000000 0.000000
# 2 -0.009792 0.018968 -0.003127 0.000000 0.000000 0.000000
# 3 -0.003127 -0.003127 0.012717 0.000000 0.000000 0.000000
# 4 0.000000 0.000000 0.000000 0.029546 0.000000 0.000000
# 5 0.000000 0.000000 0.000000 0.000000 0.029546 0.000000
# 6 0.000000 0.000000 0.000000 0.000000 0.000000 0.069017
#
#
# Mechanical properties :
#
#
# Convention : Reuss Voigt Hill
#
# Bulk Modulus (GPa) = 53.87562 53.89668 53.88615
# Shear Modulus (GPa) = 23.03694 26.28236 24.65965
#
# Velocity S-wave (km/s) = 3.15862 3.37379 3.26798
# Velocity P-wave (km/s) = 6.05270 6.20631 6.12998
#
# Compressibility (1/GPa) = 0.01856127
#
# Stress axis : x y z
#
# Youngs Moduli (GPa) = 52.71901 52.71901 78.63400
#
# Poissons Ratio (x) = 0.51622 0.24591
# Poissons Ratio (y) = 0.51622 0.24591
# Poissons Ratio (z) = 0.16487 0.16487
#
# Static dielectric constant tensor:
#      x y z
#    x 1.875490 0.000000 0.000000 
#    y 0.000000 1.875490 0.000000 
#    z 0.000000 0.000000 1.945330 
# 
# From -- ./inp_files/20674.got.cif
#   From: 2010.05.17/outbox.cif.g08.bks.cpg/sg91_11_cif.got.tgz:20674.got - 2010.06.03 19:20:03.
