data_PCOD9547097
_publ_section_title
;
Structure prediction by ZEFSAII (Michael W. Deem and Ramdas Pophale) SiO2 
 PCOD9547097
Probable space group: P 4 21 2
;
_chemical_formula_sum "Si O2"
_cell_formula_units_Z 40
_cell_length_a 17.108591
_cell_length_b 17.108591
_cell_length_c 7.569539
_cell_angle_alpha 90.000000
_cell_angle_beta 90.000000
_cell_angle_gamma 90.000000
_cell_volume 2215.633481
_symmetry_space_group_name_H-M "P 4 21 2"
_symmetry_group_IT_number 90
_symmetry_cell_setting 'tetragonal'
loop_
_space_group_symop_operation_xyz
x,y,z
1/2-y,1/2+x,z
-x,-y,z
1/2+y,1/2-x,z
1/2+x,1/2-y,-z
1/2-x,1/2+y,-z
y,x,-z
-y,-x,-z
loop_
_atom_site_type_symbol
_atom_site_label
_atom_site_fract_x
_atom_site_fract_y
_atom_site_fract_z
Si Si1 0.031355 0.624142 0.474361
Si Si2 0.244464 0.645110 0.897950
Si Si3 0.697717 0.683770 0.709870
Si Si4 0.320764 0.900636 0.886048
Si Si5 0.025127 0.748431 0.773580
O O1 0.091413 0.554554 0.515066
O O2 0.048989 0.642352 0.270401
O O3 0.041056 0.698544 0.597611
O O4 0.211143 0.715702 0.775376
O O5 0.266279 0.566277 0.795227
O O6 0.317966 0.682035 0.000000
O O7 0.174481 0.631761 0.040193
O O8 0.692162 0.692162 0.500000
O O9 0.637542 0.741324 0.807219
O O10 0.686647 0.593309 0.765602
O O11 0.302629 0.952853 0.055290
#
# Coordination Sequence:
#
# PCOD9547097 Si02
#       5
#     8   8   8   8   8
#     4  11  22  32  49  82 118 150 182 224 284 348
#     4   9  20  36  57  82 113 149 198 243 288 345
#     4  10  19  36  57  82 109 147 197 238 281 357
#     4  10  20  36  55  77 111 151 194 228 276 357
#     4  11  20  35  56  79 110 147 188 239 293 331
#
# _framework density 18.053528
#
# number of rings (size 3 to 8) (size 9 to 14) (size 15 to 20)
#    0.000    1.800    2.000    5.400    0.000    0.000 
#    0.000    2.000    0.000    2.400    0.000    1.400 
#    0.000    0.000    0.000    0.000    0.000    0.000 
#
# Total GULP energy -222972.471535 kJ/mol
# GULP energy per Si atom -5574.311788 kJ/mol
# Density = 1.801244 g / cm^3
# Si number density = 18.053528 Si / 1000 Ang^3
#
#
#
# Elastic Constant Matrix: (Units=GPa)
#
#
# Indices 1 2 3 4 5 6 
#
# 1 59.9688 14.4381 0.6004 0.0000 0.0000 0.0000
# 2 14.4381 59.9718 0.6008 0.0000 0.0000 0.0000
# 3 0.6004 0.6008 68.4421 0.0000 0.0000 0.0000
# 4 0.0000 0.0000 0.0000 27.1712 0.0000 0.0000
# 5 0.0000 0.0000 0.0000 0.0000 27.1712 0.0000
# 6 0.0000 0.0000 0.0000 0.0000 0.0000 -9.0682
#
#
#
# Elastic Compliance Matrix: (Units=1/GPa)
#
#
# Indices 1 2 3 4 5 6 
#
# 1 0.017702 -0.004261 -0.000118 0.000000 0.000000 0.000000
# 2 -0.004261 0.017701 -0.000118 0.000000 0.000000 0.000000
# 3 -0.000118 -0.000118 0.014613 0.000000 0.000000 0.000000
# 4 0.000000 0.000000 0.000000 0.036804 0.000000 0.000000
# 5 0.000000 0.000000 0.000000 0.000000 0.036804 0.000000
# 6 0.000000 0.000000 0.000000 0.000000 0.000000 -0.110275
#
#
# Mechanical properties :
#
#
# Convention : Reuss Voigt Hill
#
# Bulk Modulus (GPa) = 24.37619 24.40681 24.39150
# Shear Modulus (GPa) = 138.82605 20.57106 79.69855
#
# Velocity S-wave (km/s) = 8.77860 3.37923 6.65143
# Velocity P-wave (km/s) = 10.78347 5.36415 8.51638
#
# Compressibility (1/GPa) = 0.04102364
#
# Stress axis : x y z
#
# Youngs Moduli (GPa) = 56.48983 56.49261 68.43243
#
# Poissons Ratio (x) = 0.24069 0.00807
# Poissons Ratio (y) = 0.24068 0.00808
# Poissons Ratio (z) = 0.00666 0.00667
#
# Static dielectric constant tensor:
#      x y z
#    x 1.643460 0.000000 0.000000 
#    y 0.000000 1.643460 0.000000 
#    z 0.000000 0.000000 1.625410 
# 
# From -- ./inp_files/1443.got.cif
#   From: 2010.05.17/outbox.cif.g08.bks.cpg/sg90_1_cif.got.tgz:1443.got - 2010.06.03 19:17:45.
