data_PCOD9547847
_publ_section_title
;
Structure prediction by ZEFSAII (Michael W. Deem and Ramdas Pophale) SiO2 
 PCOD9547847
Probable space group: P 41 2 2
;
_chemical_formula_sum "Si O2"
_cell_formula_units_Z 40
_cell_length_a 14.477327
_cell_length_b 14.477327
_cell_length_c 8.420792
_cell_angle_alpha 90.000000
_cell_angle_beta 90.000000
_cell_angle_gamma 90.000000
_cell_volume 1764.939033
_symmetry_space_group_name_H-M "P 41 2 2"
_symmetry_group_IT_number 91
_symmetry_cell_setting 'tetragonal'
loop_
_space_group_symop_operation_xyz
x,y,z
-y,x,1/4+z
-x,-y,1/2+z
y,-x,3/4+z
x,-y,1/2-z
-x,y,-z
y,x,3/4-z
-y,-x,1/4-z
loop_
_atom_site_type_symbol
_atom_site_label
_atom_site_fract_x
_atom_site_fract_y
_atom_site_fract_z
Si Si1 0.448205 0.717413 0.838580
Si Si2 0.409806 0.066593 0.597894
Si Si3 0.500000 0.242773 0.000000
Si Si4 0.886251 0.000000 0.250000
Si Si5 0.303413 0.759130 0.459626
Si Si6 0.786921 0.870359 0.012286
O O1 0.435444 0.829163 0.846190
O O2 0.491208 0.702296 0.665577
O O3 0.347291 0.674573 0.827962
O O4 0.500000 0.689975 0.000000
O O5 0.500000 0.033665 0.500000
O O6 0.316487 0.086900 0.492863
O O7 0.392937 0.000000 0.750000
O O8 0.401172 0.190556 0.018388
O O9 0.824443 0.072332 0.342000
O O10 0.947790 0.052211 0.125000
O O11 0.246675 0.753326 0.625000
O O12 0.236684 0.786363 0.317917
O O13 0.863698 0.863698 0.875000
#
# Coordination Sequence:
#
# PCOD9547847 Si02
#       6
#     8   8   4   4   8   8
#     4   9  20  35  58  87 125 176 224 278 345 413
#     4  10  22  42  63 102 144 182 230 298 363 441
#     4  10  20  34  62  88 126 176 222 280 350 416
#     4  12  26  50  76 100 142 184 242 312 374 442
#     4   9  20  38  61  93 132 176 231 287 350 422
#     4  11  24  44  73 106 139 191 244 298 372 446
#
# _framework density 22.663672999999999
#
# number of rings (size 3 to 8) (size 9 to 14) (size 15 to 20)
#    0.000    2.000    1.000    1.200    9.800    0.000 
#    3.600    0.000   19.800    0.000    0.000    0.000 
#    0.000    0.000    0.000    0.000    0.000    0.000 
#
# Total GULP energy -222948.340373 kJ/mol
# GULP energy per Si atom -5573.708509 kJ/mol
# Density = 2.261209 g / cm^3
# Si number density = 22.663673 Si / 1000 Ang^3
#
#
#
# Elastic Constant Matrix: (Units=GPa)
#
#
# Indices 1 2 3 4 5 6 
#
# 1 69.4716 23.8908 22.0644 0.0000 0.0000 0.0000
# 2 23.8908 69.4700 22.0655 0.0000 0.0000 0.0000
# 3 22.0644 22.0655 106.3927 0.0000 0.0000 0.0000
# 4 0.0000 0.0000 0.0000 40.6891 0.0000 0.0000
# 5 0.0000 0.0000 0.0000 0.0000 40.6881 0.0000
# 6 0.0000 0.0000 0.0000 0.0000 0.0000 18.5907
#
#
#
# Elastic Compliance Matrix: (Units=1/GPa)
#
#
# Indices 1 2 3 4 5 6 
#
# 1 0.016907 -0.005032 -0.002463 0.000000 0.000000 0.000000
# 2 -0.005032 0.016908 -0.002463 0.000000 0.000000 0.000000
# 3 -0.002463 -0.002463 0.010421 0.000000 0.000000 0.000000
# 4 0.000000 0.000000 0.000000 0.024577 0.000000 0.000000
# 5 0.000000 0.000000 0.000000 0.000000 0.024577 0.000000
# 6 0.000000 0.000000 0.000000 0.000000 0.000000 0.053790
#
#
# Mechanical properties :
#
#
# Convention : Reuss Voigt Hill
#
# Bulk Modulus (GPa) = 41.11882 42.37506 41.74694
# Shear Modulus (GPa) = 28.53854 31.81446 30.17650
#
# Velocity S-wave (km/s) = 3.55240 3.75075 3.65292
# Velocity P-wave (km/s) = 5.91680 6.12335 6.02096
#
# Compressibility (1/GPa) = 0.02431977
#
# Stress axis : x y z
#
# Youngs Moduli (GPa) = 59.14696 59.14506 95.96308
#
# Poissons Ratio (x) = 0.29763 0.23632
# Poissons Ratio (y) = 0.29764 0.23636
# Poissons Ratio (z) = 0.14566 0.14567
#
# Static dielectric constant tensor:
#      x y z
#    x 1.884140 0.000000 0.000000 
#    y 0.000000 1.884140 0.000000 
#    z 0.000000 0.000000 2.200790 
# 
# From -- ./inp_files/19448.got.cif
#   From: 2010.05.17/outbox.cif.g08.bks.cpg/sg91_10_cif.got.tgz:19448.got - 2010.06.03 19:20:03.
