data_PCOD9547838
_publ_section_title
;
Structure prediction by ZEFSAII (Michael W. Deem and Ramdas Pophale) SiO2 
 PCOD9547838
Probable space group: P 41 2 2
;
_chemical_formula_sum "Si O2"
_cell_formula_units_Z 44
_cell_length_a 11.370220
_cell_length_b 11.370220
_cell_length_c 19.456275
_cell_angle_alpha 90.000000
_cell_angle_beta 90.000000
_cell_angle_gamma 90.000000
_cell_volume 2515.344254
_symmetry_space_group_name_H-M "P 41 2 2"
_symmetry_group_IT_number 91
_symmetry_cell_setting 'tetragonal'
loop_
_space_group_symop_operation_xyz
x,y,z
-y,x,1/4+z
-x,-y,1/2+z
y,-x,3/4+z
x,-y,1/2-z
-x,y,-z
y,x,3/4-z
-y,-x,1/4-z
loop_
_atom_site_type_symbol
_atom_site_label
_atom_site_fract_x
_atom_site_fract_y
_atom_site_fract_z
Si Si1 0.218014 0.242638 0.294934
Si Si2 0.000000 0.342047 0.500000
Si Si3 0.872560 0.313121 0.130423
Si Si4 0.945850 0.216104 0.272909
Si Si5 0.000000 0.214737 0.000000
Si Si6 0.500000 0.838326 0.000000
Si Si7 0.444732 0.953517 0.397110
O O1 0.256324 0.256324 0.375000
O O2 0.275751 0.126238 0.260828
O O3 0.226595 0.371742 0.256753
O O4 0.080179 0.208439 0.295952
O O5 0.985148 0.413756 0.430253
O O6 0.747396 0.252605 0.125000
O O7 0.939291 0.246237 0.192182
O O8 0.864785 0.448207 0.148545
O O9 0.941331 0.291097 0.059736
O O10 0.869055 0.100175 0.282769
O O11 0.903645 0.330561 0.314448
O O12 0.508519 0.928969 0.935784
#
# Coordination Sequence:
#
# PCOD9547838 Si02
#       7
#     8   4   8   8   4   4   8
#     4  11  21  38  60  92 126 165 213 269 320 391
#     4  12  24  34  64 100 116 159 229 266 306 392
#     4  10  20  36  55  80 117 157 203 243 310 383
#     4  10  20  34  55  78 124 160 186 249 330 374
#     4  10  22  32  50  90 118 151 193 262 314 376
#     4  10  20  40  62  80 134 178 200 256 346 390
#     4  11  20  38  57  83 120 165 209 250 317 387
#
# _framework density 17.492635
#
# number of rings (size 3 to 8) (size 9 to 14) (size 15 to 20)
#    0.000    1.455    7.273    1.091    2.545    2.182 
#    0.000    0.000    0.000    1.091    0.000    0.000 
#    0.000    0.000    0.000    0.000    0.000    0.000 
#
# Total GULP energy -244991.702037 kJ/mol
# GULP energy per Si atom -5567.993228 kJ/mol
# Density = 1.745282 g / cm^3
# Si number density = 17.492635 Si / 1000 Ang^3
#
#
#
# Elastic Constant Matrix: (Units=GPa)
#
#
# Indices 1 2 3 4 5 6 
#
# 1 98.2358 37.0152 26.4314 0.0000 0.0000 0.0000
# 2 37.0152 98.2347 26.4299 0.0000 0.0000 0.0000
# 3 26.4314 26.4299 94.8981 0.0000 0.0000 0.0000
# 4 0.0000 0.0000 0.0000 22.3898 0.0000 0.0000
# 5 0.0000 0.0000 0.0000 0.0000 22.3908 0.0000
# 6 0.0000 0.0000 0.0000 0.0000 0.0000 -3.1489
#
#
#
# Elastic Compliance Matrix: (Units=1/GPa)
#
#
# Indices 1 2 3 4 5 6 
#
# 1 0.012316 -0.004019 -0.002311 0.000000 0.000000 0.000000
# 2 -0.004019 0.012316 -0.002311 0.000000 0.000000 0.000000
# 3 -0.002311 -0.002311 0.011825 0.000000 0.000000 0.000000
# 4 0.000000 0.000000 0.000000 0.044663 0.000000 0.000000
# 5 0.000000 0.000000 0.000000 0.000000 0.044661 0.000000
# 6 0.000000 0.000000 0.000000 0.000000 0.000000 -0.317571
#
#
# Mechanical properties :
#
#
# Convention : Reuss Voigt Hill
#
# Bulk Modulus (GPa) = 52.15047 52.34685 52.24866
# Shear Modulus (GPa) = -29.74109 21.75914 -3.99098
#
# Velocity S-wave (km/s) = -4.12783 3.53073 -1.51211
# Velocity P-wave (km/s) = 2.67561 6.82726 5.18509
#
# Compressibility (1/GPa) = 0.01917528
#
# Stress axis : x y z
#
# Youngs Moduli (GPa) = 81.19745 81.19724 84.56794
#
# Poissons Ratio (x) = 0.32632 0.19543
# Poissons Ratio (y) = 0.32632 0.19541
# Poissons Ratio (z) = 0.18764 0.18762
#
# Static dielectric constant tensor:
#      x y z
#    x 1.635250 0.000000 0.000000 
#    y 0.000000 1.635250 0.000000 
#    z 0.000000 0.000000 1.610330 
# 
# From -- ./inp_files/6286.got.cif
#   From: 2010.05.17/outbox.cif.g08.bks.cpg/sg91_4_cif.got.tgz:6286.got - 2010.06.03 19:20:03.
