data_PCOD9547499
_publ_section_title
;
Structure prediction by ZEFSAII (Michael W. Deem and Ramdas Pophale) SiO2 
 PCOD9547499
Probable space group: P 41 2 2
;
_chemical_formula_sum "Si O2"
_cell_formula_units_Z 64
_cell_length_a 11.131864
_cell_length_b 11.131864
_cell_length_c 25.502368
_cell_angle_alpha 90.000000
_cell_angle_beta 90.000000
_cell_angle_gamma 90.000000
_cell_volume 3160.212540
_symmetry_space_group_name_H-M "P 41 2 2"
_symmetry_group_IT_number 91
_symmetry_cell_setting 'tetragonal'
loop_
_space_group_symop_operation_xyz
x,y,z
-y,x,1/4+z
-x,-y,1/2+z
y,-x,3/4+z
x,-y,1/2-z
-x,y,-z
y,x,3/4-z
-y,-x,1/4-z
loop_
_atom_site_type_symbol
_atom_site_label
_atom_site_fract_x
_atom_site_fract_y
_atom_site_fract_z
Si Si1 0.692904 0.601904 0.634475
Si Si2 0.876383 0.951932 0.196510
Si Si3 0.577686 0.466672 0.546821
Si Si4 0.193943 0.317692 0.460877
Si Si5 0.150964 0.924063 0.917979
Si Si6 0.552617 0.079025 0.612731
Si Si7 0.130117 0.650597 0.924696
Si Si8 0.051174 0.256892 0.275230
O O1 0.654156 0.569568 0.575342
O O2 0.605887 0.514454 0.666989
O O3 0.830424 0.559334 0.642676
O O4 0.661311 0.735346 0.652076
O O5 0.807053 0.946480 0.141585
O O6 0.937948 0.823006 0.207012
O O7 0.815820 0.000000 0.250000
O O8 0.983143 0.047046 0.184823
O O9 0.500000 0.518146 0.500000
O O10 0.670488 0.362963 0.530264
O O11 0.152672 0.364936 0.404635
O O12 0.129882 0.369810 0.512740
O O13 0.188600 0.174813 0.460745
O O14 0.092282 0.791050 0.919182
O O15 0.252885 0.942346 0.962128
O O16 0.619862 0.058469 0.557473
O O17 0.556530 0.950366 0.642452
#
# Coordination Sequence:
#
# PCOD9547499 Si02
#       8
#     8   8   8   8   8   8   8   8
#     4  10  22  34  56  90 113 155 202 241 314 374
#     4   9  16  28  44  70 104 146 195 228 276 348
#     4  10  18  36  58  82 117 143 190 259 308 368
#     4  10  19  29  52  83 117 153 184 235 315 377
#     4   9  18  27  44  74 105 148 188 229 282 359
#     4  11  20  32  51  82 123 154 193 251 302 372
#     4  11  20  34  52  81 121 155 196 244 312 376
#     4  10  17  26  44  75 114 143 174 227 294 357
#
# _framework density 20.251801
#
# number of rings (size 3 to 8) (size 9 to 14) (size 15 to 20)
#    0.000    2.000    3.750    1.500    1.750    2.000 
#    0.000    0.000    0.000    6.750    0.000    1.750 
#    0.000    0.000    0.000    0.000    0.000    0.000 
#
# Total GULP energy -356598.162617 kJ/mol
# GULP energy per Si atom -5571.846291 kJ/mol
# Density = 2.020571 g / cm^3
# Si number density = 20.251801 Si / 1000 Ang^3
#
#
#
# Elastic Constant Matrix: (Units=GPa)
#
#
# Indices 1 2 3 4 5 6 
#
# 1 61.9164 9.1766 8.5208 0.0000 0.0000 0.0000
# 2 9.1766 61.9164 8.5208 0.0000 0.0000 0.0000
# 3 8.5208 8.5208 107.7573 0.0000 0.0000 0.0000
# 4 0.0000 0.0000 0.0000 20.8318 0.0000 0.0000
# 5 0.0000 0.0000 0.0000 0.0000 20.8318 0.0000
# 6 0.0000 0.0000 0.0000 0.0000 0.0000 10.2065
#
#
#
# Elastic Compliance Matrix: (Units=1/GPa)
#
#
# Indices 1 2 3 4 5 6 
#
# 1 0.016649 -0.002312 -0.001134 0.000000 0.000000 0.000000
# 2 -0.002312 0.016649 -0.001134 0.000000 0.000000 0.000000
# 3 -0.001134 -0.001134 0.009459 0.000000 0.000000 0.000000
# 4 0.000000 0.000000 0.000000 0.048003 0.000000 0.000000
# 5 0.000000 0.000000 0.000000 0.000000 0.048003 0.000000
# 6 0.000000 0.000000 0.000000 0.000000 0.000000 0.097977
#
#
# Mechanical properties :
#
#
# Convention : Reuss Voigt Hill
#
# Bulk Modulus (GPa) = 29.76179 31.55849 30.66014
# Shear Modulus (GPa) = 19.44765 24.06549 21.75657
#
# Velocity S-wave (km/s) = 3.10222 3.45093 3.28121
# Velocity P-wave (km/s) = 5.24971 5.61208 5.43392
#
# Compressibility (1/GPa) = 0.03360012
#
# Stress axis : x y z
#
# Youngs Moduli (GPa) = 60.06213 60.06213 105.71479
#
# Poissons Ratio (x) = 0.13884 0.11985
# Poissons Ratio (y) = 0.13884 0.11985
# Poissons Ratio (z) = 0.06810 0.06810
#
# Static dielectric constant tensor:
#      x y z
#    x 1.724680 0.000000 0.000000 
#    y 0.000000 1.724680 0.000000 
#    z 0.000000 0.000000 1.803400 
# 
# From -- ./inp_files/7516.got.cif
#   From: 2010.05.17/outbox.cif.g08.bks.cpg/sg91_4_cif.got.tgz:7516.got - 2010.06.03 19:20:03.
