data_PCOD9547437
_publ_section_title
;
Structure prediction by ZEFSAII (Michael W. Deem and Ramdas Pophale) SiO2 
 PCOD9547437
Probable space group: P 4 21 2
;
_chemical_formula_sum "Si O2"
_cell_formula_units_Z 42
_cell_length_a 8.550357
_cell_length_b 8.550357
_cell_length_c 26.453576
_cell_angle_alpha 90.000000
_cell_angle_beta 90.000000
_cell_angle_gamma 90.000000
_cell_volume 1933.984034
_symmetry_space_group_name_H-M "P 4 21 2"
_symmetry_group_IT_number 90
_symmetry_cell_setting 'tetragonal'
loop_
_space_group_symop_operation_xyz
x,y,z
1/2-y,1/2+x,z
-x,-y,z
1/2+y,1/2-x,z
1/2+x,1/2-y,-z
1/2-x,1/2+y,-z
y,x,-z
-y,-x,-z
loop_
_atom_site_type_symbol
_atom_site_label
_atom_site_fract_x
_atom_site_fract_y
_atom_site_fract_z
Si Si1 0.107675 0.149881 0.846247
Si Si2 0.074301 0.247157 0.656394
Si Si3 0.282684 0.150385 0.051603
Si Si4 0.000000 0.500000 0.829514
Si Si5 0.577178 0.253154 0.456722
Si Si6 0.582517 0.243904 0.739623
O O1 0.199202 0.191886 0.897812
O O2 0.207650 0.105772 0.797440
O O3 0.010435 0.306643 0.831845
O O4 0.000000 0.000000 0.857041
O O5 0.185297 0.400005 0.660252
O O6 0.096951 0.180594 0.599980
O O7 0.121261 0.135233 0.701592
O O8 0.461496 0.208471 0.053444
O O9 0.205187 0.205187 0.000000
O O10 0.401178 0.187354 0.461073
O O11 0.628726 0.371275 0.500000
O O12 0.406417 0.190885 0.730041
#
# Coordination Sequence:
#
# PCOD9547437 Si02
#       6
#     8   8   8   2   8   8
#     4  12  26  45  74 104 136 191 239 287 355 422
#     4   9  21  39  64  91 122 169 225 274 336 419
#     4  11  26  46  70 106 143 184 236 289 350 423
#     4  12  24  48  72 104 148 176 248 292 336 442
#     4   9  19  37  58  88 124 166 217 271 329 400
#     4  11  27  44  61  96 136 169 225 289 353 423
#
# _framework density 21.716828
#
# number of rings (size 3 to 8) (size 9 to 14) (size 15 to 20)
#    0.000    1.524    1.905    2.286    8.000    1.905 
#    0.000    7.619    0.000    0.000    0.000    0.000 
#    0.000    0.000    0.000    0.000    0.000    0.000 
#
# Total GULP energy -234477.221373 kJ/mol
# GULP energy per Si atom -5582.790985 kJ/mol
# Density = 2.166740 g / cm^3
# Si number density = 21.716828 Si / 1000 Ang^3
#
#
#
# Elastic Constant Matrix: (Units=GPa)
#
#
# Indices 1 2 3 4 5 6 
#
# 1 54.7183 28.0932 30.5350 0.0000 0.0000 0.0000
# 2 28.0932 54.7180 30.5346 0.0000 0.0000 0.0000
# 3 30.5350 30.5346 143.5120 0.0000 0.0000 0.0000
# 4 0.0000 0.0000 0.0000 46.6422 0.0000 0.0000
# 5 0.0000 0.0000 0.0000 0.0000 46.6420 0.0000
# 6 0.0000 0.0000 0.0000 0.0000 0.0000 27.8694
#
#
#
# Elastic Compliance Matrix: (Units=1/GPa)
#
#
# Indices 1 2 3 4 5 6 
#
# 1 0.025941 -0.011618 -0.003048 0.000000 0.000000 0.000000
# 2 -0.011618 0.025941 -0.003047 0.000000 0.000000 0.000000
# 3 -0.003048 -0.003047 0.008265 0.000000 0.000000 0.000000
# 4 0.000000 0.000000 0.000000 0.021440 0.000000 0.000000
# 5 0.000000 0.000000 0.000000 0.000000 0.021440 0.000000
# 6 0.000000 0.000000 0.000000 0.000000 0.000000 0.035882
#
#
# Mechanical properties :
#
#
# Convention : Reuss Voigt Hill
#
# Bulk Modulus (GPa) = 40.45149 47.91932 44.18541
# Shear Modulus (GPa) = 27.38617 35.14976 31.26796
#
# Velocity S-wave (km/s) = 3.55499 4.02748 3.79859
# Velocity P-wave (km/s) = 5.95968 6.61369 6.29519
#
# Compressibility (1/GPa) = 0.02472097
#
# Stress axis : x y z
#
# Youngs Moduli (GPa) = 38.54927 38.54916 120.99407
#
# Poissons Ratio (x) = 0.44786 0.36873
# Poissons Ratio (y) = 0.44786 0.36872
# Poissons Ratio (z) = 0.11748 0.11748
#
# Static dielectric constant tensor:
#      x y z
#    x 1.784990 0.000000 0.000000 
#    y 0.000000 1.784990 0.000000 
#    z 0.000000 0.000000 1.791230 
# 
# From -- ./inp_files/2990.got.cif
#   From: 2010.05.17/outbox.cif.g08.bks.cpg/sg90_2_cif.got.tgz:2990.got - 2010.06.03 19:17:45.
