data_PCOD9547151
_publ_section_title
;
Structure prediction by ZEFSAII (Michael W. Deem and Ramdas Pophale) SiO2 
 PCOD9547151
Probable space group: P 4 21 2
;
_chemical_formula_sum "Si O2"
_cell_formula_units_Z 54
_cell_length_a 14.602523
_cell_length_b 14.602523
_cell_length_c 12.209507
_cell_angle_alpha 90.000000
_cell_angle_beta 90.000000
_cell_angle_gamma 90.000000
_cell_volume 2603.478084
_symmetry_space_group_name_H-M "P 4 21 2"
_symmetry_group_IT_number 90
_symmetry_cell_setting 'tetragonal'
loop_
_space_group_symop_operation_xyz
x,y,z
1/2-y,1/2+x,z
-x,-y,z
1/2+y,1/2-x,z
1/2+x,1/2-y,-z
1/2-x,1/2+y,-z
y,x,-z
-y,-x,-z
loop_
_atom_site_type_symbol
_atom_site_label
_atom_site_fract_x
_atom_site_fract_y
_atom_site_fract_z
Si Si1 0.300843 0.320504 0.755728
Si Si2 0.854434 0.452326 0.969880
Si Si3 0.999499 0.891233 0.300633
Si Si4 0.947768 0.822717 0.065824
Si Si5 0.682319 0.319771 0.623815
Si Si6 0.348506 0.348506 0.000000
Si Si7 0.517536 0.208432 0.271785
Si Si8 0.000000 0.500000 0.659983
O O1 0.400070 0.346166 0.704696
O O2 0.253541 0.232516 0.701837
O O3 0.242697 0.413255 0.737408
O O4 0.312017 0.308061 0.886658
O O5 0.889466 0.556616 0.973578
O O6 0.806429 0.442872 0.851505
O O7 0.785681 0.433742 0.068875
O O8 0.961017 0.876972 0.177486
O O9 0.927168 0.833398 0.370989
O O10 0.000000 0.000000 0.326984
O O11 0.042389 0.834079 0.999177
O O12 0.865918 0.865918 0.000000
O O13 0.705691 0.294310 0.500000
O O14 0.722201 0.417473 0.663594
O O15 0.519538 0.110492 0.329241
#
# Coordination Sequence:
#
# PCOD9547151 Si02
#       8
#     8   8   8   8   8   4   8   2
#     4  11  23  44  70 104 145 177 231 286 350 429
#     4  11  21  37  59  95 137 180 218 263 332 415
#     4  11  24  46  68  96 138 183 234 286 348 418
#     4  11  21  35  61  93 136 173 213 272 335 404
#     4  12  28  46  68  99 135 185 241 296 353 405
#     4  10  21  38  66  98 139 180 214 262 348 419
#     4  12  20  40  67 101 138 169 227 288 345 413
#     4  12  20  36  72 104 132 166 208 300 364 392
#
# _framework density 20.741484
#
# number of rings (size 3 to 8) (size 9 to 14) (size 15 to 20)
#    0.000    0.741    5.926    2.889    0.000    3.852 
#    2.667    0.000    0.000    0.444    0.000    0.000 
#    0.000    0.000    0.000    0.000    0.000    0.000 
#
# Total GULP energy -301402.435934 kJ/mol
# GULP energy per Si atom -5581.526591 kJ/mol
# Density = 2.069428 g / cm^3
# Si number density = 20.741484 Si / 1000 Ang^3
#
#
#
# Elastic Constant Matrix: (Units=GPa)
#
#
# Indices 1 2 3 4 5 6 
#
# 1 82.4509 29.5907 28.9161 0.0000 0.0000 0.0000
# 2 29.5907 82.4512 28.9162 0.0000 0.0000 0.0000
# 3 28.9161 28.9162 53.6827 0.0000 0.0000 0.0000
# 4 0.0000 0.0000 0.0000 14.9988 0.0000 0.0000
# 5 0.0000 0.0000 0.0000 0.0000 14.9985 0.0000
# 6 0.0000 0.0000 0.0000 0.0000 0.0000 29.7729
#
#
#
# Elastic Compliance Matrix: (Units=1/GPa)
#
#
# Indices 1 2 3 4 5 6 
#
# 1 0.015640 -0.003278 -0.006659 0.000000 0.000000 0.000000
# 2 -0.003278 0.015640 -0.006659 0.000000 0.000000 0.000000
# 3 -0.006659 -0.006659 0.025802 0.000000 0.000000 0.000000
# 4 0.000000 0.000000 0.000000 0.066672 0.000000 0.000000
# 5 0.000000 0.000000 0.000000 0.000000 0.066673 0.000000
# 6 0.000000 0.000000 0.000000 0.000000 0.000000 0.033588
#
#
# Mechanical properties :
#
#
# Convention : Reuss Voigt Hill
#
# Bulk Modulus (GPa) = 41.85762 43.71453 42.78608
# Shear Modulus (GPa) = 18.85586 20.69817 19.77702
#
# Velocity S-wave (km/s) = 3.01838 3.16240 3.09123
# Velocity P-wave (km/s) = 5.68964 5.86993 5.78048
#
# Compressibility (1/GPa) = 0.02389051
#
# Stress axis : x y z
#
# Youngs Moduli (GPa) = 63.93817 63.93834 38.75714
#
# Poissons Ratio (x) = 0.20957 0.25808
# Poissons Ratio (y) = 0.20957 0.25808
# Poissons Ratio (z) = 0.42576 0.42577
#
# Static dielectric constant tensor:
#      x y z
#    x 1.775430 0.000000 0.000000 
#    y 0.000000 1.775430 0.000000 
#    z 0.000000 0.000000 1.754500 
# 
# From -- ./inp_files/2290.got.cif
#   From: 2010.05.17/outbox.cif.g08.bks.cpg/sg90_2_cif.got.tgz:2290.got - 2010.06.03 19:17:45.
