data_PCOD9547044
_publ_section_title
;
Structure prediction by ZEFSAII (Michael W. Deem and Ramdas Pophale) SiO2 
 PCOD9547044
Probable space group: P 4 2 2
;
_chemical_formula_sum "Si O2"
_cell_formula_units_Z 40
_cell_length_a 9.022397
_cell_length_b 9.022397
_cell_length_c 24.714576
_cell_angle_alpha 90.000000
_cell_angle_beta 90.000000
_cell_angle_gamma 90.000000
_cell_volume 2011.856636
_symmetry_space_group_name_H-M "P 4 2 2"
_symmetry_group_IT_number 89
_symmetry_cell_setting 'tetragonal'
loop_
_space_group_symop_operation_xyz
x,y,z
-y,x,z
-x,-y,z
y,-x,z
x,-y,-z
-x,y,-z
y,x,-z
-y,-x,-z
loop_
_atom_site_type_symbol
_atom_site_label
_atom_site_fract_x
_atom_site_fract_y
_atom_site_fract_z
Si Si1 0.696465 0.651937 0.838523
Si Si2 0.817318 0.832364 0.063469
Si Si3 0.864046 0.789871 0.738690
Si Si4 0.384228 0.275994 0.360277
Si Si5 0.342065 0.861898 0.527046
O O1 0.525346 0.700467 0.830623
O O2 0.745267 0.707212 0.897660
O O3 0.806783 0.729283 0.796104
O O4 0.991302 0.798225 0.073761
O O5 0.797251 0.797251 0.000000
O O6 0.797824 0.678071 0.694073
O O7 0.041965 0.802017 0.733153
O O8 0.561059 0.307211 0.363591
O O9 0.343864 0.164308 0.409315
O O10 0.500000 0.869061 0.500000
O O11 0.282556 0.717445 0.500000
O O12 0.257045 0.000000 0.500000
#
# Coordination Sequence:
#
# PCOD9547044 Si02
#       5
#     8   8   8   8   8
#     4  11  24  41  61  90 127 166 212 262 313 369
#     4   9  19  37  62  92 127 167 212 261 313 371
#     4  11  26  44  65  93 125 161 205 259 315 374
#     4  11  24  42  67  95 126 162 206 256 305 369
#     4  11  24  41  64  94 126 164 204 248 307 366
#
# _framework density 19.882131000000001
#
# number of rings (size 3 to 8) (size 9 to 14) (size 15 to 20)
#    0.000    1.400    2.000    3.000    2.800   10.000 
#    0.000    3.000    0.000    0.000    0.000    0.000 
#    0.000    0.000    0.000    0.000    0.000    0.000 
#
# Total GULP energy -223065.972289 kJ/mol
# GULP energy per Si atom -5576.649307 kJ/mol
# Density = 1.983688 g / cm^3
# Si number density = 19.882131 Si / 1000 Ang^3
#
#
#
# Elastic Constant Matrix: (Units=GPa)
#
#
# Indices 1 2 3 4 5 6 
#
# 1 -43.8800 139.2003 27.9524 0.0000 0.0000 0.0000
# 2 139.2003 -43.8755 27.9448 0.0000 0.0000 0.0000
# 3 27.9524 27.9448 94.1748 0.0000 0.0000 0.0000
# 4 0.0000 0.0000 0.0000 38.8801 0.0000 0.0000
# 5 0.0000 0.0000 0.0000 0.0000 38.8786 0.0000
# 6 0.0000 0.0000 0.0000 0.0000 0.0000 33.1041
#
#
#
# Elastic Compliance Matrix: (Units=1/GPa)
#
#
# Indices 1 2 3 4 5 6 
#
# 1 0.003619 0.009082 -0.003769 0.000000 0.000000 0.000000
# 2 0.009082 0.003620 -0.003770 0.000000 0.000000 0.000000
# 3 -0.003769 -0.003770 0.012856 0.000000 0.000000 0.000000
# 4 0.000000 0.000000 0.000000 0.025720 0.000000 0.000000
# 5 0.000000 0.000000 0.000000 0.000000 0.025721 0.000000
# 6 0.000000 0.000000 0.000000 0.000000 0.000000 0.030208
#
#
# Mechanical properties :
#
#
# Convention : Reuss Voigt Hill
#
# Bulk Modulus (GPa) = 43.13956 44.06824 43.60390
# Shear Modulus (GPa) = 46.99927 9.59402 28.29664
#
# Velocity S-wave (km/s) = 4.86726 2.19907 3.77665
# Velocity P-wave (km/s) = 7.30286 5.35357 6.40283
#
# Compressibility (1/GPa) = 0.02318058
#
# Stress axis : x y z
#
# Youngs Moduli (GPa) = 276.30934 276.26210 77.78578
#
# Poissons Ratio (x) = -2.50890 0.29318
# Poissons Ratio (y) = -2.50933 0.29322
# Poissons Ratio (z) = 1.04141 1.04141
#
# Static dielectric constant tensor:
#      x y z
#    x 1.715070 0.000000 0.000000 
#    y 0.000000 1.715090 0.000000 
#    z 0.000000 0.000000 1.715970 
# 
# From -- ./inp_files/2680.got.cif
#   From: 2010.05.17/outbox.cif.g08.bks.cpg/sg89_2_cif.got.tgz:2680.got - 2010.06.03 19:15:31.
