data_PCOD9547871
_publ_section_title
;
Structure prediction by ZEFSAII (Michael W. Deem and Ramdas Pophale) SiO2 
 PCOD9547871
Probable space group: P 41 2 2
;
_chemical_formula_sum "Si O2"
_cell_formula_units_Z 48
_cell_length_a 9.407753
_cell_length_b 9.407753
_cell_length_c 29.895780
_cell_angle_alpha 90.000000
_cell_angle_beta 90.000000
_cell_angle_gamma 90.000000
_cell_volume 2645.950419
_symmetry_space_group_name_H-M "P 41 2 2"
_symmetry_group_IT_number 91
_symmetry_cell_setting 'tetragonal'
loop_
_space_group_symop_operation_xyz
x,y,z
-y,x,1/4+z
-x,-y,1/2+z
y,-x,3/4+z
x,-y,1/2-z
-x,y,-z
y,x,3/4-z
-y,-x,1/4-z
loop_
_atom_site_type_symbol
_atom_site_label
_atom_site_fract_x
_atom_site_fract_y
_atom_site_fract_z
Si Si1 0.642532 0.611530 0.822062
Si Si2 0.269212 0.843859 0.247845
Si Si3 0.443775 0.647660 0.546783
Si Si4 0.573766 0.112843 0.212551
Si Si5 0.130663 0.356901 0.864579
Si Si6 0.590477 0.099842 0.459270
O O1 0.631958 0.631958 0.875000
O O2 0.672231 0.762268 0.796769
O O3 0.499533 0.530396 0.804851
O O4 0.773891 0.508035 0.810198
O O5 0.408502 0.868523 0.277454
O O6 0.168175 0.729786 0.269894
O O7 0.199516 0.000000 0.250000
O O8 0.500000 0.708499 0.500000
O O9 0.274524 0.631157 0.537831
O O10 0.452422 0.743987 0.591593
O O11 0.592795 0.066050 0.161485
O O12 0.628239 0.000000 0.250000
O O13 0.206512 0.206512 0.875000
O O14 0.010380 0.361764 0.827703
O O15 0.500000 0.034710 0.500000
#
# Coordination Sequence:
#
# PCOD9547871 Si02
#       6
#     8   8   8   8   8   8
#     4  11  21  35  61  93 118 151 201 247 299 360
#     4  10  21  38  59  82 122 154 196 242 294 345
#     4  11  19  37  59  89 120 148 190 247 301 353
#     4  10  20  36  55  84 116 153 190 238 295 347
#     4  10  23  38  60  86 121 152 194 246 294 357
#     4  10  21  40  61  85 118 161 193 245 300 348
#
# _framework density 18.140927999999999
#
# number of rings (size 3 to 8) (size 9 to 14) (size 15 to 20)
#    0.000    1.667    3.333    2.500    4.667    0.000 
#    0.000    4.167    0.000    0.000    0.000    0.000 
#    0.000    0.000    0.000    0.000    0.000    0.000 
#
# Total GULP energy -267263.867538 kJ/mol
# GULP energy per Si atom -5567.997240 kJ/mol
# Density = 1.809964 g / cm^3
# Si number density = 18.140928 Si / 1000 Ang^3
#
#
#
# Elastic Constant Matrix: (Units=GPa)
#
#
# Indices 1 2 3 4 5 6 
#
# 1 92.2757 26.8482 58.1524 0.0000 0.0000 0.0000
# 2 26.8482 92.2757 58.1524 0.0000 0.0000 0.0000
# 3 58.1524 58.1524 175.8909 0.0000 0.0000 0.0000
# 4 0.0000 0.0000 0.0000 30.8247 0.0000 0.0000
# 5 0.0000 0.0000 0.0000 0.0000 30.8247 0.0000
# 6 0.0000 0.0000 0.0000 0.0000 0.0000 5.1797
#
#
#
# Elastic Compliance Matrix: (Units=1/GPa)
#
#
# Indices 1 2 3 4 5 6 
#
# 1 0.013840 -0.001444 -0.004098 0.000000 0.000000 0.000000
# 2 -0.001444 0.013840 -0.004098 0.000000 0.000000 0.000000
# 3 -0.004098 -0.004098 0.008395 0.000000 0.000000 0.000000
# 4 0.000000 0.000000 0.000000 0.032442 0.000000 0.000000
# 5 0.000000 0.000000 0.000000 0.000000 0.032442 0.000000
# 6 0.000000 0.000000 0.000000 0.000000 0.000000 0.193060
#
#
# Mechanical properties :
#
#
# Convention : Reuss Voigt Hill
#
# Bulk Modulus (GPa) = 59.54528 71.86092 65.70310
# Shear Modulus (GPa) = 15.67902 27.85176 21.76539
#
# Velocity S-wave (km/s) = 2.94307 3.92254 3.46756
# Velocity P-wave (km/s) = 6.66662 7.75975 7.23386
#
# Compressibility (1/GPa) = 0.01679394
#
# Stress axis : x y z
#
# Youngs Moduli (GPa) = 72.25422 72.25422 119.11466
#
# Poissons Ratio (x) = 0.10434 0.48817
# Poissons Ratio (y) = 0.10434 0.48817
# Poissons Ratio (z) = 0.29612 0.29612
#
# Static dielectric constant tensor:
#      x y z
#    x 1.680490 0.000000 0.000000 
#    y 0.000000 1.680490 0.000000 
#    z 0.000000 0.000000 1.655750 
# 
# From -- ./inp_files/18183.got.cif
#   From: 2010.05.17/outbox.cif.g08.bks.cpg/sg91_10_cif.got.tgz:18183.got - 2010.06.03 19:20:03.
