data_PCOD9547530
_publ_section_title
;
Structure prediction by ZEFSAII (Michael W. Deem and Ramdas Pophale) SiO2 
 PCOD9547530
Probable space group: P 41 2 2
;
_chemical_formula_sum "Si O2"
_cell_formula_units_Z 36
_cell_length_a 11.209220
_cell_length_b 11.209220
_cell_length_c 14.263529
_cell_angle_alpha 90.000000
_cell_angle_beta 90.000000
_cell_angle_gamma 90.000000
_cell_volume 1792.164108
_symmetry_space_group_name_H-M "P 41 2 2"
_symmetry_group_IT_number 91
_symmetry_cell_setting 'tetragonal'
loop_
_space_group_symop_operation_xyz
x,y,z
-y,x,1/4+z
-x,-y,1/2+z
y,-x,3/4+z
x,-y,1/2-z
-x,y,-z
y,x,3/4-z
-y,-x,1/4-z
loop_
_atom_site_type_symbol
_atom_site_label
_atom_site_fract_x
_atom_site_fract_y
_atom_site_fract_z
Si Si1 0.263283 0.316311 0.585064
Si Si2 0.409000 0.872754 0.153639
Si Si3 0.073315 0.635016 0.775511
Si Si4 0.315425 0.050421 0.652460
Si Si5 0.308425 0.500000 0.250000
O O1 0.181921 0.351953 0.496476
O O2 0.202323 0.365678 0.678775
O O3 0.270029 0.174959 0.608109
O O4 0.395016 0.366929 0.560720
O O5 0.543938 0.919402 0.171952
O O6 0.332362 0.978186 0.106421
O O7 0.426821 0.772848 0.073559
O O8 0.040058 0.500000 0.750000
O O9 0.048261 0.701024 0.678699
O O10 0.265184 0.000000 0.750000
#
# Coordination Sequence:
#
# PCOD9547530 Si02
#       5
#     8   8   8   8   4
#     4  11  21  34  64  87 126 163 203 271 331 381
#     4  10  17  37  62  91 116 156 227 269 300 371
#     4  10  19  36  61  92 114 160 227 267 307 370
#     4  10  21  37  58  88 121 162 219 275 312 378
#     4  10  20  34  58  94 126 158 200 272 328 384
#
# _framework density 20.087447999999998
#
# number of rings (size 3 to 8) (size 9 to 14) (size 15 to 20)
#    0.000    1.778    5.556    4.000    0.000    0.889 
#    0.000    0.000   31.778    8.000    0.000    0.000 
#    0.000    0.000    0.000    0.000    0.000    0.000 
#
# Total GULP energy -200442.808099 kJ/mol
# GULP energy per Si atom -5567.855781 kJ/mol
# Density = 2.004173 g / cm^3
# Si number density = 20.087448 Si / 1000 Ang^3
#
#
#
# Elastic Constant Matrix: (Units=GPa)
#
#
# Indices 1 2 3 4 5 6 
#
# 1 50.7377 14.9174 46.9054 0.0000 0.0000 0.0000
# 2 14.9174 50.7377 46.9054 0.0000 0.0000 0.0000
# 3 46.9054 46.9054 140.5961 0.0000 0.0000 0.0000
# 4 0.0000 0.0000 0.0000 36.6652 0.0000 0.0000
# 5 0.0000 0.0000 0.0000 0.0000 36.6652 0.0000
# 6 0.0000 0.0000 0.0000 0.0000 0.0000 14.3893
#
#
#
# Elastic Compliance Matrix: (Units=1/GPa)
#
#
# Indices 1 2 3 4 5 6 
#
# 1 0.028511 0.000594 -0.009710 0.000000 0.000000 0.000000
# 2 0.000594 0.028511 -0.009710 0.000000 0.000000 0.000000
# 3 -0.009710 -0.009710 0.013591 0.000000 0.000000 0.000000
# 4 0.000000 0.000000 0.000000 0.027274 0.000000 0.000000
# 5 0.000000 0.000000 0.000000 0.000000 0.027274 0.000000
# 6 0.000000 0.000000 0.000000 0.000000 0.000000 0.069496
#
#
# Mechanical properties :
#
#
# Convention : Reuss Voigt Hill
#
# Bulk Modulus (GPa) = 30.33816 51.05862 40.69839
# Shear Modulus (GPa) = 20.55103 26.43349 23.49226
#
# Velocity S-wave (km/s) = 3.20203 3.63150 3.42350
# Velocity P-wave (km/s) = 5.36717 6.56179 5.99431
#
# Compressibility (1/GPa) = 0.03296179
#
# Stress axis : x y z
#
# Youngs Moduli (GPa) = 35.07396 35.07396 73.57570
#
# Poissons Ratio (x) = -0.02083 0.71442
# Poissons Ratio (y) = -0.02083 0.71442
# Poissons Ratio (z) = 0.34057 0.34057
#
# Static dielectric constant tensor:
#      x y z
#    x 1.753470 0.000000 0.000000 
#    y 0.000000 1.753470 0.000000 
#    z 0.000000 0.000000 1.769780 
# 
# From -- ./inp_files/3567.got.cif
#   From: 2010.05.17/outbox.cif.g08.bks.cpg/sg91_2_cif.got.tgz:3567.got - 2010.06.03 19:20:03.
