data_PCOD9547784
_publ_section_title
;
Structure prediction by ZEFSAII (Michael W. Deem and Ramdas Pophale) SiO2 
 PCOD9547784
Probable space group: P 41 2 2
;
_chemical_formula_sum "Si O2"
_cell_formula_units_Z 48
_cell_length_a 9.264224
_cell_length_b 9.264224
_cell_length_c 22.799213
_cell_angle_alpha 90.000000
_cell_angle_beta 90.000000
_cell_angle_gamma 90.000000
_cell_volume 1956.761751
_symmetry_space_group_name_H-M "P 41 2 2"
_symmetry_group_IT_number 91
_symmetry_cell_setting 'tetragonal'
loop_
_space_group_symop_operation_xyz
x,y,z
-y,x,1/4+z
-x,-y,1/2+z
y,-x,3/4+z
x,-y,1/2-z
-x,y,-z
y,x,3/4-z
-y,-x,1/4-z
loop_
_atom_site_type_symbol
_atom_site_label
_atom_site_fract_x
_atom_site_fract_y
_atom_site_fract_z
Si Si1 0.251490 0.274883 0.942967
Si Si2 0.893369 0.949703 0.177200
Si Si3 0.828187 0.570834 0.006999
Si Si4 0.409556 0.734666 0.057252
Si Si5 0.003425 0.703964 0.250201
Si Si6 0.237412 0.698320 0.353309
O O1 0.297643 0.297643 0.875000
O O2 0.241566 0.415039 0.982809
O O3 0.088977 0.206580 0.939543
O O4 0.342346 0.151155 0.975430
O O5 0.781204 0.824376 0.158384
O O6 0.988554 0.865304 0.224747
O O7 0.997578 0.002422 0.125000
O O8 0.793247 0.646526 0.069193
O O9 0.745052 0.660379 0.955487
O O10 0.000000 0.563543 0.000000
O O11 0.382158 0.906210 0.048625
O O12 0.530836 0.713588 0.107206
O O13 0.500000 0.684599 0.000000
O O14 0.104132 0.701634 0.307353
#
# Coordination Sequence:
#
# PCOD9547784 Si02
#       6
#     8   8   8   8   8   8
#     4  11  22  39  63  92 128 162 216 278 319 381
#     4  11  22  33  64  99 128 161 218 278 322 389
#     4  10  21  37  68  93 123 168 212 267 320 381
#     4   8  20  40  65  85 128 172 201 257 323 385
#     4  10  19  38  63  87 124 168 210 257 333 377
#     4  10  22  42  63  91 135 168 210 269 328 391
#
# _framework density 24.530325999999999
#
# number of rings (size 3 to 8) (size 9 to 14) (size 15 to 20)
#    0.000    2.333    3.333    1.500    4.667    1.333 
#    3.000    7.500   11.000    4.000    0.000    0.000 
#    0.000    0.000    0.000    0.000    0.000    0.000 
#
# Total GULP energy -267755.807032 kJ/mol
# GULP energy per Si atom -5578.245980 kJ/mol
# Density = 2.447449 g / cm^3
# Si number density = 24.530326 Si / 1000 Ang^3
#
#
#
# Elastic Constant Matrix: (Units=GPa)
#
#
# Indices 1 2 3 4 5 6 
#
# 1 95.3239 35.4210 25.9621 0.0000 0.0000 0.0000
# 2 35.4210 95.3245 25.9620 0.0000 0.0000 0.0000
# 3 25.9621 25.9620 47.0807 0.0000 0.0000 0.0000
# 4 0.0000 0.0000 0.0000 25.3047 0.0000 0.0000
# 5 0.0000 0.0000 0.0000 0.0000 25.3047 0.0000
# 6 0.0000 0.0000 0.0000 0.0000 0.0000 26.2841
#
#
#
# Elastic Compliance Matrix: (Units=1/GPa)
#
#
# Indices 1 2 3 4 5 6 
#
# 1 0.013243 -0.003450 -0.005400 0.000000 0.000000 0.000000
# 2 -0.003450 0.013243 -0.005400 0.000000 0.000000 0.000000
# 3 -0.005400 -0.005400 0.027196 0.000000 0.000000 0.000000
# 4 0.000000 0.000000 0.000000 0.039518 0.000000 0.000000
# 5 0.000000 0.000000 0.000000 0.000000 0.039518 0.000000
# 6 0.000000 0.000000 0.000000 0.000000 0.000000 0.038046
#
#
# Mechanical properties :
#
#
# Convention : Reuss Voigt Hill
#
# Bulk Modulus (GPa) = 39.71239 45.82437 42.76838
# Shear Modulus (GPa) = 24.07775 25.40431 24.74103
#
# Velocity S-wave (km/s) = 3.13637 3.22161 3.17928
# Velocity P-wave (km/s) = 5.41664 5.70610 5.56325
#
# Compressibility (1/GPa) = 0.02518106
#
# Stress axis : x y z
#
# Youngs Moduli (GPa) = 75.50915 75.50989 36.77008
#
# Poissons Ratio (x) = 0.26053 0.19857
# Poissons Ratio (y) = 0.26052 0.19857
# Poissons Ratio (z) = 0.40778 0.40777
#
# Static dielectric constant tensor:
#      x y z
#    x 2.012250 0.000000 0.000000 
#    y 0.000000 2.012250 0.000000 
#    z 0.000000 0.000000 2.123210 
# 
# From -- ./inp_files/7970.got.cif
#   From: 2010.05.17/outbox.cif.g08.bks.cpg/sg91_4_cif.got.tgz:7970.got - 2010.06.03 19:20:03.
