data_PCOD9547491
_publ_section_title
;
Structure prediction by ZEFSAII (Michael W. Deem and Ramdas Pophale) SiO2 
 PCOD9547491
Probable space group: P 41 2 2
;
_chemical_formula_sum "Si O2"
_cell_formula_units_Z 48
_cell_length_a 15.953775
_cell_length_b 15.953775
_cell_length_c 8.954604
_cell_angle_alpha 90.000000
_cell_angle_beta 90.000000
_cell_angle_gamma 90.000000
_cell_volume 2279.152108
_symmetry_space_group_name_H-M "P 41 2 2"
_symmetry_group_IT_number 91
_symmetry_cell_setting 'tetragonal'
loop_
_space_group_symop_operation_xyz
x,y,z
-y,x,1/4+z
-x,-y,1/2+z
y,-x,3/4+z
x,-y,1/2-z
-x,y,-z
y,x,3/4-z
-y,-x,1/4-z
loop_
_atom_site_type_symbol
_atom_site_label
_atom_site_fract_x
_atom_site_fract_y
_atom_site_fract_z
Si Si1 0.670497 0.887654 0.525751
Si Si2 0.092776 0.448113 0.004125
Si Si3 0.447908 0.249615 0.152631
Si Si4 0.758922 0.000000 0.750000
Si Si5 0.197432 0.676050 0.332984
Si Si6 0.353078 0.646923 0.125000
Si Si7 0.767184 0.767184 0.375000
Si Si8 0.834771 0.165230 0.625000
O O1 0.603812 0.909586 0.400338
O O2 0.635167 0.803801 0.607121
O O3 0.755145 0.856616 0.448058
O O4 0.695738 0.962187 0.629252
O O5 0.117233 0.383560 0.137059
O O6 0.175976 0.504295 0.992759
O O7 0.000000 0.488550 0.000000
O O8 0.425186 0.331275 0.251765
O O9 0.500000 0.267964 0.000000
O O10 0.816205 0.075353 0.693254
O O11 0.269554 0.639928 0.227131
O O12 0.234292 0.695371 0.498500
O O13 0.175494 0.763008 0.251690
#
# Coordination Sequence:
#
# PCOD9547491 Si02
#       8
#     8   8   8   4   8   4   4   4
#     4  10  20  36  62  85 130 177 216 276 347 414
#     4  10  22  38  58  96 142 175 209 277 364 425
#     4  10  22  40  60  98 139 179 227 286 351 414
#     4  12  22  38  60  88 120 174 228 292 342 408
#     4  10  20  37  64  90 124 171 234 260 330 435
#     4  11  20  40  64  92 135 187 232 276 333 428
#     4  10  16  36  61  88 113 164 222 276 318 410
#     4  11  22  38  59  88 120 169 234 286 337 408
#
# _framework density 21.060466000000002
#
# number of rings (size 3 to 8) (size 9 to 14) (size 15 to 20)
#    0.000    1.667    3.333    2.000    1.167    0.667 
#    6.000    0.833    1.833    0.000    0.000    0.000 
#   30.000    1.333    0.000    0.000    0.000    0.000 
#
# Total GULP energy -267434.423836 kJ/mol
# GULP energy per Si atom -5571.550497 kJ/mol
# Density = 2.101253 g / cm^3
# Si number density = 21.060466 Si / 1000 Ang^3
#
#
#
# Elastic Constant Matrix: (Units=GPa)
#
#
# Indices 1 2 3 4 5 6 
#
# 1 75.4468 47.4351 32.5544 0.0000 0.0000 0.0000
# 2 47.4351 75.4471 32.5540 0.0000 0.0000 0.0000
# 3 32.5544 32.5540 92.7251 0.0000 0.0000 0.0000
# 4 0.0000 0.0000 0.0000 32.2239 0.0000 0.0000
# 5 0.0000 0.0000 0.0000 0.0000 32.2239 0.0000
# 6 0.0000 0.0000 0.0000 0.0000 0.0000 16.8946
#
#
#
# Elastic Compliance Matrix: (Units=1/GPa)
#
#
# Indices 1 2 3 4 5 6 
#
# 1 0.022849 -0.012851 -0.003510 0.000000 0.000000 0.000000
# 2 -0.012851 0.022848 -0.003510 0.000000 0.000000 0.000000
# 3 -0.003510 -0.003510 0.013249 0.000000 0.000000 0.000000
# 4 0.000000 0.000000 0.000000 0.031033 0.000000 0.000000
# 5 0.000000 0.000000 0.000000 0.000000 0.031033 0.000000
# 6 0.000000 0.000000 0.000000 0.000000 0.000000 0.059191
#
#
# Mechanical properties :
#
#
# Convention : Reuss Voigt Hill
#
# Bulk Modulus (GPa) = 52.07127 52.07844 52.07485
# Shear Modulus (GPa) = 22.09014 25.00685 23.54850
#
# Velocity S-wave (km/s) = 3.24217 3.44958 3.34748
# Velocity P-wave (km/s) = 6.22848 6.37557 6.30245
#
# Compressibility (1/GPa) = 0.01920445
#
# Stress axis : x y z
#
# Youngs Moduli (GPa) = 43.76652 43.76687 75.47643
#
# Poissons Ratio (x) = 0.56244 0.26493
# Poissons Ratio (y) = 0.56243 0.26492
# Poissons Ratio (z) = 0.15362 0.15362
#
# Static dielectric constant tensor:
#      x y z
#    x 1.815130 0.000000 0.000000 
#    y 0.000000 1.815140 0.000000 
#    z 0.000000 0.000000 1.858240 
# 
# From -- ./inp_files/15230.got.cif
#   From: 2010.05.17/outbox.cif.g08.bks.cpg/sg91_8_cif.got.tgz:15230.got - 2010.06.03 19:20:03.
