data_PCOD9547196
_publ_section_title
;
Structure prediction by ZEFSAII (Michael W. Deem and Ramdas Pophale) SiO2 
 PCOD9547196
Probable space group: P 4 21 2
;
_chemical_formula_sum "Si O2"
_cell_formula_units_Z 48
_cell_length_a 8.024519
_cell_length_b 8.024519
_cell_length_c 34.504817
_cell_angle_alpha 90.000000
_cell_angle_beta 90.000000
_cell_angle_gamma 90.000000
_cell_volume 2221.865409
_symmetry_space_group_name_H-M "P 4 21 2"
_symmetry_group_IT_number 90
_symmetry_cell_setting 'tetragonal'
loop_
_space_group_symop_operation_xyz
x,y,z
1/2-y,1/2+x,z
-x,-y,z
1/2+y,1/2-x,z
1/2+x,1/2-y,-z
1/2-x,1/2+y,-z
y,x,-z
-y,-x,-z
loop_
_atom_site_type_symbol
_atom_site_label
_atom_site_fract_x
_atom_site_fract_y
_atom_site_fract_z
Si Si1 0.591240 0.734795 0.960998
Si Si2 0.905062 0.234277 0.622716
Si Si3 0.000000 0.000000 0.763879
Si Si4 0.500000 0.500000 0.104167
Si Si5 0.733813 0.588790 0.537825
Si Si6 0.764900 0.086855 0.699392
Si Si7 0.233553 0.088724 0.170290
O O1 0.399950 0.796051 0.960302
O O2 0.609523 0.615971 0.923965
O O3 0.637038 0.637038 0.000000
O O4 0.796003 0.404119 0.624956
O O5 0.877939 0.155699 0.580130
O O6 0.853300 0.122729 0.658672
O O7 0.108155 0.116669 0.792205
O O8 0.888374 0.111369 0.735283
O O9 0.393451 0.618787 0.132391
O O10 0.798101 0.399950 0.536613
O O11 0.629940 0.629940 0.500000
O O12 0.602962 0.202524 0.701576
O O13 0.396291 0.203053 0.170479
#
# Coordination Sequence:
#
# PCOD9547196 Si02
#       7
#     8   8   4   4   8   8   8
#     4  11  23  39  61  90 127 171 217 264 314 368
#     4   9  19  37  58  79 108 148 189 229 279 340
#     4  11  22  40  61  82 114 150 185 230 288 355
#     4  11  21  38  61  88 124 160 203 256 311 361
#     4   9  19  35  54  78 109 145 185 226 269 321
#     4  11  23  37  56  84 114 144 182 232 287 341
#     4  10  22  39  61  88 116 151 196 243 292 353
#
# _framework density 21.603466999999998
#
# number of rings (size 3 to 8) (size 9 to 14) (size 15 to 20)
#    0.000    1.833    0.000    5.250    0.000    1.667 
#    0.000    8.333    0.000    8.000    0.000    0.000 
#    0.000    0.000    0.000    0.000    0.000    0.000 
#
# Total GULP energy -268509.669992 kJ/mol
# GULP energy per Si atom -5593.951458 kJ/mol
# Density = 2.155430 g / cm^3
# Si number density = 21.603467 Si / 1000 Ang^3
#
#
#
# Elastic Constant Matrix: (Units=GPa)
#
#
# Indices 1 2 3 4 5 6 
#
# 1 53.2714 3.2633 40.0863 0.0000 0.0000 0.0000
# 2 3.2633 53.2714 40.0863 0.0000 0.0000 0.0000
# 3 40.0863 40.0863 194.4939 0.0000 0.0000 0.0000
# 4 0.0000 0.0000 0.0000 31.8862 0.0000 0.0000
# 5 0.0000 0.0000 0.0000 0.0000 31.8862 0.0000
# 6 0.0000 0.0000 0.0000 0.0000 0.0000 32.1693
#
#
#
# Elastic Compliance Matrix: (Units=1/GPa)
#
#
# Indices 1 2 3 4 5 6 
#
# 1 0.022495 0.002498 -0.005151 0.000000 0.000000 0.000000
# 2 0.002498 0.022495 -0.005151 0.000000 0.000000 0.000000
# 3 -0.005151 -0.005151 0.007265 0.000000 0.000000 0.000000
# 4 0.000000 0.000000 0.000000 0.031362 0.000000 0.000000
# 5 0.000000 0.000000 0.000000 0.000000 0.031362 0.000000
# 6 0.000000 0.000000 0.000000 0.000000 0.000000 0.031086
#
#
# Mechanical properties :
#
#
# Convention : Reuss Voigt Hill
#
# Bulk Modulus (GPa) = 27.28767 51.98980 39.63874
# Shear Modulus (GPa) = 28.75419 33.69505 31.22462
#
# Velocity S-wave (km/s) = 3.65224 3.95360 3.80590
# Velocity P-wave (km/s) = 5.51759 6.70514 6.14014
#
# Compressibility (1/GPa) = 0.03664658
#
# Stress axis : x y z
#
# Youngs Moduli (GPa) = 44.45423 44.45423 137.64701
#
# Poissons Ratio (x) = -0.11106 0.70906
# Poissons Ratio (y) = -0.11106 0.70906
# Poissons Ratio (z) = 0.22900 0.22900
#
# Static dielectric constant tensor:
#      x y z
#    x 1.794190 0.000000 0.000000 
#    y 0.000000 1.794190 0.000000 
#    z 0.000000 0.000000 1.761950 
# 
# From -- ./inp_files/3108.got.cif
#   From: 2010.05.17/outbox.cif.g08.bks.cpg/sg90_2_cif.got.tgz:3108.got - 2010.06.03 19:17:45.
