data_PCOD9547159
_publ_section_title
;
Structure prediction by ZEFSAII (Michael W. Deem and Ramdas Pophale) SiO2 
 PCOD9547159
Probable space group: P 4 21 2
;
_chemical_formula_sum "Si O2"
_cell_formula_units_Z 36
_cell_length_a 12.377770
_cell_length_b 12.377770
_cell_length_c 10.855747
_cell_angle_alpha 90.000000
_cell_angle_beta 90.000000
_cell_angle_gamma 90.000000
_cell_volume 1663.200207
_symmetry_space_group_name_H-M "P 4 21 2"
_symmetry_group_IT_number 90
_symmetry_cell_setting 'tetragonal'
loop_
_space_group_symop_operation_xyz
x,y,z
1/2-y,1/2+x,z
-x,-y,z
1/2+y,1/2-x,z
1/2+x,1/2-y,-z
1/2-x,1/2+y,-z
y,x,-z
-y,-x,-z
loop_
_atom_site_type_symbol
_atom_site_label
_atom_site_fract_x
_atom_site_fract_y
_atom_site_fract_z
Si Si1 0.667231 0.064059 0.642638
Si Si2 0.681010 0.512426 0.150293
Si Si3 0.882109 0.117892 0.500000
Si Si4 0.856774 0.987084 0.253437
Si Si5 0.178614 0.519299 0.918938
O O1 0.560413 0.133712 0.623598
O O2 0.764920 0.102803 0.559003
O O3 0.717394 0.065284 0.779784
O O4 0.627314 0.413167 0.225562
O O5 0.580570 0.595220 0.161818
O O6 0.726549 0.474141 0.020258
O O7 0.884492 0.030885 0.388986
O O8 0.732750 0.977409 0.215806
O O9 0.114560 0.407369 0.934717
#
# Coordination Sequence:
#
# PCOD9547159 Si02
#       5
#     8   8   4   8   8
#     4  10  22  39  61  90 123 166 221 275 329 398
#     4  10  21  39  64  91 124 162 210 267 328 395
#     4  10  24  43  64  91 130 174 220 279 338 392
#     4  10  23  40  62  92 124 166 217 266 324 396
#     4  11  24  40  61  94 134 171 211 267 333 400
#
# _framework density 21.645021
#
# number of rings (size 3 to 8) (size 9 to 14) (size 15 to 20)
#    0.000    1.778    0.000    2.667    0.000   21.333 
#    0.000    2.222    0.000    0.000    0.000    0.000 
#    0.000    0.000    0.000    0.000    0.000    0.000 
#
# Total GULP energy -200993.940048 kJ/mol
# GULP energy per Si atom -5583.165001 kJ/mol
# Density = 2.159576 g / cm^3
# Si number density = 21.645021 Si / 1000 Ang^3
#
#
#
# Elastic Constant Matrix: (Units=GPa)
#
#
# Indices 1 2 3 4 5 6 
#
# 1 93.2664 29.2303 44.0163 0.0000 0.0000 0.0000
# 2 29.2303 93.2664 44.0169 0.0000 0.0000 0.0000
# 3 44.0163 44.0169 103.5880 0.0000 0.0000 0.0000
# 4 0.0000 0.0000 0.0000 16.9653 0.0000 0.0000
# 5 0.0000 0.0000 0.0000 0.0000 16.9653 0.0000
# 6 0.0000 0.0000 0.0000 0.0000 0.0000 10.2815
#
#
#
# Elastic Compliance Matrix: (Units=1/GPa)
#
#
# Indices 1 2 3 4 5 6 
#
# 1 0.013684 -0.001932 -0.004994 0.000000 0.000000 0.000000
# 2 -0.001932 0.013684 -0.004994 0.000000 0.000000 0.000000
# 3 -0.004994 -0.004994 0.013898 0.000000 0.000000 0.000000
# 4 0.000000 0.000000 0.000000 0.058944 0.000000 0.000000
# 5 0.000000 0.000000 0.000000 0.000000 0.058944 0.000000
# 6 0.000000 0.000000 0.000000 0.000000 0.000000 0.097262
#
#
# Mechanical properties :
#
#
# Convention : Reuss Voigt Hill
#
# Bulk Modulus (GPa) = 57.38220 58.29421 57.83821
# Shear Modulus (GPa) = 17.47861 20.36624 18.92243
#
# Velocity S-wave (km/s) = 2.84476 3.07077 2.95992
# Velocity P-wave (km/s) = 6.11215 6.28993 6.20168
#
# Compressibility (1/GPa) = 0.01742701
#
# Stress axis : x y z
#
# Youngs Moduli (GPa) = 73.07697 73.07652 71.95518
#
# Poissons Ratio (x) = 0.14118 0.35932
# Poissons Ratio (y) = 0.14118 0.35933
# Poissons Ratio (z) = 0.36493 0.36493
#
# Static dielectric constant tensor:
#      x y z
#    x 1.778800 0.000000 0.000000 
#    y 0.000000 1.778800 0.000000 
#    z 0.000000 0.000000 1.837170 
# 
# From -- ./inp_files/1955.got.cif
#   From: 2010.05.17/outbox.cif.g08.bks.cpg/sg90_1_cif.got.tgz:1955.got - 2010.06.03 19:17:45.
