data_PCOD9547397
_publ_section_title
;
Structure prediction by ZEFSAII (Michael W. Deem and Ramdas Pophale) SiO2 
 PCOD9547397
Probable space group: P 4 21 2
;
_chemical_formula_sum "Si O2"
_cell_formula_units_Z 44
_cell_length_a 8.263311
_cell_length_b 8.263311
_cell_length_c 30.604445
_cell_angle_alpha 90.000000
_cell_angle_beta 90.000000
_cell_angle_gamma 90.000000
_cell_volume 2089.742161
_symmetry_space_group_name_H-M "P 4 21 2"
_symmetry_group_IT_number 90
_symmetry_cell_setting 'tetragonal'
loop_
_space_group_symop_operation_xyz
x,y,z
1/2-y,1/2+x,z
-x,-y,z
1/2+y,1/2-x,z
1/2+x,1/2-y,-z
1/2-x,1/2+y,-z
y,x,-z
-y,-x,-z
loop_
_atom_site_type_symbol
_atom_site_label
_atom_site_fract_x
_atom_site_fract_y
_atom_site_fract_z
Si Si1 0.578093 0.738695 0.136393
Si Si2 0.239794 0.910600 0.683678
Si Si3 0.742105 0.583242 0.215718
Si Si4 0.959250 0.232329 0.464037
Si Si5 0.919666 0.238485 0.959736
Si Si6 0.000000 0.000000 0.617762
O O1 0.396909 0.807123 0.138206
O O2 0.620962 0.631937 0.177837
O O3 0.605419 0.663064 0.088417
O O4 0.401978 0.801848 0.676334
O O5 0.188149 0.895021 0.734178
O O6 0.085825 0.877990 0.652813
O O7 0.804614 0.400860 0.210937
O O8 0.825684 0.372463 0.468506
O O9 0.892931 0.107070 0.500000
O O10 0.988180 0.145276 0.417667
O O11 0.806163 0.398225 0.962172
O O12 0.872877 0.127124 0.000000
#
# Coordination Sequence:
#
# PCOD9547397 Si02
#       6
#     8   8   8   8   8   4
#     4   9  19  35  53  75 106 142 180 228 291 358
#     4   9  20  38  57  81 116 156 200 253 310 368
#     4   9  19  35  54  78 108 143 188 241 295 354
#     4  11  24  43  67  97 135 176 220 270 323 380
#     4   9  19  35  52  73 104 140 178 225 282 347
#     4  12  21  34  62  92 120 162 209 250 306 368
#
# _framework density 21.055228
#
# number of rings (size 3 to 8) (size 9 to 14) (size 15 to 20)
#    0.000    2.364    0.000    4.636    0.000    6.909 
#    0.000    5.455    0.000    4.909    0.000    0.000 
#    0.000    0.000    0.000    0.000    0.000    0.000 
#
# Total GULP energy -245026.527559 kJ/mol
# GULP energy per Si atom -5568.784717 kJ/mol
# Density = 2.100731 g / cm^3
# Si number density = 21.055228 Si / 1000 Ang^3
#
#
#
# Elastic Constant Matrix: (Units=GPa)
#
#
# Indices 1 2 3 4 5 6 
#
# 1 92.2919 29.8184 70.7374 0.0000 0.0000 0.0000
# 2 29.8184 92.2900 70.7384 0.0000 0.0000 0.0000
# 3 70.7374 70.7384 175.0381 0.0000 0.0000 0.0000
# 4 0.0000 0.0000 0.0000 31.3389 0.0000 0.0000
# 5 0.0000 0.0000 0.0000 0.0000 31.3393 0.0000
# 6 0.0000 0.0000 0.0000 0.0000 0.0000 38.4676
#
#
#
# Elastic Compliance Matrix: (Units=1/GPa)
#
#
# Indices 1 2 3 4 5 6 
#
# 1 0.015703 -0.000304 -0.006223 0.000000 0.000000 0.000000
# 2 -0.000304 0.015704 -0.006224 0.000000 0.000000 0.000000
# 3 -0.006223 -0.006224 0.010743 0.000000 0.000000 0.000000
# 4 0.000000 0.000000 0.000000 0.031909 0.000000 0.000000
# 5 0.000000 0.000000 0.000000 0.000000 0.031909 0.000000
# 6 0.000000 0.000000 0.000000 0.000000 0.000000 0.025996
#
#
# Mechanical properties :
#
#
# Convention : Reuss Voigt Hill
#
# Bulk Modulus (GPa) = 60.06372 78.02317 69.04344
# Shear Modulus (GPa) = 30.67197 32.78423 31.72810
#
# Velocity S-wave (km/s) = 3.82087 3.95024 3.88609
# Velocity P-wave (km/s) = 6.93210 7.61201 7.28000
#
# Compressibility (1/GPa) = 0.01664899
#
# Stress axis : x y z
#
# Youngs Moduli (GPa) = 63.68132 63.67862 93.08120
#
# Poissons Ratio (x) = 0.01933 0.57928
# Poissons Ratio (y) = 0.01933 0.57932
# Poissons Ratio (z) = 0.39632 0.39632
#
# Static dielectric constant tensor:
#      x y z
#    x 1.785180 0.000000 0.000000 
#    y 0.000000 1.785180 0.000000 
#    z 0.000000 0.000000 1.764310 
# 
# From -- ./inp_files/3019.got.cif
#   From: 2010.05.17/outbox.cif.g08.bks.cpg/sg90_2_cif.got.tgz:3019.got - 2010.06.03 19:17:45.
