data_PCOD9547617
_publ_section_title
;
Structure prediction by ZEFSAII (Michael W. Deem and Ramdas Pophale) SiO2 
 PCOD9547617
Probable space group: P 41 2 2
;
_chemical_formula_sum "Si O2"
_cell_formula_units_Z 56
_cell_length_a 11.486161
_cell_length_b 11.486161
_cell_length_c 23.833728
_cell_angle_alpha 90.000000
_cell_angle_beta 90.000000
_cell_angle_gamma 90.000000
_cell_volume 3144.428888
_symmetry_space_group_name_H-M "P 41 2 2"
_symmetry_group_IT_number 91
_symmetry_cell_setting 'tetragonal'
loop_
_space_group_symop_operation_xyz
x,y,z
-y,x,1/4+z
-x,-y,1/2+z
y,-x,3/4+z
x,-y,1/2-z
-x,y,-z
y,x,3/4-z
-y,-x,1/4-z
loop_
_atom_site_type_symbol
_atom_site_label
_atom_site_fract_x
_atom_site_fract_y
_atom_site_fract_z
Si Si1 0.511863 0.132735 0.420829
Si Si2 0.339746 0.300422 0.154183
Si Si3 0.240189 0.618448 0.079647
Si Si4 0.773861 0.369583 0.274704
Si Si5 0.637186 0.463596 0.013703
Si Si6 0.970927 0.322204 0.754227
Si Si7 0.136654 0.213567 0.510171
O O1 0.592138 0.250641 0.419470
O O2 0.450349 0.137827 0.361162
O O3 0.404258 0.112196 0.464314
O O4 0.603222 0.033342 0.438063
O O5 0.357758 0.272337 0.088692
O O6 0.462766 0.335406 0.181198
O O7 0.286632 0.188022 0.186878
O O8 0.330172 0.669829 0.125000
O O9 0.304386 0.533458 0.037120
O O10 0.188972 0.722821 0.044064
O O11 0.790733 0.500000 0.250000
O O12 0.668848 0.318905 0.237192
O O13 0.900691 0.313831 0.269854
O O14 0.500000 0.460852 0.000000
O O15 0.910952 0.199156 0.763178
O O16 0.000000 0.208595 0.500000
#
# Coordination Sequence:
#
# PCOD9547617 Si02
#       7
#     8   8   8   8   8   8   8
#     4  10  18  35  58  79 110 145 189 238 287 338
#     4  10  22  37  56  88 121 144 183 248 295 349
#     4  11  19  31  56  86 113 149 184 230 303 346
#     4  11  22  37  58  85 116 162 193 225 283 364
#     4  10  22  33  54  89 129 149 178 225 295 362
#     4  10  21  37  58  80 111 154 201 236 278 347
#     4  10  23  35  54  85 114 147 191 255 293 323
#
# _framework density 17.809275
#
# number of rings (size 3 to 8) (size 9 to 14) (size 15 to 20)
#    0.000    1.714    4.286    0.857    8.000    1.714 
#    0.000    0.000    0.000    5.143    7.429    0.000 
#    0.000    0.000    0.000    0.000    0.000    0.000 
#
# Total GULP energy -311850.330131 kJ/mol
# GULP energy per Si atom -5568.755895 kJ/mol
# Density = 1.776874 g / cm^3
# Si number density = 17.809275 Si / 1000 Ang^3
#
#
#
# Elastic Constant Matrix: (Units=GPa)
#
#
# Indices 1 2 3 4 5 6 
#
# 1 83.5786 40.5755 17.9826 0.0000 0.0000 0.0000
# 2 40.5755 83.5791 17.9830 0.0000 0.0000 0.0000
# 3 17.9826 17.9830 45.0598 0.0000 0.0000 0.0000
# 4 0.0000 0.0000 0.0000 12.2261 0.0000 0.0000
# 5 0.0000 0.0000 0.0000 0.0000 12.2261 0.0000
# 6 0.0000 0.0000 0.0000 0.0000 0.0000 13.2888
#
#
#
# Elastic Compliance Matrix: (Units=1/GPa)
#
#
# Indices 1 2 3 4 5 6 
#
# 1 0.016181 -0.007073 -0.003635 0.000000 0.000000 0.000000
# 2 -0.007073 0.016181 -0.003635 0.000000 0.000000 0.000000
# 3 -0.003635 -0.003635 0.025094 0.000000 0.000000 0.000000
# 4 0.000000 0.000000 0.000000 0.081792 0.000000 0.000000
# 5 0.000000 0.000000 0.000000 0.000000 0.081792 0.000000
# 6 0.000000 0.000000 0.000000 0.000000 0.000000 0.075251
#
#
# Mechanical properties :
#
#
# Convention : Reuss Voigt Hill
#
# Bulk Modulus (GPa) = 34.75842 40.58885 37.67364
# Shear Modulus (GPa) = 14.94474 16.59331 15.76903
#
# Velocity S-wave (km/s) = 2.89996 3.05573 2.97886
# Velocity P-wave (km/s) = 5.54729 5.94056 5.74729
#
# Compressibility (1/GPa) = 0.02877001
#
# Stress axis : x y z
#
# Youngs Moduli (GPa) = 61.80201 61.80210 39.85052
#
# Poissons Ratio (x) = 0.43715 0.14484
# Poissons Ratio (y) = 0.43714 0.14485
# Poissons Ratio (z) = 0.22462 0.22463
#
# Static dielectric constant tensor:
#      x y z
#    x 1.628370 0.000000 0.000000 
#    y 0.000000 1.628370 0.000000 
#    z 0.000000 0.000000 1.640300 
# 
# From -- ./inp_files/17633.got.cif
#   From: 2010.05.17/outbox.cif.g08.bks.cpg/sg91_9_cif.got.tgz:17633.got - 2010.06.03 19:20:03.
