data_PCOD9547463
_publ_section_title
;
Structure prediction by ZEFSAII (Michael W. Deem and Ramdas Pophale) SiO2 
 PCOD9547463
Probable space group: P 4 21 2
;
_chemical_formula_sum "Si O2"
_cell_formula_units_Z 42
_cell_length_a 9.000000
_cell_length_b 9.000000
_cell_length_c 27.000000
_cell_angle_alpha 90.000000
_cell_angle_beta 90.000000
_cell_angle_gamma 90.000000
_cell_volume 2187.000000
_symmetry_space_group_name_H-M "P 4 21 2"
_symmetry_group_IT_number 90
_symmetry_cell_setting 'tetragonal'
loop_
_space_group_symop_operation_xyz
x,y,z
1/2-y,1/2+x,z
-x,-y,z
1/2+y,1/2-x,z
1/2+x,1/2-y,-z
1/2-x,1/2+y,-z
y,x,-z
-y,-x,-z
loop_
_atom_site_type_symbol
_atom_site_label
_atom_site_fract_x
_atom_site_fract_y
_atom_site_fract_z
Si Si1 0.076740 0.164647 0.847319
Si Si2 0.281200 0.126036 0.639302
Si Si3 0.275891 0.119713 0.046095
Si Si4 0.000000 0.500000 0.838168
Si Si5 0.627376 0.218093 0.453019
Si Si6 0.616423 0.221460 0.751763
O O1 0.150075 0.193001 0.901661
O O2 0.178691 0.158626 0.798245
O O3 0.979210 0.315795 0.840285
O O4 0.000000 0.000000 0.849633
O O5 0.447700 0.195445 0.634152
O O6 0.179376 0.197245 0.596897
O O7 0.223574 0.151443 0.695685
O O8 0.441029 0.193672 0.044551
O O9 0.180777 0.180777 0.000000
O O10 0.448847 0.196731 0.454507
O O11 0.689868 0.310133 0.500000
O O12 0.439696 0.193141 0.754731
#
# Coordination Sequence:
#
# PCOD9547463 Si02
#       6
#     8   8   8   2   8   8
#     4  12  24  43  71  99 138 191 230 286 368 416
#     4   9  19  40  65  91 127 168 213 278 334 393
#     4  11  26  46  67  99 137 179 234 295 352 423
#     4  12  24  48  64 104 152 168 236 312 324 422
#     4  11  24  41  60  91 127 167 217 271 330 400
#     4   9  20  40  65  96 133 175 234 283 340 427
#
# _framework density 19.20439
#
# number of rings (size 3 to 8) (size 9 to 14) (size 15 to 20)
#    0.000    1.524    1.905    3.429    2.667    4.190 
#   10.286    1.905    0.000    0.000    0.000    0.000 
#    0.000    0.000    0.000    0.000    0.000    0.000 
#
# Total GULP energy -233979.185338 kJ/mol
# GULP energy per Si atom -5570.932984 kJ/mol
# Density = 1.916068 g / cm^3
# Si number density = 19.204390 Si / 1000 Ang^3
#
#
#
# Elastic Constant Matrix: (Units=GPa)
#
#
# Indices 1 2 3 4 5 6 
#
# 1 80.1383 33.8198 61.3325 0.0000 0.0000 0.0000
# 2 33.8198 80.1373 61.3319 0.0000 0.0000 0.0000
# 3 61.3325 61.3319 208.0792 0.0000 0.0000 0.0000
# 4 0.0000 0.0000 0.0000 40.3337 0.0000 0.0000
# 5 0.0000 0.0000 0.0000 0.0000 40.3337 0.0000
# 6 0.0000 0.0000 0.0000 0.0000 0.0000 20.5259
#
#
#
# Elastic Compliance Matrix: (Units=1/GPa)
#
#
# Indices 1 2 3 4 5 6 
#
# 1 0.017221 -0.004368 -0.003789 0.000000 0.000000 0.000000
# 2 -0.004368 0.017222 -0.003789 0.000000 0.000000 0.000000
# 3 -0.003789 -0.003789 0.007039 0.000000 0.000000 0.000000
# 4 0.000000 0.000000 0.000000 0.024793 0.000000 0.000000
# 5 0.000000 0.000000 0.000000 0.000000 0.024793 0.000000
# 6 0.000000 0.000000 0.000000 0.000000 0.000000 0.048719
#
#
# Mechanical properties :
#
#
# Convention : Reuss Voigt Hill
#
# Bulk Modulus (GPa) = 56.84573 75.70257 66.27415
# Shear Modulus (GPa) = 29.49117 34.36336 31.92727
#
# Velocity S-wave (km/s) = 3.92299 4.23466 4.08180
# Velocity P-wave (km/s) = 7.08409 7.96334 7.53655
#
# Compressibility (1/GPa) = 0.01759147
#
# Stress axis : x y z
#
# Youngs Moduli (GPa) = 58.06717 58.06649 142.06103
#
# Poissons Ratio (x) = 0.25366 0.53820
# Poissons Ratio (y) = 0.25366 0.53820
# Poissons Ratio (z) = 0.21999 0.21999
#
# Static dielectric constant tensor:
#      x y z
#    x 1.678500 0.000000 0.000000 
#    y 0.000000 1.678500 0.000000 
#    z 0.000000 0.000000 1.678640 
# 
# From -- ./inp_files/2991.got.cif
#   From: 2010.05.17/outbox.ucp.g08.bks.cvg/sg90_2_cif.got.tgz:2991.got - 2010.06.11 10:36:03.
