data_PCOD9547419
_publ_section_title
;
Structure prediction by ZEFSAII (Michael W. Deem and Ramdas Pophale) SiO2 
 PCOD9547419
Probable space group: P 4 21 2
;
_chemical_formula_sum "Si O2"
_cell_formula_units_Z 50
_cell_length_a 8.455845
_cell_length_b 8.455845
_cell_length_c 30.142972
_cell_angle_alpha 90.000000
_cell_angle_beta 90.000000
_cell_angle_gamma 90.000000
_cell_volume 2155.262126
_symmetry_space_group_name_H-M "P 4 21 2"
_symmetry_group_IT_number 90
_symmetry_cell_setting 'tetragonal'
loop_
_space_group_symop_operation_xyz
x,y,z
1/2-y,1/2+x,z
-x,-y,z
1/2+y,1/2-x,z
1/2+x,1/2-y,-z
1/2-x,1/2+y,-z
y,x,-z
-y,-x,-z
loop_
_atom_site_type_symbol
_atom_site_label
_atom_site_fract_x
_atom_site_fract_y
_atom_site_fract_z
Si Si1 0.706381 0.849672 0.609535
Si Si2 0.754631 0.076074 0.783281
Si Si3 0.754868 0.415586 0.536721
Si Si4 0.419068 0.255048 0.138565
Si Si5 0.854674 0.113246 0.313502
Si Si6 0.000000 0.500000 0.685229
Si Si7 0.745141 0.579051 0.961180
O O1 0.532465 0.792598 0.593935
O O2 0.865121 0.786757 0.586832
O O3 0.679788 0.776594 0.658862
O O4 0.601471 0.189893 0.785776
O O5 0.867068 0.125214 0.823630
O O6 0.838469 0.102843 0.736401
O O7 0.807324 0.592034 0.530010
O O8 0.630019 0.369981 0.500000
O O9 0.597672 0.190276 0.142839
O O10 0.398458 0.319683 0.088641
O O11 0.693816 0.015639 0.314122
O O12 0.000000 0.000000 0.330512
O O13 0.810162 0.401038 0.964872
O O14 0.628288 0.628288 0.000000
#
# Coordination Sequence:
#
# PCOD9547419 Si02
#       7
#     8   8   8   8   8   2   8
#     4  11  25  45  71 102 142 185 231 292 358 417
#     4  11  25  43  63  94 135 174 220 280 350 417
#     4  11  26  45  70 103 142 184 238 294 349 424
#     4   9  21  39  62  89 122 167 222 276 334 410
#     4  12  28  47  72 106 141 182 236 293 353 420
#     4  12  28  44  76 104 136 184 248 280 352 444
#     4   9  19  37  58  86 122 163 212 270 331 400
#
# _framework density 23.199034999999999
#
# number of rings (size 3 to 8) (size 9 to 14) (size 15 to 20)
#    0.000    1.440    0.000    4.800    8.960    5.760 
#    0.000    4.800    0.000    0.000    0.000    0.000 
#    0.000    0.000    0.000    0.000    0.000    0.000 
#
# Total GULP energy -278924.577313 kJ/mol
# GULP energy per Si atom -5578.491546 kJ/mol
# Density = 2.314623 g / cm^3
# Si number density = 23.199035 Si / 1000 Ang^3
#
#
#
# Elastic Constant Matrix: (Units=GPa)
#
#
# Indices 1 2 3 4 5 6 
#
# 1 104.3774 4.8256 25.7147 0.0000 0.0000 0.0000
# 2 4.8256 104.3790 25.7152 0.0000 0.0000 0.0000
# 3 25.7147 25.7152 131.2282 0.0000 0.0000 0.0000
# 4 0.0000 0.0000 0.0000 28.3808 0.0000 0.0000
# 5 0.0000 0.0000 0.0000 0.0000 28.3807 0.0000
# 6 0.0000 0.0000 0.0000 0.0000 0.0000 38.6487
#
#
#
# Elastic Compliance Matrix: (Units=1/GPa)
#
#
# Indices 1 2 3 4 5 6 
#
# 1 0.010067 0.000022 -0.001977 0.000000 0.000000 0.000000
# 2 0.000022 0.010066 -0.001977 0.000000 0.000000 0.000000
# 3 -0.001977 -0.001977 0.008395 0.000000 0.000000 0.000000
# 4 0.000000 0.000000 0.000000 0.035235 0.000000 0.000000
# 5 0.000000 0.000000 0.000000 0.000000 0.035235 0.000000
# 6 0.000000 0.000000 0.000000 0.000000 0.000000 0.025874
#
#
# Mechanical properties :
#
#
# Convention : Reuss Voigt Hill
#
# Bulk Modulus (GPa) = 48.39314 50.27727 49.33520
# Shear Modulus (GPa) = 35.81029 37.99732 36.90380
#
# Velocity S-wave (km/s) = 3.93314 4.05147 3.99274
# Velocity P-wave (km/s) = 6.44449 6.60341 6.52443
#
# Compressibility (1/GPa) = 0.02066409
#
# Stress axis : x y z
#
# Youngs Moduli (GPa) = 99.33802 99.33941 119.11769
#
# Poissons Ratio (x) = -0.00215 0.23548
# Poissons Ratio (y) = -0.00215 0.23548
# Poissons Ratio (z) = 0.19638 0.19638
#
# Static dielectric constant tensor:
#      x y z
#    x 1.871450 0.000000 0.000000 
#    y 0.000000 1.871450 0.000000 
#    z 0.000000 0.000000 1.862650 
# 
# From -- ./inp_files/3080.got.cif
#   From: 2010.05.17/outbox.cif.g08.bks.cpg/sg90_2_cif.got.tgz:3080.got - 2010.06.03 19:17:45.
