data_PCOD9547527
_publ_section_title
;
Structure prediction by ZEFSAII (Michael W. Deem and Ramdas Pophale) SiO2 
 PCOD9547527
Probable space group: P 41 2 2
;
_chemical_formula_sum "Si O2"
_cell_formula_units_Z 40
_cell_length_a 15.287543
_cell_length_b 15.287543
_cell_length_c 9.080639
_cell_angle_alpha 90.000000
_cell_angle_beta 90.000000
_cell_angle_gamma 90.000000
_cell_volume 2122.226797
_symmetry_space_group_name_H-M "P 41 2 2"
_symmetry_group_IT_number 91
_symmetry_cell_setting 'tetragonal'
loop_
_space_group_symop_operation_xyz
x,y,z
-y,x,1/4+z
-x,-y,1/2+z
y,-x,3/4+z
x,-y,1/2-z
-x,y,-z
y,x,3/4-z
-y,-x,1/4-z
loop_
_atom_site_type_symbol
_atom_site_label
_atom_site_fract_x
_atom_site_fract_y
_atom_site_fract_z
Si Si1 0.992733 0.352354 0.171695
Si Si2 0.000000 0.904761 0.000000
Si Si3 0.259478 0.259478 0.875000
Si Si4 0.813675 0.551952 0.386148
Si Si5 0.241153 0.883980 0.376422
Si Si6 0.096490 0.589602 0.070165
O O1 0.907274 0.414006 0.176937
O O2 0.964790 0.269639 0.268015
O O3 0.074320 0.394874 0.257788
O O4 0.000000 0.332253 0.000000
O O5 0.081900 0.844576 0.952354
O O6 0.966838 0.966838 0.875000
O O7 0.239375 0.359809 0.917091
O O8 0.198658 0.235293 0.734809
O O9 0.771454 0.500000 0.250000
O O10 0.837781 0.486042 0.518028
O O11 0.320138 0.874042 0.258805
O O12 0.000000 0.569153 0.000000
#
# Coordination Sequence:
#
# PCOD9547527 Si02
#       6
#     8   4   4   8   8   8
#     4  10  20  31  60  97 121 157 201 269 341 390
#     4  12  28  46  60  84 124 184 228 268 320 390
#     4  10  22  36  64  96 128 170 218 270 330 408
#     4  11  19  33  56  93 137 157 210 268 334 410
#     4  10  21  43  61  84 126 162 218 273 326 381
#     4  10  17  35  61  90 125 159 198 280 338 380
#
# _framework density 18.848127000000002
#
# number of rings (size 3 to 8) (size 9 to 14) (size 15 to 20)
#    0.000    1.600    9.000    0.600    1.400    3.200 
#    0.000    0.000    0.000    0.000    0.000    0.000 
#   15.000    0.000    0.000    0.000    0.000    0.000 
#
# Total GULP energy -223146.369092 kJ/mol
# GULP energy per Si atom -5578.659227 kJ/mol
# Density = 1.880523 g / cm^3
# Si number density = 18.848127 Si / 1000 Ang^3
#
#
#
# Elastic Constant Matrix: (Units=GPa)
#
#
# Indices 1 2 3 4 5 6 
#
# 1 77.6935 57.1946 44.1405 0.0000 0.0000 0.0000
# 2 57.1946 77.6935 44.1405 0.0000 0.0000 0.0000
# 3 44.1405 44.1405 131.9051 0.0000 0.0000 0.0000
# 4 0.0000 0.0000 0.0000 17.0661 0.0000 0.0000
# 5 0.0000 0.0000 0.0000 0.0000 17.0661 0.0000
# 6 0.0000 0.0000 0.0000 0.0000 0.0000 26.2830
#
#
#
# Elastic Compliance Matrix: (Units=1/GPa)
#
#
# Indices 1 2 3 4 5 6 
#
# 1 0.029138 -0.019645 -0.003177 0.000000 0.000000 0.000000
# 2 -0.019645 0.029138 -0.003177 0.000000 0.000000 0.000000
# 3 -0.003177 -0.003177 0.009707 0.000000 0.000000 0.000000
# 4 0.000000 0.000000 0.000000 0.058596 0.000000 0.000000
# 5 0.000000 0.000000 0.000000 0.000000 0.058596 0.000000
# 6 0.000000 0.000000 0.000000 0.000000 0.000000 0.038047
#
#
# Mechanical properties :
#
#
# Convention : Reuss Voigt Hill
#
# Bulk Modulus (GPa) = 62.55468 64.24927 63.40197
# Shear Modulus (GPa) = 17.82233 21.53749 19.67991
#
# Velocity S-wave (km/s) = 3.07836 3.38403 3.23481
# Velocity P-wave (km/s) = 6.77465 7.03070 6.90386
#
# Compressibility (1/GPa) = 0.01598602
#
# Stress axis : x y z
#
# Youngs Moduli (GPa) = 34.31967 34.31967 103.01621
#
# Poissons Ratio (x) = 0.67422 0.32724
# Poissons Ratio (y) = 0.67422 0.32724
# Poissons Ratio (z) = 0.10902 0.10902
#
# Static dielectric constant tensor:
#      x y z
#    x 1.677500 0.000000 0.000000 
#    y 0.000000 1.677500 0.000000 
#    z 0.000000 0.000000 1.732580 
# 
# From -- ./inp_files/15038.got.cif
#   From: 2010.05.17/outbox.cif.g08.bks.cpg/sg91_8_cif.got.tgz:15038.got - 2010.06.03 19:20:03.
