data_PCOD9547770
_publ_section_title
;
Structure prediction by ZEFSAII (Michael W. Deem and Ramdas Pophale) SiO2 
 PCOD9547770
Probable space group: P 41 2 2
;
_chemical_formula_sum "Si O2"
_cell_formula_units_Z 56
_cell_length_a 15.246583
_cell_length_b 15.246583
_cell_length_c 10.728803
_cell_angle_alpha 90.000000
_cell_angle_beta 90.000000
_cell_angle_gamma 90.000000
_cell_volume 2493.999233
_symmetry_space_group_name_H-M "P 41 2 2"
_symmetry_group_IT_number 91
_symmetry_cell_setting 'tetragonal'
loop_
_space_group_symop_operation_xyz
x,y,z
-y,x,1/4+z
-x,-y,1/2+z
y,-x,3/4+z
x,-y,1/2-z
-x,y,-z
y,x,3/4-z
-y,-x,1/4-z
loop_
_atom_site_type_symbol
_atom_site_label
_atom_site_fract_x
_atom_site_fract_y
_atom_site_fract_z
Si Si1 0.307250 0.556894 0.138237
Si Si2 0.897550 0.545641 0.381544
Si Si3 0.073977 0.264680 0.833134
Si Si4 0.897764 0.432610 0.636528
Si Si5 0.592477 0.295418 0.203787
Si Si6 0.099794 0.770167 0.199792
Si Si7 0.236882 0.790862 0.806488
O O1 0.345435 0.500000 0.250000
O O2 0.351604 0.648397 0.125000
O O3 0.205558 0.570729 0.156618
O O4 0.318710 0.496230 0.020140
O O5 0.906004 0.500000 0.250000
O O6 0.952149 0.636223 0.371244
O O7 0.911265 0.483489 0.503334
O O8 0.796475 0.575821 0.386659
O O9 0.148895 0.262380 0.725777
O O10 0.991772 0.212018 0.775300
O O11 0.127169 0.234215 0.957403
O O12 0.925134 0.500000 0.750000
O O13 0.921398 0.327349 0.637705
O O14 0.624090 0.375911 0.125000
O O15 0.677853 0.268961 0.285288
O O16 0.147933 0.852068 0.125000
O O17 0.170389 0.755224 0.307870
#
# Coordination Sequence:
#
# PCOD9547770 Si02
#       7
#     8   8   8   8   8   8   8
#     4  10  21  35  52  81 126 166 217 270 341 410
#     4  10  21  38  65 101 130 172 227 294 354 415
#     4  10  22  44  71 100 133 184 242 297 352 456
#     4  10  22  42  64  95 136 184 228 286 363 436
#     4  10  19  37  64  89 119 174 236 290 338 431
#     4  12  26  40  69 107 147 188 229 302 385 451
#     4  10  20  44  75  94 132 185 248 292 371 444
#
# _framework density 22.453897000000001
#
# number of rings (size 3 to 8) (size 9 to 14) (size 15 to 20)
#    0.000    1.714    2.857    4.286    2.000    4.000 
#    0.000    2.857    9.429    0.000    0.000    0.000 
#    0.000    0.000    0.000    0.000    0.000    0.000 
#
# Total GULP energy -312027.085847 kJ/mol
# GULP energy per Si atom -5571.912247 kJ/mol
# Density = 2.240279 g / cm^3
# Si number density = 22.453897 Si / 1000 Ang^3
#
#
#
# Elastic Constant Matrix: (Units=GPa)
#
#
# Indices 1 2 3 4 5 6 
#
# 1 61.3261 34.7505 11.0356 0.0000 0.0000 0.0000
# 2 34.7505 61.3221 11.0342 0.0000 0.0000 0.0000
# 3 11.0356 11.0342 74.8685 0.0000 0.0000 0.0000
# 4 0.0000 0.0000 0.0000 55.2655 0.0000 0.0000
# 5 0.0000 0.0000 0.0000 0.0000 55.2568 0.0000
# 6 0.0000 0.0000 0.0000 0.0000 0.0000 23.6258
#
#
#
# Elastic Compliance Matrix: (Units=1/GPa)
#
#
# Indices 1 2 3 4 5 6 
#
# 1 0.024202 -0.013429 -0.001588 0.000000 0.000000 0.000000
# 2 -0.013429 0.024203 -0.001588 0.000000 0.000000 0.000000
# 3 -0.001588 -0.001588 0.013825 0.000000 0.000000 0.000000
# 4 0.000000 0.000000 0.000000 0.018094 0.000000 0.000000
# 5 0.000000 0.000000 0.000000 0.000000 0.018097 0.000000
# 6 0.000000 0.000000 0.000000 0.000000 0.000000 0.042327
#
#
# Mechanical properties :
#
#
# Convention : Reuss Voigt Hill
#
# Bulk Modulus (GPa) = 34.45903 34.57302 34.51603
# Shear Modulus (GPa) = 27.22857 36.20938 31.71898
#
# Velocity S-wave (km/s) = 3.48608 4.02009 3.76257
# Velocity P-wave (km/s) = 5.61993 6.08103 5.85502
#
# Compressibility (1/GPa) = 0.02901997
#
# Stress axis : x y z
#
# Youngs Moduli (GPa) = 41.31962 41.31713 72.33363
#
# Poissons Ratio (x) = 0.55485 0.11487
# Poissons Ratio (y) = 0.55488 0.11484
# Poissons Ratio (z) = 0.06562 0.06560
#
# Static dielectric constant tensor:
#      x y z
#    x 1.854690 0.000000 0.000000 
#    y 0.000000 1.854710 0.000000 
#    z 0.000000 0.000000 1.669840 
# 
# From -- ./inp_files/15961.got.cif
#   From: 2010.05.17/outbox.cif.g08.bks.cpg/sg91_8_cif.got.tgz:15961.got - 2010.06.03 19:20:03.
