data_PCOD9547180
_publ_section_title
;
Structure prediction by ZEFSAII (Michael W. Deem and Ramdas Pophale) SiO2 
 PCOD9547180
Probable space group: P 4 21 2
;
_chemical_formula_sum "Si O2"
_cell_formula_units_Z 56
_cell_length_a 10.231170
_cell_length_b 10.231170
_cell_length_c 21.937767
_cell_angle_alpha 90.000000
_cell_angle_beta 90.000000
_cell_angle_gamma 90.000000
_cell_volume 2296.376117
_symmetry_space_group_name_H-M "P 4 21 2"
_symmetry_group_IT_number 90
_symmetry_cell_setting 'tetragonal'
loop_
_space_group_symop_operation_xyz
x,y,z
1/2-y,1/2+x,z
-x,-y,z
1/2+y,1/2-x,z
1/2+x,1/2-y,-z
1/2-x,1/2+y,-z
y,x,-z
-y,-x,-z
loop_
_atom_site_type_symbol
_atom_site_label
_atom_site_fract_x
_atom_site_fract_y
_atom_site_fract_z
Si Si1 0.782537 0.515471 0.022577
Si Si2 0.027884 0.285361 0.663439
Si Si3 0.417250 0.356072 0.099952
Si Si4 0.192209 0.394877 0.192134
Si Si5 0.411665 0.200849 0.669161
Si Si6 0.630159 0.584015 0.566469
Si Si7 0.722460 0.973247 0.205670
O O1 0.864145 0.383801 0.034755
O O2 0.745372 0.539238 0.951949
O O3 0.645128 0.524264 0.059589
O O4 0.892454 0.361561 0.667548
O O5 0.022550 0.226666 0.596235
O O6 0.040119 0.209920 0.727561
O O7 0.288550 0.341044 0.141887
O O8 0.524748 0.332774 0.153150
O O9 0.169068 0.550091 0.185373
O O10 0.242485 0.381469 0.261500
O O11 0.564722 0.165713 0.662445
O O12 0.379804 0.305313 0.617924
O O13 0.500000 0.500000 0.563657
O O14 0.647400 0.647400 0.500000
O O15 0.636084 0.107822 0.200985
#
# Coordination Sequence:
#
# PCOD9547180 Si02
#       7
#     8   8   8   8   8   8   8
#     4  10  22  38  54  74 108 156 200 238 283 349
#     4   9  20  40  65  90 119 160 206 255 312 376
#     4  11  19  30  58  86 106 137 189 239 290 341
#     4   9  18  35  60  86 111 141 185 238 293 356
#     4   9  20  40  65  90 119 160 206 255 312 376
#     4  11  25  40  58  89 128 166 206 257 312 362
#     4   9  18  35  60  86 111 141 185 238 293 356
#
# _framework density 24.386247999999998
#
# number of rings (size 3 to 8) (size 9 to 14) (size 15 to 20)
#    0.000    2.286    0.000    4.286    2.000    3.429 
#    2.571    1.429    0.000   29.143    0.000    0.000 
#    0.000    0.000    0.000    0.000    0.000    0.000 
#
# Total GULP energy -312321.192352 kJ/mol
# GULP energy per Si atom -5577.164149 kJ/mol
# Density = 2.433074 g / cm^3
# Si number density = 24.386248 Si / 1000 Ang^3
#
#
#
# Elastic Constant Matrix: (Units=GPa)
#
#
# Indices 1 2 3 4 5 6 
#
# 1 56.0313 17.2378 33.2855 0.0000 0.0000 0.0000
# 2 17.2378 56.0313 33.2855 0.0000 0.0000 0.0000
# 3 33.2855 33.2855 180.9860 0.0000 0.0000 0.0000
# 4 0.0000 0.0000 0.0000 -39.5340 0.0000 0.0000
# 5 0.0000 0.0000 0.0000 0.0000 -39.5340 0.0000
# 6 0.0000 0.0000 0.0000 0.0000 0.0000 39.5377
#
#
#
# Elastic Compliance Matrix: (Units=1/GPa)
#
#
# Indices 1 2 3 4 5 6 
#
# 1 0.021082 -0.004696 -0.003014 0.000000 0.000000 0.000000
# 2 -0.004696 0.021082 -0.003014 0.000000 0.000000 0.000000
# 3 -0.003014 -0.003014 0.006634 0.000000 0.000000 0.000000
# 4 0.000000 0.000000 0.000000 -0.025295 0.000000 0.000000
# 5 0.000000 0.000000 0.000000 0.000000 -0.025295 0.000000
# 6 0.000000 0.000000 0.000000 0.000000 0.000000 0.025292
#
#
# Mechanical properties :
#
#
# Convention : Reuss Voigt Hill
#
# Bulk Modulus (GPa) = 36.56032 51.18515 43.87274
# Shear Modulus (GPa) = 92.48337 6.04327 49.26332
#
# Velocity S-wave (km/s) = 6.16496 1.57592 4.49946
# Velocity P-wave (km/s) = 8.10558 4.93420 6.70994
#
# Compressibility (1/GPa) = 0.02735206
#
# Stress axis : x y z
#
# Youngs Moduli (GPa) = 47.43384 47.43384 150.74340
#
# Poissons Ratio (x) = 0.22273 0.45429
# Poissons Ratio (y) = 0.22273 0.45429
# Poissons Ratio (z) = 0.14295 0.14295
#
# Static dielectric constant tensor:
#      x y z
#    x 2.012870 0.000000 0.000000 
#    y 0.000000 2.012870 0.000000 
#    z 0.000000 0.000000 2.152880 
# 
# From -- ./inp_files/2819.got.cif
#   From: 2010.05.17/outbox.cif.g08.bks.cpg/sg90_2_cif.got.tgz:2819.got - 2010.06.03 19:17:45.
