data_PCOD9547405
_publ_section_title
;
Structure prediction by ZEFSAII (Michael W. Deem and Ramdas Pophale) SiO2 
 PCOD9547405
Probable space group: P 4 21 2
;
_chemical_formula_sum "Si O2"
_cell_formula_units_Z 38
_cell_length_a 15.940206
_cell_length_b 15.940206
_cell_length_c 5.467363
_cell_angle_alpha 90.000000
_cell_angle_beta 90.000000
_cell_angle_gamma 90.000000
_cell_volume 1389.203179
_symmetry_space_group_name_H-M "P 4 21 2"
_symmetry_group_IT_number 90
_symmetry_cell_setting 'tetragonal'
loop_
_space_group_symop_operation_xyz
x,y,z
1/2-y,1/2+x,z
-x,-y,z
1/2+y,1/2-x,z
1/2+x,1/2-y,-z
1/2-x,1/2+y,-z
y,x,-z
-y,-x,-z
loop_
_atom_site_type_symbol
_atom_site_label
_atom_site_fract_x
_atom_site_fract_y
_atom_site_fract_z
Si Si1 0.100092 0.100092 0.500000
Si Si2 0.500000 0.000000 0.514914
Si Si3 0.623737 0.623737 0.000000
Si Si4 0.101359 0.898642 0.500000
Si Si5 0.164549 0.406980 0.509953
Si Si6 0.510086 0.763387 0.988921
Si Si7 0.250556 0.664493 0.810017
O O1 0.135598 0.157576 0.718920
O O2 0.999411 0.112682 0.489803
O O3 0.565244 0.078578 0.511286
O O4 0.646921 0.643075 0.726789
O O5 0.529910 0.663186 0.995663
O O6 0.203168 0.446354 0.260261
O O7 0.174756 0.308628 0.575275
O O8 0.197384 0.448759 0.765000
O O9 0.412938 0.783781 0.024604
O O10 0.259303 0.740698 0.000000
#
# Coordination Sequence:
#
# PCOD9547405 Si02
#       7
#     4   2   4   4   8   8   8
#     4  11  26  44  81 121 169 219 281 348 414 520
#     4  12  28  58  92 114 164 214 288 362 412 510
#     4  12  24  47  76 112 172 218 264 343 414 514
#     4  11  24  44  75 121 161 225 278 326 416 507
#     4  12  31  52  84 121 164 220 287 352 431 501
#     4  12  29  53  79 126 167 220 280 348 429 517
#     4  12  29  52  88 125 172 227 288 360 436 524
#
# _framework density 27.353809999999999
#
# number of rings (size 3 to 8) (size 9 to 14) (size 15 to 20)
#    0.000    0.211    4.211    2.526   10.316    1.684 
#    0.000    0.000    0.000    0.000    0.000    0.000 
#    0.000    0.000    0.000    0.000    0.000    0.000 
#
# Total GULP energy -211602.100335 kJ/mol
# GULP energy per Si atom -5568.476325 kJ/mol
# Density = 2.729155 g / cm^3
# Si number density = 27.353810 Si / 1000 Ang^3
#
#
#
# Elastic Constant Matrix: (Units=GPa)
#
#
# Indices 1 2 3 4 5 6 
#
# 1 106.6135 58.0165 52.9281 0.0000 0.0000 0.0000
# 2 58.0165 106.6116 52.9288 0.0000 0.0000 0.0000
# 3 52.9281 52.9288 276.3879 0.0000 0.0000 0.0000
# 4 0.0000 0.0000 0.0000 41.5399 0.0000 0.0000
# 5 0.0000 0.0000 0.0000 0.0000 41.5401 0.0000
# 6 0.0000 0.0000 0.0000 0.0000 0.0000 51.0307
#
#
#
# Elastic Compliance Matrix: (Units=1/GPa)
#
#
# Indices 1 2 3 4 5 6 
#
# 1 0.013752 -0.006825 -0.001327 0.000000 0.000000 0.000000
# 2 -0.006825 0.013753 -0.001327 0.000000 0.000000 0.000000
# 3 -0.001327 -0.001327 0.004126 0.000000 0.000000 0.000000
# 4 0.000000 0.000000 0.000000 0.024073 0.000000 0.000000
# 5 0.000000 0.000000 0.000000 0.000000 0.024073 0.000000
# 6 0.000000 0.000000 0.000000 0.000000 0.000000 0.019596
#
#
# Mechanical properties :
#
#
# Convention : Reuss Voigt Hill
#
# Bulk Modulus (GPa) = 78.89926 90.81776 84.85851
# Shear Modulus (GPa) = 40.79791 48.53812 44.66802
#
# Velocity S-wave (km/s) = 3.86617 4.21700 4.04539
# Velocity P-wave (km/s) = 6.98830 7.54877 7.27394
#
# Compressibility (1/GPa) = 0.01267439
#
# Stress axis : x y z
#
# Youngs Moduli (GPa) = 72.71473 72.71309 242.35478
#
# Poissons Ratio (x) = 0.49629 0.32149
# Poissons Ratio (y) = 0.49630 0.32151
# Poissons Ratio (z) = 0.09646 0.09646
#
# Static dielectric constant tensor:
#      x y z
#    x 2.150430 0.000000 0.000000 
#    y 0.000000 2.150430 0.000000 
#    z 0.000000 0.000000 2.133120 
# 
# From -- ./inp_files/502.got.cif
#   From: 2010.05.17/outbox.cif.g08.bks.cpg/sg90_1_cif.got.tgz:502.got - 2010.06.03 19:17:45.
