data_PCOD9547358
_publ_section_title
;
Structure prediction by ZEFSAII (Michael W. Deem and Ramdas Pophale) SiO2 
 PCOD9547358
Probable space group: P 4 21 2
;
_chemical_formula_sum "Si O2"
_cell_formula_units_Z 34
_cell_length_a 8.319013
_cell_length_b 8.319013
_cell_length_c 23.634448
_cell_angle_alpha 90.000000
_cell_angle_beta 90.000000
_cell_angle_gamma 90.000000
_cell_volume 1635.645072
_symmetry_space_group_name_H-M "P 4 21 2"
_symmetry_group_IT_number 90
_symmetry_cell_setting 'tetragonal'
loop_
_space_group_symop_operation_xyz
x,y,z
1/2-y,1/2+x,z
-x,-y,z
1/2+y,1/2-x,z
1/2+x,1/2-y,-z
1/2-x,1/2+y,-z
y,x,-z
-y,-x,-z
loop_
_atom_site_type_symbol
_atom_site_label
_atom_site_fract_x
_atom_site_fract_y
_atom_site_fract_z
Si Si1 0.000000 0.000000 0.500000
Si Si2 0.758872 0.915136 0.824903
Si Si3 0.083743 0.240604 0.052304
Si Si4 0.261904 0.578946 0.298684
Si Si5 0.735825 0.451807 0.603266
O O1 0.971898 0.853624 0.543530
O O2 0.597924 0.806395 0.825003
O O3 0.838783 0.887540 0.885812
O O4 0.837428 0.890742 0.763745
O O5 0.194108 0.401563 0.049389
O O6 0.130620 0.130620 0.000000
O O7 0.191826 0.397817 0.302537
O O8 0.384718 0.619071 0.348175
O O9 0.821829 0.622300 0.608553
#
# Coordination Sequence:
#
# PCOD9547358 Si02
#       5
#     2   8   8   8   8
#     4  12  24  44  64  80 108 152 190 216 260 344
#     4   7  12  26  49  75 103 140 188 233 272 328
#     4   9  17  30  48  71 102 142 189 239 285 331
#     4   9  17  33  60  89 114 146 188 231 282 350
#     4  11  24  40  59  85 115 145 181 231 283 328
#
# _framework density 20.786905999999998
#
# number of rings (size 3 to 8) (size 9 to 14) (size 15 to 20)
#    0.000    2.824    0.000    4.941    0.000    0.471 
#    0.000    4.706    0.000   11.294    0.000    0.000 
#    0.000    0.000    0.000    0.000    0.000    0.000 
#
# Total GULP energy -189441.820479 kJ/mol
# GULP energy per Si atom -5571.818249 kJ/mol
# Density = 2.073959 g / cm^3
# Si number density = 20.786906 Si / 1000 Ang^3
#
#
#
# Elastic Constant Matrix: (Units=GPa)
#
#
# Indices 1 2 3 4 5 6 
#
# 1 73.1289 41.1406 69.5333 0.0000 0.0000 0.0000
# 2 41.1406 73.1289 69.5333 0.0000 0.0000 0.0000
# 3 69.5333 69.5333 215.1547 0.0000 0.0000 0.0000
# 4 0.0000 0.0000 0.0000 6.4741 0.0000 0.0000
# 5 0.0000 0.0000 0.0000 0.0000 6.4741 0.0000
# 6 0.0000 0.0000 0.0000 0.0000 0.0000 31.1100
#
#
#
# Elastic Compliance Matrix: (Units=1/GPa)
#
#
# Indices 1 2 3 4 5 6 
#
# 1 0.022843 -0.008418 -0.004662 0.000000 0.000000 0.000000
# 2 -0.008418 0.022843 -0.004662 0.000000 0.000000 0.000000
# 3 -0.004662 -0.004662 0.007661 0.000000 0.000000 0.000000
# 4 0.000000 0.000000 0.000000 0.154462 0.000000 0.000000
# 5 0.000000 0.000000 0.000000 0.000000 0.154462 0.000000
# 6 0.000000 0.000000 0.000000 0.000000 0.000000 0.032144
#
#
# Mechanical properties :
#
#
# Convention : Reuss Voigt Hill
#
# Bulk Modulus (GPa) = 55.98086 80.20301 68.09193
# Shear Modulus (GPa) = 11.47174 20.89198 16.18186
#
# Velocity S-wave (km/s) = 2.35175 3.17370 2.79312
# Velocity P-wave (km/s) = 5.86205 7.21783 6.57497
#
# Compressibility (1/GPa) = 0.01786325
#
# Stress axis : x y z
#
# Youngs Moduli (GPa) = 43.77712 43.77712 130.53219
#
# Poissons Ratio (x) = 0.36853 0.60850
# Poissons Ratio (y) = 0.36853 0.60850
# Poissons Ratio (z) = 0.20408 0.20408
#
# Static dielectric constant tensor:
#      x y z
#    x 1.783720 0.000000 0.000000 
#    y 0.000000 1.783720 0.000000 
#    z 0.000000 0.000000 1.772870 
# 
# From -- ./inp_files/2725.got.cif
#   From: 2010.05.17/outbox.cif.g08.bks.cpg/sg90_2_cif.got.tgz:2725.got - 2010.06.03 19:17:45.
