data_PCOD9547307
_publ_section_title
;
Structure prediction by ZEFSAII (Michael W. Deem and Ramdas Pophale) SiO2 
 PCOD9547307
Probable space group: P 4 21 2
;
_chemical_formula_sum "Si O2"
_cell_formula_units_Z 34
_cell_length_a 11.908255
_cell_length_b 11.908255
_cell_length_c 10.898725
_cell_angle_alpha 90.000000
_cell_angle_beta 90.000000
_cell_angle_gamma 90.000000
_cell_volume 1545.510452
_symmetry_space_group_name_H-M "P 4 21 2"
_symmetry_group_IT_number 90
_symmetry_cell_setting 'tetragonal'
loop_
_space_group_symop_operation_xyz
x,y,z
1/2-y,1/2+x,z
-x,-y,z
1/2+y,1/2-x,z
1/2+x,1/2-y,-z
1/2-x,1/2+y,-z
y,x,-z
-y,-x,-z
loop_
_atom_site_type_symbol
_atom_site_label
_atom_site_fract_x
_atom_site_fract_y
_atom_site_fract_z
Si Si1 0.213839 0.149586 0.632354
Si Si2 0.249330 0.991353 0.250133
Si Si3 0.995667 0.812611 0.013469
Si Si4 0.082972 0.781906 0.278065
Si Si5 0.000000 0.500000 0.672761
O O1 0.205082 0.205082 0.500000
O O2 0.109267 0.194576 0.711412
O O3 0.331170 0.183557 0.692483
O O4 0.206194 0.015548 0.623395
O O5 0.158022 0.894279 0.273733
O O6 0.365079 0.968383 0.318281
O O7 0.268988 0.992629 0.102615
O O8 0.020023 0.765186 0.147750
O O9 0.877147 0.877147 0.000000
O O10 0.090759 0.909242 0.000000
#
# Coordination Sequence:
#
# PCOD9547307 Si02
#       5
#     8   8   8   8   2
#     4  12  28  45  73 104 148 199 258 310 375 458
#     4  11  23  45  72 104 144 190 245 319 386 460
#     4   9  18  39  72 104 139 182 239 309 377 455
#     4  11  25  47  73 106 144 198 250 314 389 449
#     4  12  24  40  68 108 142 176 240 312 392 442
#
# _framework density 21.999203000000001
#
# number of rings (size 3 to 8) (size 9 to 14) (size 15 to 20)
#    0.000    1.176    4.706    0.706    3.294    3.294 
#    4.235    0.000    0.000    0.000    0.000    0.000 
#    0.000    0.000    0.000    0.000    0.000    0.000 
#
# Total GULP energy -189640.472214 kJ/mol
# GULP energy per Si atom -5577.660947 kJ/mol
# Density = 2.194913 g / cm^3
# Si number density = 21.999203 Si / 1000 Ang^3
#
#
#
# Elastic Constant Matrix: (Units=GPa)
#
#
# Indices 1 2 3 4 5 6 
#
# 1 103.2363 35.9681 20.7235 0.0000 0.0000 0.0000
# 2 35.9681 103.2366 20.7233 0.0000 0.0000 0.0000
# 3 20.7235 20.7233 64.7367 0.0000 0.0000 0.0000
# 4 0.0000 0.0000 0.0000 16.2166 0.0000 0.0000
# 5 0.0000 0.0000 0.0000 0.0000 16.2167 0.0000
# 6 0.0000 0.0000 0.0000 0.0000 0.0000 29.0732
#
#
#
# Elastic Compliance Matrix: (Units=1/GPa)
#
#
# Indices 1 2 3 4 5 6 
#
# 1 0.011403 -0.003463 -0.002542 0.000000 0.000000 0.000000
# 2 -0.003463 0.011403 -0.002542 0.000000 0.000000 0.000000
# 3 -0.002542 -0.002542 0.017075 0.000000 0.000000 0.000000
# 4 0.000000 0.000000 0.000000 0.061665 0.000000 0.000000
# 5 0.000000 0.000000 0.000000 0.000000 0.061665 0.000000
# 6 0.000000 0.000000 0.000000 0.000000 0.000000 0.034396
#
#
# Mechanical properties :
#
#
# Convention : Reuss Voigt Hill
#
# Bulk Modulus (GPa) = 43.88271 47.33770 45.61021
# Shear Modulus (GPa) = 22.49256 25.22095 23.85675
#
# Velocity S-wave (km/s) = 3.20101 3.38960 3.29665
# Velocity P-wave (km/s) = 5.80109 6.07320 5.93871
#
# Compressibility (1/GPa) = 0.02278802
#
# Stress axis : x y z
#
# Youngs Moduli (GPa) = 87.69475 87.69511 58.56650
#
# Poissons Ratio (x) = 0.30366 0.14887
# Poissons Ratio (y) = 0.30366 0.14887
# Poissons Ratio (z) = 0.22291 0.22291
#
# Static dielectric constant tensor:
#      x y z
#    x 1.791110 0.000000 0.000000 
#    y 0.000000 1.791110 0.000000 
#    z 0.000000 0.000000 1.866370 
# 
# From -- ./inp_files/1897.got.cif
#   From: 2010.05.17/outbox.cif.g08.bks.cpg/sg90_1_cif.got.tgz:1897.got - 2010.06.03 19:17:45.
