data_PCOD9547696
_publ_section_title
;
Structure prediction by ZEFSAII (Michael W. Deem and Ramdas Pophale) SiO2 
 PCOD9547696
Probable space group: P 41 2 2
;
_chemical_formula_sum "Si O2"
_cell_formula_units_Z 32
_cell_length_a 8.267181
_cell_length_b 8.267181
_cell_length_c 22.137685
_cell_angle_alpha 90.000000
_cell_angle_beta 90.000000
_cell_angle_gamma 90.000000
_cell_volume 1513.028455
_symmetry_space_group_name_H-M "P 41 2 2"
_symmetry_group_IT_number 91
_symmetry_cell_setting 'tetragonal'
loop_
_space_group_symop_operation_xyz
x,y,z
-y,x,1/4+z
-x,-y,1/2+z
y,-x,3/4+z
x,-y,1/2-z
-x,y,-z
y,x,3/4-z
-y,-x,1/4-z
loop_
_atom_site_type_symbol
_atom_site_label
_atom_site_fract_x
_atom_site_fract_y
_atom_site_fract_z
Si Si1 0.796493 0.801788 0.940223
Si Si2 0.304133 0.841088 0.683901
Si Si3 0.840011 0.321112 0.434851
Si Si4 0.180147 0.799486 0.810095
O O1 0.737332 0.737332 0.875000
O O2 0.992344 0.780600 0.936022
O O3 0.991046 0.757611 0.804687
O O4 0.748563 0.717488 0.002809
O O5 0.259903 0.740098 0.625000
O O6 0.491741 0.886179 0.684080
O O7 0.264112 0.754587 0.747195
O O8 0.202488 0.007328 0.682901
O O9 0.754576 0.277094 0.372061
#
# Coordination Sequence:
#
# PCOD9547696 Si02
#       4
#     8   8   8   8
#     4   9  16  30  54  83 107 130 169 223 272 311
#     4  11  21  34  55  80 107 141 180 219 266 319
#     4  10  19  32  53  80 111 137 172 223 271 317
#     4  10  19  34  59  83 107 136 178 229 270 317
#
# _framework density 21.149633999999999
#
# number of rings (size 3 to 8) (size 9 to 14) (size 15 to 20)
#    0.000    2.000    0.000    9.750    0.000    1.000 
#    0.000    0.000    0.000   25.500    0.000    0.000 
#    0.000    0.000    0.000    0.000    0.000    0.000 
#
# Total GULP energy -178499.283517 kJ/mol
# GULP energy per Si atom -5578.102610 kJ/mol
# Density = 2.110150 g / cm^3
# Si number density = 21.149634 Si / 1000 Ang^3
#
#
#
# Elastic Constant Matrix: (Units=GPa)
#
#
# Indices 1 2 3 4 5 6 
#
# 1 25.0479 -2.3929 21.0834 0.0000 0.0000 0.0000
# 2 -2.3929 25.0484 21.0846 0.0000 0.0000 0.0000
# 3 21.0834 21.0846 233.1120 0.0000 0.0000 0.0000
# 4 0.0000 0.0000 0.0000 -15.7603 0.0000 0.0000
# 5 0.0000 0.0000 0.0000 0.0000 -15.7615 0.0000
# 6 0.0000 0.0000 0.0000 0.0000 0.0000 -9.7714
#
#
#
# Elastic Compliance Matrix: (Units=1/GPa)
#
#
# Indices 1 2 3 4 5 6 
#
# 1 0.044759 0.008317 -0.004800 0.000000 0.000000 0.000000
# 2 0.008317 0.044758 -0.004800 0.000000 0.000000 0.000000
# 3 -0.004800 -0.004800 0.005158 0.000000 0.000000 0.000000
# 4 0.000000 0.000000 0.000000 -0.063450 0.000000 0.000000
# 5 0.000000 0.000000 0.000000 0.000000 -0.063446 0.000000
# 6 0.000000 0.000000 0.000000 0.000000 0.000000 -0.102340
#
#
# Mechanical properties :
#
#
# Convention : Reuss Voigt Hill
#
# Bulk Modulus (GPa) = 10.85704 40.30651 25.58177
# Shear Modulus (GPa) = -49.36275 7.97024 -20.69626
#
# Velocity S-wave (km/s) = -4.83637 1.94337 -3.13159
# Velocity P-wave (km/s) = 5.10320 4.91271 0.97671
#
# Compressibility (1/GPa) = 0.09210616
#
# Stress axis : x y z
#
# Youngs Moduli (GPa) = 22.34212 22.34239 193.86847
#
# Poissons Ratio (x) = -0.18581 0.93063
# Poissons Ratio (y) = -0.18581 0.93066
# Poissons Ratio (z) = 0.10725 0.10725
#
# Static dielectric constant tensor:
#      x y z
#    x 1.717550 0.000000 0.000000 
#    y 0.000000 1.717550 0.000000 
#    z 0.000000 0.000000 1.903360 
# 
# From -- ./inp_files/21659.got.cif
#   From: 2010.05.17/outbox.cif.g08.bks.cpg/sg91_11_cif.got.tgz:21659.got - 2010.06.03 19:20:03.
