data_PCOD9547865
_publ_section_title
;
Structure prediction by ZEFSAII (Michael W. Deem and Ramdas Pophale) SiO2 
 PCOD9547865
Probable space group: P 41 2 2
;
_chemical_formula_sum "Si O2"
_cell_formula_units_Z 40
_cell_length_a 11.842261
_cell_length_b 11.842261
_cell_length_c 15.053734
_cell_angle_alpha 90.000000
_cell_angle_beta 90.000000
_cell_angle_gamma 90.000000
_cell_volume 2111.122794
_symmetry_space_group_name_H-M "P 41 2 2"
_symmetry_group_IT_number 91
_symmetry_cell_setting 'tetragonal'
loop_
_space_group_symop_operation_xyz
x,y,z
-y,x,1/4+z
-x,-y,1/2+z
y,-x,3/4+z
x,-y,1/2-z
-x,y,-z
y,x,3/4-z
-y,-x,1/4-z
loop_
_atom_site_type_symbol
_atom_site_label
_atom_site_fract_x
_atom_site_fract_y
_atom_site_fract_z
Si Si1 0.385168 0.060127 0.337490
Si Si2 0.896813 0.364500 0.260745
Si Si3 0.656340 0.030065 0.347594
Si Si4 0.709802 0.671134 0.609304
Si Si5 0.575570 0.686133 0.794012
O O1 0.519437 0.033700 0.341899
O O2 0.376043 0.193054 0.325880
O O3 0.338743 0.000000 0.250000
O O4 0.336953 0.001637 0.424367
O O5 0.889833 0.500000 0.250000
O O6 0.781782 0.327275 0.306314
O O7 0.931661 0.313915 0.166320
O O8 0.684713 0.156691 0.379417
O O9 0.700084 0.000000 0.250000
O O10 0.635169 0.658567 0.699847
O O11 0.696894 0.560460 0.546312
O O12 0.603023 0.396978 0.625000
#
# Coordination Sequence:
#
# PCOD9547865 Si02
#       5
#     8   8   8   8   8
#     4   9  16  34  58  79 112 148 209 252 272 340
#     4  10  20  35  60  90 116 156 208 253 296 357
#     4   9  20  37  57  83 114 153 203 255 297 340
#     4  11  23  38  60  91 125 163 204 247 313 372
#     4  11  22  37  58  88 131 166 195 245 314 377
#
# _framework density 18.947261999999998
#
# number of rings (size 3 to 8) (size 9 to 14) (size 15 to 20)
#    0.000    2.000    2.000    1.800    2.800    5.600 
#    0.000    0.000    0.000    0.000   20.800    0.000 
#    0.000    0.000    0.000    0.000    0.000    0.000 
#
# Total GULP energy -222930.986988 kJ/mol
# GULP energy per Si atom -5573.274675 kJ/mol
# Density = 1.890414 g / cm^3
# Si number density = 18.947262 Si / 1000 Ang^3
#
#
#
# Elastic Constant Matrix: (Units=GPa)
#
#
# Indices 1 2 3 4 5 6 
#
# 1 72.1586 16.4059 45.8885 0.0000 0.0000 0.0000
# 2 16.4059 72.1585 45.8874 0.0000 0.0000 0.0000
# 3 45.8885 45.8874 140.9333 0.0000 0.0000 0.0000
# 4 0.0000 0.0000 0.0000 25.9874 0.0000 0.0000
# 5 0.0000 0.0000 0.0000 0.0000 25.9877 0.0000
# 6 0.0000 0.0000 0.0000 0.0000 0.0000 -12.3596
#
#
#
# Elastic Compliance Matrix: (Units=1/GPa)
#
#
# Indices 1 2 3 4 5 6 
#
# 1 0.017489 -0.000448 -0.005549 0.000000 0.000000 0.000000
# 2 -0.000448 0.017489 -0.005548 0.000000 0.000000 0.000000
# 3 -0.005549 -0.005548 0.010709 0.000000 0.000000 0.000000
# 4 0.000000 0.000000 0.000000 0.038480 0.000000 0.000000
# 5 0.000000 0.000000 0.000000 0.000000 0.038480 0.000000
# 6 0.000000 0.000000 0.000000 0.000000 0.000000 -0.080909
#
#
# Mechanical properties :
#
#
# Convention : Reuss Voigt Hill
#
# Bulk Modulus (GPa) = 44.25465 55.73490 49.99478
# Shear Modulus (GPa) = 69.10016 19.72768 44.41392
#
# Velocity S-wave (km/s) = 6.04557 3.23025 4.84682
# Velocity P-wave (km/s) = 8.49349 6.58728 7.60038
#
# Compressibility (1/GPa) = 0.02259649
#
# Stress axis : x y z
#
# Youngs Moduli (GPa) = 57.17958 57.18026 93.38145
#
# Poissons Ratio (x) = 0.02560 0.51814
# Poissons Ratio (y) = 0.02560 0.51812
# Poissons Ratio (z) = 0.31727 0.31726
#
# Static dielectric constant tensor:
#      x y z
#    x 1.675330 0.000000 0.000000 
#    y 0.000000 1.675330 0.000000 
#    z 0.000000 0.000000 1.692550 
# 
# From -- ./inp_files/16364.got.cif
#   From: 2010.05.17/outbox.cif.g08.bks.cpg/sg91_9_cif.got.tgz:16364.got - 2010.06.03 19:20:03.
