data_PCOD9547869
_publ_section_title
;
Structure prediction by ZEFSAII (Michael W. Deem and Ramdas Pophale) SiO2 
 PCOD9547869
Probable space group: P 41 2 2
;
_chemical_formula_sum "Si O2"
_cell_formula_units_Z 60
_cell_length_a 10.991770
_cell_length_b 10.991770
_cell_length_c 23.124263
_cell_angle_alpha 90.000000
_cell_angle_beta 90.000000
_cell_angle_gamma 90.000000
_cell_volume 2793.850510
_symmetry_space_group_name_H-M "P 41 2 2"
_symmetry_group_IT_number 91
_symmetry_cell_setting 'tetragonal'
loop_
_space_group_symop_operation_xyz
x,y,z
-y,x,1/4+z
-x,-y,1/2+z
y,-x,3/4+z
x,-y,1/2-z
-x,y,-z
y,x,3/4-z
-y,-x,1/4-z
loop_
_atom_site_type_symbol
_atom_site_label
_atom_site_fract_x
_atom_site_fract_y
_atom_site_fract_z
Si Si1 0.200402 0.045897 0.508044
Si Si2 0.936639 0.369793 0.339723
Si Si3 0.776667 0.490810 0.568885
Si Si4 0.877340 0.435420 0.811189
Si Si5 0.730452 0.083681 0.697935
Si Si6 0.384203 0.000000 0.750000
Si Si7 0.629411 0.700954 0.529186
Si Si8 0.203184 0.835031 0.690940
O O1 0.290208 0.116671 0.552203
O O2 0.121281 0.134908 0.468033
O O3 0.297429 0.983210 0.465946
O O4 0.134120 0.935562 0.540548
O O5 0.791552 0.367406 0.334568
O O6 0.992893 0.504886 0.331521
O O7 0.000276 0.299355 0.392553
O O8 0.792433 0.524994 0.635987
O O9 0.793151 0.347098 0.560543
O O10 0.661810 0.563203 0.545427
O O11 0.892445 0.543408 0.532206
O O12 0.845490 0.500000 0.750000
O O13 0.685354 0.000000 0.750000
O O14 0.294512 0.054739 0.798267
O O15 0.500000 0.713264 0.500000
O O16 0.729837 0.747522 0.483414
O O17 0.204563 0.795438 0.625000
#
# Coordination Sequence:
#
# PCOD9547869 Si02
#       8
#     8   8   8   8   8   4   8   8
#     4  10  20  36  58  91 122 160 210 256 315 388
#     4   9  19  38  62  88 121 162 208 263 315 383
#     4  10  21  39  59  86 126 162 210 266 317 383
#     4   9  18  35  62  88 115 162 207 247 312 386
#     4  11  23  37  57  88 123 169 210 258 323 396
#     4  10  20  36  54  82 120 164 202 252 326 382
#     4  10  21  40  66  96 124 163 221 269 323 388
#     4  10  21  38  60  89 127 165 202 266 330 387
#
# _framework density 21.475736999999999
#
# number of rings (size 3 to 8) (size 9 to 14) (size 15 to 20)
#    0.000    2.133    0.667    3.200    2.800    1.067 
#    2.400    2.000    0.000    1.600    0.000    0.000 
#    0.000    0.000    0.000    0.000    0.000    0.000 
#
# Total GULP energy -334683.284048 kJ/mol
# GULP energy per Si atom -5578.054734 kJ/mol
# Density = 2.142686 g / cm^3
# Si number density = 21.475737 Si / 1000 Ang^3
#
#
#
# Elastic Constant Matrix: (Units=GPa)
#
#
# Indices 1 2 3 4 5 6 
#
# 1 38.7452 13.2087 -12.2387 0.0000 0.0000 0.0000
# 2 13.2087 38.7449 -12.2390 0.0000 0.0000 0.0000
# 3 -12.2387 -12.2390 58.3027 0.0000 0.0000 0.0000
# 4 0.0000 0.0000 0.0000 18.7954 0.0000 0.0000
# 5 0.0000 0.0000 0.0000 0.0000 18.7954 0.0000
# 6 0.0000 0.0000 0.0000 0.0000 0.0000 -19.2915
#
#
#
# Elastic Compliance Matrix: (Units=1/GPa)
#
#
# Indices 1 2 3 4 5 6 
#
# 1 0.030260 -0.008900 0.004484 0.000000 0.000000 0.000000
# 2 -0.008900 0.030260 0.004484 0.000000 0.000000 0.000000
# 3 0.004484 0.004484 0.019034 0.000000 0.000000 0.000000
# 4 0.000000 0.000000 0.000000 0.053205 0.000000 0.000000
# 5 0.000000 0.000000 0.000000 0.000000 0.053205 0.000000
# 6 0.000000 0.000000 0.000000 0.000000 0.000000 -0.051836
#
#
# Mechanical properties :
#
#
# Convention : Reuss Voigt Hill
#
# Bulk Modulus (GPa) = 12.54843 12.58387 12.56615
# Shear Modulus (GPa) = 31.14200 13.46397 22.30298
#
# Velocity S-wave (km/s) = 3.81215 2.50659 3.22610
# Velocity P-wave (km/s) = 5.02319 3.77487 4.44309
#
# Compressibility (1/GPa) = 0.07969123
#
# Stress axis : x y z
#
# Youngs Moduli (GPa) = 33.04692 33.04652 52.53646
#
# Poissons Ratio (x) = 0.29410 -0.23557
# Poissons Ratio (y) = 0.29411 -0.23558
# Poissons Ratio (z) = -0.14818 -0.14818
#
# Static dielectric constant tensor:
#      x y z
#    x 1.822080 0.000000 0.000000 
#    y 0.000000 1.822080 0.000000 
#    z 0.000000 0.000000 1.771270 
# 
# From -- ./inp_files/12512.got.cif
#   From: 2010.05.17/outbox.cif.g08.bks.cpg/sg91_7_cif.got.tgz:12512.got - 2010.06.03 19:20:03.
