data_PCOD9547742
_publ_section_title
;
Structure prediction by ZEFSAII (Michael W. Deem and Ramdas Pophale) SiO2 
 PCOD9547742
Probable space group: P 41 2 2
;
_chemical_formula_sum "Si O2"
_cell_formula_units_Z 40
_cell_length_a 10.403868
_cell_length_b 10.403868
_cell_length_c 14.208320
_cell_angle_alpha 90.000000
_cell_angle_beta 90.000000
_cell_angle_gamma 90.000000
_cell_volume 1537.915226
_symmetry_space_group_name_H-M "P 41 2 2"
_symmetry_group_IT_number 91
_symmetry_cell_setting 'tetragonal'
loop_
_space_group_symop_operation_xyz
x,y,z
-y,x,1/4+z
-x,-y,1/2+z
y,-x,3/4+z
x,-y,1/2-z
-x,y,-z
y,x,3/4-z
-y,-x,1/4-z
loop_
_atom_site_type_symbol
_atom_site_label
_atom_site_fract_x
_atom_site_fract_y
_atom_site_fract_z
Si Si1 0.368497 0.656454 0.017495
Si Si2 0.401268 0.266846 0.790920
Si Si3 0.904642 0.210834 0.710403
Si Si4 0.086898 0.278847 0.092015
Si Si5 0.531774 0.951345 0.599625
O O1 0.375694 0.624307 0.125000
O O2 0.254130 0.758676 0.012116
O O3 0.500000 0.728953 0.000000
O O4 0.365094 0.517994 0.969505
O O5 0.309573 0.309573 0.875000
O O6 0.308718 0.227950 0.703388
O O7 0.492485 0.144809 0.817396
O O8 0.889755 0.110246 0.625000
O O9 0.948898 0.188115 0.818670
O O10 0.985146 0.328930 0.663376
O O11 0.053949 0.418905 0.134459
O O12 0.000000 0.248116 0.000000
O O13 0.500000 0.883724 0.500000
#
# Coordination Sequence:
#
# PCOD9547742 Si02
#       5
#     8   8   8   8   8
#     4  11  21  33  50  78 123 173 218 270 336 413
#     4  11  23  36  55  89 135 183 223 270 343 429
#     4  10  19  35  60  87 118 166 226 287 344 406
#     4   9  18  35  55  79 120 167 213 275 339 399
#     4   9  19  37  59  85 125 171 227 286 336 401
#
# _framework density 26.009238
#
# number of rings (size 3 to 8) (size 9 to 14) (size 15 to 20)
#    0.000    2.000    0.000    6.000    0.000    4.000 
#    0.000    4.000    0.000    0.000    0.000    0.000 
#    0.000  336.000    0.000    0.000    0.000    0.000 
#
# Total GULP energy -222783.689805 kJ/mol
# GULP energy per Si atom -5569.592245 kJ/mol
# Density = 2.595004 g / cm^3
# Si number density = 26.009238 Si / 1000 Ang^3
#
#
#
# Elastic Constant Matrix: (Units=GPa)
#
#
# Indices 1 2 3 4 5 6 
#
# 1 70.6099 9.9046 21.8546 0.0000 0.0000 0.0000
# 2 9.9046 70.6100 21.8545 0.0000 0.0000 0.0000
# 3 21.8546 21.8545 150.9280 0.0000 0.0000 0.0000
# 4 0.0000 0.0000 0.0000 39.5682 0.0000 0.0000
# 5 0.0000 0.0000 0.0000 0.0000 39.5679 0.0000
# 6 0.0000 0.0000 0.0000 0.0000 0.0000 16.9378
#
#
#
# Elastic Compliance Matrix: (Units=1/GPa)
#
#
# Indices 1 2 3 4 5 6 
#
# 1 0.014976 -0.001497 -0.001952 0.000000 0.000000 0.000000
# 2 -0.001497 0.014976 -0.001952 0.000000 0.000000 0.000000
# 3 -0.001952 -0.001952 0.007191 0.000000 0.000000 0.000000
# 4 0.000000 0.000000 0.000000 0.025273 0.000000 0.000000
# 5 0.000000 0.000000 0.000000 0.000000 0.025273 0.000000
# 6 0.000000 0.000000 0.000000 0.000000 0.000000 0.059040
#
#
# Mechanical properties :
#
#
# Convention : Reuss Voigt Hill
#
# Bulk Modulus (GPa) = 37.96091 44.37504 41.16797
# Shear Modulus (GPa) = 30.06417 35.11705 32.59061
#
# Velocity S-wave (km/s) = 3.40355 3.67846 3.54367
# Velocity P-wave (km/s) = 5.48383 5.92788 5.71017
#
# Compressibility (1/GPa) = 0.02634289
#
# Stress axis : x y z
#
# Youngs Moduli (GPa) = 66.77179 66.77190 139.06373
#
# Poissons Ratio (x) = 0.09993 0.27144
# Poissons Ratio (y) = 0.09993 0.27144
# Poissons Ratio (z) = 0.13033 0.13033
#
# Static dielectric constant tensor:
#      x y z
#    x 2.117600 0.000000 0.000000 
#    y 0.000000 2.117600 0.000000 
#    z 0.000000 0.000000 2.116090 
# 
# From -- ./inp_files/11359.got.cif
#   From: 2010.05.17/outbox.cif.g08.bks.cpg/sg91_6_cif.got.tgz:11359.got - 2010.06.03 19:20:03.
