data_PCOD9547263
_publ_section_title
;
Structure prediction by ZEFSAII (Michael W. Deem and Ramdas Pophale) SiO2 
 PCOD9547263
Probable space group: P 4 21 2
;
_chemical_formula_sum "Si O2"
_cell_formula_units_Z 42
_cell_length_a 14.476514
_cell_length_b 14.476514
_cell_length_c 9.139644
_cell_angle_alpha 90.000000
_cell_angle_beta 90.000000
_cell_angle_gamma 90.000000
_cell_volume 1915.390236
_symmetry_space_group_name_H-M "P 4 21 2"
_symmetry_group_IT_number 90
_symmetry_cell_setting 'tetragonal'
loop_
_space_group_symop_operation_xyz
x,y,z
1/2-y,1/2+x,z
-x,-y,z
1/2+y,1/2-x,z
1/2+x,1/2-y,-z
1/2-x,1/2+y,-z
y,x,-z
-y,-x,-z
loop_
_atom_site_type_symbol
_atom_site_label
_atom_site_fract_x
_atom_site_fract_y
_atom_site_fract_z
Si Si1 0.690854 0.289219 0.828735
Si Si2 0.656340 0.671436 0.674799
Si Si3 0.460114 0.645457 0.368382
Si Si4 0.481681 0.857513 0.447349
Si Si5 0.686184 0.998575 0.773738
Si Si6 0.500000 0.000000 0.910967
O O1 0.781729 0.245211 0.752050
O O2 0.657753 0.385884 0.759374
O O3 0.602027 0.226294 0.801043
O O4 0.706063 0.293938 0.000000
O O5 0.676540 0.676540 0.500000
O O6 0.626568 0.563700 0.690236
O O7 0.573069 0.734158 0.737813
O O8 0.420074 0.579927 0.500000
O O9 0.467931 0.750175 0.426411
O O10 0.577399 0.900067 0.388343
O O11 0.488596 0.867224 0.621010
O O12 0.611530 0.025158 0.895637
#
# Coordination Sequence:
#
# PCOD9547263 Si02
#       6
#     8   8   8   8   8   2
#     4  12  28  46  67 100 149 197 237 290 360 435
#     4  12  25  43  75 111 138 184 243 308 364 429
#     4  12  25  43  69 102 148 185 237 298 365 434
#     4  11  19  36  67 101 132 170 226 295 363 414
#     4  12  22  41  72 104 137 179 234 293 364 422
#     4  12  20  40  76 104 130 176 240 296 342 424
#
# _framework density 21.927645999999999
#
# number of rings (size 3 to 8) (size 9 to 14) (size 15 to 20)
#    0.000    0.190    7.619    1.714    0.000    4.190 
#    0.000    0.952    0.000    0.000    0.000    0.000 
#    0.000    0.000    0.000    0.000    0.000    0.000 
#
# Total GULP energy -233930.099405 kJ/mol
# GULP energy per Si atom -5569.764272 kJ/mol
# Density = 2.187774 g / cm^3
# Si number density = 21.927646 Si / 1000 Ang^3
#
#
#
# Elastic Constant Matrix: (Units=GPa)
#
#
# Indices 1 2 3 4 5 6 
#
# 1 201.0594 44.6801 -46.1026 0.0000 0.0000 0.0000
# 2 44.6801 201.0502 -46.2765 0.0000 0.0000 0.0000
# 3 -46.1026 -46.2765-3276.7272 0.0000 0.0000 0.0000
# 4 0.0000 0.0000 0.0000 -24.7662 0.0000 0.0000
# 5 0.0000 0.0000 0.0000 0.0000 -24.7641 0.0000
# 6 0.0000 0.0000 0.0000 0.0000 0.0000 44.7841
#
#
#
# Elastic Compliance Matrix: (Units=1/GPa)
#
#
# Indices 1 2 3 4 5 6 
#
# 1 0.005221 -0.001173 -0.000057 0.000000 0.000000 0.000000
# 2 -0.001173 0.005221 -0.000057 0.000000 0.000000 0.000000
# 3 -0.000057 -0.000057 -0.000304 0.000000 0.000000 0.000000
# 4 0.000000 0.000000 0.000000 -0.040378 0.000000 0.000000
# 5 0.000000 0.000000 0.000000 0.000000 -0.040381 0.000000
# 6 0.000000 0.000000 0.000000 0.000000 0.000000 0.022329
#
#
# Mechanical properties :
#
#
# Convention : Reuss Voigt Hill
#
# Bulk Modulus (GPa) = 132.20288 -330.00173 -98.89943
# Shear Modulus (GPa) = -115.75797 -189.41047 -152.58422
#
# Velocity S-wave (km/s) = -7.27362 -9.30415 -8.35083
# Velocity P-wave (km/s) = 3.18108 16.31703 11.75510
#
# Compressibility (1/GPa) = 0.00756413
#
# Stress axis : x y z
#
# Youngs Moduli (GPa) = 191.52025 191.51616 -3294.09135
#
# Poissons Ratio (x) = 0.22474 -0.18740
# Poissons Ratio (y) = 0.22474 -0.18853
# Poissons Ratio (z) = 0.01090 0.01096
#
# Static dielectric constant tensor:
#      x y z
#    x 1.866060 0.000000 0.000000 
#    y 0.000000 1.866050 0.000000 
#    z 0.000000 0.000000 1.786640 
# 
# From -- ./inp_files/1356.got.cif
#   From: 2010.05.17/outbox.cif.g08.bks.cpg/sg90_1_cif.got.tgz:1356.got - 2010.06.03 19:17:45.
