data_PCOD9547149
_publ_section_title
;
Structure prediction by ZEFSAII (Michael W. Deem and Ramdas Pophale) SiO2 
 PCOD9547149
Probable space group: P 4 21 2
;
_chemical_formula_sum "Si O2"
_cell_formula_units_Z 52
_cell_length_a 20.654821
_cell_length_b 20.654821
_cell_length_c 5.874819
_cell_angle_alpha 90.000000
_cell_angle_beta 90.000000
_cell_angle_gamma 90.000000
_cell_volume 2506.324861
_symmetry_space_group_name_H-M "P 4 21 2"
_symmetry_group_IT_number 90
_symmetry_cell_setting 'tetragonal'
loop_
_space_group_symop_operation_xyz
x,y,z
1/2-y,1/2+x,z
-x,-y,z
1/2+y,1/2-x,z
1/2+x,1/2-y,-z
1/2-x,1/2+y,-z
y,x,-z
-y,-x,-z
loop_
_atom_site_type_symbol
_atom_site_label
_atom_site_fract_x
_atom_site_fract_y
_atom_site_fract_z
Si Si1 0.705585 0.952183 0.691216
Si Si2 0.440046 0.197530 0.364269
Si Si3 0.195072 0.008405 0.055695
Si Si4 0.345647 0.832161 0.032371
Si Si5 0.216054 0.129062 0.337668
Si Si6 0.339137 0.269255 0.671106
Si Si7 0.380683 0.380683 0.000000
O O1 0.730747 0.902667 0.503178
O O2 0.670048 0.009303 0.551255
O O3 0.771782 0.976775 0.812932
O O4 0.667936 0.911134 0.881858
O O5 0.478398 0.243838 0.192078
O O6 0.391083 0.154974 0.212877
O O7 0.395634 0.244725 0.510695
O O8 0.178320 0.073217 0.195965
O O9 0.139030 0.955109 0.038129
O O10 0.338388 0.762306 0.151234
O O11 0.283972 0.835841 0.867390
O O12 0.170574 0.170574 0.500000
O O13 0.278989 0.278989 0.500000
O O14 0.355825 0.337221 0.788673
#
# Coordination Sequence:
#
# PCOD9547149 Si02
#       7
#     8   8   8   8   8   8   4
#     4  10  22  39  59  85 130 177 212 261 332 388
#     4  11  20  37  57  89 130 166 212 265 326 397
#     4  10  21  38  61  89 124 170 220 263 325 384
#     4  11  23  37  58  92 133 169 222 266 334 407
#     4  10  24  42  60  87 130 181 218 269 329 396
#     4  12  22  34  59  97 132 161 197 267 336 389
#     4  12  20  36  60  97 124 172 214 277 320 388
#
# _framework density 20.747508
#
# number of rings (size 3 to 8) (size 9 to 14) (size 15 to 20)
#    0.000    1.231    4.615    0.923    0.000    8.615 
#    0.000    0.000    0.000    2.769    0.000    0.000 
#    0.000  718.769    0.000    0.000    0.000    0.000 
#
# Total GULP energy -290347.720164 kJ/mol
# GULP energy per Si atom -5583.610003 kJ/mol
# Density = 2.070029 g / cm^3
# Si number density = 20.747508 Si / 1000 Ang^3
#
#
#
# Elastic Constant Matrix: (Units=GPa)
#
#
# Indices 1 2 3 4 5 6 
#
# 1 62.7549 41.5736 33.1744 0.0000 0.0000 0.0000
# 2 41.5736 62.7549 33.1744 0.0000 0.0000 0.0000
# 3 33.1744 33.1744 98.0761 0.0000 0.0000 0.0000
# 4 0.0000 0.0000 0.0000 42.6226 0.0000 0.0000
# 5 0.0000 0.0000 0.0000 0.0000 42.6226 0.0000
# 6 0.0000 0.0000 0.0000 0.0000 0.0000 20.1638
#
#
#
# Elastic Compliance Matrix: (Units=1/GPa)
#
#
# Indices 1 2 3 4 5 6 
#
# 1 0.029712 -0.017500 -0.004131 0.000000 0.000000 0.000000
# 2 -0.017500 0.029712 -0.004131 0.000000 0.000000 0.000000
# 3 -0.004131 -0.004131 0.012991 0.000000 0.000000 0.000000
# 4 0.000000 0.000000 0.000000 0.023462 0.000000 0.000000
# 5 0.000000 0.000000 0.000000 0.000000 0.023462 0.000000
# 6 0.000000 0.000000 0.000000 0.000000 0.000000 0.049594
#
#
# Mechanical properties :
#
#
# Convention : Reuss Voigt Hill
#
# Bulk Modulus (GPa) = 47.86566 48.82561 48.34564
# Shear Modulus (GPa) = 21.98594 28.79270 25.38932
#
# Velocity S-wave (km/s) = 3.25882 3.72932 3.50198
# Velocity P-wave (km/s) = 6.10578 6.49061 6.30113
#
# Compressibility (1/GPa) = 0.02089180
#
# Stress axis : x y z
#
# Youngs Moduli (GPa) = 33.65663 33.65663 76.97852
#
# Poissons Ratio (x) = 0.58898 0.31798
# Poissons Ratio (y) = 0.58898 0.31798
# Poissons Ratio (z) = 0.13903 0.13903
#
# Static dielectric constant tensor:
#      x y z
#    x 1.770050 0.000000 0.000000 
#    y 0.000000 1.770050 0.000000 
#    z 0.000000 0.000000 1.790240 
# 
# From -- ./inp_files/679.got.cif
#   From: 2010.05.17/outbox.cif.g08.bks.cpg/sg90_1_cif.got.tgz:679.got - 2010.06.03 19:17:45.
