data_PCOD9547576
_publ_section_title
;
Structure prediction by ZEFSAII (Michael W. Deem and Ramdas Pophale) SiO2 
 PCOD9547576
Probable space group: P 41 2 2
;
_chemical_formula_sum "Si O2"
_cell_formula_units_Z 48
_cell_length_a 12.813194
_cell_length_b 12.813194
_cell_length_c 17.570136
_cell_angle_alpha 90.000000
_cell_angle_beta 90.000000
_cell_angle_gamma 90.000000
_cell_volume 2884.628742
_symmetry_space_group_name_H-M "P 41 2 2"
_symmetry_group_IT_number 91
_symmetry_cell_setting 'tetragonal'
loop_
_space_group_symop_operation_xyz
x,y,z
-y,x,1/4+z
-x,-y,1/2+z
y,-x,3/4+z
x,-y,1/2-z
-x,y,-z
y,x,3/4-z
-y,-x,1/4-z
loop_
_atom_site_type_symbol
_atom_site_label
_atom_site_fract_x
_atom_site_fract_y
_atom_site_fract_z
Si Si1 0.500000 0.942706 0.500000
Si Si2 0.135701 0.118786 0.617617
Si Si3 0.618564 0.119549 0.407766
Si Si4 0.083934 0.362815 0.611933
Si Si5 0.000000 0.987274 0.500000
Si Si6 0.860052 0.575227 0.944126
Si Si7 0.355665 0.644336 0.125000
Si Si8 0.707660 0.500000 0.750000
O O1 0.577474 0.017576 0.452110
O O2 0.429772 0.885895 0.436439
O O3 0.260485 0.109416 0.610950
O O4 0.111232 0.241797 0.618578
O O5 0.085508 0.063555 0.691404
O O6 0.079131 0.061411 0.546807
O O7 0.544750 0.136034 0.333987
O O8 0.587328 0.216178 0.462906
O O9 0.130620 0.410202 0.534166
O O10 0.959343 0.373241 0.598074
O O11 0.756204 0.629649 0.913966
O O12 0.445819 0.639113 0.063284
#
# Coordination Sequence:
#
# PCOD9547576 Si02
#       8
#     4   8   8   8   4   8   4   4
#     4   9  18  32  50  75 100 130 174 215 254 303
#     4  11  21  36  51  73 108 139 170 211 250 304
#     4   9  18  33  52  72  99 133 170 212 259 303
#     4  10  19  31  52  77 101 132 170 216 258 296
#     4  10  24  34  48  76 104 144 178 194 250 314
#     4   9  19  32  52  79  98 126 171 215 261 302
#     4  10  18  32  52  76 104 126 164 212 256 306
#     4   9  18  30  52  79  96 128 166 205 264 309
#
# _framework density 16.639921999999999
#
# number of rings (size 3 to 8) (size 9 to 14) (size 15 to 20)
#    0.000    2.333    0.000    4.000    0.000    5.333 
#    0.000    0.000    0.000    9.000    0.000    0.000 
#    0.000    0.000    0.000    0.000    0.000    0.000 
#
# Total GULP energy -267647.578012 kJ/mol
# GULP energy per Si atom -5575.991209 kJ/mol
# Density = 1.660205 g / cm^3
# Si number density = 16.639922 Si / 1000 Ang^3
#
#
#
# Elastic Constant Matrix: (Units=GPa)
#
#
# Indices 1 2 3 4 5 6 
#
# 1 106.7102 60.7765 58.1642 0.0000 0.0000 0.0000
# 2 60.7765 106.7112 58.1652 0.0000 0.0000 0.0000
# 3 58.1642 58.1652 122.5763 0.0000 0.0000 0.0000
# 4 0.0000 0.0000 0.0000 18.5310 0.0000 0.0000
# 5 0.0000 0.0000 0.0000 0.0000 18.5312 0.0000
# 6 0.0000 0.0000 0.0000 0.0000 0.0000 13.3854
#
#
#
# Elastic Compliance Matrix: (Units=1/GPa)
#
#
# Indices 1 2 3 4 5 6 
#
# 1 0.015338 -0.006432 -0.004226 0.000000 0.000000 0.000000
# 2 -0.006432 0.015338 -0.004226 0.000000 0.000000 0.000000
# 3 -0.004226 -0.004226 0.012169 0.000000 0.000000 0.000000
# 4 0.000000 0.000000 0.000000 0.053964 0.000000 0.000000
# 5 0.000000 0.000000 0.000000 0.000000 0.053963 0.000000
# 6 0.000000 0.000000 0.000000 0.000000 0.000000 0.074708
#
#
# Mechanical properties :
#
#
# Convention : Reuss Voigt Hill
#
# Bulk Modulus (GPa) = 76.47306 76.68995 76.58150
# Shear Modulus (GPa) = 19.25991 20.68232 19.97112
#
# Velocity S-wave (km/s) = 3.40583 3.52935 3.46814
# Velocity P-wave (km/s) = 7.84369 7.92442 7.88416
#
# Compressibility (1/GPa) = 0.01307650
#
# Stress axis : x y z
#
# Youngs Moduli (GPa) = 65.19747 65.19752 82.17757
#
# Poissons Ratio (x) = 0.41937 0.34727
# Poissons Ratio (y) = 0.41937 0.34729
# Poissons Ratio (z) = 0.27552 0.27553
#
# Static dielectric constant tensor:
#      x y z
#    x 1.542890 0.000000 0.000000 
#    y 0.000000 1.542890 0.000000 
#    z 0.000000 0.000000 1.586180 
# 
# From -- ./inp_files/12011.got.cif
#   From: 2010.05.17/outbox.cif.g08.bks.cpg/sg91_7_cif.got.tgz:12011.got - 2010.06.03 19:20:03.
