data_PCOD9547745
_publ_section_title
;
Structure prediction by ZEFSAII (Michael W. Deem and Ramdas Pophale) SiO2 
 PCOD9547745
Probable space group: P 41 2 2
;
_chemical_formula_sum "Si O2"
_cell_formula_units_Z 64
_cell_length_a 11.879622
_cell_length_b 11.879622
_cell_length_c 26.726729
_cell_angle_alpha 90.000000
_cell_angle_beta 90.000000
_cell_angle_gamma 90.000000
_cell_volume 3771.820825
_symmetry_space_group_name_H-M "P 41 2 2"
_symmetry_group_IT_number 91
_symmetry_cell_setting 'tetragonal'
loop_
_space_group_symop_operation_xyz
x,y,z
-y,x,1/4+z
-x,-y,1/2+z
y,-x,3/4+z
x,-y,1/2-z
-x,y,-z
y,x,3/4-z
-y,-x,1/4-z
loop_
_atom_site_type_symbol
_atom_site_label
_atom_site_fract_x
_atom_site_fract_y
_atom_site_fract_z
Si Si1 0.349729 0.809892 0.231742
Si Si2 0.422920 0.889988 0.782846
Si Si3 0.921234 0.107459 0.869617
Si Si4 0.834753 0.871997 0.232502
Si Si5 0.391386 0.184390 0.468868
Si Si6 0.043755 0.306129 0.575733
Si Si7 0.004907 0.294725 0.793055
Si Si8 0.975170 0.502043 0.639376
O O1 0.483712 0.795898 0.227444
O O2 0.279026 0.703662 0.213570
O O3 0.318457 0.852572 0.287307
O O4 0.327197 0.922334 0.199311
O O5 0.299381 0.857147 0.765111
O O6 0.455664 0.000000 0.750000
O O7 0.431200 0.927986 0.840780
O O8 0.873232 0.136487 0.924025
O O9 0.821199 0.040429 0.843558
O O10 0.950451 0.213549 0.834905
O O11 0.031822 0.031822 0.875000
O O12 0.900565 0.779196 0.264869
O O13 0.862095 0.000000 0.250000
O O14 0.500000 0.225998 0.500000
O O15 0.332906 0.085832 0.501686
O O16 0.440958 0.126630 0.419052
O O17 0.052514 0.401549 0.618243
O O18 0.034065 0.409728 0.822979
#
# Coordination Sequence:
#
# PCOD9547745 Si02
#       8
#     8   8   8   8   8   8   8   8
#     4  10  19  36  56  82 110 144 191 245 288 337
#     4  10  19  36  57  82 113 150 199 237 283 348
#     4  12  23  34  55  86 119 157 184 236 297 354
#     4  11  23  36  55  85 121 157 190 237 294 349
#     4  10  22  36  55  81 115 152 190 244 298 342
#     4  10  21  33  57  83 112 148 188 240 287 346
#     4  11  22  38  56  83 123 154 197 236 289 365
#     4  10  20  38  57  82 113 158 200 230 290 357
#
# _framework density 16.967932000000001
#
# number of rings (size 3 to 8) (size 9 to 14) (size 15 to 20)
#    0.000    1.500    6.250    0.750    3.500    1.500 
#    0.000    0.000    0.000    3.750    0.000    3.500 
#    0.000    0.000    0.000    0.000    0.000    0.000 
#
# Total GULP energy -356727.833991 kJ/mol
# GULP energy per Si atom -5573.872406 kJ/mol
# Density = 1.692931 g / cm^3
# Si number density = 16.967932 Si / 1000 Ang^3
#
#
#
# Elastic Constant Matrix: (Units=GPa)
#
#
# Indices 1 2 3 4 5 6 
#
# 1 76.8032 43.0540 29.3403 0.0000 0.0000 0.0000
# 2 43.0540 76.8032 29.3403 0.0000 0.0000 0.0000
# 3 29.3403 29.3403 88.3776 0.0000 0.0000 0.0000
# 4 0.0000 0.0000 0.0000 21.4851 0.0000 0.0000
# 5 0.0000 0.0000 0.0000 0.0000 21.4851 0.0000
# 6 0.0000 0.0000 0.0000 0.0000 0.0000 7.2062
#
#
#
# Elastic Compliance Matrix: (Units=1/GPa)
#
#
# Indices 1 2 3 4 5 6 
#
# 1 0.019796 -0.009834 -0.003307 0.000000 0.000000 0.000000
# 2 -0.009834 0.019796 -0.003307 0.000000 0.000000 0.000000
# 3 -0.003307 -0.003307 0.013511 0.000000 0.000000 0.000000
# 4 0.000000 0.000000 0.000000 0.046544 0.000000 0.000000
# 5 0.000000 0.000000 0.000000 0.000000 0.046544 0.000000
# 6 0.000000 0.000000 0.000000 0.000000 0.000000 0.138770
#
#
# Mechanical properties :
#
#
# Convention : Reuss Voigt Hill
#
# Bulk Modulus (GPa) = 49.48913 49.49481 49.49197
# Shear Modulus (GPa) = 15.40384 19.38526 17.39455
#
# Velocity S-wave (km/s) = 3.01627 3.38370 3.20526
# Velocity P-wave (km/s) = 6.43119 6.67075 6.55206
#
# Compressibility (1/GPa) = 0.02020646
#
# Stress axis : x y z
#
# Youngs Moduli (GPa) = 50.51420 50.51420 74.01292
#
# Poissons Ratio (x) = 0.49675 0.24479
# Poissons Ratio (y) = 0.49675 0.24479
# Poissons Ratio (z) = 0.16707 0.16707
#
# Static dielectric constant tensor:
#      x y z
#    x 1.578040 0.000000 0.000000 
#    y 0.000000 1.578040 0.000000 
#    z 0.000000 0.000000 1.619750 
# 
# From -- ./inp_files/22047.got.cif
#   From: 2010.05.17/outbox.cif.g08.bks.cpg/sg91_12_cif.got.tgz:22047.got - 2010.06.03 19:20:03.
