data_PCOD9547330
_publ_section_title
;
Structure prediction by ZEFSAII (Michael W. Deem and Ramdas Pophale) SiO2 
 PCOD9547330
Probable space group: P 4 21 2
;
_chemical_formula_sum "Si O2"
_cell_formula_units_Z 50
_cell_length_a 8.310822
_cell_length_b 8.310822
_cell_length_c 34.179284
_cell_angle_alpha 90.000000
_cell_angle_beta 90.000000
_cell_angle_gamma 90.000000
_cell_volume 2360.755022
_symmetry_space_group_name_H-M "P 4 21 2"
_symmetry_group_IT_number 90
_symmetry_cell_setting 'tetragonal'
loop_
_space_group_symop_operation_xyz
x,y,z
1/2-y,1/2+x,z
-x,-y,z
1/2+y,1/2-x,z
1/2+x,1/2-y,-z
1/2-x,1/2+y,-z
y,x,-z
-y,-x,-z
loop_
_atom_site_type_symbol
_atom_site_label
_atom_site_fract_x
_atom_site_fract_y
_atom_site_fract_z
Si Si1 0.259687 0.418962 0.229678
Si Si2 0.083728 0.757819 0.464270
Si Si3 0.500000 0.500000 0.000000
Si Si4 0.415344 0.258168 0.303261
Si Si5 0.423637 0.262665 0.157516
Si Si6 0.908549 0.242893 0.376767
Si Si7 0.049540 0.764135 0.928499
O O1 0.194161 0.600364 0.230171
O O2 0.363313 0.370293 0.267358
O O3 0.362829 0.379121 0.191258
O O4 0.194366 0.598117 0.466865
O O5 0.129594 0.870407 0.500000
O O6 0.111507 0.825051 0.420642
O O7 0.634965 0.544378 0.967697
O O8 0.597593 0.195625 0.301224
O O9 0.376329 0.350015 0.343385
O O10 0.603884 0.190861 0.160976
O O11 0.416151 0.339471 0.114133
O O12 0.802980 0.407150 0.372907
O O13 0.179777 0.623313 0.928877
#
# Coordination Sequence:
#
# PCOD9547330 Si02
#       7
#     8   8   2   8   8   8   8
#     4  11  24  39  57  84 115 146 185 234 284 336
#     4   9  19  35  54  78 109 144 183 230 283 340
#     4  12  20  32  60  88 112 152 196 232 280 336
#     4  11  24  39  56  82 113 145 185 231 281 340
#     4   9  19  37  59  81 109 146 187 230 275 327
#     4   9  19  37  58  79 107 144 186 233 285 340
#     4   9  20  37  55  81 116 150 188 234 280 329
#
# _framework density 21.179663999999999
#
# number of rings (size 3 to 8) (size 9 to 14) (size 15 to 20)
#    0.000    2.240    0.000    4.320    0.000   11.200 
#    0.000    4.800    0.000    1.920    0.000    0.000 
#    0.000    0.000    0.000    0.000    0.000    0.000 
#
# Total GULP energy -279302.494226 kJ/mol
# GULP energy per Si atom -5586.049885 kJ/mol
# Density = 2.113146 g / cm^3
# Si number density = 21.179664 Si / 1000 Ang^3
#
#
#
# Elastic Constant Matrix: (Units=GPa)
#
#
# Indices 1 2 3 4 5 6 
#
# 1 67.0045 36.7583 71.9973 0.0000 0.0000 0.0000
# 2 36.7583 67.0042 71.9968 0.0000 0.0000 0.0000
# 3 71.9973 71.9968 217.9258 0.0000 0.0000 0.0000
# 4 0.0000 0.0000 0.0000 -40.9529 0.0000 0.0000
# 5 0.0000 0.0000 0.0000 0.0000 -40.9522 0.0000
# 6 0.0000 0.0000 0.0000 0.0000 0.0000 36.5675
#
#
#
# Elastic Compliance Matrix: (Units=1/GPa)
#
#
# Indices 1 2 3 4 5 6 
#
# 1 0.025429 -0.007633 -0.005880 0.000000 0.000000 0.000000
# 2 -0.007633 0.025429 -0.005879 0.000000 0.000000 0.000000
# 3 -0.005880 -0.005879 0.008474 0.000000 0.000000 0.000000
# 4 0.000000 0.000000 0.000000 -0.024418 0.000000 0.000000
# 5 0.000000 0.000000 0.000000 0.000000 -0.024419 0.000000
# 6 0.000000 0.000000 0.000000 0.000000 0.000000 0.027347
#
#
# Mechanical properties :
#
#
# Convention : Reuss Voigt Hill
#
# Bulk Modulus (GPa) = 48.66505 79.27102 63.96803
# Shear Modulus (GPa) = 59.89799 2.34461 31.12130
#
# Velocity S-wave (km/s) = 5.32375 1.05329 3.83743
# Velocity P-wave (km/s) = 7.79852 6.24407 7.06418
#
# Compressibility (1/GPa) = 0.02054863
#
# Stress axis : x y z
#
# Youngs Moduli (GPa) = 39.32461 39.32461 118.01349
#
# Poissons Ratio (x) = 0.30016 0.69387
# Poissons Ratio (y) = 0.30016 0.69386
# Poissons Ratio (z) = 0.23121 0.23121
#
# Static dielectric constant tensor:
#      x y z
#    x 1.826190 0.000000 0.000000 
#    y 0.000000 1.826190 0.000000 
#    z 0.000000 0.000000 1.757980 
# 
# From -- ./inp_files/3051.got.cif
#   From: 2010.05.17/outbox.cif.g08.bks.cpg/sg90_2_cif.got.tgz:3051.got - 2010.06.03 19:17:45.
