data_PCOD9547878
_publ_section_title
;
Structure prediction by ZEFSAII (Michael W. Deem and Ramdas Pophale) SiO2 
 PCOD9547878
Probable space group: P 41 2 2
;
_chemical_formula_sum "Si O2"
_cell_formula_units_Z 48
_cell_length_a 8.870434
_cell_length_b 8.870434
_cell_length_c 32.245848
_cell_angle_alpha 90.000000
_cell_angle_beta 90.000000
_cell_angle_gamma 90.000000
_cell_volume 2537.251631
_symmetry_space_group_name_H-M "P 41 2 2"
_symmetry_group_IT_number 91
_symmetry_cell_setting 'tetragonal'
loop_
_space_group_symop_operation_xyz
x,y,z
-y,x,1/4+z
-x,-y,1/2+z
y,-x,3/4+z
x,-y,1/2-z
-x,y,-z
y,x,3/4-z
-y,-x,1/4-z
loop_
_atom_site_type_symbol
_atom_site_label
_atom_site_fract_x
_atom_site_fract_y
_atom_site_fract_z
Si Si1 0.076000 0.430398 0.792023
Si Si2 0.409578 0.569505 0.791585
Si Si3 0.930769 0.077563 0.043321
Si Si4 0.068436 0.931565 0.125000
Si Si5 0.586044 0.066396 0.293050
Si Si6 0.425574 0.070985 0.377771
Si Si7 0.572473 0.572473 0.875000
O O1 0.004377 0.500000 0.750000
O O2 0.242451 0.502003 0.793731
O O3 0.082761 0.249855 0.789646
O O4 0.997830 0.484929 0.833909
O O5 0.480976 0.500000 0.750000
O O6 0.405643 0.751582 0.789691
O O7 0.492991 0.520676 0.833225
O O8 0.998437 0.246255 0.047951
O O9 0.981995 0.986596 0.083901
O O10 0.000000 0.016858 0.000000
O O11 0.041714 0.752886 0.131231
O O12 0.488790 0.021488 0.333065
O O13 0.524009 0.000000 0.250000
O O14 0.451097 0.249745 0.379193
#
# Coordination Sequence:
#
# PCOD9547878 Si02
#       7
#     8   8   8   4   8   8   4
#     4  11  22  37  58  84 112 146 187 231 280 332
#     4  10  20  36  57  83 111 144 184 228 277 328
#     4  11  22  38  59  85 115 149 190 233 281 335
#     4  11  22  39  58  82 116 151 190 233 282 336
#     4  10  20  37  58  83 114 146 187 232 278 332
#     4  10  22  39  57  81 114 149 187 231 279 333
#     4   9  22  39  56  80 112 147 184 229 276 330
#
# _framework density 18.918109000000001
#
# number of rings (size 3 to 8) (size 9 to 14) (size 15 to 20)
#    0.000    1.667    0.000    7.000    0.000    6.000 
#    0.000    3.333    0.000    0.000    0.000    0.000 
#    0.000    0.000    0.000    0.000    0.000    0.000 
#
# Total GULP energy -268061.510056 kJ/mol
# GULP energy per Si atom -5584.614793 kJ/mol
# Density = 1.887505 g / cm^3
# Si number density = 18.918109 Si / 1000 Ang^3
#
#
#
# Elastic Constant Matrix: (Units=GPa)
#
#
# Indices 1 2 3 4 5 6 
#
# 1 59.1845 42.9482 63.4215 0.0000 0.0000 0.0000
# 2 42.9482 59.1842 63.4216 0.0000 0.0000 0.0000
# 3 63.4215 63.4216 203.7047 0.0000 0.0000 0.0000
# 4 0.0000 0.0000 0.0000 35.3741 0.0000 0.0000
# 5 0.0000 0.0000 0.0000 0.0000 35.3739 0.0000
# 6 0.0000 0.0000 0.0000 0.0000 0.0000 192.9263
#
#
#
# Elastic Compliance Matrix: (Units=1/GPa)
#
#
# Indices 1 2 3 4 5 6 
#
# 1 0.038777 -0.022814 -0.004970 0.000000 0.000000 0.000000
# 2 -0.022814 0.038778 -0.004970 0.000000 0.000000 0.000000
# 3 -0.004970 -0.004970 0.008004 0.000000 0.000000 0.000000
# 4 0.000000 0.000000 0.000000 0.028269 0.000000 0.000000
# 5 0.000000 0.000000 0.000000 0.000000 0.028269 0.000000
# 6 0.000000 0.000000 0.000000 0.000000 0.000000 0.005183
#
#
# Mechanical properties :
#
#
# Convention : Reuss Voigt Hill
#
# Bulk Modulus (GPa) = 49.87298 73.51732 61.69515
# Shear Modulus (GPa) = 22.78187 62.88698 42.83442
#
# Velocity S-wave (km/s) = 3.47398 5.77182 4.76353
# Velocity P-wave (km/s) = 6.52006 9.13037 7.93331
#
# Compressibility (1/GPa) = 0.02005094
#
# Stress axis : x y z
#
# Youngs Moduli (GPa) = 25.78823 25.78803 124.93854
#
# Poissons Ratio (x) = 0.58832 0.62097
# Poissons Ratio (y) = 0.58832 0.62098
# Poissons Ratio (z) = 0.12817 0.12817
#
# Static dielectric constant tensor:
#      x y z
#    x 1.648230 0.000000 0.000000 
#    y 0.000000 1.648230 0.000000 
#    z 0.000000 0.000000 1.685680 
# 
# From -- ./inp_files/22311.got.cif
#   From: 2010.05.17/outbox.cif.g08.bks.cpg/sg91_12_cif.got.tgz:22311.got - 2010.06.03 19:20:03.
