data_PCOD9547037
_publ_section_title
;
Structure prediction by ZEFSAII (Michael W. Deem and Ramdas Pophale) SiO2 
 PCOD9547037
Probable space group: P 4 2 2
;
_chemical_formula_sum "Si O2"
_cell_formula_units_Z 44
_cell_length_a 9.424858
_cell_length_b 9.424858
_cell_length_c 27.801534
_cell_angle_alpha 90.000000
_cell_angle_beta 90.000000
_cell_angle_gamma 90.000000
_cell_volume 2469.553225
_symmetry_space_group_name_H-M "P 4 2 2"
_symmetry_group_IT_number 89
_symmetry_cell_setting 'tetragonal'
loop_
_space_group_symop_operation_xyz
x,y,z
-y,x,z
-x,-y,z
y,-x,z
x,-y,-z
-x,y,-z
y,x,-z
-y,-x,-z
loop_
_atom_site_type_symbol
_atom_site_label
_atom_site_fract_x
_atom_site_fract_y
_atom_site_fract_z
Si Si1 0.683891 0.654126 0.895316
Si Si2 0.361048 0.843936 0.522225
Si Si3 0.670209 0.329792 0.000000
Si Si4 0.810114 0.140748 0.814721
Si Si5 0.607560 0.283625 0.625613
Si Si6 0.798635 0.128532 0.702152
O O1 0.516816 0.691502 0.892734
O O2 0.774118 0.715431 0.851919
O O3 0.730851 0.712832 0.948062
O O4 0.500000 0.768714 0.500000
O O5 0.224343 0.775658 0.500000
O O6 0.363136 0.813414 0.578684
O O7 0.363545 0.000000 0.500000
O O8 0.691325 0.500000 0.000000
O O9 0.771204 0.158345 0.758569
O O10 0.971840 0.191190 0.822316
O O11 0.683586 0.438721 0.625316
O O12 0.677338 0.199809 0.670054
O O13 0.958422 0.189321 0.693135
#
# Coordination Sequence:
#
# PCOD9547037 Si02
#       6
#     8   8   4   8   8   8
#     4   9  17  30  52  79 107 139 182 232 279 330
#     4  11  24  41  62  88 118 151 185 222 269 324
#     4   7  12  26  46  71 104 142 178 221 278 331
#     4   9  19  37  55  75 107 148 186 225 277 331
#     4  11  24  40  61  88 118 150 181 223 276 328
#     4   9  21  40  61  82 109 146 188 232 275 324
#
# _framework density 17.816989
#
# number of rings (size 3 to 8) (size 9 to 14) (size 15 to 20)
#    0.000    2.455    1.818    2.182    2.545    3.273 
#    0.000    6.364    0.000    4.364    0.000    0.000 
#    0.000    0.000    0.000    0.000    0.000    0.000 
#
# Total GULP energy -244946.346797 kJ/mol
# GULP energy per Si atom -5566.962427 kJ/mol
# Density = 1.777644 g / cm^3
# Si number density = 17.816989 Si / 1000 Ang^3
#
#
#
# Elastic Constant Matrix: (Units=GPa)
#
#
# Indices 1 2 3 4 5 6 
#
# 1 52.6671 41.9826 57.5293 0.0000 0.0000 0.0000
# 2 41.9826 52.6665 57.5287 0.0000 0.0000 0.0000
# 3 57.5293 57.5287 137.6349 0.0000 0.0000 0.0000
# 4 0.0000 0.0000 0.0000 23.9737 0.0000 0.0000
# 5 0.0000 0.0000 0.0000 0.0000 23.9751 0.0000
# 6 0.0000 0.0000 0.0000 0.0000 0.0000 31.3920
#
#
#
# Elastic Compliance Matrix: (Units=1/GPa)
#
#
# Indices 1 2 3 4 5 6 
#
# 1 0.057537 -0.036058 -0.008978 0.000000 0.000000 0.000000
# 2 -0.036058 0.057538 -0.008978 0.000000 0.000000 0.000000
# 3 -0.008978 -0.008978 0.014771 0.000000 0.000000 0.000000
# 4 0.000000 0.000000 0.000000 0.041712 0.000000 0.000000
# 5 0.000000 0.000000 0.000000 0.000000 0.041710 0.000000
# 6 0.000000 0.000000 0.000000 0.000000 0.000000 0.031855
#
#
# Mechanical properties :
#
#
# Convention : Reuss Voigt Hill
#
# Bulk Modulus (GPa) = 45.83507 61.89441 53.86474
# Shear Modulus (GPa) = 13.87256 21.59668 17.73462
#
# Velocity S-wave (km/s) = 2.79339 3.48536 3.15838
# Velocity P-wave (km/s) = 6.01543 7.14222 6.60291
#
# Compressibility (1/GPa) = 0.02181735
#
# Stress axis : x y z
#
# Youngs Moduli (GPa) = 17.38006 17.37997 67.70131
#
# Poissons Ratio (x) = 0.62669 0.60782
# Poissons Ratio (y) = 0.62670 0.60780
# Poissons Ratio (z) = 0.15604 0.15603
#
# Static dielectric constant tensor:
#      x y z
#    x 1.591210 0.000000 0.000000 
#    y 0.000000 1.591210 0.000000 
#    z 0.000000 0.000000 1.621230 
# 
# From -- ./inp_files/2908.got.cif
#   From: 2010.05.17/outbox.cif.g08.bks.cpg/sg89_2_cif.got.tgz:2908.got - 2010.06.03 19:15:31.
