data_PCOD9547540
_publ_section_title
;
Structure prediction by ZEFSAII (Michael W. Deem and Ramdas Pophale) SiO2 
 PCOD9547540
Probable space group: P 41 2 2
;
_chemical_formula_sum "Si O2"
_cell_formula_units_Z 44
_cell_length_a 15.525431
_cell_length_b 15.525431
_cell_length_c 11.815913
_cell_angle_alpha 90.000000
_cell_angle_beta 90.000000
_cell_angle_gamma 90.000000
_cell_volume 2848.095945
_symmetry_space_group_name_H-M "P 41 2 2"
_symmetry_group_IT_number 91
_symmetry_cell_setting 'tetragonal'
loop_
_space_group_symop_operation_xyz
x,y,z
-y,x,1/4+z
-x,-y,1/2+z
y,-x,3/4+z
x,-y,1/2-z
-x,y,-z
y,x,3/4-z
-y,-x,1/4-z
loop_
_atom_site_type_symbol
_atom_site_label
_atom_site_fract_x
_atom_site_fract_y
_atom_site_fract_z
Si Si1 0.741891 0.904164 0.269795
Si Si2 0.500000 0.081404 0.500000
Si Si3 0.855201 0.547631 0.508316
Si Si4 0.608722 0.952386 0.638257
Si Si5 0.579401 0.705548 0.413419
Si Si6 0.269410 0.824164 0.487166
O O1 0.640348 0.900074 0.245036
O O2 0.784580 0.823003 0.204190
O O3 0.749393 0.880580 0.401578
O O4 0.775836 0.000000 0.250000
O O5 0.518846 0.138007 0.388677
O O6 0.578127 0.018253 0.539973
O O7 0.906164 0.478879 0.431180
O O8 0.763331 0.557441 0.446748
O O9 0.678373 0.883941 0.597890
O O10 0.641902 0.000000 0.750000
O O11 0.500000 0.705556 0.500000
O O12 0.612340 0.612340 0.375000
O O13 0.662141 0.751123 0.473506
#
# Coordination Sequence:
#
# PCOD9547540 Si02
#       6
#     8   4   8   8   8   8
#     4  10  18  29  49  74 101 132 169 220 262 300
#     4  10  18  28  46  78 108 130 164 210 288 330
#     4  10  18  29  50  77 105 135 164 217 274 319
#     4  10  18  28  47  75 107 137 166 216 274 325
#     4  11  19  34  58  78 103 136 180 220 259 312
#     4  10  18  30  50  77  99 128 177 217 260 309
#
# _framework density 15.448918000000001
#
# number of rings (size 3 to 8) (size 9 to 14) (size 15 to 20)
#    0.000    1.818    5.455    4.909    0.000    0.000 
#    0.000    0.000    2.000   18.545    0.000    0.000 
#    0.000    0.000    0.000    0.000    0.000    0.000 
#
# Total GULP energy -245018.143391 kJ/mol
# GULP energy per Si atom -5568.594168 kJ/mol
# Density = 1.541376 g / cm^3
# Si number density = 15.448918 Si / 1000 Ang^3
#
#
#
# Elastic Constant Matrix: (Units=GPa)
#
#
# Indices 1 2 3 4 5 6 
#
# 1 86.7516 53.3511 39.5678 0.0000 0.0000 0.0000
# 2 53.3511 86.7516 39.5678 0.0000 0.0000 0.0000
# 3 39.5678 39.5678 75.0043 0.0000 0.0000 0.0000
# 4 0.0000 0.0000 0.0000 19.4020 0.0000 0.0000
# 5 0.0000 0.0000 0.0000 0.0000 19.4020 0.0000
# 6 0.0000 0.0000 0.0000 0.0000 0.0000 12.5311
#
#
#
# Elastic Compliance Matrix: (Units=1/GPa)
#
#
# Indices 1 2 3 4 5 6 
#
# 1 0.020053 -0.009886 -0.005364 0.000000 0.000000 0.000000
# 2 -0.009886 0.020053 -0.005364 0.000000 0.000000 0.000000
# 3 -0.005364 -0.005364 0.018992 0.000000 0.000000 0.000000
# 4 0.000000 0.000000 0.000000 0.051541 0.000000 0.000000
# 5 0.000000 0.000000 0.000000 0.000000 0.051541 0.000000
# 6 0.000000 0.000000 0.000000 0.000000 0.000000 0.079802
#
#
# Mechanical properties :
#
#
# Convention : Reuss Voigt Hill
#
# Bulk Modulus (GPa) = 55.95478 57.05344 56.50411
# Shear Modulus (GPa) = 17.29109 18.00174 17.64641
#
# Velocity S-wave (km/s) = 3.34914 3.41727 3.38337
# Velocity P-wave (km/s) = 7.15915 7.25127 7.20536
#
# Compressibility (1/GPa) = 0.01787157
#
# Stress axis : x y z
#
# Youngs Moduli (GPa) = 49.86675 49.86675 52.65484
#
# Poissons Ratio (x) = 0.49299 0.28242
# Poissons Ratio (y) = 0.49299 0.28242
# Poissons Ratio (z) = 0.26747 0.26747
#
# Static dielectric constant tensor:
#      x y z
#    x 1.541660 0.000000 0.000000 
#    y 0.000000 1.541660 0.000000 
#    z 0.000000 0.000000 1.525150 
# 
# From -- ./inp_files/3741.got.cif
#   From: 2010.05.17/outbox.cif.g08.bks.cpg/sg91_2_cif.got.tgz:3741.got - 2010.06.03 19:20:03.
