data_PCOD9547091
_publ_section_title
;
Structure prediction by ZEFSAII (Michael W. Deem and Ramdas Pophale) SiO2 
 PCOD9547091
Probable space group: P 4 21 2
;
_chemical_formula_sum "Si O2"
_cell_formula_units_Z 40
_cell_length_a 13.529284
_cell_length_b 13.529284
_cell_length_c 10.723566
_cell_angle_alpha 90.000000
_cell_angle_beta 90.000000
_cell_angle_gamma 90.000000
_cell_volume 1962.857880
_symmetry_space_group_name_H-M "P 4 21 2"
_symmetry_group_IT_number 90
_symmetry_cell_setting 'tetragonal'
loop_
_space_group_symop_operation_xyz
x,y,z
1/2-y,1/2+x,z
-x,-y,z
1/2+y,1/2-x,z
1/2+x,1/2-y,-z
1/2-x,1/2+y,-z
y,x,-z
-y,-x,-z
loop_
_atom_site_type_symbol
_atom_site_label
_atom_site_fract_x
_atom_site_fract_y
_atom_site_fract_z
Si Si1 0.877519 0.724166 0.557899
Si Si2 0.337124 0.985738 0.018444
Si Si3 0.604273 0.124503 0.704903
Si Si4 0.350565 0.276974 0.872184
Si Si5 0.753501 0.568867 0.718966
O O1 0.813668 0.813668 0.500000
O O2 0.890694 0.652274 0.439562
O O3 0.818031 0.656130 0.656259
O O4 0.980668 0.760081 0.619367
O O5 0.414814 0.896639 0.994332
O O6 0.309153 0.979348 0.163137
O O7 0.243752 0.958335 0.932757
O O8 0.488847 0.132817 0.731626
O O9 0.685127 0.182508 0.785601
O O10 0.337848 0.373035 0.784592
O O11 0.287697 0.287697 0.000000
#
# Coordination Sequence:
#
# PCOD9547091 Si02
#       5
#     8   8   8   8   8
#     4  12  23  39  65 100 132 176 223 279 340 409
#     4  10  19  34  63 102 138 167 222 288 342 403
#     4  11  22  37  64 100 131 162 213 283 345 397
#     4  10  22  38  57  91 134 182 210 262 341 413
#     4  11  22  38  63  94 139 178 221 276 344 408
#
# _framework density 20.378450000000001
#
# number of rings (size 3 to 8) (size 9 to 14) (size 15 to 20)
#    0.000    1.200    6.000    1.200    0.000    2.000 
#    0.000    0.000    0.000    5.400    0.000    1.400 
#    0.000    0.000    0.000    0.000    0.000    0.000 
#
# Total GULP energy -222852.475636 kJ/mol
# GULP energy per Si atom -5571.311891 kJ/mol
# Density = 2.033207 g / cm^3
# Si number density = 20.378450 Si / 1000 Ang^3
#
#
#
# Elastic Constant Matrix: (Units=GPa)
#
#
# Indices 1 2 3 4 5 6 
#
# 1 69.9226 24.4665 23.8909 0.0000 0.0000 0.0000
# 2 24.4665 69.9226 23.8909 0.0000 0.0000 0.0000
# 3 23.8909 23.8909 112.4834 0.0000 0.0000 0.0000
# 4 0.0000 0.0000 0.0000 43.6091 0.0000 0.0000
# 5 0.0000 0.0000 0.0000 0.0000 43.6091 0.0000
# 6 0.0000 0.0000 0.0000 0.0000 0.0000 25.3987
#
#
#
# Elastic Compliance Matrix: (Units=1/GPa)
#
#
# Indices 1 2 3 4 5 6 
#
# 1 0.016935 -0.005064 -0.002521 0.000000 0.000000 0.000000
# 2 -0.005064 0.016935 -0.002521 0.000000 0.000000 0.000000
# 3 -0.002521 -0.002521 0.009961 0.000000 0.000000 0.000000
# 4 0.000000 0.000000 0.000000 0.022931 0.000000 0.000000
# 5 0.000000 0.000000 0.000000 0.000000 0.022931 0.000000
# 6 0.000000 0.000000 0.000000 0.000000 0.000000 0.039372
#
#
# Mechanical properties :
#
#
# Convention : Reuss Voigt Hill
#
# Bulk Modulus (GPa) = 42.34131 44.09169 43.21650
# Shear Modulus (GPa) = 31.81644 34.52875 33.17259
#
# Velocity S-wave (km/s) = 3.95559 4.12074 4.03901
# Velocity P-wave (km/s) = 6.45638 6.65764 6.55778
#
# Compressibility (1/GPa) = 0.02361760
#
# Stress axis : x y z
#
# Youngs Moduli (GPa) = 59.04930 59.04930 100.38937
#
# Poissons Ratio (x) = 0.29904 0.25311
# Poissons Ratio (y) = 0.29904 0.25311
# Poissons Ratio (z) = 0.14888 0.14888
#
# Static dielectric constant tensor:
#      x y z
#    x 1.750590 0.000000 0.000000 
#    y 0.000000 1.750590 0.000000 
#    z 0.000000 0.000000 1.791450 
# 
# From -- ./inp_files/2026.got.cif
#   From: 2010.05.17/outbox.cif.g08.bks.cpg/sg90_2_cif.got.tgz:2026.got - 2010.06.03 19:17:45.
