data_PCOD9547455
_publ_section_title
;
Structure prediction by ZEFSAII (Michael W. Deem and Ramdas Pophale) SiO2 
 PCOD9547455
Probable space group: P 4 21 2
;
_chemical_formula_sum "Si O2"
_cell_formula_units_Z 40
_cell_length_a 15.000000
_cell_length_b 15.000000
_cell_length_c 9.000000
_cell_angle_alpha 90.000000
_cell_angle_beta 90.000000
_cell_angle_gamma 90.000000
_cell_volume 2025.000000
_symmetry_space_group_name_H-M "P 4 21 2"
_symmetry_group_IT_number 90
_symmetry_cell_setting 'tetragonal'
loop_
_space_group_symop_operation_xyz
x,y,z
1/2-y,1/2+x,z
-x,-y,z
1/2+y,1/2-x,z
1/2+x,1/2-y,-z
1/2-x,1/2+y,-z
y,x,-z
-y,-x,-z
loop_
_atom_site_type_symbol
_atom_site_label
_atom_site_fract_x
_atom_site_fract_y
_atom_site_fract_z
Si Si1 0.636268 0.363733 0.000000
Si Si2 0.429729 0.130955 0.068635
Si Si3 0.725176 0.822911 0.249050
Si Si4 0.494796 0.606326 0.741939
Si Si5 0.149721 0.149721 0.500000
Si Si6 0.273939 0.361320 0.147076
O O1 0.720949 0.364920 0.890844
O O2 0.550389 0.366794 0.897366
O O3 0.533906 0.114698 0.073545
O O4 0.379034 0.176680 0.208347
O O5 0.411069 0.189744 0.923146
O O6 0.760608 0.859660 0.402997
O O7 0.759734 0.722159 0.240056
O O8 0.500000 0.500000 0.731575
O O9 0.431301 0.641672 0.613923
O O10 0.587024 0.657280 0.749929
O O11 0.325228 0.325228 0.000000
#
# Coordination Sequence:
#
# PCOD9547455 Si02
#       6
#     4   8   8   8   4   8
#     4  10  17  34  62  84 123 154 198 250 324 360
#     4  10  20  35  62  93 119 151 208 272 315 356
#     4  10  20  40  56  87 119 167 203 251 315 369
#     4  11  22  38  61  95 127 161 204 259 311 373
#     4  10  25  40  58  84 133 170 200 240 324 380
#     4  10  20  36  64  92 118 155 212 260 312 372
#
# _framework density 19.753086
#
# number of rings (size 3 to 8) (size 9 to 14) (size 15 to 20)
#    0.000    1.800    3.000    3.000    2.800    4.800 
#    7.200    0.000    0.000    0.000    0.000    0.000 
#    0.000    0.000    0.000    0.000    0.000    0.000 
#
# Total GULP energy -222808.955941 kJ/mol
# GULP energy per Si atom -5570.223899 kJ/mol
# Density = 1.970813 g / cm^3
# Si number density = 19.753086 Si / 1000 Ang^3
#
#
#
# Elastic Constant Matrix: (Units=GPa)
#
#
# Indices 1 2 3 4 5 6 
#
# 1 58.5399 23.7344 26.4477 0.0000 0.0000 0.0000
# 2 23.7344 58.5390 26.4510 0.0000 0.0000 0.0000
# 3 26.4477 26.4510 76.7683 0.0000 0.0000 0.0000
# 4 0.0000 0.0000 0.0000 17.4903 0.0000 0.0000
# 5 0.0000 0.0000 0.0000 0.0000 17.5013 0.0000
# 6 0.0000 0.0000 0.0000 0.0000 0.0000 30.4636
#
#
#
# Elastic Compliance Matrix: (Units=1/GPa)
#
#
# Indices 1 2 3 4 5 6 
#
# 1 0.022172 -0.006559 -0.005378 0.000000 0.000000 0.000000
# 2 -0.006559 0.022173 -0.005380 0.000000 0.000000 0.000000
# 3 -0.005378 -0.005380 0.016733 0.000000 0.000000 0.000000
# 4 0.000000 0.000000 0.000000 0.057175 0.000000 0.000000
# 5 0.000000 0.000000 0.000000 0.000000 0.057139 0.000000
# 6 0.000000 0.000000 0.000000 0.000000 0.000000 0.032826
#
#
# Mechanical properties :
#
#
# Convention : Reuss Voigt Hill
#
# Bulk Modulus (GPa) = 37.81842 38.56817 38.19330
# Shear Modulus (GPa) = 19.86758 20.90531 20.38645
#
# Velocity S-wave (km/s) = 3.17487 3.25673 3.21606
# Velocity P-wave (km/s) = 5.71199 5.80597 5.75917
#
# Compressibility (1/GPa) = 0.02644214
#
# Stress axis : x y z
#
# Youngs Moduli (GPa) = 45.10268 45.09984 59.76245
#
# Poissons Ratio (x) = 0.29582 0.32143
# Poissons Ratio (y) = 0.29583 0.32153
# Poissons Ratio (z) = 0.24258 0.24264
#
# Static dielectric constant tensor:
#      x y z
#    x 1.804230 0.000000 0.000000 
#    y 0.000000 1.804230 0.000000 
#    z 0.000000 0.000000 -90.503760 
# 
# From -- ./inp_files/1341.got.cif
#   From: 2010.05.17/outbox.ucp.g08.bks.cvg/sg90_1_cif.got.tgz:1341.got - 2010.06.11 10:36:03.
