data_PCOD9547226
_publ_section_title
;
Structure prediction by ZEFSAII (Michael W. Deem and Ramdas Pophale) SiO2 
 PCOD9547226
Probable space group: P 4 21 2
;
_chemical_formula_sum "Si O2"
_cell_formula_units_Z 58
_cell_length_a 17.154397
_cell_length_b 17.154397
_cell_length_c 9.504185
_cell_angle_alpha 90.000000
_cell_angle_beta 90.000000
_cell_angle_gamma 90.000000
_cell_volume 2796.828230
_symmetry_space_group_name_H-M "P 4 21 2"
_symmetry_group_IT_number 90
_symmetry_cell_setting 'tetragonal'
loop_
_space_group_symop_operation_xyz
x,y,z
1/2-y,1/2+x,z
-x,-y,z
1/2+y,1/2-x,z
1/2+x,1/2-y,-z
1/2-x,1/2+y,-z
y,x,-z
-y,-x,-z
loop_
_atom_site_type_symbol
_atom_site_label
_atom_site_fract_x
_atom_site_fract_y
_atom_site_fract_z
Si Si1 0.528131 0.640197 0.432189
Si Si2 0.720935 0.823120 0.100364
Si Si3 0.815257 0.485985 0.040986
Si Si4 0.657940 0.346976 0.650772
Si Si5 0.500000 0.000000 0.010218
Si Si6 0.129102 0.512056 0.611100
Si Si7 0.763689 0.488190 0.349883
Si Si8 0.747359 0.565299 0.800200
O O1 0.563064 0.563064 0.500000
O O2 0.437070 0.637950 0.387557
O O3 0.540693 0.706355 0.553526
O O4 0.570928 0.669525 0.290957
O O5 0.698143 0.895864 0.001113
O O6 0.784046 0.845333 0.219075
O O7 0.647062 0.790503 0.184909
O O8 0.757435 0.757435 0.000000
O O9 0.747920 0.532011 0.956514
O O10 0.903157 0.507685 0.994318
O O11 0.803159 0.509070 0.203158
O O12 0.687294 0.312707 0.500000
O O13 0.584394 0.292805 0.684793
O O14 0.067072 0.580002 0.631473
O O15 0.166289 0.526836 0.458997
O O16 0.199859 0.499139 0.717659
#
# Coordination Sequence:
#
# PCOD9547226 Si02
#       8
#     8   8   8   8   2   8   8   8
#     4  10  23  46  69 100 130 171 230 293 348 406
#     4  12  24  43  69  99 136 186 229 285 342 422
#     4  12  24  42  66 100 140 180 235 269 353 412
#     4  10  22  42  72  96 126 177 230 274 349 407
#     4  12  28  40  68  98 144 196 224 282 332 436
#     4  10  23  39  63  92 136 181 227 277 337 405
#     4  10  24  41  64 100 133 176 223 288 339 412
#     4  11  24  40  66  97 136 179 226 280 336 416
#
# _framework density 20.737776
#
# number of rings (size 3 to 8) (size 9 to 14) (size 15 to 20)
#    0.000    1.241    4.138    0.828    5.793    4.138 
#    2.483    0.000    0.000    0.000    0.000    0.000 
#    0.000    0.000    0.000    0.000    0.000    0.000 
#
# Total GULP energy -322951.162230 kJ/mol
# GULP energy per Si atom -5568.123487 kJ/mol
# Density = 2.069058 g / cm^3
# Si number density = 20.737776 Si / 1000 Ang^3
#
#
#
# Elastic Constant Matrix: (Units=GPa)
#
#
# Indices 1 2 3 4 5 6 
#
# 1 37.4305 51.0273 14.5374 0.0000 0.0000 0.0000
# 2 51.0273 37.4305 14.5372 0.0000 0.0000 0.0000
# 3 14.5374 14.5372 100.7557 0.0000 0.0000 0.0000
# 4 0.0000 0.0000 0.0000 22.8687 0.0000 0.0000
# 5 0.0000 0.0000 0.0000 0.0000 22.8687 0.0000
# 6 0.0000 0.0000 0.0000 0.0000 0.0000 31.4841
#
#
#
# Elastic Compliance Matrix: (Units=1/GPa)
#
#
# Indices 1 2 3 4 5 6 
#
# 1 -0.030840 0.042707 -0.001712 0.000000 0.000000 0.000000
# 2 0.042707 -0.030840 -0.001712 0.000000 0.000000 0.000000
# 3 -0.001712 -0.001712 0.010419 0.000000 0.000000 0.000000
# 4 0.000000 0.000000 0.000000 0.043728 0.000000 0.000000
# 5 0.000000 0.000000 0.000000 0.000000 0.043728 0.000000
# 6 0.000000 0.000000 0.000000 0.000000 0.000000 0.031762
#
#
# Mechanical properties :
#
#
# Convention : Reuss Voigt Hill
#
# Bulk Modulus (GPa) = 36.62306 37.31338 36.96822
# Shear Modulus (GPa) = -3320.04726 21.81196 -1649.11765
#
# Velocity S-wave (km/s) = -40.05548 3.24666 -28.23031
# Velocity P-wave (km/s) = 46.06036 5.66449 32.32236
#
# Compressibility (1/GPa) = 0.02730520
#
# Stress axis : x y z
#
# Youngs Moduli (GPa) = -32.42577 -32.42581 95.97749
#
# Poissons Ratio (x) = 1.38482 0.16433
# Poissons Ratio (y) = 1.38482 0.16435
# Poissons Ratio (z) = -0.05552 -0.05553
#
# Static dielectric constant tensor:
#      x y z
#    x 1.774140 0.000000 0.000000 
#    y 0.000000 1.774140 0.000000 
#    z 0.000000 0.000000 1.778410 
# 
# From -- ./inp_files/1662.got.cif
#   From: 2010.05.17/outbox.cif.g08.bks.cpg/sg90_1_cif.got.tgz:1662.got - 2010.06.03 19:17:45.
