data_PCOD9547822
_publ_section_title
;
Structure prediction by ZEFSAII (Michael W. Deem and Ramdas Pophale) SiO2 
 PCOD9547822
Probable space group: P 41 2 2
;
_chemical_formula_sum "Si O2"
_cell_formula_units_Z 48
_cell_length_a 18.391980
_cell_length_b 18.391980
_cell_length_c 9.012503
_cell_angle_alpha 90.000000
_cell_angle_beta 90.000000
_cell_angle_gamma 90.000000
_cell_volume 3048.613681
_symmetry_space_group_name_H-M "P 41 2 2"
_symmetry_group_IT_number 91
_symmetry_cell_setting 'tetragonal'
loop_
_space_group_symop_operation_xyz
x,y,z
-y,x,1/4+z
-x,-y,1/2+z
y,-x,3/4+z
x,-y,1/2-z
-x,y,-z
y,x,3/4-z
-y,-x,1/4-z
loop_
_atom_site_type_symbol
_atom_site_label
_atom_site_fract_x
_atom_site_fract_y
_atom_site_fract_z
Si Si1 0.288406 0.821151 0.566586
Si Si2 0.577588 0.101552 0.913657
Si Si3 0.931538 0.322078 0.923104
Si Si4 0.578271 0.929939 0.926124
Si Si5 0.193832 0.952007 0.033575
Si Si6 0.102527 0.820820 0.907378
O O1 0.257226 0.742775 0.625000
O O2 0.364904 0.840945 0.482974
O O3 0.294652 0.873832 0.708706
O O4 0.227501 0.850076 0.452192
O O5 0.573538 0.106803 0.734745
O O6 0.601376 0.015870 0.924306
O O7 0.500000 0.108128 0.000000
O O8 0.893571 0.368911 0.795624
O O9 0.967123 0.255880 0.834461
O O10 0.000000 0.362863 0.000000
O O11 0.500000 0.929789 0.000000
O O12 0.221817 0.918641 0.190486
O O13 0.158361 0.027735 0.077486
O O14 0.142262 0.892691 0.961446
#
# Coordination Sequence:
#
# PCOD9547822 Si02
#       6
#     8   8   8   8   8   8
#     4  12  22  33  51  74  99 133 171 209 257 315
#     4  10  20  35  53  76 107 135 168 214 262 316
#     4  12  20  31  51  71  96 128 165 211 257 305
#     4  10  20  32  53  78 102 132 170 212 262 316
#     4  10  20  34  51  63  89 122 172 221 271 315
#     4  10  20  34  51  65  88 125 170 223 273 313
#
# _framework density 15.744861
#
# number of rings (size 3 to 8) (size 9 to 14) (size 15 to 20)
#    0.000    1.333    5.000    2.000    2.333    2.667 
#    0.000    0.000   29.333    0.000    0.000    0.000 
#    0.000    0.000    0.000    4.500    0.000    0.000 
#
# Total GULP energy -267288.160992 kJ/mol
# GULP energy per Si atom -5568.503354 kJ/mol
# Density = 1.570903 g / cm^3
# Si number density = 15.744861 Si / 1000 Ang^3
#
#
#
# Elastic Constant Matrix: (Units=GPa)
#
#
# Indices 1 2 3 4 5 6 
#
# 1 50.9912 21.9710 35.8247 0.0000 0.0000 0.0000
# 2 21.9710 50.9919 35.8251 0.0000 0.0000 0.0000
# 3 35.8247 35.8251 120.7796 0.0000 0.0000 0.0000
# 4 0.0000 0.0000 0.0000 22.6566 0.0000 0.0000
# 5 0.0000 0.0000 0.0000 0.0000 22.6561 0.0000
# 6 0.0000 0.0000 0.0000 0.0000 0.0000 -26.1930
#
#
#
# Elastic Compliance Matrix: (Units=1/GPa)
#
#
# Indices 1 2 3 4 5 6 
#
# 1 0.026899 -0.007560 -0.005736 0.000000 0.000000 0.000000
# 2 -0.007560 0.026898 -0.005736 0.000000 0.000000 0.000000
# 3 -0.005736 -0.005736 0.011682 0.000000 0.000000 0.000000
# 4 0.000000 0.000000 0.000000 0.044137 0.000000 0.000000
# 5 0.000000 0.000000 0.000000 0.000000 0.044138 0.000000
# 6 0.000000 0.000000 0.000000 0.000000 0.000000 -0.038178
#
#
# Mechanical properties :
#
#
# Convention : Reuss Voigt Hill
#
# Bulk Modulus (GPa) = 36.47625 45.55603 41.01614
# Shear Modulus (GPa) = 30.71655 12.43342 21.57499
#
# Velocity S-wave (km/s) = 4.42168 2.81318 3.70576
# Velocity P-wave (km/s) = 7.02038 6.28877 6.66462
#
# Compressibility (1/GPa) = 0.02741510
#
# Stress axis : x y z
#
# Youngs Moduli (GPa) = 37.17674 37.17716 85.59936
#
# Poissons Ratio (x) = 0.28105 0.49100
# Poissons Ratio (y) = 0.28105 0.49100
# Poissons Ratio (z) = 0.21325 0.21325
#
# Static dielectric constant tensor:
#      x y z
#    x 1.542410 0.000000 0.000000 
#    y 0.000000 1.542410 0.000000 
#    z 0.000000 0.000000 1.606700 
# 
# From -- ./inp_files/2851.got.cif
#   From: 2010.05.17/outbox.cif.g08.bks.cpg/sg91_2_cif.got.tgz:2851.got - 2010.06.03 19:20:03.
