data_PCOD9547730
_publ_section_title
;
Structure prediction by ZEFSAII (Michael W. Deem and Ramdas Pophale) SiO2 
 PCOD9547730
Probable space group: P 41 2 2
;
_chemical_formula_sum "Si O2"
_cell_formula_units_Z 60
_cell_length_a 12.212319
_cell_length_b 12.212319
_cell_length_c 20.245149
_cell_angle_alpha 90.000000
_cell_angle_beta 90.000000
_cell_angle_gamma 90.000000
_cell_volume 3019.376409
_symmetry_space_group_name_H-M "P 41 2 2"
_symmetry_group_IT_number 91
_symmetry_cell_setting 'tetragonal'
loop_
_space_group_symop_operation_xyz
x,y,z
-y,x,1/4+z
-x,-y,1/2+z
y,-x,3/4+z
x,-y,1/2-z
-x,y,-z
y,x,3/4-z
-y,-x,1/4-z
loop_
_atom_site_type_symbol
_atom_site_label
_atom_site_fract_x
_atom_site_fract_y
_atom_site_fract_z
Si Si1 0.865131 0.915044 0.801843
Si Si2 0.014757 0.360064 0.387854
Si Si3 0.756397 0.405124 0.864613
Si Si4 0.792914 0.632214 0.181301
Si Si5 0.631019 0.795015 0.412873
Si Si6 0.635681 0.635681 0.875000
Si Si7 0.599500 0.003500 0.323952
Si Si8 0.673588 0.813759 0.971734
O O1 0.916384 0.916384 0.875000
O O2 0.866350 0.793419 0.771807
O O3 0.912122 0.000000 0.750000
O O4 0.738484 0.944637 0.817117
O O5 0.907676 0.326726 0.347566
O O6 0.981621 0.468865 0.426302
O O7 0.108666 0.384424 0.332780
O O8 0.688397 0.303210 0.891333
O O9 0.676597 0.510469 0.873750
O O10 0.792393 0.388653 0.788867
O O11 0.871096 0.398523 0.902983
O O12 0.781627 0.501422 0.167606
O O13 0.792973 0.660117 0.259276
O O14 0.699958 0.699958 0.375000
O O15 0.647630 0.911438 0.374114
O O16 0.687946 0.695591 0.938006
O O17 0.645499 0.000000 0.250000
#
# Coordination Sequence:
#
# PCOD9547730 Si02
#       8
#     8   8   8   8   8   4   8   8
#     4  10  19  34  61  90 125 161 210 271 333 401
#     4  10  19  38  63  90 120 159 218 266 320 389
#     4  12  25  39  63  95 136 169 215 262 338 394
#     4  10  23  39  62  91 122 177 211 258 325 393
#     4  10  22  42  63  88 127 169 221 263 314 384
#     4  12  24  40  58 100 130 172 206 278 332 396
#     4  11  22  38  66  95 120 165 219 275 314 384
#     4  11  21  41  62  93 128 165 212 276 335 389
#
# _framework density 19.871652999999998
#
# number of rings (size 3 to 8) (size 9 to 14) (size 15 to 20)
#    0.000    1.333    3.333    3.200    0.933    5.333 
#    2.400    0.000    0.000   26.400    0.000    0.000 
#    0.000    0.000    0.000    0.000    0.000    0.000 
#
# Total GULP energy -334577.599610 kJ/mol
# GULP energy per Si atom -5576.293327 kJ/mol
# Density = 1.982642 g / cm^3
# Si number density = 19.871653 Si / 1000 Ang^3
#
#
#
# Elastic Constant Matrix: (Units=GPa)
#
#
# Indices 1 2 3 4 5 6 
#
# 1 77.3865 23.9564 35.8831 0.0000 0.0000 0.0000
# 2 23.9564 77.3865 35.8831 0.0000 0.0000 0.0000
# 3 35.8831 35.8831 99.3164 0.0000 0.0000 0.0000
# 4 0.0000 0.0000 0.0000 26.2968 0.0000 0.0000
# 5 0.0000 0.0000 0.0000 0.0000 26.2968 0.0000
# 6 0.0000 0.0000 0.0000 0.0000 0.0000 1031.8869
#
#
#
# Elastic Compliance Matrix: (Units=1/GPa)
#
#
# Indices 1 2 3 4 5 6 
#
# 1 0.015988 -0.002728 -0.004791 0.000000 0.000000 0.000000
# 2 -0.002728 0.015988 -0.004791 0.000000 0.000000 0.000000
# 3 -0.004791 -0.004791 0.013531 0.000000 0.000000 0.000000
# 4 0.000000 0.000000 0.000000 0.038027 0.000000 0.000000
# 5 0.000000 0.000000 0.000000 0.000000 0.038027 0.000000
# 6 0.000000 0.000000 0.000000 0.000000 0.000000 0.000969
#
#
# Mechanical properties :
#
#
# Convention : Reuss Voigt Hill
#
# Bulk Modulus (GPa) = 47.87561 49.50385 48.68973
# Shear Modulus (GPa) = 32.44371 227.45388 129.94880
#
# Velocity S-wave (km/s) = 4.04501 10.71027 8.09543
# Velocity P-wave (km/s) = 6.77944 13.33838 10.58001
#
# Compressibility (1/GPa) = 0.02088746
#
# Stress axis : x y z
#
# Youngs Moduli (GPa) = 62.54647 62.54647 73.90577
#
# Poissons Ratio (x) = 0.17062 0.35408
# Poissons Ratio (y) = 0.17062 0.35408
# Poissons Ratio (z) = 0.29965 0.29965
#
# Static dielectric constant tensor:
#      x y z
#    x 1.728150 0.000000 0.000000 
#    y 0.000000 1.728150 0.000000 
#    z 0.000000 0.000000 1.737100 
# 
# From -- ./inp_files/21587.got.cif
#   From: 2010.05.17/outbox.cif.g08.bks.cpg/sg91_11_cif.got.tgz:21587.got - 2010.06.03 19:20:03.
