data_PCOD9547086
_publ_section_title
;
Structure prediction by ZEFSAII (Michael W. Deem and Ramdas Pophale) SiO2 
 PCOD9547086
Probable space group: P 4 21 2
;
_chemical_formula_sum "Si O2"
_cell_formula_units_Z 32
_cell_length_a 13.891136
_cell_length_b 13.891136
_cell_length_c 7.985635
_cell_angle_alpha 90.000000
_cell_angle_beta 90.000000
_cell_angle_gamma 90.000000
_cell_volume 1540.937352
_symmetry_space_group_name_H-M "P 4 21 2"
_symmetry_group_IT_number 90
_symmetry_cell_setting 'tetragonal'
loop_
_space_group_symop_operation_xyz
x,y,z
1/2-y,1/2+x,z
-x,-y,z
1/2+y,1/2-x,z
1/2+x,1/2-y,-z
1/2-x,1/2+y,-z
y,x,-z
-y,-x,-z
loop_
_atom_site_type_symbol
_atom_site_label
_atom_site_fract_x
_atom_site_fract_y
_atom_site_fract_z
Si Si1 0.591919 0.231843 0.877629
Si Si2 0.397821 0.245596 0.056376
Si Si3 0.472620 0.841599 0.526106
Si Si4 0.176273 0.257445 0.674042
O O1 0.509794 0.255820 0.012544
O O2 0.655334 0.143082 0.946793
O O3 0.536136 0.204762 0.707842
O O4 0.672444 0.306524 0.809266
O O5 0.341099 0.341099 0.000000
O O6 0.352630 0.219325 0.237240
O O7 0.573863 0.893087 0.512873
O O8 0.433951 0.770244 0.383678
O O9 0.230951 0.230951 0.500000
#
# Coordination Sequence:
#
# PCOD9547086 Si02
#       4
#     8   8   8   8
#     4  10  19  37  60  86 130 168 217 267 328 387
#     4  10  21  36  59  91 121 172 219 275 329 392
#     4  10  19  33  56  93 132 170 212 270 333 388
#     4   9  21  37  56  89 131 173 206 268 337 397
#
# _framework density 20.766580000000001
#
# number of rings (size 3 to 8) (size 9 to 14) (size 15 to 20)
#    0.000    2.250    2.500    0.000    3.500    0.500 
#    0.000    0.000    0.000    6.750    0.000    1.750 
#    0.000    0.000    0.000    0.000    0.000    0.000 
#
# Total GULP energy -178358.230228 kJ/mol
# GULP energy per Si atom -5573.694695 kJ/mol
# Density = 2.071931 g / cm^3
# Si number density = 20.766580 Si / 1000 Ang^3
#
#
#
# Elastic Constant Matrix: (Units=GPa)
#
#
# Indices 1 2 3 4 5 6 
#
# 1 65.1640 51.9429 33.2049 0.0000 0.0000 0.0000
# 2 51.9429 65.1640 33.2049 0.0000 0.0000 0.0000
# 3 33.2049 33.2049 135.1257 0.0000 0.0000 0.0000
# 4 0.0000 0.0000 0.0000 29.9872 0.0000 0.0000
# 5 0.0000 0.0000 0.0000 0.0000 29.9872 0.0000
# 6 0.0000 0.0000 0.0000 0.0000 0.0000 20.9467
#
#
#
# Elastic Compliance Matrix: (Units=1/GPa)
#
#
# Indices 1 2 3 4 5 6 
#
# 1 0.042779 -0.032857 -0.002438 0.000000 0.000000 0.000000
# 2 -0.032857 0.042779 -0.002438 0.000000 0.000000 0.000000
# 3 -0.002438 -0.002438 0.008599 0.000000 0.000000 0.000000
# 4 0.000000 0.000000 0.000000 0.033348 0.000000 0.000000
# 5 0.000000 0.000000 0.000000 0.000000 0.033348 0.000000
# 6 0.000000 0.000000 0.000000 0.000000 0.000000 0.047740
#
#
# Mechanical properties :
#
#
# Convention : Reuss Voigt Hill
#
# Bulk Modulus (GPa) = 53.50472 55.79546 54.65009
# Shear Modulus (GPa) = 17.22417 25.99094 21.60755
#
# Velocity S-wave (km/s) = 2.88309 3.54160 3.22917
# Velocity P-wave (km/s) = 6.07484 6.60682 6.34641
#
# Compressibility (1/GPa) = 0.01868994
#
# Stress axis : x y z
#
# Youngs Moduli (GPa) = 23.37585 23.37585 116.29563
#
# Poissons Ratio (x) = 0.76807 0.28354
# Poissons Ratio (y) = 0.76807 0.28354
# Poissons Ratio (z) = 0.05699 0.05699
#
# Static dielectric constant tensor:
#      x y z
#    x 1.758150 0.000000 0.000000 
#    y 0.000000 1.758150 0.000000 
#    z 0.000000 0.000000 1.810770 
# 
# From -- ./inp_files/1042.got.cif
#   From: 2010.05.17/outbox.cif.g08.bks.cpg/sg90_1_cif.got.tgz:1042.got - 2010.06.03 19:17:45.
