data_PCOD9547947
_publ_section_title
;
Structure prediction by ZEFSAII (Michael W. Deem and Ramdas Pophale) SiO2 
 PCOD9547947
Probable space group: P 41 2 2
;
_chemical_formula_sum "Si O2"
_cell_formula_units_Z 40
_cell_length_a 19.164729
_cell_length_b 19.164729
_cell_length_c 5.370220
_cell_angle_alpha 90.000000
_cell_angle_beta 90.000000
_cell_angle_gamma 90.000000
_cell_volume 1972.411121
_symmetry_space_group_name_H-M "P 41 2 2"
_symmetry_group_IT_number 91
_symmetry_cell_setting 'tetragonal'
loop_
_space_group_symop_operation_xyz
x,y,z
-y,x,1/4+z
-x,-y,1/2+z
y,-x,3/4+z
x,-y,1/2-z
-x,y,-z
y,x,3/4-z
-y,-x,1/4-z
loop_
_atom_site_type_symbol
_atom_site_label
_atom_site_fract_x
_atom_site_fract_y
_atom_site_fract_z
Si Si1 0.343886 0.500000 0.250000
Si Si2 0.732114 0.158022 0.747405
Si Si3 0.387519 0.387519 0.875000
Si Si4 0.461086 0.085190 0.751171
Si Si5 0.621818 0.273036 0.769163
Si Si6 0.702301 0.083232 0.252209
O O1 0.391301 0.551762 0.419144
O O2 0.290966 0.450754 0.396248
O O3 0.788148 0.211853 0.625000
O O4 0.658724 0.199449 0.767373
O O5 0.726774 0.102833 0.527655
O O6 0.740961 0.122676 0.020937
O O7 0.307457 0.390071 0.786573
O O8 0.500000 0.108756 0.500000
O O9 0.379649 0.103384 0.761540
O O10 0.464174 0.000000 0.750000
O O11 0.500000 0.109888 0.000000
O O12 0.676432 0.323569 0.625000
O O13 0.707882 0.000000 0.250000
#
# Coordination Sequence:
#
# PCOD9547947 Si02
#       6
#     4   8   4   8   8   8
#     4  10  20  38  60  84 116 156 208 282 344 394
#     4  11  24  41  66  95 127 171 218 260 320 382
#     4  10  20  38  62  82 118 158 206 284 334 408
#     4   9  17  32  52  76 114 161 202 244 303 365
#     4   9  21  37  62  79 116 155 211 264 321 384
#     4  11  23  41  64  95 133 171 210 266 320 379
#
# _framework density 20.27975
#
# number of rings (size 3 to 8) (size 9 to 14) (size 15 to 20)
#    0.000    2.000    0.000    3.000    8.400    3.200 
#    5.400    0.000   79.200    0.000    0.000    0.000 
#    0.000   22.400    0.000    0.000    0.000    0.000 
#
# Total GULP energy -222966.172571 kJ/mol
# GULP energy per Si atom -5574.154314 kJ/mol
# Density = 2.023359 g / cm^3
# Si number density = 20.279750 Si / 1000 Ang^3
#
#
#
# Elastic Constant Matrix: (Units=GPa)
#
#
# Indices 1 2 3 4 5 6 
#
# 1 62.4922 11.5396 20.2181 0.0000 0.0000 0.0000
# 2 11.5396 62.4909 20.2183 0.0000 0.0000 0.0000
# 3 20.2181 20.2183 119.0823 0.0000 0.0000 0.0000
# 4 0.0000 0.0000 0.0000 7.1205 0.0000 0.0000
# 5 0.0000 0.0000 0.0000 0.0000 7.1182 0.0000
# 6 0.0000 0.0000 0.0000 0.0000 0.0000 13.1397
#
#
#
# Elastic Compliance Matrix: (Units=1/GPa)
#
#
# Indices 1 2 3 4 5 6 
#
# 1 0.017257 -0.002369 -0.002528 0.000000 0.000000 0.000000
# 2 -0.002369 0.017258 -0.002528 0.000000 0.000000 0.000000
# 3 -0.002528 -0.002528 0.009256 0.000000 0.000000 0.000000
# 4 0.000000 0.000000 0.000000 0.140439 0.000000 0.000000
# 5 0.000000 0.000000 0.000000 0.000000 0.140485 0.000000
# 6 0.000000 0.000000 0.000000 0.000000 0.000000 0.076105
#
#
# Mechanical properties :
#
#
# Convention : Reuss Voigt Hill
#
# Bulk Modulus (GPa) = 34.57611 38.66861 36.62236
# Shear Modulus (GPa) = 11.75668 18.28164 15.01916
#
# Velocity S-wave (km/s) = 2.41036 3.00571 2.72435
# Velocity P-wave (km/s) = 4.98328 5.58164 5.29092
#
# Compressibility (1/GPa) = 0.02892170
#
# Stress axis : x y z
#
# Youngs Moduli (GPa) = 57.94667 57.94536 108.03897
#
# Poissons Ratio (x) = 0.13727 0.27310
# Poissons Ratio (y) = 0.13727 0.27311
# Poissons Ratio (z) = 0.14648 0.14648
#
# Static dielectric constant tensor:
#      x y z
#    x 1.755030 0.000000 0.000000 
#    y 0.000000 1.755030 0.000000 
#    z 0.000000 0.000000 1.784730 
# 
# From -- ./inp_files/18612.got.cif
#   From: 2010.05.17/outbox.cif.g08.bks.cpg/sg91_10_cif.got.tgz:18612.got - 2010.06.03 19:20:03.
