data_PCOD9547854
_publ_section_title
;
Structure prediction by ZEFSAII (Michael W. Deem and Ramdas Pophale) SiO2 
 PCOD9547854
Probable space group: P 41 2 2
;
_chemical_formula_sum "Si O2"
_cell_formula_units_Z 64
_cell_length_a 10.748684
_cell_length_b 10.748684
_cell_length_c 23.301566
_cell_angle_alpha 90.000000
_cell_angle_beta 90.000000
_cell_angle_gamma 90.000000
_cell_volume 2692.127967
_symmetry_space_group_name_H-M "P 41 2 2"
_symmetry_group_IT_number 91
_symmetry_cell_setting 'tetragonal'
loop_
_space_group_symop_operation_xyz
x,y,z
-y,x,1/4+z
-x,-y,1/2+z
y,-x,3/4+z
x,-y,1/2-z
-x,y,-z
y,x,3/4-z
-y,-x,1/4-z
loop_
_atom_site_type_symbol
_atom_site_label
_atom_site_fract_x
_atom_site_fract_y
_atom_site_fract_z
Si Si1 0.692361 0.638838 0.221430
Si Si2 0.059052 0.197635 0.588429
Si Si3 0.151040 0.328846 0.366989
Si Si4 0.547245 0.806210 0.643001
Si Si5 0.814573 0.888158 0.206618
Si Si6 0.403804 0.044138 0.621480
Si Si7 0.571003 0.646090 0.745734
Si Si8 0.265343 0.145976 0.509240
O O1 0.701615 0.500000 0.250000
O O2 0.741893 0.613400 0.159048
O O3 0.776569 0.759025 0.239825
O O4 0.547395 0.673538 0.215054
O O5 0.110884 0.339098 0.583136
O O6 0.096727 0.138469 0.650600
O O7 0.127762 0.128095 0.536456
O O8 0.914377 0.230038 0.589840
O O9 0.295321 0.295321 0.375000
O O10 0.118469 0.468704 0.380546
O O11 0.096289 0.304662 0.302994
O O12 0.512018 0.698478 0.686618
O O13 0.439491 0.898727 0.623457
O O14 0.689794 0.929714 0.173159
O O15 0.851199 0.000000 0.250000
O O16 0.349260 0.089516 0.560555
O O17 0.593407 0.500000 0.750000
O O18 0.706807 0.706184 0.748347
#
# Coordination Sequence:
#
# PCOD9547854 Si02
#       8
#     8   8   8   8   8   8   8   8
#     4  10  22  35  57  89 126 163 193 260 330 374
#     4   8  20  41  58  85 123 161 206 267 323 363
#     4  11  23  38  60  94 122 160 211 261 332 387
#     4   9  19  38  59  84 124 163 210 257 307 392
#     4  10  20  39  65  88 120 166 218 260 314 387
#     4  10  21  39  64  89 119 167 222 262 307 389
#     4  10  20  35  55  89 128 164 196 253 332 383
#     4  10  21  40  63  87 124 169 214 266 314 396
#
# _framework density 23.773014
#
# number of rings (size 3 to 8) (size 9 to 14) (size 15 to 20)
#    0.000    2.250    0.000    2.625    1.750    5.500 
#    2.250    0.000    0.000    0.000    0.000    0.000 
#    0.000    0.000    0.000    0.000    0.000    0.000 
#
# Total GULP energy -356777.052314 kJ/mol
# GULP energy per Si atom -5574.641442 kJ/mol
# Density = 2.371891 g / cm^3
# Si number density = 23.773014 Si / 1000 Ang^3
#
#
#
# Elastic Constant Matrix: (Units=GPa)
#
#
# Indices 1 2 3 4 5 6 
#
# 1 94.3004 3.6587 15.4588 0.0000 0.0000 0.0000
# 2 3.6587 94.3004 15.4588 0.0000 0.0000 0.0000
# 3 15.4588 15.4588 42.6645 0.0000 0.0000 0.0000
# 4 0.0000 0.0000 0.0000 2.7869 0.0000 0.0000
# 5 0.0000 0.0000 0.0000 0.0000 2.7869 0.0000
# 6 0.0000 0.0000 0.0000 0.0000 0.0000 133.8589
#
#
#
# Elastic Compliance Matrix: (Units=1/GPa)
#
#
# Indices 1 2 3 4 5 6 
#
# 1 0.011279 0.000247 -0.004176 0.000000 0.000000 0.000000
# 2 0.000247 0.011279 -0.004176 0.000000 0.000000 0.000000
# 3 -0.004176 -0.004176 0.026465 0.000000 0.000000 0.000000
# 4 0.000000 0.000000 0.000000 0.358828 0.000000 0.000000
# 5 0.000000 0.000000 0.000000 0.000000 0.358828 0.000000
# 6 0.000000 0.000000 0.000000 0.000000 0.000000 0.007471
#
#
# Mechanical properties :
#
#
# Convention : Reuss Voigt Hill
#
# Bulk Modulus (GPa) = 30.47623 33.37977 31.92800
# Shear Modulus (GPa) = 6.23987 40.99912 23.61949
#
# Velocity S-wave (km/s) = 1.62187 4.15734 3.15547
# Velocity P-wave (km/s) = 4.04411 6.09231 5.17064
#
# Compressibility (1/GPa) = 0.03281246
#
# Stress axis : x y z
#
# Youngs Moduli (GPa) = 88.65663 88.65663 37.78542
#
# Poissons Ratio (x) = -0.02190 0.15781
# Poissons Ratio (y) = -0.02190 0.15781
# Poissons Ratio (z) = 0.37027 0.37027
#
# Static dielectric constant tensor:
#      x y z
#    x 2.083060 0.000000 0.000000 
#    y 0.000000 2.083060 0.000000 
#    z 0.000000 0.000000 1.970570 
# 
# From -- ./inp_files/7049.got.cif
#   From: 2010.05.17/outbox.cif.g08.bks.cpg/sg91_4_cif.got.tgz:7049.got - 2010.06.03 19:20:03.
