data_PCOD9547269
_publ_section_title
;
Structure prediction by ZEFSAII (Michael W. Deem and Ramdas Pophale) SiO2 
 PCOD9547269
Probable space group: P 4 21 2
;
_chemical_formula_sum "Si O2"
_cell_formula_units_Z 36
_cell_length_a 11.947906
_cell_length_b 11.947906
_cell_length_c 11.412576
_cell_angle_alpha 90.000000
_cell_angle_beta 90.000000
_cell_angle_gamma 90.000000
_cell_volume 1629.173274
_symmetry_space_group_name_H-M "P 4 21 2"
_symmetry_group_IT_number 90
_symmetry_cell_setting 'tetragonal'
loop_
_space_group_symop_operation_xyz
x,y,z
1/2-y,1/2+x,z
-x,-y,z
1/2+y,1/2-x,z
1/2+x,1/2-y,-z
1/2-x,1/2+y,-z
y,x,-z
-y,-x,-z
loop_
_atom_site_type_symbol
_atom_site_label
_atom_site_fract_x
_atom_site_fract_y
_atom_site_fract_z
Si Si1 0.331134 0.489983 0.945151
Si Si2 0.932368 0.161147 0.670189
Si Si3 0.756495 0.243506 0.500000
Si Si4 0.824311 0.444936 0.130658
Si Si5 0.326377 0.581332 0.343753
O O1 0.325872 0.459374 0.808309
O O2 0.371601 0.371601 0.000000
O O3 0.422901 0.577100 0.000000
O O4 0.217734 0.542234 0.997243
O O5 0.857926 0.244566 0.594222
O O6 0.058066 0.144008 0.625548
O O7 0.861803 0.047356 0.648616
O O8 0.762867 0.357083 0.424168
O O9 0.865393 0.571325 0.156474
O O10 0.721235 0.408495 0.212070
#
# Coordination Sequence:
#
# PCOD9547269 Si02
#       5
#     8   8   4   8   8
#     4  11  20  41  71 104 138 180 242 313 373 437
#     4  11  23  44  71 104 138 190 259 304 360 470
#     4  12  26  38  68 108 140 194 242 310 376 424
#     4  11  24  40  64 103 145 187 236 306 388 455
#     4  11  22  44  68  95 145 189 246 306 368 446
#
# _framework density 22.097097999999999
#
# number of rings (size 3 to 8) (size 9 to 14) (size 15 to 20)
#    0.000    0.889    4.444    4.000    0.000    4.444 
#    0.000    0.000    0.000    6.000    0.000    0.000 
#    0.000    0.000    0.000    0.000    0.000    0.000 
#
# Total GULP energy -200533.479227 kJ/mol
# GULP energy per Si atom -5570.374423 kJ/mol
# Density = 2.204680 g / cm^3
# Si number density = 22.097098 Si / 1000 Ang^3
#
#
#
# Elastic Constant Matrix: (Units=GPa)
#
#
# Indices 1 2 3 4 5 6 
#
# 1 66.7119 30.9132 53.3429 0.0000 0.0000 0.0000
# 2 30.9132 66.7127 53.3430 0.0000 0.0000 0.0000
# 3 53.3429 53.3430 168.4547 0.0000 0.0000 0.0000
# 4 0.0000 0.0000 0.0000 33.8027 0.0000 0.0000
# 5 0.0000 0.0000 0.0000 0.0000 33.8014 0.0000
# 6 0.0000 0.0000 0.0000 0.0000 0.0000 30.4895
#
#
#
# Elastic Compliance Matrix: (Units=1/GPa)
#
#
# Indices 1 2 3 4 5 6 
#
# 1 0.021799 -0.006135 -0.004960 0.000000 0.000000 0.000000
# 2 -0.006135 0.021798 -0.004960 0.000000 0.000000 0.000000
# 3 -0.004960 -0.004960 0.009078 0.000000 0.000000 0.000000
# 4 0.000000 0.000000 0.000000 0.029583 0.000000 0.000000
# 5 0.000000 0.000000 0.000000 0.000000 0.029585 0.000000
# 6 0.000000 0.000000 0.000000 0.000000 0.000000 0.032798
#
#
# Mechanical properties :
#
#
# Convention : Reuss Voigt Hill
#
# Bulk Modulus (GPa) = 48.62713 64.11971 56.37342
# Shear Modulus (GPa) = 27.23222 30.57076 28.90149
#
# Velocity S-wave (km/s) = 3.51435 3.72354 3.62046
# Velocity P-wave (km/s) = 6.20656 6.89686 6.56079
#
# Compressibility (1/GPa) = 0.02056465
#
# Stress axis : x y z
#
# Youngs Moduli (GPa) = 45.87412 45.87478 110.16111
#
# Poissons Ratio (x) = 0.28144 0.54641
# Poissons Ratio (y) = 0.28144 0.54640
# Poissons Ratio (z) = 0.22754 0.22754
#
# Static dielectric constant tensor:
#      x y z
#    x 1.861630 0.000000 0.000000 
#    y 0.000000 1.861630 0.000000 
#    z 0.000000 0.000000 1.890840 
# 
# From -- ./inp_files/1973.got.cif
#   From: 2010.05.17/outbox.cif.g08.bks.cpg/sg90_1_cif.got.tgz:1973.got - 2010.06.03 19:17:45.
