data_PCOD9547588
_publ_section_title
;
Structure prediction by ZEFSAII (Michael W. Deem and Ramdas Pophale) SiO2 
 PCOD9547588
Probable space group: P 41 2 2
;
_chemical_formula_sum "Si O2"
_cell_formula_units_Z 60
_cell_length_a 18.289212
_cell_length_b 18.289212
_cell_length_c 10.713078
_cell_angle_alpha 90.000000
_cell_angle_beta 90.000000
_cell_angle_gamma 90.000000
_cell_volume 3583.473978
_symmetry_space_group_name_H-M "P 41 2 2"
_symmetry_group_IT_number 91
_symmetry_cell_setting 'tetragonal'
loop_
_space_group_symop_operation_xyz
x,y,z
-y,x,1/4+z
-x,-y,1/2+z
y,-x,3/4+z
x,-y,1/2-z
-x,y,-z
y,x,3/4-z
-y,-x,1/4-z
loop_
_atom_site_type_symbol
_atom_site_label
_atom_site_fract_x
_atom_site_fract_y
_atom_site_fract_z
Si Si1 0.553483 0.813379 0.785274
Si Si2 0.194182 0.693051 0.666331
Si Si3 0.945030 0.495164 0.106446
Si Si4 0.218125 0.781876 0.125000
Si Si5 0.967616 0.673288 0.372328
Si Si6 0.329923 0.277613 0.170565
Si Si7 0.887071 0.672170 0.780250
Si Si8 0.609577 0.223291 0.333535
O O1 0.532989 0.867700 0.670898
O O2 0.594764 0.740180 0.740694
O O3 0.608784 0.859407 0.874136
O O4 0.476242 0.792064 0.846693
O O5 0.232423 0.767578 0.625000
O O6 0.231053 0.668755 0.794366
O O7 0.216138 0.634681 0.559574
O O8 0.108009 0.705611 0.675743
O O9 0.969333 0.500000 0.250000
O O10 0.942579 0.408340 0.087442
O O11 0.000000 0.523966 0.000000
O O12 0.269047 0.757809 0.239985
O O13 0.249034 0.861356 0.085305
O O14 0.029522 0.670028 0.265573
O O15 0.000000 0.707445 0.500000
O O16 0.299478 0.358319 0.138526
O O17 0.840087 0.652930 0.657052
#
# Coordination Sequence:
#
# PCOD9547588 Si02
#       8
#     8   8   8   4   8   8   8   8
#     4  11  20  31  50  72 104 142 175 221 272 319
#     4  10  19  33  50  74 106 140 177 220 257 309
#     4  11  21  31  45  70 108 143 170 205 261 321
#     4   8  18  36  50  70 102 142 168 224 254 314
#     4  11  19  31  49  78 109 138 171 213 257 319
#     4   9  20  32  50  71 100 133 183 220 263 318
#     4  10  19  33  52  76 108 140 180 211 269 326
#     4  10  18  33  50  71 106 135 180 221 262 319
#
# _framework density 16.743528000000001
#
# number of rings (size 3 to 8) (size 9 to 14) (size 15 to 20)
#    0.000    1.867    2.667    2.800    0.000    0.000 
#    0.000    2.000    0.000    0.000    0.000    0.000 
#  130.000    0.000    0.000    0.000    0.000    0.000 
#
# Total GULP energy -334046.502993 kJ/mol
# GULP energy per Si atom -5567.441717 kJ/mol
# Density = 1.670542 g / cm^3
# Si number density = 16.743528 Si / 1000 Ang^3
#
#
#
# Elastic Constant Matrix: (Units=GPa)
#
#
# Indices 1 2 3 4 5 6 
#
# 1 58.0217 45.6646 4.1582 0.0000 0.0000 0.0000
# 2 45.6646 58.0227 4.1579 0.0000 0.0000 0.0000
# 3 4.1582 4.1579 75.3521 0.0000 0.0000 0.0000
# 4 0.0000 0.0000 0.0000 19.3916 0.0000 0.0000
# 5 0.0000 0.0000 0.0000 0.0000 19.3921 0.0000
# 6 0.0000 0.0000 0.0000 0.0000 0.0000 13.9661
#
#
#
# Elastic Compliance Matrix: (Units=1/GPa)
#
#
# Indices 1 2 3 4 5 6 
#
# 1 0.045305 -0.035617 -0.000535 0.000000 0.000000 0.000000
# 2 -0.035617 0.045304 -0.000534 0.000000 0.000000 0.000000
# 3 -0.000535 -0.000534 0.013330 0.000000 0.000000 0.000000
# 4 0.000000 0.000000 0.000000 0.051569 0.000000 0.000000
# 5 0.000000 0.000000 0.000000 0.000000 0.051567 0.000000
# 6 0.000000 0.000000 0.000000 0.000000 0.000000 0.071602
#
#
# Mechanical properties :
#
#
# Convention : Reuss Voigt Hill
#
# Bulk Modulus (GPa) = 32.71570 33.26201 32.98885
# Shear Modulus (GPa) = 13.80302 19.71100 16.75701
#
# Velocity S-wave (km/s) = 2.87432 3.43480 3.16698
# Velocity P-wave (km/s) = 5.53148 5.96986 5.75485
#
# Compressibility (1/GPa) = 0.03056637
#
# Stress axis : x y z
#
# Youngs Moduli (GPa) = 22.07255 22.07297 75.01861
#
# Poissons Ratio (x) = 0.78618 0.04012
# Poissons Ratio (y) = 0.78617 0.04009
# Poissons Ratio (z) = 0.01180 0.01179
#
# Static dielectric constant tensor:
#      x y z
#    x 1.590920 0.000000 0.000000 
#    y 0.000000 1.590920 0.000000 
#    z 0.000000 0.000000 1.641040 
# 
# From -- ./inp_files/4045.got.cif
#   From: 2010.05.17/outbox.cif.g08.bks.cpg/sg91_3_cif.got.tgz:4045.got - 2010.06.03 19:20:03.
