data_PCOD9547339
_publ_section_title
;
Structure prediction by ZEFSAII (Michael W. Deem and Ramdas Pophale) SiO2 
 PCOD9547339
Probable space group: P 4 21 2
;
_chemical_formula_sum "Si O2"
_cell_formula_units_Z 40
_cell_length_a 9.034520
_cell_length_b 9.034520
_cell_length_c 20.593408
_cell_angle_alpha 90.000000
_cell_angle_beta 90.000000
_cell_angle_gamma 90.000000
_cell_volume 1680.886508
_symmetry_space_group_name_H-M "P 4 21 2"
_symmetry_group_IT_number 90
_symmetry_cell_setting 'tetragonal'
loop_
_space_group_symop_operation_xyz
x,y,z
1/2-y,1/2+x,z
-x,-y,z
1/2+y,1/2-x,z
1/2+x,1/2-y,-z
1/2-x,1/2+y,-z
y,x,-z
-y,-x,-z
loop_
_atom_site_type_symbol
_atom_site_label
_atom_site_fract_x
_atom_site_fract_y
_atom_site_fract_z
Si Si1 0.901072 0.270085 0.444333
Si Si2 0.771877 0.459504 0.005916
Si Si3 0.727953 0.035527 0.841508
Si Si4 0.726661 0.071106 0.193710
Si Si5 0.096460 0.719805 0.650435
O O1 0.812745 0.426444 0.448280
O O2 0.838133 0.161868 0.500000
O O3 0.859058 0.180919 0.379004
O O4 0.834907 0.613702 0.978485
O O5 0.784732 0.498097 0.082301
O O6 0.612202 0.387799 0.000000
O O7 0.615624 0.161649 0.813802
O O8 0.882353 0.113670 0.830710
O O9 0.592179 0.178015 0.172528
O O10 0.727590 0.083755 0.271871
O O11 0.188122 0.572756 0.629205
#
# Coordination Sequence:
#
# PCOD9547339 Si02
#       5
#     8   8   8   8   8
#     4  11  24  39  56  83 119 160 208 260 313 369
#     4   9  19  39  62  88 120 153 193 240 291 351
#     4   9  19  37  57  84 120 153 190 240 295 352
#     4   9  19  37  61  91 123 156 199 248 299 360
#     4   9  19  37  60  86 119 157 200 253 306 360
#
# _framework density 23.796966999999999
#
# number of rings (size 3 to 8) (size 9 to 14) (size 15 to 20)
#    0.000    2.600    0.000    3.600    0.000    7.200 
#    0.000   26.000    0.000    9.600    0.000    0.000 
#    0.000    0.000    0.000    0.000    0.000    0.000 
#
# Total GULP energy -223115.077189 kJ/mol
# GULP energy per Si atom -5577.876930 kJ/mol
# Density = 2.374280 g / cm^3
# Si number density = 23.796967 Si / 1000 Ang^3
#
#
#
# Elastic Constant Matrix: (Units=GPa)
#
#
# Indices 1 2 3 4 5 6 
#
# 1 62.5719 102.8050 15.9923 0.0000 0.0000 0.0000
# 2 102.8050 62.5709 15.9922 0.0000 0.0000 0.0000
# 3 15.9923 15.9922 36.5100 0.0000 0.0000 0.0000
# 4 0.0000 0.0000 0.0000 -20.1206 0.0000 0.0000
# 5 0.0000 0.0000 0.0000 0.0000 -20.1202 0.0000
# 6 0.0000 0.0000 0.0000 0.0000 0.0000 71.2291
#
#
#
# Elastic Compliance Matrix: (Units=1/GPa)
#
#
# Indices 1 2 3 4 5 6 
#
# 1 -0.009124 0.015731 -0.002894 0.000000 0.000000 0.000000
# 2 0.015731 -0.009124 -0.002894 0.000000 0.000000 0.000000
# 3 -0.002894 -0.002894 0.029925 0.000000 0.000000 0.000000
# 4 0.000000 0.000000 0.000000 -0.049700 0.000000 0.000000
# 5 0.000000 0.000000 0.000000 0.000000 -0.049701 0.000000
# 6 0.000000 0.000000 0.000000 0.000000 0.000000 0.014039
#
#
# Mechanical properties :
#
#
# Convention : Reuss Voigt Hill
#
# Bulk Modulus (GPa) = 31.68303 47.91465 39.79884
# Shear Modulus (GPa) = -60.20380 7.98855 -26.10762
#
# Velocity S-wave (km/s) = -5.03526 1.83419 -3.31584
# Velocity P-wave (km/s) = 4.52353 4.96630 1.44945
#
# Compressibility (1/GPa) = 0.03156264
#
# Stress axis : x y z
#
# Youngs Moduli (GPa) = -109.59994 -109.59804 33.41706
#
# Poissons Ratio (x) = 1.72405 0.09670
# Poissons Ratio (y) = 1.72408 0.09670
# Poissons Ratio (z) = -0.31716 -0.31715
#
# Static dielectric constant tensor:
#      x y z
#    x 1.953730 0.000000 0.000000 
#    y 0.000000 1.953730 0.000000 
#    z 0.000000 0.000000 1.928230 
# 
# From -- ./inp_files/2886.got.cif
#   From: 2010.05.17/outbox.cif.g08.bks.cpg/sg90_2_cif.got.tgz:2886.got - 2010.06.03 19:17:45.
