data_PCOD9547762
_publ_section_title
;
Structure prediction by ZEFSAII (Michael W. Deem and Ramdas Pophale) SiO2 
 PCOD9547762
Probable space group: P 41 2 2
;
_chemical_formula_sum "Si O2"
_cell_formula_units_Z 32
_cell_length_a 8.704710
_cell_length_b 8.704710
_cell_length_c 16.976318
_cell_angle_alpha 90.000000
_cell_angle_beta 90.000000
_cell_angle_gamma 90.000000
_cell_volume 1286.329163
_symmetry_space_group_name_H-M "P 41 2 2"
_symmetry_group_IT_number 91
_symmetry_cell_setting 'tetragonal'
loop_
_space_group_symop_operation_xyz
x,y,z
-y,x,1/4+z
-x,-y,1/2+z
y,-x,3/4+z
x,-y,1/2-z
-x,y,-z
y,x,3/4-z
-y,-x,1/4-z
loop_
_atom_site_type_symbol
_atom_site_label
_atom_site_fract_x
_atom_site_fract_y
_atom_site_fract_z
Si Si1 0.148497 0.394155 0.404108
Si Si2 0.101717 0.852430 0.897613
Si Si3 0.686230 0.221289 0.247732
Si Si4 0.356809 0.050312 0.915607
O O1 0.284142 0.284142 0.375000
O O2 0.218909 0.512130 0.469034
O O3 0.002358 0.287485 0.424262
O O4 0.064047 0.501110 0.339280
O O5 0.209115 0.803108 0.824988
O O6 0.219978 0.946641 0.952636
O O7 0.981876 0.981876 0.875000
O O8 0.782770 0.358365 0.205837
O O9 0.681964 0.096689 0.176175
#
# Coordination Sequence:
#
# PCOD9547762 Si02
#       4
#     8   8   8   8
#     4  10  22  40  68 111 151 187 236 307 376 417
#     4  10  19  36  67 107 138 179 237 301 352 413
#     4  10  21  43  75 100 145 189 251 284 366 449
#     4  10  21  42  75 104 138 199 244 293 358 450
#
# _framework density 24.876988999999998
#
# number of rings (size 3 to 8) (size 9 to 14) (size 15 to 20)
#    0.000    2.000    2.500    3.000    0.000    1.000 
#   18.000    0.000   44.000    0.000    0.000    0.000 
#    0.000    0.000    0.000    0.000    0.000    0.000 
#
# Total GULP energy -178339.123427 kJ/mol
# GULP energy per Si atom -5573.097607 kJ/mol
# Density = 2.482037 g / cm^3
# Si number density = 24.876989 Si / 1000 Ang^3
#
#
#
# Elastic Constant Matrix: (Units=GPa)
#
#
# Indices 1 2 3 4 5 6 
#
# 1 182.8348 85.7067 58.4610 0.0000 0.0000 0.0000
# 2 85.7067 182.8348 58.4610 0.0000 0.0000 0.0000
# 3 58.4610 58.4610 103.3022 0.0000 0.0000 0.0000
# 4 0.0000 0.0000 0.0000 21.9385 0.0000 0.0000
# 5 0.0000 0.0000 0.0000 0.0000 21.9385 0.0000
# 6 0.0000 0.0000 0.0000 0.0000 0.0000 31.1145
#
#
#
# Elastic Compliance Matrix: (Units=1/GPa)
#
#
# Indices 1 2 3 4 5 6 
#
# 1 0.007619 -0.002677 -0.002796 0.000000 0.000000 0.000000
# 2 -0.002677 0.007619 -0.002796 0.000000 0.000000 0.000000
# 3 -0.002796 -0.002796 0.012845 0.000000 0.000000 0.000000
# 4 0.000000 0.000000 0.000000 0.045582 0.000000 0.000000
# 5 0.000000 0.000000 0.000000 0.000000 0.045582 0.000000
# 6 0.000000 0.000000 0.000000 0.000000 0.000000 0.032139
#
#
# Mechanical properties :
#
#
# Convention : Reuss Voigt Hill
#
# Bulk Modulus (GPa) = 86.63650 97.13657 91.88653
# Shear Modulus (GPa) = 29.10811 32.75450 30.93130
#
# Velocity S-wave (km/s) = 3.42436 3.63252 3.52997
# Velocity P-wave (km/s) = 7.10890 7.53161 7.32331
#
# Compressibility (1/GPa) = 0.01154248
#
# Stress axis : x y z
#
# Youngs Moduli (GPa) = 131.25892 131.25892 77.84855
#
# Poissons Ratio (x) = 0.35140 0.21770
# Poissons Ratio (y) = 0.35140 0.21770
# Poissons Ratio (z) = 0.36706 0.36706
#
# Static dielectric constant tensor:
#      x y z
#    x 2.020430 0.000000 0.000000 
#    y 0.000000 2.020430 0.000000 
#    z 0.000000 0.000000 2.234190 
# 
# From -- ./inp_files/12201.got.cif
#   From: 2010.05.17/outbox.cif.g08.bks.cpg/sg91_7_cif.got.tgz:12201.got - 2010.06.03 19:20:03.
