data_PCOD9547625
_publ_section_title
;
Structure prediction by ZEFSAII (Michael W. Deem and Ramdas Pophale) SiO2 
 PCOD9547625
Probable space group: P 41 2 2
;
_chemical_formula_sum "Si O2"
_cell_formula_units_Z 60
_cell_length_a 13.381463
_cell_length_b 13.381463
_cell_length_c 16.967434
_cell_angle_alpha 90.000000
_cell_angle_beta 90.000000
_cell_angle_gamma 90.000000
_cell_volume 3038.249001
_symmetry_space_group_name_H-M "P 41 2 2"
_symmetry_group_IT_number 91
_symmetry_cell_setting 'tetragonal'
loop_
_space_group_symop_operation_xyz
x,y,z
-y,x,1/4+z
-x,-y,1/2+z
y,-x,3/4+z
x,-y,1/2-z
-x,y,-z
y,x,3/4-z
-y,-x,1/4-z
loop_
_atom_site_type_symbol
_atom_site_label
_atom_site_fract_x
_atom_site_fract_y
_atom_site_fract_z
Si Si1 0.844977 0.050354 0.881809
Si Si2 0.899284 0.319548 0.909239
Si Si3 0.824465 0.505309 0.159758
Si Si4 0.015648 0.000000 0.250000
Si Si5 0.221723 0.288852 0.589866
Si Si6 0.284560 0.124446 0.844512
Si Si7 0.904793 0.704787 0.940564
Si Si8 0.474709 0.940114 0.089334
O O1 0.922750 0.048657 0.951354
O O2 0.796302 0.944774 0.860876
O O3 0.912840 0.066743 0.804809
O O4 0.756904 0.128347 0.889877
O O5 0.798582 0.299772 0.859532
O O6 0.920642 0.436042 0.899852
O O7 0.006678 0.273778 0.880857
O O8 0.879393 0.289499 0.999427
O O9 0.788122 0.500000 0.250000
O O10 0.766477 0.595119 0.114434
O O11 0.831658 0.392406 0.124442
O O12 0.940305 0.540462 0.162006
O O13 0.186587 0.282515 0.499495
O O14 0.194999 0.194999 0.875000
O O15 0.887860 0.619319 0.877556
O O16 0.000000 0.681114 0.000000
O O17 0.500000 0.909969 0.000000
#
# Coordination Sequence:
#
# PCOD9547625 Si02
#       8
#     8   8   8   4   8   8   8   8
#     4  10  20  36  52  75 111 160 206 242 290 346
#     4  10  23  37  57  89 124 163 204 257 324 382
#     4  10  19  34  61  88 113 156 211 265 309 369
#     4  10  20  36  48  74 114 156 200 244 280 346
#     4  11  20  37  57  86 117 157 209 257 306 370
#     4  10  21  41  61  88 129 170 208 260 323 381
#     4  10  18  36  59  79 106 153 209 258 295 362
#     4  10  20  36  58  86 114 155 205 264 320 371
#
# _framework density 19.748217
#
# number of rings (size 3 to 8) (size 9 to 14) (size 15 to 20)
#    0.000    1.867    4.667    1.600    1.867    2.133 
#    7.200    0.000    2.933    0.000    0.000    4.667 
#    0.000    0.000    0.000    0.000    0.000    0.000 
#
# Total GULP energy -334458.531910 kJ/mol
# GULP energy per Si atom -5574.308865 kJ/mol
# Density = 1.970327 g / cm^3
# Si number density = 19.748217 Si / 1000 Ang^3
#
#
#
# Elastic Constant Matrix: (Units=GPa)
#
#
# Indices 1 2 3 4 5 6 
#
# 1 61.0489 12.2477 27.3526 0.0000 0.0000 0.0000
# 2 12.2477 61.0489 27.3526 0.0000 0.0000 0.0000
# 3 27.3526 27.3526 64.1870 0.0000 0.0000 0.0000
# 4 0.0000 0.0000 0.0000 26.4826 0.0000 0.0000
# 5 0.0000 0.0000 0.0000 0.0000 26.4826 0.0000
# 6 0.0000 0.0000 0.0000 0.0000 0.0000 9.1017
#
#
#
# Elastic Compliance Matrix: (Units=1/GPa)
#
#
# Indices 1 2 3 4 5 6 
#
# 1 0.020249 -0.000243 -0.008525 0.000000 0.000000 0.000000
# 2 -0.000243 0.020249 -0.008525 0.000000 0.000000 0.000000
# 3 -0.008525 -0.008525 0.022846 0.000000 0.000000 0.000000
# 4 0.000000 0.000000 0.000000 0.037761 0.000000 0.000000
# 5 0.000000 0.000000 0.000000 0.000000 0.037761 0.000000
# 6 0.000000 0.000000 0.000000 0.000000 0.000000 0.109869
#
#
# Mechanical properties :
#
#
# Convention : Reuss Voigt Hill
#
# Bulk Modulus (GPa) = 34.77514 35.57675 35.17595
# Shear Modulus (GPa) = 17.07034 20.36884 18.71959
#
# Velocity S-wave (km/s) = 2.94326 3.21507 3.08216
# Velocity P-wave (km/s) = 5.40350 5.64238 5.52423
#
# Compressibility (1/GPa) = 0.02875618
#
# Stress axis : x y z
#
# Youngs Moduli (GPa) = 49.38576 49.38576 43.77221
#
# Poissons Ratio (x) = 0.01198 0.37318
# Poissons Ratio (y) = 0.01198 0.37318
# Poissons Ratio (z) = 0.42104 0.42104
#
# Static dielectric constant tensor:
#      x y z
#    x 1.725030 0.000000 0.000000 
#    y 0.000000 1.725030 0.000000 
#    z 0.000000 0.000000 2.101630 
# 
# From -- ./inp_files/20850.got.cif
#   From: 2010.05.17/outbox.cif.g08.bks.cpg/sg91_11_cif.got.tgz:20850.got - 2010.06.03 19:20:03.
