data_PCOD9547297
_publ_section_title
;
Structure prediction by ZEFSAII (Michael W. Deem and Ramdas Pophale) SiO2 
 PCOD9547297
Probable space group: P 4 21 2
;
_chemical_formula_sum "Si O2"
_cell_formula_units_Z 40
_cell_length_a 9.656125
_cell_length_b 9.656125
_cell_length_c 23.151752
_cell_angle_alpha 90.000000
_cell_angle_beta 90.000000
_cell_angle_gamma 90.000000
_cell_volume 2158.686721
_symmetry_space_group_name_H-M "P 4 21 2"
_symmetry_group_IT_number 90
_symmetry_cell_setting 'tetragonal'
loop_
_space_group_symop_operation_xyz
x,y,z
1/2-y,1/2+x,z
-x,-y,z
1/2+y,1/2-x,z
1/2+x,1/2-y,-z
1/2-x,1/2+y,-z
y,x,-z
-y,-x,-z
loop_
_atom_site_type_symbol
_atom_site_label
_atom_site_fract_x
_atom_site_fract_y
_atom_site_fract_z
Si Si1 0.614503 0.801698 0.038329
Si Si2 0.299392 0.877354 0.739174
Si Si3 0.667213 0.649055 0.385203
Si Si4 0.137201 0.135648 0.567279
Si Si5 0.304249 0.877688 0.175627
O O1 0.451524 0.817488 0.026018
O O2 0.632578 0.778616 0.106906
O O3 0.686083 0.686083 0.000000
O O4 0.455666 0.815880 0.741705
O O5 0.222674 0.837126 0.679551
O O6 0.205482 0.811255 0.789367
O O7 0.713953 0.498887 0.407853
O O8 0.502953 0.652368 0.395842
O O9 0.732431 0.768226 0.423834
O O10 0.110087 0.110087 0.500000
O O11 0.457617 0.815294 0.188689
#
# Coordination Sequence:
#
# PCOD9547297 Si02
#       5
#     8   8   8   8   8
#     4   9  19  37  59  88 125 162 201 249 300 352
#     4  11  24  41  59  85 118 158 199 241 298 358
#     4  11  23  40  60  88 118 153 194 240 296 353
#     4  11  23  41  63  88 119 153 193 241 298 358
#     4   9  21  40  63  88 120 160 203 251 300 350
#
# _framework density 18.529782999999998
#
# number of rings (size 3 to 8) (size 9 to 14) (size 15 to 20)
#    0.000    1.800    2.000    3.600    2.800    3.600 
#    0.000    8.000    0.000    0.000    0.000    0.000 
#    0.000    0.000    0.000    0.000    0.000    0.000 
#
# Total GULP energy -223241.043162 kJ/mol
# GULP energy per Si atom -5581.026079 kJ/mol
# Density = 1.848761 g / cm^3
# Si number density = 18.529783 Si / 1000 Ang^3
#
#
#
# Elastic Constant Matrix: (Units=GPa)
#
#
# Indices 1 2 3 4 5 6 
#
# 1 -42.5572 142.1146 25.9108 0.0000 0.0000 0.0000
# 2 142.1146 -42.5572 25.9108 0.0000 0.0000 0.0000
# 3 25.9108 25.9108 50.1389 0.0000 0.0000 0.0000
# 4 0.0000 0.0000 0.0000 41.6980 0.0000 0.0000
# 5 0.0000 0.0000 0.0000 0.0000 41.6980 0.0000
# 6 0.0000 0.0000 0.0000 0.0000 0.0000 22.8938
#
#
#
# Elastic Compliance Matrix: (Units=1/GPa)
#
#
# Indices 1 2 3 4 5 6 
#
# 1 0.004163 0.009578 -0.007101 0.000000 0.000000 0.000000
# 2 0.009578 0.004163 -0.007101 0.000000 0.000000 0.000000
# 3 -0.007101 -0.007101 0.027284 0.000000 0.000000 0.000000
# 4 0.000000 0.000000 0.000000 0.023982 0.000000 0.000000
# 5 0.000000 0.000000 0.000000 0.000000 0.023982 0.000000
# 6 0.000000 0.000000 0.000000 0.000000 0.000000 0.043680
#
#
# Mechanical properties :
#
#
# Convention : Reuss Voigt Hill
#
# Bulk Modulus (GPa) = 37.93411 39.21075 38.57243
# Shear Modulus (GPa) = 34.41435 5.99719 20.20577
#
# Velocity S-wave (km/s) = 4.31425 1.80098 3.30578
# Velocity P-wave (km/s) = 6.73301 5.05288 5.95252
#
# Compressibility (1/GPa) = 0.02636150
#
# Stress axis : x y z
#
# Youngs Moduli (GPa) = 240.22347 240.22347 36.65183
#
# Poissons Ratio (x) = -2.30081 0.26026
# Poissons Ratio (y) = -2.30081 0.26026
# Poissons Ratio (z) = 1.70579 1.70579
#
# Static dielectric constant tensor:
#      x y z
#    x 1.614950 0.000000 0.000000 
#    y 0.000000 1.614950 0.000000 
#    z 0.000000 0.000000 1.628110 
# 
# From -- ./inp_files/2887.got.cif
#   From: 2010.05.17/outbox.cif.g08.bks.cpg/sg90_2_cif.got.tgz:2887.got - 2010.06.03 19:17:45.
