data_PCOD9547335
_publ_section_title
;
Structure prediction by ZEFSAII (Michael W. Deem and Ramdas Pophale) SiO2 
 PCOD9547335
Probable space group: P 4 21 2
;
_chemical_formula_sum "Si O2"
_cell_formula_units_Z 32
_cell_length_a 8.149890
_cell_length_b 8.149890
_cell_length_c 21.376330
_cell_angle_alpha 90.000000
_cell_angle_beta 90.000000
_cell_angle_gamma 90.000000
_cell_volume 1419.830952
_symmetry_space_group_name_H-M "P 4 21 2"
_symmetry_group_IT_number 90
_symmetry_cell_setting 'tetragonal'
loop_
_space_group_symop_operation_xyz
x,y,z
1/2-y,1/2+x,z
-x,-y,z
1/2+y,1/2-x,z
1/2+x,1/2-y,-z
1/2-x,1/2+y,-z
y,x,-z
-y,-x,-z
loop_
_atom_site_type_symbol
_atom_site_label
_atom_site_fract_x
_atom_site_fract_y
_atom_site_fract_z
Si Si1 0.085668 0.237171 0.440671
Si Si2 0.262640 0.585120 0.818401
Si Si3 0.236653 0.085134 0.939312
Si Si4 0.762482 0.908119 0.697593
O O1 0.198196 0.400156 0.443556
O O2 0.129133 0.129133 0.500000
O O3 0.115932 0.163560 0.371748
O O4 0.198995 0.399863 0.821517
O O5 0.372926 0.637539 0.876832
O O6 0.353924 0.622442 0.753693
O O7 0.399728 0.198807 0.940181
O O8 0.132524 0.132524 0.000000
O O9 0.595593 0.799796 0.702340
#
# Coordination Sequence:
#
# PCOD9547335 Si02
#       4
#     8   8   8   8
#     4   9  19  35  54  78 109 143 181 227 276 328
#     4  11  24  39  56  83 116 147 183 227 274 326
#     4  11  24  41  62  88 116 147 185 227 270 320
#     4   9  19  37  58  79 106 143 186 229 275 328
#
# _framework density 22.537894000000001
#
# number of rings (size 3 to 8) (size 9 to 14) (size 15 to 20)
#    0.000    2.000    0.000    4.500    0.000   13.000 
#    0.000    7.500    0.000    0.000    0.000    0.000 
#    0.000    0.000    0.000    0.000    0.000    0.000 
#
# Total GULP energy -179321.639345 kJ/mol
# GULP energy per Si atom -5603.801230 kJ/mol
# Density = 2.248660 g / cm^3
# Si number density = 22.537894 Si / 1000 Ang^3
#
#
#
# Elastic Constant Matrix: (Units=GPa)
#
#
# Indices 1 2 3 4 5 6 
#
# 1 83.0645 54.0161 65.4741 0.0000 0.0000 0.0000
# 2 54.0161 83.0645 65.4741 0.0000 0.0000 0.0000
# 3 65.4741 65.4741 218.5248 0.0000 0.0000 0.0000
# 4 0.0000 0.0000 0.0000 334.4919 0.0000 0.0000
# 5 0.0000 0.0000 0.0000 0.0000 334.4919 0.0000
# 6 0.0000 0.0000 0.0000 0.0000 0.0000 45.8382
#
#
#
# Elastic Compliance Matrix: (Units=1/GPa)
#
#
# Indices 1 2 3 4 5 6 
#
# 1 0.022323 -0.012103 -0.003062 0.000000 0.000000 0.000000
# 2 -0.012103 0.022323 -0.003062 0.000000 0.000000 0.000000
# 3 -0.003062 -0.003062 0.006411 0.000000 0.000000 0.000000
# 4 0.000000 0.000000 0.000000 0.002990 0.000000 0.000000
# 5 0.000000 0.000000 0.000000 0.000000 0.002990 0.000000
# 6 0.000000 0.000000 0.000000 0.000000 0.000000 0.021816
#
#
# Mechanical properties :
#
#
# Convention : Reuss Voigt Hill
#
# Bulk Modulus (GPa) = 68.48011 83.84249 76.16130
# Shear Modulus (GPa) = 41.60669 156.27702 98.94185
#
# Velocity S-wave (km/s) = 4.30126 8.33608 6.63291
# Velocity P-wave (km/s) = 7.42416 11.39891 9.61908
#
# Compressibility (1/GPa) = 0.01460278
#
# Stress axis : x y z
#
# Youngs Moduli (GPa) = 44.79739 44.79739 155.97979
#
# Poissons Ratio (x) = 0.54217 0.47763
# Poissons Ratio (y) = 0.54217 0.47763
# Poissons Ratio (z) = 0.13718 0.13718
#
# Static dielectric constant tensor:
#      x y z
#    x 1.812300 0.000000 0.000000 
#    y 0.000000 1.812300 0.000000 
#    z 0.000000 0.000000 1.785540 
# 
# From -- ./inp_files/2697.got.cif
#   From: 2010.05.17/outbox.cif.g08.bks.cpg/sg90_2_cif.got.tgz:2697.got - 2010.06.03 19:17:45.
