data_PCOD9547115
_publ_section_title
;
Structure prediction by ZEFSAII (Michael W. Deem and Ramdas Pophale) SiO2 
 PCOD9547115
Probable space group: P 4 21 2
;
_chemical_formula_sum "Si O2"
_cell_formula_units_Z 22
_cell_length_a 8.270852
_cell_length_b 8.270852
_cell_length_c 16.372319
_cell_angle_alpha 90.000000
_cell_angle_beta 90.000000
_cell_angle_gamma 90.000000
_cell_volume 1119.981108
_symmetry_space_group_name_H-M "P 4 21 2"
_symmetry_group_IT_number 90
_symmetry_cell_setting 'tetragonal'
loop_
_space_group_symop_operation_xyz
x,y,z
1/2-y,1/2+x,z
-x,-y,z
1/2+y,1/2-x,z
1/2+x,1/2-y,-z
1/2-x,1/2+y,-z
y,x,-z
-y,-x,-z
loop_
_atom_site_type_symbol
_atom_site_label
_atom_site_fract_x
_atom_site_fract_y
_atom_site_fract_z
Si Si1 0.590194 0.259509 0.919568
Si Si2 0.263682 0.447020 0.350225
Si Si3 0.000000 0.000000 0.214099
Si Si4 0.500000 0.500000 0.500000
O O1 0.403513 0.198142 0.917555
O O2 0.603935 0.382570 0.843895
O O3 0.642259 0.357742 0.000000
O O4 0.181363 0.621672 0.341671
O O5 0.386597 0.406265 0.277582
O O6 0.353753 0.467917 0.436507
#
# Coordination Sequence:
#
# PCOD9547115 Si02
#       4
#     8   8   4   2
#     4  11  23  40  63  90 123 163 207 257 312 372
#     4  10  21  37  58  85 118 156 197 246 306 370
#     4  11  21  35  57  84 116 156 203 245 295 361
#     4  10  20  36  62  88 114 148 194 248 304 370
#
# _framework density 19.643189
#
# number of rings (size 3 to 8) (size 9 to 14) (size 15 to 20)
#    0.000    1.455    0.000    6.000    0.000    2.909 
#    0.000    0.000    0.000   40.364    0.000    0.000 
#    0.000    0.000    0.000    0.000    0.000    0.000 
#
# Total GULP energy -122608.432435 kJ/mol
# GULP energy per Si atom -5573.110565 kJ/mol
# Density = 1.959848 g / cm^3
# Si number density = 19.643189 Si / 1000 Ang^3
#
#
#
# Elastic Constant Matrix: (Units=GPa)
#
#
# Indices 1 2 3 4 5 6 
#
# 1 118.5484 35.6641 67.7301 0.0000 0.0000 0.0000
# 2 35.6641 118.5481 67.7300 0.0000 0.0000 0.0000
# 3 67.7301 67.7300 166.4045 0.0000 0.0000 0.0000
# 4 0.0000 0.0000 0.0000 17.5516 0.0000 0.0000
# 5 0.0000 0.0000 0.0000 0.0000 17.5515 0.0000
# 6 0.0000 0.0000 0.0000 0.0000 0.0000 6.4090
#
#
#
# Elastic Compliance Matrix: (Units=1/GPa)
#
#
# Indices 1 2 3 4 5 6 
#
# 1 0.011079 -0.000986 -0.004108 0.000000 0.000000 0.000000
# 2 -0.000986 0.011079 -0.004108 0.000000 0.000000 0.000000
# 3 -0.004108 -0.004108 0.009354 0.000000 0.000000 0.000000
# 4 0.000000 0.000000 0.000000 0.056975 0.000000 0.000000
# 5 0.000000 0.000000 0.000000 0.000000 0.056975 0.000000
# 6 0.000000 0.000000 0.000000 0.000000 0.000000 0.156030
#
#
# Mechanical properties :
#
#
# Convention : Reuss Voigt Hill
#
# Bulk Modulus (GPa) = 76.29255 82.86104 79.57680
# Shear Modulus (GPa) = 15.41948 23.79421 19.60685
#
# Velocity S-wave (km/s) = 2.80479 3.48418 3.16278
# Velocity P-wave (km/s) = 7.02941 7.64596 7.34416
#
# Compressibility (1/GPa) = 0.01310744
#
# Stress axis : x y z
#
# Youngs Moduli (GPa) = 90.26030 90.26006 106.91044
#
# Poissons Ratio (x) = 0.08899 0.43920
# Poissons Ratio (y) = 0.08899 0.43920
# Poissons Ratio (z) = 0.37080 0.37080
#
# Static dielectric constant tensor:
#      x y z
#    x 1.632710 0.000000 0.000000 
#    y 0.000000 1.632710 0.000000 
#    z 0.000000 0.000000 1.688660 
# 
# From -- ./inp_files/2386.got.cif
#   From: 2010.05.17/outbox.cif.g08.bks.cpg/sg90_2_cif.got.tgz:2386.got - 2010.06.03 19:17:45.
