data_PCOD9547051
_publ_section_title
;
Structure prediction by ZEFSAII (Michael W. Deem and Ramdas Pophale) SiO2 
 PCOD9547051
Probable space group: P 4 2 2
;
_chemical_formula_sum "Si O2"
_cell_formula_units_Z 52
_cell_length_a 18.055491
_cell_length_b 18.055491
_cell_length_c 8.590285
_cell_angle_alpha 90.000000
_cell_angle_beta 90.000000
_cell_angle_gamma 90.000000
_cell_volume 2800.439398
_symmetry_space_group_name_H-M "P 4 2 2"
_symmetry_group_IT_number 89
_symmetry_cell_setting 'tetragonal'
loop_
_space_group_symop_operation_xyz
x,y,z
-y,x,z
-x,-y,z
y,-x,z
x,-y,-z
-x,y,-z
y,x,-z
-y,-x,-z
loop_
_atom_site_type_symbol
_atom_site_label
_atom_site_fract_x
_atom_site_fract_y
_atom_site_fract_z
Si Si1 0.913849 0.500000 0.685825
Si Si2 0.176872 0.638221 0.179698
Si Si3 0.413358 0.413358 0.500000
Si Si4 0.913746 0.086255 0.684239
Si Si5 0.176872 0.638221 0.820302
Si Si6 0.198918 0.198919 0.185322
Si Si7 0.645970 0.645970 0.827103
O O1 0.916077 0.500000 0.500000
O O2 0.868378 0.572899 0.739186
O O3 0.868378 0.427101 0.739187
O O4 0.000000 0.500000 0.742256
O O5 0.171075 0.721543 0.247993
O O6 0.266023 0.628514 0.177548
O O7 0.151515 0.638733 0.000000
O O8 0.500000 0.398392 0.500000
O O9 0.384046 0.384046 0.664817
O O10 0.901051 0.098950 0.500000
O O11 0.861837 0.138164 0.783081
O O12 0.000000 0.100627 0.715527
O O13 0.171075 0.721542 0.752007
O O14 0.266023 0.628514 0.822453
O O15 0.210873 0.210873 0.000000
O O16 0.619565 0.619565 0.000000
#
# Coordination Sequence:
#
# PCOD9547051 Si02
#       7
#     8   8   4   8   8   8   8
#     4  11  25  39  55  87 123 154 195 246 296 352
#     4   9  20  39  60  82 112 150 194 239 289 351
#     4  11  26  40  56  90 124 156 194 239 304 358
#     4   9  19  35  53  76 109 147 183 221 275 340
#     4   9  20  39  60  82 112 150 194 239 289 351
#     4   9  19  37  58  84 112 141 188 241 287 339
#     4   9  21  40  63  89 115 155 203 244 292 354
#
# _framework density 18.568515000000001
#
# number of rings (size 3 to 8) (size 9 to 14) (size 15 to 20)
#    0.000    2.538    0.000    2.769    4.308    4.923 
#    2.769    7.692    0.000    0.000    0.000    0.000 
#    0.000    0.000    0.000    0.000    0.000    0.000 
#
# Total GULP energy -289634.987132 kJ/mol
# GULP energy per Si atom -5569.903599 kJ/mol
# Density = 1.852625 g / cm^3
# Si number density = 18.568515 Si / 1000 Ang^3
#
#
#
# Elastic Constant Matrix: (Units=GPa)
#
#
# Indices 1 2 3 4 5 6 
#
# 1 80.7846 78.2975 41.0013 0.0000 0.0000 0.0000
# 2 78.2975 80.7883 41.0017 0.0000 0.0000 0.0000
# 3 41.0013 41.0017 74.5628 0.0000 0.0000 0.0000
# 4 0.0000 0.0000 0.0000 29.4971 0.0000 0.0000
# 5 0.0000 0.0000 0.0000 0.0000 29.4973 0.0000
# 6 0.0000 0.0000 0.0000 0.0000 0.0000 33.0527
#
#
#
# Elastic Compliance Matrix: (Units=1/GPa)
#
#
# Indices 1 2 3 4 5 6 
#
# 1 0.205282 -0.196504 -0.004826 0.000000 0.000000 0.000000
# 2 -0.196504 0.205271 -0.004822 0.000000 0.000000 0.000000
# 3 -0.004826 -0.004822 0.018717 0.000000 0.000000 0.000000
# 4 0.000000 0.000000 0.000000 0.033902 0.000000 0.000000
# 5 0.000000 0.000000 0.000000 0.000000 0.033901 0.000000
# 6 0.000000 0.000000 0.000000 0.000000 0.000000 0.030255
#
#
# Mechanical properties :
#
#
# Convention : Reuss Voigt Hill
#
# Bulk Modulus (GPa) = 58.94097 61.85963 60.40030
# Shear Modulus (GPa) = 5.28941 23.46510 14.37725
#
# Velocity S-wave (km/s) = 1.68961 3.55872 2.78561
# Velocity P-wave (km/s) = 5.96806 7.09031 6.55325
#
# Compressibility (1/GPa) = 0.01696613
#
# Stress axis : x y z
#
# Youngs Moduli (GPa) = 4.87136 4.87162 53.42780
#
# Poissons Ratio (x) = 0.95729 0.25784
# Poissons Ratio (y) = 0.95724 0.25763
# Poissons Ratio (z) = 0.02351 0.02349
#
# Static dielectric constant tensor:
#      x y z
#    x 1.639100 0.000000 0.000000 
#    y 0.000000 1.639100 0.000000 
#    z 0.000000 0.000000 1.710530 
# 
# From -- ./inp_files/1230.got.cif
#   From: 2010.05.17/outbox.cif.g08.bks.cpg/sg89_1_cif.got.tgz:1230.got - 2010.06.03 19:15:31.
