data_PCOD9547593
_publ_section_title
;
Structure prediction by ZEFSAII (Michael W. Deem and Ramdas Pophale) SiO2 
 PCOD9547593
Probable space group: P 41 2 2
;
_chemical_formula_sum "Si O2"
_cell_formula_units_Z 48
_cell_length_a 15.741380
_cell_length_b 15.741380
_cell_length_c 11.318486
_cell_angle_alpha 90.000000
_cell_angle_beta 90.000000
_cell_angle_gamma 90.000000
_cell_volume 2804.619466
_symmetry_space_group_name_H-M "P 41 2 2"
_symmetry_group_IT_number 91
_symmetry_cell_setting 'tetragonal'
loop_
_space_group_symop_operation_xyz
x,y,z
-y,x,1/4+z
-x,-y,1/2+z
y,-x,3/4+z
x,-y,1/2-z
-x,y,-z
y,x,3/4-z
-y,-x,1/4-z
loop_
_atom_site_type_symbol
_atom_site_label
_atom_site_fract_x
_atom_site_fract_y
_atom_site_fract_z
Si Si1 0.261669 0.484991 0.614960
Si Si2 0.000000 0.729893 0.500000
Si Si3 0.644692 0.175703 0.197116
Si Si4 0.456308 0.456308 0.875000
Si Si5 0.123325 0.003381 0.557998
Si Si6 0.699227 0.774386 0.571094
Si Si7 0.187614 0.080045 0.178365
O O1 0.235281 0.500000 0.750000
O O2 0.200012 0.545671 0.540908
O O3 0.356692 0.523176 0.606547
O O4 0.257082 0.383575 0.606763
O O5 0.081979 0.672175 0.517889
O O6 0.010928 0.795439 0.392483
O O7 0.698104 0.239647 0.280010
O O8 0.671906 0.188517 0.058687
O O9 0.481509 0.500000 0.750000
O O10 0.102912 0.097501 0.512392
O O11 0.153196 0.946612 0.450081
O O12 0.045972 0.954029 0.625000
O O13 0.748993 0.843014 0.650663
O O14 0.225032 0.000000 0.250000
#
# Coordination Sequence:
#
# PCOD9547593 Si02
#       7
#     8   4   8   4   8   8   8
#     4   9  18  33  58  87 109 138 183 238 293 339
#     4  12  20  30  56  82 104 148 190 236 286 324
#     4  10  18  33  54  80 110 136 185 240 282 335
#     4  10  18  34  62  94 118 140 178 238 302 360
#     4  12  20  35  53  78 107 144 189 238 283 329
#     4  10  19  34  55  80 109 146 183 231 287 339
#     4  12  23  34  51  75 113 149 191 232 279 339
#
# _framework density 17.114622000000001
#
# number of rings (size 3 to 8) (size 9 to 14) (size 15 to 20)
#    0.000    1.333    5.000    4.500    0.000    0.000 
#    1.500    0.000    3.667    0.000    0.000    1.167 
#    0.000    0.000    0.000    0.000    0.000    0.000 
#
# Total GULP energy -267395.259635 kJ/mol
# GULP energy per Si atom -5570.734576 kJ/mol
# Density = 1.707567 g / cm^3
# Si number density = 17.114622 Si / 1000 Ang^3
#
#
#
# Elastic Constant Matrix: (Units=GPa)
#
#
# Indices 1 2 3 4 5 6 
#
# 1 127.1112 80.9355 26.3126 0.0000 0.0000 0.0000
# 2 80.9355 127.1110 26.3126 0.0000 0.0000 0.0000
# 3 26.3126 26.3126 49.5759 0.0000 0.0000 0.0000
# 4 0.0000 0.0000 0.0000 15.0856 0.0000 0.0000
# 5 0.0000 0.0000 0.0000 0.0000 15.0857 0.0000
# 6 0.0000 0.0000 0.0000 0.0000 0.0000 30.4097
#
#
#
# Elastic Compliance Matrix: (Units=1/GPa)
#
#
# Indices 1 2 3 4 5 6 
#
# 1 0.013604 -0.008052 -0.002947 0.000000 0.000000 0.000000
# 2 -0.008052 0.013604 -0.002947 0.000000 0.000000 0.000000
# 3 -0.002947 -0.002947 0.023299 0.000000 0.000000 0.000000
# 4 0.000000 0.000000 0.000000 0.066288 0.000000 0.000000
# 5 0.000000 0.000000 0.000000 0.000000 0.066288 0.000000
# 6 0.000000 0.000000 0.000000 0.000000 0.000000 0.032884
#
#
# Mechanical properties :
#
#
# Convention : Reuss Voigt Hill
#
# Bulk Modulus (GPa) = 44.21630 63.43551 53.82591
# Shear Modulus (GPa) = 19.88877 23.46536 21.67707
#
# Velocity S-wave (km/s) = 3.41265 3.70681 3.56277
# Velocity P-wave (km/s) = 6.43581 7.44756 6.96010
#
# Compressibility (1/GPa) = 0.02261609
#
# Stress axis : x y z
#
# Youngs Moduli (GPa) = 73.50664 73.50657 42.92017
#
# Poissons Ratio (x) = 0.59189 0.12648
# Poissons Ratio (y) = 0.59189 0.12647
# Poissons Ratio (z) = 0.21661 0.21660
#
# Static dielectric constant tensor:
#      x y z
#    x 1.617560 0.000000 0.000000 
#    y 0.000000 1.617560 0.000000 
#    z 0.000000 0.000000 1.610500 
# 
# From -- ./inp_files/10795.got.cif
#   From: 2010.05.17/outbox.cif.g08.bks.cpg/sg91_6_cif.got.tgz:10795.got - 2010.06.03 19:20:03.
