data_PCOD9547126
_publ_section_title
;
Structure prediction by ZEFSAII (Michael W. Deem and Ramdas Pophale) SiO2 
 PCOD9547126
Probable space group: P 4 21 2
;
_chemical_formula_sum "Si O2"
_cell_formula_units_Z 56
_cell_length_a 14.844208
_cell_length_b 14.844208
_cell_length_c 13.148059
_cell_angle_alpha 90.000000
_cell_angle_beta 90.000000
_cell_angle_gamma 90.000000
_cell_volume 2897.181521
_symmetry_space_group_name_H-M "P 4 21 2"
_symmetry_group_IT_number 90
_symmetry_cell_setting 'tetragonal'
loop_
_space_group_symop_operation_xyz
x,y,z
1/2-y,1/2+x,z
-x,-y,z
1/2+y,1/2-x,z
1/2+x,1/2-y,-z
1/2-x,1/2+y,-z
y,x,-z
-y,-x,-z
loop_
_atom_site_type_symbol
_atom_site_label
_atom_site_fract_x
_atom_site_fract_y
_atom_site_fract_z
Si Si1 0.832047 0.325280 0.735943
Si Si2 0.727654 0.407862 0.899000
Si Si3 0.106929 0.827873 0.894007
Si Si4 0.716577 0.875874 0.885602
Si Si5 0.395166 0.101391 0.470780
Si Si6 0.828824 0.244369 0.404964
Si Si7 0.564711 0.745479 0.787986
O O1 0.781424 0.405189 0.793932
O O2 0.872859 0.260929 0.825100
O O3 0.889328 0.371547 0.647776
O O4 0.771346 0.255220 0.670338
O O5 0.672687 0.500154 0.913473
O O6 0.670188 0.315692 0.888668
O O7 0.794662 0.400066 0.995385
O O8 0.146236 0.911636 0.830704
O O9 0.162569 0.837432 0.000000
O O10 0.639203 0.811531 0.840952
O O11 0.722930 0.966571 0.820225
O O12 0.498359 0.122183 0.495402
O O13 0.328621 0.161299 0.537478
O O14 0.824984 0.175017 0.500000
O O15 0.914385 0.242009 0.331239
#
# Coordination Sequence:
#
# PCOD9547126 Si02
#       7
#     8   8   8   8   8   8   8
#     4  10  20  38  61  85 120 164 204 251 312 373
#     4  11  22  36  63  90 120 162 210 248 308 373
#     4  11  20  38  61  87 122 162 200 257 306 363
#     4  11  24  39  61  91 123 166 206 250 306 381
#     4  10  21  36  56  90 122 151 204 261 307 368
#     4   9  20  37  61  84 114 161 203 247 315 365
#     4  11  23  41  62  86 128 161 206 255 312 370
#
# _framework density 19.329129999999999
#
# number of rings (size 3 to 8) (size 9 to 14) (size 15 to 20)
#    0.000    1.571    4.286    1.714    2.000    0.857 
#    0.000    0.000    0.000    0.000    0.000    8.000 
#    0.000    0.000    0.000    0.000    0.000    0.000 
#
# Total GULP energy -311941.408986 kJ/mol
# GULP energy per Si atom -5570.382303 kJ/mol
# Density = 1.928514 g / cm^3
# Si number density = 19.329130 Si / 1000 Ang^3
#
#
#
# Elastic Constant Matrix: (Units=GPa)
#
#
# Indices 1 2 3 4 5 6 
#
# 1 90.4797 -2.1368 25.3620 0.0000 0.0000 0.0000
# 2 -2.1368 90.4814 25.3627 0.0000 0.0000 0.0000
# 3 25.3620 25.3627 129.4969 0.0000 0.0000 0.0000
# 4 0.0000 0.0000 0.0000 20.9014 0.0000 0.0000
# 5 0.0000 0.0000 0.0000 0.0000 20.9014 0.0000
# 6 0.0000 0.0000 0.0000 0.0000 0.0000 -19.6918
#
#
#
# Elastic Compliance Matrix: (Units=1/GPa)
#
#
# Indices 1 2 3 4 5 6 
#
# 1 0.011775 0.000978 -0.002498 0.000000 0.000000 0.000000
# 2 0.000978 0.011775 -0.002498 0.000000 0.000000 0.000000
# 3 -0.002498 -0.002498 0.008701 0.000000 0.000000 0.000000
# 4 0.000000 0.000000 0.000000 0.047844 0.000000 0.000000
# 5 0.000000 0.000000 0.000000 0.000000 0.047844 0.000000
# 6 0.000000 0.000000 0.000000 0.000000 0.000000 -0.050783
#
#
# Mechanical properties :
#
#
# Convention : Reuss Voigt Hill
#
# Bulk Modulus (GPa) = 41.29418 45.29265 43.29341
# Shear Modulus (GPa) = 53.61175 21.88020 37.74598
#
# Velocity S-wave (km/s) = 5.27223 3.36814 4.42385
# Velocity P-wave (km/s) = 7.64670 6.21362 6.96710
#
# Compressibility (1/GPa) = 0.02421649
#
# Stress axis : x y z
#
# Youngs Moduli (GPa) = 84.92238 84.92383 114.93450
#
# Poissons Ratio (x) = -0.08308 0.28709
# Poissons Ratio (y) = -0.08307 0.28709
# Poissons Ratio (z) = 0.21212 0.21213
#
# Static dielectric constant tensor:
#      x y z
#    x 1.689380 0.000000 0.000000 
#    y 0.000000 1.689380 0.000000 
#    z 0.000000 0.000000 1.731500 
# 
# From -- ./inp_files/2244.got.cif
#   From: 2010.05.17/outbox.cif.g08.bks.cpg/sg90_2_cif.got.tgz:2244.got - 2010.06.03 19:17:45.
