data_PCOD9547868
_publ_section_title
;
Structure prediction by ZEFSAII (Michael W. Deem and Ramdas Pophale) SiO2 
 PCOD9547868
Probable space group: P 41 2 2
;
_chemical_formula_sum "Si O2"
_cell_formula_units_Z 48
_cell_length_a 12.856517
_cell_length_b 12.856517
_cell_length_c 17.342774
_cell_angle_alpha 90.000000
_cell_angle_beta 90.000000
_cell_angle_gamma 90.000000
_cell_volume 2866.587624
_symmetry_space_group_name_H-M "P 41 2 2"
_symmetry_group_IT_number 91
_symmetry_cell_setting 'tetragonal'
loop_
_space_group_symop_operation_xyz
x,y,z
-y,x,1/4+z
-x,-y,1/2+z
y,-x,3/4+z
x,-y,1/2-z
-x,y,-z
y,x,3/4-z
-y,-x,1/4-z
loop_
_atom_site_type_symbol
_atom_site_label
_atom_site_fract_x
_atom_site_fract_y
_atom_site_fract_z
Si Si1 0.124284 0.896142 0.213085
Si Si2 0.781334 0.931275 0.471433
Si Si3 0.585456 0.011496 0.565314
Si Si4 0.794897 0.337142 0.577704
Si Si5 0.509235 0.113630 0.791490
Si Si6 0.724113 0.892652 0.294376
O O1 0.088188 0.911813 0.125000
O O2 0.222700 0.820224 0.207101
O O3 0.025608 0.860947 0.262928
O O4 0.168222 0.000000 0.250000
O O5 0.751118 0.920590 0.382348
O O6 0.826848 0.818246 0.491201
O O7 0.683724 0.963474 0.522117
O O8 0.500000 0.038847 0.500000
O O9 0.624462 0.112913 0.613680
O O10 0.543250 0.922217 0.623150
O O11 0.688261 0.311740 0.625000
O O12 0.808336 0.416983 0.506480
O O13 0.391128 0.154719 0.791168
O O14 0.511715 0.000000 0.750000
O O15 0.719209 0.000000 0.250000
#
# Coordination Sequence:
#
# PCOD9547868 Si02
#       6
#     8   8   8   8   8   8
#     4  11  22  33  49  77 113 151 178 216 275 337
#     4  11  22  34  53  79 113 144 187 227 273 340
#     4  11  19  35  55  81 108 145 189 234 279 334
#     4  10  20  36  54  79 110 143 188 235 280 335
#     4   9  19  34  55  73 108 149 184 229 273 328
#     4  10  22  36  50  79 114 152 186 222 274 333
#
# _framework density 16.744648000000002
#
# number of rings (size 3 to 8) (size 9 to 14) (size 15 to 20)
#    0.000    1.667    5.000    2.000    4.667    0.000 
#    0.000    0.000    0.000    0.000    0.000    3.500 
#    0.000    0.000    0.000    0.000    0.000    0.000 
#
# Total GULP energy -267251.717429 kJ/mol
# GULP energy per Si atom -5567.744113 kJ/mol
# Density = 1.670654 g / cm^3
# Si number density = 16.744648 Si / 1000 Ang^3
#
#
#
# Elastic Constant Matrix: (Units=GPa)
#
#
# Indices 1 2 3 4 5 6 
#
# 1 31.5991 55.9477 18.2777 0.0000 0.0000 0.0000
# 2 55.9477 31.5998 18.2779 0.0000 0.0000 0.0000
# 3 18.2777 18.2779 53.8027 0.0000 0.0000 0.0000
# 4 0.0000 0.0000 0.0000 44.2134 0.0000 0.0000
# 5 0.0000 0.0000 0.0000 0.0000 44.2114 0.0000
# 6 0.0000 0.0000 0.0000 0.0000 0.0000 10.7474
#
#
#
# Elastic Compliance Matrix: (Units=1/GPa)
#
#
# Indices 1 2 3 4 5 6 
#
# 1 -0.013880 0.027191 -0.004522 0.000000 0.000000 0.000000
# 2 0.027191 -0.013880 -0.004522 0.000000 0.000000 0.000000
# 3 -0.004522 -0.004522 0.021659 0.000000 0.000000 0.000000
# 4 0.000000 0.000000 0.000000 0.022618 0.000000 0.000000
# 5 0.000000 0.000000 0.000000 0.000000 0.022619 0.000000
# 6 0.000000 0.000000 0.000000 0.000000 0.000000 0.093046
#
#
# Mechanical properties :
#
#
# Convention : Reuss Voigt Hill
#
# Bulk Modulus (GPa) = 33.12090 33.55649 33.33869
# Shear Modulus (GPa) = 47.19164 21.46766 34.32965
#
# Velocity S-wave (km/s) = 5.31454 3.58447 4.53281
# Velocity P-wave (km/s) = 7.58169 6.10040 6.88102
#
# Compressibility (1/GPa) = 0.03019242
#
# Stress axis : x y z
#
# Youngs Moduli (GPa) = -72.04505 -72.04668 46.17071
#
# Poissons Ratio (x) = 1.95899 0.20878
# Poissons Ratio (y) = 1.95895 0.20878
# Poissons Ratio (z) = -0.32578 -0.32578
#
# Static dielectric constant tensor:
#      x y z
#    x 1.495320 0.000000 0.000000 
#    y 0.000000 1.495330 0.000000 
#    z 0.000000 0.000000 1.636650 
# 
# From -- ./inp_files/16904.got.cif
#   From: 2010.05.17/outbox.cif.g08.bks.cpg/sg91_9_cif.got.tgz:16904.got - 2010.06.03 19:20:03.
