data_PCOD9547967
_publ_section_title
;
Structure prediction by ZEFSAII (Michael W. Deem and Ramdas Pophale) SiO2 
 PCOD9547967
Probable space group: P 41 2 2
;
_chemical_formula_sum "Si O2"
_cell_formula_units_Z 32
_cell_length_a 9.007610
_cell_length_b 9.007610
_cell_length_c 15.520293
_cell_angle_alpha 90.000000
_cell_angle_beta 90.000000
_cell_angle_gamma 90.000000
_cell_volume 1259.270602
_symmetry_space_group_name_H-M "P 41 2 2"
_symmetry_group_IT_number 91
_symmetry_cell_setting 'tetragonal'
loop_
_space_group_symop_operation_xyz
x,y,z
-y,x,1/4+z
-x,-y,1/2+z
y,-x,3/4+z
x,-y,1/2-z
-x,y,-z
y,x,3/4-z
-y,-x,1/4-z
loop_
_atom_site_type_symbol
_atom_site_label
_atom_site_fract_x
_atom_site_fract_y
_atom_site_fract_z
Si Si1 0.721455 0.956413 0.129459
Si Si2 0.308739 0.462779 0.155183
Si Si3 0.487546 0.813583 0.396749
Si Si4 0.206441 0.006564 0.430733
O O1 0.638090 0.112756 0.138756
O O2 0.870681 0.910325 0.176777
O O3 0.500000 0.220142 0.000000
O O4 0.763974 0.947106 0.028414
O O5 0.252648 0.500000 0.250000
O O6 0.390894 0.609107 0.125000
O O7 0.430795 0.330890 0.152852
O O8 0.172469 0.398160 0.101456
O O9 0.357410 0.937064 0.392604
O O10 0.138504 0.138504 0.375000
#
# Coordination Sequence:
#
# PCOD9547967 Si02
#       4
#     8   8   8   8
#     4  10  22  40  63  92 127 166 207 259 316 374
#     4  11  23  40  63  91 123 162 208 258 314 374
#     4   9  20  40  63  90 126 163 206 259 313 371
#     4  10  20  38  64  93 126 165 209 256 311 373
#
# _framework density 25.411535000000001
#
# number of rings (size 3 to 8) (size 9 to 14) (size 15 to 20)
#    0.000    2.000    0.000    3.750    0.000    5.000 
#    0.000    8.750    0.000    0.000    0.000    0.000 
#    0.000    0.000    0.000    0.000    0.000    0.000 
#
# Total GULP energy -179315.140654 kJ/mol
# GULP energy per Si atom -5603.598145 kJ/mol
# Density = 2.535370 g / cm^3
# Si number density = 25.411535 Si / 1000 Ang^3
#
#
#
# Elastic Constant Matrix: (Units=GPa)
#
#
# Indices 1 2 3 4 5 6 
#
# 1 94.7691 61.1845 30.4791 0.0000 0.0000 0.0000
# 2 61.1845 94.7673 30.4793 0.0000 0.0000 0.0000
# 3 30.4791 30.4793 66.4414 0.0000 0.0000 0.0000
# 4 0.0000 0.0000 0.0000 29.5012 0.0000 0.0000
# 5 0.0000 0.0000 0.0000 0.0000 29.5013 0.0000
# 6 0.0000 0.0000 0.0000 0.0000 0.0000 -72.4748
#
#
#
# Elastic Compliance Matrix: (Units=1/GPa)
#
#
# Indices 1 2 3 4 5 6 
#
# 1 0.018795 -0.010982 -0.003584 0.000000 0.000000 0.000000
# 2 -0.010982 0.018795 -0.003584 0.000000 0.000000 0.000000
# 3 -0.003584 -0.003584 0.018339 0.000000 0.000000 0.000000
# 4 0.000000 0.000000 0.000000 0.033897 0.000000 0.000000
# 5 0.000000 0.000000 0.000000 0.000000 0.033897 0.000000
# 6 0.000000 0.000000 0.000000 0.000000 0.000000 -0.013798
#
#
# Mechanical properties :
#
#
# Convention : Reuss Voigt Hill
#
# Bulk Modulus (GPa) = 50.94551 55.58487 53.26519
# Shear Modulus (GPa) = 32.72943 6.22784 19.47863
#
# Velocity S-wave (km/s) = 3.59273 1.56720 2.77163
# Velocity P-wave (km/s) = 6.10754 5.01958 5.59009
#
# Compressibility (1/GPa) = 0.01962881
#
# Stress axis : x y z
#
# Youngs Moduli (GPa) = 53.20690 53.20557 54.52779
#
# Poissons Ratio (x) = 0.58428 0.19543
# Poissons Ratio (y) = 0.58430 0.19545
# Poissons Ratio (z) = 0.19070 0.19071
#
# Static dielectric constant tensor:
#      x y z
#    x 1.994260 0.000000 0.000000 
#    y 0.000000 1.994260 0.000000 
#    z 0.000000 0.000000 1.949680 
# 
# From -- ./inp_files/21658.got.cif
#   From: 2010.05.17/outbox.cif.g08.bks.cpg/sg91_11_cif.got.tgz:21658.got - 2010.06.03 19:20:03.
