data_PCOD9547125
_publ_section_title
;
Structure prediction by ZEFSAII (Michael W. Deem and Ramdas Pophale) SiO2 
 PCOD9547125
Probable space group: P 4 21 2
;
_chemical_formula_sum "Si O2"
_cell_formula_units_Z 24
_cell_length_a 13.462729
_cell_length_b 13.462729
_cell_length_c 5.256942
_cell_angle_alpha 90.000000
_cell_angle_beta 90.000000
_cell_angle_gamma 90.000000
_cell_volume 952.794832
_symmetry_space_group_name_H-M "P 4 21 2"
_symmetry_group_IT_number 90
_symmetry_cell_setting 'tetragonal'
loop_
_space_group_symop_operation_xyz
x,y,z
1/2-y,1/2+x,z
-x,-y,z
1/2+y,1/2-x,z
1/2+x,1/2-y,-z
1/2-x,1/2+y,-z
y,x,-z
-y,-x,-z
loop_
_atom_site_type_symbol
_atom_site_label
_atom_site_fract_x
_atom_site_fract_y
_atom_site_fract_z
Si Si1 0.342834 0.504661 0.416828
Si Si2 0.685443 0.144059 0.464976
Si Si3 0.226090 0.606563 0.032861
O O1 0.428786 0.428786 0.500000
O O2 0.388440 0.611561 0.500000
O O3 0.248799 0.456074 0.553469
O O4 0.302786 0.519473 0.127253
O O5 0.770207 0.229794 0.500000
O O6 0.623761 0.155225 0.724432
O O7 0.618562 0.161052 0.218540
O O8 0.300255 0.699746 0.000000
#
# Coordination Sequence:
#
# PCOD9547125 Si02
#       3
#     8   8   8
#     4  10  21  39  65 103 138 171 229 305 355 394
#     4   9  20  37  58  88 131 180 221 265 343 432
#     4  10  20  38  60  88 134 185 220 263 346 434
#
# _framework density 25.189050999999999
#
# number of rings (size 3 to 8) (size 9 to 14) (size 15 to 20)
#    0.000    2.333    0.000    3.000    0.000    5.333 
#    0.000   25.000    0.000    1.000    0.000   18.667 
#    0.000    0.000    0.000    0.000    0.000    0.000 
#
# Total GULP energy -133689.345163 kJ/mol
# GULP energy per Si atom -5570.389382 kJ/mol
# Density = 2.513172 g / cm^3
# Si number density = 25.189051 Si / 1000 Ang^3
#
#
#
# Elastic Constant Matrix: (Units=GPa)
#
#
# Indices 1 2 3 4 5 6 
#
# 1 63.0626 112.3431 68.6391 0.0000 0.0000 0.0000
# 2 112.3431 63.0593 68.6401 0.0000 0.0000 0.0000
# 3 68.6391 68.6401 236.7223 0.0000 0.0000 0.0000
# 4 0.0000 0.0000 0.0000 28.6998 0.0000 0.0000
# 5 0.0000 0.0000 0.0000 0.0000 28.6991 0.0000
# 6 0.0000 0.0000 0.0000 0.0000 0.0000 80.7765
#
#
#
# Elastic Compliance Matrix: (Units=1/GPa)
#
#
# Indices 1 2 3 4 5 6 
#
# 1 -0.006458 0.013833 -0.002138 0.000000 0.000000 0.000000
# 2 0.013833 -0.006459 -0.002138 0.000000 0.000000 0.000000
# 3 -0.002138 -0.002138 0.005464 0.000000 0.000000 0.000000
# 4 0.000000 0.000000 0.000000 0.034843 0.000000 0.000000
# 5 0.000000 0.000000 0.000000 0.000000 0.034844 0.000000
# 6 0.000000 0.000000 0.000000 0.000000 0.000000 0.012380
#
#
# Mechanical properties :
#
#
# Convention : Reuss Voigt Hill
#
# Bulk Modulus (GPa) = 85.76035 95.78765 90.77400
# Shear Modulus (GPa) = 84.18980 35.18320 59.68650
#
# Velocity S-wave (km/s) = 5.78755 3.74139 4.87307
# Velocity P-wave (km/s) = 8.87590 7.53485 8.23273
#
# Compressibility (1/GPa) = 0.01166040
#
# Stress axis : x y z
#
# Youngs Moduli (GPa) = -154.84600 -154.83241 183.00187
#
# Poissons Ratio (x) = 2.14180 0.39135
# Poissons Ratio (y) = 2.14199 0.39130
# Poissons Ratio (z) = -0.33113 -0.33107
#
# Static dielectric constant tensor:
#      x y z
#    x 2.032060 0.000000 0.000000 
#    y 0.000000 2.032070 0.000000 
#    z 0.000000 0.000000 1.277800 
# 
# From -- ./inp_files/148.got.cif
#   From: 2010.05.17/outbox.cif.g08.bks.cpg/sg90_1_cif.got.tgz:148.got - 2010.06.03 19:17:45.
