data_PCOD9547655
_publ_section_title
;
Structure prediction by ZEFSAII (Michael W. Deem and Ramdas Pophale) SiO2 
 PCOD9547655
Probable space group: P 41 2 2
;
_chemical_formula_sum "Si O2"
_cell_formula_units_Z 36
_cell_length_a 15.641131
_cell_length_b 15.641131
_cell_length_c 7.925815
_cell_angle_alpha 90.000000
_cell_angle_beta 90.000000
_cell_angle_gamma 90.000000
_cell_volume 1939.010844
_symmetry_space_group_name_H-M "P 41 2 2"
_symmetry_group_IT_number 91
_symmetry_cell_setting 'tetragonal'
loop_
_space_group_symop_operation_xyz
x,y,z
-y,x,1/4+z
-x,-y,1/2+z
y,-x,3/4+z
x,-y,1/2-z
-x,y,-z
y,x,3/4-z
-y,-x,1/4-z
loop_
_atom_site_type_symbol
_atom_site_label
_atom_site_fract_x
_atom_site_fract_y
_atom_site_fract_z
Si Si1 0.794782 0.205219 0.125000
Si Si2 0.400433 0.000000 0.250000
Si Si3 0.581322 0.418679 0.125000
Si Si4 0.914703 0.240037 0.426196
Si Si5 0.500000 0.877045 0.000000
Si Si6 0.248582 0.370043 0.065669
Si Si7 0.252494 0.252494 0.375000
O O1 0.862562 0.195714 0.276284
O O2 0.697140 0.201296 0.192352
O O3 0.333806 0.950152 0.372441
O O4 0.454538 0.063918 0.361798
O O5 0.578776 0.500000 0.250000
O O6 0.584350 0.328738 0.227116
O O7 0.846751 0.259868 0.574147
O O8 0.000000 0.195042 0.500000
O O9 0.435087 0.816433 0.899704
O O10 0.280092 0.308339 0.216360
#
# Coordination Sequence:
#
# PCOD9547655 Si02
#       7
#     4   4   4   8   4   8   4
#     4   9  20  38  62  86 128 164 213 252 308 398
#     4  10  24  38  56  96 132 158 206 262 322 370
#     4  11  28  43  62  88 122 169 231 290 312 364
#     4   9  19  38  59  90 123 167 205 255 310 374
#     4  12  24  38  64  92 130 164 202 270 322 388
#     4  10  23  39  61  89 117 174 212 257 326 387
#     4  10  18  41  64  86 122 167 208 248 322 394
#
# _framework density 18.566168000000001
#
# number of rings (size 3 to 8) (size 9 to 14) (size 15 to 20)
#    0.667    1.333    2.222    0.000    7.778    1.778 
#    0.000    3.333    0.000    1.333    0.000    0.000 
#    0.000    0.000    0.000    0.000    0.000    0.000 
#
# Total GULP energy -200492.922329 kJ/mol
# GULP energy per Si atom -5569.247842 kJ/mol
# Density = 1.852391 g / cm^3
# Si number density = 18.566168 Si / 1000 Ang^3
#
#
#
# Elastic Constant Matrix: (Units=GPa)
#
#
# Indices 1 2 3 4 5 6 
#
# 1 98.4383 57.8104 45.2190 0.0000 0.0000 0.0000
# 2 57.8104 98.4387 45.2190 0.0000 0.0000 0.0000
# 3 45.2190 45.2190 87.3522 0.0000 0.0000 0.0000
# 4 0.0000 0.0000 0.0000 25.1886 0.0000 0.0000
# 5 0.0000 0.0000 0.0000 0.0000 25.1884 0.0000
# 6 0.0000 0.0000 0.0000 0.0000 0.0000 8.2946
#
#
#
# Elastic Compliance Matrix: (Units=1/GPa)
#
#
# Indices 1 2 3 4 5 6 
#
# 1 0.016876 -0.007738 -0.004730 0.000000 0.000000 0.000000
# 2 -0.007738 0.016876 -0.004730 0.000000 0.000000 0.000000
# 3 -0.004730 -0.004730 0.016345 0.000000 0.000000 0.000000
# 4 0.000000 0.000000 0.000000 0.039701 0.000000 0.000000
# 5 0.000000 0.000000 0.000000 0.000000 0.039701 0.000000
# 6 0.000000 0.000000 0.000000 0.000000 0.000000 0.120560
#
#
# Mechanical properties :
#
#
# Convention : Reuss Voigt Hill
#
# Bulk Modulus (GPa) = 63.69496 64.52511 64.11004
# Shear Modulus (GPa) = 17.25988 20.79971 19.02980
#
# Velocity S-wave (km/s) = 3.05231 3.35072 3.20499
# Velocity P-wave (km/s) = 6.84132 7.05687 6.94993
#
# Compressibility (1/GPa) = 0.01569983
#
# Stress axis : x y z
#
# Youngs Moduli (GPa) = 59.25641 59.25671 61.17906
#
# Poissons Ratio (x) = 0.45851 0.28941
# Poissons Ratio (y) = 0.45851 0.28940
# Poissons Ratio (z) = 0.28031 0.28031
#
# Static dielectric constant tensor:
#      x y z
#    x 1.661100 0.000000 0.000000 
#    y 0.000000 1.661100 0.000000 
#    z 0.000000 0.000000 1.675190 
# 
# From -- ./inp_files/14973.got.cif
#   From: 2010.05.17/outbox.cif.g08.bks.cpg/sg91_8_cif.got.tgz:14973.got - 2010.06.03 19:20:03.
