data_PCOD9547062
_publ_section_title
;
Structure prediction by ZEFSAII (Michael W. Deem and Ramdas Pophale) SiO2 
 PCOD9547062
Probable space group: P 4 2 2
;
_chemical_formula_sum "Si O2"
_cell_formula_units_Z 48
_cell_length_a 9.000000
_cell_length_b 9.000000
_cell_length_c 30.000000
_cell_angle_alpha 90.000000
_cell_angle_beta 90.000000
_cell_angle_gamma 90.000000
_cell_volume 2430.000000
_symmetry_space_group_name_H-M "P 4 2 2"
_symmetry_group_IT_number 89
_symmetry_cell_setting 'tetragonal'
loop_
_space_group_symop_operation_xyz
x,y,z
-y,x,z
-x,-y,z
y,-x,z
x,-y,-z
-x,y,-z
y,x,-z
-y,-x,-z
loop_
_atom_site_type_symbol
_atom_site_label
_atom_site_fract_x
_atom_site_fract_y
_atom_site_fract_z
Si Si1 0.023620 0.247464 0.049483
Si Si2 0.173533 0.173533 0.500000
Si Si3 0.258102 0.436041 0.815885
Si Si4 0.349793 0.692442 0.580971
Si Si5 0.197487 0.867532 0.650440
Si Si6 0.896175 0.782630 0.756582
Si Si7 0.000000 0.500000 0.882700
O O1 0.153839 0.127490 0.054216
O O2 0.054302 0.369970 0.085596
O O3 0.000000 0.311829 0.000000
O O4 0.225157 0.258960 0.543489
O O5 0.000000 0.200457 0.500000
O O6 0.399515 0.326403 0.817498
O O7 0.168869 0.371816 0.773608
O O8 0.134562 0.433584 0.854086
O O9 0.300947 0.524111 0.575514
O O10 0.317360 0.763987 0.628619
O O11 0.210189 0.879845 0.703444
O O12 0.038511 0.801706 0.635720
O O13 0.067314 0.808233 0.771437
#
# Coordination Sequence:
#
# PCOD9547062 Si02
#       7
#     8   4   8   8   8   8   4
#     4   9  19  36  58  85 114 145 188 241 292 345
#     4  11  24  41  62  86 112 145 190 241 290 346
#     4  11  24  38  53  79 115 151 190 239 292 347
#     4  11  24  39  56  84 120 154 189 231 283 346
#     4   9  19  37  61  87 113 144 188 237 284 341
#     4   9  19  38  62  85 111 148 195 245 295 351
#     4  12  21  36  58  82 112 154 194 232 289 360
#
# _framework density 19.753086
#
# number of rings (size 3 to 8) (size 9 to 14) (size 15 to 20)
#    0.000    1.917    0.000    5.250    0.000    6.667 
#    0.000    6.667    0.000    0.000    0.000    7.000 
#    0.000    0.000    0.000    0.000    0.000    0.000 
#
# Total GULP energy -267424.668924 kJ/mol
# GULP energy per Si atom -5571.347269 kJ/mol
# Density = 1.970813 g / cm^3
# Si number density = 19.753086 Si / 1000 Ang^3
#
#
#
# Elastic Constant Matrix: (Units=GPa)
#
#
# Indices 1 2 3 4 5 6 
#
# 1 11.2781 130.5669 44.5433 0.0000 0.0000 0.0000
# 2 130.5669 11.2781 44.5433 0.0000 0.0000 0.0000
# 3 44.5433 44.5433 56.4095 0.0000 0.0000 0.0000
# 4 0.0000 0.0000 0.0000 107.6149 0.0000 0.0000
# 5 0.0000 0.0000 0.0000 0.0000 107.6149 0.0000
# 6 0.0000 0.0000 0.0000 0.0000 0.0000 29.5437
#
#
#
# Elastic Compliance Matrix: (Units=1/GPa)
#
#
# Indices 1 2 3 4 5 6 
#
# 1 0.002802 0.011185 -0.011044 0.000000 0.000000 0.000000
# 2 0.011185 0.002802 -0.011044 0.000000 0.000000 0.000000
# 3 -0.011044 -0.011044 0.035169 0.000000 0.000000 0.000000
# 4 0.000000 0.000000 0.000000 0.009292 0.000000 0.000000
# 5 0.000000 0.000000 0.000000 0.000000 0.009292 0.000000
# 6 0.000000 0.000000 0.000000 0.000000 0.000000 0.033848
#
#
# Mechanical properties :
#
#
# Convention : Reuss Voigt Hill
#
# Bulk Modulus (GPa) = 52.72786 57.58588 55.15687
# Shear Modulus (GPa) = 41.20827 39.57551 40.39189
#
# Velocity S-wave (km/s) = 4.57241 4.48091 4.52690
# Velocity P-wave (km/s) = 7.39103 7.48249 7.43690
#
# Compressibility (1/GPa) = 0.01896531
#
# Stress axis : x y z
#
# Youngs Moduli (GPa) = 356.93184 356.93184 28.43378
#
# Poissons Ratio (x) = -3.99216 0.31403
# Poissons Ratio (y) = -3.99216 0.31403
# Poissons Ratio (z) = 3.94202 3.94202
#
# Static dielectric constant tensor:
#      x y z
#    x -1.039650 0.000000 0.000000 
#    y 0.000000 -1.039650 0.000000 
#    z 0.000000 0.000000 1.711730 
# 
# From -- ./inp_files/3012.got.cif
#   From: 2010.05.17/outbox.ucp.g08.bks.cvg/sg89_2_cif.got.tgz:3012.got - 2010.06.11 10:35:57.
