data_PCOD9547293
_publ_section_title
;
Structure prediction by ZEFSAII (Michael W. Deem and Ramdas Pophale) SiO2 
 PCOD9547293
Probable space group: P 4 21 2
;
_chemical_formula_sum "Si O2"
_cell_formula_units_Z 26
_cell_length_a 15.750412
_cell_length_b 15.750412
_cell_length_c 4.760237
_cell_angle_alpha 90.000000
_cell_angle_beta 90.000000
_cell_angle_gamma 90.000000
_cell_volume 1180.898070
_symmetry_space_group_name_H-M "P 4 21 2"
_symmetry_group_IT_number 90
_symmetry_cell_setting 'tetragonal'
loop_
_space_group_symop_operation_xyz
x,y,z
1/2-y,1/2+x,z
-x,-y,z
1/2+y,1/2-x,z
1/2+x,1/2-y,-z
1/2-x,1/2+y,-z
y,x,-z
-y,-x,-z
loop_
_atom_site_type_symbol
_atom_site_label
_atom_site_fract_x
_atom_site_fract_y
_atom_site_fract_z
Si Si1 0.661045 0.743493 0.262598
Si Si2 0.607250 0.257161 0.115047
Si Si3 0.000000 0.000000 0.500000
Si Si4 0.809689 0.998573 0.628108
O O1 0.734166 0.734166 0.500000
O O2 0.671018 0.838129 0.139759
O O3 0.580714 0.719452 0.452124
O O4 0.680300 0.680300 0.000000
O O5 0.576037 0.286355 0.415946
O O6 0.673056 0.326945 0.000000
O O7 0.525287 0.260931 0.912075
O O8 0.911542 0.001377 0.671327
#
# Coordination Sequence:
#
# PCOD9547293 Si02
#       4
#     8   8   2   8
#     4  11  23  40  63  93 132 185 235 270 326 415
#     4  11  22  40  59  90 132 183 220 268 333 406
#     4  12  24  38  60 106 144 174 208 270 368 410
#     4  12  24  38  64  95 140 176 219 281 337 411
#
# _framework density 22.017139
#
# number of rings (size 3 to 8) (size 9 to 14) (size 15 to 20)
#    0.000    0.615    4.615    5.538    0.000    1.231 
#    0.000    0.000    0.000    0.923    0.000    8.615 
#    0.000    0.000    0.000    0.000    0.000    0.000 
#
# Total GULP energy -145207.492816 kJ/mol
# GULP energy per Si atom -5584.903570 kJ/mol
# Density = 2.196703 g / cm^3
# Si number density = 22.017139 Si / 1000 Ang^3
#
#
#
# Elastic Constant Matrix: (Units=GPa)
#
#
# Indices 1 2 3 4 5 6 
#
# 1 96.1577 67.1018 29.2286 0.0000 0.0000 0.0000
# 2 67.1018 96.1574 29.2287 0.0000 0.0000 0.0000
# 3 29.2286 29.2287 132.2683 0.0000 0.0000 0.0000
# 4 0.0000 0.0000 0.0000 38.0162 0.0000 0.0000
# 5 0.0000 0.0000 0.0000 0.0000 38.0161 0.0000
# 6 0.0000 0.0000 0.0000 0.0000 0.0000 37.2968
#
#
#
# Elastic Compliance Matrix: (Units=1/GPa)
#
#
# Indices 1 2 3 4 5 6 
#
# 1 0.020534 -0.013883 -0.001470 0.000000 0.000000 0.000000
# 2 -0.013883 0.020534 -0.001470 0.000000 0.000000 0.000000
# 3 -0.001470 -0.001470 0.008210 0.000000 0.000000 0.000000
# 4 0.000000 0.000000 0.000000 0.026305 0.000000 0.000000
# 5 0.000000 0.000000 0.000000 0.000000 0.026305 0.000000
# 6 0.000000 0.000000 0.000000 0.000000 0.000000 0.026812
#
#
# Mechanical properties :
#
#
# Convention : Reuss Voigt Hill
#
# Bulk Modulus (GPa) = 63.96464 63.96686 63.96575
# Shear Modulus (GPa) = 29.84096 35.93411 32.88754
#
# Velocity S-wave (km/s) = 3.68550 4.04431 3.86907
# Velocity P-wave (km/s) = 6.87211 7.13616 7.00538
#
# Compressibility (1/GPa) = 0.01563364
#
# Stress axis : x y z
#
# Youngs Moduli (GPa) = 48.69968 48.69951 121.80253
#
# Poissons Ratio (x) = 0.67607 0.17903
# Poissons Ratio (y) = 0.67607 0.17903
# Poissons Ratio (z) = 0.07158 0.07158
#
# Static dielectric constant tensor:
#      x y z
#    x 1.885410 0.000000 0.000000 
#    y 0.000000 1.885410 0.000000 
#    z 0.000000 0.000000 1.833510 
# 
# From -- ./inp_files/271.got.cif
#   From: 2010.05.17/outbox.cif.g08.bks.cpg/sg90_1_cif.got.tgz:271.got - 2010.06.03 19:17:45.
