data_PCOD9547606
_publ_section_title
;
Structure prediction by ZEFSAII (Michael W. Deem and Ramdas Pophale) SiO2 
 PCOD9547606
Probable space group: P 41 2 2
;
_chemical_formula_sum "Si O2"
_cell_formula_units_Z 44
_cell_length_a 8.549622
_cell_length_b 8.549622
_cell_length_c 24.949992
_cell_angle_alpha 90.000000
_cell_angle_beta 90.000000
_cell_angle_gamma 90.000000
_cell_volume 1823.745522
_symmetry_space_group_name_H-M "P 41 2 2"
_symmetry_group_IT_number 91
_symmetry_cell_setting 'tetragonal'
loop_
_space_group_symop_operation_xyz
x,y,z
-y,x,1/4+z
-x,-y,1/2+z
y,-x,3/4+z
x,-y,1/2-z
-x,y,-z
y,x,3/4-z
-y,-x,1/4-z
loop_
_atom_site_type_symbol
_atom_site_label
_atom_site_fract_x
_atom_site_fract_y
_atom_site_fract_z
Si Si1 0.193903 0.500000 0.250000
Si Si2 0.766326 0.094569 0.826148
Si Si3 0.484922 0.259941 0.862455
Si Si4 0.280867 0.951852 0.557467
Si Si5 0.787814 0.642611 0.958829
Si Si6 0.692039 0.659741 0.501660
O O1 0.083272 0.601300 0.287377
O O2 0.296036 0.611023 0.211957
O O3 0.660827 0.199913 0.865870
O O4 0.949446 0.133519 0.828184
O O5 0.708080 0.148412 0.766580
O O6 0.713663 0.914743 0.831401
O O7 0.439126 0.439126 0.875000
O O8 0.426526 0.247079 0.801887
O O9 0.374178 0.151944 0.899333
O O10 0.251524 0.836597 0.506953
O O11 0.769568 0.454809 0.954983
O O12 0.500000 0.660583 0.500000
#
# Coordination Sequence:
#
# PCOD9547606 Si02
#       6
#     4   8   8   8   8   8
#     4  10  18  34  58  86 122 160 208 256 310 382
#     4   9  19  38  58  87 126 159 204 265 318 378
#     4   9  20  39  58  85 122 169 212 257 321 390
#     4  10  20  37  57  87 126 160 204 267 322 375
#     4   9  18  35  61  88 119 160 210 255 307 384
#     4  10  18  36  65  93 118 162 217 262 312 388
#
# _framework density 24.126176000000001
#
# number of rings (size 3 to 8) (size 9 to 14) (size 15 to 20)
#    0.000    2.545    1.818    0.000    0.000    0.000 
#    6.545   28.182    0.000    0.000    0.000    0.000 
#    0.000    0.000    0.000    0.000    0.000    0.000 
#
# Total GULP energy -245203.017185 kJ/mol
# GULP energy per Si atom -5572.795845 kJ/mol
# Density = 2.407126 g / cm^3
# Si number density = 24.126176 Si / 1000 Ang^3
#
#
#
# Elastic Constant Matrix: (Units=GPa)
#
#
# Indices 1 2 3 4 5 6 
#
# 1 128.6337 88.3270 23.5875 0.0000 0.0000 0.0000
# 2 88.3270 128.6337 23.5875 0.0000 0.0000 0.0000
# 3 23.5875 23.5875 29.2351 0.0000 0.0000 0.0000
# 4 0.0000 0.0000 0.0000 25.9771 0.0000 0.0000
# 5 0.0000 0.0000 0.0000 0.0000 25.9771 0.0000
# 6 0.0000 0.0000 0.0000 0.0000 0.0000 13.4524
#
#
#
# Elastic Compliance Matrix: (Units=1/GPa)
#
#
# Indices 1 2 3 4 5 6 
#
# 1 0.015200 -0.009610 -0.004510 0.000000 0.000000 0.000000
# 2 -0.009610 0.015200 -0.004510 0.000000 0.000000 0.000000
# 3 -0.004510 -0.004510 0.041483 0.000000 0.000000 0.000000
# 4 0.000000 0.000000 0.000000 0.038495 0.000000 0.000000
# 5 0.000000 0.000000 0.000000 0.000000 0.038495 0.000000
# 6 0.000000 0.000000 0.000000 0.000000 0.000000 0.074336
#
#
# Mechanical properties :
#
#
# Convention : Reuss Voigt Hill
#
# Bulk Modulus (GPa) = 28.88281 61.94518 45.41400
# Shear Modulus (GPa) = 18.38165 23.14800 20.76483
#
# Velocity S-wave (km/s) = 2.76324 3.10087 2.93691
# Velocity P-wave (km/s) = 4.70938 6.20901 5.51044
#
# Compressibility (1/GPa) = 0.03462266
#
# Stress axis : x y z
#
# Youngs Moduli (GPa) = 65.79044 65.79044 24.10631
#
# Poissons Ratio (x) = 0.63225 0.10872
# Poissons Ratio (y) = 0.63225 0.10872
# Poissons Ratio (z) = 0.29671 0.29671
#
# Static dielectric constant tensor:
#      x y z
#    x 2.018480 0.000000 0.000000 
#    y 0.000000 2.018480 0.000000 
#    z 0.000000 0.000000 2.083280 
# 
# From -- ./inp_files/13522.got.cif
#   From: 2010.05.17/outbox.cif.g08.bks.cpg/sg91_7_cif.got.tgz:13522.got - 2010.06.03 19:20:03.
