data_PCOD9547714
_publ_section_title
;
Structure prediction by ZEFSAII (Michael W. Deem and Ramdas Pophale) SiO2 
 PCOD9547714
Probable space group: P 41 2 2
;
_chemical_formula_sum "Si O2"
_cell_formula_units_Z 36
_cell_length_a 14.725334
_cell_length_b 14.725334
_cell_length_c 8.415865
_cell_angle_alpha 90.000000
_cell_angle_beta 90.000000
_cell_angle_gamma 90.000000
_cell_volume 1824.857970
_symmetry_space_group_name_H-M "P 41 2 2"
_symmetry_group_IT_number 91
_symmetry_cell_setting 'tetragonal'
loop_
_space_group_symop_operation_xyz
x,y,z
-y,x,1/4+z
-x,-y,1/2+z
y,-x,3/4+z
x,-y,1/2-z
-x,y,-z
y,x,3/4-z
-y,-x,1/4-z
loop_
_atom_site_type_symbol
_atom_site_label
_atom_site_fract_x
_atom_site_fract_y
_atom_site_fract_z
Si Si1 0.000000 0.787960 0.500000
Si Si2 0.467153 0.900110 0.313689
Si Si3 0.104889 0.870160 0.956665
Si Si4 0.795847 0.297598 0.347156
Si Si5 0.346083 0.172202 0.744315
O O1 0.036417 0.855718 0.363460
O O2 0.084892 0.719687 0.508330
O O3 0.500000 0.907409 0.500000
O O4 0.379494 0.835465 0.300370
O O5 0.552437 0.860673 0.216227
O O6 0.444434 0.000000 0.250000
O O7 0.130219 0.784519 0.847251
O O8 0.151815 0.848186 0.125000
O O9 0.000000 0.878344 0.000000
O O10 0.788167 0.341063 0.172244
O O11 0.701435 0.244147 0.373121
#
# Coordination Sequence:
#
# PCOD9547714 Si02
#       5
#     4   8   8   8   8
#     4  10  20  34  50  66 102 146 182 222 266 318
#     4  10  19  33  57  81 110 144 188 228 277 330
#     4  11  23  34  49  70 105 144 191 222 265 319
#     4   9  19  34  51  76 108 136 179 231 273 323
#     4   9  17  34  54  75 106 144 177 224 280 332
#
# _framework density 19.727564000000001
#
# number of rings (size 3 to 8) (size 9 to 14) (size 15 to 20)
#    0.000    2.222    1.111    2.000    1.556    3.556 
#    0.000    0.000    0.000    0.000    0.000    0.000 
#   40.000    0.000    0.000    0.000    0.000    0.000 
#
# Total GULP energy -200508.366017 kJ/mol
# GULP energy per Si atom -5569.676834 kJ/mol
# Density = 1.968266 g / cm^3
# Si number density = 19.727564 Si / 1000 Ang^3
#
#
#
# Elastic Constant Matrix: (Units=GPa)
#
#
# Indices 1 2 3 4 5 6 
#
# 1 130.4807 65.5551 17.1289 0.0000 0.0000 0.0000
# 2 65.5551 130.4810 17.1290 0.0000 0.0000 0.0000
# 3 17.1289 17.1290 28.7776 0.0000 0.0000 0.0000
# 4 0.0000 0.0000 0.0000 20.5956 0.0000 0.0000
# 5 0.0000 0.0000 0.0000 0.0000 20.5955 0.0000
# 6 0.0000 0.0000 0.0000 0.0000 0.0000 17.2882
#
#
#
# Elastic Compliance Matrix: (Units=1/GPa)
#
#
# Indices 1 2 3 4 5 6 
#
# 1 0.010548 -0.004854 -0.003389 0.000000 0.000000 0.000000
# 2 -0.004854 0.010548 -0.003389 0.000000 0.000000 0.000000
# 3 -0.003389 -0.003389 0.038783 0.000000 0.000000 0.000000
# 4 0.000000 0.000000 0.000000 0.048554 0.000000 0.000000
# 5 0.000000 0.000000 0.000000 0.000000 0.048554 0.000000
# 6 0.000000 0.000000 0.000000 0.000000 0.000000 0.057843
#
#
# Mechanical properties :
#
#
# Convention : Reuss Voigt Hill
#
# Bulk Modulus (GPa) = 27.31124 54.37391 40.84258
# Shear Modulus (GPa) = 19.97609 24.35760 22.16684
#
# Velocity S-wave (km/s) = 3.18559 3.51764 3.35572
# Velocity P-wave (km/s) = 5.23497 6.64234 5.98020
#
# Compressibility (1/GPa) = 0.03661496
#
# Stress axis : x y z
#
# Youngs Moduli (GPa) = 94.80683 94.80695 25.78425
#
# Poissons Ratio (x) = 0.46024 0.08738
# Poissons Ratio (y) = 0.46024 0.08738
# Poissons Ratio (z) = 0.32127 0.32128
#
# Static dielectric constant tensor:
#      x y z
#    x 1.700260 0.000000 0.000000 
#    y 0.000000 1.700260 0.000000 
#    z 0.000000 0.000000 1.848480 
# 
# From -- ./inp_files/2283.got.cif
#   From: 2010.05.17/outbox.cif.g08.bks.cpg/sg91_2_cif.got.tgz:2283.got - 2010.06.03 19:20:03.
