data_PCOD9547557
_publ_section_title
;
Structure prediction by ZEFSAII (Michael W. Deem and Ramdas Pophale) SiO2 
 PCOD9547557
Probable space group: P 41 2 2
;
_chemical_formula_sum "Si O2"
_cell_formula_units_Z 48
_cell_length_a 9.569097
_cell_length_b 9.569097
_cell_length_c 31.036625
_cell_angle_alpha 90.000000
_cell_angle_beta 90.000000
_cell_angle_gamma 90.000000
_cell_volume 2841.949803
_symmetry_space_group_name_H-M "P 41 2 2"
_symmetry_group_IT_number 91
_symmetry_cell_setting 'tetragonal'
loop_
_space_group_symop_operation_xyz
x,y,z
-y,x,1/4+z
-x,-y,1/2+z
y,-x,3/4+z
x,-y,1/2-z
-x,y,-z
y,x,3/4-z
-y,-x,1/4-z
loop_
_atom_site_type_symbol
_atom_site_label
_atom_site_fract_x
_atom_site_fract_y
_atom_site_fract_z
Si Si1 0.512649 0.044930 0.665154
Si Si2 0.256494 0.756340 0.845847
Si Si3 0.531202 0.558401 0.549718
Si Si4 0.068434 0.256162 0.343644
Si Si5 0.744344 0.317848 0.530368
Si Si6 0.595770 0.738499 0.681991
O O1 0.513062 0.881794 0.674592
O O2 0.361843 0.117160 0.664080
O O3 0.598914 0.071916 0.620872
O O4 0.607217 0.116362 0.702152
O O5 0.320689 0.622086 0.821145
O O6 0.267056 0.714990 0.895952
O O7 0.093718 0.778494 0.835163
O O8 0.500000 0.593439 0.500000
O O9 0.622996 0.416413 0.549854
O O10 0.388036 0.513177 0.571856
O O11 0.141748 0.141748 0.375000
O O12 0.164950 0.265233 0.301267
O O13 0.734316 0.334114 0.479197
#
# Coordination Sequence:
#
# PCOD9547557 Si02
#       6
#     8   8   8   8   8   8
#     4   9  18  32  52  74 102 135 169 204 252 306
#     4  10  19  33  51  75 106 135 162 208 264 304
#     4   9  18  32  51  74  99 130 169 210 249 297
#     4   9  18  33  52  74 100 134 174 215 250 292
#     4   9  17  32  54  74  94 129 178 214 238 287
#     4  10  18  30  53  77  97 129 174 211 243 298
#
# _framework density 16.889813
#
# number of rings (size 3 to 8) (size 9 to 14) (size 15 to 20)
#    0.000    2.667    0.000    2.000    0.000    2.667 
#    0.000    9.167    0.000   34.000    0.000    0.000 
#    0.000    0.000    0.000    0.000    0.000    0.000 
#
# Total GULP energy -267543.857278 kJ/mol
# GULP energy per Si atom -5573.830360 kJ/mol
# Density = 1.685137 g / cm^3
# Si number density = 16.889813 Si / 1000 Ang^3
#
#
#
# Elastic Constant Matrix: (Units=GPa)
#
#
# Indices 1 2 3 4 5 6 
#
# 1 121.0165 47.4247 31.9220 0.0000 0.0000 0.0000
# 2 47.4247 121.0165 31.9220 0.0000 0.0000 0.0000
# 3 31.9220 31.9220 55.1898 0.0000 0.0000 0.0000
# 4 0.0000 0.0000 0.0000 15.4144 0.0000 0.0000
# 5 0.0000 0.0000 0.0000 0.0000 15.4144 0.0000
# 6 0.0000 0.0000 0.0000 0.0000 0.0000 11.5224
#
#
#
# Elastic Compliance Matrix: (Units=1/GPa)
#
#
# Indices 1 2 3 4 5 6 
#
# 1 0.010596 -0.002992 -0.004398 0.000000 0.000000 0.000000
# 2 -0.002992 0.010596 -0.004398 0.000000 0.000000 0.000000
# 3 -0.004398 -0.004398 0.023207 0.000000 0.000000 0.000000
# 4 0.000000 0.000000 0.000000 0.064874 0.000000 0.000000
# 5 0.000000 0.000000 0.000000 0.000000 0.064874 0.000000
# 6 0.000000 0.000000 0.000000 0.000000 0.000000 0.086787
#
#
# Mechanical properties :
#
#
# Convention : Reuss Voigt Hill
#
# Bulk Modulus (GPa) = 48.02539 57.75116 52.88828
# Shear Modulus (GPa) = 17.15542 20.86718 19.01130
#
# Velocity S-wave (km/s) = 3.19050 3.51877 3.35865
# Velocity P-wave (km/s) = 6.48604 7.12573 6.81340
#
# Compressibility (1/GPa) = 0.02082232
#
# Stress axis : x y z
#
# Youngs Moduli (GPa) = 94.37412 94.37412 43.09045
#
# Poissons Ratio (x) = 0.28240 0.18951
# Poissons Ratio (y) = 0.28240 0.18951
# Poissons Ratio (z) = 0.41506 0.41506
#
# Static dielectric constant tensor:
#      x y z
#    x 1.569830 0.000000 0.000000 
#    y 0.000000 1.569830 0.000000 
#    z 0.000000 0.000000 1.586970 
# 
# From -- ./inp_files/7949.got.cif
#   From: 2010.05.17/outbox.cif.g08.bks.cpg/sg91_4_cif.got.tgz:7949.got - 2010.06.03 19:20:03.
