data_PCOD9547280
_publ_section_title
;
Structure prediction by ZEFSAII (Michael W. Deem and Ramdas Pophale) SiO2 
 PCOD9547280
Probable space group: P 4 21 2
;
_chemical_formula_sum "Si O2"
_cell_formula_units_Z 32
_cell_length_a 11.842129
_cell_length_b 11.842129
_cell_length_c 11.249368
_cell_angle_alpha 90.000000
_cell_angle_beta 90.000000
_cell_angle_gamma 90.000000
_cell_volume 1577.566587
_symmetry_space_group_name_H-M "P 4 21 2"
_symmetry_group_IT_number 90
_symmetry_cell_setting 'tetragonal'
loop_
_space_group_symop_operation_xyz
x,y,z
1/2-y,1/2+x,z
-x,-y,z
1/2+y,1/2-x,z
1/2+x,1/2-y,-z
1/2-x,1/2+y,-z
y,x,-z
-y,-x,-z
loop_
_atom_site_type_symbol
_atom_site_label
_atom_site_fract_x
_atom_site_fract_y
_atom_site_fract_z
Si Si1 0.318020 0.282617 0.638804
Si Si2 0.831137 0.587365 0.828649
Si Si3 0.338425 0.581158 0.368012
Si Si4 0.500000 0.500000 0.811110
Si Si5 0.636084 0.636084 0.000000
O O1 0.296610 0.296610 0.500000
O O2 0.242828 0.366475 0.718501
O O3 0.266129 0.159994 0.666512
O O4 0.451429 0.301270 0.646618
O O5 0.853592 0.453508 0.825079
O O6 0.760292 0.618113 0.947120
O O7 0.385641 0.614360 0.500000
O O8 0.440675 0.590712 0.274540
O O9 0.553464 0.596270 0.894079
#
# Coordination Sequence:
#
# PCOD9547280 Si02
#       5
#     8   8   8   4   4
#     4  11  25  42  69 105 135 185 228 292 349 428
#     4  11  26  49  71 100 143 185 233 296 360 418
#     4  11  24  43  71 102 144 183 238 287 362 426
#     4  11  21  42  68 100 135 181 230 292 338 431
#     4  11  24  42  72  97 126 186 240 283 342 418
#
# _framework density 20.284403999999999
#
# number of rings (size 3 to 8) (size 9 to 14) (size 15 to 20)
#    0.000    1.000    2.500    3.375    7.000    4.500 
#    0.000    0.000    0.000    0.000    0.000    0.000 
#    0.000    0.000    0.000    0.000    0.000    0.000 
#
# Total GULP energy -178664.458022 kJ/mol
# GULP energy per Si atom -5583.264313 kJ/mol
# Density = 2.023824 g / cm^3
# Si number density = 20.284404 Si / 1000 Ang^3
#
#
#
# Elastic Constant Matrix: (Units=GPa)
#
#
# Indices 1 2 3 4 5 6 
#
# 1 176.0032 99.6304 63.9422 0.0000 0.0000 0.0000
# 2 99.6304 176.0027 63.9421 0.0000 0.0000 0.0000
# 3 63.9422 63.9421 126.6427 0.0000 0.0000 0.0000
# 4 0.0000 0.0000 0.0000 24.3932 0.0000 0.0000
# 5 0.0000 0.0000 0.0000 0.0000 24.3936 0.0000
# 6 0.0000 0.0000 0.0000 0.0000 0.0000 43.6423
#
#
#
# Elastic Compliance Matrix: (Units=1/GPa)
#
#
# Indices 1 2 3 4 5 6 
#
# 1 0.008916 -0.004178 -0.002392 0.000000 0.000000 0.000000
# 2 -0.004178 0.008916 -0.002392 0.000000 0.000000 0.000000
# 3 -0.002392 -0.002392 0.010312 0.000000 0.000000 0.000000
# 4 0.000000 0.000000 0.000000 0.040995 0.000000 0.000000
# 5 0.000000 0.000000 0.000000 0.000000 0.040994 0.000000
# 6 0.000000 0.000000 0.000000 0.000000 0.000000 0.022914
#
#
# Mechanical properties :
#
#
# Convention : Reuss Voigt Hill
#
# Bulk Modulus (GPa) = 97.85738 103.74201 100.79970
# Shear Modulus (GPa) = 32.38819 35.22807 33.80813
#
# Velocity S-wave (km/s) = 4.00021 4.17190 4.08696
# Velocity P-wave (km/s) = 8.34763 8.62909 8.48953
#
# Compressibility (1/GPa) = 0.01021895
#
# Stress axis : x y z
#
# Youngs Moduli (GPa) = 112.16060 112.16025 96.97582
#
# Poissons Ratio (x) = 0.46860 0.23198
# Poissons Ratio (y) = 0.46860 0.23198
# Poissons Ratio (z) = 0.26831 0.26831
#
# Static dielectric constant tensor:
#      x y z
#    x 1.760550 0.000000 0.000000 
#    y 0.000000 1.760550 0.000000 
#    z 0.000000 0.000000 1.738510 
# 
# From -- ./inp_files/1902.got.cif
#   From: 2010.05.17/outbox.cif.g08.bks.cpg/sg90_1_cif.got.tgz:1902.got - 2010.06.03 19:17:45.
