data_PCOD9547467
_publ_section_title
;
Structure prediction by ZEFSAII (Michael W. Deem and Ramdas Pophale) SiO2 
 PCOD9547467
Probable space group: P 41 2 2
;
_chemical_formula_sum "Si O2"
_cell_formula_units_Z 40
_cell_length_a 14.248713
_cell_length_b 14.248713
_cell_length_c 10.757787
_cell_angle_alpha 90.000000
_cell_angle_beta 90.000000
_cell_angle_gamma 90.000000
_cell_volume 2184.108550
_symmetry_space_group_name_H-M "P 41 2 2"
_symmetry_group_IT_number 91
_symmetry_cell_setting 'tetragonal'
loop_
_space_group_symop_operation_xyz
x,y,z
-y,x,1/4+z
-x,-y,1/2+z
y,-x,3/4+z
x,-y,1/2-z
-x,y,-z
y,x,3/4-z
-y,-x,1/4-z
loop_
_atom_site_type_symbol
_atom_site_label
_atom_site_fract_x
_atom_site_fract_y
_atom_site_fract_z
Si Si1 0.711890 0.288111 0.625000
Si Si2 0.382535 0.315479 0.635376
Si Si3 0.535263 0.805010 0.319527
Si Si4 0.817374 0.714740 0.279093
Si Si5 0.500000 0.367749 0.000000
Si Si6 0.333596 0.892401 0.285697
O O1 0.688721 0.355740 0.741578
O O2 0.697270 0.183301 0.681052
O O3 0.442393 0.226554 0.679507
O O4 0.284779 0.305635 0.714681
O O5 0.422507 0.413731 0.688017
O O6 0.624405 0.849111 0.389933
O O7 0.525046 0.705767 0.390831
O O8 0.439287 0.861220 0.325162
O O9 0.798193 0.798193 0.375000
O O10 0.880835 0.728920 0.159695
O O11 0.333529 0.000000 0.250000
#
# Coordination Sequence:
#
# PCOD9547467 Si02
#       6
#     4   8   8   8   4   8
#     4  10  20  40  50  78 122 148 192 222 308 370
#     4   9  18  29  55  74 104 160 192 241 273 329
#     4  10  16  32  53  76 108 148 196 235 279 325
#     4   8  15  32  57  75 102 155 197 223 275 342
#     4  10  14  32  54  74 100 150 212 232 270 318
#     4  11  21  35  57  85 114 147 186 243 302 358
#
# _framework density 18.314108999999998
#
# number of rings (size 3 to 8) (size 9 to 14) (size 15 to 20)
#    0.000    2.400    6.000    1.800    0.000    0.800 
#    7.200    0.000    4.400    0.000    5.200    0.000 
#    0.000    0.000    0.000    0.000    0.000    0.000 
#
# Total GULP energy -222677.263722 kJ/mol
# GULP energy per Si atom -5566.931593 kJ/mol
# Density = 1.827243 g / cm^3
# Si number density = 18.314109 Si / 1000 Ang^3
#
#
#
# Elastic Constant Matrix: (Units=GPa)
#
#
# Indices 1 2 3 4 5 6 
#
# 1 54.4009 22.4494 43.8996 0.0000 0.0000 0.0000
# 2 22.4494 54.4005 43.8993 0.0000 0.0000 0.0000
# 3 43.8996 43.8993 144.5057 0.0000 0.0000 0.0000
# 4 0.0000 0.0000 0.0000 15.1139 0.0000 0.0000
# 5 0.0000 0.0000 0.0000 0.0000 15.1140 0.0000
# 6 0.0000 0.0000 0.0000 0.0000 0.0000 3.1009
#
#
#
# Elastic Compliance Matrix: (Units=1/GPa)
#
#
# Indices 1 2 3 4 5 6 
#
# 1 0.025613 -0.005684 -0.006054 0.000000 0.000000 0.000000
# 2 -0.005684 0.025613 -0.006054 0.000000 0.000000 0.000000
# 3 -0.006054 -0.006054 0.010599 0.000000 0.000000 0.000000
# 4 0.000000 0.000000 0.000000 0.066164 0.000000 0.000000
# 5 0.000000 0.000000 0.000000 0.000000 0.066164 0.000000
# 6 0.000000 0.000000 0.000000 0.000000 0.000000 0.322485
#
#
# Mechanical properties :
#
#
# Convention : Reuss Voigt Hill
#
# Bulk Modulus (GPa) = 38.10999 52.64484 45.37741
# Shear Modulus (GPa) = 8.91313 16.20302 12.55807
#
# Velocity S-wave (km/s) = 2.20848 2.97767 2.62144
# Velocity P-wave (km/s) = 5.23043 6.37416 5.83041
#
# Compressibility (1/GPa) = 0.02623984
#
# Stress axis : x y z
#
# Youngs Moduli (GPa) = 39.04213 39.04193 94.35191
#
# Poissons Ratio (x) = 0.22192 0.57124
# Poissons Ratio (y) = 0.22192 0.57123
# Poissons Ratio (z) = 0.23637 0.23637
#
# Static dielectric constant tensor:
#      x y z
#    x 1.653000 0.000000 0.000000 
#    y 0.000000 1.653000 0.000000 
#    z 0.000000 0.000000 1.709350 
# 
# From -- ./inp_files/15754.got.cif
#   From: 2010.05.17/outbox.cif.g08.bks.cpg/sg91_8_cif.got.tgz:15754.got - 2010.06.03 19:20:03.
