data_PCOD9547382
_publ_section_title
;
Structure prediction by ZEFSAII (Michael W. Deem and Ramdas Pophale) SiO2 
 PCOD9547382
Probable space group: P 4 21 2
;
_chemical_formula_sum "Si O2"
_cell_formula_units_Z 24
_cell_length_a 8.756837
_cell_length_b 8.756837
_cell_length_c 11.898376
_cell_angle_alpha 90.000000
_cell_angle_beta 90.000000
_cell_angle_gamma 90.000000
_cell_volume 912.393580
_symmetry_space_group_name_H-M "P 4 21 2"
_symmetry_group_IT_number 90
_symmetry_cell_setting 'tetragonal'
loop_
_space_group_symop_operation_xyz
x,y,z
1/2-y,1/2+x,z
-x,-y,z
1/2+y,1/2-x,z
1/2+x,1/2-y,-z
1/2-x,1/2+y,-z
y,x,-z
-y,-x,-z
loop_
_atom_site_type_symbol
_atom_site_label
_atom_site_fract_x
_atom_site_fract_y
_atom_site_fract_z
Si Si1 0.733356 0.974895 0.504764
Si Si2 0.929294 0.268752 0.756345
Si Si3 0.581376 0.755377 0.902976
O O1 0.625886 0.841677 0.557841
O O2 0.895104 0.895104 0.500000
O O3 0.719628 0.037082 0.376042
O O4 0.817104 0.403703 0.800469
O O5 0.846880 0.114809 0.792376
O O6 0.408950 0.815476 0.908081
O O7 0.641479 0.641479 0.000000
#
# Coordination Sequence:
#
# PCOD9547382 Si02
#       3
#     8   8   8
#     4   9  19  39  64  94 131 173 224 279 334 397
#     4   9  19  39  63  93 132 174 224 278 332 395
#     4  11  24  41  65 101 140 178 226 280 334 400
#
# _framework density 26.304437
#
# number of rings (size 3 to 8) (size 9 to 14) (size 15 to 20)
#    0.000    2.333    0.000    4.000    0.000    8.000 
#    0.000   33.333    0.000   16.000    0.000    0.000 
#    0.000    0.000    0.000    0.000    0.000    0.000 
#
# Total GULP energy -133669.839921 kJ/mol
# GULP energy per Si atom -5569.576663 kJ/mol
# Density = 2.624457 g / cm^3
# Si number density = 26.304437 Si / 1000 Ang^3
#
#
#
# Elastic Constant Matrix: (Units=GPa)
#
#
# Indices 1 2 3 4 5 6 
#
# 1 78.7562 134.0716 6.9547 0.0000 0.0000 0.0000
# 2 134.0716 78.7562 6.9547 0.0000 0.0000 0.0000
# 3 6.9547 6.9547 54.6935 0.0000 0.0000 0.0000
# 4 0.0000 0.0000 0.0000 31.6867 0.0000 0.0000
# 5 0.0000 0.0000 0.0000 0.0000 31.6867 0.0000
# 6 0.0000 0.0000 0.0000 0.0000 0.0000 88.6067
#
#
#
# Elastic Compliance Matrix: (Units=1/GPa)
#
#
# Indices 1 2 3 4 5 6 
#
# 1 -0.006670 0.011408 -0.000602 0.000000 0.000000 0.000000
# 2 0.011408 -0.006670 -0.000602 0.000000 0.000000 0.000000
# 3 -0.000602 -0.000602 0.018437 0.000000 0.000000 0.000000
# 4 0.000000 0.000000 0.000000 0.031559 0.000000 0.000000
# 5 0.000000 0.000000 0.000000 0.000000 0.031559 0.000000
# 6 0.000000 0.000000 0.000000 0.000000 0.000000 0.011286
#
#
# Mechanical properties :
#
#
# Convention : Reuss Voigt Hill
#
# Bulk Modulus (GPa) = 39.21102 56.46311 47.83706
# Shear Modulus (GPa) = 73.96958 34.67767 54.32363
#
# Velocity S-wave (km/s) = 5.30864 3.63481 4.54936
# Velocity P-wave (km/s) = 7.24669 6.25521 6.76912
#
# Compressibility (1/GPa) = 0.02550304
#
# Stress axis : x y z
#
# Youngs Moduli (GPa) = -149.92341 -149.92341 54.23901
#
# Poissons Ratio (x) = 1.71034 0.03268
# Poissons Ratio (y) = 1.71034 0.03268
# Poissons Ratio (z) = -0.09032 -0.09032
#
# Static dielectric constant tensor:
#      x y z
#    x 2.054920 0.000000 0.000000 
#    y 0.000000 2.054920 0.000000 
#    z 0.000000 0.000000 2.235870 
# 
# From -- ./inp_files/2381.got.cif
#   From: 2010.05.17/outbox.cif.g08.bks.cpg/sg90_2_cif.got.tgz:2381.got - 2010.06.03 19:17:45.
