data_PCOD9547029
_publ_section_title
;
Structure prediction by ZEFSAII (Michael W. Deem and Ramdas Pophale) SiO2 
 PCOD9547029
Probable space group: P 4 2 2
;
_chemical_formula_sum "Si O2"
_cell_formula_units_Z 32
_cell_length_a 8.481907
_cell_length_b 8.481907
_cell_length_c 19.950925
_cell_angle_alpha 90.000000
_cell_angle_beta 90.000000
_cell_angle_gamma 90.000000
_cell_volume 1435.324337
_symmetry_space_group_name_H-M "P 4 2 2"
_symmetry_group_IT_number 89
_symmetry_cell_setting 'tetragonal'
loop_
_space_group_symop_operation_xyz
x,y,z
-y,x,z
-x,-y,z
y,-x,z
x,-y,-z
-x,y,-z
y,x,-z
-y,-x,-z
loop_
_atom_site_type_symbol
_atom_site_label
_atom_site_fract_x
_atom_site_fract_y
_atom_site_fract_z
Si Si1 0.619397 0.730813 0.704393
Si Si2 0.762592 0.465112 0.924328
Si Si3 0.795754 0.830673 0.577115
Si Si4 0.923774 0.252702 0.821409
O O1 0.435846 0.703992 0.720281
O O2 0.668702 0.759533 0.627589
O O3 0.681184 0.875074 0.748825
O O4 0.666740 0.625758 0.913853
O O5 0.888063 0.387112 0.875356
O O6 0.819710 0.500000 0.000000
O O7 0.777294 0.777294 0.500000
O O8 0.980007 0.787389 0.588443
O O9 0.099470 0.188238 0.828868
#
# Coordination Sequence:
#
# PCOD9547029 Si02
#       4
#     8   8   8   8
#     4  11  24  39  58  88 124 163 210 261 311 367
#     4   9  19  39  63  89 119 152 192 237 290 356
#     4   9  19  37  60  87 122 164 210 260 313 370
#     4  11  24  41  63  93 126 159 202 255 307 366
#
# _framework density 22.294611
#
# number of rings (size 3 to 8) (size 9 to 14) (size 15 to 20)
#    0.000    2.000    0.000    4.500    0.000   12.000 
#    0.000   16.250    0.000    6.000    0.000    0.000 
#    0.000    0.000    0.000    0.000    0.000    0.000 
#
# Total GULP energy -178520.196895 kJ/mol
# GULP energy per Si atom -5578.756153 kJ/mol
# Density = 2.224387 g / cm^3
# Si number density = 22.294611 Si / 1000 Ang^3
#
#
#
# Elastic Constant Matrix: (Units=GPa)
#
#
# Indices 1 2 3 4 5 6 
#
# 1 58.0663 63.5250 43.2628 0.0000 0.0000 0.0000
# 2 63.5250 58.0663 43.2628 0.0000 0.0000 0.0000
# 3 43.2628 43.2628 100.8411 0.0000 0.0000 0.0000
# 4 0.0000 0.0000 0.0000 26.6399 0.0000 0.0000
# 5 0.0000 0.0000 0.0000 0.0000 26.6399 0.0000
# 6 0.0000 0.0000 0.0000 0.0000 0.0000 41.9456
#
#
#
# Elastic Compliance Matrix: (Units=1/GPa)
#
#
# Indices 1 2 3 4 5 6 
#
# 1 -0.085677 0.097516 -0.005079 0.000000 0.000000 0.000000
# 2 0.097516 -0.085677 -0.005079 0.000000 0.000000 0.000000
# 3 -0.005079 -0.005079 0.014275 0.000000 0.000000 0.000000
# 4 0.000000 0.000000 0.000000 0.037538 0.000000 0.000000
# 5 0.000000 0.000000 0.000000 0.000000 0.037538 0.000000
# 6 0.000000 0.000000 0.000000 0.000000 0.000000 0.023840
#
#
# Mechanical properties :
#
#
# Convention : Reuss Voigt Hill
#
# Bulk Modulus (GPa) = 56.70304 57.45277 57.07791
# Shear Modulus (GPa) = -22.02633 23.50662 0.74014
#
# Velocity S-wave (km/s) = -3.14660 3.25062 0.57680
# Velocity P-wave (km/s) = 3.50532 6.31779 5.10890
#
# Compressibility (1/GPa) = 0.01763574
#
# Stress axis : x y z
#
# Youngs Moduli (GPa) = -11.67172 -11.67172 70.05483
#
# Poissons Ratio (x) = 1.13818 0.35581
# Poissons Ratio (y) = 1.13818 0.35581
# Poissons Ratio (z) = -0.05928 -0.05928
#
# Static dielectric constant tensor:
#      x y z
#    x 1.951560 0.000000 0.000000 
#    y 0.000000 1.951560 0.000000 
#    z 0.000000 0.000000 1.835740 
# 
# From -- ./inp_files/2487.got.cif
#   From: 2010.05.17/outbox.cif.g08.bks.cpg/sg89_2_cif.got.tgz:2487.got - 2010.06.03 19:15:31.
