data_PCOD9547764
_publ_section_title
;
Structure prediction by ZEFSAII (Michael W. Deem and Ramdas Pophale) SiO2 
 PCOD9547764
Probable space group: P 41 2 2
;
_chemical_formula_sum "Si O2"
_cell_formula_units_Z 56
_cell_length_a 14.789671
_cell_length_b 14.789671
_cell_length_c 11.629073
_cell_angle_alpha 90.000000
_cell_angle_beta 90.000000
_cell_angle_gamma 90.000000
_cell_volume 2543.677936
_symmetry_space_group_name_H-M "P 41 2 2"
_symmetry_group_IT_number 91
_symmetry_cell_setting 'tetragonal'
loop_
_space_group_symop_operation_xyz
x,y,z
-y,x,1/4+z
-x,-y,1/2+z
y,-x,3/4+z
x,-y,1/2-z
-x,y,-z
y,x,3/4-z
-y,-x,1/4-z
loop_
_atom_site_type_symbol
_atom_site_label
_atom_site_fract_x
_atom_site_fract_y
_atom_site_fract_z
Si Si1 0.110949 0.254776 0.750376
Si Si2 0.105193 0.731084 0.497497
Si Si3 0.293564 0.550580 0.118025
Si Si4 0.619039 0.605900 0.243177
Si Si5 0.206431 0.053938 0.371086
Si Si6 0.327078 0.821569 0.987979
Si Si7 0.784634 0.349903 0.419581
O O1 0.187689 0.177690 0.741505
O O2 0.118014 0.304384 0.872557
O O3 0.125169 0.326445 0.648024
O O4 0.018641 0.202773 0.724347
O O5 0.128313 0.670502 0.385739
O O6 0.000000 0.759550 0.500000
O O7 0.377971 0.622030 0.125000
O O8 0.341494 0.458286 0.077771
O O9 0.234168 0.584584 0.226802
O O10 0.225497 0.574149 0.014205
O O11 0.595127 0.500000 0.250000
O O12 0.633426 0.633426 0.375000
O O13 0.710970 0.623309 0.175956
O O14 0.121201 0.121201 0.375000
O O15 0.293990 0.111967 0.410906
O O16 0.209766 0.000000 0.250000
O O17 0.250548 0.743898 0.975414
#
# Coordination Sequence:
#
# PCOD9547764 Si02
#       7
#     8   8   8   8   8   8   8
#     4  10  22  36  60  91 134 182 233 291 358 413
#     4  10  19  37  57  87 130 177 239 294 345 409
#     4  10  21  38  63  92 139 179 221 278 344 431
#     4  12  24  40  65 105 138 175 217 283 362 428
#     4  12  23  38  61  96 141 186 235 297 357 431
#     4  10  21  39  61  92 133 189 239 271 347 429
#     4  10  22  40  62  93 134 181 230 275 350 439
#
# _framework density 22.015364999999999
#
# number of rings (size 3 to 8) (size 9 to 14) (size 15 to 20)
#    0.000    1.429    2.857    4.286    4.000    2.286 
#    0.000    0.000    0.000    0.000    3.714   13.000 
#    0.000    0.000    0.000    0.000    0.000    0.000 
#
# Total GULP energy -312281.054258 kJ/mol
# GULP energy per Si atom -5576.447397 kJ/mol
# Density = 2.196526 g / cm^3
# Si number density = 22.015365 Si / 1000 Ang^3
#
#
#
# Elastic Constant Matrix: (Units=GPa)
#
#
# Indices 1 2 3 4 5 6 
#
# 1 51.3086 45.1884 44.7107 0.0000 0.0000 0.0000
# 2 45.1884 51.3087 44.7114 0.0000 0.0000 0.0000
# 3 44.7107 44.7114 150.1459 0.0000 0.0000 0.0000
# 4 0.0000 0.0000 0.0000 13.3433 0.0000 0.0000
# 5 0.0000 0.0000 0.0000 0.0000 13.3401 0.0000
# 6 0.0000 0.0000 0.0000 0.0000 0.0000 17.4006
#
#
#
# Elastic Compliance Matrix: (Units=1/GPa)
#
#
# Indices 1 2 3 4 5 6 
#
# 1 0.088852 -0.074540 -0.004262 0.000000 0.000000 0.000000
# 2 -0.074540 0.088852 -0.004263 0.000000 0.000000 0.000000
# 3 -0.004262 -0.004263 0.009199 0.000000 0.000000 0.000000
# 4 0.000000 0.000000 0.000000 0.074944 0.000000 0.000000
# 5 0.000000 0.000000 0.000000 0.000000 0.074962 0.000000
# 6 0.000000 0.000000 0.000000 0.000000 0.000000 0.057469
#
#
# Mechanical properties :
#
#
# Convention : Reuss Voigt Hill
#
# Bulk Modulus (GPa) = 48.13371 57.99825 53.06598
# Shear Modulus (GPa) = 8.81320 16.69364 12.75342
#
# Velocity S-wave (km/s) = 2.00297 2.75666 2.40947
# Velocity P-wave (km/s) = 5.22114 6.04433 5.64775
#
# Compressibility (1/GPa) = 0.02077546
#
# Stress axis : x y z
#
# Youngs Moduli (GPa) = 11.25470 11.25461 108.71297
#
# Poissons Ratio (x) = 0.83891 0.46329
# Poissons Ratio (y) = 0.83892 0.46339
# Poissons Ratio (z) = 0.04796 0.04797
#
# Static dielectric constant tensor:
#      x y z
#    x 1.980940 0.000000 0.000000 
#    y 0.000000 1.980950 0.000000 
#    z 0.000000 0.000000 1.939250 
# 
# From -- ./inp_files/20341.got.cif
#   From: 2010.05.17/outbox.cif.g08.bks.cpg/sg91_11_cif.got.tgz:20341.got - 2010.06.03 19:20:03.
