data_PCOD9547820
_publ_section_title
;
Structure prediction by ZEFSAII (Michael W. Deem and Ramdas Pophale) SiO2 
 PCOD9547820
Probable space group: P 41 2 2
;
_chemical_formula_sum "Si O2"
_cell_formula_units_Z 60
_cell_length_a 12.703627
_cell_length_b 12.703627
_cell_length_c 20.555728
_cell_angle_alpha 90.000000
_cell_angle_beta 90.000000
_cell_angle_gamma 90.000000
_cell_volume 3317.327352
_symmetry_space_group_name_H-M "P 41 2 2"
_symmetry_group_IT_number 91
_symmetry_cell_setting 'tetragonal'
loop_
_space_group_symop_operation_xyz
x,y,z
-y,x,1/4+z
-x,-y,1/2+z
y,-x,3/4+z
x,-y,1/2-z
-x,y,-z
y,x,3/4-z
-y,-x,1/4-z
loop_
_atom_site_type_symbol
_atom_site_label
_atom_site_fract_x
_atom_site_fract_y
_atom_site_fract_z
Si Si1 0.026054 0.555923 0.647008
Si Si2 0.206407 0.651143 0.079385
Si Si3 0.787311 0.412058 0.903458
Si Si4 0.012666 0.235814 0.219618
Si Si5 0.664373 0.884994 0.281858
Si Si6 0.021549 0.318674 0.643352
Si Si7 0.740181 0.228461 0.812694
Si Si8 0.861850 0.861850 0.375000
O O1 0.097790 0.569668 0.582848
O O2 0.905859 0.575043 0.624540
O O3 0.041373 0.655504 0.693858
O O4 0.037024 0.437504 0.671251
O O5 0.270496 0.729505 0.125000
O O6 0.246668 0.532788 0.092783
O O7 0.083402 0.668308 0.098960
O O8 0.225223 0.676321 0.004103
O O9 0.724484 0.331952 0.857546
O O10 0.804237 0.362259 0.974840
O O11 0.994627 0.238138 0.296856
O O12 0.136816 0.233277 0.207000
O O13 0.961524 0.148080 0.172786
O O14 0.764635 0.857551 0.325122
O O15 0.683784 0.000000 0.250000
O O16 0.123056 0.284777 0.602730
#
# Coordination Sequence:
#
# PCOD9547820 Si02
#       8
#     8   8   8   8   8   8   8   4
#     4   8  17  31  56  82 106 139 188 250 293 324
#     4  11  22  39  58  88 116 145 192 242 296 343
#     4   9  19  34  58  83 111 147 190 240 288 345
#     4  10  20  35  51  80 113 148 199 232 277 357
#     4   9  16  32  51  80 111 141 193 237 284 342
#     4  11  20  36  58  81 118 148 183 245 298 342
#     4  11  22  37  56  86 114 149 196 237 292 352
#     4  10  20  32  52  76 112 160 186 230 278 344
#
# _framework density 18.086849000000001
#
# number of rings (size 3 to 8) (size 9 to 14) (size 15 to 20)
#    0.000    2.133    1.333    3.200    0.000    2.667 
#    1.200    1.333    0.000    0.000   32.933    0.000 
#    0.000    0.000    0.000    0.000    0.000    0.000 
#
# Total GULP energy -334284.457611 kJ/mol
# GULP energy per Si atom -5571.407627 kJ/mol
# Density = 1.804568 g / cm^3
# Si number density = 18.086849 Si / 1000 Ang^3
#
#
#
# Elastic Constant Matrix: (Units=GPa)
#
#
# Indices 1 2 3 4 5 6 
#
# 1 65.5417 33.0092 40.3923 0.0000 0.0000 0.0000
# 2 33.0092 65.5392 40.3923 0.0000 0.0000 0.0000
# 3 40.3923 40.3923 101.5795 0.0000 0.0000 0.0000
# 4 0.0000 0.0000 0.0000 28.0993 0.0000 0.0000
# 5 0.0000 0.0000 0.0000 0.0000 28.0994 0.0000
# 6 0.0000 0.0000 0.0000 0.0000 0.0000 -19.2722
#
#
#
# Elastic Compliance Matrix: (Units=1/GPa)
#
#
# Indices 1 2 3 4 5 6 
#
# 1 0.022896 -0.007843 -0.005986 0.000000 0.000000 0.000000
# 2 -0.007843 0.022898 -0.005986 0.000000 0.000000 0.000000
# 3 -0.005986 -0.005986 0.014605 0.000000 0.000000 0.000000
# 4 0.000000 0.000000 0.000000 0.035588 0.000000 0.000000
# 5 0.000000 0.000000 0.000000 0.000000 0.035588 0.000000
# 6 0.000000 0.000000 0.000000 0.000000 0.000000 -0.051888
#
#
# Mechanical properties :
#
#
# Convention : Reuss Voigt Hill
#
# Bulk Modulus (GPa) = 48.14880 51.13865 49.64372
# Shear Modulus (GPa) = 39.60701 15.30974 27.45837
#
# Velocity S-wave (km/s) = 4.68463 2.91255 3.90056
# Velocity P-wave (km/s) = 7.47929 6.29650 6.91323
#
# Compressibility (1/GPa) = 0.02076895
#
# Stress axis : x y z
#
# Youngs Moduli (GPa) = 43.67498 43.67276 68.46849
#
# Poissons Ratio (x) = 0.34251 0.40985
# Poissons Ratio (y) = 0.34253 0.40988
# Poissons Ratio (z) = 0.26144 0.26144
#
# Static dielectric constant tensor:
#      x y z
#    x 1.622160 0.000000 0.000000 
#    y 0.000000 1.622160 0.000000 
#    z 0.000000 0.000000 1.674510 
# 
# From -- ./inp_files/12518.got.cif
#   From: 2010.05.17/outbox.cif.g08.bks.cpg/sg91_7_cif.got.tgz:12518.got - 2010.06.03 19:20:03.
