data_PCOD9547999
_publ_section_title
;
Structure prediction by ZEFSAII (Michael W. Deem and Ramdas Pophale) SiO2 
 PCOD9547999
Probable space group: P 41 2 2
;
_chemical_formula_sum "Si O2"
_cell_formula_units_Z 56
_cell_length_a 14.329210
_cell_length_b 14.329210
_cell_length_c 13.939049
_cell_angle_alpha 90.000000
_cell_angle_beta 90.000000
_cell_angle_gamma 90.000000
_cell_volume 2862.052788
_symmetry_space_group_name_H-M "P 41 2 2"
_symmetry_group_IT_number 91
_symmetry_cell_setting 'tetragonal'
loop_
_space_group_symop_operation_xyz
x,y,z
-y,x,1/4+z
-x,-y,1/2+z
y,-x,3/4+z
x,-y,1/2-z
-x,y,-z
y,x,3/4-z
-y,-x,1/4-z
loop_
_atom_site_type_symbol
_atom_site_label
_atom_site_fract_x
_atom_site_fract_y
_atom_site_fract_z
Si Si1 0.394881 0.864659 0.034817
Si Si2 0.397070 0.388264 0.763455
Si Si3 0.321342 0.763470 0.371841
Si Si4 0.300878 0.415514 0.437068
Si Si5 0.263178 0.880430 0.850318
Si Si6 0.929492 0.604746 0.211116
Si Si7 0.251655 0.093632 0.865630
O O1 0.395153 0.785376 0.115771
O O2 0.370184 0.967115 0.074297
O O3 0.500000 0.865459 0.000000
O O4 0.337242 0.861074 0.934957
O O5 0.415841 0.500000 0.750000
O O6 0.308267 0.355603 0.702697
O O7 0.482995 0.322337 0.730498
O O8 0.376215 0.376215 0.875000
O O9 0.342651 0.711715 0.273099
O O10 0.214792 0.795174 0.389710
O O11 0.384763 0.854389 0.378223
O O12 0.391618 0.391618 0.375000
O O13 0.296495 0.885672 0.739429
O O14 0.221191 0.983858 0.866636
O O15 0.929627 0.500000 0.250000
O O16 0.900046 0.673245 0.298879
O O17 0.165730 0.165730 0.875000
#
# Coordination Sequence:
#
# PCOD9547999 Si02
#       7
#     8   8   8   8   8   8   8
#     4  10  22  43  62  89 124 170 217 263 312 395
#     4  12  26  44  63  94 135 175 224 277 327 390
#     4  12  24  40  63  95 129 169 210 271 328 388
#     4  12  26  40  65  90 130 177 218 257 317 388
#     4  10  21  38  63  97 123 161 221 268 333 400
#     4  10  23  39  63  92 129 161 210 268 328 390
#     4  10  20  39  68  94 124 163 209 284 341 391
#
# _framework density 19.566375000000001
#
# number of rings (size 3 to 8) (size 9 to 14) (size 15 to 20)
#    0.000    1.143    4.286    1.714    2.000    1.714 
#    0.000    2.857    0.000    4.286    0.000    0.000 
#    0.000    0.000    0.000    0.000    0.000    0.000 
#
# Total GULP energy -312080.998063 kJ/mol
# GULP energy per Si atom -5572.874965 kJ/mol
# Density = 1.952184 g / cm^3
# Si number density = 19.566375 Si / 1000 Ang^3
#
#
#
# Elastic Constant Matrix: (Units=GPa)
#
#
# Indices 1 2 3 4 5 6 
#
# 1 92.8593 36.4161 39.6889 0.0000 0.0000 0.0000
# 2 36.4161 92.8593 39.6889 0.0000 0.0000 0.0000
# 3 39.6889 39.6889 114.8052 0.0000 0.0000 0.0000
# 4 0.0000 0.0000 0.0000 11.3123 0.0000 0.0000
# 5 0.0000 0.0000 0.0000 0.0000 11.3123 0.0000
# 6 0.0000 0.0000 0.0000 0.0000 0.0000 2.5983
#
#
#
# Elastic Compliance Matrix: (Units=1/GPa)
#
#
# Indices 1 2 3 4 5 6 
#
# 1 0.013768 -0.003949 -0.003395 0.000000 0.000000 0.000000
# 2 -0.003949 0.013768 -0.003395 0.000000 0.000000 0.000000
# 3 -0.003395 -0.003395 0.011058 0.000000 0.000000 0.000000
# 4 0.000000 0.000000 0.000000 0.088399 0.000000 0.000000
# 5 0.000000 0.000000 0.000000 0.000000 0.088399 0.000000
# 6 0.000000 0.000000 0.000000 0.000000 0.000000 0.384870
#
#
# Mechanical properties :
#
#
# Convention : Reuss Voigt Hill
#
# Bulk Modulus (GPa) = 58.41729 59.12348 58.77039
# Shear Modulus (GPa) = 7.96883 17.35992 12.66438
#
# Velocity S-wave (km/s) = 2.02029 2.98188 2.54688
# Velocity P-wave (km/s) = 5.94667 6.49137 6.22498
#
# Compressibility (1/GPa) = 0.01711822
#
# Stress axis : x y z
#
# Youngs Moduli (GPa) = 72.63003 72.63003 90.43544
#
# Poissons Ratio (x) = 0.28678 0.30701
# Poissons Ratio (y) = 0.28678 0.30701
# Poissons Ratio (z) = 0.24656 0.24656
#
# Static dielectric constant tensor:
#      x y z
#    x 1.729590 0.000000 0.000000 
#    y 0.000000 1.729590 0.000000 
#    z 0.000000 0.000000 1.846140 
# 
# From -- ./inp_files/3911.got.cif
#   From: 2010.05.17/outbox.cif.g08.bks.cpg/sg91_2_cif.got.tgz:3911.got - 2010.06.03 19:20:03.
