data_PCOD9547282
_publ_section_title
;
Structure prediction by ZEFSAII (Michael W. Deem and Ramdas Pophale) SiO2 
 PCOD9547282
Probable space group: P 4 21 2
;
_chemical_formula_sum "Si O2"
_cell_formula_units_Z 40
_cell_length_a 13.854675
_cell_length_b 13.854675
_cell_length_c 9.148952
_cell_angle_alpha 90.000000
_cell_angle_beta 90.000000
_cell_angle_gamma 90.000000
_cell_volume 1756.159811
_symmetry_space_group_name_H-M "P 4 21 2"
_symmetry_group_IT_number 90
_symmetry_cell_setting 'tetragonal'
loop_
_space_group_symop_operation_xyz
x,y,z
1/2-y,1/2+x,z
-x,-y,z
1/2+y,1/2-x,z
1/2+x,1/2-y,-z
1/2-x,1/2+y,-z
y,x,-z
-y,-x,-z
loop_
_atom_site_type_symbol
_atom_site_label
_atom_site_fract_x
_atom_site_fract_y
_atom_site_fract_z
Si Si1 0.716892 0.154536 0.805756
Si Si2 0.951926 0.773420 0.336338
Si Si3 0.496518 0.844399 0.405052
Si Si4 0.097881 0.729551 0.864277
Si Si5 0.898540 0.946811 0.150540
O O1 0.621752 0.193176 0.726478
O O2 0.800311 0.237069 0.793029
O O3 0.759446 0.055601 0.740574
O O4 0.695411 0.128378 0.975270
O O5 0.902931 0.873227 0.285742
O O6 0.977923 0.753190 0.505811
O O7 0.405866 0.909825 0.448008
O O8 0.524534 0.832893 0.234799
O O9 0.033544 0.825010 0.869058
O O10 0.886810 0.886810 0.000000
O O11 0.000000 0.000000 0.153783
#
# Coordination Sequence:
#
# PCOD9547282 Si02
#       5
#     8   8   8   8   8
#     4  11  25  43  74 104 139 183 247 295 353 442
#     4  12  24  45  72 100 140 195 229 299 365 434
#     4  11  27  48  66  97 147 190 232 292 362 429
#     4  11  25  45  68 109 137 180 241 299 354 432
#     4  11  21  42  71 102 139 178 229 294 357 417
#
# _framework density 22.776969999999999
#
# number of rings (size 3 to 8) (size 9 to 14) (size 15 to 20)
#    0.000    0.800    6.000    1.200    8.400    2.000 
#    0.000    1.000    0.000    0.000    0.000    0.000 
#    0.000    0.000    0.000    0.000    0.000    0.000 
#
# Total GULP energy -223024.812974 kJ/mol
# GULP energy per Si atom -5575.620324 kJ/mol
# Density = 2.272513 g / cm^3
# Si number density = 22.776970 Si / 1000 Ang^3
#
#
#
# Elastic Constant Matrix: (Units=GPa)
#
#
# Indices 1 2 3 4 5 6 
#
# 1 49.4742 19.6353 28.6726 0.0000 0.0000 0.0000
# 2 19.6353 49.4742 28.6726 0.0000 0.0000 0.0000
# 3 28.6726 28.6726 79.2114 0.0000 0.0000 0.0000
# 4 0.0000 0.0000 0.0000 9.5138 0.0000 0.0000
# 5 0.0000 0.0000 0.0000 0.0000 9.5138 0.0000
# 6 0.0000 0.0000 0.0000 0.0000 0.0000 271.0483
#
#
#
# Elastic Compliance Matrix: (Units=1/GPa)
#
#
# Indices 1 2 3 4 5 6 
#
# 1 0.027097 -0.006416 -0.007486 0.000000 0.000000 0.000000
# 2 -0.006416 0.027097 -0.007486 0.000000 0.000000 0.000000
# 3 -0.007486 -0.007486 0.018044 0.000000 0.000000 0.000000
# 4 0.000000 0.000000 0.000000 0.105111 0.000000 0.000000
# 5 0.000000 0.000000 0.000000 0.000000 0.105111 0.000000
# 6 0.000000 0.000000 0.000000 0.000000 0.000000 0.003689
#
#
# Mechanical properties :
#
#
# Convention : Reuss Voigt Hill
#
# Bulk Modulus (GPa) = 33.94151 36.90230 35.42190
# Shear Modulus (GPa) = 14.76027 64.76046 39.76037
#
# Velocity S-wave (km/s) = 2.54841 5.33799 4.18262
# Velocity P-wave (km/s) = 4.85729 7.36403 6.23788
#
# Compressibility (1/GPa) = 0.02946245
#
# Stress axis : x y z
#
# Youngs Moduli (GPa) = 36.90378 36.90378 55.41964
#
# Poissons Ratio (x) = 0.23677 0.41489
# Poissons Ratio (y) = 0.23677 0.41489
# Poissons Ratio (z) = 0.27627 0.27627
#
# Static dielectric constant tensor:
#      x y z
#    x 1.884460 0.000000 0.000000 
#    y 0.000000 1.884460 0.000000 
#    z 0.000000 0.000000 1.924650 
# 
# From -- ./inp_files/1273.got.cif
#   From: 2010.05.17/outbox.cif.g08.bks.cpg/sg90_1_cif.got.tgz:1273.got - 2010.06.03 19:17:45.
