data_PCOD9547605
_publ_section_title
;
Structure prediction by ZEFSAII (Michael W. Deem and Ramdas Pophale) SiO2 
 PCOD9547605
Probable space group: P 41 2 2
;
_chemical_formula_sum "Si O2"
_cell_formula_units_Z 64
_cell_length_a 12.481134
_cell_length_b 12.481134
_cell_length_c 23.748959
_cell_angle_alpha 90.000000
_cell_angle_beta 90.000000
_cell_angle_gamma 90.000000
_cell_volume 3699.582100
_symmetry_space_group_name_H-M "P 41 2 2"
_symmetry_group_IT_number 91
_symmetry_cell_setting 'tetragonal'
loop_
_space_group_symop_operation_xyz
x,y,z
-y,x,1/4+z
-x,-y,1/2+z
y,-x,3/4+z
x,-y,1/2-z
-x,y,-z
y,x,3/4-z
-y,-x,1/4-z
loop_
_atom_site_type_symbol
_atom_site_label
_atom_site_fract_x
_atom_site_fract_y
_atom_site_fract_z
Si Si1 0.766699 0.379464 0.272663
Si Si2 0.196528 0.385041 0.278680
Si Si3 0.818836 0.609546 0.505294
Si Si4 0.642654 0.207651 0.747251
Si Si5 0.408040 0.017265 0.839036
Si Si6 0.379542 0.987533 0.528864
Si Si7 0.641434 0.110797 0.862600
Si Si8 0.110431 0.713003 0.115337
O O1 0.738965 0.500000 0.250000
O O2 0.677617 0.288018 0.265985
O O3 0.809027 0.386662 0.336913
O O4 0.871786 0.338616 0.239115
O O5 0.209132 0.500000 0.250000
O O6 0.303123 0.318203 0.270150
O O7 0.094591 0.330033 0.247619
O O8 0.163710 0.377894 0.344217
O O9 0.786855 0.484997 0.500767
O O10 0.884766 0.639582 0.448263
O O11 0.908011 0.613938 0.554966
O O12 0.682734 0.172966 0.808456
O O13 0.679504 0.124776 0.699328
O O14 0.533827 0.048198 0.843273
O O15 0.376795 0.006389 0.904072
O O16 0.500000 0.987411 0.500000
O O17 0.719318 0.014344 0.880538
O O18 0.180164 0.819837 0.125000
#
# Coordination Sequence:
#
# PCOD9547605 Si02
#       8
#     8   8   8   8   8   8   8   8
#     4  11  22  37  57  86 118 154 191 239 293 353
#     4  10  20  33  54  81 111 145 189 228 281 346
#     4  10  23  36  58  87 117 148 194 239 292 350
#     4  10  22  32  53  85 110 149 181 235 291 339
#     4  10  19  38  60  80 106 155 200 243 273 330
#     4  10  18  34  58  80 105 145 198 240 273 332
#     4  11  18  36  57  82 108 144 204 234 275 343
#     4  10  19  34  55  81 110 137 181 243 292 328
#
# _framework density 17.299251000000002
#
# number of rings (size 3 to 8) (size 9 to 14) (size 15 to 20)
#    0.000    1.750    5.000    1.125    1.750    1.000 
#    0.000    0.000    0.000    3.000    0.000    0.000 
#    0.000    0.000    0.000    0.000    0.000    0.000 
#
# Total GULP energy -356408.299924 kJ/mol
# GULP energy per Si atom -5568.879686 kJ/mol
# Density = 1.725988 g / cm^3
# Si number density = 17.299251 Si / 1000 Ang^3
#
#
#
# Elastic Constant Matrix: (Units=GPa)
#
#
# Indices 1 2 3 4 5 6 
#
# 1 68.5699 43.1127 25.9202 0.0000 0.0000 0.0000
# 2 43.1127 68.5706 25.9204 0.0000 0.0000 0.0000
# 3 25.9202 25.9204 137.0402 0.0000 0.0000 0.0000
# 4 0.0000 0.0000 0.0000 19.1712 0.0000 0.0000
# 5 0.0000 0.0000 0.0000 0.0000 19.1715 0.0000
# 6 0.0000 0.0000 0.0000 0.0000 0.0000 4.9351
#
#
#
# Elastic Compliance Matrix: (Units=1/GPa)
#
#
# Indices 1 2 3 4 5 6 
#
# 1 0.024548 -0.014733 -0.001857 0.000000 0.000000 0.000000
# 2 -0.014733 0.024548 -0.001857 0.000000 0.000000 0.000000
# 3 -0.001857 -0.001857 0.007999 0.000000 0.000000 0.000000
# 4 0.000000 0.000000 0.000000 0.052161 0.000000 0.000000
# 5 0.000000 0.000000 0.000000 0.000000 0.052161 0.000000
# 6 0.000000 0.000000 0.000000 0.000000 0.000000 0.202630
#
#
# Mechanical properties :
#
#
# Convention : Reuss Voigt Hill
#
# Bulk Modulus (GPa) = 49.49384 51.56525 50.52954
# Shear Modulus (GPa) = 12.26468 20.60407 16.43437
#
# Velocity S-wave (km/s) = 2.66554 3.45489 3.08556
# Velocity P-wave (km/s) = 6.17624 6.76665 6.47817
#
# Compressibility (1/GPa) = 0.02020454
#
# Stress axis : x y z
#
# Youngs Moduli (GPa) = 40.73575 40.73615 125.00867
#
# Poissons Ratio (x) = 0.60015 0.23209
# Poissons Ratio (y) = 0.60015 0.23209
# Poissons Ratio (z) = 0.07563 0.07563
#
# Static dielectric constant tensor:
#      x y z
#    x 1.602380 0.000000 0.000000 
#    y 0.000000 1.602380 0.000000 
#    z 0.000000 0.000000 1.647590 
# 
# From -- ./inp_files/12955.got.cif
#   From: 2010.05.17/outbox.cif.g08.bks.cpg/sg91_7_cif.got.tgz:12955.got - 2010.06.03 19:20:03.
