data_PCOD9547221
_publ_section_title
;
Structure prediction by ZEFSAII (Michael W. Deem and Ramdas Pophale) SiO2 
 PCOD9547221
Probable space group: P 4 21 2
;
_chemical_formula_sum "Si O2"
_cell_formula_units_Z 38
_cell_length_a 8.169159
_cell_length_b 8.169159
_cell_length_c 26.341379
_cell_angle_alpha 90.000000
_cell_angle_beta 90.000000
_cell_angle_gamma 90.000000
_cell_volume 1757.896110
_symmetry_space_group_name_H-M "P 4 21 2"
_symmetry_group_IT_number 90
_symmetry_cell_setting 'tetragonal'
loop_
_space_group_symop_operation_xyz
x,y,z
1/2-y,1/2+x,z
-x,-y,z
1/2+y,1/2-x,z
1/2+x,1/2-y,-z
1/2-x,1/2+y,-z
y,x,-z
-y,-x,-z
loop_
_atom_site_type_symbol
_atom_site_label
_atom_site_fract_x
_atom_site_fract_y
_atom_site_fract_z
Si Si1 0.194411 0.805590 0.500000
Si Si2 0.500000 0.000000 0.486601
Si Si3 0.578993 0.735766 0.608094
Si Si4 0.262633 0.414240 0.049604
Si Si5 0.500000 0.500000 0.135115
Si Si6 0.081234 0.236410 0.778434
Si Si7 0.500000 0.500000 0.307437
O O1 0.386969 0.836392 0.490035
O O2 0.154617 0.888075 0.553973
O O3 0.394357 0.804599 0.610647
O O4 0.602589 0.615575 0.655083
O O5 0.198840 0.601309 0.049583
O O6 0.377923 0.400072 0.098661
O O7 0.365190 0.365190 0.000000
O O8 0.597341 0.376547 0.171910
O O9 0.197227 0.393792 0.778066
O O10 0.099904 0.120473 0.729534
#
# Coordination Sequence:
#
# PCOD9547221 Si02
#       7
#     4   2   8   8   4   8   4
#     4  12  24  50  64 108 132 190 216 286 320 422
#     4  12  28  44  80  96 152 176 236 268 344 388
#     4  11  24  43  64  94 133 171 216 271 331 398
#     4  11  23  39  61  94 136 178 221 266 317 386
#     4  11  21  38  65  91 122 169 215 268 330 390
#     4  10  22  42  62  90 122 157 212 275 335 393
#     4  11  24  39  67  89 121 170 213 270 332 404
#
# _framework density 21.61675
#
# number of rings (size 3 to 8) (size 9 to 14) (size 15 to 20)
#    0.000    1.053    2.105    4.105    2.947    0.842 
#    0.000    2.105    0.000   10.105    0.000    0.000 
#    0.000    0.000    0.000    0.000    0.000    0.000 
#
# Total GULP energy -211968.557614 kJ/mol
# GULP energy per Si atom -5578.119937 kJ/mol
# Density = 2.156755 g / cm^3
# Si number density = 21.616750 Si / 1000 Ang^3
#
#
#
# Elastic Constant Matrix: (Units=GPa)
#
#
# Indices 1 2 3 4 5 6 
#
# 1 58.3988 2.7880 30.7517 0.0000 0.0000 0.0000
# 2 2.7880 58.3976 30.7518 0.0000 0.0000 0.0000
# 3 30.7517 30.7518 171.9897 0.0000 0.0000 0.0000
# 4 0.0000 0.0000 0.0000 22.8787 0.0000 0.0000
# 5 0.0000 0.0000 0.0000 0.0000 22.8787 0.0000
# 6 0.0000 0.0000 0.0000 0.0000 0.0000 36.1516
#
#
#
# Elastic Compliance Matrix: (Units=1/GPa)
#
#
# Indices 1 2 3 4 5 6 
#
# 1 0.018953 0.000971 -0.003562 0.000000 0.000000 0.000000
# 2 0.000971 0.018954 -0.003563 0.000000 0.000000 0.000000
# 3 -0.003562 -0.003563 0.007088 0.000000 0.000000 0.000000
# 4 0.000000 0.000000 0.000000 0.043709 0.000000 0.000000
# 5 0.000000 0.000000 0.000000 0.000000 0.043709 0.000000
# 6 0.000000 0.000000 0.000000 0.000000 0.000000 0.027661
#
#
# Mechanical properties :
#
#
# Convention : Reuss Voigt Hill
#
# Bulk Modulus (GPa) = 30.59290 46.37435 38.48362
# Shear Modulus (GPa) = 27.28101 31.34810 29.31456
#
# Velocity S-wave (km/s) = 3.55636 3.81225 3.68653
# Velocity P-wave (km/s) = 5.57196 6.39353 5.99683
#
# Compressibility (1/GPa) = 0.03268732
#
# Stress axis : x y z
#
# Youngs Moduli (GPa) = 52.76156 52.76025 141.07847
#
# Poissons Ratio (x) = -0.05124 0.50259
# Poissons Ratio (y) = -0.05124 0.50260
# Poissons Ratio (z) = 0.18796 0.18796
#
# Static dielectric constant tensor:
#      x y z
#    x 1.803360 0.000000 0.000000 
#    y 0.000000 1.803370 0.000000 
#    z 0.000000 0.000000 1.768660 
# 
# From -- ./inp_files/2930.got.cif
#   From: 2010.05.17/outbox.cif.g08.bks.cpg/sg90_2_cif.got.tgz:2930.got - 2010.06.03 19:17:45.
