data_PCOD9547179
_publ_section_title
;
Structure prediction by ZEFSAII (Michael W. Deem and Ramdas Pophale) SiO2 
 PCOD9547179
Probable space group: P 4 21 2
;
_chemical_formula_sum "Si O2"
_cell_formula_units_Z 50
_cell_length_a 13.888900
_cell_length_b 13.888900
_cell_length_c 12.734494
_cell_angle_alpha 90.000000
_cell_angle_beta 90.000000
_cell_angle_gamma 90.000000
_cell_volume 2456.503545
_symmetry_space_group_name_H-M "P 4 21 2"
_symmetry_group_IT_number 90
_symmetry_cell_setting 'tetragonal'
loop_
_space_group_symop_operation_xyz
x,y,z
1/2-y,1/2+x,z
-x,-y,z
1/2+y,1/2-x,z
1/2+x,1/2-y,-z
1/2-x,1/2+y,-z
y,x,-z
-y,-x,-z
loop_
_atom_site_type_symbol
_atom_site_label
_atom_site_fract_x
_atom_site_fract_y
_atom_site_fract_z
Si Si1 0.823400 0.355743 0.764198
Si Si2 0.000000 0.500000 0.728848
Si Si3 0.129089 0.601488 0.990218
Si Si4 0.726567 0.452672 0.395932
Si Si5 0.089135 0.364252 0.219411
Si Si6 0.178329 0.829720 0.617960
Si Si7 0.453613 0.678933 0.377474
O O1 0.821976 0.351005 0.890078
O O2 0.811291 0.254310 0.703817
O O3 0.738356 0.424292 0.724019
O O4 0.923790 0.407905 0.733822
O O5 0.128869 0.484573 0.982577
O O6 0.172016 0.623120 0.105213
O O7 0.798029 0.394204 0.320314
O O8 0.725916 0.565684 0.367960
O O9 0.620114 0.409243 0.383602
O O10 0.747208 0.440316 0.519561
O O11 0.125406 0.473332 0.220730
O O12 0.205085 0.794916 0.500000
O O13 0.063780 0.850953 0.617256
#
# Coordination Sequence:
#
# PCOD9547179 Si02
#       7
#     8   2   8   8   8   8   8
#     4  12  20  35  61  95 119 157 201 255 315 368
#     4  12  20  36  60  96 134 144 192 272 312 354
#     4   9  15  32  58  84 118 153 192 243 308 372
#     4  10  22  39  58  79 120 163 208 249 294 372
#     4   9  20  36  58  86 118 158 198 255 316 356
#     4  10  22  37  58  86 125 164 204 250 311 375
#     4  10  22  37  58  82 116 163 207 243 304 371
#
# _framework density 20.354133999999998
#
# number of rings (size 3 to 8) (size 9 to 14) (size 15 to 20)
#    0.000    1.920    3.200    1.440    4.480    3.200 
#    0.000    0.800    0.000    2.880    0.000    6.720 
#    0.000    0.000    0.000    0.000    0.000    0.000 
#
# Total GULP energy -278416.209972 kJ/mol
# GULP energy per Si atom -5568.324199 kJ/mol
# Density = 2.030781 g / cm^3
# Si number density = 20.354134 Si / 1000 Ang^3
#
#
#
# Elastic Constant Matrix: (Units=GPa)
#
#
# Indices 1 2 3 4 5 6 
#
# 1 77.0777 0.2621 28.9815 0.0000 0.0000 0.0000
# 2 0.2621 77.0774 28.9815 0.0000 0.0000 0.0000
# 3 28.9815 28.9815 120.0394 0.0000 0.0000 0.0000
# 4 0.0000 0.0000 0.0000 22.2482 0.0000 0.0000
# 5 0.0000 0.0000 0.0000 0.0000 22.2483 0.0000
# 6 0.0000 0.0000 0.0000 0.0000 0.0000 28.3529
#
#
#
# Elastic Compliance Matrix: (Units=1/GPa)
#
#
# Indices 1 2 3 4 5 6 
#
# 1 0.014402 0.001384 -0.003811 0.000000 0.000000 0.000000
# 2 0.001384 0.014402 -0.003811 0.000000 0.000000 0.000000
# 3 -0.003811 -0.003811 0.010171 0.000000 0.000000 0.000000
# 4 0.000000 0.000000 0.000000 0.044947 0.000000 0.000000
# 5 0.000000 0.000000 0.000000 0.000000 0.044947 0.000000
# 6 0.000000 0.000000 0.000000 0.000000 0.000000 0.035270
#
#
# Mechanical properties :
#
#
# Convention : Reuss Voigt Hill
#
# Bulk Modulus (GPa) = 37.73813 43.40496 40.57155
# Shear Modulus (GPa) = 26.96142 28.96785 27.96463
#
# Velocity S-wave (km/s) = 3.64348 3.77661 3.71064
# Velocity P-wave (km/s) = 6.02336 6.35518 6.19149
#
# Compressibility (1/GPa) = 0.02649840
#
# Stress axis : x y z
#
# Youngs Moduli (GPa) = 69.43335 69.43306 98.31887
#
# Poissons Ratio (x) = -0.09610 0.37473
# Poissons Ratio (y) = -0.09610 0.37473
# Poissons Ratio (z) = 0.26464 0.26464
#
# Static dielectric constant tensor:
#      x y z
#    x 1.740190 0.000000 0.000000 
#    y 0.000000 1.740190 0.000000 
#    z 0.000000 0.000000 1.775210 
# 
# From -- ./inp_files/2175.got.cif
#   From: 2010.05.17/outbox.cif.g08.bks.cpg/sg90_2_cif.got.tgz:2175.got - 2010.06.03 19:17:45.
