data_PCOD9547508
_publ_section_title
;
Structure prediction by ZEFSAII (Michael W. Deem and Ramdas Pophale) SiO2 
 PCOD9547508
Probable space group: P 41 2 2
;
_chemical_formula_sum "Si O2"
_cell_formula_units_Z 28
_cell_length_a 6.817050
_cell_length_b 6.817050
_cell_length_c 21.035066
_cell_angle_alpha 90.000000
_cell_angle_beta 90.000000
_cell_angle_gamma 90.000000
_cell_volume 977.545178
_symmetry_space_group_name_H-M "P 41 2 2"
_symmetry_group_IT_number 91
_symmetry_cell_setting 'tetragonal'
loop_
_space_group_symop_operation_xyz
x,y,z
-y,x,1/4+z
-x,-y,1/2+z
y,-x,3/4+z
x,-y,1/2-z
-x,y,-z
y,x,3/4-z
-y,-x,1/4-z
loop_
_atom_site_type_symbol
_atom_site_label
_atom_site_fract_x
_atom_site_fract_y
_atom_site_fract_z
Si Si1 0.873321 0.384271 0.441765
Si Si2 0.882648 0.146900 0.050819
Si Si3 0.858475 0.629600 0.201901
Si Si4 0.463013 0.500000 0.250000
O O1 0.872070 0.617295 0.446479
O O2 0.934506 0.348104 0.370469
O O3 0.650872 0.332268 0.460776
O O4 0.000000 0.300889 0.500000
O O5 0.904719 0.095282 0.125000
O O6 0.128186 0.107799 0.030141
O O7 0.622922 0.101973 0.036204
O O8 0.615367 0.608362 0.201887
#
# Coordination Sequence:
#
# PCOD9547508 Si02
#       4
#     8   8   8   4
#     4  10  17  29  53  81 105 142 185 230 281 337
#     4  10  18  31  52  78 101 140 189 216 268 343
#     4   9  16  29  50  75 105 138 179 228 275 317
#     4   8  16  28  50  76 112 138 188 222 280 336
#
# _framework density 28.643177999999999
#
# number of rings (size 3 to 8) (size 9 to 14) (size 15 to 20)
#    0.857    1.714    2.857    0.857    0.000    0.000 
#    0.000    1.429    0.000   18.857    0.000    0.000 
#    0.000    0.000    0.000    0.000    0.000    0.000 
#
# Total GULP energy -155935.033750 kJ/mol
# GULP energy per Si atom -5569.108348 kJ/mol
# Density = 2.857799 g / cm^3
# Si number density = 28.643178 Si / 1000 Ang^3
#
#
#
# Elastic Constant Matrix: (Units=GPa)
#
#
# Indices 1 2 3 4 5 6 
#
# 1 189.3365 23.2543 89.6428 0.0000 0.0000 0.0000
# 2 23.2543 189.3365 89.6430 0.0000 0.0000 0.0000
# 3 89.6428 89.6430 374.3550 0.0000 0.0000 0.0000
# 4 0.0000 0.0000 0.0000 17.8618 0.0000 0.0000
# 5 0.0000 0.0000 0.0000 0.0000 17.8620 0.0000
# 6 0.0000 0.0000 0.0000 0.0000 0.0000 -23.5567
#
#
#
# Elastic Compliance Matrix: (Units=1/GPa)
#
#
# Indices 1 2 3 4 5 6 
#
# 1 0.005958 -0.000063 -0.001411 0.000000 0.000000 0.000000
# 2 -0.000063 0.005958 -0.001411 0.000000 0.000000 0.000000
# 3 -0.001411 -0.001411 0.003347 0.000000 0.000000 0.000000
# 4 0.000000 0.000000 0.000000 0.055986 0.000000 0.000000
# 5 0.000000 0.000000 0.000000 0.000000 0.055985 0.000000
# 6 0.000000 0.000000 0.000000 0.000000 0.000000 -0.042451
#
#
# Mechanical properties :
#
#
# Convention : Reuss Voigt Hill
#
# Bulk Modulus (GPa) = 105.37525 128.67870 117.02697
# Shear Modulus (GPa) = 53.35157 39.13260 46.24208
#
# Velocity S-wave (km/s) = 4.32050 3.70024 4.02234
# Velocity P-wave (km/s) = 7.85861 7.95474 7.90682
#
# Compressibility (1/GPa) = 0.00948989
#
# Stress axis : x y z
#
# Youngs Moduli (GPa) = 167.85163 167.85151 298.75578
#
# Poissons Ratio (x) = 0.01065 0.42167
# Poissons Ratio (y) = 0.01065 0.42167
# Poissons Ratio (z) = 0.23691 0.23691
#
# Static dielectric constant tensor:
#      x y z
#    x 2.431980 0.000000 0.000000 
#    y 0.000000 2.431980 0.000000 
#    z 0.000000 0.000000 2.191140 
# 
# From -- ./inp_files/5891.got.cif
#   From: 2010.05.17/outbox.cif.g08.bks.cpg/sg91_3_cif.got.tgz:5891.got - 2010.06.03 19:20:03.
