data_PCOD9547843
_publ_section_title
;
Structure prediction by ZEFSAII (Michael W. Deem and Ramdas Pophale) SiO2 
 PCOD9547843
Probable space group: P 41 2 2
;
_chemical_formula_sum "Si O2"
_cell_formula_units_Z 48
_cell_length_a 21.361898
_cell_length_b 21.361898
_cell_length_c 5.785991
_cell_angle_alpha 90.000000
_cell_angle_beta 90.000000
_cell_angle_gamma 90.000000
_cell_volume 2640.325243
_symmetry_space_group_name_H-M "P 41 2 2"
_symmetry_group_IT_number 91
_symmetry_cell_setting 'tetragonal'
loop_
_space_group_symop_operation_xyz
x,y,z
-y,x,1/4+z
-x,-y,1/2+z
y,-x,3/4+z
x,-y,1/2-z
-x,y,-z
y,x,3/4-z
-y,-x,1/4-z
loop_
_atom_site_type_symbol
_atom_site_label
_atom_site_fract_x
_atom_site_fract_y
_atom_site_fract_z
Si Si1 0.447040 0.066465 0.836101
Si Si2 0.626750 0.532914 0.994012
Si Si3 0.619520 0.844855 0.011083
Si Si4 0.675104 0.063620 0.864106
Si Si5 0.637255 0.271734 0.762593
Si Si6 0.717222 0.182364 0.098770
O O1 0.432644 0.121136 0.658700
O O2 0.472574 0.000000 0.750000
O O3 0.500000 0.092619 0.000000
O O4 0.380375 0.049824 0.953801
O O5 0.652182 0.500000 0.750000
O O6 0.567114 0.567114 0.875000
O O7 0.676107 0.586437 0.074061
O O8 0.612833 0.500000 0.250000
O O9 0.680671 0.830182 0.164913
O O10 0.639694 0.896647 0.828888
O O11 0.602828 0.780017 0.892999
O O12 0.699974 0.000000 0.750000
O O13 0.721331 0.114785 0.975070
O O14 0.691644 0.308357 0.625000
O O15 0.671772 0.230440 0.958387
O O16 0.782472 0.217529 0.125000
#
# Coordination Sequence:
#
# PCOD9547843 Si02
#       6
#     8   8   8   8   8   8
#     4  11  22  35  53  72 105 155 202 242 284 343
#     4  11  26  46  70  93 116 150 188 244 317 390
#     4  10  21  37  54  81 111 146 198 242 289 351
#     4  10  20  36  53  78 111 153 195 238 296 345
#     4  10  21  39  62  83 115 149 184 244 305 367
#     4  10  20  34  59  84 111 150 201 240 293 356
#
# _framework density 18.179579
#
# number of rings (size 3 to 8) (size 9 to 14) (size 15 to 20)
#    0.000    1.667    3.333    1.000    2.333    0.667 
#    9.000    0.000    0.000    0.000    0.000    0.000 
#    0.000    0.000    0.000    0.000   44.333    0.000 
#
# Total GULP energy -267299.495376 kJ/mol
# GULP energy per Si atom -5568.739487 kJ/mol
# Density = 1.813820 g / cm^3
# Si number density = 18.179579 Si / 1000 Ang^3
#
#
#
# Elastic Constant Matrix: (Units=GPa)
#
#
# Indices 1 2 3 4 5 6 
#
# 1 75.2999 29.9221 28.2832 0.0000 0.0000 0.0000
# 2 29.9221 75.3024 28.2838 0.0000 0.0000 0.0000
# 3 28.2832 28.2838 80.2161 0.0000 0.0000 0.0000
# 4 0.0000 0.0000 0.0000 20.6546 0.0000 0.0000
# 5 0.0000 0.0000 0.0000 0.0000 20.6531 0.0000
# 6 0.0000 0.0000 0.0000 0.0000 0.0000 32.8712
#
#
#
# Elastic Compliance Matrix: (Units=1/GPa)
#
#
# Indices 1 2 3 4 5 6 
#
# 1 0.016882 -0.005155 -0.004135 0.000000 0.000000 0.000000
# 2 -0.005155 0.016881 -0.004135 0.000000 0.000000 0.000000
# 3 -0.004135 -0.004135 0.015382 0.000000 0.000000 0.000000
# 4 0.000000 0.000000 0.000000 0.048415 0.000000 0.000000
# 5 0.000000 0.000000 0.000000 0.000000 0.048419 0.000000
# 6 0.000000 0.000000 0.000000 0.000000 0.000000 0.030422
#
#
# Mechanical properties :
#
#
# Convention : Reuss Voigt Hill
#
# Bulk Modulus (GPa) = 44.85063 44.86628 44.85846
# Shear Modulus (GPa) = 23.73251 24.45775 24.09513
#
# Velocity S-wave (km/s) = 3.61702 3.67187 3.64455
# Velocity P-wave (km/s) = 6.49371 6.53528 6.51453
#
# Compressibility (1/GPa) = 0.02229623
#
# Stress axis : x y z
#
# Youngs Moduli (GPa) = 59.23569 59.23754 65.01119
#
# Poissons Ratio (x) = 0.30538 0.26880
# Poissons Ratio (y) = 0.30537 0.26879
# Poissons Ratio (z) = 0.24492 0.24492
#
# Static dielectric constant tensor:
#      x y z
#    x 1.624670 0.000000 0.000000 
#    y 0.000000 1.624670 0.000000 
#    z 0.000000 0.000000 1.744230 
# 
# From -- ./inp_files/1247.got.cif
#   From: 2010.05.17/outbox.cif.g08.bks.cpg/sg91_1_cif.got.tgz:1247.got - 2010.06.03 19:20:03.
