data_PCOD9547230
_publ_section_title
;
Structure prediction by ZEFSAII (Michael W. Deem and Ramdas Pophale) SiO2 
 PCOD9547230
Probable space group: P 4 21 2
;
_chemical_formula_sum "Si O2"
_cell_formula_units_Z 48
_cell_length_a 14.225097
_cell_length_b 14.225097
_cell_length_c 10.445804
_cell_angle_alpha 90.000000
_cell_angle_beta 90.000000
_cell_angle_gamma 90.000000
_cell_volume 2113.743795
_symmetry_space_group_name_H-M "P 4 21 2"
_symmetry_group_IT_number 90
_symmetry_cell_setting 'tetragonal'
loop_
_space_group_symop_operation_xyz
x,y,z
1/2-y,1/2+x,z
-x,-y,z
1/2+y,1/2-x,z
1/2+x,1/2-y,-z
1/2-x,1/2+y,-z
y,x,-z
-y,-x,-z
loop_
_atom_site_type_symbol
_atom_site_label
_atom_site_fract_x
_atom_site_fract_y
_atom_site_fract_z
Si Si1 0.072497 0.232450 0.976463
Si Si2 0.952298 0.098560 0.824291
Si Si3 0.298062 0.138061 0.757695
Si Si4 0.983788 0.233240 0.612778
Si Si5 0.657250 0.188718 0.274386
Si Si6 0.232979 0.950283 0.671655
O O1 0.100338 0.298734 0.857926
O O2 0.977752 0.175139 0.934961
O O3 0.148889 0.148889 0.000000
O O4 0.087627 0.292773 0.103966
O O5 0.002123 0.140242 0.696916
O O6 0.847096 0.080747 0.772786
O O7 0.000000 0.000000 0.856638
O O8 0.237773 0.233147 0.743241
O O9 0.399923 0.170637 0.712738
O O10 0.246117 0.061228 0.674200
O O11 0.909428 0.294523 0.694625
O O12 0.934647 0.213455 0.477879
O O13 0.082922 0.286883 0.614292
#
# Coordination Sequence:
#
# PCOD9547230 Si02
#       6
#     8   8   8   8   8   8
#     4   9  21  43  66  96 134 175 227 282 349 416
#     4  11  23  40  69 106 138 177 236 293 358 412
#     4  11  25  44  65  99 140 184 238 287 358 413
#     4  11  23  40  67  98 141 186 236 285 355 422
#     4  10  22  43  66  97 136 181 236 293 346 420
#     4  12  25  41  67 100 140 192 230 291 353 423
#
# _framework density 22.708521999999999
#
# number of rings (size 3 to 8) (size 9 to 14) (size 15 to 20)
#    0.000    1.333    1.667    4.500    0.000   10.333 
#    3.000    1.667    0.000    4.000    0.000    0.000 
#    0.000    0.000    0.000    0.000    0.000    0.000 
#
# Total GULP energy -267889.304413 kJ/mol
# GULP energy per Si atom -5581.027175 kJ/mol
# Density = 2.265684 g / cm^3
# Si number density = 22.708522 Si / 1000 Ang^3
#
#
#
# Elastic Constant Matrix: (Units=GPa)
#
#
# Indices 1 2 3 4 5 6 
#
# 1 56.8597 30.0845 25.6423 0.0000 0.0000 0.0000
# 2 30.0845 56.8597 25.6423 0.0000 0.0000 0.0000
# 3 25.6423 25.6423 149.4430 0.0000 0.0000 0.0000
# 4 0.0000 0.0000 0.0000 20.7099 0.0000 0.0000
# 5 0.0000 0.0000 0.0000 0.0000 20.7099 0.0000
# 6 0.0000 0.0000 0.0000 0.0000 0.0000 20.8342
#
#
#
# Elastic Compliance Matrix: (Units=1/GPa)
#
#
# Indices 1 2 3 4 5 6 
#
# 1 0.025072 -0.012276 -0.002196 0.000000 0.000000 0.000000
# 2 -0.012276 0.025072 -0.002196 0.000000 0.000000 0.000000
# 3 -0.002196 -0.002196 0.007445 0.000000 0.000000 0.000000
# 4 0.000000 0.000000 0.000000 0.048286 0.000000 0.000000
# 5 0.000000 0.000000 0.000000 0.000000 0.048286 0.000000
# 6 0.000000 0.000000 0.000000 0.000000 0.000000 0.047998
#
#
# Mechanical properties :
#
#
# Convention : Reuss Voigt Hill
#
# Bulk Modulus (GPa) = 41.22749 47.32226 44.27488
# Shear Modulus (GPa) = 20.52719 24.57037 22.54878
#
# Velocity S-wave (km/s) = 3.00982 3.29293 3.15455
# Velocity P-wave (km/s) = 5.50211 5.94492 5.72780
#
# Compressibility (1/GPa) = 0.02425566
#
# Stress axis : x y z
#
# Youngs Moduli (GPa) = 39.88447 39.88447 134.31781
#
# Poissons Ratio (x) = 0.48961 0.29493
# Poissons Ratio (y) = 0.48961 0.29493
# Poissons Ratio (z) = 0.08758 0.08758
#
# Static dielectric constant tensor:
#      x y z
#    x 1.849460 0.000000 0.000000 
#    y 0.000000 1.849460 0.000000 
#    z 0.000000 0.000000 1.974720 
# 
# From -- ./inp_files/2133.got.cif
#   From: 2010.05.17/outbox.cif.g08.bks.cpg/sg90_2_cif.got.tgz:2133.got - 2010.06.03 19:17:45.
