data_PCOD9547930
_publ_section_title
;
Structure prediction by ZEFSAII (Michael W. Deem and Ramdas Pophale) SiO2 
 PCOD9547930
Probable space group: P 41 2 2
;
_chemical_formula_sum "Si O2"
_cell_formula_units_Z 40
_cell_length_a 8.920218
_cell_length_b 8.920218
_cell_length_c 21.729021
_cell_angle_alpha 90.000000
_cell_angle_beta 90.000000
_cell_angle_gamma 90.000000
_cell_volume 1728.984484
_symmetry_space_group_name_H-M "P 41 2 2"
_symmetry_group_IT_number 91
_symmetry_cell_setting 'tetragonal'
loop_
_space_group_symop_operation_xyz
x,y,z
-y,x,1/4+z
-x,-y,1/2+z
y,-x,3/4+z
x,-y,1/2-z
-x,y,-z
y,x,3/4-z
-y,-x,1/4-z
loop_
_atom_site_type_symbol
_atom_site_label
_atom_site_fract_x
_atom_site_fract_y
_atom_site_fract_z
Si Si1 0.921792 0.839023 0.437879
Si Si2 0.665266 0.857582 0.524133
Si Si3 0.493528 0.076799 0.187104
Si Si4 0.144068 0.367525 0.340109
Si Si5 0.626733 0.374561 0.388334
O O1 0.931059 0.931059 0.375000
O O2 0.755979 0.818020 0.462917
O O3 0.964822 0.667367 0.426187
O O4 0.000000 0.897180 0.500000
O O5 0.500000 0.849778 0.500000
O O6 0.680417 0.728751 0.578495
O O7 0.696112 0.036801 0.536350
O O8 0.444767 0.249392 0.184071
O O9 0.449284 0.000000 0.250000
O O10 0.407331 0.992289 0.134450
O O11 0.249835 0.249835 0.375000
O O12 0.243287 0.519974 0.333751
O O13 0.509299 0.509299 0.375000
#
# Coordination Sequence:
#
# PCOD9547930 Si02
#       5
#     8   8   8   8   8
#     4  11  23  42  69  98 128 171 226 279 334 408
#     4  11  23  40  65  95 130 173 224 277 334 400
#     4  10  20  37  62  92 127 171 224 274 325 398
#     4  10  23  41  61  93 133 172 218 279 345 402
#     4  10  20  38  65  94 129 175 226 277 337 408
#
# _framework density 23.134965000000001
#
# number of rings (size 3 to 8) (size 9 to 14) (size 15 to 20)
#    0.000    1.600    0.000    6.600    0.000    2.400 
#    0.000    9.000    0.000    7.200    0.000    0.000 
#    0.000    0.000    0.000    0.000    0.000    0.000 
#
# Total GULP energy -222804.960018 kJ/mol
# GULP energy per Si atom -5570.124000 kJ/mol
# Density = 2.308231 g / cm^3
# Si number density = 23.134965 Si / 1000 Ang^3
#
#
#
# Elastic Constant Matrix: (Units=GPa)
#
#
# Indices 1 2 3 4 5 6 
#
# 1 1240.6100-1103.8470 5.7429 0.0000 0.0000 0.0000
# 2 -1103.8470 1240.6100 5.7429 0.0000 0.0000 0.0000
# 3 5.7429 5.7429 50.0859 0.0000 0.0000 0.0000
# 4 0.0000 0.0000 0.0000 49.0127 0.0000 0.0000
# 5 0.0000 0.0000 0.0000 0.0000 49.0127 0.0000
# 6 0.0000 0.0000 0.0000 0.0000 0.0000 54.8054
#
#
#
# Elastic Compliance Matrix: (Units=1/GPa)
#
#
# Indices 1 2 3 4 5 6 
#
# 1 0.003905 0.003478 -0.000847 0.000000 0.000000 0.000000
# 2 0.003478 0.003905 -0.000847 0.000000 0.000000 0.000000
# 3 -0.000847 -0.000847 0.020160 0.000000 0.000000 0.000000
# 4 0.000000 0.000000 0.000000 0.020403 0.000000 0.000000
# 5 0.000000 0.000000 0.000000 0.000000 0.020403 0.000000
# 6 0.000000 0.000000 0.000000 0.000000 0.000000 0.018246
#
#
# Mechanical properties :
#
#
# Convention : Reuss Voigt Hill
#
# Bulk Modulus (GPa) = 31.70609 38.50929 35.10769
# Shear Modulus (GPa) = 53.21160 272.14395 162.67777
#
# Velocity S-wave (km/s) = 4.80109 10.85765 8.39461
# Velocity P-wave (km/s) = 6.66847 13.18584 10.44832
#
# Compressibility (1/GPa) = 0.03153968
#
# Stress axis : x y z
#
# Youngs Moduli (GPa) = 256.09664 256.09664 49.60356
#
# Poissons Ratio (x) = -0.89077 0.04199
# Poissons Ratio (y) = -0.89077 0.04199
# Poissons Ratio (z) = 0.21680 0.21680
#
# Static dielectric constant tensor:
#      x y z
#    x 1.807720 0.000000 0.000000 
#    y 0.000000 1.807720 0.000000 
#    z 0.000000 0.000000 1.224840 
# 
# From -- ./inp_files/6746.got.cif
#   From: 2010.05.17/outbox.cif.g08.bks.cpg/sg91_4_cif.got.tgz:6746.got - 2010.06.03 19:20:03.
