data_PCOD9547190
_publ_section_title
;
Structure prediction by ZEFSAII (Michael W. Deem and Ramdas Pophale) SiO2 
 PCOD9547190
Probable space group: P 4 21 2
;
_chemical_formula_sum "Si O2"
_cell_formula_units_Z 54
_cell_length_a 15.260859
_cell_length_b 15.260859
_cell_length_c 11.878614
_cell_angle_alpha 90.000000
_cell_angle_beta 90.000000
_cell_angle_gamma 90.000000
_cell_volume 2766.455760
_symmetry_space_group_name_H-M "P 4 21 2"
_symmetry_group_IT_number 90
_symmetry_cell_setting 'tetragonal'
loop_
_space_group_symop_operation_xyz
x,y,z
1/2-y,1/2+x,z
-x,-y,z
1/2+y,1/2-x,z
1/2+x,1/2-y,-z
1/2-x,1/2+y,-z
y,x,-z
-y,-x,-z
loop_
_atom_site_type_symbol
_atom_site_label
_atom_site_fract_x
_atom_site_fract_y
_atom_site_fract_z
Si Si1 0.658769 0.341231 0.000000
Si Si2 0.787132 0.369445 0.816582
Si Si3 0.959914 0.228917 0.520853
Si Si4 0.539232 0.649591 0.920092
Si Si5 0.500000 0.000000 0.982413
Si Si6 0.287970 0.153213 0.447338
Si Si7 0.418506 0.431532 0.330537
Si Si8 0.956435 0.310334 0.939364
O O1 0.681303 0.276977 0.101410
O O2 0.663012 0.436278 0.058653
O O3 0.776384 0.350073 0.686976
O O4 0.884519 0.346301 0.854318
O O5 0.770807 0.469001 0.857453
O O6 0.878270 0.296247 0.522728
O O7 0.954398 0.159699 0.417778
O O8 0.951948 0.164358 0.629677
O O9 0.051950 0.279664 0.515958
O O10 0.563753 0.622502 0.793952
O O11 0.572900 0.572900 0.000000
O O12 0.578563 0.738827 0.972780
O O13 0.503106 0.891946 0.992958
O O14 0.209448 0.209448 0.500000
O O15 0.500000 0.500000 0.338663
#
# Coordination Sequence:
#
# PCOD9547190 Si02
#       8
#     4   8   8   8   2   8   8   8
#     4  10  23  38  54 100 124 171 208 256 348 392
#     4  10  22  38  63  87 129 164 218 273 327 396
#     4  11  26  45  68 102 127 181 228 280 345 397
#     4  11  24  36  63  96 135 169 212 272 335 402
#     4   8  16  40  64  84 136 166 228 260 316 416
#     4  12  25  43  69  98 135 174 230 284 336 412
#     4  11  23  45  70  97 134 177 229 277 344 408
#     4   9  20  39  61  96 121 175 219 272 333 390
#
# _framework density 19.519559999999998
#
# number of rings (size 3 to 8) (size 9 to 14) (size 15 to 20)
#    0.000    1.481    1.481    3.778   11.407    0.296 
#    0.000    2.963    0.000    0.000    0.000    0.000 
#    0.000    0.000    0.000    0.000    0.000    0.000 
#
# Total GULP energy -300778.538078 kJ/mol
# GULP energy per Si atom -5569.972927 kJ/mol
# Density = 1.947513 g / cm^3
# Si number density = 19.519560 Si / 1000 Ang^3
#
#
#
# Elastic Constant Matrix: (Units=GPa)
#
#
# Indices 1 2 3 4 5 6 
#
# 1 92.3777 27.7465 45.0312 0.0000 0.0000 0.0000
# 2 27.7465 92.3774 45.0313 0.0000 0.0000 0.0000
# 3 45.0312 45.0313 144.9599 0.0000 0.0000 0.0000
# 4 0.0000 0.0000 0.0000 25.1661 0.0000 0.0000
# 5 0.0000 0.0000 0.0000 0.0000 25.1664 0.0000
# 6 0.0000 0.0000 0.0000 0.0000 0.0000 21.5469
#
#
#
# Elastic Compliance Matrix: (Units=1/GPa)
#
#
# Indices 1 2 3 4 5 6 
#
# 1 0.013162 -0.002310 -0.003371 0.000000 0.000000 0.000000
# 2 -0.002310 0.013162 -0.003371 0.000000 0.000000 0.000000
# 3 -0.003371 -0.003371 0.008993 0.000000 0.000000 0.000000
# 4 0.000000 0.000000 0.000000 0.039736 0.000000 0.000000
# 5 0.000000 0.000000 0.000000 0.000000 0.039735 0.000000
# 6 0.000000 0.000000 0.000000 0.000000 0.000000 0.046410
#
#
# Mechanical properties :
#
#
# Convention : Reuss Voigt Hill
#
# Bulk Modulus (GPa) = 58.09678 62.81480 60.45579
# Shear Modulus (GPa) = 27.02087 28.50295 27.76191
#
# Velocity S-wave (km/s) = 3.72465 3.82543 3.77538
# Velocity P-wave (km/s) = 6.95164 7.19460 7.07416
#
# Compressibility (1/GPa) = 0.01721266
#
# Stress axis : x y z
#
# Youngs Moduli (GPa) = 75.97433 75.97400 111.19786
#
# Poissons Ratio (x) = 0.17551 0.37487
# Poissons Ratio (y) = 0.17551 0.37487
# Poissons Ratio (z) = 0.25613 0.25613
#
# Static dielectric constant tensor:
#      x y z
#    x 1.716430 0.000000 0.000000 
#    y 0.000000 1.716430 0.000000 
#    z 0.000000 0.000000 2.276580 
# 
# From -- ./inp_files/2292.got.cif
#   From: 2010.05.17/outbox.cif.g08.bks.cpg/sg90_2_cif.got.tgz:2292.got - 2010.06.03 19:17:45.
