data_PCOD9547002
_publ_section_title
;
Structure prediction by ZEFSAII (Michael W. Deem and Ramdas Pophale) SiO2 
 PCOD9547002
Probable space group: P 4 2 2
;
_chemical_formula_sum "Si O2"
_cell_formula_units_Z 36
_cell_length_a 14.814896
_cell_length_b 14.814896
_cell_length_c 8.511188
_cell_angle_alpha 90.000000
_cell_angle_beta 90.000000
_cell_angle_gamma 90.000000
_cell_volume 1868.045275
_symmetry_space_group_name_H-M "P 4 2 2"
_symmetry_group_IT_number 89
_symmetry_cell_setting 'tetragonal'
loop_
_space_group_symop_operation_xyz
x,y,z
-y,x,z
-x,-y,z
y,-x,z
x,-y,-z
-x,y,-z
y,x,-z
-y,-x,-z
loop_
_atom_site_type_symbol
_atom_site_label
_atom_site_fract_x
_atom_site_fract_y
_atom_site_fract_z
Si Si1 0.000000 0.272882 0.000000
Si Si2 0.500000 0.217448 0.000000
Si Si3 0.416864 0.066103 0.769564
Si Si4 0.336119 0.280929 0.228758
Si Si5 0.774565 0.600377 0.442837
Si Si6 0.804799 0.804799 0.000000
O O1 0.090353 0.215891 0.000617
O O2 0.991854 0.339261 0.850821
O O3 0.553126 0.146572 0.110881
O O4 0.423458 0.270802 0.108688
O O5 0.388840 0.124866 0.621814
O O6 0.500000 0.000000 0.739596
O O7 0.299743 0.374692 0.307510
O O8 0.349374 0.228895 0.391405
O O9 0.249953 0.239533 0.143037
O O10 0.755650 0.500000 0.500000
#
# Coordination Sequence:
#
# PCOD9547002 Si02
#       6
#     4   4   8   8   8   4
#     4  12  23  41  70  98 136 182 240 288 348 422
#     4  12  19  38  68 102 129 184 238 279 342 421
#     4  12  21  39  65 106 141 168 232 303 353 408
#     4  11  23  42  68  98 144 189 227 286 358 421
#     4  11  24  41  63 106 143 183 223 287 362 426
#     4  12  24  45  68  98 135 188 238 286 354 426
#
# _framework density 19.271481000000001
#
# number of rings (size 3 to 8) (size 9 to 14) (size 15 to 20)
#    0.000    0.444    8.889    0.000    0.000    0.667 
#    0.000    0.000    0.000    5.333   11.556    0.000 
#    0.000    0.000    0.000    0.000    0.000    0.000 
#
# Total GULP energy -200577.480136 kJ/mol
# GULP energy per Si atom -5571.596670 kJ/mol
# Density = 1.922762 g / cm^3
# Si number density = 19.271481 Si / 1000 Ang^3
#
#
#
# Elastic Constant Matrix: (Units=GPa)
#
#
# Indices 1 2 3 4 5 6 
#
# 1 116.7611 49.9840 45.3094 0.0000 0.0000 0.0000
# 2 49.9840 116.7611 45.3094 0.0000 0.0000 0.0000
# 3 45.3094 45.3094 95.2116 0.0000 0.0000 0.0000
# 4 0.0000 0.0000 0.0000 41.0271 0.0000 0.0000
# 5 0.0000 0.0000 0.0000 0.0000 41.0271 0.0000
# 6 0.0000 0.0000 0.0000 0.0000 0.0000 43.2522
#
#
#
# Elastic Compliance Matrix: (Units=1/GPa)
#
#
# Indices 1 2 3 4 5 6 
#
# 1 0.011532 -0.003443 -0.003850 0.000000 0.000000 0.000000
# 2 -0.003443 0.011532 -0.003850 0.000000 0.000000 0.000000
# 3 -0.003850 -0.003850 0.014167 0.000000 0.000000 0.000000
# 4 0.000000 0.000000 0.000000 0.024374 0.000000 0.000000
# 5 0.000000 0.000000 0.000000 0.000000 0.024374 0.000000
# 6 0.000000 0.000000 0.000000 0.000000 0.000000 0.023120
#
#
# Mechanical properties :
#
#
# Convention : Reuss Voigt Hill
#
# Bulk Modulus (GPa) = 66.90241 67.77106 67.33673
# Shear Modulus (GPa) = 36.66601 37.60333 37.13467
#
# Velocity S-wave (km/s) = 4.36662 4.42208 4.39444
# Velocity P-wave (km/s) = 7.75978 7.83045 7.79520
#
# Compressibility (1/GPa) = 0.01494715
#
# Stress axis : x y z
#
# Youngs Moduli (GPa) = 86.71363 86.71363 70.58783
#
# Poissons Ratio (x) = 0.29855 0.27173
# Poissons Ratio (y) = 0.29855 0.27173
# Poissons Ratio (z) = 0.33381 0.33381
#
# Static dielectric constant tensor:
#      x y z
#    x 1.701560 0.000000 0.000000 
#    y 0.000000 1.701560 0.000000 
#    z 0.000000 0.000000 1.674980 
# 
# From -- ./inp_files/962.got.cif
#   From: 2010.05.17/outbox.cif.g08.bks.cpg/sg89_1_cif.got.tgz:962.got - 2010.06.03 19:15:31.
