data_PCOD9547981
_publ_section_title
;
Structure prediction by ZEFSAII (Michael W. Deem and Ramdas Pophale) SiO2 
 PCOD9547981
Probable space group: P 41 2 2
;
_chemical_formula_sum "Si O2"
_cell_formula_units_Z 44
_cell_length_a 11.044841
_cell_length_b 11.044841
_cell_length_c 18.504299
_cell_angle_alpha 90.000000
_cell_angle_beta 90.000000
_cell_angle_gamma 90.000000
_cell_volume 2257.311914
_symmetry_space_group_name_H-M "P 41 2 2"
_symmetry_group_IT_number 91
_symmetry_cell_setting 'tetragonal'
loop_
_space_group_symop_operation_xyz
x,y,z
-y,x,1/4+z
-x,-y,1/2+z
y,-x,3/4+z
x,-y,1/2-z
-x,y,-z
y,x,3/4-z
-y,-x,1/4-z
loop_
_atom_site_type_symbol
_atom_site_label
_atom_site_fract_x
_atom_site_fract_y
_atom_site_fract_z
Si Si1 0.777388 0.702436 0.676267
Si Si2 0.422328 0.586569 0.430780
Si Si3 0.500000 0.935384 0.000000
Si Si4 0.568904 0.795655 0.759445
Si Si5 0.403556 0.982411 0.359264
Si Si6 0.950683 0.878812 0.080798
O O1 0.670801 0.669198 0.618092
O O2 0.848679 0.587995 0.705011
O O3 0.707344 0.759142 0.745146
O O4 0.873816 0.806068 0.655591
O O5 0.500000 0.637677 0.500000
O O6 0.510347 0.510347 0.375000
O O7 0.326593 0.498813 0.471104
O O8 0.433303 0.018458 0.057543
O O9 0.539010 0.872561 0.686917
O O10 0.554109 0.893049 0.822346
O O11 0.259246 0.983457 0.351051
O O12 0.019881 0.980120 0.125000
O O13 0.000000 0.894922 0.000000
#
# Coordination Sequence:
#
# PCOD9547981 Si02
#       6
#     8   8   4   8   8   8
#     4  11  22  38  62  99 128 166 226 268 329 391
#     4  12  23  37  63  95 139 179 217 264 326 402
#     4  12  22  36  68  98 122 168 218 278 324 404
#     4  10  20  39  55  89 129 166 207 270 325 382
#     4  10  21  37  62  92 125 160 214 281 332 376
#     4  11  22  42  67  91 125 167 219 282 330 386
#
# _framework density 19.49221
#
# number of rings (size 3 to 8) (size 9 to 14) (size 15 to 20)
#    0.000    1.091    7.273    2.182    0.000    0.000 
#    6.545    1.818    0.000    1.091    0.000    0.000 
#    0.000    0.000    0.000    0.000    0.000    0.000 
#
# Total GULP energy -244994.571353 kJ/mol
# GULP energy per Si atom -5568.058440 kJ/mol
# Density = 1.944784 g / cm^3
# Si number density = 19.492210 Si / 1000 Ang^3
#
#
#
# Elastic Constant Matrix: (Units=GPa)
#
#
# Indices 1 2 3 4 5 6 
#
# 1 72.8205 25.5250 59.9302 0.0000 0.0000 0.0000
# 2 25.5250 72.8225 59.9285 0.0000 0.0000 0.0000
# 3 59.9302 59.9285 116.3531 0.0000 0.0000 0.0000
# 4 0.0000 0.0000 0.0000 -2.0521 0.0000 0.0000
# 5 0.0000 0.0000 0.0000 0.0000 -2.0374 0.0000
# 6 0.0000 0.0000 0.0000 0.0000 0.0000 29.9701
#
#
#
# Elastic Compliance Matrix: (Units=1/GPa)
#
#
# Indices 1 2 3 4 5 6 
#
# 1 0.024230 0.003085 -0.014069 0.000000 0.000000 0.000000
# 2 0.003085 0.024227 -0.014068 0.000000 0.000000 0.000000
# 3 -0.014069 -0.014068 0.023087 0.000000 0.000000 0.000000
# 4 0.000000 0.000000 0.000000 -0.487302 0.000000 0.000000
# 5 0.000000 0.000000 0.000000 0.000000 -0.490827 0.000000
# 6 0.000000 0.000000 0.000000 0.000000 0.000000 0.033367
#
#
# Mechanical properties :
#
#
# Convention : Reuss Voigt Hill
#
# Bulk Modulus (GPa) = 46.63987 61.41816 54.02901
# Shear Modulus (GPa) = -6.12769 12.95028 3.41129
#
# Velocity S-wave (km/s) = -1.77496 2.58036 1.32434
# Velocity P-wave (km/s) = 4.44733 6.36044 5.48789
#
# Compressibility (1/GPa) = 0.02144088
#
# Stress axis : x y z
#
# Youngs Moduli (GPa) = 41.27183 41.27557 43.31487
#
# Poissons Ratio (x) = -0.12735 0.60940
# Poissons Ratio (y) = -0.12734 0.60934
# Poissons Ratio (z) = 0.58066 0.58065
#
# Static dielectric constant tensor:
#      x y z
#    x 1.729610 0.000000 0.000000 
#    y 0.000000 1.729610 0.000000 
#    z 0.000000 0.000000 1.701110 
# 
# From -- ./inp_files/5499.got.cif
#   From: 2010.05.17/outbox.cif.g08.bks.cpg/sg91_3_cif.got.tgz:5499.got - 2010.06.03 19:20:03.
