data_PCOD9547387
_publ_section_title
;
Structure prediction by ZEFSAII (Michael W. Deem and Ramdas Pophale) SiO2 
 PCOD9547387
Probable space group: P 4 21 2
;
_chemical_formula_sum "Si O2"
_cell_formula_units_Z 28
_cell_length_a 7.951528
_cell_length_b 7.951528
_cell_length_c 20.070782
_cell_angle_alpha 90.000000
_cell_angle_beta 90.000000
_cell_angle_gamma 90.000000
_cell_volume 1269.011270
_symmetry_space_group_name_H-M "P 4 21 2"
_symmetry_group_IT_number 90
_symmetry_cell_setting 'tetragonal'
loop_
_space_group_symop_operation_xyz
x,y,z
1/2-y,1/2+x,z
-x,-y,z
1/2+y,1/2-x,z
1/2+x,1/2-y,-z
1/2-x,1/2+y,-z
y,x,-z
-y,-x,-z
loop_
_atom_site_type_symbol
_atom_site_label
_atom_site_fract_x
_atom_site_fract_y
_atom_site_fract_z
Si Si1 0.597963 0.267105 0.212063
Si Si2 0.765811 0.097544 0.568669
Si Si3 0.732288 0.408924 0.934023
Si Si4 0.000000 0.000000 0.678732
O O1 0.402965 0.206406 0.216214
O O2 0.625398 0.346014 0.138684
O O3 0.620688 0.394841 0.272292
O O4 0.596938 0.207855 0.571395
O O5 0.857973 0.142028 0.500000
O O6 0.892129 0.119486 0.630275
O O7 0.795712 0.599792 0.935681
O O8 0.630632 0.369369 0.000000
#
# Coordination Sequence:
#
# PCOD9547387 Si02
#       4
#     8   8   8   4
#     4   9  20  37  55  80 115 152 190 234 287 348
#     4  11  24  42  64  91 122 155 196 245 295 353
#     4   9  19  35  54  78 108 143 188 237 283 337
#     4  12  21  36  61  88 116 152 194 238 289 346
#
# _framework density 22.064423999999999
#
# number of rings (size 3 to 8) (size 9 to 14) (size 15 to 20)
#    0.000    2.000    0.000    5.571    0.000    5.143 
#    0.000    2.857    0.000    3.429    0.000    0.000 
#    0.000    0.000    0.000    0.000    0.000    0.000 
#
# Total GULP energy -156551.083810 kJ/mol
# GULP energy per Si atom -5591.110136 kJ/mol
# Density = 2.201420 g / cm^3
# Si number density = 22.064424 Si / 1000 Ang^3
#
#
#
# Elastic Constant Matrix: (Units=GPa)
#
#
# Indices 1 2 3 4 5 6 
#
# 1 42.9733 7.5914 37.8580 0.0000 0.0000 0.0000
# 2 7.5914 42.9734 37.8577 0.0000 0.0000 0.0000
# 3 37.8580 37.8577 210.3576 0.0000 0.0000 0.0000
# 4 0.0000 0.0000 0.0000 34.1575 0.0000 0.0000
# 5 0.0000 0.0000 0.0000 0.0000 34.1568 0.0000
# 6 0.0000 0.0000 0.0000 0.0000 0.0000 27.9599
#
#
#
# Elastic Compliance Matrix: (Units=1/GPa)
#
#
# Indices 1 2 3 4 5 6 
#
# 1 0.027668 -0.000595 -0.004872 0.000000 0.000000 0.000000
# 2 -0.000595 0.027668 -0.004872 0.000000 0.000000 0.000000
# 3 -0.004872 -0.004872 0.006507 0.000000 0.000000 0.000000
# 4 0.000000 0.000000 0.000000 0.029276 0.000000 0.000000
# 5 0.000000 0.000000 0.000000 0.000000 0.029277 0.000000
# 6 0.000000 0.000000 0.000000 0.000000 0.000000 0.035766
#
#
# Mechanical properties :
#
#
# Convention : Reuss Voigt Hill
#
# Bulk Modulus (GPa) = 24.29350 51.43537 37.86444
# Shear Modulus (GPa) = 26.23821 33.45464 29.84643
#
# Velocity S-wave (km/s) = 3.45217 3.89810 3.68189
# Velocity P-wave (km/s) = 5.18884 6.60472 5.93912
#
# Compressibility (1/GPa) = 0.04116327
#
# Stress axis : x y z
#
# Youngs Moduli (GPa) = 36.14321 36.14343 153.66919
#
# Poissons Ratio (x) = 0.02152 0.74871
# Poissons Ratio (y) = 0.02152 0.74869
# Poissons Ratio (z) = 0.17610 0.17610
#
# Static dielectric constant tensor:
#      x y z
#    x 2.015830 0.000000 0.000000 
#    y 0.000000 2.015860 0.000000 
#    z 0.000000 0.000000 1.809850 
# 
# From -- ./inp_files/2593.got.cif
#   From: 2010.05.17/outbox.cif.g08.bks.cpg/sg90_2_cif.got.tgz:2593.got - 2010.06.03 19:17:45.
