data_PCOD9547121
_publ_section_title
;
Structure prediction by ZEFSAII (Michael W. Deem and Ramdas Pophale) SiO2 
 PCOD9547121
Probable space group: P 4 21 2
;
_chemical_formula_sum "Si O2"
_cell_formula_units_Z 60
_cell_length_a 12.008967
_cell_length_b 12.008967
_cell_length_c 21.186144
_cell_angle_alpha 90.000000
_cell_angle_beta 90.000000
_cell_angle_gamma 90.000000
_cell_volume 3055.365867
_symmetry_space_group_name_H-M "P 4 21 2"
_symmetry_group_IT_number 90
_symmetry_cell_setting 'tetragonal'
loop_
_space_group_symop_operation_xyz
x,y,z
1/2-y,1/2+x,z
-x,-y,z
1/2+y,1/2-x,z
1/2+x,1/2-y,-z
1/2-x,1/2+y,-z
y,x,-z
-y,-x,-z
loop_
_atom_site_type_symbol
_atom_site_label
_atom_site_fract_x
_atom_site_fract_y
_atom_site_fract_z
Si Si1 0.163720 0.427511 0.571516
Si Si2 0.179213 0.536119 0.907669
Si Si3 0.271892 0.381135 0.700896
Si Si4 0.503227 0.629161 0.632056
Si Si5 0.173816 0.135250 0.269875
Si Si6 0.580886 0.394685 0.858414
Si Si7 0.887134 0.112867 0.500000
Si Si8 0.971924 0.681089 0.059304
O O1 0.141054 0.555051 0.554867
O O2 0.186263 0.412420 0.645172
O O3 0.273864 0.391631 0.537625
O O4 0.126837 0.415861 0.891570
O O5 0.295040 0.565271 0.876026
O O6 0.195343 0.534712 0.983596
O O7 0.384443 0.331830 0.667798
O O8 0.298101 0.502307 0.730586
O O9 0.209828 0.284064 0.739067
O O10 0.500000 0.500000 0.649725
O O11 0.388611 0.669956 0.664322
O O12 0.519353 0.624475 0.555826
O O13 0.087721 0.151062 0.212865
O O14 0.500000 0.500000 0.862401
O O15 0.544957 0.296240 0.905084
O O16 0.876637 0.590095 0.075032
#
# Coordination Sequence:
#
# PCOD9547121 Si02
#       8
#     8   8   8   8   8   8   4   8
#     4  10  20  37  57  85 119 148 200 254 302 374
#     4   9  21  42  64  94 133 170 214 272 332 381
#     4  10  20  39  62  82 114 165 196 246 320 365
#     4   9  20  39  56  85 119 154 199 248 304 373
#     4  11  24  39  62  87 126 161 209 259 309 387
#     4  12  26  38  62  97 131 169 218 272 318 384
#     4  10  21  34  62  89 112 162 198 246 319 372
#     4   9  21  43  68  90 125 175 220 269 325 380
#
# _framework density 19.637581999999998
#
# number of rings (size 3 to 8) (size 9 to 14) (size 15 to 20)
#    0.000    2.000    1.333    2.600    3.733    4.533 
#    0.000    0.000    0.000    0.400    0.000    0.000 
#    0.000    0.000    0.000    0.000    0.000    0.000 
#
# Total GULP energy -334502.585013 kJ/mol
# GULP energy per Si atom -5575.043084 kJ/mol
# Density = 1.959289 g / cm^3
# Si number density = 19.637582 Si / 1000 Ang^3
#
#
#
# Elastic Constant Matrix: (Units=GPa)
#
#
# Indices 1 2 3 4 5 6 
#
# 1 70.6929 36.5060 30.8520 0.0000 0.0000 0.0000
# 2 36.5060 70.6924 30.8522 0.0000 0.0000 0.0000
# 3 30.8520 30.8522 59.2989 0.0000 0.0000 0.0000
# 4 0.0000 0.0000 0.0000 19.7539 0.0000 0.0000
# 5 0.0000 0.0000 0.0000 0.0000 19.7540 0.0000
# 6 0.0000 0.0000 0.0000 0.0000 0.0000 35.3957
#
#
#
# Elastic Compliance Matrix: (Units=1/GPa)
#
#
# Indices 1 2 3 4 5 6 
#
# 1 0.021284 -0.007967 -0.006928 0.000000 0.000000 0.000000
# 2 -0.007967 0.021284 -0.006928 0.000000 0.000000 0.000000
# 3 -0.006928 -0.006928 0.024073 0.000000 0.000000 0.000000
# 4 0.000000 0.000000 0.000000 0.050623 0.000000 0.000000
# 5 0.000000 0.000000 0.000000 0.000000 0.050623 0.000000
# 6 0.000000 0.000000 0.000000 0.000000 0.000000 0.028252
#
#
# Mechanical properties :
#
#
# Convention : Reuss Voigt Hill
#
# Bulk Modulus (GPa) = 43.49197 44.12273 43.80735
# Shear Modulus (GPa) = 20.20608 21.81232 21.00920
#
# Velocity S-wave (km/s) = 3.21120 3.33640 3.27440
# Velocity P-wave (km/s) = 5.99537 6.11223 6.05408
#
# Compressibility (1/GPa) = 0.02299275
#
# Stress axis : x y z
#
# Youngs Moduli (GPa) = 46.98439 46.98380 41.54025
#
# Poissons Ratio (x) = 0.37434 0.28780
# Poissons Ratio (y) = 0.37434 0.28781
# Poissons Ratio (z) = 0.32552 0.32552
#
# Static dielectric constant tensor:
#      x y z
#    x 1.697970 0.000000 0.000000 
#    y 0.000000 1.697970 0.000000 
#    z 0.000000 0.000000 1.712740 
# 
# From -- ./inp_files/2846.got.cif
#   From: 2010.05.17/outbox.cif.g08.bks.cpg/sg90_2_cif.got.tgz:2846.got - 2010.06.03 19:17:45.
