data_PCOD9547260
_publ_section_title
;
Structure prediction by ZEFSAII (Michael W. Deem and Ramdas Pophale) SiO2 
 PCOD9547260
Probable space group: P 4 21 2
;
_chemical_formula_sum "Si O2"
_cell_formula_units_Z 42
_cell_length_a 14.820867
_cell_length_b 14.820867
_cell_length_c 7.612760
_cell_angle_alpha 90.000000
_cell_angle_beta 90.000000
_cell_angle_gamma 90.000000
_cell_volume 1672.204387
_symmetry_space_group_name_H-M "P 4 21 2"
_symmetry_group_IT_number 90
_symmetry_cell_setting 'tetragonal'
loop_
_space_group_symop_operation_xyz
x,y,z
1/2-y,1/2+x,z
-x,-y,z
1/2+y,1/2-x,z
1/2+x,1/2-y,-z
1/2-x,1/2+y,-z
y,x,-z
-y,-x,-z
loop_
_atom_site_type_symbol
_atom_site_label
_atom_site_fract_x
_atom_site_fract_y
_atom_site_fract_z
Si Si1 0.415983 0.250769 0.314178
Si Si2 0.089109 0.691898 0.301112
Si Si3 0.907469 0.968176 0.192863
Si Si4 0.287087 0.705937 0.707745
Si Si5 0.507356 0.850578 0.026030
Si Si6 0.000000 0.500000 0.385626
O O1 0.417376 0.255025 0.525493
O O2 0.444866 0.343535 0.222646
O O3 0.319956 0.210561 0.253018
O O4 0.488421 0.184327 0.223773
O O5 0.192980 0.683810 0.239738
O O6 0.027276 0.718403 0.133238
O O7 0.054848 0.596410 0.374248
O O8 0.846365 0.880260 0.240489
O O9 0.939206 0.939206 0.000000
O O10 0.000000 0.000000 0.286606
O O11 0.293756 0.706245 0.500000
O O12 0.420614 0.910909 0.999950
#
# Coordination Sequence:
#
# PCOD9547260 Si02
#       6
#     8   8   8   8   8   2
#     4  11  27  48  76 107 150 205 257 331 402 468
#     4  11  25  44  70 108 157 191 259 324 399 478
#     4  11  28  53  78 114 159 214 273 333 413 501
#     4  10  26  49  74 113 150 207 266 326 401 494
#     4  11  23  38  69 113 148 194 247 309 396 476
#     4  12  24  40  70 108 148 194 240 344 394 476
#
# _framework density 25.116546
#
# number of rings (size 3 to 8) (size 9 to 14) (size 15 to 20)
#    0.000    1.143    1.905    1.143   13.333    4.952 
#    6.857    0.000    0.000    0.000    0.000    0.000 
#    0.000    0.000    0.000    0.000    0.000    0.000 
#
# Total GULP energy -233895.935682 kJ/mol
# GULP energy per Si atom -5568.950850 kJ/mol
# Density = 2.505938 g / cm^3
# Si number density = 25.116546 Si / 1000 Ang^3
#
#
#
# Elastic Constant Matrix: (Units=GPa)
#
#
# Indices 1 2 3 4 5 6 
#
# 1 172.4251 -19.2538 31.4816 0.0000 0.0000 0.0000
# 2 -19.2538 172.4236 31.4822 0.0000 0.0000 0.0000
# 3 31.4816 31.4822 95.5927 0.0000 0.0000 0.0000
# 4 0.0000 0.0000 0.0000 41.9747 0.0000 0.0000
# 5 0.0000 0.0000 0.0000 0.0000 41.9757 0.0000
# 6 0.0000 0.0000 0.0000 0.0000 0.0000 61.8493
#
#
#
# Elastic Compliance Matrix: (Units=1/GPa)
#
#
# Indices 1 2 3 4 5 6 
#
# 1 0.006384 0.001167 -0.002487 0.000000 0.000000 0.000000
# 2 0.001167 0.006384 -0.002487 0.000000 0.000000 0.000000
# 3 -0.002487 -0.002487 0.012099 0.000000 0.000000 0.000000
# 4 0.000000 0.000000 0.000000 0.023824 0.000000 0.000000
# 5 0.000000 0.000000 0.000000 0.000000 0.023823 0.000000
# 6 0.000000 0.000000 0.000000 0.000000 0.000000 0.016168
#
#
# Mechanical properties :
#
#
# Convention : Reuss Voigt Hill
#
# Bulk Modulus (GPa) = 57.95843 58.65126 58.30484
# Shear Modulus (GPa) = 48.99701 55.60868 52.30285
#
# Velocity S-wave (km/s) = 4.42156 4.71045 4.56829
# Velocity P-wave (km/s) = 7.01376 7.27920 7.14771
#
# Compressibility (1/GPa) = 0.01725374
#
# Stress axis : x y z
#
# Youngs Moduli (GPa) = 156.64267 156.64084 82.65140
#
# Poissons Ratio (x) = -0.18279 0.20553
# Poissons Ratio (y) = -0.18279 0.20554
# Poissons Ratio (z) = 0.38953 0.38953
#
# Static dielectric constant tensor:
#      x y z
#    x 1.976390 0.000000 0.000000 
#    y 0.000000 1.976380 0.000000 
#    z 0.000000 0.000000 2.183740 
# 
# From -- ./inp_files/1375.got.cif
#   From: 2010.05.17/outbox.cif.g08.bks.cpg/sg90_1_cif.got.tgz:1375.got - 2010.06.03 19:17:45.
