data_PCOD9547833
_publ_section_title
;
Structure prediction by ZEFSAII (Michael W. Deem and Ramdas Pophale) SiO2 
 PCOD9547833
Probable space group: P 41 2 2
;
_chemical_formula_sum "Si O2"
_cell_formula_units_Z 48
_cell_length_a 7.735016
_cell_length_b 7.735016
_cell_length_c 37.633127
_cell_angle_alpha 90.000000
_cell_angle_beta 90.000000
_cell_angle_gamma 90.000000
_cell_volume 2251.607771
_symmetry_space_group_name_H-M "P 41 2 2"
_symmetry_group_IT_number 91
_symmetry_cell_setting 'tetragonal'
loop_
_space_group_symop_operation_xyz
x,y,z
-y,x,1/4+z
-x,-y,1/2+z
y,-x,3/4+z
x,-y,1/2-z
-x,y,-z
y,x,3/4-z
-y,-x,1/4-z
loop_
_atom_site_type_symbol
_atom_site_label
_atom_site_fract_x
_atom_site_fract_y
_atom_site_fract_z
Si Si1 0.398608 0.003344 0.578713
Si Si2 0.970419 0.646171 0.040417
Si Si3 0.342041 0.011772 0.840358
Si Si4 0.671115 0.445460 0.790232
Si Si5 0.036344 0.967758 0.709170
Si Si6 0.435028 0.628877 0.587641
O O1 0.332541 0.042932 0.618672
O O2 0.236262 0.973140 0.551846
O O3 0.499811 0.823675 0.583269
O O4 0.501469 0.163830 0.563026
O O5 0.042202 0.514495 0.069471
O O6 0.762792 0.659802 0.044079
O O7 0.038305 0.841402 0.044299
O O8 0.000000 0.585330 0.000000
O O9 0.175334 0.956929 0.818019
O O10 0.349685 0.223780 0.838834
O O11 0.692087 0.500000 0.750000
O O12 0.490412 0.504372 0.806556
O O13 0.089094 0.000000 0.750000
O O14 0.465815 0.534186 0.625000
#
# Coordination Sequence:
#
# PCOD9547833 Si02
#       6
#     8   8   8   8   8   8
#     4   9  18  33  55  76 108 143 181 231 273 329
#     4   9  18  33  54  75 111 142 176 225 275 328
#     4   9  16  31  56  78 104 145 184 222 277 331
#     4  10  20  34  54  76 109 143 174 224 279 323
#     4   9  16  28  53  81 109 141 180 226 275 333
#     4   8  16  33  55  74 103 143 181 221 271 327
#
# _framework density 21.318103000000001
#
# number of rings (size 3 to 8) (size 9 to 14) (size 15 to 20)
#    0.000    3.000    0.000    2.000    0.000    0.667 
#    3.000    0.000   58.667    0.000    0.000    0.000 
#    0.000    0.000    0.000    0.000    0.000    0.000 
#
# Total GULP energy -267608.587659 kJ/mol
# GULP energy per Si atom -5575.178910 kJ/mol
# Density = 2.126958 g / cm^3
# Si number density = 21.318103 Si / 1000 Ang^3
#
#
#
# Elastic Constant Matrix: (Units=GPa)
#
#
# Indices 1 2 3 4 5 6 
#
# 1 50.3079 7.9672 37.8078 0.0000 0.0000 0.0000
# 2 7.9672 50.3079 37.8078 0.0000 0.0000 0.0000
# 3 37.8078 37.8078 161.9683 0.0000 0.0000 0.0000
# 4 0.0000 0.0000 0.0000 32.6544 0.0000 0.0000
# 5 0.0000 0.0000 0.0000 0.0000 32.6543 0.0000
# 6 0.0000 0.0000 0.0000 0.0000 0.0000 -2.8272
#
#
#
# Elastic Compliance Matrix: (Units=1/GPa)
#
#
# Indices 1 2 3 4 5 6 
#
# 1 0.024117 0.000499 -0.005746 0.000000 0.000000 0.000000
# 2 0.000499 0.024117 -0.005746 0.000000 0.000000 0.000000
# 3 -0.005746 -0.005746 0.008857 0.000000 0.000000 0.000000
# 4 0.000000 0.000000 0.000000 0.030624 0.000000 0.000000
# 5 0.000000 0.000000 0.000000 0.000000 0.030624 0.000000
# 6 0.000000 0.000000 0.000000 0.000000 0.000000 -0.353702
#
#
# Mechanical properties :
#
#
# Convention : Reuss Voigt Hill
#
# Bulk Modulus (GPa) = 28.48668 47.74997 38.11832
# Shear Modulus (GPa) = -24.79217 24.42971 -0.18123
#
# Velocity S-wave (km/s) = -3.41392 3.38888 -0.29189
# Velocity P-wave (km/s) = 1.46566 6.14492 4.21971
#
# Compressibility (1/GPa) = 0.03510413
#
# Stress axis : x y z
#
# Youngs Moduli (GPa) = 41.46482 41.46483 112.91041
#
# Poissons Ratio (x) = -0.02069 0.64878
# Poissons Ratio (y) = -0.02069 0.64878
# Poissons Ratio (z) = 0.23826 0.23826
#
# Static dielectric constant tensor:
#      x y z
#    x 1.817140 0.000000 0.000000 
#    y 0.000000 1.817140 0.000000 
#    z 0.000000 0.000000 1.729080 
# 
# From -- ./inp_files/7987.got.cif
#   From: 2010.05.17/outbox.cif.g08.bks.cpg/sg91_4_cif.got.tgz:7987.got - 2010.06.03 19:20:03.
