data_PCOD9547299
_publ_section_title
;
Structure prediction by ZEFSAII (Michael W. Deem and Ramdas Pophale) SiO2 
 PCOD9547299
Probable space group: P 4 21 2
;
_chemical_formula_sum "Si O2"
_cell_formula_units_Z 50
_cell_length_a 8.543505
_cell_length_b 8.543505
_cell_length_c 32.490729
_cell_angle_alpha 90.000000
_cell_angle_beta 90.000000
_cell_angle_gamma 90.000000
_cell_volume 2371.546321
_symmetry_space_group_name_H-M "P 4 21 2"
_symmetry_group_IT_number 90
_symmetry_cell_setting 'tetragonal'
loop_
_space_group_symop_operation_xyz
x,y,z
1/2-y,1/2+x,z
-x,-y,z
1/2+y,1/2-x,z
1/2+x,1/2-y,-z
1/2-x,1/2+y,-z
y,x,-z
-y,-x,-z
loop_
_atom_site_type_symbol
_atom_site_label
_atom_site_fract_x
_atom_site_fract_y
_atom_site_fract_z
Si Si1 0.611507 0.759164 0.867556
Si Si2 0.500000 0.000000 0.960380
Si Si3 0.750704 0.085140 0.300426
Si Si4 0.746780 0.093789 0.208623
Si Si5 0.920589 0.247730 0.464574
Si Si6 0.916402 0.167853 0.043807
Si Si7 0.919568 0.248237 0.372090
O O1 0.427076 0.801518 0.866480
O O2 0.648966 0.652220 0.828671
O O3 0.658761 0.679165 0.910678
O O4 0.536604 0.187026 0.958177
O O5 0.592993 0.190478 0.303707
O O6 0.815801 0.114299 0.254446
O O7 0.867422 0.132707 0.336355
O O8 0.586271 0.193890 0.205755
O O9 0.811610 0.402796 0.468192
O O10 0.869969 0.130032 0.500000
O O11 0.898601 0.183394 0.418315
O O12 0.828823 0.171178 0.000000
O O13 0.000000 0.000000 0.044379
O O14 0.811143 0.403579 0.368556
#
# Coordination Sequence:
#
# PCOD9547299 Si02
#       7
#     8   2   8   8   8   8   8
#     4  11  23  42  64  93 129 162 201 259 311 367
#     4  12  24  52  64 100 148 160 228 288 300 400
#     4   9  19  37  57  79 114 151 194 247 296 352
#     4   9  21  40  59  86 120 161 207 250 302 373
#     4   9  19  35  52  74 107 144 182 232 289 352
#     4  11  26  45  72  99 131 182 217 265 339 380
#     4   9  19  35  54  77 108 144 187 238 293 353
#
# _framework density 21.083293000000001
#
# number of rings (size 3 to 8) (size 9 to 14) (size 15 to 20)
#    0.000    2.240    1.600    1.920    4.480    3.520 
#    0.000    9.600    0.000    0.000    0.000    0.000 
#    0.000    0.000    0.000    0.000    0.000    0.000 
#
# Total GULP energy -278679.962113 kJ/mol
# GULP energy per Si atom -5573.599242 kJ/mol
# Density = 2.103531 g / cm^3
# Si number density = 21.083293 Si / 1000 Ang^3
#
#
#
# Elastic Constant Matrix: (Units=GPa)
#
#
# Indices 1 2 3 4 5 6 
#
# 1 53.1561 26.9138 54.5334 0.0000 0.0000 0.0000
# 2 26.9138 53.1565 54.5339 0.0000 0.0000 0.0000
# 3 54.5334 54.5339 198.8997 0.0000 0.0000 0.0000
# 4 0.0000 0.0000 0.0000 -22.7382 0.0000 0.0000
# 5 0.0000 0.0000 0.0000 0.0000 -22.7379 0.0000
# 6 0.0000 0.0000 0.0000 0.0000 0.0000 26.6132
#
#
#
# Elastic Compliance Matrix: (Units=1/GPa)
#
#
# Indices 1 2 3 4 5 6 
#
# 1 0.029020 -0.009086 -0.005465 0.000000 0.000000 0.000000
# 2 -0.009086 0.029020 -0.005465 0.000000 0.000000 0.000000
# 3 -0.005465 -0.005465 0.008025 0.000000 0.000000 0.000000
# 4 0.000000 0.000000 0.000000 -0.043979 0.000000 0.000000
# 5 0.000000 0.000000 0.000000 0.000000 -0.043980 0.000000
# 6 0.000000 0.000000 0.000000 0.000000 0.000000 0.037575
#
#
# Mechanical properties :
#
#
# Convention : Reuss Voigt Hill
#
# Bulk Modulus (GPa) = 38.41639 64.13048 51.27344
# Shear Modulus (GPa) = 77.64952 7.50952 42.57952
#
# Velocity S-wave (km/s) = 6.07535 1.88933 4.49886
# Velocity P-wave (km/s) = 8.21425 5.93659 7.16649
#
# Compressibility (1/GPa) = 0.02603055
#
# Stress axis : x y z
#
# Youngs Moduli (GPa) = 34.45907 34.45918 124.61685
#
# Poissons Ratio (x) = 0.31310 0.68107
# Poissons Ratio (y) = 0.31310 0.68108
# Poissons Ratio (z) = 0.18833 0.18833
#
# Static dielectric constant tensor:
#      x y z
#    x 1.761550 0.000000 0.000000 
#    y 0.000000 1.761550 0.000000 
#    z 0.000000 0.000000 1.773450 
# 
# From -- ./inp_files/3095.got.cif
#   From: 2010.05.17/outbox.cif.g08.bks.cpg/sg90_2_cif.got.tgz:3095.got - 2010.06.03 19:17:45.
