data_PCOD9547281
_publ_section_title
;
Structure prediction by ZEFSAII (Michael W. Deem and Ramdas Pophale) SiO2 
 PCOD9547281
Probable space group: P 4 21 2
;
_chemical_formula_sum "Si O2"
_cell_formula_units_Z 28
_cell_length_a 13.435650
_cell_length_b 13.435650
_cell_length_c 7.736798
_cell_angle_alpha 90.000000
_cell_angle_beta 90.000000
_cell_angle_gamma 90.000000
_cell_volume 1396.621173
_symmetry_space_group_name_H-M "P 4 21 2"
_symmetry_group_IT_number 90
_symmetry_cell_setting 'tetragonal'
loop_
_space_group_symop_operation_xyz
x,y,z
1/2-y,1/2+x,z
-x,-y,z
1/2+y,1/2-x,z
1/2+x,1/2-y,-z
1/2-x,1/2+y,-z
y,x,-z
-y,-x,-z
loop_
_atom_site_type_symbol
_atom_site_label
_atom_site_fract_x
_atom_site_fract_y
_atom_site_fract_z
Si Si1 0.260281 0.093487 0.471075
Si Si2 0.074409 0.352096 0.146591
Si Si3 0.238735 0.761266 0.000000
Si Si4 0.767666 0.122035 0.342329
O O1 0.166924 0.166924 0.500000
O O2 0.311431 0.074943 0.656729
O O3 0.342965 0.153971 0.365933
O O4 0.227731 0.995106 0.370675
O O5 0.128511 0.458349 0.113668
O O6 0.144737 0.278198 0.039822
O O7 0.202654 0.826286 0.163671
O O8 0.828341 0.171660 0.500000
#
# Coordination Sequence:
#
# PCOD9547281 Si02
#       4
#     8   8   4   8
#     4  11  21  42  68  94 130 176 218 278 333 395
#     4  11  23  41  67  98 135 174 226 281 330 396
#     4  12  24  42  66  98 142 178 214 282 342 394
#     4  11  24  43  63  98 135 172 224 274 335 406
#
# _framework density 20.048386000000001
#
# number of rings (size 3 to 8) (size 9 to 14) (size 15 to 20)
#    0.000    0.857    8.571    0.000    4.000    1.143 
#    0.000    0.000    0.000    7.714    0.000    0.000 
#    0.000    0.000    0.000    0.000    0.000    0.000 
#
# Total GULP energy -156269.077910 kJ/mol
# GULP energy per Si atom -5581.038497 kJ/mol
# Density = 2.000275 g / cm^3
# Si number density = 20.048386 Si / 1000 Ang^3
#
#
#
# Elastic Constant Matrix: (Units=GPa)
#
#
# Indices 1 2 3 4 5 6 
#
# 1 26.5912 24.9741 -15.1562 0.0000 0.0000 0.0000
# 2 24.9741 26.5773 -15.1575 0.0000 0.0000 0.0000
# 3 -15.1562 -15.1575 67.6068 0.0000 0.0000 0.0000
# 4 0.0000 0.0000 0.0000 21.6801 0.0000 0.0000
# 5 0.0000 0.0000 0.0000 0.0000 21.6808 0.0000
# 6 0.0000 0.0000 0.0000 0.0000 0.0000 28.0590
#
#
#
# Elastic Compliance Matrix: (Units=1/GPa)
#
#
# Indices 1 2 3 4 5 6 
#
# 1 0.321591 -0.299351 0.004980 0.000000 0.000000 0.000000
# 2 -0.299351 0.321791 0.005037 0.000000 0.000000 0.000000
# 3 0.004980 0.005037 0.017037 0.000000 0.000000 0.000000
# 4 0.000000 0.000000 0.000000 0.046125 0.000000 0.000000
# 5 0.000000 0.000000 0.000000 0.000000 0.046124 0.000000
# 6 0.000000 0.000000 0.000000 0.000000 0.000000 0.035639
#
#
# Mechanical properties :
#
#
# Convention : Reuss Voigt Hill
#
# Bulk Modulus (GPa) = 12.23218 12.23290 12.23254
# Shear Modulus (GPa) = 3.58622 22.69165 13.13894
#
# Velocity S-wave (km/s) = 1.33890 3.36794 2.56278
# Velocity P-wave (km/s) = 2.91630 4.60857 3.85641
#
# Compressibility (1/GPa) = 0.08175156
#
# Stress axis : x y z
#
# Youngs Moduli (GPa) = 3.10954 3.10760 58.69538
#
# Poissons Ratio (x) = 0.93026 -0.29229
# Poissons Ratio (y) = 0.93084 -0.29566
# Poissons Ratio (z) = -0.01548 -0.01565
#
# Static dielectric constant tensor:
#      x y z
#    x 1.714020 0.000000 0.000000 
#    y 0.000000 1.714020 0.000000 
#    z 0.000000 0.000000 1.747810 
# 
# From -- ./inp_files/982.got.cif
#   From: 2010.05.17/outbox.cif.g08.bks.cpg/sg90_1_cif.got.tgz:982.got - 2010.06.03 19:17:45.
