data_PCOD9547348
_publ_section_title
;
Structure prediction by ZEFSAII (Michael W. Deem and Ramdas Pophale) SiO2 
 PCOD9547348
Probable space group: P 4 21 2
;
_chemical_formula_sum "Si O2"
_cell_formula_units_Z 50
_cell_length_a 8.478371
_cell_length_b 8.478371
_cell_length_c 31.480075
_cell_angle_alpha 90.000000
_cell_angle_beta 90.000000
_cell_angle_gamma 90.000000
_cell_volume 2262.875142
_symmetry_space_group_name_H-M "P 4 21 2"
_symmetry_group_IT_number 90
_symmetry_cell_setting 'tetragonal'
loop_
_space_group_symop_operation_xyz
x,y,z
1/2-y,1/2+x,z
-x,-y,z
1/2+y,1/2-x,z
1/2+x,1/2-y,-z
1/2-x,1/2+y,-z
y,x,-z
-y,-x,-z
loop_
_atom_site_type_symbol
_atom_site_label
_atom_site_fract_x
_atom_site_fract_y
_atom_site_fract_z
Si Si1 0.000000 0.500000 0.856436
Si Si2 0.908839 0.161057 0.872783
Si Si3 0.090613 0.751831 0.616948
Si Si4 0.247464 0.913170 0.539300
Si Si5 0.245873 0.414197 0.214866
Si Si6 0.252861 0.419846 0.712437
Si Si7 0.647576 0.779855 0.956241
O O1 0.193638 0.516990 0.857843
O O2 0.801242 0.113393 0.832987
O O3 0.816522 0.206619 0.915632
O O4 0.000000 0.000000 0.883387
O O5 0.193618 0.590378 0.612209
O O6 0.152254 0.871986 0.581944
O O7 0.107249 0.816403 0.664878
O O8 0.406964 0.806693 0.537650
O O9 0.139196 0.860805 0.500000
O O10 0.193187 0.592513 0.221626
O O11 0.374783 0.364242 0.249143
O O12 0.189087 0.597007 0.715694
O O13 0.458261 0.789558 0.954647
O O14 0.701506 0.701506 0.000000
#
# Coordination Sequence:
#
# PCOD9547348 Si02
#       7
#     2   8   8   8   8   8   8
#     4  12  28  44  80 108 136 188 244 284 344 440
#     4  12  28  48  74 108 142 186 236 296 355 415
#     4   9  19  39  62  89 124 163 210 269 326 391
#     4  11  24  39  58  87 121 161 209 266 326 394
#     4  11  25  43  64  95 137 178 223 283 352 412
#     4   9  21  39  64  94 127 169 222 274 329 402
#     4  11  27  47  73 106 145 186 233 291 352 421
#
# _framework density 22.095784999999999
#
# number of rings (size 3 to 8) (size 9 to 14) (size 15 to 20)
#    0.000    1.440    0.000    4.800    8.960    6.080 
#    0.000    4.800    0.000    0.000    0.000    0.000 
#    0.000    0.000    0.000    0.000    0.000    0.000 
#
# Total GULP energy -279508.790191 kJ/mol
# GULP energy per Si atom -5590.175804 kJ/mol
# Density = 2.204549 g / cm^3
# Si number density = 22.095785 Si / 1000 Ang^3
#
#
#
# Elastic Constant Matrix: (Units=GPa)
#
#
# Indices 1 2 3 4 5 6 
#
# 1 41.2138 25.2496 15.8705 0.0000 0.0000 0.0000
# 2 25.2496 41.2134 15.8702 0.0000 0.0000 0.0000
# 3 15.8705 15.8702 118.8273 0.0000 0.0000 0.0000
# 4 0.0000 0.0000 0.0000 67.9780 0.0000 0.0000
# 5 0.0000 0.0000 0.0000 0.0000 67.9779 0.0000
# 6 0.0000 0.0000 0.0000 0.0000 0.0000 33.4541
#
#
#
# Elastic Compliance Matrix: (Units=1/GPa)
#
#
# Indices 1 2 3 4 5 6 
#
# 1 0.039356 -0.023285 -0.002146 0.000000 0.000000 0.000000
# 2 -0.023285 0.039356 -0.002146 0.000000 0.000000 0.000000
# 3 -0.002146 -0.002146 0.008989 0.000000 0.000000 0.000000
# 4 0.000000 0.000000 0.000000 0.014711 0.000000 0.000000
# 5 0.000000 0.000000 0.000000 0.000000 0.014711 0.000000
# 6 0.000000 0.000000 0.000000 0.000000 0.000000 0.029892
#
#
# Mechanical properties :
#
#
# Convention : Reuss Voigt Hill
#
# Bulk Modulus (GPa) = 30.72646 35.02611 32.87629
# Shear Modulus (GPa) = 23.47220 43.49960 33.48590
#
# Velocity S-wave (km/s) = 3.26282 4.44180 3.89715
# Velocity P-wave (km/s) = 5.30385 6.49557 5.92973
#
# Compressibility (1/GPa) = 0.03254524
#
# Stress axis : x y z
#
# Youngs Moduli (GPa) = 25.40921 25.40898 111.24809
#
# Poissons Ratio (x) = 0.59165 0.23879
# Poissons Ratio (y) = 0.59165 0.23878
# Poissons Ratio (z) = 0.05454 0.05454
#
# Static dielectric constant tensor:
#      x y z
#    x 1.823710 0.000000 0.000000 
#    y 0.000000 1.823710 0.000000 
#    z 0.000000 0.000000 1.772970 
# 
# From -- ./inp_files/3062.got.cif
#   From: 2010.05.17/outbox.cif.g08.bks.cpg/sg90_2_cif.got.tgz:3062.got - 2010.06.03 19:17:45.
