data_PCOD9547481
_publ_section_title
;
Structure prediction by ZEFSAII (Michael W. Deem and Ramdas Pophale) SiO2 
 PCOD9547481
Probable space group: P 41 2 2
;
_chemical_formula_sum "Si O2"
_cell_formula_units_Z 24
_cell_length_a 8.524505
_cell_length_b 8.524505
_cell_length_c 12.849482
_cell_angle_alpha 90.000000
_cell_angle_beta 90.000000
_cell_angle_gamma 90.000000
_cell_volume 933.735692
_symmetry_space_group_name_H-M "P 41 2 2"
_symmetry_group_IT_number 91
_symmetry_cell_setting 'tetragonal'
loop_
_space_group_symop_operation_xyz
x,y,z
-y,x,1/4+z
-x,-y,1/2+z
y,-x,3/4+z
x,-y,1/2-z
-x,y,-z
y,x,3/4-z
-y,-x,1/4-z
loop_
_atom_site_type_symbol
_atom_site_label
_atom_site_fract_x
_atom_site_fract_y
_atom_site_fract_z
Si Si1 0.435298 0.332790 0.265914
Si Si2 0.222830 0.186794 0.098967
Si Si3 0.849340 0.849340 0.375000
Si Si4 0.587140 0.000000 0.750000
O O1 0.518836 0.500000 0.250000
O O2 0.346461 0.346461 0.375000
O O3 0.308611 0.316322 0.171255
O O4 0.301102 0.031365 0.151209
O O5 0.159177 0.490446 0.011338
O O6 0.036145 0.175858 0.111359
O O7 0.253155 0.189392 0.976290
#
# Coordination Sequence:
#
# PCOD9547481 Si02
#       4
#     8   8   4   4
#     4  10  21  38  65  95 131 179 229 276 342 410
#     4   9  18  28  57  92 127 171 221 275 330 408
#     4  10  16  28  54  90 134 172 220 274 348 396
#     4   8  18  32  58  92 120 176 228 272 334 410
#
# _framework density 25.703203999999999
#
# number of rings (size 3 to 8) (size 9 to 14) (size 15 to 20)
#    2.000    0.667    0.000    4.000    2.333    0.000 
#    0.000    3.333    3.667    2.000    0.000    0.000 
#    0.000    0.000    0.000    0.000    0.000    0.000 
#
# Total GULP energy -133866.970459 kJ/mol
# GULP energy per Si atom -5577.790436 kJ/mol
# Density = 2.564470 g / cm^3
# Si number density = 25.703204 Si / 1000 Ang^3
#
#
#
# Elastic Constant Matrix: (Units=GPa)
#
#
# Indices 1 2 3 4 5 6 
#
# 1 151.6865 28.1050 24.7101 0.0000 0.0000 0.0000
# 2 28.1050 151.6865 24.7101 0.0000 0.0000 0.0000
# 3 24.7101 24.7101 204.1086 0.0000 0.0000 0.0000
# 4 0.0000 0.0000 0.0000 13.8869 0.0000 0.0000
# 5 0.0000 0.0000 0.0000 0.0000 13.8869 0.0000
# 6 0.0000 0.0000 0.0000 0.0000 0.0000 37.9692
#
#
#
# Elastic Compliance Matrix: (Units=1/GPa)
#
#
# Indices 1 2 3 4 5 6 
#
# 1 0.006923 -0.001169 -0.000697 0.000000 0.000000 0.000000
# 2 -0.001169 0.006923 -0.000697 0.000000 0.000000 0.000000
# 3 -0.000697 -0.000697 0.005068 0.000000 0.000000 0.000000
# 4 0.000000 0.000000 0.000000 0.072010 0.000000 0.000000
# 5 0.000000 0.000000 0.000000 0.000000 0.072010 0.000000
# 6 0.000000 0.000000 0.000000 0.000000 0.000000 0.026337
#
#
# Mechanical properties :
#
#
# Convention : Reuss Voigt Hill
#
# Bulk Modulus (GPa) = 72.52272 73.61467 73.06870
# Shear Modulus (GPa) = 25.12667 41.81236 33.46951
#
# Velocity S-wave (km/s) = 3.13000 4.03766 3.61245
# Velocity P-wave (km/s) = 6.42956 7.10207 6.77416
#
# Compressibility (1/GPa) = 0.01378878
#
# Stress axis : x y z
#
# Youngs Moduli (GPa) = 144.45355 144.45355 197.31645
#
# Poissons Ratio (x) = 0.16889 0.13744
# Poissons Ratio (y) = 0.16889 0.13744
# Poissons Ratio (z) = 0.10062 0.10062
#
# Static dielectric constant tensor:
#      x y z
#    x 2.035260 0.000000 0.000000 
#    y 0.000000 2.035260 0.000000 
#    z 0.000000 0.000000 2.106300 
# 
# From -- ./inp_files/11109.got.cif
#   From: 2010.05.17/outbox.cif.g08.bks.cpg/sg91_6_cif.got.tgz:11109.got - 2010.06.03 19:20:03.
