data_PCOD9547052
_publ_section_title
;
Structure prediction by ZEFSAII (Michael W. Deem and Ramdas Pophale) SiO2 
 PCOD9547052
Probable space group: P 4 2 2
;
_chemical_formula_sum "Si O2"
_cell_formula_units_Z 50
_cell_length_a 8.726448
_cell_length_b 8.726448
_cell_length_c 31.873577
_cell_angle_alpha 90.000000
_cell_angle_beta 90.000000
_cell_angle_gamma 90.000000
_cell_volume 2427.201406
_symmetry_space_group_name_H-M "P 4 2 2"
_symmetry_group_IT_number 89
_symmetry_cell_setting 'tetragonal'
loop_
_space_group_symop_operation_xyz
x,y,z
-y,x,z
-x,-y,z
y,-x,z
x,-y,-z
-x,y,-z
y,x,-z
-y,-x,-z
loop_
_atom_site_type_symbol
_atom_site_label
_atom_site_fract_x
_atom_site_fract_y
_atom_site_fract_z
Si Si1 0.164629 0.800437 0.544974
Si Si2 0.612299 0.266065 0.281632
Si Si3 0.199556 0.834588 0.046770
Si Si4 0.718703 0.364446 0.626968
Si Si5 0.500000 0.500000 0.862557
Si Si6 0.099287 0.765452 0.792962
Si Si7 0.163814 0.585076 0.877283
O O1 0.241212 0.758789 0.500000
O O2 0.210542 0.703550 0.585171
O O3 0.980321 0.794524 0.546244
O O4 0.695242 0.431885 0.278856
O O5 0.663284 0.204533 0.327558
O O6 0.655466 0.157440 0.243656
O O7 0.319785 0.784078 0.081484
O O8 0.019825 0.795036 0.051176
O O9 0.229399 0.770602 0.000000
O O10 0.702147 0.547108 0.626510
O O11 0.309763 0.484159 0.863225
O O12 0.125827 0.696245 0.838648
O O13 0.921973 0.806231 0.788435
O O14 0.000000 0.500000 0.885983
#
# Coordination Sequence:
#
# PCOD9547052 Si02
#       7
#     8   8   8   8   2   8   8
#     4   9  19  35  54  78 111 153 199 251 314 380
#     4   9  21  39  62  86 117 163 209 261 319 397
#     4   9  18  38  69  99 132 178 223 269 334 399
#     4   9  19  37  56  82 116 152 199 252 315 380
#     4  12  28  44  69 104 128 176 232 264 329 408
#     4  11  25  41  61  93 129 167 212 269 331 392
#     4  12  26  45  68 100 138 178 223 281 337 396
#
# _framework density 20.599858000000001
#
# number of rings (size 3 to 8) (size 9 to 14) (size 15 to 20)
#    0.000    2.080    0.000    4.800    4.480    3.840 
#    0.000   13.200    0.000    0.000    0.000    0.000 
#    0.000    0.000    0.000    0.000    0.000    0.000 
#
# Total GULP energy -278336.445276 kJ/mol
# GULP energy per Si atom -5566.728906 kJ/mol
# Density = 2.055297 g / cm^3
# Si number density = 20.599858 Si / 1000 Ang^3
#
#
#
# Elastic Constant Matrix: (Units=GPa)
#
#
# Indices 1 2 3 4 5 6 
#
# 1 -7.3637 41.9172 8.1555 0.0000 0.0000 0.0000
# 2 41.9172 -7.3637 8.1553 0.0000 0.0000 0.0000
# 3 8.1555 8.1553 104.9088 0.0000 0.0000 0.0000
# 4 0.0000 0.0000 0.0000 30.4395 0.0000 0.0000
# 5 0.0000 0.0000 0.0000 0.0000 30.4392 0.0000
# 6 0.0000 0.0000 0.0000 0.0000 0.0000 -8.6159
#
#
#
# Elastic Compliance Matrix: (Units=1/GPa)
#
#
# Indices 1 2 3 4 5 6 
#
# 1 0.004876 0.025167 -0.002335 0.000000 0.000000 0.000000
# 2 0.025167 0.004876 -0.002336 0.000000 0.000000 0.000000
# 3 -0.002335 -0.002336 0.009895 0.000000 0.000000 0.000000
# 4 0.000000 0.000000 0.000000 0.032852 0.000000 0.000000
# 5 0.000000 0.000000 0.000000 0.000000 0.032852 0.000000
# 6 0.000000 0.000000 0.000000 0.000000 0.000000 -0.116065
#
#
# Mechanical properties :
#
#
# Convention : Reuss Voigt Hill
#
# Bulk Modulus (GPa) = 16.49092 22.95971 19.72531
# Shear Modulus (GPa) = -97.09858 12.58280 -42.25789
#
# Velocity S-wave (km/s) = -6.87298 2.47416 -4.53412
# Velocity P-wave (km/s) = 7.41358 4.39678 4.22075
#
# Compressibility (1/GPa) = 0.06063943
#
# Stress axis : x y z
#
# Youngs Moduli (GPa) = 205.10223 205.10062 101.05904
#
# Poissons Ratio (x) = -5.16186 0.23602
# Poissons Ratio (y) = -5.16190 0.23603
# Poissons Ratio (z) = 0.47901 0.47902
#
# Static dielectric constant tensor:
#      x y z
#    x 1.743910 0.000000 0.000000 
#    y 0.000000 1.743910 0.000000 
#    z 0.000000 0.000000 1.773250 
# 
# From -- ./inp_files/2976.got.cif
#   From: 2010.05.17/outbox.cif.g08.bks.cpg/sg89_2_cif.got.tgz:2976.got - 2010.06.03 19:15:31.
