data_PCOD9547228
_publ_section_title
;
Structure prediction by ZEFSAII (Michael W. Deem and Ramdas Pophale) SiO2 
 PCOD9547228
Probable space group: P 4 21 2
;
_chemical_formula_sum "Si O2"
_cell_formula_units_Z 38
_cell_length_a 17.709944
_cell_length_b 17.709944
_cell_length_c 5.162724
_cell_angle_alpha 90.000000
_cell_angle_beta 90.000000
_cell_angle_gamma 90.000000
_cell_volume 1619.247682
_symmetry_space_group_name_H-M "P 4 21 2"
_symmetry_group_IT_number 90
_symmetry_cell_setting 'tetragonal'
loop_
_space_group_symop_operation_xyz
x,y,z
1/2-y,1/2+x,z
-x,-y,z
1/2+y,1/2-x,z
1/2+x,1/2-y,-z
1/2-x,1/2+y,-z
y,x,-z
-y,-x,-z
loop_
_atom_site_type_symbol
_atom_site_label
_atom_site_fract_x
_atom_site_fract_y
_atom_site_fract_z
Si Si1 0.959636 0.843903 0.599682
Si Si2 0.875869 0.194884 0.746598
Si Si3 0.112098 0.627034 0.807792
Si Si4 0.673674 0.326327 0.000000
Si Si5 0.104228 0.289560 0.301632
Si Si6 0.000000 0.500000 0.758472
O O1 0.921101 0.921101 0.500000
O O2 0.903228 0.821286 0.835315
O O3 0.952967 0.778395 0.378882
O O4 0.044789 0.846455 0.688085
O O5 0.822420 0.177581 0.500000
O O6 0.894510 0.282270 0.808550
O O7 0.839319 0.160682 0.000000
O O8 0.164481 0.613322 0.560989
O O9 0.032420 0.586711 0.763217
O O10 0.151115 0.594563 0.068878
O O11 0.675749 0.258848 0.797044
#
# Coordination Sequence:
#
# PCOD9547228 Si02
#       6
#     8   8   8   4   8   2
#     4  10  24  47  76 110 153 204 262 310 387 474
#     4  12  30  49  75 112 159 204 254 333 396 466
#     4  12  28  48  78 112 157 199 271 317 408 475
#     4  10  22  42  81 110 146 208 255 314 378 460
#     4  11  24  44  80 111 152 201 256 319 378 472
#     4  12  32  58  80 118 156 222 256 350 400 478
#
# _framework density 23.467686
#
# number of rings (size 3 to 8) (size 9 to 14) (size 15 to 20)
#    0.000    0.842    2.105    2.526   10.316    4.632 
#    0.000    0.000    0.000    0.000    0.000    0.000 
#    0.000    0.000    0.000    0.000    0.000    0.000 
#
# Total GULP energy -212063.405072 kJ/mol
# GULP energy per Si atom -5580.615923 kJ/mol
# Density = 2.341427 g / cm^3
# Si number density = 23.467686 Si / 1000 Ang^3
#
#
#
# Elastic Constant Matrix: (Units=GPa)
#
#
# Indices 1 2 3 4 5 6 
#
# 1 129.4477 44.5350 33.1809 0.0000 0.0000 0.0000
# 2 44.5350 129.4454 33.1776 0.0000 0.0000 0.0000
# 3 33.1809 33.1776 132.3869 0.0000 0.0000 0.0000
# 4 0.0000 0.0000 0.0000 3.2340 0.0000 0.0000
# 5 0.0000 0.0000 0.0000 0.0000 3.2368 0.0000
# 6 0.0000 0.0000 0.0000 0.0000 0.0000 17.9070
#
#
#
# Elastic Compliance Matrix: (Units=1/GPa)
#
#
# Indices 1 2 3 4 5 6 
#
# 1 0.009066 -0.002711 -0.001593 0.000000 0.000000 0.000000
# 2 -0.002711 0.009066 -0.001593 0.000000 0.000000 0.000000
# 3 -0.001593 -0.001593 0.008352 0.000000 0.000000 0.000000
# 4 0.000000 0.000000 0.000000 0.309211 0.000000 0.000000
# 5 0.000000 0.000000 0.000000 0.000000 0.308943 0.000000
# 6 0.000000 0.000000 0.000000 0.000000 0.000000 0.055844
#
#
# Mechanical properties :
#
#
# Convention : Reuss Voigt Hill
#
# Bulk Modulus (GPa) = 68.06713 68.11855 68.09284
# Shear Modulus (GPa) = 6.97183 23.56800 15.26991
#
# Velocity S-wave (km/s) = 1.72548 3.17247 2.55361
# Velocity P-wave (km/s) = 5.74781 6.51989 6.14598
#
# Compressibility (1/GPa) = 0.01469138
#
# Stress axis : x y z
#
# Youngs Moduli (GPa) = 110.30127 110.30067 119.73198
#
# Poissons Ratio (x) = 0.29901 0.19072
# Poissons Ratio (y) = 0.29901 0.19069
# Poissons Ratio (z) = 0.17570 0.17567
#
# Static dielectric constant tensor:
#      x y z
#    x 1.938290 0.000000 0.000000 
#    y 0.000000 1.938280 0.000000 
#    z 0.000000 0.000000 1.916230 
# 
# From -- ./inp_files/474.got.cif
#   From: 2010.05.17/outbox.cif.g08.bks.cpg/sg90_1_cif.got.tgz:474.got - 2010.06.03 19:17:45.
