data_PCOD9547641
_publ_section_title
;
Structure prediction by ZEFSAII (Michael W. Deem and Ramdas Pophale) SiO2 
 PCOD9547641
Probable space group: P 41 2 2
;
_chemical_formula_sum "Si O2"
_cell_formula_units_Z 28
_cell_length_a 9.391844
_cell_length_b 9.391844
_cell_length_c 12.883064
_cell_angle_alpha 90.000000
_cell_angle_beta 90.000000
_cell_angle_gamma 90.000000
_cell_volume 1136.372996
_symmetry_space_group_name_H-M "P 41 2 2"
_symmetry_group_IT_number 91
_symmetry_cell_setting 'tetragonal'
loop_
_space_group_symop_operation_xyz
x,y,z
-y,x,1/4+z
-x,-y,1/2+z
y,-x,3/4+z
x,-y,1/2-z
-x,y,-z
y,x,3/4-z
-y,-x,1/4-z
loop_
_atom_site_type_symbol
_atom_site_label
_atom_site_fract_x
_atom_site_fract_y
_atom_site_fract_z
Si Si1 0.199312 0.708442 0.281783
Si Si2 0.168397 0.494768 0.467937
Si Si3 0.267708 0.732293 0.625000
Si Si4 0.164386 0.058303 0.038695
O O1 0.184238 0.568382 0.354221
O O2 0.352421 0.742429 0.236290
O O3 0.082070 0.742869 0.194334
O O4 0.166666 0.836723 0.364238
O O5 0.245235 0.600410 0.550305
O O6 0.000000 0.484751 0.500000
O O7 0.132935 0.744831 0.699260
O O8 0.000000 0.042208 0.000000
#
# Coordination Sequence:
#
# PCOD9547641 Si02
#       4
#     8   8   4   8
#     4  11  23  40  72  96 142 173 236 271 355 394
#     4  11  23  42  69 105 131 186 224 283 334 415
#     4  10  18  38  66  92 132 168 224 268 336 386
#     4  11  18  36  68 105 128 176 224 299 325 399
#
# _framework density 24.639797000000002
#
# number of rings (size 3 to 8) (size 9 to 14) (size 15 to 20)
#    0.000    1.143    5.714    2.571    0.000    4.571 
#    0.000    0.000   18.857    0.000    0.000    0.000 
#    0.000    0.000    0.000    0.000    0.000    0.000 
#
# Total GULP energy -156690.196270 kJ/mol
# GULP energy per Si atom -5596.078438 kJ/mol
# Density = 2.458372 g / cm^3
# Si number density = 24.639797 Si / 1000 Ang^3
#
#
#
# Elastic Constant Matrix: (Units=GPa)
#
#
# Indices 1 2 3 4 5 6 
#
# 1 41.7439 128.9070 20.8381 0.0000 0.0000 0.0000
# 2 128.9070 41.7489 20.8343 0.0000 0.0000 0.0000
# 3 20.8381 20.8343 94.0358 0.0000 0.0000 0.0000
# 4 0.0000 0.0000 0.0000 19.7061 0.0000 0.0000
# 5 0.0000 0.0000 0.0000 0.0000 19.7053 0.0000
# 6 0.0000 0.0000 0.0000 0.0000 0.0000 29.5579
#
#
#
# Elastic Compliance Matrix: (Units=1/GPa)
#
#
# Indices 1 2 3 4 5 6 
#
# 1 -0.002639 0.008834 -0.001372 0.000000 0.000000 0.000000
# 2 0.008834 -0.002639 -0.001373 0.000000 0.000000 0.000000
# 3 -0.001372 -0.001373 0.011243 0.000000 0.000000 0.000000
# 4 0.000000 0.000000 0.000000 0.050746 0.000000 0.000000
# 5 0.000000 0.000000 0.000000 0.000000 0.050748 0.000000
# 6 0.000000 0.000000 0.000000 0.000000 0.000000 0.033832
#
#
# Mechanical properties :
#
#
# Convention : Reuss Voigt Hill
#
# Bulk Modulus (GPa) = 55.12100 57.63192 56.37646
# Shear Modulus (GPa) = 36.99327 14.25715 25.62521
#
# Velocity S-wave (km/s) = 3.87895 2.40807 3.22839
# Velocity P-wave (km/s) = 6.51774 5.58321 6.06849
#
# Compressibility (1/GPa) = 0.01814191
#
# Stress axis : x y z
#
# Youngs Moduli (GPa) = -378.89377 -378.96217 88.94775
#
# Poissons Ratio (x) = 3.34777 0.12207
# Poissons Ratio (y) = 3.34717 0.12212
# Poissons Ratio (z) = -0.51999 -0.52030
#
# Static dielectric constant tensor:
#      x y z
#    x 2.015040 0.000000 0.000000 
#    y 0.000000 2.015030 0.000000 
#    z 0.000000 0.000000 2.011670 
# 
# From -- ./inp_files/5256.got.cif
#   From: 2010.05.17/outbox.cif.g08.bks.cpg/sg91_3_cif.got.tgz:5256.got - 2010.06.03 19:20:03.
