data_PCOD9547731
_publ_section_title
;
Structure prediction by ZEFSAII (Michael W. Deem and Ramdas Pophale) SiO2 
 PCOD9547731
Probable space group: P 41 2 2
;
_chemical_formula_sum "Si O2"
_cell_formula_units_Z 40
_cell_length_a 9.829142
_cell_length_b 9.829142
_cell_length_c 22.036327
_cell_angle_alpha 90.000000
_cell_angle_beta 90.000000
_cell_angle_gamma 90.000000
_cell_volume 2128.974339
_symmetry_space_group_name_H-M "P 41 2 2"
_symmetry_group_IT_number 91
_symmetry_cell_setting 'tetragonal'
loop_
_space_group_symop_operation_xyz
x,y,z
-y,x,1/4+z
-x,-y,1/2+z
y,-x,3/4+z
x,-y,1/2-z
-x,y,-z
y,x,3/4-z
-y,-x,1/4-z
loop_
_atom_site_type_symbol
_atom_site_label
_atom_site_fract_x
_atom_site_fract_y
_atom_site_fract_z
Si Si1 0.711562 0.795523 0.663650
Si Si2 0.835662 0.945011 0.553744
Si Si3 0.295732 0.000000 0.750000
Si Si4 0.812155 0.589861 0.396049
Si Si5 0.000000 0.825908 0.000000
Si Si6 0.042017 0.621759 0.296069
O O1 0.558778 0.746264 0.653635
O O2 0.732552 0.880119 0.725419
O O3 0.825317 0.678812 0.669450
O O4 0.746370 0.906815 0.611651
O O5 0.941265 0.070986 0.551525
O O6 0.741226 0.978523 0.495844
O O7 0.919796 0.807776 0.543376
O O8 0.374534 0.108353 0.791537
O O9 0.704737 0.704737 0.375000
O O10 0.927745 0.581462 0.344352
O O11 0.075784 0.500000 0.250000
#
# Coordination Sequence:
#
# PCOD9547731 Si02
#       6
#     8   8   4   8   4   8
#     4  11  22  39  60  91 128 161 203 262 315 381
#     4  10  19  34  63  93 120 153 212 269 315 361
#     4  11  21  36  62 100 122 160 212 272 310 372
#     4  12  24  39  66  95 129 169 215 260 319 382
#     4   9  21  34  60  92 122 154 206 264 324 362
#     4  11  22  40  63  90 122 170 211 258 318 384
#
# _framework density 18.788388000000001
#
# number of rings (size 3 to 8) (size 9 to 14) (size 15 to 20)
#    0.000    1.200    6.000    1.200    0.000    0.000 
#    0.000    3.000    4.400    0.000    0.000    0.000 
#    0.000    0.000    0.000    0.000    0.000    0.000 
#
# Total GULP energy -223020.228128 kJ/mol
# GULP energy per Si atom -5575.505703 kJ/mol
# Density = 1.874563 g / cm^3
# Si number density = 18.788388 Si / 1000 Ang^3
#
#
#
# Elastic Constant Matrix: (Units=GPa)
#
#
# Indices 1 2 3 4 5 6 
#
# 1 103.6146 43.2129 30.0838 0.0000 0.0000 0.0000
# 2 43.2129 103.6146 30.0838 0.0000 0.0000 0.0000
# 3 30.0838 30.0838 54.5818 0.0000 0.0000 0.0000
# 4 0.0000 0.0000 0.0000 21.4641 0.0000 0.0000
# 5 0.0000 0.0000 0.0000 0.0000 21.4641 0.0000
# 6 0.0000 0.0000 0.0000 0.0000 0.0000 14.3608
#
#
#
# Elastic Compliance Matrix: (Units=1/GPa)
#
#
# Indices 1 2 3 4 5 6 
#
# 1 0.012677 -0.003879 -0.004849 0.000000 0.000000 0.000000
# 2 -0.003879 0.012677 -0.004849 0.000000 0.000000 0.000000
# 3 -0.004849 -0.004849 0.023666 0.000000 0.000000 0.000000
# 4 0.000000 0.000000 0.000000 0.046589 0.000000 0.000000
# 5 0.000000 0.000000 0.000000 0.000000 0.046589 0.000000
# 6 0.000000 0.000000 0.000000 0.000000 0.000000 0.069634
#
#
# Mechanical properties :
#
#
# Convention : Reuss Voigt Hill
#
# Bulk Modulus (GPa) = 45.73361 52.06354 48.89858
# Shear Modulus (GPa) = 20.30242 22.01982 21.16112
#
# Velocity S-wave (km/s) = 3.29079 3.42715 3.35966
# Velocity P-wave (km/s) = 6.23164 6.59023 6.41344
#
# Compressibility (1/GPa) = 0.02186576
#
# Stress axis : x y z
#
# Youngs Moduli (GPa) = 78.88422 78.88422 42.25392
#
# Poissons Ratio (x) = 0.30599 0.20489
# Poissons Ratio (y) = 0.30599 0.20489
# Poissons Ratio (z) = 0.38251 0.38251
#
# Static dielectric constant tensor:
#      x y z
#    x 1.658310 0.000000 0.000000 
#    y 0.000000 1.658310 0.000000 
#    z 0.000000 0.000000 1.673550 
# 
# From -- ./inp_files/12806.got.cif
#   From: 2010.05.17/outbox.cif.g08.bks.cpg/sg91_7_cif.got.tgz:12806.got - 2010.06.03 19:20:03.
