data_PCOD9547461
_publ_section_title
;
Structure prediction by ZEFSAII (Michael W. Deem and Ramdas Pophale) SiO2 
 PCOD9547461
Probable space group: P 4 21 2
;
_chemical_formula_sum "Si O2"
_cell_formula_units_Z 42
_cell_length_a 15.000000
_cell_length_b 15.000000
_cell_length_c 9.000000
_cell_angle_alpha 90.000000
_cell_angle_beta 90.000000
_cell_angle_gamma 90.000000
_cell_volume 2025.000000
_symmetry_space_group_name_H-M "P 4 21 2"
_symmetry_group_IT_number 90
_symmetry_cell_setting 'tetragonal'
loop_
_space_group_symop_operation_xyz
x,y,z
1/2-y,1/2+x,z
-x,-y,z
1/2+y,1/2-x,z
1/2+x,1/2-y,-z
1/2-x,1/2+y,-z
y,x,-z
-y,-x,-z
loop_
_atom_site_type_symbol
_atom_site_label
_atom_site_fract_x
_atom_site_fract_y
_atom_site_fract_z
Si Si1 0.047065 0.833415 0.318306
Si Si2 0.500000 0.000000 0.775802
Si Si3 0.020068 0.802388 0.662689
Si Si4 0.638220 0.062374 0.151737
Si Si5 0.359979 0.657264 0.825040
Si Si6 0.337323 0.867902 0.826358
O O1 0.013814 0.814819 0.486074
O O2 0.115839 0.914529 0.298089
O O3 0.093007 0.742944 0.267431
O O4 0.961299 0.854003 0.222604
O O5 0.567676 0.087744 0.783766
O O6 0.068313 0.711326 0.718116
O O7 0.922483 0.808099 0.739775
O O8 0.542553 0.111734 0.154989
O O9 0.678286 0.100003 0.997611
O O10 0.336315 0.761448 0.800404
O O11 0.353465 0.646536 0.000000
#
# Coordination Sequence:
#
# PCOD9547461 Si02
#       6
#     8   2   8   8   8   8
#     4  11  26  48  67 100 148 198 235 299 369 435
#     4  12  20  48  72 102 152 176 240 290 372 420
#     4  11  27  46  69 101 148 191 244 297 360 445
#     4  11  22  43  69 104 142 185 236 305 366 426
#     4  12  26  44  74 108 136 187 245 305 365 427
#     4  12  23  43  74 105 139 190 238 299 365 435
#
# _framework density 20.740741
#
# number of rings (size 3 to 8) (size 9 to 14) (size 15 to 20)
#    0.000    0.571    3.810    3.429    5.333    6.095 
#    3.429    0.000    0.000    0.000    0.000    0.000 
#    0.000    0.000    0.000    0.000    0.000    0.000 
#
# Total GULP energy -234095.580598 kJ/mol
# GULP energy per Si atom -5573.704300 kJ/mol
# Density = 2.069353 g / cm^3
# Si number density = 20.740741 Si / 1000 Ang^3
#
#
#
# Elastic Constant Matrix: (Units=GPa)
#
#
# Indices 1 2 3 4 5 6 
#
# 1 110.7182 6.4309 33.2424 0.0000 0.0000 0.0000
# 2 6.4309 110.7173 33.2410 0.0000 0.0000 0.0000
# 3 33.2424 33.2410 -4.4743 0.0000 0.0000 0.0000
# 4 0.0000 0.0000 0.0000 78.8675 0.0000 0.0000
# 5 0.0000 0.0000 0.0000 0.0000 78.8614 0.0000
# 6 0.0000 0.0000 0.0000 0.0000 0.0000 22.9238
#
#
#
# Elastic Compliance Matrix: (Units=1/GPa)
#
#
# Indices 1 2 3 4 5 6 
#
# 1 0.005613 -0.003976 0.012158 0.000000 0.000000 0.000000
# 2 -0.003976 0.005613 0.012158 0.000000 0.000000 0.000000
# 3 0.012158 0.012158 -0.042846 0.000000 0.000000 0.000000
# 4 0.000000 0.000000 0.000000 0.012680 0.000000 0.000000
# 5 0.000000 0.000000 0.000000 0.000000 0.012680 0.000000
# 6 0.000000 0.000000 0.000000 0.000000 0.000000 0.043623
#
#
# Mechanical properties :
#
#
# Convention : Reuss Voigt Hill
#
# Bulk Modulus (GPa) = 110.39671 40.30998 75.35335
# Shear Modulus (GPa) = -16821.66091 45.73366 -8387.96363
#
# Velocity S-wave (km/s) = -90.15570 4.70085 -63.66299
# Velocity P-wave (km/s) = 103.84632 6.99581 73.26362
#
# Compressibility (1/GPa) = 0.00905824
#
# Stress axis : x y z
#
# Youngs Moduli (GPa) = 178.17322 178.16264 -23.33943
#
# Poissons Ratio (x) = 0.70842 0.28376
# Poissons Ratio (y) = 0.70846 0.28375
# Poissons Ratio (z) = -2.16624 -2.16603
#
# Static dielectric constant tensor:
#      x y z
#    x 1.722800 0.000000 0.000000 
#    y 0.000000 1.722800 0.000000 
#    z 0.000000 0.000000 1.744280 
# 
# From -- ./inp_files/1378.got.cif
#   From: 2010.05.17/outbox.ucp.g08.bks.cvg/sg90_1_cif.got.tgz:1378.got - 2010.06.11 10:36:03.
