data_PCOD9547069
_publ_section_title
;
Structure prediction by ZEFSAII (Michael W. Deem and Ramdas Pophale) SiO2 
 PCOD9547069
Probable space group: P 4 21 2
;
_chemical_formula_sum "Si O2"
_cell_formula_units_Z 52
_cell_length_a 16.493050
_cell_length_b 16.493050
_cell_length_c 9.321242
_cell_angle_alpha 90.000000
_cell_angle_beta 90.000000
_cell_angle_gamma 90.000000
_cell_volume 2535.570758
_symmetry_space_group_name_H-M "P 4 21 2"
_symmetry_group_IT_number 90
_symmetry_cell_setting 'tetragonal'
loop_
_space_group_symop_operation_xyz
x,y,z
1/2-y,1/2+x,z
-x,-y,z
1/2+y,1/2-x,z
1/2+x,1/2-y,-z
1/2-x,1/2+y,-z
y,x,-z
-y,-x,-z
loop_
_atom_site_type_symbol
_atom_site_label
_atom_site_fract_x
_atom_site_fract_y
_atom_site_fract_z
Si Si1 0.374021 0.760702 0.507928
Si Si2 0.146933 0.043035 0.727730
Si Si3 0.895473 0.575669 0.430662
Si Si4 0.927007 0.209134 0.015482
Si Si5 0.612667 0.066259 0.913382
Si Si6 0.918003 0.081997 0.500000
Si Si7 0.485408 0.681980 0.278383
O O1 0.299771 0.700230 0.500000
O O2 0.421534 0.727838 0.650182
O O3 0.340439 0.851743 0.517551
O O4 0.432242 0.743331 0.373308
O O5 0.080593 0.111865 0.763249
O O6 0.175716 0.985732 0.857247
O O7 0.098456 0.993061 0.606033
O O8 0.891130 0.483829 0.478401
O O9 0.069905 0.608952 0.259451
O O10 0.898544 0.300877 0.044926
O O11 0.853216 0.146785 0.000000
O O12 0.976812 0.212013 0.868202
O O13 0.528471 0.107675 0.960363
O O14 0.940653 0.150418 0.619486
#
# Coordination Sequence:
#
# PCOD9547069 Si02
#       7
#     8   8   8   8   8   4   8
#     4   9  19  36  59  88 122 159 203 257 317 365
#     4  10  18  31  54  81 124 174 209 247 303 381
#     4   9  17  35  65  89 107 148 210 254 294 373
#     4  12  23  35  59  97 128 157 212 267 314 372
#     4   9  20  42  67  84 111 163 211 248 304 386
#     4  10  17  30  50  76 120 176 212 244 291 374
#     4  10  20  33  51  85 130 168 207 249 312 375
#
# _framework density 20.508203999999999
#
# number of rings (size 3 to 8) (size 9 to 14) (size 15 to 20)
#    0.000    2.154    1.538    5.538    0.000    0.615 
#    0.000    7.692    3.385    1.846    0.000    0.000 
#    0.000    0.000    0.000    0.000    0.000    0.000 
#
# Total GULP energy -289617.989896 kJ/mol
# GULP energy per Si atom -5569.576729 kJ/mol
# Density = 2.046153 g / cm^3
# Si number density = 20.508204 Si / 1000 Ang^3
#
#
#
# Elastic Constant Matrix: (Units=GPa)
#
#
# Indices 1 2 3 4 5 6 
#
# 1 73.4476 18.1704 30.5406 0.0000 0.0000 0.0000
# 2 18.1704 73.4528 30.5428 0.0000 0.0000 0.0000
# 3 30.5406 30.5428 70.3617 0.0000 0.0000 0.0000
# 4 0.0000 0.0000 0.0000 12.0441 0.0000 0.0000
# 5 0.0000 0.0000 0.0000 0.0000 12.0446 0.0000
# 6 0.0000 0.0000 0.0000 0.0000 0.0000 -7.7653
#
#
#
# Elastic Compliance Matrix: (Units=1/GPa)
#
#
# Indices 1 2 3 4 5 6 
#
# 1 0.016725 -0.001365 -0.006667 0.000000 0.000000 0.000000
# 2 -0.001365 0.016724 -0.006667 0.000000 0.000000 0.000000
# 3 -0.006667 -0.006667 0.020000 0.000000 0.000000 0.000000
# 4 0.000000 0.000000 0.000000 0.083028 0.000000 0.000000
# 5 0.000000 0.000000 0.000000 0.000000 0.083025 0.000000
# 6 0.000000 0.000000 0.000000 0.000000 0.000000 -0.128779
#
#
# Mechanical properties :
#
#
# Convention : Reuss Voigt Hill
#
# Bulk Modulus (GPa) = 41.57839 41.75219 41.66529
# Shear Modulus (GPa) = 39.02012 12.46524 25.74268
#
# Velocity S-wave (km/s) = 4.36668 2.46807 3.54678
# Velocity P-wave (km/s) = 6.76328 5.34086 6.09371
#
# Compressibility (1/GPa) = 0.02405095
#
# Stress axis : x y z
#
# Youngs Moduli (GPa) = 59.79040 59.79364 49.99960
#
# Poissons Ratio (x) = 0.08163 0.33334
# Poissons Ratio (y) = 0.08162 0.33335
# Poissons Ratio (z) = 0.39862 0.39865
#
# Static dielectric constant tensor:
#      x y z
#    x 1.778120 0.000000 0.000000 
#    y 0.000000 1.778120 0.000000 
#    z 0.000000 0.000000 1.715300 
# 
# From -- ./inp_files/1577.got.cif
#   From: 2010.05.17/outbox.cif.g08.bks.cpg/sg90_1_cif.got.tgz:1577.got - 2010.06.03 19:17:45.
