data_PCOD9547679
_publ_section_title
;
Structure prediction by ZEFSAII (Michael W. Deem and Ramdas Pophale) SiO2 
 PCOD9547679
Probable space group: P 41 2 2
;
_chemical_formula_sum "Si O2"
_cell_formula_units_Z 56
_cell_length_a 14.948893
_cell_length_b 14.948893
_cell_length_c 13.616319
_cell_angle_alpha 90.000000
_cell_angle_beta 90.000000
_cell_angle_gamma 90.000000
_cell_volume 3042.830663
_symmetry_space_group_name_H-M "P 41 2 2"
_symmetry_group_IT_number 91
_symmetry_cell_setting 'tetragonal'
loop_
_space_group_symop_operation_xyz
x,y,z
-y,x,1/4+z
-x,-y,1/2+z
y,-x,3/4+z
x,-y,1/2-z
-x,y,-z
y,x,3/4-z
-y,-x,1/4-z
loop_
_atom_site_type_symbol
_atom_site_label
_atom_site_fract_x
_atom_site_fract_y
_atom_site_fract_z
Si Si1 0.099430 0.293689 0.532810
Si Si2 0.726447 0.731551 0.145893
Si Si3 0.327176 0.600573 0.229387
Si Si4 0.422287 0.845338 0.122367
Si Si5 0.832541 0.418453 0.006357
Si Si6 0.047999 0.478235 0.640863
Si Si7 0.588404 0.300297 0.062752
O O1 0.178327 0.244782 0.594350
O O2 0.141818 0.330830 0.432193
O O3 0.082173 0.384119 0.596658
O O4 0.000000 0.257572 0.500000
O O5 0.667991 0.815438 0.187865
O O6 0.732275 0.667785 0.240986
O O7 0.670234 0.669355 0.068902
O O8 0.360889 0.500000 0.250000
O O9 0.364806 0.635195 0.125000
O O10 0.219570 0.594171 0.216571
O O11 0.497109 0.801497 0.191521
O O12 0.462841 0.942195 0.101155
O O13 0.924077 0.446955 0.061482
O O14 0.770127 0.416425 0.100488
O O15 0.082669 0.500000 0.750000
O O16 0.610988 0.389013 0.125000
O O17 0.500000 0.308901 0.000000
#
# Coordination Sequence:
#
# PCOD9547679 Si02
#       7
#     8   8   8   8   8   8   8
#     4   9  18  32  50  75 105 142 186 243 302 354
#     4  11  21  35  56  75 106 148 194 246 295 365
#     4  12  24  38  57  74 108 154 206 251 299 342
#     4  10  19  35  54  79 106 149 194 239 301 356
#     4  10  19  33  54  77 105 143 193 238 297 360
#     4  10  19  31  54  81 112 143 193 241 301 366
#     4  10  21  34  53  70 100 144 199 251 308 343
#
# _framework density 18.403915000000001
#
# number of rings (size 3 to 8) (size 9 to 14) (size 15 to 20)
#    0.000    1.714    2.857    4.714    0.000    0.000 
#    0.000    2.143    0.000    0.000    0.000    0.000 
#    0.000    0.000    0.000   43.714    4.571    0.571 
#
# Total GULP energy -311743.513282 kJ/mol
# GULP energy per Si atom -5566.848451 kJ/mol
# Density = 1.836203 g / cm^3
# Si number density = 18.403915 Si / 1000 Ang^3
#
#
#
# Elastic Constant Matrix: (Units=GPa)
#
#
# Indices 1 2 3 4 5 6 
#
# 1 66.7265 16.5790 20.1982 0.0000 0.0000 0.0000
# 2 16.5790 66.7256 20.1988 0.0000 0.0000 0.0000
# 3 20.1982 20.1988 93.1196 0.0000 0.0000 0.0000
# 4 0.0000 0.0000 0.0000 28.3361 0.0000 0.0000
# 5 0.0000 0.0000 0.0000 0.0000 28.3363 0.0000
# 6 0.0000 0.0000 0.0000 0.0000 0.0000 10.3641
#
#
#
# Elastic Compliance Matrix: (Units=1/GPa)
#
#
# Indices 1 2 3 4 5 6 
#
# 1 0.016678 -0.003263 -0.002910 0.000000 0.000000 0.000000
# 2 -0.003263 0.016678 -0.002910 0.000000 0.000000 0.000000
# 3 -0.002910 -0.002910 0.012001 0.000000 0.000000 0.000000
# 4 0.000000 0.000000 0.000000 0.035291 0.000000 0.000000
# 5 0.000000 0.000000 0.000000 0.000000 0.035290 0.000000
# 6 0.000000 0.000000 0.000000 0.000000 0.000000 0.096487
#
#
# Mechanical properties :
#
#
# Convention : Reuss Voigt Hill
#
# Bulk Modulus (GPa) = 36.77544 37.83597 37.30571
# Shear Modulus (GPa) = 20.86329 24.71369 22.78849
#
# Velocity S-wave (km/s) = 3.37060 3.66847 3.52268
# Velocity P-wave (km/s) = 5.93074 6.20861 6.07127
#
# Compressibility (1/GPa) = 0.02719206
#
# Stress axis : x y z
#
# Youngs Moduli (GPa) = 59.95887 59.95777 83.32482
#
# Poissons Ratio (x) = 0.19565 0.24246
# Poissons Ratio (y) = 0.19565 0.24247
# Poissons Ratio (z) = 0.17447 0.17447
#
# Static dielectric constant tensor:
#      x y z
#    x 1.709860 0.000000 0.000000 
#    y 0.000000 1.709860 0.000000 
#    z 0.000000 0.000000 1.665020 
# 
# From -- ./inp_files/4984.got.cif
#   From: 2010.05.17/outbox.cif.g08.bks.cpg/sg91_3_cif.got.tgz:4984.got - 2010.06.03 19:20:03.
