data_PCOD9547748
_publ_section_title
;
Structure prediction by ZEFSAII (Michael W. Deem and Ramdas Pophale) SiO2 
 PCOD9547748
Probable space group: P 41 2 2
;
_chemical_formula_sum "Si O2"
_cell_formula_units_Z 36
_cell_length_a 14.210582
_cell_length_b 14.210582
_cell_length_c 10.495816
_cell_angle_alpha 90.000000
_cell_angle_beta 90.000000
_cell_angle_gamma 90.000000
_cell_volume 2119.531809
_symmetry_space_group_name_H-M "P 41 2 2"
_symmetry_group_IT_number 91
_symmetry_cell_setting 'tetragonal'
loop_
_space_group_symop_operation_xyz
x,y,z
-y,x,1/4+z
-x,-y,1/2+z
y,-x,3/4+z
x,-y,1/2-z
-x,y,-z
y,x,3/4-z
-y,-x,1/4-z
loop_
_atom_site_type_symbol
_atom_site_label
_atom_site_fract_x
_atom_site_fract_y
_atom_site_fract_z
Si Si1 0.500000 0.966414 0.500000
Si Si2 0.272202 0.272202 0.375000
Si Si3 0.500000 0.647586 0.500000
Si Si4 0.589578 0.678899 0.093865
Si Si5 0.812910 0.465739 0.056535
Si Si6 0.637921 0.086069 0.673234
O O1 0.558576 0.899082 0.402216
O O2 0.571040 0.033785 0.573545
O O3 0.321686 0.317771 0.499246
O O4 0.162138 0.292437 0.368069
O O5 0.414338 0.591693 0.433302
O O6 0.535433 0.720051 0.392994
O O7 0.585726 0.773801 0.180118
O O8 0.500000 0.677638 0.000000
O O9 0.851663 0.566830 0.009935
O O10 0.683257 0.000000 0.750000
#
# Coordination Sequence:
#
# PCOD9547748 Si02
#       6
#     4   4   4   8   8   8
#     4   9  20  36  61  82 108 144 195 252 305 340
#     4  12  22  38  58  82 112 154 196 240 296 356
#     4  11  22  38  47  78 118 168 207 228 277 330
#     4  12  22  38  52  79 121 167 204 236 276 342
#     4  10  20  37  55  77 111 154 195 250 280 340
#     4  10  19  36  57  82 109 141 192 244 300 349
#
# _framework density 16.984884999999998
#
# number of rings (size 3 to 8) (size 9 to 14) (size 15 to 20)
#    0.000    1.333    4.444    2.000    0.000    0.000 
#   20.000    0.000    0.000    0.000    0.000    3.111 
#    0.000    0.000    0.000    0.000    0.000    0.000 
#
# Total GULP energy -200467.381782 kJ/mol
# GULP energy per Si atom -5568.538383 kJ/mol
# Density = 1.694623 g / cm^3
# Si number density = 16.984885 Si / 1000 Ang^3
#
#
#
# Elastic Constant Matrix: (Units=GPa)
#
#
# Indices 1 2 3 4 5 6 
#
# 1 74.8316 43.6335 44.7253 0.0000 0.0000 0.0000
# 2 43.6335 74.8316 44.7253 0.0000 0.0000 0.0000
# 3 44.7253 44.7253 94.7645 0.0000 0.0000 0.0000
# 4 0.0000 0.0000 0.0000 11.5426 0.0000 0.0000
# 5 0.0000 0.0000 0.0000 0.0000 11.5426 0.0000
# 6 0.0000 0.0000 0.0000 0.0000 0.0000 12.5333
#
#
#
# Elastic Compliance Matrix: (Units=1/GPa)
#
#
# Indices 1 2 3 4 5 6 
#
# 1 0.022584 -0.009469 -0.006190 0.000000 0.000000 0.000000
# 2 -0.009469 0.022584 -0.006190 0.000000 0.000000 0.000000
# 3 -0.006190 -0.006190 0.016395 0.000000 0.000000 0.000000
# 4 0.000000 0.000000 0.000000 0.086635 0.000000 0.000000
# 5 0.000000 0.000000 0.000000 0.000000 0.086635 0.000000
# 6 0.000000 0.000000 0.000000 0.000000 0.000000 0.079788
#
#
# Mechanical properties :
#
#
# Convention : Reuss Voigt Hill
#
# Bulk Modulus (GPa) = 55.97194 56.73287 56.35240
# Shear Modulus (GPa) = 13.72590 14.54662 14.13626
#
# Velocity S-wave (km/s) = 2.84584 2.92968 2.88806
# Velocity P-wave (km/s) = 6.61996 6.70213 6.66117
#
# Compressibility (1/GPa) = 0.01786610
#
# Stress axis : x y z
#
# Youngs Moduli (GPa) = 44.27878 44.27878 60.99339
#
# Poissons Ratio (x) = 0.41928 0.37754
# Poissons Ratio (y) = 0.41928 0.37754
# Poissons Ratio (z) = 0.27408 0.27408
#
# Static dielectric constant tensor:
#      x y z
#    x 1.594950 0.000000 0.000000 
#    y 0.000000 1.594950 0.000000 
#    z 0.000000 0.000000 1.688700 
# 
# From -- ./inp_files/19373.got.cif
#   From: 2010.05.17/outbox.cif.g08.bks.cpg/sg91_10_cif.got.tgz:19373.got - 2010.06.03 19:20:03.
