data_PCOD9547301
_publ_section_title
;
Structure prediction by ZEFSAII (Michael W. Deem and Ramdas Pophale) SiO2 
 PCOD9547301
Probable space group: P 4 21 2
;
_chemical_formula_sum "Si O2"
_cell_formula_units_Z 36
_cell_length_a 8.989240
_cell_length_b 8.989240
_cell_length_c 21.474966
_cell_angle_alpha 90.000000
_cell_angle_beta 90.000000
_cell_angle_gamma 90.000000
_cell_volume 1735.315461
_symmetry_space_group_name_H-M "P 4 21 2"
_symmetry_group_IT_number 90
_symmetry_cell_setting 'tetragonal'
loop_
_space_group_symop_operation_xyz
x,y,z
1/2-y,1/2+x,z
-x,-y,z
1/2+y,1/2-x,z
1/2+x,1/2-y,-z
1/2-x,1/2+y,-z
y,x,-z
-y,-x,-z
loop_
_atom_site_type_symbol
_atom_site_label
_atom_site_fract_x
_atom_site_fract_y
_atom_site_fract_z
Si Si1 0.000000 0.500000 0.274218
Si Si2 0.488665 0.750395 0.896473
Si Si3 0.160705 0.058242 0.756685
Si Si4 0.210306 0.627120 0.666753
Si Si5 0.620697 0.220425 0.556802
Si Si6 0.000000 0.000000 0.000000
O O1 0.184739 0.492259 0.270198
O O2 0.635923 0.850995 0.898020
O O3 0.473527 0.670514 0.829985
O O4 0.493680 0.640574 0.954292
O O5 0.155552 0.230792 0.736263
O O6 0.000000 0.000000 0.733013
O O7 0.195366 0.451416 0.655467
O O8 0.327296 0.699021 0.619474
O O9 0.444043 0.193921 0.554499
O O10 0.682023 0.317978 0.500000
#
# Coordination Sequence:
#
# PCOD9547301 Si02
#       6
#     2   8   8   8   8   2
#     4  12  24  44  72 100 144 188 240 300 362 448
#     4  11  23  43  66  96 135 180 232 290 354 430
#     4  12  24  42  72 102 139 187 242 298 368 438
#     4  11  27  45  66 102 143 181 238 307 365 438
#     4  11  26  45  71 101 138 185 239 296 359 437
#     4  12  24  40  68 100 136 180 234 288 352 436
#
# _framework density 20.745509999999999
#
# number of rings (size 3 to 8) (size 9 to 14) (size 15 to 20)
#    0.000    0.667    3.333    3.333    6.222    4.000 
#    0.000    0.000    0.000    2.667    0.000    0.000 
#    0.000    0.000    0.000    0.000    0.000    0.000 
#
# Total GULP energy -200741.535757 kJ/mol
# GULP energy per Si atom -5576.153771 kJ/mol
# Density = 2.069829 g / cm^3
# Si number density = 20.745510 Si / 1000 Ang^3
#
#
#
# Elastic Constant Matrix: (Units=GPa)
#
#
# Indices 1 2 3 4 5 6 
#
# 1 113.7167 36.8278 37.5343 0.0000 0.0000 0.0000
# 2 36.8278 113.7141 37.5338 0.0000 0.0000 0.0000
# 3 37.5343 37.5338 96.6542 0.0000 0.0000 0.0000
# 4 0.0000 0.0000 0.0000 69.7000 0.0000 0.0000
# 5 0.0000 0.0000 0.0000 0.0000 69.7089 0.0000
# 6 0.0000 0.0000 0.0000 0.0000 0.0000 14.6201
#
#
#
# Elastic Compliance Matrix: (Units=1/GPa)
#
#
# Indices 1 2 3 4 5 6 
#
# 1 0.010622 -0.002384 -0.003199 0.000000 0.000000 0.000000
# 2 -0.002384 0.010622 -0.003199 0.000000 0.000000 0.000000
# 3 -0.003199 -0.003199 0.012831 0.000000 0.000000 0.000000
# 4 0.000000 0.000000 0.000000 0.014347 0.000000 0.000000
# 5 0.000000 0.000000 0.000000 0.000000 0.014345 0.000000
# 6 0.000000 0.000000 0.000000 0.000000 0.000000 0.068399
#
#
# Mechanical properties :
#
#
# Convention : Reuss Voigt Hill
#
# Bulk Modulus (GPa) = 60.56834 60.87519 60.72176
# Shear Modulus (GPa) = 32.41833 44.95174 38.68503
#
# Velocity S-wave (km/s) = 3.95735 4.65996 4.32295
# Velocity P-wave (km/s) = 7.08096 7.63944 7.36550
#
# Compressibility (1/GPa) = 0.01651028
#
# Stress axis : x y z
#
# Youngs Moduli (GPa) = 94.14617 94.14410 77.93787
#
# Poissons Ratio (x) = 0.22445 0.24932
# Poissons Ratio (y) = 0.22445 0.24933
# Poissons Ratio (z) = 0.30117 0.30117
#
# Static dielectric constant tensor:
#      x y z
#    x 1.729330 0.000000 0.000000 
#    y 0.000000 1.729330 0.000000 
#    z 0.000000 0.000000 1.742860 
# 
# From -- ./inp_files/2786.got.cif
#   From: 2010.05.17/outbox.cif.g08.bks.cpg/sg90_2_cif.got.tgz:2786.got - 2010.06.03 19:17:45.
