data_PCOD9547251
_publ_section_title
;
Structure prediction by ZEFSAII (Michael W. Deem and Ramdas Pophale) SiO2 
 PCOD9547251
Probable space group: P 4 21 2
;
_chemical_formula_sum "Si O2"
_cell_formula_units_Z 32
_cell_length_a 12.157470
_cell_length_b 12.157470
_cell_length_c 10.982941
_cell_angle_alpha 90.000000
_cell_angle_beta 90.000000
_cell_angle_gamma 90.000000
_cell_volume 1623.323455
_symmetry_space_group_name_H-M "P 4 21 2"
_symmetry_group_IT_number 90
_symmetry_cell_setting 'tetragonal'
loop_
_space_group_symop_operation_xyz
x,y,z
1/2-y,1/2+x,z
-x,-y,z
1/2+y,1/2-x,z
1/2+x,1/2-y,-z
1/2-x,1/2+y,-z
y,x,-z
-y,-x,-z
loop_
_atom_site_type_symbol
_atom_site_label
_atom_site_fract_x
_atom_site_fract_y
_atom_site_fract_z
Si Si1 0.684009 0.006609 0.978134
Si Si2 0.370952 0.700905 0.632068
Si Si3 0.904322 0.232933 0.277814
Si Si4 0.499777 0.629938 0.180255
O O1 0.602129 0.110171 0.998134
O O2 0.788541 0.997816 0.066095
O O3 0.726150 0.028293 0.841289
O O4 0.323887 0.676114 0.500000
O O5 0.502196 0.715207 0.622030
O O6 0.317299 0.811444 0.683935
O O7 0.351075 0.601424 0.727600
O O8 0.850837 0.116040 0.246414
O O9 0.500000 0.500000 0.147850
#
# Coordination Sequence:
#
# PCOD9547251 Si02
#       4
#     8   8   8   8
#     4  11  22  41  67  97 137 178 223 274 337 410
#     4  11  26  43  69  98 131 182 231 278 336 406
#     4  11  23  44  68  92 135 176 223 277 338 401
#     4  10  24  41  66 102 135 171 222 281 344 396
#
# _framework density 19.712647
#
# number of rings (size 3 to 8) (size 9 to 14) (size 15 to 20)
#    0.000    1.250    2.500    2.250    3.500   11.000 
#    0.000    0.000    0.000    0.000    0.000    0.000 
#    0.000    0.000    0.000    0.000    0.000    0.000 
#
# Total GULP energy -178877.178690 kJ/mol
# GULP energy per Si atom -5589.911834 kJ/mol
# Density = 1.966778 g / cm^3
# Si number density = 19.712647 Si / 1000 Ang^3
#
#
#
# Elastic Constant Matrix: (Units=GPa)
#
#
# Indices 1 2 3 4 5 6 
#
# 1 79.8305 33.5344 53.2637 0.0000 0.0000 0.0000
# 2 33.5344 79.8312 53.2636 0.0000 0.0000 0.0000
# 3 53.2637 53.2636 112.2146 0.0000 0.0000 0.0000
# 4 0.0000 0.0000 0.0000 21.3907 0.0000 0.0000
# 5 0.0000 0.0000 0.0000 0.0000 21.3918 0.0000
# 6 0.0000 0.0000 0.0000 0.0000 0.0000 29.4480
#
#
#
# Elastic Compliance Matrix: (Units=1/GPa)
#
#
# Indices 1 2 3 4 5 6 
#
# 1 0.018762 -0.002838 -0.007558 0.000000 0.000000 0.000000
# 2 -0.002838 0.018761 -0.007558 0.000000 0.000000 0.000000
# 3 -0.007558 -0.007558 0.016087 0.000000 0.000000 0.000000
# 4 0.000000 0.000000 0.000000 0.046749 0.000000 0.000000
# 5 0.000000 0.000000 0.000000 0.000000 0.046747 0.000000
# 6 0.000000 0.000000 0.000000 0.000000 0.000000 0.033958
#
#
# Mechanical properties :
#
#
# Convention : Reuss Voigt Hill
#
# Bulk Modulus (GPa) = 56.49520 61.33330 58.91425
# Shear Modulus (GPa) = 22.43425 23.23374 22.83400
#
# Velocity S-wave (km/s) = 3.37718 3.43683 3.40714
# Velocity P-wave (km/s) = 6.62787 6.85057 6.74014
#
# Compressibility (1/GPa) = 0.01770062
#
# Stress axis : x y z
#
# Youngs Moduli (GPa) = 53.29994 53.30070 62.16363
#
# Poissons Ratio (x) = 0.15128 0.46985
# Poissons Ratio (y) = 0.15128 0.46984
# Poissons Ratio (z) = 0.40285 0.40285
#
# Static dielectric constant tensor:
#      x y z
#    x 1.692700 0.000000 0.000000 
#    y 0.000000 1.692700 0.000000 
#    z 0.000000 0.000000 1.691380 
# 
# From -- ./inp_files/1848.got.cif
#   From: 2010.05.17/outbox.cif.g08.bks.cpg/sg90_1_cif.got.tgz:1848.got - 2010.06.03 19:17:45.
