data_PCOD9547169
_publ_section_title
;
Structure prediction by ZEFSAII (Michael W. Deem and Ramdas Pophale) SiO2 
 PCOD9547169
Probable space group: P 4 21 2
;
_chemical_formula_sum "Si O2"
_cell_formula_units_Z 44
_cell_length_a 12.504348
_cell_length_b 12.504348
_cell_length_c 12.661661
_cell_angle_alpha 90.000000
_cell_angle_beta 90.000000
_cell_angle_gamma 90.000000
_cell_volume 1979.761093
_symmetry_space_group_name_H-M "P 4 21 2"
_symmetry_group_IT_number 90
_symmetry_cell_setting 'tetragonal'
loop_
_space_group_symop_operation_xyz
x,y,z
1/2-y,1/2+x,z
-x,-y,z
1/2+y,1/2-x,z
1/2+x,1/2-y,-z
1/2-x,1/2+y,-z
y,x,-z
-y,-x,-z
loop_
_atom_site_type_symbol
_atom_site_label
_atom_site_fract_x
_atom_site_fract_y
_atom_site_fract_z
Si Si1 0.316904 0.592632 0.723695
Si Si2 0.711298 0.499232 0.196160
Si Si3 0.367564 0.632437 0.500000
Si Si4 0.161496 0.565792 0.393386
Si Si5 0.731072 0.637561 0.772269
Si Si6 0.557762 0.828972 0.019302
O O1 0.407166 0.619606 0.813306
O O2 0.386713 0.584681 0.615510
O O3 0.254236 0.481647 0.728031
O O4 0.227612 0.686932 0.730728
O O5 0.793688 0.436909 0.273594
O O6 0.668691 0.608062 0.249058
O O7 0.771495 0.544147 0.093533
O O8 0.245636 0.607309 0.476276
O O9 0.133333 0.443369 0.408903
O O10 0.750193 0.612033 0.896369
O O11 0.435821 0.870595 0.033458
#
# Coordination Sequence:
#
# PCOD9547169 Si02
#       6
#     8   8   4   8   8   8
#     4  11  26  45  69 103 143 189 239 297 376 435
#     4  11  23  42  68 101 140 189 238 297 353 426
#     4  10  24  44  67 103 130 182 240 300 362 427
#     4  10  21  41  67  99 134 177 237 291 350 424
#     4  12  24  45  69  98 149 181 234 302 359 439
#     4  11  22  40  69 104 141 189 239 289 357 432
#
# _framework density 22.224903999999999
#
# number of rings (size 3 to 8) (size 9 to 14) (size 15 to 20)
#    0.000    1.091    1.818    5.455    2.545    2.545 
#    0.000    5.455    0.000    0.000    0.000    0.000 
#    0.000    0.000    0.000    0.000    0.000    0.000 
#
# Total GULP energy -245119.574282 kJ/mol
# GULP energy per Si atom -5570.899416 kJ/mol
# Density = 2.217432 g / cm^3
# Si number density = 22.224904 Si / 1000 Ang^3
#
#
#
# Elastic Constant Matrix: (Units=GPa)
#
#
# Indices 1 2 3 4 5 6 
#
# 1 117.8876 49.3247 14.9542 0.0000 0.0000 0.0000
# 2 49.3247 117.8888 14.9545 0.0000 0.0000 0.0000
# 3 14.9542 14.9545 75.8797 0.0000 0.0000 0.0000
# 4 0.0000 0.0000 0.0000 29.6806 0.0000 0.0000
# 5 0.0000 0.0000 0.0000 0.0000 29.6800 0.0000
# 6 0.0000 0.0000 0.0000 0.0000 0.0000 34.4656
#
#
#
# Elastic Compliance Matrix: (Units=1/GPa)
#
#
# Indices 1 2 3 4 5 6 
#
# 1 0.010392 -0.004193 -0.001222 0.000000 0.000000 0.000000
# 2 -0.004193 0.010392 -0.001222 0.000000 0.000000 0.000000
# 3 -0.001222 -0.001222 0.013660 0.000000 0.000000 0.000000
# 4 0.000000 0.000000 0.000000 0.033692 0.000000 0.000000
# 5 0.000000 0.000000 0.000000 0.000000 0.033693 0.000000
# 6 0.000000 0.000000 0.000000 0.000000 0.000000 0.029014
#
#
# Mechanical properties :
#
#
# Convention : Reuss Voigt Hill
#
# Bulk Modulus (GPa) = 47.23353 52.23587 49.73470
# Shear Modulus (GPa) = 33.07460 34.26008 33.66734
#
# Velocity S-wave (km/s) = 3.86188 3.93048 3.89633
# Velocity P-wave (km/s) = 6.41748 6.64474 6.53210
#
# Compressibility (1/GPa) = 0.02117140
#
# Stress axis : x y z
#
# Youngs Moduli (GPa) = 96.22768 96.22862 73.20492
#
# Poissons Ratio (x) = 0.40349 0.08943
# Poissons Ratio (y) = 0.40349 0.08943
# Poissons Ratio (z) = 0.11756 0.11756
#
# Static dielectric constant tensor:
#      x y z
#    x 1.876230 0.000000 0.000000 
#    y 0.000000 1.876230 0.000000 
#    z 0.000000 0.000000 1.811750 
# 
# From -- ./inp_files/2087.got.cif
#   From: 2010.05.17/outbox.cif.g08.bks.cpg/sg90_2_cif.got.tgz:2087.got - 2010.06.03 19:17:45.
