data_PCOD9547907
_publ_section_title
;
Structure prediction by ZEFSAII (Michael W. Deem and Ramdas Pophale) SiO2 
 PCOD9547907
Probable space group: P 41 2 2
;
_chemical_formula_sum "Si O2"
_cell_formula_units_Z 28
_cell_length_a 9.610584
_cell_length_b 9.610584
_cell_length_c 12.303716
_cell_angle_alpha 90.000000
_cell_angle_beta 90.000000
_cell_angle_gamma 90.000000
_cell_volume 1136.412117
_symmetry_space_group_name_H-M "P 41 2 2"
_symmetry_group_IT_number 91
_symmetry_cell_setting 'tetragonal'
loop_
_space_group_symop_operation_xyz
x,y,z
-y,x,1/4+z
-x,-y,1/2+z
y,-x,3/4+z
x,-y,1/2-z
-x,y,-z
y,x,3/4-z
-y,-x,1/4-z
loop_
_atom_site_type_symbol
_atom_site_label
_atom_site_fract_x
_atom_site_fract_y
_atom_site_fract_z
Si Si1 0.449094 0.803360 0.353658
Si Si2 0.279477 0.482234 0.130425
Si Si3 0.000000 0.216751 0.000000
Si Si4 0.700433 0.086220 0.031710
O O1 0.353399 0.668276 0.373273
O O2 0.483476 0.808734 0.226791
O O3 0.870332 0.859020 0.262522
O O4 0.597037 0.799024 0.415169
O O5 0.213353 0.500000 0.250000
O O6 0.405777 0.594224 0.125000
O O7 0.018063 0.295120 0.115816
O O8 0.367850 0.069953 0.086787
#
# Coordination Sequence:
#
# PCOD9547907 Si02
#       4
#     8   8   4   8
#     4  10  20  36  63 104 129 181 222 283 324 426
#     4   9  18  27  53  95 132 176 229 266 315 397
#     4  10  20  38  60 102 120 188 218 288 326 436
#     4  10  22  35  68  91 128 162 242 266 341 395
#
# _framework density 24.638949
#
# number of rings (size 3 to 8) (size 9 to 14) (size 15 to 20)
#    0.000    2.286    0.000    3.429   16.000    0.000 
#    0.000    0.000   62.857   27.429   52.000    0.000 
#    0.000    0.000    0.000    0.000    0.000    0.000 
#
# Total GULP energy -156165.678978 kJ/mol
# GULP energy per Si atom -5577.345678 kJ/mol
# Density = 2.458287 g / cm^3
# Si number density = 24.638949 Si / 1000 Ang^3
#
#
#
# Elastic Constant Matrix: (Units=GPa)
#
#
# Indices 1 2 3 4 5 6 
#
# 1 102.3652 32.4952 66.9893 0.0000 0.0000 0.0000
# 2 32.4952 102.3653 66.9900 0.0000 0.0000 0.0000
# 3 66.9893 66.9900 275.7079 0.0000 0.0000 0.0000
# 4 0.0000 0.0000 0.0000 54.4473 0.0000 0.0000
# 5 0.0000 0.0000 0.0000 0.0000 54.4470 0.0000
# 6 0.0000 0.0000 0.0000 0.0000 0.0000 21.4052
#
#
#
# Elastic Compliance Matrix: (Units=1/GPa)
#
#
# Indices 1 2 3 4 5 6 
#
# 1 0.012043 -0.002269 -0.002375 0.000000 0.000000 0.000000
# 2 -0.002269 0.012043 -0.002375 0.000000 0.000000 0.000000
# 3 -0.002375 -0.002375 0.004781 0.000000 0.000000 0.000000
# 4 0.000000 0.000000 0.000000 0.018366 0.000000 0.000000
# 5 0.000000 0.000000 0.000000 0.000000 0.018366 0.000000
# 6 0.000000 0.000000 0.000000 0.000000 0.000000 0.046718
#
#
# Mechanical properties :
#
#
# Convention : Reuss Voigt Hill
#
# Bulk Modulus (GPa) = 67.42930 90.37640 78.90285
# Shear Modulus (GPa) = 38.08090 46.99081 42.53585
#
# Velocity S-wave (km/s) = 3.93562 4.37186 4.15946
# Velocity P-wave (km/s) = 6.93387 7.88950 7.42707
#
# Compressibility (1/GPa) = 0.01483035
#
# Stress axis : x y z
#
# Youngs Moduli (GPa) = 83.03320 83.03302 209.15589
#
# Poissons Ratio (x) = 0.18839 0.49673
# Poissons Ratio (y) = 0.18839 0.49674
# Poissons Ratio (z) = 0.19720 0.19720
#
# Static dielectric constant tensor:
#      x y z
#    x 1.970480 0.000000 0.000000 
#    y 0.000000 1.970480 0.000000 
#    z 0.000000 0.000000 2.092680 
# 
# From -- ./inp_files/5331.got.cif
#   From: 2010.05.17/outbox.cif.g08.bks.cpg/sg91_3_cif.got.tgz:5331.got - 2010.06.03 19:20:03.
