data_PCOD9547884
_publ_section_title
;
Structure prediction by ZEFSAII (Michael W. Deem and Ramdas Pophale) SiO2 
 PCOD9547884
Probable space group: P 41 2 2
;
_chemical_formula_sum "Si O2"
_cell_formula_units_Z 48
_cell_length_a 8.921252
_cell_length_b 8.921252
_cell_length_c 32.406499
_cell_angle_alpha 90.000000
_cell_angle_beta 90.000000
_cell_angle_gamma 90.000000
_cell_volume 2579.192334
_symmetry_space_group_name_H-M "P 41 2 2"
_symmetry_group_IT_number 91
_symmetry_cell_setting 'tetragonal'
loop_
_space_group_symop_operation_xyz
x,y,z
-y,x,1/4+z
-x,-y,1/2+z
y,-x,3/4+z
x,-y,1/2-z
-x,y,-z
y,x,3/4-z
-y,-x,1/4-z
loop_
_atom_site_type_symbol
_atom_site_label
_atom_site_fract_x
_atom_site_fract_y
_atom_site_fract_z
Si Si1 0.203679 0.846289 0.423392
Si Si2 0.301100 0.813503 0.914895
Si Si3 0.657465 0.819426 0.252623
Si Si4 0.156276 0.135976 0.921357
Si Si5 0.177774 0.680143 0.993392
Si Si6 0.595104 0.103903 0.541234
O O1 0.219914 0.748121 0.381871
O O2 0.235219 0.748562 0.463618
O O3 0.025025 0.889118 0.424756
O O4 0.316806 0.984159 0.430281
O O5 0.474160 0.813646 0.929206
O O6 0.240559 0.979539 0.925939
O O7 0.211286 0.707273 0.945523
O O8 0.746160 0.789616 0.294728
O O9 0.488128 0.768837 0.248764
O O10 0.651890 0.000000 0.250000
O O11 0.188586 0.188586 0.875000
O O12 0.276380 0.791553 0.021166
O O13 0.000000 0.698923 0.000000
O O14 0.500000 0.050565 0.500000
#
# Coordination Sequence:
#
# PCOD9547884 Si02
#       6
#     8   8   8   8   8   8
#     4  10  20  36  58  82 110 144 184 231 278 332
#     4  10  21  36  55  83 112 141 183 233 279 327
#     4   9  18  33  55  81 110 142 181 228 277 328
#     4   9  18  34  58  86 109 140 188 233 273 328
#     4  10  20  36  58  82 109 148 188 227 277 329
#     4  10  21  37  57  82 114 147 183 230 280 332
#
# _framework density 18.610479000000002
#
# number of rings (size 3 to 8) (size 9 to 14) (size 15 to 20)
#    0.000    2.333    0.000    3.000    0.000    6.667 
#    0.000   10.000    0.000    0.000    0.000    0.000 
#    0.000    0.000    0.000    0.000    0.000    0.000 
#
# Total GULP energy -267433.771417 kJ/mol
# GULP energy per Si atom -5571.536905 kJ/mol
# Density = 1.856812 g / cm^3
# Si number density = 18.610479 Si / 1000 Ang^3
#
#
#
# Elastic Constant Matrix: (Units=GPa)
#
#
# Indices 1 2 3 4 5 6 
#
# 1 61.8585 27.4515 46.9617 0.0000 0.0000 0.0000
# 2 27.4515 61.8585 46.9617 0.0000 0.0000 0.0000
# 3 46.9617 46.9617 131.2958 0.0000 0.0000 0.0000
# 4 0.0000 0.0000 0.0000 -6.3819 0.0000 0.0000
# 5 0.0000 0.0000 0.0000 0.0000 -6.3819 0.0000
# 6 0.0000 0.0000 0.0000 0.0000 0.0000 -16.9096
#
#
#
# Elastic Compliance Matrix: (Units=1/GPa)
#
#
# Indices 1 2 3 4 5 6 
#
# 1 0.023506 -0.005558 -0.006420 0.000000 0.000000 0.000000
# 2 -0.005558 0.023506 -0.006420 0.000000 0.000000 0.000000
# 3 -0.006420 -0.006420 0.012209 0.000000 0.000000 0.000000
# 4 0.000000 0.000000 0.000000 -0.156693 0.000000 0.000000
# 5 0.000000 0.000000 0.000000 0.000000 -0.156693 0.000000
# 6 0.000000 0.000000 0.000000 0.000000 0.000000 -0.059138
#
#
# Mechanical properties :
#
#
# Convention : Reuss Voigt Hill
#
# Bulk Modulus (GPa) = 44.59016 55.30694 49.94855
# Shear Modulus (GPa) = -18.58505 2.97452 -7.80527
#
# Velocity S-wave (km/s) = -3.16355 1.26561 -2.05015
# Velocity P-wave (km/s) = 3.26614 5.64964 4.61444
#
# Compressibility (1/GPa) = 0.02242647
#
# Stress axis : x y z
#
# Youngs Moduli (GPa) = 42.54221 42.54221 81.90837
#
# Poissons Ratio (x) = 0.23644 0.52583
# Poissons Ratio (y) = 0.23644 0.52583
# Poissons Ratio (z) = 0.27311 0.27311
#
# Static dielectric constant tensor:
#      x y z
#    x 1.705990 0.000000 0.000000 
#    y 0.000000 1.705990 0.000000 
#    z 0.000000 0.000000 1.614140 
# 
# From -- ./inp_files/7961.got.cif
#   From: 2010.05.17/outbox.cif.g08.bks.cpg/sg91_4_cif.got.tgz:7961.got - 2010.06.03 19:20:03.
