data_PCOD9547584
_publ_section_title
;
Structure prediction by ZEFSAII (Michael W. Deem and Ramdas Pophale) SiO2 
 PCOD9547584
Probable space group: P 41 2 2
;
_chemical_formula_sum "Si O2"
_cell_formula_units_Z 28
_cell_length_a 14.810657
_cell_length_b 14.810657
_cell_length_c 7.642004
_cell_angle_alpha 90.000000
_cell_angle_beta 90.000000
_cell_angle_gamma 90.000000
_cell_volume 1676.316073
_symmetry_space_group_name_H-M "P 41 2 2"
_symmetry_group_IT_number 91
_symmetry_cell_setting 'tetragonal'
loop_
_space_group_symop_operation_xyz
x,y,z
-y,x,1/4+z
-x,-y,1/2+z
y,-x,3/4+z
x,-y,1/2-z
-x,y,-z
y,x,3/4-z
-y,-x,1/4-z
loop_
_atom_site_type_symbol
_atom_site_label
_atom_site_fract_x
_atom_site_fract_y
_atom_site_fract_z
Si Si1 0.000000 0.646058 0.000000
Si Si2 0.071827 0.500000 0.250000
Si Si3 0.306498 0.796837 0.273566
Si Si4 0.512704 0.209598 0.200654
Si Si5 0.691593 0.691593 0.375000
O O1 0.984860 0.579995 0.834994
O O2 0.094568 0.696626 0.977511
O O3 0.133967 0.539022 0.407725
O O4 0.411025 0.766463 0.239530
O O5 0.285795 0.755749 0.462464
O O6 0.244201 0.755800 0.125000
O O7 0.588879 0.286589 0.185004
O O8 0.500000 0.176662 0.000000
#
# Coordination Sequence:
#
# PCOD9547584 Si02
#       5
#     4   4   8   8   4
#     4  10  22  34  56  84 112 140 184 236 286 328
#     4  10  20  32  50  80 112 142 178 232 278 324
#     4  10  21  37  53  81 113 146 183 233 275 324
#     4   9  19  34  53  78 111 149 181 219 271 318
#     4  10  18  32  58  76 114 148 182 218 264 334
#
# _framework density 16.703294
#
# number of rings (size 3 to 8) (size 9 to 14) (size 15 to 20)
#    0.000    2.286    0.000    3.429   16.000    0.000 
#    0.000    0.000   28.286    0.000    3.714    0.000 
#    0.000    0.000    0.000    0.000    0.000    0.000 
#
# Total GULP energy -155962.563723 kJ/mol
# GULP energy per Si atom -5570.091562 kJ/mol
# Density = 1.666528 g / cm^3
# Si number density = 16.703294 Si / 1000 Ang^3
#
#
#
# Elastic Constant Matrix: (Units=GPa)
#
#
# Indices 1 2 3 4 5 6 
#
# 1 108.2565 62.7713 55.2572 0.0000 0.0000 0.0000
# 2 62.7713 108.2582 55.2554 0.0000 0.0000 0.0000
# 3 55.2572 55.2554 106.1977 0.0000 0.0000 0.0000
# 4 0.0000 0.0000 0.0000 34.1067 0.0000 0.0000
# 5 0.0000 0.0000 0.0000 0.0000 34.1068 0.0000
# 6 0.0000 0.0000 0.0000 0.0000 0.0000 14.2809
#
#
#
# Elastic Compliance Matrix: (Units=1/GPa)
#
#
# Indices 1 2 3 4 5 6 
#
# 1 0.015397 -0.006588 -0.004584 0.000000 0.000000 0.000000
# 2 -0.006588 0.015396 -0.004583 0.000000 0.000000 0.000000
# 3 -0.004584 -0.004583 0.014186 0.000000 0.000000 0.000000
# 4 0.000000 0.000000 0.000000 0.029320 0.000000 0.000000
# 5 0.000000 0.000000 0.000000 0.000000 0.029320 0.000000
# 6 0.000000 0.000000 0.000000 0.000000 0.000000 0.070023
#
#
# Mechanical properties :
#
#
# Convention : Reuss Voigt Hill
#
# Bulk Modulus (GPa) = 74.23903 74.36447 74.30175
# Shear Modulus (GPa) = 23.85029 26.46076 25.15553
#
# Velocity S-wave (km/s) = 3.78283 3.98447 3.88496
# Velocity P-wave (km/s) = 7.97634 8.11083 8.04386
#
# Compressibility (1/GPa) = 0.01347000
#
# Stress axis : x y z
#
# Youngs Moduli (GPa) = 64.94779 64.95076 70.49300
#
# Poissons Ratio (x) = 0.42791 0.32311
# Poissons Ratio (y) = 0.42789 0.32306
# Poissons Ratio (z) = 0.29769 0.29766
#
# Static dielectric constant tensor:
#      x y z
#    x 1.581350 0.000000 0.000000 
#    y 0.000000 1.581350 0.000000 
#    z 0.000000 0.000000 1.596840 
# 
# From -- ./inp_files/19216.got.cif
#   From: 2010.05.17/outbox.cif.g08.bks.cpg/sg91_10_cif.got.tgz:19216.got - 2010.06.03 19:20:03.
