data_PCOD9547753
_publ_section_title
;
Structure prediction by ZEFSAII (Michael W. Deem and Ramdas Pophale) SiO2 
 PCOD9547753
Probable space group: P 41 2 2
;
_chemical_formula_sum "Si O2"
_cell_formula_units_Z 56
_cell_length_a 12.161031
_cell_length_b 12.161031
_cell_length_c 20.423081
_cell_angle_alpha 90.000000
_cell_angle_beta 90.000000
_cell_angle_gamma 90.000000
_cell_volume 3020.383234
_symmetry_space_group_name_H-M "P 41 2 2"
_symmetry_group_IT_number 91
_symmetry_cell_setting 'tetragonal'
loop_
_space_group_symop_operation_xyz
x,y,z
-y,x,1/4+z
-x,-y,1/2+z
y,-x,3/4+z
x,-y,1/2-z
-x,y,-z
y,x,3/4-z
-y,-x,1/4-z
loop_
_atom_site_type_symbol
_atom_site_label
_atom_site_fract_x
_atom_site_fract_y
_atom_site_fract_z
Si Si1 0.270901 0.137568 0.928295
Si Si2 0.273600 0.114566 0.571884
Si Si3 0.518093 0.787302 0.768190
Si Si4 0.848378 0.524412 0.134326
Si Si5 0.907784 0.473139 0.650360
Si Si6 0.757804 0.282723 0.696182
Si Si7 0.275705 0.279136 0.692847
O O1 0.203867 0.203867 0.875000
O O2 0.399955 0.150686 0.910371
O O3 0.235018 0.010582 0.925382
O O4 0.253106 0.194198 0.997907
O O5 0.406089 0.101131 0.569751
O O6 0.232645 0.177007 0.507230
O O7 0.255512 0.190764 0.635100
O O8 0.522705 0.830676 0.694032
O O9 0.519791 0.883494 0.822638
O O10 0.628827 0.717901 0.784613
O O11 0.401899 0.727505 0.782315
O O12 0.755331 0.601060 0.165331
O O13 0.968149 0.570915 0.155985
O O14 0.813076 0.400135 0.682299
O O15 0.773076 0.226925 0.625000
#
# Coordination Sequence:
#
# PCOD9547753 Si02
#       7
#     8   8   8   8   8   8   8
#     4  11  23  40  64  89 121 156 207 258 302 363
#     4  10  21  38  62  87 115 163 205 257 299 352
#     4  10  20  36  59  91 126 159 195 251 310 367
#     4  11  20  39  62  89 123 159 202 254 301 362
#     4   9  20  34  62  89 113 158 215 252 291 352
#     4  10  19  36  58  88 122 153 196 248 303 358
#     4  11  22  38  63  93 123 159 204 246 312 373
#
# _framework density 18.540693000000001
#
# number of rings (size 3 to 8) (size 9 to 14) (size 15 to 20)
#    0.000    1.714    2.857    2.143    0.000    2.857 
#    0.000    6.429    0.000   12.000    0.000    0.000 
#    0.000    0.000    0.000    0.000    0.000    0.000 
#
# Total GULP energy -312283.517657 kJ/mol
# GULP energy per Si atom -5576.491387 kJ/mol
# Density = 1.849849 g / cm^3
# Si number density = 18.540693 Si / 1000 Ang^3
#
#
#
# Elastic Constant Matrix: (Units=GPa)
#
#
# Indices 1 2 3 4 5 6 
#
# 1 89.4177 47.7611 35.9467 0.0000 0.0000 0.0000
# 2 47.7611 89.4181 35.9468 0.0000 0.0000 0.0000
# 3 35.9467 35.9468 137.0874 0.0000 0.0000 0.0000
# 4 0.0000 0.0000 0.0000 10.5691 0.0000 0.0000
# 5 0.0000 0.0000 0.0000 0.0000 10.5691 0.0000
# 6 0.0000 0.0000 0.0000 0.0000 0.0000 3.8670
#
#
#
# Elastic Compliance Matrix: (Units=1/GPa)
#
#
# Indices 1 2 3 4 5 6 
#
# 1 0.016228 -0.007777 -0.002216 0.000000 0.000000 0.000000
# 2 -0.007777 0.016228 -0.002216 0.000000 0.000000 0.000000
# 3 -0.002216 -0.002216 0.008457 0.000000 0.000000 0.000000
# 4 0.000000 0.000000 0.000000 0.094616 0.000000 0.000000
# 5 0.000000 0.000000 0.000000 0.000000 0.094616 0.000000
# 6 0.000000 0.000000 0.000000 0.000000 0.000000 0.258599
#
#
# Mechanical properties :
#
#
# Convention : Reuss Voigt Hill
#
# Bulk Modulus (GPa) = 60.62476 61.69248 61.15862
# Shear Modulus (GPa) = 9.64021 18.08561 13.86291
#
# Velocity S-wave (km/s) = 2.28271 3.12662 2.73738
# Velocity P-wave (km/s) = 6.30213 6.81033 6.56116
#
# Compressibility (1/GPa) = 0.01649491
#
# Stress axis : x y z
#
# Youngs Moduli (GPa) = 61.62023 61.62042 118.24832
#
# Poissons Ratio (x) = 0.47924 0.26204
# Poissons Ratio (y) = 0.47924 0.26204
# Poissons Ratio (z) = 0.13655 0.13655
#
# Static dielectric constant tensor:
#      x y z
#    x 1.631370 0.000000 0.000000 
#    y 0.000000 1.631380 0.000000 
#    z 0.000000 0.000000 1.678590 
# 
# From -- ./inp_files/6392.got.cif
#   From: 2010.05.17/outbox.cif.g08.bks.cpg/sg91_4_cif.got.tgz:6392.got - 2010.06.03 19:20:03.
