data_PCOD9547219
_publ_section_title
;
Structure prediction by ZEFSAII (Michael W. Deem and Ramdas Pophale) SiO2 
 PCOD9547219
Probable space group: P 4 21 2
;
_chemical_formula_sum "Si O2"
_cell_formula_units_Z 48
_cell_length_a 11.229611
_cell_length_b 11.229611
_cell_length_c 20.188757
_cell_angle_alpha 90.000000
_cell_angle_beta 90.000000
_cell_angle_gamma 90.000000
_cell_volume 2545.886308
_symmetry_space_group_name_H-M "P 4 21 2"
_symmetry_group_IT_number 90
_symmetry_cell_setting 'tetragonal'
loop_
_space_group_symop_operation_xyz
x,y,z
1/2-y,1/2+x,z
-x,-y,z
1/2+y,1/2-x,z
1/2+x,1/2-y,-z
1/2-x,1/2+y,-z
y,x,-z
-y,-x,-z
loop_
_atom_site_type_symbol
_atom_site_label
_atom_site_fract_x
_atom_site_fract_y
_atom_site_fract_z
Si Si1 0.463533 0.196907 1.000000
Si Si2 0.970500 0.301157 0.355216
Si Si3 0.470500 0.198843 0.355216
Si Si4 0.473197 0.200157 0.500000
Si Si5 0.398292 0.398292 0.897742
Si Si6 0.399733 0.399733 0.745228
O O1 0.591988 0.134312 1.000000
O O2 0.444635 0.282406 0.936883
O O3 0.444635 0.282406 0.063117
O O4 0.869774 0.403743 0.351809
O O5 0.964442 0.240232 0.428187
O O6 0.949744 0.211341 0.295996
O O7 0.596257 0.130226 0.351809
O O8 0.464442 0.259768 0.428187
O O9 0.449744 0.288659 0.295996
O O10 0.597899 0.128253 0.500000
O O11 0.500000 0.500000 0.901619
O O12 0.370866 0.370866 0.821330
O O13 0.500000 0.500000 0.746430
#
# Coordination Sequence:
#
# PCOD9547219 Si02
#       6
#     8   8   8   8   8   8
#     4  10  22  41  69  97 114 142 193 238 274 335
#     4   9  19  37  60  82 111 155 202 248 297 345
#     4   9  19  37  60  82 111 155 202 248 297 345
#     4   7  12  29  56  81 105 143 198 252 299 340
#     4  10  24  41  61  88 126 161 181 225 293 337
#     4  11  25  39  55  86 125 158 191 231 284 349
#
# _framework density 18.853945
#
# number of rings (size 3 to 8) (size 9 to 14) (size 15 to 20)
#    0.000    2.667    0.000    3.000    7.000    3.333 
#    0.000    5.000    0.000    0.000    0.000    0.000 
#    0.000    0.000    0.000    0.000    0.000    0.000 
#
# Total GULP energy -267722.658971 kJ/mol
# GULP energy per Si atom -5577.555395 kJ/mol
# Density = 1.881103 g / cm^3
# Si number density = 18.853945 Si / 1000 Ang^3
#
#
#
# Elastic Constant Matrix: (Units=GPa)
#
#
# Indices 1 2 3 4 5 6 
#
# 1 76.9075 26.3108 62.6221 0.0000 0.0000 0.0000
# 2 26.3108 76.9075 62.6221 0.0000 0.0000 0.0000
# 3 62.6221 62.6221 223.2342 0.0000 0.0000 0.0000
# 4 0.0000 0.0000 0.0000 19.5725 0.0000 0.0000
# 5 0.0000 0.0000 0.0000 0.0000 19.5725 0.0000
# 6 0.0000 0.0000 0.0000 0.0000 0.0000 17.2289
#
#
#
# Elastic Compliance Matrix: (Units=1/GPa)
#
#
# Indices 1 2 3 4 5 6 
#
# 1 0.017226 -0.002538 -0.004120 0.000000 0.000000 0.000000
# 2 -0.002538 0.017226 -0.004120 0.000000 0.000000 0.000000
# 3 -0.004120 -0.004120 0.006791 0.000000 0.000000 0.000000
# 4 0.000000 0.000000 0.000000 0.051092 0.000000 0.000000
# 5 0.000000 0.000000 0.000000 0.000000 0.051092 0.000000
# 6 0.000000 0.000000 0.000000 0.000000 0.000000 0.058042
#
#
# Mechanical properties :
#
#
# Convention : Reuss Voigt Hill
#
# Bulk Modulus (GPa) = 50.79838 75.57325 63.18581
# Shear Modulus (GPa) = 21.77810 26.30771 24.04290
#
# Velocity S-wave (km/s) = 3.40236 3.73948 3.57489
# Velocity P-wave (km/s) = 6.51431 7.66913 7.11519
#
# Compressibility (1/GPa) = 0.01968567
#
# Stress axis : x y z
#
# Youngs Moduli (GPa) = 58.05214 58.05214 147.24899
#
# Poissons Ratio (x) = 0.14735 0.60670
# Poissons Ratio (y) = 0.14735 0.60670
# Poissons Ratio (z) = 0.23919 0.23919
#
# Static dielectric constant tensor:
#      x y z
#    x 1.647310 0.000000 0.000000 
#    y 0.000000 1.647310 0.000000 
#    z 0.000000 0.000000 1.661640 
# 
# From -- ./inp_files/2660.got.cif
#   From: 2010.05.17/outbox.cif.g08.bks.cpg/sg90_2_cif.got.tgz:2660.got - 2010.06.03 19:17:45.
