data_PCOD9547898
_publ_section_title
;
Structure prediction by ZEFSAII (Michael W. Deem and Ramdas Pophale) SiO2 
 PCOD9547898
Probable space group: P 41 2 2
;
_chemical_formula_sum "Si O2"
_cell_formula_units_Z 60
_cell_length_a 12.213618
_cell_length_b 12.213618
_cell_length_c 18.765034
_cell_angle_alpha 90.000000
_cell_angle_beta 90.000000
_cell_angle_gamma 90.000000
_cell_volume 2799.226371
_symmetry_space_group_name_H-M "P 41 2 2"
_symmetry_group_IT_number 91
_symmetry_cell_setting 'tetragonal'
loop_
_space_group_symop_operation_xyz
x,y,z
-y,x,1/4+z
-x,-y,1/2+z
y,-x,3/4+z
x,-y,1/2-z
-x,y,-z
y,x,3/4-z
-y,-x,1/4-z
loop_
_atom_site_type_symbol
_atom_site_label
_atom_site_fract_x
_atom_site_fract_y
_atom_site_fract_z
Si Si1 0.829045 0.781068 0.742729
Si Si2 0.501383 0.101706 0.647495
Si Si3 0.143270 0.682554 0.628508
Si Si4 0.000000 0.312824 0.500000
Si Si5 0.582527 0.307612 0.562019
Si Si6 0.531670 0.114344 0.922556
Si Si7 0.761721 0.926052 0.535194
Si Si8 0.914225 0.737311 0.583046
O O1 0.745373 0.693183 0.777490
O O2 0.868418 0.743835 0.664390
O O3 0.943762 0.785773 0.788227
O O4 0.769025 0.898007 0.735481
O O5 0.600953 0.053844 0.693990
O O6 0.528220 0.209886 0.605960
O O7 0.387178 0.115336 0.689578
O O8 0.490195 0.010594 0.585282
O O9 0.255156 0.744845 0.625000
O O10 0.165068 0.553585 0.617144
O O11 0.099115 0.712139 0.707545
O O12 0.046254 0.733206 0.581162
O O13 0.500000 0.344404 0.500000
O O14 0.607798 0.392203 0.625000
O O15 0.661085 0.111969 0.914017
O O16 0.500000 0.159579 0.000000
O O17 0.862294 0.844988 0.548380
#
# Coordination Sequence:
#
# PCOD9547898 Si02
#       8
#     8   8   8   4   8   8   8   8
#     4  11  23  39  63 101 140 175 229 295 365 438
#     4  11  21  38  63  93 133 175 233 288 345 427
#     4   9  20  34  54  85 119 163 221 268 332 409
#     4  12  26  38  56 106 138 170 232 302 366 410
#     4  12  23  43  75 107 142 189 243 309 381 448
#     4   9  17  34  60  83 109 162 224 273 324 409
#     4  10  20  36  61  88 128 173 217 279 356 419
#     4  10  22  37  60  89 123 178 223 277 339 433
#
# _framework density 21.434494999999998
#
# number of rings (size 3 to 8) (size 9 to 14) (size 15 to 20)
#    0.000    1.600    4.000    2.000    0.000    4.800 
#    0.000    0.000    0.000    3.200    3.467    0.000 
#    0.000    0.000    0.000    0.000    0.000    0.000 
#
# Total GULP energy -334290.700394 kJ/mol
# GULP energy per Si atom -5571.511673 kJ/mol
# Density = 2.138571 g / cm^3
# Si number density = 21.434495 Si / 1000 Ang^3
#
#
#
# Elastic Constant Matrix: (Units=GPa)
#
#
# Indices 1 2 3 4 5 6 
#
# 1 99.3374 73.9693 31.3813 0.0000 0.0000 0.0000
# 2 73.9693 99.3425 31.3810 0.0000 0.0000 0.0000
# 3 31.3813 31.3810 64.5951 0.0000 0.0000 0.0000
# 4 0.0000 0.0000 0.0000 28.6222 0.0000 0.0000
# 5 0.0000 0.0000 0.0000 0.0000 28.6235 0.0000
# 6 0.0000 0.0000 0.0000 0.0000 0.0000 32.1584
#
#
#
# Elastic Compliance Matrix: (Units=1/GPa)
#
#
# Indices 1 2 3 4 5 6 
#
# 1 0.023209 -0.016207 -0.003402 0.000000 0.000000 0.000000
# 2 -0.016207 0.023208 -0.003401 0.000000 0.000000 0.000000
# 3 -0.003402 -0.003401 0.018786 0.000000 0.000000 0.000000
# 4 0.000000 0.000000 0.000000 0.034938 0.000000 0.000000
# 5 0.000000 0.000000 0.000000 0.000000 0.034936 0.000000
# 6 0.000000 0.000000 0.000000 0.000000 0.000000 0.031096
#
#
# Mechanical properties :
#
#
# Convention : Reuss Voigt Hill
#
# Bulk Modulus (GPa) = 52.12817 59.63759 55.88288
# Shear Modulus (GPa) = 22.87402 26.31704 24.59553
#
# Velocity S-wave (km/s) = 3.27028 3.50778 3.39111
# Velocity P-wave (km/s) = 6.21548 6.65505 6.43902
#
# Compressibility (1/GPa) = 0.01918348
#
# Stress axis : x y z
#
# Youngs Moduli (GPa) = 43.08584 43.08863 53.23072
#
# Poissons Ratio (x) = 0.69833 0.18110
# Poissons Ratio (y) = 0.69829 0.18104
# Poissons Ratio (z) = 0.14658 0.14655
#
# Static dielectric constant tensor:
#      x y z
#    x 1.950360 0.000000 0.000000 
#    y 0.000000 1.950310 0.000000 
#    z 0.000000 0.000000 1.926310 
# 
# From -- ./inp_files/6473.got.cif
#   From: 2010.05.17/outbox.cif.g08.bks.cpg/sg91_4_cif.got.tgz:6473.got - 2010.06.03 19:20:03.
