data_PCOD9547811
_publ_section_title
;
Structure prediction by ZEFSAII (Michael W. Deem and Ramdas Pophale) SiO2 
 PCOD9547811
Probable space group: P 41 2 2
;
_chemical_formula_sum "Si O2"
_cell_formula_units_Z 40
_cell_length_a 7.164601
_cell_length_b 7.164601
_cell_length_c 24.398709
_cell_angle_alpha 90.000000
_cell_angle_beta 90.000000
_cell_angle_gamma 90.000000
_cell_volume 1252.422514
_symmetry_space_group_name_H-M "P 41 2 2"
_symmetry_group_IT_number 91
_symmetry_cell_setting 'tetragonal'
loop_
_space_group_symop_operation_xyz
x,y,z
-y,x,1/4+z
-x,-y,1/2+z
y,-x,3/4+z
x,-y,1/2-z
-x,y,-z
y,x,3/4-z
-y,-x,1/4-z
loop_
_atom_site_type_symbol
_atom_site_label
_atom_site_fract_x
_atom_site_fract_y
_atom_site_fract_z
Si Si1 0.885513 0.114488 0.625000
Si Si2 0.500000 0.771193 0.000000
Si Si3 0.138571 0.378660 0.450921
Si Si4 0.724115 0.500000 0.250000
Si Si5 0.133097 0.860078 0.449863
Si Si6 0.622266 0.847567 0.115569
Si Si7 0.590147 0.590147 0.375000
O O1 0.888818 0.128007 0.691431
O O2 0.634255 0.116349 0.633127
O O3 0.650179 0.627984 0.972940
O O4 0.401819 0.879201 0.949441
O O5 0.102795 0.614161 0.433071
O O6 0.000000 0.372689 0.500000
O O7 0.833267 0.659828 0.219782
O O8 0.667268 0.618973 0.311342
O O9 0.106998 0.862314 0.380358
O O10 0.000000 0.857884 0.500000
O O11 0.631719 0.624865 0.116637
#
# Coordination Sequence:
#
# PCOD9547811 Si02
#       7
#     4   4   8   4   8   8   4
#     4  12  25  53  66 106 156 204 270 332 402 502
#     4  12  21  43  76 106 160 202 260 348 394 484
#     4  12  25  44  74 111 150 203 268 326 402 493
#     4  10  25  47  82 120 164 222 276 342 438 500
#     4  11  27  50  76 113 163 212 269 346 415 494
#     4  11  22  43  72 115 152 206 268 328 416 485
#     4  10  19  41  74 114 162 206 272 346 400 508
#
# _framework density 31.938101
#
# number of rings (size 3 to 8) (size 9 to 14) (size 15 to 20)
#    0.000    0.800    4.000    3.000    2.800    1.600 
#   10.800    0.000    0.000    0.000    0.000    0.000 
#    0.000    0.000    0.000    0.000    0.000    0.000 
#
# Total GULP energy -222674.214074 kJ/mol
# GULP energy per Si atom -5566.855352 kJ/mol
# Density = 3.186541 g / cm^3
# Si number density = 31.938101 Si / 1000 Ang^3
#
#
#
# Elastic Constant Matrix: (Units=GPa)
#
#
# Indices 1 2 3 4 5 6 
#
# 1 149.0820 56.8247 115.4494 0.0000 0.0000 0.0000
# 2 56.8247 149.0814 115.4495 0.0000 0.0000 0.0000
# 3 115.4494 115.4495 354.8692 0.0000 0.0000 0.0000
# 4 0.0000 0.0000 0.0000 99.7427 0.0000 0.0000
# 5 0.0000 0.0000 0.0000 0.0000 99.7428 0.0000
# 6 0.0000 0.0000 0.0000 0.0000 0.0000 67.5078
#
#
#
# Elastic Compliance Matrix: (Units=1/GPa)
#
#
# Indices 1 2 3 4 5 6 
#
# 1 0.009243 -0.001597 -0.002487 0.000000 0.000000 0.000000
# 2 -0.001597 0.009243 -0.002487 0.000000 0.000000 0.000000
# 3 -0.002487 -0.002487 0.004436 0.000000 0.000000 0.000000
# 4 0.000000 0.000000 0.000000 0.010026 0.000000 0.000000
# 5 0.000000 0.000000 0.000000 0.000000 0.010026 0.000000
# 6 0.000000 0.000000 0.000000 0.000000 0.000000 0.014813
#
#
# Mechanical properties :
#
#
# Convention : Reuss Voigt Hill
#
# Bulk Modulus (GPa) = 102.26507 136.49775 119.38141
# Shear Modulus (GPa) = 67.39544 77.75260 72.57402
#
# Velocity S-wave (km/s) = 4.59866 4.93940 4.77207
# Velocity P-wave (km/s) = 7.76442 8.68108 8.23551
#
# Compressibility (1/GPa) = 0.00977851
#
# Stress axis : x y z
#
# Youngs Moduli (GPa) = 108.19481 108.19408 225.40671
#
# Poissons Ratio (x) = 0.17275 0.56069
# Poissons Ratio (y) = 0.17275 0.56069
# Poissons Ratio (z) = 0.26913 0.26913
#
# Static dielectric constant tensor:
#      x y z
#    x 4.499720 0.000000 0.000000 
#    y 0.000000 4.499680 0.000000 
#    z 0.000000 0.000000 2.505640 
# 
# From -- ./inp_files/6868.got.cif
#   From: 2010.05.17/outbox.cif.g08.bks.cpg/sg91_4_cif.got.tgz:6868.got - 2010.06.03 19:20:03.
