data_PCOD9547329
_publ_section_title
;
Structure prediction by ZEFSAII (Michael W. Deem and Ramdas Pophale) SiO2 
 PCOD9547329
Probable space group: P 4 21 2
;
_chemical_formula_sum "Si O2"
_cell_formula_units_Z 48
_cell_length_a 8.675430
_cell_length_b 8.675430
_cell_length_c 27.366177
_cell_angle_alpha 90.000000
_cell_angle_beta 90.000000
_cell_angle_gamma 90.000000
_cell_volume 2059.662924
_symmetry_space_group_name_H-M "P 4 21 2"
_symmetry_group_IT_number 90
_symmetry_cell_setting 'tetragonal'
loop_
_space_group_symop_operation_xyz
x,y,z
1/2-y,1/2+x,z
-x,-y,z
1/2+y,1/2-x,z
1/2+x,1/2-y,-z
1/2-x,1/2+y,-z
y,x,-z
-y,-x,-z
loop_
_atom_site_type_symbol
_atom_site_label
_atom_site_fract_x
_atom_site_fract_y
_atom_site_fract_z
Si Si1 0.093370 0.258931 0.257102
Si Si2 0.932019 0.734101 0.110178
Si Si3 0.401078 0.760941 0.628763
Si Si4 0.523399 0.765906 0.003424
Si Si5 0.927161 0.748367 0.825093
Si Si6 0.590104 0.244557 0.456338
O O1 0.192001 0.415845 0.248885
O O2 0.112180 0.218712 0.314194
O O3 0.151912 0.125674 0.221566
O O4 0.816925 0.599759 0.128602
O O5 0.857459 0.890168 0.128619
O O6 0.959267 0.720569 0.052339
O O7 0.579655 0.806358 0.619820
O O8 0.333190 0.632119 0.593468
O O9 0.372397 0.841763 0.027038
O O10 0.603672 0.603672 0.000000
O O11 0.817760 0.597852 0.825210
O O12 0.413249 0.190792 0.459191
O O13 0.645069 0.354931 0.500000
#
# Coordination Sequence:
#
# PCOD9547329 Si02
#       6
#     8   8   8   8   8   8
#     4   9  19  37  62  90 121 159 203 250 303 369
#     4   9  19  39  63  89 119 154 199 243 287 350
#     4   9  19  37  60  87 118 153 198 252 308 370
#     4   9  19  39  64  94 127 158 197 243 291 347
#     4  11  24  39  57  89 128 162 202 253 303 353
#     4  11  24  39  56  81 114 154 203 259 316 375
#
# _framework density 23.304783
#
# number of rings (size 3 to 8) (size 9 to 14) (size 15 to 20)
#    0.000    2.333    0.000    4.000    0.000    9.333 
#    0.000   21.667    0.000    8.000    0.000    0.000 
#    0.000    0.000    0.000    0.000    0.000    0.000 
#
# Total GULP energy -267976.162421 kJ/mol
# GULP energy per Si atom -5582.836717 kJ/mol
# Density = 2.325174 g / cm^3
# Si number density = 23.304783 Si / 1000 Ang^3
#
#
#
# Elastic Constant Matrix: (Units=GPa)
#
#
# Indices 1 2 3 4 5 6 
#
# 1 22.5049 89.7212 9.7759 0.0000 0.0000 0.0000
# 2 89.7212 22.5040 9.7758 0.0000 0.0000 0.0000
# 3 9.7759 9.7758 66.3749 0.0000 0.0000 0.0000
# 4 0.0000 0.0000 0.0000 -11.0130 0.0000 0.0000
# 5 0.0000 0.0000 0.0000 0.0000 -11.0128 0.0000
# 6 0.0000 0.0000 0.0000 0.0000 0.0000 63.5750
#
#
#
# Elastic Compliance Matrix: (Units=1/GPa)
#
#
# Indices 1 2 3 4 5 6 
#
# 1 -0.002866 0.012011 -0.001347 0.000000 0.000000 0.000000
# 2 0.012011 -0.002866 -0.001347 0.000000 0.000000 0.000000
# 3 -0.001347 -0.001347 0.015463 0.000000 0.000000 0.000000
# 4 0.000000 0.000000 0.000000 -0.090801 0.000000 0.000000
# 5 0.000000 0.000000 0.000000 0.000000 -0.090803 0.000000
# 6 0.000000 0.000000 0.000000 0.000000 0.000000 0.015729
#
#
# Mechanical properties :
#
#
# Convention : Reuss Voigt Hill
#
# Bulk Modulus (GPa) = 35.25408 36.65883 35.95645
# Shear Modulus (GPa) = -30.24359 8.45056 -10.89651
#
# Velocity S-wave (km/s) = -3.60633 1.90630 -2.16467
# Velocity P-wave (km/s) = 1.47667 4.53978 3.03555
#
# Compressibility (1/GPa) = 0.02836551
#
# Stress axis : x y z
#
# Youngs Moduli (GPa) = -348.92752 -348.91399 64.67178
#
# Poissons Ratio (x) = 4.19090 0.08711
# Poissons Ratio (y) = 4.19106 0.08711
# Poissons Ratio (z) = -0.46998 -0.46997
#
# Static dielectric constant tensor:
#      x y z
#    x 1.991890 0.000000 0.000000 
#    y 0.000000 1.991890 0.000000 
#    z 0.000000 0.000000 1.885800 
# 
# From -- ./inp_files/3040.got.cif
#   From: 2010.05.17/outbox.cif.g08.bks.cpg/sg90_2_cif.got.tgz:3040.got - 2010.06.03 19:17:45.
