data_PCOD9547085
_publ_section_title
;
Structure prediction by ZEFSAII (Michael W. Deem and Ramdas Pophale) SiO2 
 PCOD9547085
Probable space group: P 4 21 2
;
_chemical_formula_sum "Si O2"
_cell_formula_units_Z 48
_cell_length_a 18.893890
_cell_length_b 18.893890
_cell_length_c 5.584923
_cell_angle_alpha 90.000000
_cell_angle_beta 90.000000
_cell_angle_gamma 90.000000
_cell_volume 1993.700671
_symmetry_space_group_name_H-M "P 4 21 2"
_symmetry_group_IT_number 90
_symmetry_cell_setting 'tetragonal'
loop_
_space_group_symop_operation_xyz
x,y,z
1/2-y,1/2+x,z
-x,-y,z
1/2+y,1/2-x,z
1/2+x,1/2-y,-z
1/2-x,1/2+y,-z
y,x,-z
-y,-x,-z
loop_
_atom_site_type_symbol
_atom_site_label
_atom_site_fract_x
_atom_site_fract_y
_atom_site_fract_z
Si Si1 0.103468 0.322342 0.000002
Si Si2 0.402854 0.243471 0.500000
Si Si3 0.254915 0.465380 0.000001
Si Si4 0.767259 0.767259 0.500000
Si Si5 0.081847 0.918154 0.000000
Si Si6 0.785325 0.785325 0.000000
Si Si7 0.086981 0.913020 0.500000
Si Si8 0.061278 0.398355 0.500002
O O1 0.084297 0.361174 0.249637
O O2 0.184501 0.294907 0.000001
O O3 0.084297 0.361174 0.750367
O O4 0.050256 0.254089 0.000002
O O5 0.318767 0.227138 0.499999
O O6 0.419068 0.327784 0.500001
O O7 0.437096 0.221035 0.752952
O O8 0.221036 0.437096 0.752953
O O9 0.334407 0.435063 0.000002
O O10 0.803445 0.803445 0.271493
O O11 0.056432 0.943570 0.256405
O O12 0.092125 0.477227 0.500002
#
# Coordination Sequence:
#
# PCOD9547085 Si02
#       8
#     8   8   8   4   4   4   4   8
#     4  12  26  44  68  98 139 186 226 279 350 415
#     4   9  17  30  52  84 113 152 200 250 314 377
#     4  10  19  33  56  88 127 165 210 264 323 395
#     4  11  22  38  60  88 132 167 202 275 344 408
#     4   8  14  27  46  75 110 151 204 257 306 361
#     4  12  28  43  58  91 136 179 220 266 344 435
#     4   7  12  22  38  66 106 132 168 235 300 353
#     4  11  26  49  75 102 133 177 239 296 340 402
#
# _framework density 24.075828999999999
#
# number of rings (size 3 to 8) (size 9 to 14) (size 15 to 20)
#    0.000    1.833    0.000    5.000    0.000   10.667 
#    0.000    0.000    0.000    0.500    0.000    0.000 
#    0.000   16.000    0.000    0.000    0.000    2.000 
#
# Total GULP energy -267330.496506 kJ/mol
# GULP energy per Si atom -5569.385344 kJ/mol
# Density = 2.402103 g / cm^3
# Si number density = 24.075829 Si / 1000 Ang^3
#
#
#
# Elastic Constant Matrix: (Units=GPa)
#
#
# Indices 1 2 3 4 5 6 
#
# 1 98.5971 61.8522 43.9025 0.0000 0.0000 0.0000
# 2 61.8522 98.5963 43.9017 0.0000 0.0000 0.0000
# 3 43.9025 43.9017 316.8748 0.0000 0.0000 0.0000
# 4 0.0000 0.0000 0.0000 -114.5922 0.0000 0.0000
# 5 0.0000 0.0000 0.0000 0.0000 -114.5953 0.0000
# 6 0.0000 0.0000 0.0000 0.0000 0.0000 51.4941
#
#
#
# Elastic Compliance Matrix: (Units=1/GPa)
#
#
# Indices 1 2 3 4 5 6 
#
# 1 0.016979 -0.010236 -0.000934 0.000000 0.000000 0.000000
# 2 -0.010236 0.016979 -0.000934 0.000000 0.000000 0.000000
# 3 -0.000934 -0.000934 0.003415 0.000000 0.000000 0.000000
# 4 0.000000 0.000000 0.000000 -0.008727 0.000000 0.000000
# 5 0.000000 0.000000 0.000000 0.000000 -0.008726 0.000000
# 6 0.000000 0.000000 0.000000 0.000000 0.000000 0.019420
#
#
# Mechanical properties :
#
#
# Convention : Reuss Voigt Hill
#
# Bulk Modulus (GPa) = 75.95890 90.37568 83.16729
# Shear Modulus (GPa) = 73.59747 -11.24457 31.17645
#
# Velocity S-wave (km/s) = 5.53492 -2.16347 3.60241
# Velocity P-wave (km/s) = 8.51267 5.60166 7.20570
#
# Compressibility (1/GPa) = 0.01316501
#
# Stress axis : x y z
#
# Youngs Moduli (GPa) = 58.89506 58.89470 292.84980
#
# Poissons Ratio (x) = 0.60282 0.27363
# Poissons Ratio (y) = 0.60283 0.27361
# Poissons Ratio (z) = 0.05503 0.05503
#
# Static dielectric constant tensor:
#      x y z
#    x 1.894680 0.000000 0.000000 
#    y 0.000000 1.894690 0.000000 
#    z 0.000000 0.000000 2.017910 
# 
# From -- ./inp_files/639.got.cif
#   From: 2010.05.17/outbox.cif.g08.bks.cpg/sg90_1_cif.got.tgz:639.got - 2010.06.03 19:17:45.
