data_PCOD9547591
_publ_section_title
;
Structure prediction by ZEFSAII (Michael W. Deem and Ramdas Pophale) SiO2 
 PCOD9547591
Probable space group: P 41 2 2
;
_chemical_formula_sum "Si O2"
_cell_formula_units_Z 40
_cell_length_a 12.085284
_cell_length_b 12.085284
_cell_length_c 14.725830
_cell_angle_alpha 90.000000
_cell_angle_beta 90.000000
_cell_angle_gamma 90.000000
_cell_volume 2150.767691
_symmetry_space_group_name_H-M "P 41 2 2"
_symmetry_group_IT_number 91
_symmetry_cell_setting 'tetragonal'
loop_
_space_group_symop_operation_xyz
x,y,z
-y,x,1/4+z
-x,-y,1/2+z
y,-x,3/4+z
x,-y,1/2-z
-x,y,-z
y,x,3/4-z
-y,-x,1/4-z
loop_
_atom_site_type_symbol
_atom_site_label
_atom_site_fract_x
_atom_site_fract_y
_atom_site_fract_z
Si Si1 0.763692 0.486333 0.558235
Si Si2 0.066454 0.603596 0.185123
Si Si3 0.278877 0.663995 0.296562
Si Si4 0.579291 0.254439 0.122775
Si Si5 0.824052 0.336724 0.306853
O O1 0.881207 0.440020 0.591847
O O2 0.712085 0.549851 0.645239
O O3 0.692596 0.385851 0.515128
O O4 0.781124 0.573495 0.477092
O O5 0.035716 0.500000 0.250000
O O6 0.170361 0.660029 0.234471
O O7 0.953929 0.669682 0.174881
O O8 0.261244 0.756585 0.374109
O O9 0.617014 0.382987 0.125000
O O10 0.457342 0.225077 0.086976
O O11 0.663563 0.199469 0.050956
#
# Coordination Sequence:
#
# PCOD9547591 Si02
#       5
#     8   8   8   8   8
#     4  10  21  36  56  80 122 152 195 233 296 350
#     4  10  20  38  55  83 117 147 197 242 285 348
#     4  10  21  37  57  83 118 154 194 241 290 348
#     4  10  18  33  53  82 113 151 195 230 280 347
#     4  10  20  37  57  82 118 155 195 238 289 350
#
# _framework density 18.598012000000001
#
# number of rings (size 3 to 8) (size 9 to 14) (size 15 to 20)
#    0.000    2.000    4.000    0.600    0.000    3.200 
#    0.000   28.000    0.000    0.000    0.000    8.400 
#    0.000    0.000    0.000    0.000    0.000    0.000 
#
# Total GULP energy -222683.642808 kJ/mol
# GULP energy per Si atom -5567.091070 kJ/mol
# Density = 1.855568 g / cm^3
# Si number density = 18.598012 Si / 1000 Ang^3
#
#
#
# Elastic Constant Matrix: (Units=GPa)
#
#
# Indices 1 2 3 4 5 6 
#
# 1 69.6039 33.8561 34.1300 0.0000 0.0000 0.0000
# 2 33.8561 69.6024 34.1293 0.0000 0.0000 0.0000
# 3 34.1300 34.1293 110.7251 0.0000 0.0000 0.0000
# 4 0.0000 0.0000 0.0000 10.0043 0.0000 0.0000
# 5 0.0000 0.0000 0.0000 0.0000 10.0039 0.0000
# 6 0.0000 0.0000 0.0000 0.0000 0.0000 4.1860
#
#
#
# Elastic Compliance Matrix: (Units=1/GPa)
#
#
# Indices 1 2 3 4 5 6 
#
# 1 0.020054 -0.007921 -0.003740 0.000000 0.000000 0.000000
# 2 -0.007921 0.020054 -0.003740 0.000000 0.000000 0.000000
# 3 -0.003740 -0.003740 0.011337 0.000000 0.000000 0.000000
# 4 0.000000 0.000000 0.000000 0.099957 0.000000 0.000000
# 5 0.000000 0.000000 0.000000 0.000000 0.099961 0.000000
# 6 0.000000 0.000000 0.000000 0.000000 0.000000 0.238891
#
#
# Mechanical properties :
#
#
# Convention : Reuss Voigt Hill
#
# Bulk Modulus (GPa) = 48.44113 50.46245 49.45179
# Shear Modulus (GPa) = 9.47086 14.69326 12.08206
#
# Velocity S-wave (km/s) = 2.25908 2.81382 2.55157
# Velocity P-wave (km/s) = 5.73651 6.14402 5.94376
#
# Compressibility (1/GPa) = 0.02064361
#
# Stress axis : x y z
#
# Youngs Moduli (GPa) = 49.86652 49.86564 88.20747
#
# Poissons Ratio (x) = 0.39497 0.32989
# Poissons Ratio (y) = 0.39497 0.32988
# Poissons Ratio (z) = 0.18650 0.18649
#
# Static dielectric constant tensor:
#      x y z
#    x 1.666840 0.000000 0.000000 
#    y 0.000000 1.666850 0.000000 
#    z 0.000000 0.000000 1.829600 
# 
# From -- ./inp_files/11355.got.cif
#   From: 2010.05.17/outbox.cif.g08.bks.cpg/sg91_6_cif.got.tgz:11355.got - 2010.06.03 19:20:03.
