data_PCOD9547751
_publ_section_title
;
Structure prediction by ZEFSAII (Michael W. Deem and Ramdas Pophale) SiO2 
 PCOD9547751
Probable space group: P 41 2 2
;
_chemical_formula_sum "Si O2"
_cell_formula_units_Z 40
_cell_length_a 10.578151
_cell_length_b 10.578151
_cell_length_c 18.166555
_cell_angle_alpha 90.000000
_cell_angle_beta 90.000000
_cell_angle_gamma 90.000000
_cell_volume 2032.788066
_symmetry_space_group_name_H-M "P 41 2 2"
_symmetry_group_IT_number 91
_symmetry_cell_setting 'tetragonal'
loop_
_space_group_symop_operation_xyz
x,y,z
-y,x,1/4+z
-x,-y,1/2+z
y,-x,3/4+z
x,-y,1/2-z
-x,y,-z
y,x,3/4-z
-y,-x,1/4-z
loop_
_atom_site_type_symbol
_atom_site_label
_atom_site_fract_x
_atom_site_fract_y
_atom_site_fract_z
Si Si1 0.113983 0.027649 0.946176
Si Si2 0.895979 0.644898 0.222458
Si Si3 0.386442 0.361067 0.716142
Si Si4 0.739354 0.899841 0.687699
Si Si5 0.632120 0.358771 0.458426
O O1 0.115934 0.115934 0.875000
O O2 0.249359 0.024265 0.985682
O O3 0.078502 0.886448 0.919497
O O4 0.000000 0.067910 0.000000
O O5 0.910360 0.500000 0.250000
O O6 0.750920 0.694498 0.232301
O O7 0.917855 0.655209 0.135042
O O8 0.376632 0.500000 0.750000
O O9 0.401297 0.368507 0.628141
O O10 0.510357 0.313071 0.757381
O O11 0.730012 0.754083 0.713738
O O12 0.703170 0.000000 0.750000
O O13 0.500000 0.327851 0.500000
#
# Coordination Sequence:
#
# PCOD9547751 Si02
#       5
#     8   8   8   8   8
#     4  11  22  42  67  88 121 168 218 251 308 384
#     4  10  22  41  62  94 126 161 202 268 317 366
#     4   9  18  34  58  83 123 156 197 240 312 371
#     4  10  23  42  60  89 126 164 206 256 318 376
#     4  10  19  36  58  87 118 155 202 247 304 374
#
# _framework density 19.677406000000001
#
# number of rings (size 3 to 8) (size 9 to 14) (size 15 to 20)
#    0.000    2.000    2.000    2.400    0.000    5.600 
#   14.400    2.000    0.000    0.000    0.000    0.000 
#    0.000    0.000    0.000    0.000    0.000    0.000 
#
# Total GULP energy -222801.287671 kJ/mol
# GULP energy per Si atom -5570.032192 kJ/mol
# Density = 1.963262 g / cm^3
# Si number density = 19.677406 Si / 1000 Ang^3
#
#
#
# Elastic Constant Matrix: (Units=GPa)
#
#
# Indices 1 2 3 4 5 6 
#
# 1 82.0779 11.5788 34.2908 0.0000 0.0000 0.0000
# 2 11.5788 82.0779 34.2908 0.0000 0.0000 0.0000
# 3 34.2908 34.2908 45.3764 0.0000 0.0000 0.0000
# 4 0.0000 0.0000 0.0000 14.3981 0.0000 0.0000
# 5 0.0000 0.0000 0.0000 0.0000 14.3981 0.0000
# 6 0.0000 0.0000 0.0000 0.0000 0.0000 29.4132
#
#
#
# Elastic Compliance Matrix: (Units=1/GPa)
#
#
# Indices 1 2 3 4 5 6 
#
# 1 0.019046 0.004861 -0.018066 0.000000 0.000000 0.000000
# 2 0.004861 0.019046 -0.018066 0.000000 0.000000 0.000000
# 3 -0.018066 -0.018066 0.049343 0.000000 0.000000 0.000000
# 4 0.000000 0.000000 0.000000 0.069454 0.000000 0.000000
# 5 0.000000 0.000000 0.000000 0.000000 0.069454 0.000000
# 6 0.000000 0.000000 0.000000 0.000000 0.000000 0.033998
#
#
# Mechanical properties :
#
#
# Convention : Reuss Voigt Hill
#
# Bulk Modulus (GPa) = 40.17430 41.09481 40.63455
# Shear Modulus (GPa) = 15.09757 20.26667 17.68212
#
# Velocity S-wave (km/s) = 2.77294 3.21276 3.00092
# Velocity P-wave (km/s) = 5.54194 5.88999 5.71861
#
# Compressibility (1/GPa) = 0.02489154
#
# Stress axis : x y z
#
# Youngs Moduli (GPa) = 52.50578 52.50578 20.26633
#
# Poissons Ratio (x) = -0.25523 0.36613
# Poissons Ratio (y) = -0.25523 0.36613
# Poissons Ratio (z) = 0.94857 0.94857
#
# Static dielectric constant tensor:
#      x y z
#    x 1.742700 0.000000 0.000000 
#    y 0.000000 1.742700 0.000000 
#    z 0.000000 0.000000 1.681190 
# 
# From -- ./inp_files/11361.got.cif
#   From: 2010.05.17/outbox.cif.g08.bks.cpg/sg91_6_cif.got.tgz:11361.got - 2010.06.03 19:20:03.
