data_PCOD9547016
_publ_section_title
;
Structure prediction by ZEFSAII (Michael W. Deem and Ramdas Pophale) SiO2 
 PCOD9547016
Probable space group: P 4 2 2
;
_chemical_formula_sum "Si O2"
_cell_formula_units_Z 50
_cell_length_a 8.269195
_cell_length_b 8.269195
_cell_length_c 33.872492
_cell_angle_alpha 90.000000
_cell_angle_beta 90.000000
_cell_angle_gamma 90.000000
_cell_volume 2316.186978
_symmetry_space_group_name_H-M "P 4 2 2"
_symmetry_group_IT_number 89
_symmetry_cell_setting 'tetragonal'
loop_
_space_group_symop_operation_xyz
x,y,z
-y,x,z
-x,-y,z
y,-x,z
x,-y,-z
-x,y,-z
y,x,-z
-y,-x,-z
loop_
_atom_site_type_symbol
_atom_site_label
_atom_site_fract_x
_atom_site_fract_y
_atom_site_fract_z
Si Si1 0.918357 0.738809 0.235370
Si Si2 0.327822 0.712386 0.455536
Si Si3 0.000000 0.500000 0.000000
Si Si4 0.757113 0.420903 0.692810
Si Si5 0.239004 0.885586 0.378010
Si Si6 0.087126 0.739634 0.936323
Si Si7 0.911982 0.259732 0.850048
O O1 0.876244 0.630288 0.272467
O O2 0.886014 0.658588 0.192378
O O3 0.100520 0.806211 0.237129
O O4 0.282975 0.522824 0.450281
O O5 0.262903 0.737098 0.500000
O O6 0.266204 0.839187 0.423534
O O7 0.894446 0.613086 0.028733
O O8 0.694309 0.601072 0.696775
O O9 0.826140 0.383049 0.649617
O O10 0.071996 0.793338 0.368695
O O11 0.115180 0.662922 0.892830
O O12 0.901296 0.804547 0.939241
O O13 0.096549 0.195616 0.849997
#
# Coordination Sequence:
#
# PCOD9547016 Si02
#       7
#     8   8   2   8   8   8   8
#     4   9  17  32  56  83 106 130 168 219 269 318
#     4   9  19  37  60  85 113 146 184 224 268 323
#     4  12  20  26  48  82 104 130 180 226 260 310
#     4  11  24  39  54  76 108 145 182 218 262 322
#     4  11  24  39  56  81 111 142 181 231 278 318
#     4   9  18  34  53  73 102 139 177 220 267 313
#     4   7  12  27  51  75  99 129 166 210 259 308
#
# _framework density 21.587202999999999
#
# number of rings (size 3 to 8) (size 9 to 14) (size 15 to 20)
#    0.000    2.560    0.000    4.800    0.000    8.320 
#    0.000    7.200    0.000    3.840    0.000    0.000 
#    0.000    0.000    0.000    0.000    0.000    0.000 
#
# Total GULP energy -279100.047871 kJ/mol
# GULP energy per Si atom -5582.000957 kJ/mol
# Density = 2.153807 g / cm^3
# Si number density = 21.587203 Si / 1000 Ang^3
#
#
#
# Elastic Constant Matrix: (Units=GPa)
#
#
# Indices 1 2 3 4 5 6 
#
# 1 41.6586 23.7741 27.9951 0.0000 0.0000 0.0000
# 2 23.7741 41.6585 27.9950 0.0000 0.0000 0.0000
# 3 27.9951 27.9950 143.5157 0.0000 0.0000 0.0000
# 4 0.0000 0.0000 0.0000 -35.9286 0.0000 0.0000
# 5 0.0000 0.0000 0.0000 0.0000 -35.9299 0.0000
# 6 0.0000 0.0000 0.0000 0.0000 0.0000 21.8756
#
#
#
# Elastic Compliance Matrix: (Units=1/GPa)
#
#
# Indices 1 2 3 4 5 6 
#
# 1 0.037130 -0.018785 -0.003578 0.000000 0.000000 0.000000
# 2 -0.018785 0.037130 -0.003578 0.000000 0.000000 0.000000
# 3 -0.003578 -0.003578 0.008364 0.000000 0.000000 0.000000
# 4 0.000000 0.000000 0.000000 -0.027833 0.000000 0.000000
# 5 0.000000 0.000000 0.000000 0.000000 -0.027832 0.000000
# 6 0.000000 0.000000 0.000000 0.000000 0.000000 0.045713
#
#
# Mechanical properties :
#
#
# Convention : Reuss Voigt Hill
#
# Bulk Modulus (GPa) = 32.53096 42.92901 37.72999
# Shear Modulus (GPa) = 37.09146 -0.19202 18.44972
#
# Velocity S-wave (km/s) = 4.14963 -0.29857 2.92663
# Velocity P-wave (km/s) = 6.16940 4.45091 5.37923
#
# Compressibility (1/GPa) = 0.03073995
#
# Stress axis : x y z
#
# Youngs Moduli (GPa) = 26.93255 26.93254 119.56064
#
# Poissons Ratio (x) = 0.50592 0.42785
# Poissons Ratio (y) = 0.50592 0.42784
# Poissons Ratio (z) = 0.09638 0.09638
#
# Static dielectric constant tensor:
#      x y z
#    x 1.766530 0.000000 0.000000 
#    y 0.000000 1.766530 0.000000 
#    z 0.000000 0.000000 1.822380 
# 
# From -- ./inp_files/3003.got.cif
#   From: 2010.05.17/outbox.cif.g08.bks.cpg/sg89_2_cif.got.tgz:3003.got - 2010.06.03 19:15:31.
