data_PCOD9547572
_publ_section_title
;
Structure prediction by ZEFSAII (Michael W. Deem and Ramdas Pophale) SiO2 
 PCOD9547572
Probable space group: P 41 2 2
;
_chemical_formula_sum "Si O2"
_cell_formula_units_Z 44
_cell_length_a 23.742739
_cell_length_b 23.742739
_cell_length_c 5.074237
_cell_angle_alpha 90.000000
_cell_angle_beta 90.000000
_cell_angle_gamma 90.000000
_cell_volume 2860.436984
_symmetry_space_group_name_H-M "P 41 2 2"
_symmetry_group_IT_number 91
_symmetry_cell_setting 'tetragonal'
loop_
_space_group_symop_operation_xyz
x,y,z
-y,x,1/4+z
-x,-y,1/2+z
y,-x,3/4+z
x,-y,1/2-z
-x,y,-z
y,x,3/4-z
-y,-x,1/4-z
loop_
_atom_site_type_symbol
_atom_site_label
_atom_site_fract_x
_atom_site_fract_y
_atom_site_fract_z
Si Si1 0.628228 0.681138 0.610606
Si Si2 0.839617 0.346542 0.606587
Si Si3 0.785918 0.699922 0.373165
Si Si4 0.771516 0.539450 0.005251
Si Si5 0.959321 0.376463 0.753011
Si Si6 0.039639 0.500000 0.250000
O O1 0.635393 0.635393 0.375000
O O2 0.663601 0.734640 0.501882
O O3 0.568898 0.711156 0.677261
O O4 0.655715 0.655715 0.875000
O O5 0.834853 0.312738 0.333513
O O6 0.815910 0.409679 0.546383
O O7 0.903109 0.341576 0.710569
O O8 0.799967 0.321644 0.836214
O O9 0.763272 0.763272 0.375000
O O10 0.767424 0.500000 0.750000
O O11 0.788813 0.500000 0.250000
O O12 0.000000 0.373792 0.500000
O O13 0.932707 0.439727 0.784677
O O14 0.000000 0.365508 0.000000
O O15 0.000000 0.493760 0.500000
#
# Coordination Sequence:
#
# PCOD9547572 Si02
#       6
#     8   8   8   8   8   4
#     4  10  18  32  49  64  87 118 140 161 211 277
#     4  11  21  32  48  69  89 124 151 181 237 272
#     4  10  18  32  49  68  89 112 146 183 228 287
#     4  11  21  32  45  70  96 112 136 180 220 263
#     4  10  20  34  46  61  85 119 161 197 222 259
#     4   8  16  30  42  54  72 108 150 190 226 246
#
# _framework density 15.382265
#
# number of rings (size 3 to 8) (size 9 to 14) (size 15 to 20)
#    0.000    1.818    0.000    9.273    1.273    0.000 
#    6.545    0.000    0.000    0.000    0.000    0.000 
#    0.000   20.364    0.000    0.182    0.000    0.000 
#
# Total GULP energy -244981.823558 kJ/mol
# GULP energy per Si atom -5567.768717 kJ/mol
# Density = 1.534725 g / cm^3
# Si number density = 15.382265 Si / 1000 Ang^3
#
#
#
# Elastic Constant Matrix: (Units=GPa)
#
#
# Indices 1 2 3 4 5 6 
#
# 1 41.2893 29.8271 18.2113 0.0000 0.0000 0.0000
# 2 29.8271 41.2893 18.2113 0.0000 0.0000 0.0000
# 3 18.2113 18.2113 97.3696 0.0000 0.0000 0.0000
# 4 0.0000 0.0000 0.0000 19.9571 0.0000 0.0000
# 5 0.0000 0.0000 0.0000 0.0000 19.9571 0.0000
# 6 0.0000 0.0000 0.0000 0.0000 0.0000 3.1164
#
#
#
# Elastic Compliance Matrix: (Units=1/GPa)
#
#
# Indices 1 2 3 4 5 6 
#
# 1 0.051397 -0.035846 -0.002909 0.000000 0.000000 0.000000
# 2 -0.035846 0.051397 -0.002909 0.000000 0.000000 0.000000
# 3 -0.002909 -0.002909 0.011358 0.000000 0.000000 0.000000
# 4 0.000000 0.000000 0.000000 0.050107 0.000000 0.000000
# 5 0.000000 0.000000 0.000000 0.000000 0.050107 0.000000
# 6 0.000000 0.000000 0.000000 0.000000 0.000000 0.320881
#
#
# Mechanical properties :
#
#
# Convention : Reuss Voigt Hill
#
# Bulk Modulus (GPa) = 32.44007 34.71640 33.57824
# Shear Modulus (GPa) = 7.95103 16.18604 12.06853
#
# Velocity S-wave (km/s) = 2.27600 3.24736 2.80406
# Velocity P-wave (km/s) = 5.29547 6.05629 5.68861
#
# Compressibility (1/GPa) = 0.03082607
#
# Stress axis : x y z
#
# Youngs Moduli (GPa) = 19.45637 19.45637 88.04260
#
# Poissons Ratio (x) = 0.69743 0.25608
# Poissons Ratio (y) = 0.69743 0.25608
# Poissons Ratio (z) = 0.05659 0.05659
#
# Static dielectric constant tensor:
#      x y z
#    x 1.554390 0.000000 0.000000 
#    y 0.000000 1.554390 0.000000 
#    z 0.000000 0.000000 1.545560 
# 
# From -- ./inp_files/1137.got.cif
#   From: 2010.05.17/outbox.cif.g08.bks.cpg/sg91_1_cif.got.tgz:1137.got - 2010.06.03 19:20:03.
