data_PCOD9547906
_publ_section_title
;
Structure prediction by ZEFSAII (Michael W. Deem and Ramdas Pophale) SiO2 
 PCOD9547906
Probable space group: P 41 2 2
;
_chemical_formula_sum "Si O2"
_cell_formula_units_Z 40
_cell_length_a 11.410370
_cell_length_b 11.410370
_cell_length_c 14.633931
_cell_angle_alpha 90.000000
_cell_angle_beta 90.000000
_cell_angle_gamma 90.000000
_cell_volume 1905.287235
_symmetry_space_group_name_H-M "P 41 2 2"
_symmetry_group_IT_number 91
_symmetry_cell_setting 'tetragonal'
loop_
_space_group_symop_operation_xyz
x,y,z
-y,x,1/4+z
-x,-y,1/2+z
y,-x,3/4+z
x,-y,1/2-z
-x,y,-z
y,x,3/4-z
-y,-x,1/4-z
loop_
_atom_site_type_symbol
_atom_site_label
_atom_site_fract_x
_atom_site_fract_y
_atom_site_fract_z
Si Si1 0.964955 0.606762 0.101643
Si Si2 0.500000 0.212623 0.000000
Si Si3 0.592697 0.592697 0.375000
Si Si4 0.066983 0.000000 0.750000
Si Si5 0.138515 0.149634 0.154562
Si Si6 0.193979 0.328069 0.303448
Si Si7 0.500000 0.392371 0.500000
O O1 0.866305 0.549436 0.166747
O O2 0.924690 0.742236 0.089745
O O3 0.083378 0.603966 0.159140
O O4 0.000000 0.561503 0.000000
O O5 0.411206 0.300669 0.946650
O O6 0.579890 0.474673 0.435845
O O7 0.150592 0.908685 0.802064
O O8 0.972347 0.915863 0.700077
O O9 0.164776 0.269346 0.206715
O O10 0.224197 0.224197 0.375000
O O11 0.304503 0.412124 0.299270
#
# Coordination Sequence:
#
# PCOD9547906 Si02
#       7
#     8   4   4   4   8   8   4
#     4  12  24  42  69  99 143 188 231 290 365 427
#     4  11  27  48  72 104 143 189 236 312 378 433
#     4  10  24  50  74  98 136 180 250 304 366 440
#     4  10  20  36  62  96 134 184 232 264 342 422
#     4  11  20  38  64  93 137 183 228 278 335 419
#     4  12  22  39  69 103 135 177 235 297 341 426
#     4  11  23  42  74 102 123 179 246 296 364 425
#
# _framework density 20.994211
#
# number of rings (size 3 to 8) (size 9 to 14) (size 15 to 20)
#    0.000    0.800    6.000    1.800    0.000    0.000 
#    3.600    2.000    2.200    0.000    0.000    0.000 
#    0.000    0.000    0.000    0.000    0.000    0.000 
#
# Total GULP energy -223025.683676 kJ/mol
# GULP energy per Si atom -5575.642092 kJ/mol
# Density = 2.094643 g / cm^3
# Si number density = 20.994211 Si / 1000 Ang^3
#
#
#
# Elastic Constant Matrix: (Units=GPa)
#
#
# Indices 1 2 3 4 5 6 
#
# 1 79.0101 54.5909 55.6576 0.0000 0.0000 0.0000
# 2 54.5909 79.0101 55.6576 0.0000 0.0000 0.0000
# 3 55.6576 55.6576 102.3884 0.0000 0.0000 0.0000
# 4 0.0000 0.0000 0.0000 39.4697 0.0000 0.0000
# 5 0.0000 0.0000 0.0000 0.0000 39.4697 0.0000
# 6 0.0000 0.0000 0.0000 0.0000 0.0000 545.7637
#
#
#
# Elastic Compliance Matrix: (Units=1/GPa)
#
#
# Indices 1 2 3 4 5 6 
#
# 1 0.027317 -0.013635 -0.007437 0.000000 0.000000 0.000000
# 2 -0.013635 0.027317 -0.007437 0.000000 0.000000 0.000000
# 3 -0.007437 -0.007437 0.017852 0.000000 0.000000 0.000000
# 4 0.000000 0.000000 0.000000 0.025336 0.000000 0.000000
# 5 0.000000 0.000000 0.000000 0.000000 0.025336 0.000000
# 6 0.000000 0.000000 0.000000 0.000000 0.000000 0.001832
#
#
# Mechanical properties :
#
#
# Convention : Reuss Voigt Hill
#
# Bulk Modulus (GPa) = 64.65507 65.80232 65.22869
# Shear Modulus (GPa) = 26.71456 131.24076 78.97766
#
# Velocity S-wave (km/s) = 3.57104 7.91508 6.14007
# Velocity P-wave (km/s) = 6.91857 10.72112 9.02245
#
# Compressibility (1/GPa) = 0.01546669
#
# Stress axis : x y z
#
# Youngs Moduli (GPa) = 36.60787 36.60787 56.01500
#
# Poissons Ratio (x) = 0.49915 0.41660
# Poissons Ratio (y) = 0.49915 0.41660
# Poissons Ratio (z) = 0.27226 0.27226
#
# Static dielectric constant tensor:
#      x y z
#    x 1.730160 0.000000 0.000000 
#    y 0.000000 1.730160 0.000000 
#    z 0.000000 0.000000 1.817850 
# 
# From -- ./inp_files/11411.got.cif
#   From: 2010.05.17/outbox.cif.g08.bks.cpg/sg91_6_cif.got.tgz:11411.got - 2010.06.03 19:20:03.
