data_PCOD9547644
_publ_section_title
;
Structure prediction by ZEFSAII (Michael W. Deem and Ramdas Pophale) SiO2 
 PCOD9547644
Probable space group: P 41 2 2
;
_chemical_formula_sum "Si O2"
_cell_formula_units_Z 48
_cell_length_a 8.565930
_cell_length_b 8.565930
_cell_length_c 28.116430
_cell_angle_alpha 90.000000
_cell_angle_beta 90.000000
_cell_angle_gamma 90.000000
_cell_volume 2063.047459
_symmetry_space_group_name_H-M "P 41 2 2"
_symmetry_group_IT_number 91
_symmetry_cell_setting 'tetragonal'
loop_
_space_group_symop_operation_xyz
x,y,z
-y,x,1/4+z
-x,-y,1/2+z
y,-x,3/4+z
x,-y,1/2-z
-x,y,-z
y,x,3/4-z
-y,-x,1/4-z
loop_
_atom_site_type_symbol
_atom_site_label
_atom_site_fract_x
_atom_site_fract_y
_atom_site_fract_z
Si Si1 0.835132 0.969999 0.574180
Si Si2 0.293129 0.841785 0.231806
Si Si3 0.392065 0.848979 0.954128
Si Si4 0.331641 0.192022 0.990212
Si Si5 0.109478 0.282387 0.914722
Si Si6 0.106046 0.431588 0.388883
O O1 0.725110 0.865859 0.541113
O O2 0.982684 0.860134 0.584759
O O3 0.872203 0.120458 0.541222
O O4 0.727806 0.028302 0.618006
O O5 0.261845 0.747127 0.280046
O O6 0.390202 0.790698 0.185172
O O7 0.366341 0.000000 0.250000
O O8 0.483040 0.813415 0.906038
O O9 0.347747 0.033178 0.957751
O O10 0.500000 0.829928 0.000000
O O11 0.200401 0.290712 0.964464
O O12 0.500000 0.264850 0.000000
O O13 0.236073 0.236073 0.875000
O O14 0.022557 0.441961 0.903553
#
# Coordination Sequence:
#
# PCOD9547644 Si02
#       6
#     8   8   8   8   8   8
#     4  11  22  39  69 100 135 177 243 305 361 423
#     4  11  24  40  69 104 141 175 246 309 364 430
#     4  10  19  39  66 100 138 182 226 299 374 428
#     4  10  18  39  63  97 138 178 225 286 366 441
#     4  12  23  36  67 100 136 182 233 287 364 436
#     4  12  24  40  65 106 146 184 235 314 367 438
#
# _framework density 23.266552000000001
#
# number of rings (size 3 to 8) (size 9 to 14) (size 15 to 20)
#    0.000    1.000    6.667    4.000    2.333    1.333 
#    0.000    0.000    0.000   14.000    0.000    0.000 
#    0.000    0.000    0.000    0.000    0.000    0.000 
#
# Total GULP energy -268073.084706 kJ/mol
# GULP energy per Si atom -5584.855931 kJ/mol
# Density = 2.321360 g / cm^3
# Si number density = 23.266552 Si / 1000 Ang^3
#
#
#
# Elastic Constant Matrix: (Units=GPa)
#
#
# Indices 1 2 3 4 5 6 
#
# 1 71.2329 29.1797 39.5262 0.0000 0.0000 0.0000
# 2 29.1797 71.2329 39.5262 0.0000 0.0000 0.0000
# 3 39.5262 39.5262 101.9267 0.0000 0.0000 0.0000
# 4 0.0000 0.0000 0.0000 40.3552 0.0000 0.0000
# 5 0.0000 0.0000 0.0000 0.0000 40.3552 0.0000
# 6 0.0000 0.0000 0.0000 0.0000 0.0000 35.0108
#
#
#
# Elastic Compliance Matrix: (Units=1/GPa)
#
#
# Indices 1 2 3 4 5 6 
#
# 1 0.019057 -0.004722 -0.005559 0.000000 0.000000 0.000000
# 2 -0.004722 0.019057 -0.005559 0.000000 0.000000 0.000000
# 3 -0.005559 -0.005559 0.014123 0.000000 0.000000 0.000000
# 4 0.000000 0.000000 0.000000 0.024780 0.000000 0.000000
# 5 0.000000 0.000000 0.000000 0.000000 0.024780 0.000000
# 6 0.000000 0.000000 0.000000 0.000000 0.000000 0.028563
#
#
# Mechanical properties :
#
#
# Convention : Reuss Voigt Hill
#
# Bulk Modulus (GPa) = 48.64552 51.20631 49.92592
# Shear Modulus (GPa) = 29.60455 32.22158 30.91307
#
# Velocity S-wave (km/s) = 3.57095 3.72545 3.64902
# Velocity P-wave (km/s) = 6.16081 6.36880 6.26567
#
# Compressibility (1/GPa) = 0.02055688
#
# Stress axis : x y z
#
# Youngs Moduli (GPa) = 52.47288 52.47288 70.80866
#
# Poissons Ratio (x) = 0.24777 0.39364
# Poissons Ratio (y) = 0.24777 0.39364
# Poissons Ratio (z) = 0.29171 0.29171
#
# Static dielectric constant tensor:
#      x y z
#    x 1.754290 0.000000 0.000000 
#    y 0.000000 1.754290 0.000000 
#    z 0.000000 0.000000 1.914300 
# 
# From -- ./inp_files/22283.got.cif
#   From: 2010.05.17/outbox.cif.g08.bks.cpg/sg91_12_cif.got.tgz:22283.got - 2010.06.03 19:20:03.
