data_PCOD9547780
_publ_section_title
;
Structure prediction by ZEFSAII (Michael W. Deem and Ramdas Pophale) SiO2 
 PCOD9547780
Probable space group: P 41 2 2
;
_chemical_formula_sum "Si O2"
_cell_formula_units_Z 56
_cell_length_a 11.629653
_cell_length_b 11.629653
_cell_length_c 22.383333
_cell_angle_alpha 90.000000
_cell_angle_beta 90.000000
_cell_angle_gamma 90.000000
_cell_volume 3027.319575
_symmetry_space_group_name_H-M "P 41 2 2"
_symmetry_group_IT_number 91
_symmetry_cell_setting 'tetragonal'
loop_
_space_group_symop_operation_xyz
x,y,z
-y,x,1/4+z
-x,-y,1/2+z
y,-x,3/4+z
x,-y,1/2-z
-x,y,-z
y,x,3/4-z
-y,-x,1/4-z
loop_
_atom_site_type_symbol
_atom_site_label
_atom_site_fract_x
_atom_site_fract_y
_atom_site_fract_z
Si Si1 0.186761 0.134016 0.735354
Si Si2 0.984072 0.466356 0.152010
Si Si3 0.314845 0.993986 0.022561
Si Si4 0.248970 0.636013 0.250768
Si Si5 0.635374 0.216414 0.362922
Si Si6 0.368848 0.771179 0.671443
Si Si7 0.493139 0.630801 0.771321
O O1 0.067282 0.200119 0.728492
O O2 0.261469 0.163715 0.676391
O O3 0.259404 0.188034 0.789900
O O4 0.175029 0.000000 0.750000
O O5 0.987841 0.380814 0.209252
O O6 0.966716 0.594387 0.177166
O O7 0.880300 0.425529 0.110547
O O8 0.108358 0.451813 0.120702
O O9 0.298261 0.857412 0.028137
O O10 0.217342 0.500000 0.250000
O O11 0.255797 0.669075 0.320631
O O12 0.370944 0.644516 0.218958
O O13 0.578498 0.322853 0.327688
O O14 0.322472 0.677529 0.625000
O O15 0.455943 0.712741 0.717191
O O16 0.470398 0.500000 0.750000
#
# Coordination Sequence:
#
# PCOD9547780 Si02
#       7
#     8   8   8   8   8   8   8
#     4  11  22  36  59  89 120 152 195 250 308 349
#     4  10  19  38  62  84 112 158 208 239 292 359
#     4  10  20  37  61  87 109 157 211 240 286 360
#     4  10  20  40  60  83 115 163 200 236 300 365
#     4  10  21  39  60  85 121 156 194 248 299 364
#     4  11  22  35  59  86 119 156 191 251 305 354
#     4  10  25  36  56  91 124 155 194 245 308 362
#
# _framework density 18.498211000000001
#
# number of rings (size 3 to 8) (size 9 to 14) (size 15 to 20)
#    0.000    1.714    5.714    0.000    4.000    2.857 
#    0.000    0.000    3.143    3.429    0.000    0.000 
#    0.000    0.000    0.000    0.000    0.000    0.000 
#
# Total GULP energy -312576.540313 kJ/mol
# GULP energy per Si atom -5581.723934 kJ/mol
# Density = 1.845611 g / cm^3
# Si number density = 18.498211 Si / 1000 Ang^3
#
#
#
# Elastic Constant Matrix: (Units=GPa)
#
#
# Indices 1 2 3 4 5 6 
#
# 1 83.1755 41.1209 1.3145 0.0000 0.0000 0.0000
# 2 41.1209 83.1766 1.3147 0.0000 0.0000 0.0000
# 3 1.3145 1.3147 33.7135 0.0000 0.0000 0.0000
# 4 0.0000 0.0000 0.0000 19.9650 0.0000 0.0000
# 5 0.0000 0.0000 0.0000 0.0000 19.9647 0.0000
# 6 0.0000 0.0000 0.0000 0.0000 0.0000 25.3178
#
#
#
# Elastic Compliance Matrix: (Units=1/GPa)
#
#
# Indices 1 2 3 4 5 6 
#
# 1 0.015915 -0.007863 -0.000314 0.000000 0.000000 0.000000
# 2 -0.007863 0.015915 -0.000314 0.000000 0.000000 0.000000
# 3 -0.000314 -0.000314 0.029686 0.000000 0.000000 0.000000
# 4 0.000000 0.000000 0.000000 0.050088 0.000000 0.000000
# 5 0.000000 0.000000 0.000000 0.000000 0.050088 0.000000
# 6 0.000000 0.000000 0.000000 0.000000 0.000000 0.039498
#
#
# Mechanical properties :
#
#
# Convention : Reuss Voigt Hill
#
# Bulk Modulus (GPa) = 22.45470 31.95175 27.20322
# Shear Modulus (GPa) = 21.45763 23.47054 22.46408
#
# Velocity S-wave (km/s) = 3.40955 3.56589 3.48859
# Velocity P-wave (km/s) = 5.25977 5.85358 5.56461
#
# Compressibility (1/GPa) = 0.04453411
#
# Stress axis : x y z
#
# Youngs Moduli (GPa) = 62.83300 62.83383 33.68569
#
# Poissons Ratio (x) = 0.49408 0.01057
# Poissons Ratio (y) = 0.49407 0.01058
# Poissons Ratio (z) = 0.01972 0.01973
#
# Static dielectric constant tensor:
#      x y z
#    x 1.638020 0.000000 0.000000 
#    y 0.000000 1.638020 0.000000 
#    z 0.000000 0.000000 1.653230 
# 
# From -- ./inp_files/21818.got.cif
#   From: 2010.05.17/outbox.cif.g08.bks.cpg/sg91_11_cif.got.tgz:21818.got - 2010.06.03 19:20:03.
