data_PCOD9547747
_publ_section_title
;
Structure prediction by ZEFSAII (Michael W. Deem and Ramdas Pophale) SiO2 
 PCOD9547747
Probable space group: P 41 2 2
;
_chemical_formula_sum "Si O2"
_cell_formula_units_Z 64
_cell_length_a 19.005971
_cell_length_b 19.005971
_cell_length_c 10.322139
_cell_angle_alpha 90.000000
_cell_angle_beta 90.000000
_cell_angle_gamma 90.000000
_cell_volume 3728.634620
_symmetry_space_group_name_H-M "P 41 2 2"
_symmetry_group_IT_number 91
_symmetry_cell_setting 'tetragonal'
loop_
_space_group_symop_operation_xyz
x,y,z
-y,x,1/4+z
-x,-y,1/2+z
y,-x,3/4+z
x,-y,1/2-z
-x,y,-z
y,x,3/4-z
-y,-x,1/4-z
loop_
_atom_site_type_symbol
_atom_site_label
_atom_site_fract_x
_atom_site_fract_y
_atom_site_fract_z
Si Si1 0.066751 0.335891 0.592819
Si Si2 0.303254 0.632993 0.007950
Si Si3 0.943190 0.353201 0.108084
Si Si4 0.801629 0.236307 0.485245
Si Si5 0.496126 0.232376 0.652972
Si Si6 0.271164 0.805301 0.735534
Si Si7 0.883189 0.498280 0.393616
Si Si8 0.669444 0.373534 0.989297
O O1 0.046237 0.327533 0.744262
O O2 0.128343 0.280354 0.554039
O O3 0.092238 0.418126 0.581267
O O4 0.000000 0.326313 0.500000
O O5 0.357436 0.642565 0.125000
O O6 0.250734 0.572863 0.046968
O O7 0.258533 0.703959 0.995784
O O8 0.341110 0.621261 0.872602
O O9 0.870548 0.318130 0.059569
O O10 0.939840 0.438823 0.116847
O O11 0.000000 0.334055 0.000000
O O12 0.802145 0.197856 0.625000
O O13 0.772051 0.187400 0.369434
O O14 0.500000 0.219254 0.500000
O O15 0.475953 0.165829 0.739442
O O16 0.445976 0.297571 0.688572
O O17 0.215723 0.784278 0.625000
O O18 0.323298 0.738173 0.747201
O O19 0.847359 0.500000 0.250000
O O20 0.629347 0.370654 0.125000
#
# Coordination Sequence:
#
# PCOD9547747 Si02
#       8
#     8   8   8   8   8   8   8   8
#     4  11  23  39  55  81 121 160 190 231 282 334
#     4  10  20  36  53  79 110 134 180 239 292 333
#     4  11  23  38  57  82 117 160 195 228 278 341
#     4  10  21  34  57  83 110 146 185 237 288 327
#     4  12  22  34  57  82 110 140 187 236 288 348
#     4  10  19  36  57  80 111 140 188 241 278 319
#     4  10  23  37  54  81 116 158 193 231 273 331
#     4  10  22  34  56  82 100 139 186 236 289 341
#
# _framework density 17.164459999999998
#
# number of rings (size 3 to 8) (size 9 to 14) (size 15 to 20)
#    0.000    1.500    5.000    0.375    3.500    1.000 
#    0.000    0.000    0.000    2.250    0.000    0.000 
#    0.000    3.000    0.000    0.000    0.000    0.000 
#
# Total GULP energy -356547.448206 kJ/mol
# GULP energy per Si atom -5571.053878 kJ/mol
# Density = 1.712539 g / cm^3
# Si number density = 17.164460 Si / 1000 Ang^3
#
#
#
# Elastic Constant Matrix: (Units=GPa)
#
#
# Indices 1 2 3 4 5 6 
#
# 1 14.5288 30.0170 35.2064 0.0000 0.0000 0.0000
# 2 30.0170 14.5359 35.2090 0.0000 0.0000 0.0000
# 3 35.2064 35.2090 170.2856 0.0000 0.0000 0.0000
# 4 0.0000 0.0000 0.0000 36.8667 0.0000 0.0000
# 5 0.0000 0.0000 0.0000 0.0000 36.8686 0.0000
# 6 0.0000 0.0000 0.0000 0.0000 0.0000 13.8544
#
#
#
# Elastic Compliance Matrix: (Units=1/GPa)
#
#
# Indices 1 2 3 4 5 6 
#
# 1 -0.015625 0.048962 -0.006893 0.000000 0.000000 0.000000
# 2 0.048962 -0.015612 -0.006895 0.000000 0.000000 0.000000
# 3 -0.006893 -0.006895 0.008723 0.000000 0.000000 0.000000
# 4 0.000000 0.000000 0.000000 0.027125 0.000000 0.000000
# 5 0.000000 0.000000 0.000000 0.000000 0.027123 0.000000
# 6 0.000000 0.000000 0.000000 0.000000 0.000000 0.072179
#
#
# Mechanical properties :
#
#
# Convention : Reuss Voigt Hill
#
# Bulk Modulus (GPa) = 20.90533 44.46835 32.68684
# Shear Modulus (GPa) = 100.98657 24.11248 62.54952
#
# Velocity S-wave (km/s) = 7.67870 3.75212 6.04321
# Velocity P-wave (km/s) = 9.53008 6.68840 8.23277
#
# Compressibility (1/GPa) = 0.04783469
#
# Stress axis : x y z
#
# Youngs Moduli (GPa) = -64.00135 -64.05497 114.63587
#
# Poissons Ratio (x) = 3.13626 0.79021
# Poissons Ratio (y) = 3.13363 0.79041
# Poissons Ratio (z) = -0.44117 -0.44165
#
# Static dielectric constant tensor:
#      x y z
#    x 1.537680 0.000000 0.000000 
#    y 0.000000 1.537690 0.000000 
#    z 0.000000 0.000000 1.615180 
# 
# From -- ./inp_files/15416.got.cif
#   From: 2010.05.17/outbox.cif.g08.bks.cpg/sg91_8_cif.got.tgz:15416.got - 2010.06.03 19:20:03.
