data_PCOD9547214
_publ_section_title
;
Structure prediction by ZEFSAII (Michael W. Deem and Ramdas Pophale) SiO2 
 PCOD9547214
Probable space group: P 4 21 2
;
_chemical_formula_sum "Si O2"
_cell_formula_units_Z 40
_cell_length_a 14.509962
_cell_length_b 14.509962
_cell_length_c 9.379664
_cell_angle_alpha 90.000000
_cell_angle_beta 90.000000
_cell_angle_gamma 90.000000
_cell_volume 1974.785053
_symmetry_space_group_name_H-M "P 4 21 2"
_symmetry_group_IT_number 90
_symmetry_cell_setting 'tetragonal'
loop_
_space_group_symop_operation_xyz
x,y,z
1/2-y,1/2+x,z
-x,-y,z
1/2+y,1/2-x,z
1/2+x,1/2-y,-z
1/2-x,1/2+y,-z
y,x,-z
-y,-x,-z
loop_
_atom_site_type_symbol
_atom_site_label
_atom_site_fract_x
_atom_site_fract_y
_atom_site_fract_z
Si Si1 0.344109 0.500104 0.019068
Si Si2 0.283687 0.283687 0.500000
Si Si3 0.529582 0.687108 0.656773
Si Si4 0.579000 0.173072 0.461923
Si Si5 0.000000 0.000000 0.500000
Si Si6 0.000000 0.500000 0.430728
Si Si7 0.348440 0.008955 0.144533
O O1 0.304015 0.493445 0.178319
O O2 0.410105 0.410105 0.000000
O O3 0.411690 0.588311 0.000000
O O4 0.254656 0.506683 0.917029
O O5 0.363645 0.296503 0.617341
O O6 0.296633 0.183499 0.431043
O O7 0.467293 0.750162 0.557591
O O8 0.504891 0.585481 0.605069
O O9 0.579518 0.079102 0.552685
O O10 0.522399 0.157709 0.315752
O O11 0.405414 0.916239 0.103562
#
# Coordination Sequence:
#
# PCOD9547214 Si02
#       7
#     8   4   8   8   2   2   8
#     4  11  28  46  67  99 145 186 230 286 352 423
#     4  11  25  39  76 107 137 173 242 298 354 414
#     4  11  25  43  66 104 131 178 229 289 349 410
#     4  12  23  44  72 104 136 178 232 290 349 416
#     4  10  22  40  70  88 134 170 222 280 348 412
#     4  12  20  44  68  98 144 176 224 290 352 396
#     4  11  24  47  71 100 138 190 232 281 352 430
#
# _framework density 20.255368000000001
#
# number of rings (size 3 to 8) (size 9 to 14) (size 15 to 20)
#    0.000    0.800    4.000    1.800   14.000    2.400 
#    0.000    0.000    0.000    0.000    0.000    0.000 
#    0.000    0.000    0.000    0.000    0.000    0.000 
#
# Total GULP energy -222937.423940 kJ/mol
# GULP energy per Si atom -5573.435599 kJ/mol
# Density = 2.020927 g / cm^3
# Si number density = 20.255368 Si / 1000 Ang^3
#
#
#
# Elastic Constant Matrix: (Units=GPa)
#
#
# Indices 1 2 3 4 5 6 
#
# 1 162.7541 41.3648 17.1731 0.0000 0.0000 0.0000
# 2 41.3648 162.7537 17.1730 0.0000 0.0000 0.0000
# 3 17.1731 17.1730 38.7272 0.0000 0.0000 0.0000
# 4 0.0000 0.0000 0.0000 23.9013 0.0000 0.0000
# 5 0.0000 0.0000 0.0000 0.0000 23.8822 0.0000
# 6 0.0000 0.0000 0.0000 0.0000 0.0000 -2.9586
#
#
#
# Elastic Compliance Matrix: (Units=1/GPa)
#
#
# Indices 1 2 3 4 5 6 
#
# 1 0.006766 -0.001472 -0.002348 0.000000 0.000000 0.000000
# 2 -0.001472 0.006766 -0.002348 0.000000 0.000000 0.000000
# 3 -0.002348 -0.002348 0.027904 0.000000 0.000000 0.000000
# 4 0.000000 0.000000 0.000000 0.041839 0.000000 0.000000
# 5 0.000000 0.000000 0.000000 0.000000 0.041872 0.000000
# 6 0.000000 0.000000 0.000000 0.000000 0.000000 -0.337999
#
#
# Mechanical properties :
#
#
# Convention : Reuss Voigt Hill
#
# Bulk Modulus (GPa) = 34.36252 57.29521 45.82886
# Shear Modulus (GPa) = -26.20304 28.19992 0.99844
#
# Velocity S-wave (km/s) = -3.60062 3.73529 0.70285
# Velocity P-wave (km/s) = 0.53332 6.85208 4.83046
#
# Compressibility (1/GPa) = 0.02910148
#
# Stress axis : x y z
#
# Youngs Moduli (GPa) = 147.79679 147.79649 35.83759
#
# Poissons Ratio (x) = 0.21754 0.08413
# Poissons Ratio (y) = 0.21755 0.08413
# Poissons Ratio (z) = 0.34697 0.34697
#
# Static dielectric constant tensor:
#      x y z
#    x 1.525230 0.000000 0.000000 
#    y 0.000000 1.525300 0.000000 
#    z 0.000000 0.000000 1.206820 
# 
# From -- ./inp_files/1395.got.cif
#   From: 2010.05.17/outbox.cif.g08.bks.cpg/sg90_1_cif.got.tgz:1395.got - 2010.06.03 19:17:45.
