data_PCOD9547970
_publ_section_title
;
Structure prediction by ZEFSAII (Michael W. Deem and Ramdas Pophale) SiO2 
 PCOD9547970
Probable space group: P 41 2 2
;
_chemical_formula_sum "Si O2"
_cell_formula_units_Z 40
_cell_length_a 8.786043
_cell_length_b 8.786043
_cell_length_c 22.099657
_cell_angle_alpha 90.000000
_cell_angle_beta 90.000000
_cell_angle_gamma 90.000000
_cell_volume 1705.973113
_symmetry_space_group_name_H-M "P 41 2 2"
_symmetry_group_IT_number 91
_symmetry_cell_setting 'tetragonal'
loop_
_space_group_symop_operation_xyz
x,y,z
-y,x,1/4+z
-x,-y,1/2+z
y,-x,3/4+z
x,-y,1/2-z
-x,y,-z
y,x,3/4-z
-y,-x,1/4-z
loop_
_atom_site_type_symbol
_atom_site_label
_atom_site_fract_x
_atom_site_fract_y
_atom_site_fract_z
Si Si1 0.537099 0.382742 0.193691
Si Si2 0.102032 0.855743 0.889570
Si Si3 0.315797 0.830869 0.772441
Si Si4 0.380693 0.178616 0.552707
Si Si5 0.847085 0.608587 0.903325
O O1 0.543979 0.500000 0.250000
O O2 0.563781 0.436220 0.125000
O O3 0.676793 0.273054 0.212795
O O4 0.357373 0.341854 0.190072
O O5 0.202347 0.804222 0.829862
O O6 0.216215 0.895128 0.944491
O O7 0.984116 0.725346 0.910023
O O8 0.000685 0.000685 0.875000
O O9 0.496383 0.811170 0.791438
O O10 0.289361 0.000000 0.750000
O O11 0.500000 0.163979 0.500000
O O12 0.479020 0.108022 0.606216
O O13 0.704574 0.704574 0.875000
#
# Coordination Sequence:
#
# PCOD9547970 Si02
#       5
#     8   8   8   8   8
#     4  11  22  40  70 103 135 174 231 294 351 420
#     4  10  23  42  65  97 136 176 225 285 346 414
#     4  11  24  41  63  94 134 178 220 276 351 412
#     4  10  20  38  65  97 129 172 225 277 338 417
#     4  10  20  39  65  93 128 172 221 274 342 417
#
# _framework density 23.447026999999999
#
# number of rings (size 3 to 8) (size 9 to 14) (size 15 to 20)
#    0.000    1.600    0.000    6.600    0.000    2.400 
#    0.000   11.000    0.000    7.200    0.000    0.000 
#    0.000    0.000    0.000    0.000    0.000    0.000 
#
# Total GULP energy -222878.627968 kJ/mol
# GULP energy per Si atom -5571.965699 kJ/mol
# Density = 2.339366 g / cm^3
# Si number density = 23.447027 Si / 1000 Ang^3
#
#
#
# Elastic Constant Matrix: (Units=GPa)
#
#
# Indices 1 2 3 4 5 6 
#
# 1 87.9836 25.0259 11.4405 0.0000 0.0000 0.0000
# 2 25.0259 87.9838 11.4405 0.0000 0.0000 0.0000
# 3 11.4405 11.4405 81.1149 0.0000 0.0000 0.0000
# 4 0.0000 0.0000 0.0000 14.0983 0.0000 0.0000
# 5 0.0000 0.0000 0.0000 0.0000 14.0987 0.0000
# 6 0.0000 0.0000 0.0000 0.0000 0.0000 10.3643
#
#
#
# Elastic Compliance Matrix: (Units=1/GPa)
#
#
# Indices 1 2 3 4 5 6 
#
# 1 0.012496 -0.003387 -0.001285 0.000000 0.000000 0.000000
# 2 -0.003387 0.012496 -0.001285 0.000000 0.000000 0.000000
# 3 -0.001285 -0.001285 0.012691 0.000000 0.000000 0.000000
# 4 0.000000 0.000000 0.000000 0.070931 0.000000 0.000000
# 5 0.000000 0.000000 0.000000 0.000000 0.070929 0.000000
# 6 0.000000 0.000000 0.000000 0.000000 0.000000 0.096485
#
#
# Mechanical properties :
#
#
# Convention : Reuss Voigt Hill
#
# Bulk Modulus (GPa) = 38.80552 39.21066 39.00809
# Shear Modulus (GPa) = 16.86164 21.65728 19.25946
#
# Velocity S-wave (km/s) = 2.68458 3.04249 2.86912
# Velocity P-wave (km/s) = 5.11816 5.39460 5.25820
#
# Compressibility (1/GPa) = 0.02576953
#
# Stress axis : x y z
#
# Youngs Moduli (GPa) = 80.02368 80.02381 78.79854
#
# Poissons Ratio (x) = 0.27107 0.10123
# Poissons Ratio (y) = 0.27107 0.10124
# Poissons Ratio (z) = 0.10281 0.10281
#
# Static dielectric constant tensor:
#      x y z
#    x 1.936040 0.000000 0.000000 
#    y 0.000000 1.936040 0.000000 
#    z 0.000000 0.000000 1.467420 
# 
# From -- ./inp_files/6738.got.cif
#   From: 2010.05.17/outbox.cif.g08.bks.cpg/sg91_4_cif.got.tgz:6738.got - 2010.06.03 19:20:03.
