data_PCOD9547961
_publ_section_title
;
Structure prediction by ZEFSAII (Michael W. Deem and Ramdas Pophale) SiO2 
 PCOD9547961
Probable space group: P 41 2 2
;
_chemical_formula_sum "Si O2"
_cell_formula_units_Z 24
_cell_length_a 15.626760
_cell_length_b 15.626760
_cell_length_c 4.695288
_cell_angle_alpha 90.000000
_cell_angle_beta 90.000000
_cell_angle_gamma 90.000000
_cell_volume 1146.568802
_symmetry_space_group_name_H-M "P 41 2 2"
_symmetry_group_IT_number 91
_symmetry_cell_setting 'tetragonal'
loop_
_space_group_symop_operation_xyz
x,y,z
-y,x,1/4+z
-x,-y,1/2+z
y,-x,3/4+z
x,-y,1/2-z
-x,y,-z
y,x,3/4-z
-y,-x,1/4-z
loop_
_atom_site_type_symbol
_atom_site_label
_atom_site_fract_x
_atom_site_fract_y
_atom_site_fract_z
Si Si1 0.712746 0.712746 0.375000
Si Si2 0.061486 0.194289 0.255445
Si Si3 0.500000 0.938193 0.000000
Si Si4 0.344393 0.183531 0.421963
O O1 0.693139 0.784155 0.621264
O O2 0.738621 0.638665 0.605286
O O3 0.114434 0.114434 0.375000
O O4 0.128677 0.268194 0.180470
O O5 0.000000 0.230002 0.500000
O O6 0.000000 0.169172 0.000000
O O7 0.424787 0.877516 0.112656
O O8 0.532606 0.000000 0.250000
#
# Coordination Sequence:
#
# PCOD9547961 Si02
#       4
#     4   8   4   8
#     4  10  20  38  64  84 118 170 214 252 298 396
#     4  12  24  38  58  79 111 159 212 266 322 365
#     4  12  24  40  62 102 138 166 208 284 354 410
#     4  11  22  40  64  88 125 165 216 258 327 404
#
# _framework density 20.932017999999999
#
# number of rings (size 3 to 8) (size 9 to 14) (size 15 to 20)
#    0.000    0.667    3.333    7.000    0.000    1.333 
#    0.000    0.000    0.000    0.000    0.000    0.000 
#    0.000   37.333    0.000    0.000    0.000    0.000 
#
# Total GULP energy -133637.567984 kJ/mol
# GULP energy per Si atom -5568.231999 kJ/mol
# Density = 2.088438 g / cm^3
# Si number density = 20.932018 Si / 1000 Ang^3
#
#
#
# Elastic Constant Matrix: (Units=GPa)
#
#
# Indices 1 2 3 4 5 6 
#
# 1 72.9832 35.3892 21.5196 0.0000 0.0000 0.0000
# 2 35.3892 72.9832 21.5196 0.0000 0.0000 0.0000
# 3 21.5196 21.5196 121.6725 0.0000 0.0000 0.0000
# 4 0.0000 0.0000 0.0000 21.5066 0.0000 0.0000
# 5 0.0000 0.0000 0.0000 0.0000 21.5066 0.0000
# 6 0.0000 0.0000 0.0000 0.0000 0.0000 18.1235
#
#
#
# Elastic Compliance Matrix: (Units=1/GPa)
#
#
# Indices 1 2 3 4 5 6 
#
# 1 0.018262 -0.008338 -0.001755 0.000000 0.000000 0.000000
# 2 -0.008338 0.018262 -0.001755 0.000000 0.000000 0.000000
# 3 -0.001755 -0.001755 0.008840 0.000000 0.000000 0.000000
# 4 0.000000 0.000000 0.000000 0.046497 0.000000 0.000000
# 5 0.000000 0.000000 0.000000 0.000000 0.046497 0.000000
# 6 0.000000 0.000000 0.000000 0.000000 0.000000 0.055177
#
#
# Mechanical properties :
#
#
# Convention : Reuss Voigt Hill
#
# Bulk Modulus (GPa) = 46.15194 47.16620 46.65907
# Shear Modulus (GPa) = 22.27617 24.84137 23.55877
#
# Velocity S-wave (km/s) = 3.26577 3.44868 3.35847
# Velocity P-wave (km/s) = 6.02633 6.19999 6.11378
#
# Compressibility (1/GPa) = 0.02166756
#
# Stress axis : x y z
#
# Youngs Moduli (GPa) = 54.75767 54.75767 113.12617
#
# Poissons Ratio (x) = 0.45655 0.19857
# Poissons Ratio (y) = 0.45655 0.19857
# Poissons Ratio (z) = 0.09612 0.09612
#
# Static dielectric constant tensor:
#      x y z
#    x 1.791970 0.000000 0.000000 
#    y 0.000000 1.791970 0.000000 
#    z 0.000000 0.000000 1.854490 
# 
# From -- ./inp_files/18404.got.cif
#   From: 2010.05.17/outbox.cif.g08.bks.cpg/sg91_10_cif.got.tgz:18404.got - 2010.06.03 19:20:03.
