data_PCOD9547929
_publ_section_title
;
Structure prediction by ZEFSAII (Michael W. Deem and Ramdas Pophale) SiO2 
 PCOD9547929
Probable space group: P 41 2 2
;
_chemical_formula_sum "Si O2"
_cell_formula_units_Z 48
_cell_length_a 14.008433
_cell_length_b 14.008433
_cell_length_c 12.510230
_cell_angle_alpha 90.000000
_cell_angle_beta 90.000000
_cell_angle_gamma 90.000000
_cell_volume 2454.959935
_symmetry_space_group_name_H-M "P 41 2 2"
_symmetry_group_IT_number 91
_symmetry_cell_setting 'tetragonal'
loop_
_space_group_symop_operation_xyz
x,y,z
-y,x,1/4+z
-x,-y,1/2+z
y,-x,3/4+z
x,-y,1/2-z
-x,y,-z
y,x,3/4-z
-y,-x,1/4-z
loop_
_atom_site_type_symbol
_atom_site_label
_atom_site_fract_x
_atom_site_fract_y
_atom_site_fract_z
Si Si1 0.830688 0.478621 0.375782
Si Si2 0.042665 0.412264 0.324866
Si Si3 0.177867 0.155551 0.601937
Si Si4 0.225076 0.038066 0.967390
Si Si5 0.110679 0.331166 0.979326
Si Si6 0.780476 0.668665 0.958170
O O1 0.809345 0.500000 0.250000
O O2 0.831247 0.578138 0.439342
O O3 0.766845 0.400617 0.438349
O O4 0.941353 0.442025 0.377708
O O5 0.071954 0.500000 0.250000
O O6 0.130597 0.380569 0.397548
O O7 0.013539 0.322180 0.253881
O O8 0.098863 0.189692 0.684379
O O9 0.277094 0.152080 0.668582
O O10 0.187296 0.229388 0.505821
O O11 0.156884 0.047948 0.565972
O O12 0.254347 0.101037 0.865935
O O13 0.000000 0.359770 0.000000
O O14 0.695277 0.695277 0.875000
#
# Coordination Sequence:
#
# PCOD9547929 Si02
#       6
#     8   8   8   8   8   8
#     4  11  21  37  64  94 122 165 216 276 343 390
#     4  11  21  37  66  95 123 163 221 277 349 388
#     4  11  24  38  61  85 129 180 224 270 316 384
#     4  11  21  40  63  87 126 178 225 273 321 378
#     4  10  20  37  62  87 119 163 218 276 327 379
#     4  12  24  36  59  95 134 169 205 270 340 399
#
# _framework density 19.552256
#
# number of rings (size 3 to 8) (size 9 to 14) (size 15 to 20)
#    0.000    1.000    6.667    2.000    2.333    0.000 
#    0.000    0.000   36.667    0.000    0.000    0.000 
#    0.000   53.333    0.000    0.000    0.000    0.000 
#
# Total GULP energy -268048.615090 kJ/mol
# GULP energy per Si atom -5584.346148 kJ/mol
# Density = 1.950775 g / cm^3
# Si number density = 19.552256 Si / 1000 Ang^3
#
#
#
# Elastic Constant Matrix: (Units=GPa)
#
#
# Indices 1 2 3 4 5 6 
#
# 1 42.5998 49.4935 44.5150 0.0000 0.0000 0.0000
# 2 49.4935 42.5998 44.5150 0.0000 0.0000 0.0000
# 3 44.5150 44.5150 104.3313 0.0000 0.0000 0.0000
# 4 0.0000 0.0000 0.0000 42.2297 0.0000 0.0000
# 5 0.0000 0.0000 0.0000 0.0000 42.2297 0.0000
# 6 0.0000 0.0000 0.0000 0.0000 0.0000 22.0681
#
#
#
# Elastic Compliance Matrix: (Units=1/GPa)
#
#
# Indices 1 2 3 4 5 6 
#
# 1 -0.063288 0.081770 -0.007886 0.000000 0.000000 0.000000
# 2 0.081770 -0.063288 -0.007886 0.000000 0.000000 0.000000
# 3 -0.007886 -0.007886 0.016314 0.000000 0.000000 0.000000
# 4 0.000000 0.000000 0.000000 0.023680 0.000000 0.000000
# 5 0.000000 0.000000 0.000000 0.000000 0.023680 0.000000
# 6 0.000000 0.000000 0.000000 0.000000 0.000000 0.045314
#
#
# Mechanical properties :
#
#
# Convention : Reuss Voigt Hill
#
# Bulk Modulus (GPa) = 46.00842 51.84201 48.92522
# Shear Modulus (GPa) = -35.12703 24.70597 -5.21053
#
# Velocity S-wave (km/s) = -4.24320 3.55855 -1.63423
# Velocity P-wave (km/s) = 0.65131 6.59216 4.63855
#
# Compressibility (1/GPa) = 0.02173515
#
# Stress axis : x y z
#
# Youngs Moduli (GPa) = -15.80073 -15.80073 61.29697
#
# Poissons Ratio (x) = 1.29203 0.48337
# Poissons Ratio (y) = 1.29203 0.48337
# Poissons Ratio (z) = -0.12460 -0.12460
#
# Static dielectric constant tensor:
#      x y z
#    x 1.715540 0.000000 0.000000 
#    y 0.000000 1.715540 0.000000 
#    z 0.000000 0.000000 1.762230 
# 
# From -- ./inp_files/10780.got.cif
#   From: 2010.05.17/outbox.cif.g08.bks.cpg/sg91_6_cif.got.tgz:10780.got - 2010.06.03 19:20:03.
