data_PCOD9547719
_publ_section_title
;
Structure prediction by ZEFSAII (Michael W. Deem and Ramdas Pophale) SiO2 
 PCOD9547719
Probable space group: P 41 2 2
;
_chemical_formula_sum "Si O2"
_cell_formula_units_Z 48
_cell_length_a 9.381639
_cell_length_b 9.381639
_cell_length_c 31.473789
_cell_angle_alpha 90.000000
_cell_angle_beta 90.000000
_cell_angle_gamma 90.000000
_cell_volume 2770.170270
_symmetry_space_group_name_H-M "P 41 2 2"
_symmetry_group_IT_number 91
_symmetry_cell_setting 'tetragonal'
loop_
_space_group_symop_operation_xyz
x,y,z
-y,x,1/4+z
-x,-y,1/2+z
y,-x,3/4+z
x,-y,1/2-z
-x,y,-z
y,x,3/4-z
-y,-x,1/4-z
loop_
_atom_site_type_symbol
_atom_site_label
_atom_site_fract_x
_atom_site_fract_y
_atom_site_fract_z
Si Si1 0.453464 0.922032 0.704281
Si Si2 0.060616 0.090914 0.293703
Si Si3 0.237064 0.335219 0.253330
Si Si4 0.757530 0.151605 0.831107
Si Si5 0.837175 0.251863 0.923116
Si Si6 0.662396 0.423052 0.991220
O O1 0.597179 0.902856 0.677658
O O2 0.394480 0.768813 0.719235
O O3 0.485647 0.000000 0.750000
O O4 0.342322 0.017949 0.678869
O O5 0.903046 0.132700 0.307397
O O6 0.150948 0.234177 0.285351
O O7 0.056252 0.000000 0.250000
O O8 0.138912 0.984376 0.326179
O O9 0.192889 0.500000 0.250000
O O10 0.217267 0.261582 0.207475
O O11 0.405322 0.330823 0.264890
O O12 0.783979 0.228379 0.875489
O O13 0.723234 0.337904 0.951293
O O14 0.500000 0.384264 0.000000
#
# Coordination Sequence:
#
# PCOD9547719 Si02
#       6
#     8   8   8   8   8   8
#     4   9  18  37  58  72 100 145 178 206 260 325
#     4  10  19  34  54  75 105 140 172 209 261 320
#     4   9  19  37  59  78 101 138 180 217 260 319
#     4  10  20  35  54  78 104 136 177 220 261 309
#     4  11  21  33  53  81 107 137 177 220 263 310
#     4   9  18  36  57  76 102 140 178 212 261 323
#
# _framework density 17.327455
#
# number of rings (size 3 to 8) (size 9 to 14) (size 15 to 20)
#    0.000    2.333    0.000    5.500    0.000    2.000 
#    0.000   14.167    0.000    0.000    0.000    0.000 
#    0.000    0.000    0.000    0.000    0.000    0.000 
#
# Total GULP energy -267704.052497 kJ/mol
# GULP energy per Si atom -5577.167760 kJ/mol
# Density = 1.728802 g / cm^3
# Si number density = 17.327455 Si / 1000 Ang^3
#
#
#
# Elastic Constant Matrix: (Units=GPa)
#
#
# Indices 1 2 3 4 5 6 
#
# 1 118.3595 64.8546 49.0546 0.0000 0.0000 0.0000
# 2 64.8546 118.3595 49.0546 0.0000 0.0000 0.0000
# 3 49.0546 49.0546 74.3488 0.0000 0.0000 0.0000
# 4 0.0000 0.0000 0.0000 13.7962 0.0000 0.0000
# 5 0.0000 0.0000 0.0000 0.0000 13.7962 0.0000
# 6 0.0000 0.0000 0.0000 0.0000 0.0000 -6.6108
#
#
#
# Elastic Compliance Matrix: (Units=1/GPa)
#
#
# Indices 1 2 3 4 5 6 
#
# 1 0.013565 -0.005125 -0.005569 0.000000 0.000000 0.000000
# 2 -0.005125 0.013565 -0.005569 0.000000 0.000000 0.000000
# 3 -0.005569 -0.005569 0.020798 0.000000 0.000000 0.000000
# 4 0.000000 0.000000 0.000000 0.072484 0.000000 0.000000
# 5 0.000000 0.000000 0.000000 0.000000 0.072484 0.000000
# 6 0.000000 0.000000 0.000000 0.000000 0.000000 -0.151267
#
#
# Mechanical properties :
#
#
# Convention : Reuss Voigt Hill
#
# Bulk Modulus (GPa) = 64.91877 70.77729 67.84803
# Shear Modulus (GPa) = 63.06113 14.06992 38.56553
#
# Velocity S-wave (km/s) = 6.03927 2.85266 4.72284
# Velocity P-wave (km/s) = 9.28319 7.19623 8.30552
#
# Compressibility (1/GPa) = 0.01540386
#
# Stress axis : x y z
#
# Youngs Moduli (GPa) = 73.71935 73.71935 48.08055
#
# Poissons Ratio (x) = 0.37780 0.26774
# Poissons Ratio (y) = 0.37780 0.26774
# Poissons Ratio (z) = 0.41052 0.41052
#
# Static dielectric constant tensor:
#      x y z
#    x 1.586450 0.000000 0.000000 
#    y 0.000000 1.586450 0.000000 
#    z 0.000000 0.000000 1.574920 
# 
# From -- ./inp_files/7945.got.cif
#   From: 2010.05.17/outbox.cif.g08.bks.cpg/sg91_4_cif.got.tgz:7945.got - 2010.06.03 19:20:03.
