data_PCOD9547234
_publ_section_title
;
Structure prediction by ZEFSAII (Michael W. Deem and Ramdas Pophale) SiO2 
 PCOD9547234
Probable space group: P 4 21 2
;
_chemical_formula_sum "Si O2"
_cell_formula_units_Z 56
_cell_length_a 14.831444
_cell_length_b 14.831444
_cell_length_c 13.038782
_cell_angle_alpha 90.000000
_cell_angle_beta 90.000000
_cell_angle_gamma 90.000000
_cell_volume 2868.163448
_symmetry_space_group_name_H-M "P 4 21 2"
_symmetry_group_IT_number 90
_symmetry_cell_setting 'tetragonal'
loop_
_space_group_symop_operation_xyz
x,y,z
1/2-y,1/2+x,z
-x,-y,z
1/2+y,1/2-x,z
1/2+x,1/2-y,-z
1/2-x,1/2+y,-z
y,x,-z
-y,-x,-z
loop_
_atom_site_type_symbol
_atom_site_label
_atom_site_fract_x
_atom_site_fract_y
_atom_site_fract_z
Si Si1 0.644300 0.183796 0.796217
Si Si2 0.620045 0.666678 0.383261
Si Si3 0.300405 0.817921 0.201043
Si Si4 0.434283 0.714057 0.479805
Si Si5 0.410674 0.122753 0.013275
Si Si6 0.254162 0.969806 0.685654
Si Si7 0.078238 0.373358 0.644334
O O1 0.716711 0.264100 0.807896
O O2 0.679601 0.114431 0.708025
O O3 0.547172 0.224756 0.768330
O O4 0.644534 0.124029 0.898874
O O5 0.665268 0.665268 0.500000
O O6 0.642255 0.740256 0.294991
O O7 0.514957 0.675432 0.409769
O O8 0.655604 0.575783 0.327480
O O9 0.305603 0.867156 0.092083
O O10 0.400995 0.836316 0.243011
O O11 0.365813 0.634188 0.500000
O O12 0.479261 0.760560 0.578111
O O13 0.382956 0.796019 0.426810
O O14 0.518563 0.121129 0.026695
O O15 0.117391 0.471942 0.627223
#
# Coordination Sequence:
#
# PCOD9547234 Si02
#       7
#     8   8   8   8   8   8   8
#     4  11  22  42  65  92 129 169 224 284 339 396
#     4   9  21  41  63  93 132 173 225 271 318 410
#     4  11  22  39  66  92 130 174 217 271 347 402
#     4  11  23  41  66  94 133 181 222 268 330 408
#     4  11  23  41  66  95 128 165 219 285 341 410
#     4  10  23  38  63  92 126 177 220 280 332 393
#     4  11  23  39  59  93 134 166 214 271 329 398
#
# _framework density 19.524688000000001
#
# number of rings (size 3 to 8) (size 9 to 14) (size 15 to 20)
#    0.000    1.429    2.857    2.143    2.000    5.714 
#    0.000    0.000    0.000    0.000    0.000    0.000 
#    0.000    0.000    0.000    0.000    0.000    0.000 
#
# Total GULP energy -311841.111359 kJ/mol
# GULP energy per Si atom -5568.591274 kJ/mol
# Density = 1.948025 g / cm^3
# Si number density = 19.524688 Si / 1000 Ang^3
#
#
#
# Elastic Constant Matrix: (Units=GPa)
#
#
# Indices 1 2 3 4 5 6 
#
# 1 92.4140 48.8932 36.9044 0.0000 0.0000 0.0000
# 2 48.8932 92.4208 36.9072 0.0000 0.0000 0.0000
# 3 36.9044 36.9072 96.7362 0.0000 0.0000 0.0000
# 4 0.0000 0.0000 0.0000 12.2459 0.0000 0.0000
# 5 0.0000 0.0000 0.0000 0.0000 12.2105 0.0000
# 6 0.0000 0.0000 0.0000 0.0000 0.0000 19.2678
#
#
#
# Elastic Compliance Matrix: (Units=1/GPa)
#
#
# Indices 1 2 3 4 5 6 
#
# 1 0.015907 -0.007069 -0.003372 0.000000 0.000000 0.000000
# 2 -0.007069 0.015906 -0.003372 0.000000 0.000000 0.000000
# 3 -0.003372 -0.003372 0.012910 0.000000 0.000000 0.000000
# 4 0.000000 0.000000 0.000000 0.081660 0.000000 0.000000
# 5 0.000000 0.000000 0.000000 0.000000 0.081897 0.000000
# 6 0.000000 0.000000 0.000000 0.000000 0.000000 0.051900
#
#
# Mechanical properties :
#
#
# Convention : Reuss Voigt Hill
#
# Bulk Modulus (GPa) = 58.48357 58.55340 58.51848
# Shear Modulus (GPa) = 17.03551 19.33593 18.18572
#
# Velocity S-wave (km/s) = 2.95703 3.15037 3.05523
# Velocity P-wave (km/s) = 6.45581 6.57933 6.51786
#
# Compressibility (1/GPa) = 0.01709882
#
# Stress axis : x y z
#
# Youngs Moduli (GPa) = 62.86454 62.86829 77.45897
#
# Poissons Ratio (x) = 0.44441 0.26116
# Poissons Ratio (y) = 0.44439 0.26118
# Poissons Ratio (z) = 0.21195 0.21198
#
# Static dielectric constant tensor:
#      x y z
#    x 1.761520 0.000000 0.000000 
#    y 0.000000 1.761680 0.000000 
#    z 0.000000 0.000000 1.752840 
# 
# From -- ./inp_files/2273.got.cif
#   From: 2010.05.17/outbox.cif.g08.bks.cpg/sg90_2_cif.got.tgz:2273.got - 2010.06.03 19:17:45.
