data_PCOD9547488
_publ_section_title
;
Structure prediction by ZEFSAII (Michael W. Deem and Ramdas Pophale) SiO2 
 PCOD9547488
Probable space group: P 41 2 2
;
_chemical_formula_sum "Si O2"
_cell_formula_units_Z 40
_cell_length_a 11.650558
_cell_length_b 11.650558
_cell_length_c 13.908271
_cell_angle_alpha 90.000000
_cell_angle_beta 90.000000
_cell_angle_gamma 90.000000
_cell_volume 1887.846142
_symmetry_space_group_name_H-M "P 41 2 2"
_symmetry_group_IT_number 91
_symmetry_cell_setting 'tetragonal'
loop_
_space_group_symop_operation_xyz
x,y,z
-y,x,1/4+z
-x,-y,1/2+z
y,-x,3/4+z
x,-y,1/2-z
-x,y,-z
y,x,3/4-z
-y,-x,1/4-z
loop_
_atom_site_type_symbol
_atom_site_label
_atom_site_fract_x
_atom_site_fract_y
_atom_site_fract_z
Si Si1 0.284454 0.552474 0.453296
Si Si2 0.396059 0.500000 0.250000
Si Si3 0.183973 0.220097 0.694102
Si Si4 0.375217 0.870785 0.277829
Si Si5 0.202963 0.797038 0.125000
Si Si6 0.030882 0.863159 0.277718
O O1 0.312890 0.520840 0.341647
O O2 0.392135 0.484730 0.500903
O O3 0.259464 0.686943 0.465522
O O4 0.171417 0.499595 0.501633
O O5 0.142084 0.330996 0.634704
O O6 0.098329 0.183589 0.779109
O O7 0.167837 0.111905 0.618474
O O8 0.299418 0.792967 0.205211
O O9 0.353063 0.000000 0.250000
O O10 0.087169 0.798880 0.186559
O O11 0.035051 0.000000 0.250000
#
# Coordination Sequence:
#
# PCOD9547488 Si02
#       6
#     8   4   8   8   4   8
#     4  11  23  40  65  92 122 169 215 264 315 375
#     4  10  22  42  66  90 118 168 228 256 306 380
#     4  11  22  38  64  94 125 168 210 258 314 387
#     4  11  21  36  59  94 128 154 208 270 305 358
#     4  10  16  32  58  86 120 158 198 248 304 356
#     4  11  19  36  62  95 127 166 206 251 317 386
#
# _framework density 21.188165999999999
#
# number of rings (size 3 to 8) (size 9 to 14) (size 15 to 20)
#    0.000    1.200    6.000    2.400    2.800    0.800 
#    0.000    2.000    8.800    0.000    0.000    0.000 
#    0.000    0.000    0.000    0.000    0.000    0.000 
#
# Total GULP energy -222846.464738 kJ/mol
# GULP energy per Si atom -5571.161618 kJ/mol
# Density = 2.113994 g / cm^3
# Si number density = 21.188166 Si / 1000 Ang^3
#
#
#
# Elastic Constant Matrix: (Units=GPa)
#
#
# Indices 1 2 3 4 5 6 
#
# 1 87.4532 2.0459 4.1862 0.0000 0.0000 0.0000
# 2 2.0459 87.4537 4.1860 0.0000 0.0000 0.0000
# 3 4.1862 4.1860 37.3016 0.0000 0.0000 0.0000
# 4 0.0000 0.0000 0.0000 9.9888 0.0000 0.0000
# 5 0.0000 0.0000 0.0000 0.0000 9.9887 0.0000
# 6 0.0000 0.0000 0.0000 0.0000 0.0000 25.7029
#
#
#
# Elastic Compliance Matrix: (Units=1/GPa)
#
#
# Indices 1 2 3 4 5 6 
#
# 1 0.011500 -0.000208 -0.001267 0.000000 0.000000 0.000000
# 2 -0.000208 0.011500 -0.001267 0.000000 0.000000 0.000000
# 3 -0.001267 -0.001267 0.027093 0.000000 0.000000 0.000000
# 4 0.000000 0.000000 0.000000 0.100113 0.000000 0.000000
# 5 0.000000 0.000000 0.000000 0.000000 0.100113 0.000000
# 6 0.000000 0.000000 0.000000 0.000000 0.000000 0.038906
#
#
# Mechanical properties :
#
#
# Convention : Reuss Voigt Hill
#
# Bulk Modulus (GPa) = 22.41762 25.89384 24.15573
# Shear Modulus (GPa) = 16.15093 22.58877 19.36985
#
# Velocity S-wave (km/s) = 2.76390 3.26867 3.02683
# Velocity P-wave (km/s) = 4.55947 5.14713 4.86219
#
# Compressibility (1/GPa) = 0.04460777
#
# Stress axis : x y z
#
# Youngs Moduli (GPa) = 86.95489 86.95536 36.90999
#
# Poissons Ratio (x) = 0.01812 0.04677
# Poissons Ratio (y) = 0.01812 0.04677
# Poissons Ratio (z) = 0.11019 0.11019
#
# Static dielectric constant tensor:
#      x y z
#    x 1.812330 0.000000 0.000000 
#    y 0.000000 1.812330 0.000000 
#    z 0.000000 0.000000 1.810450 
# 
# From -- ./inp_files/4805.got.cif
#   From: 2010.05.17/outbox.cif.g08.bks.cpg/sg91_3_cif.got.tgz:4805.got - 2010.06.03 19:20:03.
