data_PCOD9547088
_publ_section_title
;
Structure prediction by ZEFSAII (Michael W. Deem and Ramdas Pophale) SiO2 
 PCOD9547088
Probable space group: P 4 21 2
;
_chemical_formula_sum "Si O2"
_cell_formula_units_Z 48
_cell_length_a 12.032886
_cell_length_b 12.032886
_cell_length_c 17.543922
_cell_angle_alpha 90.000000
_cell_angle_beta 90.000000
_cell_angle_gamma 90.000000
_cell_volume 2540.190528
_symmetry_space_group_name_H-M "P 4 21 2"
_symmetry_group_IT_number 90
_symmetry_cell_setting 'tetragonal'
loop_
_space_group_symop_operation_xyz
x,y,z
1/2-y,1/2+x,z
-x,-y,z
1/2+y,1/2-x,z
1/2+x,1/2-y,-z
1/2-x,1/2+y,-z
y,x,-z
-y,-x,-z
loop_
_atom_site_type_symbol
_atom_site_label
_atom_site_fract_x
_atom_site_fract_y
_atom_site_fract_z
Si Si1 0.691405 0.627207 0.916559
Si Si2 0.071626 0.891078 0.357082
Si Si3 0.043635 0.676404 0.456691
Si Si4 0.999875 0.135119 0.193512
Si Si5 0.957884 0.322626 0.640942
Si Si6 0.191652 0.127742 0.084077
O O1 0.605906 0.673842 0.854582
O O2 0.714270 0.499875 0.899219
O O3 0.802005 0.697633 0.917424
O O4 0.636799 0.636799 0.000000
O O5 0.071797 0.794528 0.419931
O O6 0.012657 0.840480 0.282047
O O7 0.197259 0.928592 0.334372
O O8 0.000000 0.000000 0.380325
O O9 0.131042 0.579228 0.434989
O O10 0.044107 0.683022 0.548554
O O11 0.108462 0.173102 0.148488
O O12 0.000000 0.000000 0.188331
O O13 0.869466 0.419579 0.663254
O O14 0.137634 0.137634 0.000000
#
# Coordination Sequence:
#
# PCOD9547088 Si02
#       6
#     8   8   8   8   8   8
#     4  10  19  34  57  81 105 148 186 231 278 331
#     4  11  23  36  57  88 118 150 194 242 287 354
#     4   9  20  38  59  83 114 157 196 237 291 346
#     4   9  20  37  54  79 112 147 183 226 281 336
#     4   9  20  40  61  83 116 153 194 242 295 343
#     4  10  19  34  59  81 110 143 190 233 281 334
#
# _framework density 18.89622
#
# number of rings (size 3 to 8) (size 9 to 14) (size 15 to 20)
#    0.000    2.333    1.667    1.500    2.333    3.000 
#    6.000    0.000    0.000    0.500    0.000    0.000 
#    0.000    0.000    0.000    0.000    0.000    0.000 
#
# Total GULP energy -267706.824949 kJ/mol
# GULP energy per Si atom -5577.225520 kJ/mol
# Density = 1.885321 g / cm^3
# Si number density = 18.896220 Si / 1000 Ang^3
#
#
#
# Elastic Constant Matrix: (Units=GPa)
#
#
# Indices 1 2 3 4 5 6 
#
# 1 78.3316 42.1811 3.9747 0.0000 0.0000 0.0000
# 2 42.1811 78.3316 3.9747 0.0000 0.0000 0.0000
# 3 3.9747 3.9747 37.6403 0.0000 0.0000 0.0000
# 4 0.0000 0.0000 0.0000 -202.6751 0.0000 0.0000
# 5 0.0000 0.0000 0.0000 0.0000 -202.6751 0.0000
# 6 0.0000 0.0000 0.0000 0.0000 0.0000 0.2330
#
#
#
# Elastic Compliance Matrix: (Units=1/GPa)
#
#
# Indices 1 2 3 4 5 6 
#
# 1 0.018009 -0.009653 -0.000882 0.000000 0.000000 0.000000
# 2 -0.009653 0.018009 -0.000882 0.000000 0.000000 0.000000
# 3 -0.000882 -0.000882 0.026754 0.000000 0.000000 0.000000
# 4 0.000000 0.000000 0.000000 -0.004934 0.000000 0.000000
# 5 0.000000 0.000000 0.000000 0.000000 -0.004934 0.000000
# 6 0.000000 0.000000 0.000000 0.000000 0.000000 4.292580
#
#
# Mechanical properties :
#
#
# Convention : Reuss Voigt Hill
#
# Bulk Modulus (GPa) = 25.03989 32.72939 28.88464
# Shear Modulus (GPa) = 1.14113 -71.41190 -35.13539
#
# Velocity S-wave (km/s) = 0.77795 -6.15416 -4.31674
# Velocity P-wave (km/s) = 3.75326 5.75674 3.08651
#
# Compressibility (1/GPa) = 0.03993628
#
# Stress axis : x y z
#
# Youngs Moduli (GPa) = 55.52751 55.52751 37.37810
#
# Poissons Ratio (x) = 0.53601 0.03298
# Poissons Ratio (y) = 0.53601 0.03298
# Poissons Ratio (z) = 0.04900 0.04900
#
# Static dielectric constant tensor:
#      x y z
#    x 1.658830 0.000000 0.000000 
#    y 0.000000 1.658830 0.000000 
#    z 0.000000 0.000000 1.692270 
# 
# From -- ./inp_files/2635.got.cif
#   From: 2010.05.17/outbox.cif.g08.bks.cpg/sg90_2_cif.got.tgz:2635.got - 2010.06.03 19:17:45.
