data_PCOD9547760
_publ_section_title
;
Structure prediction by ZEFSAII (Michael W. Deem and Ramdas Pophale) SiO2 
 PCOD9547760
Probable space group: P 41 2 2
;
_chemical_formula_sum "Si O2"
_cell_formula_units_Z 36
_cell_length_a 11.758614
_cell_length_b 11.758614
_cell_length_c 12.494185
_cell_angle_alpha 90.000000
_cell_angle_beta 90.000000
_cell_angle_gamma 90.000000
_cell_volume 1727.508529
_symmetry_space_group_name_H-M "P 41 2 2"
_symmetry_group_IT_number 91
_symmetry_cell_setting 'tetragonal'
loop_
_space_group_symop_operation_xyz
x,y,z
-y,x,1/4+z
-x,-y,1/2+z
y,-x,3/4+z
x,-y,1/2-z
-x,y,-z
y,x,3/4-z
-y,-x,1/4-z
loop_
_atom_site_type_symbol
_atom_site_label
_atom_site_fract_x
_atom_site_fract_y
_atom_site_fract_z
Si Si1 0.300570 0.300570 0.375000
Si Si2 0.517044 0.167986 0.344101
Si Si3 0.792691 0.931331 0.457958
Si Si4 0.221609 0.187454 0.581257
Si Si5 0.538114 0.091927 0.111570
O O1 0.431030 0.261272 0.391532
O O2 0.226593 0.268363 0.478983
O O3 0.648988 0.186788 0.373508
O O4 0.507973 0.162067 0.215879
O O5 0.489382 0.037487 0.380603
O O6 0.885118 0.885118 0.375000
O O7 0.789490 0.863277 0.569862
O O8 0.673432 0.916900 0.396272
O O9 0.807591 0.065090 0.468831
O O10 0.500000 0.144473 0.000000
#
# Coordination Sequence:
#
# PCOD9547760 Si02
#       5
#     4   8   8   8   8
#     4  12  24  40  64  96 134 170 224 286 328 394
#     4  10  21  39  63  93 128 169 219 273 333 391
#     4  11  21  41  66  96 133 177 218 266 329 400
#     4  11  24  42  65  98 135 178 222 269 337 399
#     4  10  19  36  66  93 121 168 226 268 316 402
#
# _framework density 20.839261
#
# number of rings (size 3 to 8) (size 9 to 14) (size 15 to 20)
#    0.000    1.333    2.222    5.333    0.000    2.667 
#    6.000    0.000    0.000   13.333    0.000    0.000 
#    0.000    0.000    0.000    0.000    0.000    0.000 
#
# Total GULP energy -201010.276651 kJ/mol
# GULP energy per Si atom -5583.618796 kJ/mol
# Density = 2.079183 g / cm^3
# Si number density = 20.839261 Si / 1000 Ang^3
#
#
#
# Elastic Constant Matrix: (Units=GPa)
#
#
# Indices 1 2 3 4 5 6 
#
# 1 84.7071 42.2023 24.5630 0.0000 0.0000 0.0000
# 2 42.2023 84.7071 24.5630 0.0000 0.0000 0.0000
# 3 24.5630 24.5630 156.0397 0.0000 0.0000 0.0000
# 4 0.0000 0.0000 0.0000 23.2608 0.0000 0.0000
# 5 0.0000 0.0000 0.0000 0.0000 23.2608 0.0000
# 6 0.0000 0.0000 0.0000 0.0000 0.0000 40.6582
#
#
#
# Elastic Compliance Matrix: (Units=1/GPa)
#
#
# Indices 1 2 3 4 5 6 
#
# 1 0.015959 -0.007568 -0.001321 0.000000 0.000000 0.000000
# 2 -0.007568 0.015959 -0.001321 0.000000 0.000000 0.000000
# 3 -0.001321 -0.001321 0.006824 0.000000 0.000000 0.000000
# 4 0.000000 0.000000 0.000000 0.042991 0.000000 0.000000
# 5 0.000000 0.000000 0.000000 0.000000 0.042991 0.000000
# 6 0.000000 0.000000 0.000000 0.000000 0.000000 0.024595
#
#
# Mechanical properties :
#
#
# Convention : Reuss Voigt Hill
#
# Bulk Modulus (GPa) = 54.57650 56.45671 55.51661
# Shear Modulus (GPa) = 28.43396 33.04432 30.73914
#
# Velocity S-wave (km/s) = 3.69784 3.98638 3.84482
# Velocity P-wave (km/s) = 6.66920 6.95260 6.81237
#
# Compressibility (1/GPa) = 0.01832290
#
# Stress axis : x y z
#
# Youngs Moduli (GPa) = 62.66113 62.66113 146.53155
#
# Poissons Ratio (x) = 0.47421 0.19355
# Poissons Ratio (y) = 0.47421 0.19355
# Poissons Ratio (z) = 0.08277 0.08277
#
# Static dielectric constant tensor:
#      x y z
#    x 1.787830 0.000000 0.000000 
#    y 0.000000 1.787830 0.000000 
#    z 0.000000 0.000000 1.792950 
# 
# From -- ./inp_files/10488.got.cif
#   From: 2010.05.17/outbox.cif.g08.bks.cpg/sg91_6_cif.got.tgz:10488.got - 2010.06.03 19:20:03.
