data_PCOD9547459
_publ_section_title
;
Structure prediction by ZEFSAII (Michael W. Deem and Ramdas Pophale) SiO2 
 PCOD9547459
Probable space group: P 4 21 2
;
_chemical_formula_sum "Si O2"
_cell_formula_units_Z 48
_cell_length_a 9.000000
_cell_length_b 9.000000
_cell_length_c 30.000000
_cell_angle_alpha 90.000000
_cell_angle_beta 90.000000
_cell_angle_gamma 90.000000
_cell_volume 2430.000000
_symmetry_space_group_name_H-M "P 4 21 2"
_symmetry_group_IT_number 90
_symmetry_cell_setting 'tetragonal'
loop_
_space_group_symop_operation_xyz
x,y,z
1/2-y,1/2+x,z
-x,-y,z
1/2+y,1/2-x,z
1/2+x,1/2-y,-z
1/2-x,1/2+y,-z
y,x,-z
-y,-x,-z
loop_
_atom_site_type_symbol
_atom_site_label
_atom_site_fract_x
_atom_site_fract_y
_atom_site_fract_z
Si Si1 0.090808 0.266696 0.963342
Si Si2 0.000000 0.000000 0.603219
Si Si3 0.500000 0.500000 0.742188
Si Si4 0.047791 0.747406 0.673388
Si Si5 0.408169 0.776597 0.901428
Si Si6 0.434389 0.754710 0.534483
Si Si7 0.771312 0.431790 0.204815
O O1 0.184748 0.420079 0.966479
O O2 0.132972 0.176668 0.918937
O O3 0.152807 0.152807 0.000000
O O4 0.851592 0.947643 0.577413
O O5 0.049645 0.853193 0.630314
O O6 0.629036 0.568809 0.711655
O O7 0.411774 0.615240 0.772764
O O8 0.167561 0.614549 0.675395
O O9 0.577215 0.813265 0.916210
O O10 0.419789 0.766995 0.848420
O O11 0.600826 0.825799 0.530760
O O12 0.364935 0.635066 0.500000
O O13 0.823057 0.596948 0.218096
#
# Coordination Sequence:
#
# PCOD9547459 Si02
#       7
#     8   4   4   8   8   8   8
#     4  11  24  39  56  81 111 143 182 224 266 317
#     4  11  21  38  61  84 114 158 209 252 299 357
#     4  11  20  34  59  84 110 146 187 230 282 347
#     4  10  22  38  56  82 116 152 192 242 297 351
#     4   9  19  36  57  81 109 141 180 224 269 322
#     4  11  23  39  61  90 125 163 207 259 311 367
#     4   9  19  35  55  81 111 143 181 226 276 333
#
# _framework density 19.753086
#
# number of rings (size 3 to 8) (size 9 to 14) (size 15 to 20)
#    0.000    1.833    0.000    5.250    0.000    6.333 
#    0.000    1.667    0.000   10.000    0.000    0.000 
#    0.000    0.000    0.000    0.000    0.000    0.000 
#
# Total GULP energy -267400.603128 kJ/mol
# GULP energy per Si atom -5570.845899 kJ/mol
# Density = 1.970813 g / cm^3
# Si number density = 19.753086 Si / 1000 Ang^3
#
#
#
# Elastic Constant Matrix: (Units=GPa)
#
#
# Indices 1 2 3 4 5 6 
#
# 1 71.0262 11.6085 39.5970 0.0000 0.0000 0.0000
# 2 11.6085 71.0271 39.5969 0.0000 0.0000 0.0000
# 3 39.5970 39.5969 62.1358 0.0000 0.0000 0.0000
# 4 0.0000 0.0000 0.0000 11.5787 0.0000 0.0000
# 5 0.0000 0.0000 0.0000 0.0000 11.5786 0.0000
# 6 0.0000 0.0000 0.0000 0.0000 0.0000 30.9283
#
#
#
# Elastic Compliance Matrix: (Units=1/GPa)
#
#
# Indices 1 2 3 4 5 6 
#
# 1 0.023959 0.007129 -0.019811 0.000000 0.000000 0.000000
# 2 0.007129 0.023958 -0.019811 0.000000 0.000000 0.000000
# 3 -0.019811 -0.019811 0.041343 0.000000 0.000000 0.000000
# 4 0.000000 0.000000 0.000000 0.086366 0.000000 0.000000
# 5 0.000000 0.000000 0.000000 0.000000 0.086366 0.000000
# 6 0.000000 0.000000 0.000000 0.000000 0.000000 0.032333
#
#
# Mechanical properties :
#
#
# Convention : Reuss Voigt Hill
#
# Bulk Modulus (GPa) = 41.19557 42.86600 42.03078
# Shear Modulus (GPa) = 13.60908 18.37624 15.99266
#
# Velocity S-wave (km/s) = 2.62765 3.05339 2.84848
# Velocity P-wave (km/s) = 5.48695 5.84627 5.66946
#
# Compressibility (1/GPa) = 0.02427446
#
# Stress axis : x y z
#
# Youngs Moduli (GPa) = 41.73847 41.73933 24.18783
#
# Poissons Ratio (x) = -0.29754 0.47918
# Poissons Ratio (y) = -0.29754 0.47917
# Poissons Ratio (z) = 0.82687 0.82688
#
# Static dielectric constant tensor:
#      x y z
#    x 1.694080 0.000000 0.000000 
#    y 0.000000 1.694090 0.000000 
#    z 0.000000 0.000000 1.761970 
# 
# From -- ./inp_files/3121.got.cif
#   From: 2010.05.17/outbox.ucp.g08.bks.cvg/sg90_2_cif.got.tgz:3121.got - 2010.06.11 10:36:03.
