data_PCOD9547489
_publ_section_title
;
Structure prediction by ZEFSAII (Michael W. Deem and Ramdas Pophale) SiO2 
 PCOD9547489
Probable space group: P 41 2 2
;
_chemical_formula_sum "Si O2"
_cell_formula_units_Z 56
_cell_length_a 10.971421
_cell_length_b 10.971421
_cell_length_c 25.189570
_cell_angle_alpha 90.000000
_cell_angle_beta 90.000000
_cell_angle_gamma 90.000000
_cell_volume 3032.120904
_symmetry_space_group_name_H-M "P 41 2 2"
_symmetry_group_IT_number 91
_symmetry_cell_setting 'tetragonal'
loop_
_space_group_symop_operation_xyz
x,y,z
-y,x,1/4+z
-x,-y,1/2+z
y,-x,3/4+z
x,-y,1/2-z
-x,y,-z
y,x,3/4-z
-y,-x,1/4-z
loop_
_atom_site_type_symbol
_atom_site_label
_atom_site_fract_x
_atom_site_fract_y
_atom_site_fract_z
Si Si1 0.241405 0.234947 0.722032
Si Si2 0.061216 0.371978 0.097260
Si Si3 0.300028 0.512572 0.132775
Si Si4 0.248313 0.487414 0.522653
Si Si5 0.472031 0.000000 0.250000
Si Si6 0.544585 0.285661 0.897904
Si Si7 0.635887 0.500000 0.750000
Si Si8 0.700623 0.155740 0.080213
O O1 0.254304 0.120893 0.681822
O O2 0.374470 0.237053 0.751114
O O3 0.223078 0.352532 0.684387
O O4 0.151462 0.238864 0.772139
O O5 0.173425 0.461602 0.110955
O O6 0.988559 0.442818 0.051665
O O7 0.973121 0.344165 0.146210
O O8 0.351285 0.648716 0.125000
O O9 0.403458 0.423233 0.106967
O O10 0.291435 0.494047 0.195637
O O11 0.249668 0.469560 0.586094
O O12 0.377176 0.442623 0.500787
O O13 0.132662 0.411747 0.499512
O O14 0.414479 0.250243 0.922773
O O15 0.789453 0.210548 0.125000
#
# Coordination Sequence:
#
# PCOD9547489 Si02
#       8
#     8   8   8   8   4   8   4   8
#     4  10  21  33  52  78 116 151 182 231 296 354
#     4  10  21  36  51  81 116 148 193 234 288 366
#     4  10  20  35  53  77 116 153 188 230 280 358
#     4  10  19  31  53  77 114 148 191 229 286 364
#     4  10  16  34  48  72 108 152 182 224 274 350
#     4  10  19  32  51  83 112 144 184 229 295 364
#     4  10  20  32  52  80 108 156 188 232 292 352
#     4  12  20  33  55  83 114 145 185 241 302 352
#
# _framework density 18.468921000000002
#
# number of rings (size 3 to 8) (size 9 to 14) (size 15 to 20)
#    0.000    1.714    2.857    4.286    4.000    0.000 
#    2.571    0.000    0.000    0.000    0.000   22.000 
#    0.000    0.000    0.000    0.000    0.000    0.000 
#
# Total GULP energy -311805.449824 kJ/mol
# GULP energy per Si atom -5567.954461 kJ/mol
# Density = 1.842688 g / cm^3
# Si number density = 18.468921 Si / 1000 Ang^3
#
#
#
# Elastic Constant Matrix: (Units=GPa)
#
#
# Indices 1 2 3 4 5 6 
#
# 1 75.3240 25.0390 21.0478 0.0000 0.0000 0.0000
# 2 25.0390 75.3236 21.0476 0.0000 0.0000 0.0000
# 3 21.0478 21.0476 113.5013 0.0000 0.0000 0.0000
# 4 0.0000 0.0000 0.0000 25.2545 0.0000 0.0000
# 5 0.0000 0.0000 0.0000 0.0000 25.2543 0.0000
# 6 0.0000 0.0000 0.0000 0.0000 0.0000 4.9262
#
#
#
# Elastic Compliance Matrix: (Units=1/GPa)
#
#
# Indices 1 2 3 4 5 6 
#
# 1 0.015345 -0.004541 -0.002004 0.000000 0.000000 0.000000
# 2 -0.004541 0.015345 -0.002004 0.000000 0.000000 0.000000
# 3 -0.002004 -0.002004 0.009554 0.000000 0.000000 0.000000
# 4 0.000000 0.000000 0.000000 0.039597 0.000000 0.000000
# 5 0.000000 0.000000 0.000000 0.000000 0.039597 0.000000
# 6 0.000000 0.000000 0.000000 0.000000 0.000000 0.202998
#
#
# Mechanical properties :
#
#
# Convention : Reuss Voigt Hill
#
# Bulk Modulus (GPa) = 43.20064 44.26864 43.73464
# Shear Modulus (GPa) = 14.39888 24.22131 19.31009
#
# Velocity S-wave (km/s) = 2.79521 3.62534 3.23700
# Velocity P-wave (km/s) = 5.81888 6.44557 6.14023
#
# Compressibility (1/GPa) = 0.02314780
#
# Stress axis : x y z
#
# Youngs Moduli (GPa) = 65.16604 65.16572 104.67326
#
# Poissons Ratio (x) = 0.29593 0.20972
# Poissons Ratio (y) = 0.29594 0.20972
# Poissons Ratio (z) = 0.13056 0.13056
#
# Static dielectric constant tensor:
#      x y z
#    x 1.692760 0.000000 0.000000 
#    y 0.000000 1.692760 0.000000 
#    z 0.000000 0.000000 1.698690 
# 
# From -- ./inp_files/13272.got.cif
#   From: 2010.05.17/outbox.cif.g08.bks.cpg/sg91_7_cif.got.tgz:13272.got - 2010.06.03 19:20:03.
