data_PCOD9547163
_publ_section_title
;
Structure prediction by ZEFSAII (Michael W. Deem and Ramdas Pophale) SiO2 
 PCOD9547163
Probable space group: P 4 21 2
;
_chemical_formula_sum "Si O2"
_cell_formula_units_Z 60
_cell_length_a 12.147043
_cell_length_b 12.147043
_cell_length_c 19.533346
_cell_angle_alpha 90.000000
_cell_angle_beta 90.000000
_cell_angle_gamma 90.000000
_cell_volume 2882.157970
_symmetry_space_group_name_H-M "P 4 21 2"
_symmetry_group_IT_number 90
_symmetry_cell_setting 'tetragonal'
loop_
_space_group_symop_operation_xyz
x,y,z
1/2-y,1/2+x,z
-x,-y,z
1/2+y,1/2-x,z
1/2+x,1/2-y,-z
1/2-x,1/2+y,-z
y,x,-z
-y,-x,-z
loop_
_atom_site_type_symbol
_atom_site_label
_atom_site_fract_x
_atom_site_fract_y
_atom_site_fract_z
Si Si1 0.504112 0.715473 0.710460
Si Si2 0.329620 0.943807 0.569656
Si Si3 0.329794 0.420484 0.646900
Si Si4 0.405042 0.586748 0.081890
Si Si5 0.004356 0.319476 0.142012
Si Si6 0.932727 0.674467 0.844031
Si Si7 0.748948 0.354370 0.692725
Si Si8 0.619487 0.619487 0.500000
O O1 0.554745 0.782057 0.646437
O O2 0.582035 0.606980 0.707300
O O3 0.510571 0.785906 0.778775
O O4 0.375654 0.690267 0.700485
O O5 0.366307 0.067720 0.561287
O O6 0.244910 0.908167 0.512892
O O7 0.235734 0.326799 0.656855
O O8 0.266327 0.534418 0.650770
O O9 0.399834 0.425688 0.576178
O O10 0.500000 0.500000 0.104056
O O11 0.292521 0.527568 0.103352
O O12 0.412941 0.710650 0.114201
O O13 0.405989 0.594012 0.000000
O O14 0.108603 0.397197 0.126616
O O15 0.862052 0.561035 0.856205
O O16 0.895645 0.704995 0.766260
#
# Coordination Sequence:
#
# PCOD9547163 Si02
#       8
#     8   8   8   8   8   8   8   4
#     4  11  22  40  66 101 134 174 226 291 351 409
#     4  10  21  40  64  89 126 173 224 278 343 414
#     4  11  26  41  65 100 135 182 227 290 355 425
#     4  11  28  48  72 105 146 194 239 291 354 433
#     4  11  24  41  70 106 141 182 234 296 356 421
#     4  11  25  47  77 110 146 189 238 297 361 431
#     4  12  23  42  70  98 138 174 231 290 348 424
#     4  10  24  44  59  93 130 178 228 276 350 413
#
# _framework density 20.817734999999999
#
# number of rings (size 3 to 8) (size 9 to 14) (size 15 to 20)
#    0.000    1.067    2.667    3.600    5.600    2.400 
#    0.000    4.000    0.000    0.000    0.000    0.000 
#    0.000    0.000    0.000    0.000    0.000    0.000 
#
# Total GULP energy -334538.548193 kJ/mol
# GULP energy per Si atom -5575.642470 kJ/mol
# Density = 2.077035 g / cm^3
# Si number density = 20.817735 Si / 1000 Ang^3
#
#
#
# Elastic Constant Matrix: (Units=GPa)
#
#
# Indices 1 2 3 4 5 6 
#
# 1 131.8269 62.7519 34.9373 0.0000 0.0000 0.0000
# 2 62.7519 131.8270 34.9373 0.0000 0.0000 0.0000
# 3 34.9373 34.9373 64.9765 0.0000 0.0000 0.0000
# 4 0.0000 0.0000 0.0000 24.3188 0.0000 0.0000
# 5 0.0000 0.0000 0.0000 0.0000 24.3182 0.0000
# 6 0.0000 0.0000 0.0000 0.0000 0.0000 27.1383
#
#
#
# Elastic Compliance Matrix: (Units=1/GPa)
#
#
# Indices 1 2 3 4 5 6 
#
# 1 0.010423 -0.004054 -0.003425 0.000000 0.000000 0.000000
# 2 -0.004054 0.010423 -0.003425 0.000000 0.000000 0.000000
# 3 -0.003425 -0.003425 0.019073 0.000000 0.000000 0.000000
# 4 0.000000 0.000000 0.000000 0.041120 0.000000 0.000000
# 5 0.000000 0.000000 0.000000 0.000000 0.041121 0.000000
# 6 0.000000 0.000000 0.000000 0.000000 0.000000 0.036848
#
#
# Mechanical properties :
#
#
# Convention : Reuss Voigt Hill
#
# Bulk Modulus (GPa) = 55.20988 65.98707 60.59847
# Shear Modulus (GPa) = 26.75899 28.22199 27.49049
#
# Velocity S-wave (km/s) = 3.58913 3.68594 3.63786
# Velocity P-wave (km/s) = 6.61468 7.06266 6.84234
#
# Compressibility (1/GPa) = 0.01811270
#
# Stress axis : x y z
#
# Youngs Moduli (GPa) = 95.94111 95.94114 52.43029
#
# Poissons Ratio (x) = 0.38894 0.17955
# Poissons Ratio (y) = 0.38894 0.17955
# Poissons Ratio (z) = 0.32856 0.32856
#
# Static dielectric constant tensor:
#      x y z
#    x 1.775490 0.000000 0.000000 
#    y 0.000000 1.775490 0.000000 
#    z 0.000000 0.000000 1.726670 
# 
# From -- ./inp_files/2871.got.cif
#   From: 2010.05.17/outbox.cif.g08.bks.cpg/sg90_2_cif.got.tgz:2871.got - 2010.06.03 19:17:45.
