data_PCOD9547337
_publ_section_title
;
Structure prediction by ZEFSAII (Michael W. Deem and Ramdas Pophale) SiO2 
 PCOD9547337
Probable space group: P 4 21 2
;
_chemical_formula_sum "Si O2"
_cell_formula_units_Z 48
_cell_length_a 8.123356
_cell_length_b 8.123356
_cell_length_c 31.977253
_cell_angle_alpha 90.000000
_cell_angle_beta 90.000000
_cell_angle_gamma 90.000000
_cell_volume 2110.144157
_symmetry_space_group_name_H-M "P 4 21 2"
_symmetry_group_IT_number 90
_symmetry_cell_setting 'tetragonal'
loop_
_space_group_symop_operation_xyz
x,y,z
1/2-y,1/2+x,z
-x,-y,z
1/2+y,1/2-x,z
1/2+x,1/2-y,-z
1/2-x,1/2+y,-z
y,x,-z
-y,-x,-z
loop_
_atom_site_type_symbol
_atom_site_label
_atom_site_fract_x
_atom_site_fract_y
_atom_site_fract_z
Si Si1 0.414925 0.263392 0.213209
Si Si2 0.911281 0.236756 0.623690
Si Si3 0.762843 0.090227 0.541286
Si Si4 0.413969 0.263649 0.960108
Si Si5 0.086289 0.763750 0.294396
Si Si6 0.236616 0.908166 0.867866
O O1 0.600651 0.199525 0.215171
O O2 0.362873 0.372687 0.252536
O O3 0.377615 0.354965 0.169966
O O4 0.799210 0.401768 0.623682
O O5 0.864480 0.136045 0.582449
O O6 0.866929 0.134956 0.664919
O O7 0.597152 0.201381 0.541341
O O8 0.863558 0.136443 0.500000
O O9 0.600109 0.198857 0.961906
O O10 0.383321 0.338323 0.914125
O O11 0.370904 0.370904 0.000000
O O12 0.199806 0.599911 0.294984
O O13 0.403865 0.799300 0.864866
#
# Coordination Sequence:
#
# PCOD9547337 Si02
#       6
#     8   8   8   8   8   8
#     4  11  24  39  56  83 116 147 183 229 280 334
#     4  11  24  41  62  90 122 155 194 239 286 339
#     4  11  24  41  62  90 122 157 200 245 290 344
#     4   9  19  35  54  78 109 143 181 227 276 328
#     4  11  24  41  62  88 116 149 191 235 280 335
#     4   9  19  37  58  79 106 143 186 229 275 330
#
# _framework density 22.747259
#
# number of rings (size 3 to 8) (size 9 to 14) (size 15 to 20)
#    0.000    1.667    0.000    5.000    0.000   15.333 
#    0.000    5.000    0.000    0.000    0.000    0.000 
#    0.000    0.000    0.000    0.000    0.000    0.000 
#
# Total GULP energy -269177.271792 kJ/mol
# GULP energy per Si atom -5607.859829 kJ/mol
# Density = 2.269549 g / cm^3
# Si number density = 22.747259 Si / 1000 Ang^3
#
#
#
# Elastic Constant Matrix: (Units=GPa)
#
#
# Indices 1 2 3 4 5 6 
#
# 1 91.5871 56.9574 64.0567 0.0000 0.0000 0.0000
# 2 56.9574 91.5875 64.0570 0.0000 0.0000 0.0000
# 3 64.0567 64.0570 225.5195 0.0000 0.0000 0.0000
# 4 0.0000 0.0000 0.0000 353.1423 0.0000 0.0000
# 5 0.0000 0.0000 0.0000 0.0000 353.1434 0.0000
# 6 0.0000 0.0000 0.0000 0.0000 0.0000 48.0431
#
#
#
# Elastic Compliance Matrix: (Units=1/GPa)
#
#
# Indices 1 2 3 4 5 6 
#
# 1 0.018897 -0.009980 -0.002533 0.000000 0.000000 0.000000
# 2 -0.009980 0.018896 -0.002533 0.000000 0.000000 0.000000
# 3 -0.002533 -0.002533 0.005873 0.000000 0.000000 0.000000
# 4 0.000000 0.000000 0.000000 0.002832 0.000000 0.000000
# 5 0.000000 0.000000 0.000000 0.000000 0.002832 0.000000
# 6 0.000000 0.000000 0.000000 0.000000 0.000000 0.020815
#
#
# Mechanical properties :
#
#
# Convention : Reuss Voigt Hill
#
# Bulk Modulus (GPa) = 73.66449 86.53738 80.10094
# Shear Modulus (GPa) = 47.72818 165.77396 106.75107
#
# Velocity S-wave (km/s) = 4.58557 8.54603 6.85792
# Velocity P-wave (km/s) = 7.77759 11.64067 9.89939
#
# Compressibility (1/GPa) = 0.01357506
#
# Stress axis : x y z
#
# Youngs Moduli (GPa) = 52.91974 52.91990 170.27306
#
# Poissons Ratio (x) = 0.52816 0.43123
# Poissons Ratio (y) = 0.52815 0.43123
# Poissons Ratio (z) = 0.13402 0.13402
#
# Static dielectric constant tensor:
#      x y z
#    x 1.820850 0.000000 0.000000 
#    y 0.000000 1.820850 0.000000 
#    z 0.000000 0.000000 1.780530 
# 
# From -- ./inp_files/3037.got.cif
#   From: 2010.05.17/outbox.cif.g08.bks.cpg/sg90_2_cif.got.tgz:3037.got - 2010.06.03 19:17:45.
