data_PCOD9547369
_publ_section_title
;
Structure prediction by ZEFSAII (Michael W. Deem and Ramdas Pophale) SiO2 
 PCOD9547369
Probable space group: P 4 21 2
;
_chemical_formula_sum "Si O2"
_cell_formula_units_Z 36
_cell_length_a 8.492528
_cell_length_b 8.492528
_cell_length_c 24.544832
_cell_angle_alpha 90.000000
_cell_angle_beta 90.000000
_cell_angle_gamma 90.000000
_cell_volume 1770.247700
_symmetry_space_group_name_H-M "P 4 21 2"
_symmetry_group_IT_number 90
_symmetry_cell_setting 'tetragonal'
loop_
_space_group_symop_operation_xyz
x,y,z
1/2-y,1/2+x,z
-x,-y,z
1/2+y,1/2-x,z
1/2+x,1/2-y,-z
1/2-x,1/2+y,-z
y,x,-z
-y,-x,-z
loop_
_atom_site_type_symbol
_atom_site_label
_atom_site_fract_x
_atom_site_fract_y
_atom_site_fract_z
Si Si1 0.263917 0.536248 0.040327
Si Si2 0.472751 0.260922 0.838119
Si Si3 0.249517 0.096803 0.552651
Si Si4 0.755390 0.921309 0.345435
Si Si5 0.500000 0.500000 0.745403
O O1 0.167152 0.374151 0.033241
O O2 0.328104 0.501363 0.101302
O O3 0.394358 0.605643 0.000000
O O4 0.335355 0.134031 0.833818
O O5 0.437632 0.373248 0.788073
O O6 0.413916 0.196834 0.552822
O O7 0.150698 0.150698 0.500000
O O8 0.141850 0.140733 0.604330
O O9 0.600063 0.810920 0.347211
O O10 0.867192 0.921374 0.292600
#
# Coordination Sequence:
#
# PCOD9547369 Si02
#       5
#     8   8   8   8   4
#     4   9  19  35  55  83 118 154 196 246 301 366
#     4   9  20  38  58  83 117 156 200 249 303 366
#     4  11  24  42  66  97 132 171 214 259 311 374
#     4  11  24  41  61  89 124 161 206 261 320 380
#     4  12  22  38  62  86 112 156 208 258 312 366
#
# _framework density 20.336134999999999
#
# number of rings (size 3 to 8) (size 9 to 14) (size 15 to 20)
#    0.000    1.778    0.000    5.333    0.000    8.000 
#    0.000    2.222    0.000    2.667    0.000    0.000 
#    0.000    0.000    0.000    0.000    0.000    0.000 
#
# Total GULP energy -200520.528163 kJ/mol
# GULP energy per Si atom -5570.014671 kJ/mol
# Density = 2.028985 g / cm^3
# Si number density = 20.336135 Si / 1000 Ang^3
#
#
#
# Elastic Constant Matrix: (Units=GPa)
#
#
# Indices 1 2 3 4 5 6 
#
# 1 34.7735 63.5087 30.7891 0.0000 0.0000 0.0000
# 2 63.5087 34.7767 30.7876 0.0000 0.0000 0.0000
# 3 30.7891 30.7876 128.0382 0.0000 0.0000 0.0000
# 4 0.0000 0.0000 0.0000 34.4831 0.0000 0.0000
# 5 0.0000 0.0000 0.0000 0.0000 34.4835 0.0000
# 6 0.0000 0.0000 0.0000 0.0000 0.0000 32.1093
#
#
#
# Elastic Compliance Matrix: (Units=1/GPa)
#
#
# Indices 1 2 3 4 5 6 
#
# 1 -0.011412 0.023391 -0.002880 0.000000 0.000000 0.000000
# 2 0.023391 -0.011411 -0.002881 0.000000 0.000000 0.000000
# 3 -0.002880 -0.002881 0.009196 0.000000 0.000000 0.000000
# 4 0.000000 0.000000 0.000000 0.029000 0.000000 0.000000
# 5 0.000000 0.000000 0.000000 0.000000 0.028999 0.000000
# 6 0.000000 0.000000 0.000000 0.000000 0.000000 0.031144
#
#
# Mechanical properties :
#
#
# Convention : Reuss Voigt Hill
#
# Bulk Modulus (GPa) = 46.22803 49.75102 47.98952
# Shear Modulus (GPa) = 105.33807 25.04870 65.19338
#
# Velocity S-wave (km/s) = 7.20492 3.51341 5.66811
# Velocity P-wave (km/s) = 9.59145 6.40127 8.15390
#
# Compressibility (1/GPa) = 0.02163190
#
# Stress axis : x y z
#
# Youngs Moduli (GPa) = -87.62400 -87.63654 108.74870
#
# Poissons Ratio (x) = 2.04990 0.31322
# Poissons Ratio (y) = 2.04961 0.31330
# Poissons Ratio (z) = -0.25237 -0.25248
#
# Static dielectric constant tensor:
#      x y z
#    x 1.765670 0.000000 0.000000 
#    y 0.000000 1.765670 0.000000 
#    z 0.000000 0.000000 1.730510 
# 
# From -- ./inp_files/2728.got.cif
#   From: 2010.05.17/outbox.cif.g08.bks.cpg/sg90_2_cif.got.tgz:2728.got - 2010.06.03 19:17:45.
