data_PCOD9547275
_publ_section_title
;
Structure prediction by ZEFSAII (Michael W. Deem and Ramdas Pophale) SiO2 
 PCOD9547275
Probable space group: P 4 21 2
;
_chemical_formula_sum "Si O2"
_cell_formula_units_Z 40
_cell_length_a 9.519645
_cell_length_b 9.519645
_cell_length_c 23.829223
_cell_angle_alpha 90.000000
_cell_angle_beta 90.000000
_cell_angle_gamma 90.000000
_cell_volume 2159.490949
_symmetry_space_group_name_H-M "P 4 21 2"
_symmetry_group_IT_number 90
_symmetry_cell_setting 'tetragonal'
loop_
_space_group_symop_operation_xyz
x,y,z
1/2-y,1/2+x,z
-x,-y,z
1/2+y,1/2-x,z
1/2+x,1/2-y,-z
1/2-x,1/2+y,-z
y,x,-z
-y,-x,-z
loop_
_atom_site_type_symbol
_atom_site_label
_atom_site_fract_x
_atom_site_fract_y
_atom_site_fract_z
Si Si1 0.846211 0.162673 0.387331
Si Si2 0.810282 0.643922 0.144178
Si Si3 0.804719 0.631767 0.273695
Si Si4 0.141397 0.132356 0.565012
Si Si5 0.351050 0.187790 0.049620
O O1 0.816049 0.206179 0.323561
O O2 0.733513 0.231388 0.427680
O O3 0.998052 0.217714 0.407948
O O4 0.848448 0.998482 0.398797
O O5 0.810279 0.474073 0.134828
O O6 0.767933 0.664440 0.209306
O O7 0.709075 0.734401 0.104825
O O8 0.812379 0.463187 0.280123
O O9 0.108600 0.108600 0.500000
O O10 0.521826 0.190940 0.046900
O O11 0.275083 0.275083 0.000000
#
# Coordination Sequence:
#
# PCOD9547275 Si02
#       5
#     8   8   8   8   8
#     4  11  21  38  57  82 114 149 192 242 297 355
#     4   9  19  37  62  90 120 153 200 252 292 344
#     4   9  17  35  60  86 112 151 201 241 284 349
#     4  11  23  38  57  82 113 149 194 245 301 362
#     4  11  24  41  61  91 128 164 203 246 295 351
#
# _framework density 18.522884999999999
#
# number of rings (size 3 to 8) (size 9 to 14) (size 15 to 20)
#    0.000    1.800    2.000    4.800    0.000    5.200 
#    3.600    2.000    0.000    0.000    0.000    0.000 
#    0.000    0.000    0.000    0.000    0.000    0.000 
#
# Total GULP energy -223034.916745 kJ/mol
# GULP energy per Si atom -5575.872919 kJ/mol
# Density = 1.848073 g / cm^3
# Si number density = 18.522885 Si / 1000 Ang^3
#
#
#
# Elastic Constant Matrix: (Units=GPa)
#
#
# Indices 1 2 3 4 5 6 
#
# 1 82.1802 35.7512 55.1059 0.0000 0.0000 0.0000
# 2 35.7512 82.1802 55.1059 0.0000 0.0000 0.0000
# 3 55.1059 55.1059 161.4243 0.0000 0.0000 0.0000
# 4 0.0000 0.0000 0.0000 29.7600 0.0000 0.0000
# 5 0.0000 0.0000 0.0000 0.0000 29.7600 0.0000
# 6 0.0000 0.0000 0.0000 0.0000 0.0000 35.9408
#
#
#
# Elastic Compliance Matrix: (Units=1/GPa)
#
#
# Indices 1 2 3 4 5 6 
#
# 1 0.016995 -0.004543 -0.004251 0.000000 0.000000 0.000000
# 2 -0.004543 0.016995 -0.004251 0.000000 0.000000 0.000000
# 3 -0.004251 -0.004251 0.009097 0.000000 0.000000 0.000000
# 4 0.000000 0.000000 0.000000 0.033602 0.000000 0.000000
# 5 0.000000 0.000000 0.000000 0.000000 0.033602 0.000000
# 6 0.000000 0.000000 0.000000 0.000000 0.000000 0.027824
#
#
# Mechanical properties :
#
#
# Convention : Reuss Voigt Hill
#
# Bulk Modulus (GPa) = 58.83047 68.63452 63.73250
# Shear Modulus (GPa) = 29.43416 31.08027 30.25722
#
# Velocity S-wave (km/s) = 3.99064 4.10071 4.04605
# Velocity P-wave (km/s) = 7.28447 7.71722 7.50396
#
# Compressibility (1/GPa) = 0.01699799
#
# Stress axis : x y z
#
# Youngs Moduli (GPa) = 58.84026 58.84026 109.92558
#
# Poissons Ratio (x) = 0.26732 0.46727
# Poissons Ratio (y) = 0.26732 0.46727
# Poissons Ratio (z) = 0.25012 0.25012
#
# Static dielectric constant tensor:
#      x y z
#    x 1.624160 0.000000 0.000000 
#    y 0.000000 1.624160 0.000000 
#    z 0.000000 0.000000 1.657200 
# 
# From -- ./inp_files/2883.got.cif
#   From: 2010.05.17/outbox.cif.g08.bks.cpg/sg90_2_cif.got.tgz:2883.got - 2010.06.03 19:17:45.
