data_PCOD9547768
_publ_section_title
;
Structure prediction by ZEFSAII (Michael W. Deem and Ramdas Pophale) SiO2 
 PCOD9547768
Probable space group: P 41 2 2
;
_chemical_formula_sum "Si O2"
_cell_formula_units_Z 48
_cell_length_a 11.719244
_cell_length_b 11.719244
_cell_length_c 14.545845
_cell_angle_alpha 90.000000
_cell_angle_beta 90.000000
_cell_angle_gamma 90.000000
_cell_volume 1997.736242
_symmetry_space_group_name_H-M "P 41 2 2"
_symmetry_group_IT_number 91
_symmetry_cell_setting 'tetragonal'
loop_
_space_group_symop_operation_xyz
x,y,z
-y,x,1/4+z
-x,-y,1/2+z
y,-x,3/4+z
x,-y,1/2-z
-x,y,-z
y,x,3/4-z
-y,-x,1/4-z
loop_
_atom_site_type_symbol
_atom_site_label
_atom_site_fract_x
_atom_site_fract_y
_atom_site_fract_z
Si Si1 0.298503 0.124169 0.412260
Si Si2 0.977630 0.492363 0.137739
Si Si3 0.462330 0.715874 0.608090
Si Si4 0.684158 0.153119 0.376001
Si Si5 0.356372 0.538894 0.346441
Si Si6 0.049451 0.119904 0.603598
O O1 0.236764 0.236764 0.375000
O O2 0.330504 0.153729 0.514515
O O3 0.402347 0.060945 0.360684
O O4 0.200599 0.028056 0.416878
O O5 0.975336 0.500000 0.250000
O O6 0.845070 0.488383 0.112793
O O7 0.037116 0.378899 0.100338
O O8 0.500000 0.704300 0.500000
O O9 0.335404 0.664597 0.625000
O O10 0.544855 0.632791 0.664591
O O11 0.606534 0.260564 0.344666
O O12 0.821083 0.149530 0.369343
O O13 0.306283 0.500000 0.250000
O O14 0.426303 0.426303 0.375000
O O15 0.000000 0.146402 0.500000
O O16 0.009447 0.990554 0.625000
#
# Coordination Sequence:
#
# PCOD9547768 Si02
#       6
#     8   8   8   8   8   8
#     4  10  19  37  63  91 128 167 216 269 329 382
#     4   9  20  35  57  89 119 159 214 260 320 395
#     4  10  20  39  64  85 118 167 211 260 322 391
#     4  11  22  38  62  95 126 170 213 269 329 390
#     4  11  23  40  65  92 128 170 216 272 326 391
#     4  11  21  40  66  95 130 171 223 277 336 398
#
# _framework density 24.027196
#
# number of rings (size 3 to 8) (size 9 to 14) (size 15 to 20)
#    0.000    1.667    3.333    4.500    0.000    3.333 
#    0.000    0.000    3.667    0.000    0.000    0.000 
#    0.000    0.000    0.000    0.000    0.000    0.000 
#
# Total GULP energy -267628.219092 kJ/mol
# GULP energy per Si atom -5575.587898 kJ/mol
# Density = 2.397251 g / cm^3
# Si number density = 24.027196 Si / 1000 Ang^3
#
#
#
# Elastic Constant Matrix: (Units=GPa)
#
#
# Indices 1 2 3 4 5 6 
#
# 1 131.8679 96.5002 20.0587 0.0000 0.0000 0.0000
# 2 96.5002 131.8680 20.0589 0.0000 0.0000 0.0000
# 3 20.0587 20.0589 57.5180 0.0000 0.0000 0.0000
# 4 0.0000 0.0000 0.0000 18.2517 0.0000 0.0000
# 5 0.0000 0.0000 0.0000 0.0000 18.2517 0.0000
# 6 0.0000 0.0000 0.0000 0.0000 0.0000 126.8852
#
#
#
# Elastic Compliance Matrix: (Units=1/GPa)
#
#
# Indices 1 2 3 4 5 6 
#
# 1 0.016469 -0.011805 -0.001627 0.000000 0.000000 0.000000
# 2 -0.011805 0.016469 -0.001627 0.000000 0.000000 0.000000
# 3 -0.001627 -0.001627 0.018520 0.000000 0.000000 0.000000
# 4 0.000000 0.000000 0.000000 0.054789 0.000000 0.000000
# 5 0.000000 0.000000 0.000000 0.000000 0.054789 0.000000
# 6 0.000000 0.000000 0.000000 0.000000 0.000000 0.007881
#
#
# Mechanical properties :
#
#
# Convention : Reuss Voigt Hill
#
# Bulk Modulus (GPa) = 46.85417 66.05437 56.45427
# Shear Modulus (GPa) = 24.25414 44.98680 34.62047
#
# Velocity S-wave (km/s) = 3.18062 4.33174 3.80002
# Velocity P-wave (km/s) = 5.74729 7.25050 6.54221
#
# Compressibility (1/GPa) = 0.02134282
#
# Stress axis : x y z
#
# Youngs Moduli (GPa) = 60.71834 60.71833 53.99424
#
# Poissons Ratio (x) = 0.71677 0.08783
# Poissons Ratio (y) = 0.71677 0.08784
# Poissons Ratio (z) = 0.09877 0.09878
#
# Static dielectric constant tensor:
#      x y z
#    x 1.923110 0.000000 0.000000 
#    y 0.000000 1.923100 0.000000 
#    z 0.000000 0.000000 1.994140 
# 
# From -- ./inp_files/5615.got.cif
#   From: 2010.05.17/outbox.cif.g08.bks.cpg/sg91_3_cif.got.tgz:5615.got - 2010.06.03 19:20:03.
