data_PCOD9547749
_publ_section_title
;
Structure prediction by ZEFSAII (Michael W. Deem and Ramdas Pophale) SiO2 
 PCOD9547749
Probable space group: P 41 2 2
;
_chemical_formula_sum "Si O2"
_cell_formula_units_Z 48
_cell_length_a 9.175594
_cell_length_b 9.175594
_cell_length_c 31.968858
_cell_angle_alpha 90.000000
_cell_angle_beta 90.000000
_cell_angle_gamma 90.000000
_cell_volume 2691.506916
_symmetry_space_group_name_H-M "P 41 2 2"
_symmetry_group_IT_number 91
_symmetry_cell_setting 'tetragonal'
loop_
_space_group_symop_operation_xyz
x,y,z
-y,x,1/4+z
-x,-y,1/2+z
y,-x,3/4+z
x,-y,1/2-z
-x,y,-z
y,x,3/4-z
-y,-x,1/4-z
loop_
_atom_site_type_symbol
_atom_site_label
_atom_site_fract_x
_atom_site_fract_y
_atom_site_fract_z
Si Si1 0.644771 0.595187 0.790794
Si Si2 0.834085 0.172504 0.754533
Si Si3 0.338201 0.647113 0.832462
Si Si4 0.181453 0.656408 0.660063
Si Si5 0.163451 0.355750 0.163974
Si Si6 0.325927 0.858945 0.497280
O O1 0.600341 0.500000 0.750000
O O2 0.717523 0.742673 0.773937
O O3 0.505043 0.623612 0.819146
O O4 0.763855 0.498649 0.815313
O O5 0.811760 0.227197 0.802218
O O6 0.993358 0.235296 0.742397
O O7 0.826845 0.000000 0.750000
O O8 0.269626 0.492825 0.846024
O O9 0.325632 0.759143 0.870272
O O10 0.249019 0.695278 0.791270
O O11 0.230819 0.769182 0.625000
O O12 0.210577 0.710074 0.707570
O O13 0.009104 0.626627 0.658418
O O14 0.500000 0.894256 0.500000
#
# Coordination Sequence:
#
# PCOD9547749 Si02
#       6
#     8   8   8   8   8   8
#     4  10  19  36  58  79 108 144 184 226 272 325
#     4  10  21  38  58  80 111 150 185 222 273 332
#     4  11  21  35  60  85 106 142 189 232 275 326
#     4  10  20  36  56  80 111 145 184 227 273 326
#     4  10  22  37  55  81 113 147 180 224 281 332
#     4   9  19  38  59  81 112 152 185 223 284 337
#
# _framework density 17.833877000000001
#
# number of rings (size 3 to 8) (size 9 to 14) (size 15 to 20)
#    0.000    2.000    0.000    6.500    0.000    5.333 
#    0.000    2.500    0.000    0.000    0.000    0.000 
#    0.000    0.000    0.000    0.000    0.000    0.000 
#
# Total GULP energy -268028.419540 kJ/mol
# GULP energy per Si atom -5583.925407 kJ/mol
# Density = 1.779329 g / cm^3
# Si number density = 17.833877 Si / 1000 Ang^3
#
#
#
# Elastic Constant Matrix: (Units=GPa)
#
#
# Indices 1 2 3 4 5 6 
#
# 1 105.9228 70.3836 74.5768 0.0000 0.0000 0.0000
# 2 70.3836 105.9232 74.5758 0.0000 0.0000 0.0000
# 3 74.5768 74.5758 126.1363 0.0000 0.0000 0.0000
# 4 0.0000 0.0000 0.0000 16.4539 0.0000 0.0000
# 5 0.0000 0.0000 0.0000 0.0000 16.4538 0.0000
# 6 0.0000 0.0000 0.0000 0.0000 0.0000 19.1333
#
#
#
# Elastic Compliance Matrix: (Units=1/GPa)
#
#
# Indices 1 2 3 4 5 6 
#
# 1 0.019743 -0.008395 -0.006710 0.000000 0.000000 0.000000
# 2 -0.008395 0.019743 -0.006709 0.000000 0.000000 0.000000
# 3 -0.006710 -0.006709 0.015861 0.000000 0.000000 0.000000
# 4 0.000000 0.000000 0.000000 0.060776 0.000000 0.000000
# 5 0.000000 0.000000 0.000000 0.000000 0.060776 0.000000
# 6 0.000000 0.000000 0.000000 0.000000 0.000000 0.052265
#
#
# Mechanical properties :
#
#
# Convention : Reuss Voigt Hill
#
# Bulk Modulus (GPa) = 85.32334 86.33940 85.83137
# Shear Modulus (GPa) = 18.07025 18.30460 18.18743
#
# Velocity S-wave (km/s) = 3.18662 3.20722 3.19693
# Velocity P-wave (km/s) = 7.84134 7.88880 7.86511
#
# Compressibility (1/GPa) = 0.01172012
#
# Stress axis : x y z
#
# Youngs Moduli (GPa) = 50.65069 50.65204 63.04593
#
# Poissons Ratio (x) = 0.42522 0.42301
# Poissons Ratio (y) = 0.42521 0.42298
# Poissons Ratio (z) = 0.33984 0.33982
#
# Static dielectric constant tensor:
#      x y z
#    x 1.589890 0.000000 0.000000 
#    y 0.000000 1.589890 0.000000 
#    z 0.000000 0.000000 1.620170 
# 
# From -- ./inp_files/13596.got.cif
#   From: 2010.05.17/outbox.cif.g08.bks.cpg/sg91_7_cif.got.tgz:13596.got - 2010.06.03 19:20:03.
