data_PCOD9547323
_publ_section_title
;
Structure prediction by ZEFSAII (Michael W. Deem and Ramdas Pophale) SiO2 
 PCOD9547323
Probable space group: P 4 21 2
;
_chemical_formula_sum "Si O2"
_cell_formula_units_Z 42
_cell_length_a 8.435357
_cell_length_b 8.435357
_cell_length_c 27.494167
_cell_angle_alpha 90.000000
_cell_angle_beta 90.000000
_cell_angle_gamma 90.000000
_cell_volume 1956.354264
_symmetry_space_group_name_H-M "P 4 21 2"
_symmetry_group_IT_number 90
_symmetry_cell_setting 'tetragonal'
loop_
_space_group_symop_operation_xyz
x,y,z
1/2-y,1/2+x,z
-x,-y,z
1/2+y,1/2-x,z
1/2+x,1/2-y,-z
1/2-x,1/2+y,-z
y,x,-z
-y,-x,-z
loop_
_atom_site_type_symbol
_atom_site_label
_atom_site_fract_x
_atom_site_fract_y
_atom_site_fract_z
Si Si1 0.591258 0.748612 0.454564
Si Si2 0.613741 0.756050 0.744088
Si Si3 0.876941 0.262110 0.151215
Si Si4 0.751651 0.605654 0.362401
Si Si5 0.000000 0.500000 0.948735
Si Si6 0.171752 0.917737 0.051926
O O1 0.409777 0.804109 0.456566
O O2 0.641153 0.641153 0.500000
O O3 0.636771 0.659003 0.405103
O O4 0.426810 0.798946 0.744228
O O5 0.655715 0.680712 0.796194
O O6 0.642044 0.681163 0.691342
O O7 0.795389 0.434726 0.149937
O O8 0.826425 0.171501 0.103506
O O9 0.800483 0.420156 0.366278
O O10 0.812859 0.455214 0.948813
O O11 0.171013 0.828988 0.000000
O O12 0.000000 0.000000 0.052963
#
# Coordination Sequence:
#
# PCOD9547323 Si02
#       6
#     8   8   8   8   2   8
#     4  11  24  39  56  80 113 149 191 236 289 352
#     4   7  12  26  52  87 114 147 197 248 295 351
#     4   9  17  32  62  91 120 162 211 261 313 371
#     4   9  17  32  58  87 117 147 189 243 292 347
#     4  12  28  44  68  92 136 164 208 268 328 370
#     4  11  26  42  63  95 129 171 217 262 323 395
#
# _framework density 21.468506000000001
#
# number of rings (size 3 to 8) (size 9 to 14) (size 15 to 20)
#    0.000    2.476    0.000    4.571    5.333    4.190 
#    0.000    0.000   16.762    0.000    0.000    0.000 
#    0.000    0.000    0.000    0.000    0.000    0.000 
#
# Total GULP energy -233874.008108 kJ/mol
# GULP energy per Si atom -5568.428764 kJ/mol
# Density = 2.141964 g / cm^3
# Si number density = 21.468506 Si / 1000 Ang^3
#
#
#
# Elastic Constant Matrix: (Units=GPa)
#
#
# Indices 1 2 3 4 5 6 
#
# 1 -24.3600 84.0617 36.5616 0.0000 0.0000 0.0000
# 2 84.0617 -24.3545 36.5640 0.0000 0.0000 0.0000
# 3 36.5616 36.5640 233.3074 0.0000 0.0000 0.0000
# 4 0.0000 0.0000 0.0000 31.7558 0.0000 0.0000
# 5 0.0000 0.0000 0.0000 0.0000 31.7560 0.0000
# 6 0.0000 0.0000 0.0000 0.0000 0.0000 25.0767
#
#
#
# Elastic Compliance Matrix: (Units=1/GPa)
#
#
# Indices 1 2 3 4 5 6 
#
# 1 0.005752 0.014976 -0.003248 0.000000 0.000000 0.000000
# 2 0.014976 0.005753 -0.003248 0.000000 0.000000 0.000000
# 3 -0.003248 -0.003248 0.005304 0.000000 0.000000 0.000000
# 4 0.000000 0.000000 0.000000 0.031490 0.000000 0.000000
# 5 0.000000 0.000000 0.000000 0.000000 0.031490 0.000000
# 6 0.000000 0.000000 0.000000 0.000000 0.000000 0.039878
#
#
# Mechanical properties :
#
#
# Convention : Reuss Voigt Hill
#
# Bulk Modulus (GPa) = 29.61528 55.44086 42.52807
# Shear Modulus (GPa) = 43.87341 19.54474 31.70908
#
# Velocity S-wave (km/s) = 4.52554 3.02054 3.84735
# Velocity P-wave (km/s) = 6.41343 6.16808 6.29195
#
# Compressibility (1/GPa) = 0.03376635
#
# Stress axis : x y z
#
# Youngs Moduli (GPa) = 173.86298 173.83504 188.52547
#
# Poissons Ratio (x) = -2.60328 0.61239
# Poissons Ratio (y) = -2.60370 0.61240
# Poissons Ratio (z) = 0.56476 0.56468
#
# Static dielectric constant tensor:
#      x y z
#    x 1.781010 0.000000 0.000000 
#    y 0.000000 1.781020 0.000000 
#    z 0.000000 0.000000 1.807080 
# 
# From -- ./inp_files/2982.got.cif
#   From: 2010.05.17/outbox.cif.g08.bks.cpg/sg90_2_cif.got.tgz:2982.got - 2010.06.03 19:17:45.
