data_PCOD9547661
_publ_section_title
;
Structure prediction by ZEFSAII (Michael W. Deem and Ramdas Pophale) SiO2 
 PCOD9547661
Probable space group: P 41 2 2
;
_chemical_formula_sum "Si O2"
_cell_formula_units_Z 60
_cell_length_a 15.405336
_cell_length_b 15.405336
_cell_length_c 14.384368
_cell_angle_alpha 90.000000
_cell_angle_beta 90.000000
_cell_angle_gamma 90.000000
_cell_volume 3413.761178
_symmetry_space_group_name_H-M "P 41 2 2"
_symmetry_group_IT_number 91
_symmetry_cell_setting 'tetragonal'
loop_
_space_group_symop_operation_xyz
x,y,z
-y,x,1/4+z
-x,-y,1/2+z
y,-x,3/4+z
x,-y,1/2-z
-x,y,-z
y,x,3/4-z
-y,-x,1/4-z
loop_
_atom_site_type_symbol
_atom_site_label
_atom_site_fract_x
_atom_site_fract_y
_atom_site_fract_z
Si Si1 0.545132 0.057935 0.407940
Si Si2 0.183553 0.782297 0.527692
Si Si3 0.806394 0.736134 0.085912
Si Si4 0.306000 0.128687 0.485778
Si Si5 0.879235 0.047075 0.845962
Si Si6 0.000000 0.675207 0.500000
Si Si7 0.990699 0.830686 0.284387
Si Si8 0.903253 0.379007 0.539032
O O1 0.500000 0.012317 0.500000
O O2 0.602557 0.129637 0.460940
O O3 0.472889 0.096314 0.338467
O O4 0.610395 0.006506 0.339108
O O5 0.233581 0.766420 0.625000
O O6 0.245389 0.766881 0.438200
O O7 0.089530 0.733434 0.512800
O O8 0.171761 0.887494 0.536659
O O9 0.893646 0.793765 0.091303
O O10 0.746568 0.786521 0.012794
O O11 0.836375 0.644384 0.043670
O O12 0.315970 0.114787 0.376340
O O13 0.257986 0.044107 0.529326
O O14 0.962421 0.109448 0.859212
O O15 0.882375 0.000000 0.750000
O O16 0.871273 0.987655 0.934469
O O17 0.000000 0.366897 0.500000
#
# Coordination Sequence:
#
# PCOD9547661 Si02
#       8
#     8   8   8   8   8   4   8   8
#     4  10  22  38  58  80 102 147 194 254 293 358
#     4  11  24  34  53  73 105 153 195 240 285 339
#     4  10  20  35  51  74 101 143 182 236 289 347
#     4  10  19  37  55  74 109 143 189 231 302 343
#     4  10  19  29  42  63  95 131 181 230 276 305
#     4  12  22  42  56  78 114 154 206 244 298 348
#     4  10  21  32  45  66  93 142 185 232 269 331
#     4  11  20  32  56  81 106 133 193 241 298 339
#
# _framework density 17.575921000000001
#
# number of rings (size 3 to 8) (size 9 to 14) (size 15 to 20)
#    0.000    1.600    2.000    4.400    4.667    3.200 
#    0.000    0.000    0.000    0.000    0.000    0.000 
#    0.000    0.000    0.000   12.000    2.400    0.000 
#
# Total GULP energy -334010.842277 kJ/mol
# GULP energy per Si atom -5566.847371 kJ/mol
# Density = 1.753592 g / cm^3
# Si number density = 17.575921 Si / 1000 Ang^3
#
#
#
# Elastic Constant Matrix: (Units=GPa)
#
#
# Indices 1 2 3 4 5 6 
#
# 1 -45.0745 120.4375 35.4863 0.0000 0.0000 0.0000
# 2 120.4375 -45.0731 35.4865 0.0000 0.0000 0.0000
# 3 35.4863 35.4865 114.4549 0.0000 0.0000 0.0000
# 4 0.0000 0.0000 0.0000 29.2231 0.0000 0.0000
# 5 0.0000 0.0000 0.0000 0.0000 29.2231 0.0000
# 6 0.0000 0.0000 0.0000 0.0000 0.0000 5.2295
#
#
#
# Elastic Compliance Matrix: (Units=1/GPa)
#
#
# Indices 1 2 3 4 5 6 
#
# 1 0.006350 0.012391 -0.005811 0.000000 0.000000 0.000000
# 2 0.012391 0.006350 -0.005811 0.000000 0.000000 0.000000
# 3 -0.005811 -0.005811 0.012340 0.000000 0.000000 0.000000
# 4 0.000000 0.000000 0.000000 0.034219 0.000000 0.000000
# 5 0.000000 0.000000 0.000000 0.000000 0.034219 0.000000
# 6 0.000000 0.000000 0.000000 0.000000 0.000000 0.191222
#
#
# Mechanical properties :
#
#
# Convention : Reuss Voigt Hill
#
# Bulk Modulus (GPa) = 37.62247 45.23645 41.42946
# Shear Modulus (GPa) = 17.12212 1.59495 9.35853
#
# Velocity S-wave (km/s) = 3.12457 0.95364 2.31002
# Velocity P-wave (km/s) = 5.87107 5.19675 5.54417
#
# Compressibility (1/GPa) = 0.02657986
#
# Stress axis : x y z
#
# Youngs Moduli (GPa) = 157.49245 157.48884 81.03605
#
# Poissons Ratio (x) = -1.95152 0.47087
# Poissons Ratio (y) = -1.95156 0.47087
# Poissons Ratio (z) = 0.91512 0.91511
#
# Static dielectric constant tensor:
#      x y z
#    x 1.636060 0.000000 0.000000 
#    y 0.000000 1.636060 0.000000 
#    z 0.000000 0.000000 1.736200 
# 
# From -- ./inp_files/16575.got.cif
#   From: 2010.05.17/outbox.cif.g08.bks.cpg/sg91_9_cif.got.tgz:16575.got - 2010.06.03 19:20:03.
