data_PCOD9547295
_publ_section_title
;
Structure prediction by ZEFSAII (Michael W. Deem and Ramdas Pophale) SiO2 
 PCOD9547295
Probable space group: P 4 21 2
;
_chemical_formula_sum "Si O2"
_cell_formula_units_Z 48
_cell_length_a 14.471964
_cell_length_b 14.471964
_cell_length_c 9.661440
_cell_angle_alpha 90.000000
_cell_angle_beta 90.000000
_cell_angle_gamma 90.000000
_cell_volume 2023.470178
_symmetry_space_group_name_H-M "P 4 21 2"
_symmetry_group_IT_number 90
_symmetry_cell_setting 'tetragonal'
loop_
_space_group_symop_operation_xyz
x,y,z
1/2-y,1/2+x,z
-x,-y,z
1/2+y,1/2-x,z
1/2+x,1/2-y,-z
1/2-x,1/2+y,-z
y,x,-z
-y,-x,-z
loop_
_atom_site_type_symbol
_atom_site_label
_atom_site_fract_x
_atom_site_fract_y
_atom_site_fract_z
Si Si1 0.132873 0.565273 0.196047
Si Si2 0.515162 0.602518 0.137302
Si Si3 0.228182 0.838019 0.278754
Si Si4 0.607831 0.104097 0.474464
Si Si5 0.108639 0.891362 0.500000
Si Si6 0.158237 0.185375 0.200136
Si Si7 0.890860 0.890860 0.500000
O O1 0.117267 0.459672 0.150227
O O2 0.124152 0.594957 0.360877
O O3 0.235068 0.589661 0.152011
O O4 0.500000 0.500000 0.213251
O O5 0.574838 0.687332 0.197155
O O6 0.412600 0.642462 0.130894
O O7 0.567929 0.567929 0.000000
O O8 0.311645 0.848308 0.388799
O O9 0.137488 0.823798 0.374926
O O10 0.265250 0.756758 0.184311
O O11 0.502756 0.125501 0.433964
O O12 0.000345 0.875954 0.526816
O O13 0.139001 0.164187 0.363499
#
# Coordination Sequence:
#
# PCOD9547295 Si02
#       7
#     8   8   8   8   4   8   4
#     4   9  20  35  57 101 158 200 236 294 368 457
#     4  11  27  53  74  95 145 195 255 340 394 436
#     4  12  23  39  66 107 140 191 254 312 369 471
#     4   9  18  33  54  91 153 204 230 283 363 449
#     4  11  23  36  62  98 160 196 228 308 376 460
#     4  12  24  39  72 108 140 204 255 306 385 478
#     4  11  23  38  58 106 162 200 238 290 390 468
#
# _framework density 23.721623000000001
#
# number of rings (size 3 to 8) (size 9 to 14) (size 15 to 20)
#    0.000    1.333    1.667    5.500    9.333    0.000 
#    3.000    0.000    0.000    0.000    0.000    0.000 
#    0.000    0.000    0.000    0.000    0.000    0.000 
#
# Total GULP energy -267551.968116 kJ/mol
# GULP energy per Si atom -5573.999336 kJ/mol
# Density = 2.366763 g / cm^3
# Si number density = 23.721623 Si / 1000 Ang^3
#
#
#
# Elastic Constant Matrix: (Units=GPa)
#
#
# Indices 1 2 3 4 5 6 
#
# 1 139.9396 50.3244 22.0678 0.0000 0.0000 0.0000
# 2 50.3244 139.9388 22.0677 0.0000 0.0000 0.0000
# 3 22.0678 22.0677 52.2967 0.0000 0.0000 0.0000
# 4 0.0000 0.0000 0.0000 9.9792 0.0000 0.0000
# 5 0.0000 0.0000 0.0000 0.0000 9.9794 0.0000
# 6 0.0000 0.0000 0.0000 0.0000 0.0000 112.3298
#
#
#
# Elastic Compliance Matrix: (Units=1/GPa)
#
#
# Indices 1 2 3 4 5 6 
#
# 1 0.008492 -0.002666 -0.002458 0.000000 0.000000 0.000000
# 2 -0.002666 0.008493 -0.002458 0.000000 0.000000 0.000000
# 3 -0.002458 -0.002458 0.021196 0.000000 0.000000 0.000000
# 4 0.000000 0.000000 0.000000 0.100208 0.000000 0.000000
# 5 0.000000 0.000000 0.000000 0.000000 0.100207 0.000000
# 6 0.000000 0.000000 0.000000 0.000000 0.000000 0.008902
#
#
# Mechanical properties :
#
#
# Convention : Reuss Voigt Hill
#
# Bulk Modulus (GPa) = 43.45013 57.89944 50.67479
# Shear Modulus (GPa) = 18.49542 42.30535 30.40039
#
# Velocity S-wave (km/s) = 2.79532 4.22762 3.58375
# Velocity P-wave (km/s) = 5.36422 6.94919 6.20750
#
# Compressibility (1/GPa) = 0.02301489
#
# Stress axis : x y z
#
# Youngs Moduli (GPa) = 117.75109 117.75046 47.17764
#
# Poissons Ratio (x) = 0.31396 0.11599
# Poissons Ratio (y) = 0.31397 0.11598
# Poissons Ratio (z) = 0.28949 0.28949
#
# Static dielectric constant tensor:
#      x y z
#    x 1.905810 0.000000 0.000000 
#    y 0.000000 1.905810 0.000000 
#    z 0.000000 0.000000 2.094460 
# 
# From -- ./inp_files/2169.got.cif
#   From: 2010.05.17/outbox.cif.g08.bks.cpg/sg90_2_cif.got.tgz:2169.got - 2010.06.03 19:17:45.
