data_PCOD9547227
_publ_section_title
;
Structure prediction by ZEFSAII (Michael W. Deem and Ramdas Pophale) SiO2 
 PCOD9547227
Probable space group: P 4 21 2
;
_chemical_formula_sum "Si O2"
_cell_formula_units_Z 42
_cell_length_a 15.168939
_cell_length_b 15.168939
_cell_length_c 7.869995
_cell_angle_alpha 90.000000
_cell_angle_beta 90.000000
_cell_angle_gamma 90.000000
_cell_volume 1810.859960
_symmetry_space_group_name_H-M "P 4 21 2"
_symmetry_group_IT_number 90
_symmetry_cell_setting 'tetragonal'
loop_
_space_group_symop_operation_xyz
x,y,z
1/2-y,1/2+x,z
-x,-y,z
1/2+y,1/2-x,z
1/2+x,1/2-y,-z
1/2-x,1/2+y,-z
y,x,-z
-y,-x,-z
loop_
_atom_site_type_symbol
_atom_site_label
_atom_site_fract_x
_atom_site_fract_y
_atom_site_fract_z
Si Si1 0.830836 0.014391 0.768282
Si Si2 0.000000 0.500000 0.604456
Si Si3 0.000000 0.500000 0.166007
Si Si4 0.167332 0.832669 0.500000
Si Si5 0.644287 0.148584 0.316003
Si Si6 0.691360 0.327622 0.195316
Si Si7 0.670001 0.110030 0.918212
Si Si8 0.000000 0.000000 0.000000
O O1 0.845093 0.092010 0.637873
O O2 0.747688 0.042801 0.880613
O O3 0.811058 0.917175 0.699563
O O4 0.916078 0.004784 0.881202
O O5 0.065502 0.411153 0.610098
O O6 0.078832 0.425494 0.157828
O O7 0.265208 0.849914 0.423602
O O8 0.632144 0.252883 0.281503
O O9 0.658200 0.115177 0.121632
O O10 0.795026 0.304403 0.163273
O O11 0.660151 0.339850 0.000000
#
# Coordination Sequence:
#
# PCOD9547227 Si02
#       8
#     8   2   2   4   8   8   8   2
#     4  12  25  46  73 108 149 201 248 316 378 464
#     4  12  29  48  81 110 153 196 269 318 393 452
#     4  12  21  36  81 122 145 188 269 334 365 432
#     4  12  28  47  74 108 164 201 240 302 412 473
#     4  11  25  46  72 113 149 202 248 324 381 470
#     4  10  22  42  73 107 145 192 257 316 377 438
#     4  11  21  41  73 110 147 192 258 317 372 441
#     4  12  28  46  76 100 132 194 264 320 360 438
#
# _framework density 23.1934
#
# number of rings (size 3 to 8) (size 9 to 14) (size 15 to 20)
#    0.000    0.762    4.762    2.857    4.000    3.429 
#    0.000    0.952    0.000    0.000    0.000    0.000 
#    0.000    0.000    0.000    0.000    0.000    0.000 
#
# Total GULP energy -233809.603181 kJ/mol
# GULP energy per Si atom -5566.895314 kJ/mol
# Density = 2.314061 g / cm^3
# Si number density = 23.193400 Si / 1000 Ang^3
#
#
#
# Elastic Constant Matrix: (Units=GPa)
#
#
# Indices 1 2 3 4 5 6 
#
# 1 143.6731 20.7700 12.7109 0.0000 0.0000 0.0000
# 2 20.7700 143.6723 12.7109 0.0000 0.0000 0.0000
# 3 12.7109 12.7109 47.2465 0.0000 0.0000 0.0000
# 4 0.0000 0.0000 0.0000 -38.0717 0.0000 0.0000
# 5 0.0000 0.0000 0.0000 0.0000 -38.0592 0.0000
# 6 0.0000 0.0000 0.0000 0.0000 0.0000 62.4902
#
#
#
# Elastic Compliance Matrix: (Units=1/GPa)
#
#
# Indices 1 2 3 4 5 6 
#
# 1 0.007241 -0.000896 -0.001707 0.000000 0.000000 0.000000
# 2 -0.000896 0.007241 -0.001707 0.000000 0.000000 0.000000
# 3 -0.001707 -0.001707 0.022084 0.000000 0.000000 0.000000
# 4 0.000000 0.000000 0.000000 -0.026266 0.000000 0.000000
# 5 0.000000 0.000000 0.000000 0.000000 -0.026275 0.000000
# 6 0.000000 0.000000 0.000000 0.000000 0.000000 0.016003
#
#
# Mechanical properties :
#
#
# Convention : Reuss Voigt Hill
#
# Bulk Modulus (GPa) = 35.78322 47.44172 41.61247
# Shear Modulus (GPa) = 278.36425 16.49852 147.43138
#
# Velocity S-wave (km/s) = 10.96719 2.67000 7.98148
# Velocity P-wave (km/s) = 13.26024 5.47763 10.14491
#
# Compressibility (1/GPa) = 0.02794606
#
# Stress axis : x y z
#
# Youngs Moduli (GPa) = 138.10712 138.10633 45.28146
#
# Poissons Ratio (x) = 0.12371 0.07730
# Poissons Ratio (y) = 0.12371 0.07730
# Poissons Ratio (z) = 0.23575 0.23575
#
# Static dielectric constant tensor:
#      x y z
#    x 1.919360 0.000000 0.000000 
#    y 0.000000 1.919350 0.000000 
#    z 0.000000 0.000000 1.911570 
# 
# From -- ./inp_files/1427.got.cif
#   From: 2010.05.17/outbox.cif.g08.bks.cpg/sg90_1_cif.got.tgz:1427.got - 2010.06.03 19:17:45.
