data_PCOD9547252
_publ_section_title
;
Structure prediction by ZEFSAII (Michael W. Deem and Ramdas Pophale) SiO2 
 PCOD9547252
Probable space group: P 4 21 2
;
_chemical_formula_sum "Si O2"
_cell_formula_units_Z 48
_cell_length_a 12.237701
_cell_length_b 12.237701
_cell_length_c 16.097799
_cell_angle_alpha 90.000000
_cell_angle_beta 90.000000
_cell_angle_gamma 90.000000
_cell_volume 2410.827720
_symmetry_space_group_name_H-M "P 4 21 2"
_symmetry_group_IT_number 90
_symmetry_cell_setting 'tetragonal'
loop_
_space_group_symop_operation_xyz
x,y,z
1/2-y,1/2+x,z
-x,-y,z
1/2+y,1/2-x,z
1/2+x,1/2-y,-z
1/2-x,1/2+y,-z
y,x,-z
-y,-x,-z
loop_
_atom_site_type_symbol
_atom_site_label
_atom_site_fract_x
_atom_site_fract_y
_atom_site_fract_z
Si Si1 0.098483 0.229450 0.649909
Si Si2 0.627867 0.503040 0.281164
Si Si3 0.682053 0.986731 0.177396
Si Si4 0.993171 0.318443 0.147202
Si Si5 0.999882 0.819143 0.985287
Si Si6 0.873533 0.201877 0.589423
O O1 0.032827 0.268124 0.732060
O O2 0.191286 0.313889 0.624892
O O3 0.003766 0.219019 0.581853
O O4 0.147492 0.111370 0.671652
O O5 0.500000 0.500000 0.254027
O O6 0.712017 0.512339 0.205466
O O7 0.641586 0.602607 0.345396
O O8 0.597184 0.887223 0.167792
O O9 0.772928 0.990379 0.107027
O O10 0.890360 0.398151 0.162623
O O11 0.995975 0.277957 0.052155
O O12 0.895349 0.895349 0.000000
O O13 0.105944 0.894057 0.000000
O O14 0.826061 0.173940 0.500000
#
# Coordination Sequence:
#
# PCOD9547252 Si02
#       6
#     8   8   8   8   8   8
#     4  11  23  44  71  98 138 174 230 282 345 413
#     4  10  24  41  69  99 133 179 228 278 345 413
#     4  11  23  42  66  96 132 177 231 289 350 402
#     4  11  24  43  65  95 136 179 225 279 342 410
#     4  11  26  40  63  96 135 179 234 286 343 403
#     4  11  26  43  70 102 135 180 224 291 348 415
#
# _framework density 19.910174000000001
#
# number of rings (size 3 to 8) (size 9 to 14) (size 15 to 20)
#    0.000    1.167    1.667    3.000    9.333    8.000 
#    0.000    0.000    0.000    0.000    0.000    0.000 
#    0.000    0.000    0.000    0.000    0.000    0.000 
#
# Total GULP energy -268512.654046 kJ/mol
# GULP energy per Si atom -5594.013626 kJ/mol
# Density = 1.986486 g / cm^3
# Si number density = 19.910174 Si / 1000 Ang^3
#
#
#
# Elastic Constant Matrix: (Units=GPa)
#
#
# Indices 1 2 3 4 5 6 
#
# 1 75.0538 33.6850 42.2874 0.0000 0.0000 0.0000
# 2 33.6850 75.0545 42.2873 0.0000 0.0000 0.0000
# 3 42.2874 42.2873 107.5499 0.0000 0.0000 0.0000
# 4 0.0000 0.0000 0.0000 24.4352 0.0000 0.0000
# 5 0.0000 0.0000 0.0000 0.0000 24.4356 0.0000
# 6 0.0000 0.0000 0.0000 0.0000 0.0000 15.8744
#
#
#
# Elastic Compliance Matrix: (Units=1/GPa)
#
#
# Indices 1 2 3 4 5 6 
#
# 1 0.018710 -0.005462 -0.005209 0.000000 0.000000 0.000000
# 2 -0.005462 0.018710 -0.005209 0.000000 0.000000 0.000000
# 3 -0.005209 -0.005209 0.013394 0.000000 0.000000 0.000000
# 4 0.000000 0.000000 0.000000 0.040925 0.000000 0.000000
# 5 0.000000 0.000000 0.000000 0.000000 0.040924 0.000000
# 6 0.000000 0.000000 0.000000 0.000000 0.000000 0.062994
#
#
# Mechanical properties :
#
#
# Convention : Reuss Voigt Hill
#
# Bulk Modulus (GPa) = 52.48218 54.90863 53.69540
# Shear Modulus (GPa) = 21.38867 22.24229 21.81548
#
# Velocity S-wave (km/s) = 3.28114 3.34598 3.31372
# Velocity P-wave (km/s) = 6.38524 6.52422 6.45510
#
# Compressibility (1/GPa) = 0.01905409
#
# Stress axis : x y z
#
# Youngs Moduli (GPa) = 53.44669 53.44740 74.65974
#
# Poissons Ratio (x) = 0.29196 0.38889
# Poissons Ratio (y) = 0.29195 0.38888
# Poissons Ratio (z) = 0.27840 0.27839
#
# Static dielectric constant tensor:
#      x y z
#    x 1.695730 0.000000 0.000000 
#    y 0.000000 1.695730 0.000000 
#    z 0.000000 0.000000 1.685600 
# 
# From -- ./inp_files/2646.got.cif
#   From: 2010.05.17/outbox.cif.g08.bks.cpg/sg90_2_cif.got.tgz:2646.got - 2010.06.03 19:17:45.
