data_PCOD9547268
_publ_section_title
;
Structure prediction by ZEFSAII (Michael W. Deem and Ramdas Pophale) SiO2 
 PCOD9547268
Probable space group: P 4 21 2
;
_chemical_formula_sum "Si O2"
_cell_formula_units_Z 56
_cell_length_a 14.017095
_cell_length_b 14.017095
_cell_length_c 14.146438
_cell_angle_alpha 90.000000
_cell_angle_beta 90.000000
_cell_angle_gamma 90.000000
_cell_volume 2779.477316
_symmetry_space_group_name_H-M "P 4 21 2"
_symmetry_group_IT_number 90
_symmetry_cell_setting 'tetragonal'
loop_
_space_group_symop_operation_xyz
x,y,z
1/2-y,1/2+x,z
-x,-y,z
1/2+y,1/2-x,z
1/2+x,1/2-y,-z
1/2-x,1/2+y,-z
y,x,-z
-y,-x,-z
loop_
_atom_site_type_symbol
_atom_site_label
_atom_site_fract_x
_atom_site_fract_y
_atom_site_fract_z
Si Si1 0.927035 0.357624 0.657671
Si Si2 0.154815 0.001175 0.029453
Si Si3 0.577334 0.413861 0.392111
Si Si4 0.573276 0.856544 0.555572
Si Si5 0.462395 0.277480 0.715166
Si Si6 0.320323 0.446464 0.758309
Si Si7 0.999109 0.340377 0.099171
O O1 0.878084 0.460047 0.666422
O O2 0.900209 0.281779 0.736510
O O3 0.907806 0.321611 0.550913
O O4 0.171322 0.997773 0.141622
O O5 0.089539 0.910462 0.000000
O O6 0.254483 0.998622 0.975050
O O7 0.093394 0.093394 0.000000
O O8 0.500000 0.500000 0.397320
O O9 0.607072 0.392929 0.500000
O O10 0.669415 0.450534 0.336418
O O11 0.520496 0.338299 0.328116
O O12 0.622549 0.959564 0.565330
O O13 0.596174 0.780904 0.636040
O O14 0.398895 0.363359 0.755973
O O15 0.495192 0.206889 0.797105
O O16 0.907342 0.408610 0.088664
#
# Coordination Sequence:
#
# PCOD9547268 Si02
#       7
#     8   8   8   8   8   8   8
#     4   9  20  40  60  83 122 167 210 257 310 375
#     4  11  24  45  70  93 126 171 218 273 333 394
#     4   9  19  34  57  90 128 167 204 252 315 379
#     4   9  18  35  59  84 120 172 210 241 305 379
#     4  11  20  36  61  89 128 164 204 265 315 383
#     4  11  22  38  64  92 119 161 213 255 321 383
#     4  11  25  45  68  98 132 170 221 276 336 398
#
# _framework density 20.147673000000001
#
# number of rings (size 3 to 8) (size 9 to 14) (size 15 to 20)
#    0.000    1.857    1.429    3.429    4.000    4.571 
#    7.714    1.429    0.000    0.000    0.000    0.000 
#    0.000    0.000    0.000    0.000    0.000    0.000 
#
# Total GULP energy -312816.686831 kJ/mol
# GULP energy per Si atom -5586.012265 kJ/mol
# Density = 2.010182 g / cm^3
# Si number density = 20.147673 Si / 1000 Ang^3
#
#
#
# Elastic Constant Matrix: (Units=GPa)
#
#
# Indices 1 2 3 4 5 6 
#
# 1 94.5705 33.9575 48.4364 0.0000 0.0000 0.0000
# 2 33.9575 94.5709 48.4361 0.0000 0.0000 0.0000
# 3 48.4364 48.4361 119.3607 0.0000 0.0000 0.0000
# 4 0.0000 0.0000 0.0000 22.2696 0.0000 0.0000
# 5 0.0000 0.0000 0.0000 0.0000 22.2695 0.0000
# 6 0.0000 0.0000 0.0000 0.0000 0.0000 4.6943
#
#
#
# Elastic Compliance Matrix: (Units=1/GPa)
#
#
# Indices 1 2 3 4 5 6 
#
# 1 0.013853 -0.002645 -0.004548 0.000000 0.000000 0.000000
# 2 -0.002645 0.013853 -0.004548 0.000000 0.000000 0.000000
# 3 -0.004548 -0.004548 0.012069 0.000000 0.000000 0.000000
# 4 0.000000 0.000000 0.000000 0.044904 0.000000 0.000000
# 5 0.000000 0.000000 0.000000 0.000000 0.044904 0.000000
# 6 0.000000 0.000000 0.000000 0.000000 0.000000 0.213025
#
#
# Mechanical properties :
#
#
# Convention : Reuss Voigt Hill
#
# Bulk Modulus (GPa) = 61.37634 63.35136 62.36385
# Shear Modulus (GPa) = 13.45809 21.69148 17.57478
#
# Velocity S-wave (km/s) = 2.58732 3.28476 2.95667
# Velocity P-wave (km/s) = 6.28132 6.77480 6.53272
#
# Compressibility (1/GPa) = 0.01629292
#
# Stress axis : x y z
#
# Youngs Moduli (GPa) = 72.18465 72.18519 82.85401
#
# Poissons Ratio (x) = 0.19091 0.37686
# Poissons Ratio (y) = 0.19091 0.37685
# Poissons Ratio (z) = 0.32833 0.32832
#
# Static dielectric constant tensor:
#      x y z
#    x 1.720020 0.000000 0.000000 
#    y 0.000000 1.720010 0.000000 
#    z 0.000000 0.000000 1.711890 
# 
# From -- ./inp_files/2258.got.cif
#   From: 2010.05.17/outbox.cif.g08.bks.cpg/sg90_2_cif.got.tgz:2258.got - 2010.06.03 19:17:45.
