data_PCOD9547019
_publ_section_title
;
Structure prediction by ZEFSAII (Michael W. Deem and Ramdas Pophale) SiO2 
 PCOD9547019
Probable space group: P 4 2 2
;
_chemical_formula_sum "Si O2"
_cell_formula_units_Z 48
_cell_length_a 8.779015
_cell_length_b 8.779015
_cell_length_c 32.334951
_cell_angle_alpha 90.000000
_cell_angle_beta 90.000000
_cell_angle_gamma 90.000000
_cell_volume 2492.090383
_symmetry_space_group_name_H-M "P 4 2 2"
_symmetry_group_IT_number 89
_symmetry_cell_setting 'tetragonal'
loop_
_space_group_symop_operation_xyz
x,y,z
-y,x,z
-x,-y,z
y,-x,z
x,-y,-z
-x,y,-z
y,x,-z
-y,-x,-z
loop_
_atom_site_type_symbol
_atom_site_label
_atom_site_fract_x
_atom_site_fract_y
_atom_site_fract_z
Si Si1 0.724068 0.369815 0.243986
Si Si2 0.748321 0.965103 0.952740
Si Si3 0.000000 0.500000 0.109925
Si Si4 0.356043 0.289030 0.337896
Si Si5 0.758089 0.909395 0.168760
Si Si6 0.679894 0.679894 0.500000
Si Si7 0.157760 0.801072 0.418114
O O1 0.700891 0.553022 0.238393
O O2 0.768427 0.329614 0.291211
O O3 0.849252 0.306069 0.212530
O O4 0.614379 0.920952 0.922129
O O5 0.837624 0.123323 0.945241
O O6 0.698268 0.000000 0.000000
O O7 0.102051 0.613085 0.137908
O O8 0.538085 0.296914 0.341284
O O9 0.281501 0.203553 0.375837
O O10 0.914010 0.811689 0.163650
O O11 0.500000 0.706621 0.500000
O O12 0.734026 0.763611 0.458699
O O13 0.976548 0.794242 0.419097
#
# Coordination Sequence:
#
# PCOD9547019 Si02
#       7
#     8   8   4   8   8   4   8
#     4   9  19  38  62  87 117 153 195 247 305 363
#     4   9  19  37  61  89 120 154 195 244 299 363
#     4  12  21  34  58  86 116 154 198 244 297 358
#     4   9  19  37  61  87 115 150 193 237 286 351
#     4  11  24  39  56  82 116 154 199 249 301 360
#     4  11  24  41  62  86 112 145 190 241 294 358
#     4  11  24  39  56  84 120 154 191 237 288 346
#
# _framework density 19.260940999999999
#
# number of rings (size 3 to 8) (size 9 to 14) (size 15 to 20)
#    0.000    1.917    0.000    5.250    0.000    8.000 
#    0.000    5.000    0.000    4.500    0.000    9.333 
#    0.000    0.000    0.000    0.000    0.000    0.000 
#
# Total GULP energy -267508.105683 kJ/mol
# GULP energy per Si atom -5573.085535 kJ/mol
# Density = 1.921710 g / cm^3
# Si number density = 19.260941 Si / 1000 Ang^3
#
#
#
# Elastic Constant Matrix: (Units=GPa)
#
#
# Indices 1 2 3 4 5 6 
#
# 1 52.2293 76.7982 81.3491 0.0000 0.0000 0.0000
# 2 76.7982 52.2293 81.3491 0.0000 0.0000 0.0000
# 3 81.3491 81.3491 154.8423 0.0000 0.0000 0.0000
# 4 0.0000 0.0000 0.0000 8.7004 0.0000 0.0000
# 5 0.0000 0.0000 0.0000 0.0000 8.7004 0.0000
# 6 0.0000 0.0000 0.0000 0.0000 0.0000 26.8119
#
#
#
# Elastic Compliance Matrix: (Units=1/GPa)
#
#
# Indices 1 2 3 4 5 6 
#
# 1 -0.008870 0.031832 -0.012063 0.000000 0.000000 0.000000
# 2 0.031832 -0.008870 -0.012063 0.000000 0.000000 0.000000
# 3 -0.012063 -0.012063 0.019133 0.000000 0.000000 0.000000
# 4 0.000000 0.000000 0.000000 0.114938 0.000000 0.000000
# 5 0.000000 0.000000 0.000000 0.000000 0.114938 0.000000
# 6 0.000000 0.000000 0.000000 0.000000 0.000000 0.037297
#
#
# Mechanical properties :
#
#
# Convention : Reuss Voigt Hill
#
# Bulk Modulus (GPa) = 59.51125 82.03262 70.77194
# Shear Modulus (GPa) = 19.32325 10.16283 14.74304
#
# Velocity S-wave (km/s) = 3.17082 2.29953 2.76966
# Velocity P-wave (km/s) = 6.66108 7.05217 6.85941
#
# Compressibility (1/GPa) = 0.01680355
#
# Stress axis : x y z
#
# Youngs Moduli (GPa) = -112.73714 -112.73714 52.26455
#
# Poissons Ratio (x) = 3.58861 0.63048
# Poissons Ratio (y) = 3.58861 0.63048
# Poissons Ratio (z) = -1.35997 -1.35997
#
# Static dielectric constant tensor:
#      x y z
#    x 1.707950 0.000000 0.000000 
#    y 0.000000 1.707950 0.000000 
#    z 0.000000 0.000000 1.713370 
# 
# From -- ./inp_files/3029.got.cif
#   From: 2010.05.17/outbox.cif.g08.bks.cpg/sg89_2_cif.got.tgz:3029.got - 2010.06.03 19:15:31.
