data_PCOD9547309
_publ_section_title
;
Structure prediction by ZEFSAII (Michael W. Deem and Ramdas Pophale) SiO2 
 PCOD9547309
Probable space group: P 4 21 2
;
_chemical_formula_sum "Si O2"
_cell_formula_units_Z 48
_cell_length_a 8.146046
_cell_length_b 8.146046
_cell_length_c 32.812886
_cell_angle_alpha 90.000000
_cell_angle_beta 90.000000
_cell_angle_gamma 90.000000
_cell_volume 2177.399636
_symmetry_space_group_name_H-M "P 4 21 2"
_symmetry_group_IT_number 90
_symmetry_cell_setting 'tetragonal'
loop_
_space_group_symop_operation_xyz
x,y,z
1/2-y,1/2+x,z
-x,-y,z
1/2+y,1/2-x,z
1/2+x,1/2-y,-z
1/2-x,1/2+y,-z
y,x,-z
-y,-x,-z
loop_
_atom_site_type_symbol
_atom_site_label
_atom_site_fract_x
_atom_site_fract_y
_atom_site_fract_z
Si Si1 0.584100 0.736377 0.461417
Si Si2 0.736656 0.587998 0.960871
Si Si3 0.079836 0.763550 0.293814
Si Si4 0.587150 0.736145 0.371517
Si Si5 0.736443 0.590224 0.784356
Si Si6 0.737366 0.593192 0.872858
O O1 0.398875 0.802353 0.463294
O O2 0.628055 0.628055 0.500000
O O3 0.612924 0.661498 0.416564
O O4 0.800918 0.401506 0.962357
O O5 0.654573 0.621710 0.916630
O O6 0.631139 0.631139 0.000000
O O7 0.197309 0.604000 0.293771
O O8 0.122183 0.863387 0.334386
O O9 0.124141 0.862934 0.253296
O O10 0.400943 0.801542 0.368787
O O11 0.800428 0.403027 0.782028
O O12 0.656800 0.621988 0.828933
O O13 0.800073 0.404842 0.872865
#
# Coordination Sequence:
#
# PCOD9547309 Si02
#       6
#     8   8   8   8   8   8
#     4   9  19  35  54  78 107 135 165 204 247 290
#     4   9  17  30  48  70  97 128 161 198 241 288
#     4  11  24  37  48  70 105 137 162 195 244 297
#     4   9  19  37  58  77  98 129 171 212 245 283
#     4   9  17  32  56  79  94 117 160 208 248 289
#     4   7  12  26  48  71  93 119 156 201 242 282
#
# _framework density 22.044644000000002
#
# number of rings (size 3 to 8) (size 9 to 14) (size 15 to 20)
#    0.000    3.000    0.000    4.000    0.000    6.000 
#    0.000    6.667    0.000    8.000    0.000    0.000 
#    0.000    0.000    0.000    0.000    0.000    0.000 
#
# Total GULP energy -268271.071970 kJ/mol
# GULP energy per Si atom -5588.980666 kJ/mol
# Density = 2.199447 g / cm^3
# Si number density = 22.044644 Si / 1000 Ang^3
#
#
#
# Elastic Constant Matrix: (Units=GPa)
#
#
# Indices 1 2 3 4 5 6 
#
# 1 54.1822 39.6982 66.3326 0.0000 0.0000 0.0000
# 2 39.6982 54.1822 66.3326 0.0000 0.0000 0.0000
# 3 66.3326 66.3326 264.1875 0.0000 0.0000 0.0000
# 4 0.0000 0.0000 0.0000 72.2688 0.0000 0.0000
# 5 0.0000 0.0000 0.0000 0.0000 72.2688 0.0000
# 6 0.0000 0.0000 0.0000 0.0000 0.0000 35.6672
#
#
#
# Elastic Compliance Matrix: (Units=1/GPa)
#
#
# Indices 1 2 3 4 5 6 
#
# 1 0.042776 -0.026266 -0.004145 0.000000 0.000000 0.000000
# 2 -0.026266 0.042776 -0.004145 0.000000 0.000000 0.000000
# 3 -0.004145 -0.004145 0.005867 0.000000 0.000000 0.000000
# 4 0.000000 0.000000 0.000000 0.013837 0.000000 0.000000
# 5 0.000000 0.000000 0.000000 0.000000 0.013837 0.000000
# 6 0.000000 0.000000 0.000000 0.000000 0.000000 0.028037
#
#
# Mechanical properties :
#
#
# Convention : Reuss Voigt Hill
#
# Bulk Modulus (GPa) = 44.83295 79.69764 62.26530
# Shear Modulus (GPa) = 22.35365 49.38687 35.87026
#
# Velocity S-wave (km/s) = 3.18782 4.73833 4.03819
# Velocity P-wave (km/s) = 5.82504 8.13431 7.07453
#
# Compressibility (1/GPa) = 0.02230502
#
# Stress axis : x y z
#
# Youngs Moduli (GPa) = 23.37785 23.37785 170.45092
#
# Poissons Ratio (x) = 0.61404 0.70656
# Poissons Ratio (y) = 0.61404 0.70656
# Poissons Ratio (z) = 0.09691 0.09691
#
# Static dielectric constant tensor:
#      x y z
#    x 1.801910 0.000000 0.000000 
#    y 0.000000 1.801910 0.000000 
#    z 0.000000 0.000000 1.824680 
# 
# From -- ./inp_files/3039.got.cif
#   From: 2010.05.17/outbox.cif.g08.bks.cpg/sg90_2_cif.got.tgz:3039.got - 2010.06.03 19:17:45.
