data_PCOD9547889
_publ_section_title
;
Structure prediction by ZEFSAII (Michael W. Deem and Ramdas Pophale) SiO2 
 PCOD9547889
Probable space group: P 41 2 2
;
_chemical_formula_sum "Si O2"
_cell_formula_units_Z 48
_cell_length_a 9.797615
_cell_length_b 9.797615
_cell_length_c 27.594716
_cell_angle_alpha 90.000000
_cell_angle_beta 90.000000
_cell_angle_gamma 90.000000
_cell_volume 2648.906739
_symmetry_space_group_name_H-M "P 41 2 2"
_symmetry_group_IT_number 91
_symmetry_cell_setting 'tetragonal'
loop_
_space_group_symop_operation_xyz
x,y,z
-y,x,1/4+z
-x,-y,1/2+z
y,-x,3/4+z
x,-y,1/2-z
-x,y,-z
y,x,3/4-z
-y,-x,1/4-z
loop_
_atom_site_type_symbol
_atom_site_label
_atom_site_fract_x
_atom_site_fract_y
_atom_site_fract_z
Si Si1 0.500000 0.129809 0.500000
Si Si2 0.196666 0.000000 0.250000
Si Si3 0.264709 0.645218 0.004196
Si Si4 0.421168 0.024623 0.603061
Si Si5 0.486917 0.313148 0.652800
Si Si6 0.393553 0.208177 0.141242
Si Si7 0.891632 0.092837 0.401849
O O1 0.627765 0.231457 0.506792
O O2 0.472961 0.042771 0.548002
O O3 0.293911 0.118929 0.270336
O O4 0.107917 0.066040 0.207804
O O5 0.307667 0.527093 0.040940
O O6 0.250602 0.603253 0.947970
O O7 0.485805 0.892224 0.627188
O O8 0.469439 0.161027 0.631371
O O9 0.257122 0.025602 0.603186
O O10 0.607392 0.392609 0.625000
O O11 0.345220 0.387840 0.640410
O O12 0.249171 0.128817 0.134124
O O13 0.006564 0.006564 0.375000
#
# Coordination Sequence:
#
# PCOD9547889 Si02
#       7
#     4   4   8   8   8   8   8
#     4  12  20  40  64  88 124 158 208 266 308 358
#     4  10  20  36  58  94 116 152 208 258 300 358
#     4  11  20  38  63  92 123 158 208 265 305 372
#     4  11  23  40  59  91 129 162 205 264 312 373
#     4  11  20  36  66  93 117 168 208 261 316 363
#     4  10  23  40  58  93 128 157 212 255 319 383
#     4  10  22  39  59  86 122 162 203 251 306 368
#
# _framework density 18.120681999999999
#
# number of rings (size 3 to 8) (size 9 to 14) (size 15 to 20)
#    0.000    1.333    6.667    2.000    2.333    2.000 
#    0.000    7.500    0.000    0.000    0.000    0.000 
#    0.000    0.000    0.000    0.000    0.000    0.000 
#
# Total GULP energy -268040.268232 kJ/mol
# GULP energy per Si atom -5584.172255 kJ/mol
# Density = 1.807944 g / cm^3
# Si number density = 18.120682 Si / 1000 Ang^3
#
#
#
# Elastic Constant Matrix: (Units=GPa)
#
#
# Indices 1 2 3 4 5 6 
#
# 1 78.7899 41.8107 37.8552 0.0000 0.0000 0.0000
# 2 41.8107 78.7921 37.8550 0.0000 0.0000 0.0000
# 3 37.8552 37.8550 62.7754 0.0000 0.0000 0.0000
# 4 0.0000 0.0000 0.0000 19.9306 0.0000 0.0000
# 5 0.0000 0.0000 0.0000 0.0000 19.9343 0.0000
# 6 0.0000 0.0000 0.0000 0.0000 0.0000 24.1565
#
#
#
# Elastic Compliance Matrix: (Units=1/GPa)
#
#
# Indices 1 2 3 4 5 6 
#
# 1 0.020193 -0.006849 -0.008046 0.000000 0.000000 0.000000
# 2 -0.006849 0.020192 -0.008046 0.000000 0.000000 0.000000
# 3 -0.008046 -0.008046 0.025634 0.000000 0.000000 0.000000
# 4 0.000000 0.000000 0.000000 0.050174 0.000000 0.000000
# 5 0.000000 0.000000 0.000000 0.000000 0.050165 0.000000
# 6 0.000000 0.000000 0.000000 0.000000 0.000000 0.041397
#
#
# Mechanical properties :
#
#
# Convention : Reuss Voigt Hill
#
# Bulk Modulus (GPa) = 49.66427 50.59989 50.13208
# Shear Modulus (GPa) = 19.20505 19.66005 19.43255
#
# Velocity S-wave (km/s) = 3.25905 3.29743 3.27830
# Velocity P-wave (km/s) = 6.45205 6.51781 6.48501
#
# Compressibility (1/GPa) = 0.02013520
#
# Stress axis : x y z
#
# Youngs Moduli (GPa) = 49.52314 49.52538 39.01106
#
# Poissons Ratio (x) = 0.33921 0.31390
# Poissons Ratio (y) = 0.33920 0.31387
# Poissons Ratio (z) = 0.39848 0.39847
#
# Static dielectric constant tensor:
#      x y z
#    x 2.058860 0.000000 0.000000 
#    y 0.000000 2.058520 0.000000 
#    z 0.000000 0.000000 1.616990 
# 
# From -- ./inp_files/22304.got.cif
#   From: 2010.05.17/outbox.cif.g08.bks.cpg/sg91_12_cif.got.tgz:22304.got - 2010.06.03 19:20:03.
