data_PCOD9547460
_publ_section_title
;
Structure prediction by ZEFSAII (Michael W. Deem and Ramdas Pophale) SiO2 
 PCOD9547460
Probable space group: P 4 21 2
;
_chemical_formula_sum "Si O2"
_cell_formula_units_Z 56
_cell_length_a 15.000000
_cell_length_b 15.000000
_cell_length_c 12.000000
_cell_angle_alpha 90.000000
_cell_angle_beta 90.000000
_cell_angle_gamma 90.000000
_cell_volume 2700.000000
_symmetry_space_group_name_H-M "P 4 21 2"
_symmetry_group_IT_number 90
_symmetry_cell_setting 'tetragonal'
loop_
_space_group_symop_operation_xyz
x,y,z
1/2-y,1/2+x,z
-x,-y,z
1/2+y,1/2-x,z
1/2+x,1/2-y,-z
1/2-x,1/2+y,-z
y,x,-z
-y,-x,-z
loop_
_atom_site_type_symbol
_atom_site_label
_atom_site_fract_x
_atom_site_fract_y
_atom_site_fract_z
Si Si1 0.137158 0.548590 0.622943
Si Si2 0.383982 0.729243 0.559947
Si Si3 0.769446 0.229897 0.264301
Si Si4 0.264750 0.481430 0.236196
Si Si5 0.252647 0.974343 0.189073
Si Si6 0.518963 0.854781 0.970108
Si Si7 0.361953 0.635103 0.866699
O O1 0.107436 0.448510 0.599864
O O2 0.210180 0.586669 0.542037
O O3 0.174419 0.536938 0.748067
O O4 0.365437 0.634564 0.500000
O O5 0.290462 0.754009 0.623397
O O6 0.463113 0.739553 0.649289
O O7 0.746849 0.123702 0.247623
O O8 0.710598 0.290961 0.178460
O O9 0.876050 0.225541 0.249201
O O10 0.179178 0.487769 0.155804
O O11 0.339742 0.538527 0.171855
O O12 0.166906 0.039606 0.185163
O O13 0.278455 0.964192 0.060039
O O14 0.425954 0.903826 0.990308
O O15 0.361252 0.638749 0.000000
#
# Coordination Sequence:
#
# PCOD9547460 Si02
#       7
#     8   8   8   8   8   8   8
#     4  11  22  38  65  98 132 174 233 302 363 413
#     4  11  23  45  69  97 136 181 235 297 357 425
#     4  11  26  43  72  99 140 189 238 285 364 431
#     4  11  24  42  65 100 134 181 234 284 352 423
#     4  12  24  41  66 100 138 188 238 289 351 433
#     4  11  22  37  63  99 141 181 227 289 358 431
#     4  11  23  41  63  95 140 183 228 290 343 414
#
# _framework density 20.740741
#
# number of rings (size 3 to 8) (size 9 to 14) (size 15 to 20)
#    0.000    0.857    1.429    7.714    2.000    1.714 
#    0.000    2.143    0.000    2.571    0.000    0.000 
#    0.000    0.000    0.000    0.000    0.000    0.000 
#
# Total GULP energy -312065.958408 kJ/mol
# GULP energy per Si atom -5572.606400 kJ/mol
# Density = 2.069353 g / cm^3
# Si number density = 20.740741 Si / 1000 Ang^3
#
#
#
# Elastic Constant Matrix: (Units=GPa)
#
#
# Indices 1 2 3 4 5 6 
#
# 1 79.2674 -8.5541 38.7832 0.0000 0.0000 0.0000
# 2 -8.5541 79.2690 38.7848 0.0000 0.0000 0.0000
# 3 38.7832 38.7848 58.0954 0.0000 0.0000 0.0000
# 4 0.0000 0.0000 0.0000 25.5221 0.0000 0.0000
# 5 0.0000 0.0000 0.0000 0.0000 25.5222 0.0000
# 6 0.0000 0.0000 0.0000 0.0000 0.0000 81.6355
#
#
#
# Elastic Compliance Matrix: (Units=1/GPa)
#
#
# Indices 1 2 3 4 5 6 
#
# 1 0.032106 0.020719 -0.035266 0.000000 0.000000 0.000000
# 2 0.020719 0.032106 -0.035266 0.000000 0.000000 0.000000
# 3 -0.035266 -0.035266 0.064300 0.000000 0.000000 0.000000
# 4 0.000000 0.000000 0.000000 0.039182 0.000000 0.000000
# 5 0.000000 0.000000 0.000000 0.000000 0.039182 0.000000
# 6 0.000000 0.000000 0.000000 0.000000 0.000000 0.012250
#
#
# Mechanical properties :
#
#
# Convention : Reuss Voigt Hill
#
# Bulk Modulus (GPa) = 34.61767 39.40663 37.01215
# Shear Modulus (GPa) = 15.22632 36.37714 25.80173
#
# Velocity S-wave (km/s) = 2.71242 4.19250 3.53088
# Velocity P-wave (km/s) = 5.15136 6.51743 5.87424
#
# Compressibility (1/GPa) = 0.02888698
#
# Stress axis : x y z
#
# Youngs Moduli (GPa) = 31.14686 31.14658 15.55218
#
# Poissons Ratio (x) = -0.64534 0.54846
# Poissons Ratio (y) = -0.64535 0.54847
# Poissons Ratio (z) = 1.09842 1.09842
#
# Static dielectric constant tensor:
#      x y z
#    x 1.775420 0.000000 0.000000 
#    y 0.000000 1.775420 0.000000 
#    z 0.000000 0.000000 1.779200 
# 
# From -- ./inp_files/2234.got.cif
#   From: 2010.05.17/outbox.ucp.g08.bks.cvg/sg90_2_cif.got.tgz:2234.got - 2010.06.11 10:36:03.
