data_PCOD9547905
_publ_section_title
;
Structure prediction by ZEFSAII (Michael W. Deem and Ramdas Pophale) SiO2 
 PCOD9547905
Probable space group: P 41 2 2
;
_chemical_formula_sum "Si O2"
_cell_formula_units_Z 56
_cell_length_a 11.416836
_cell_length_b 11.416836
_cell_length_c 21.021609
_cell_angle_alpha 90.000000
_cell_angle_beta 90.000000
_cell_angle_gamma 90.000000
_cell_volume 2740.043636
_symmetry_space_group_name_H-M "P 41 2 2"
_symmetry_group_IT_number 91
_symmetry_cell_setting 'tetragonal'
loop_
_space_group_symop_operation_xyz
x,y,z
-y,x,1/4+z
-x,-y,1/2+z
y,-x,3/4+z
x,-y,1/2-z
-x,y,-z
y,x,3/4-z
-y,-x,1/4-z
loop_
_atom_site_type_symbol
_atom_site_label
_atom_site_fract_x
_atom_site_fract_y
_atom_site_fract_z
Si Si1 0.450124 0.093397 0.856601
Si Si2 0.374672 0.590806 0.193930
Si Si3 0.290762 0.903273 0.422548
Si Si4 0.696705 0.854418 0.121575
Si Si5 0.373444 0.123708 0.480739
Si Si6 0.231629 0.455364 0.014164
Si Si7 0.745493 0.623660 0.284316
O O1 0.584856 0.092177 0.883426
O O2 0.458111 0.121006 0.781950
O O3 0.391433 0.197185 0.897460
O O4 0.362437 0.983249 0.867924
O O5 0.401927 0.500000 0.250000
O O6 0.431482 0.568518 0.125000
O O7 0.234669 0.594422 0.187884
O O8 0.420449 0.715672 0.218225
O O9 0.187239 0.830127 0.387838
O O10 0.304019 0.833757 0.489256
O O11 0.284633 0.037505 0.445569
O O12 0.617323 0.781190 0.170785
O O13 0.676649 0.830534 0.047407
O O14 0.500000 0.064581 0.500000
O O15 0.323719 0.382272 0.972348
O O16 0.740816 0.500000 0.250000
#
# Coordination Sequence:
#
# PCOD9547905 Si02
#       7
#     8   8   8   8   8   8   8
#     4  11  20  36  59  92 130 177 220 284 347 411
#     4  11  25  40  63  98 138 184 226 284 357 436
#     4  10  20  36  62  93 123 171 235 275 331 418
#     4  11  22  37  63  97 127 176 232 285 341 419
#     4  11  19  40  67  89 132 184 226 270 349 427
#     4  11  22  35  55  97 132 170 220 288 344 414
#     4   9  18  34  57  87 126 170 214 263 349 422
#
# _framework density 20.437631
#
# number of rings (size 3 to 8) (size 9 to 14) (size 15 to 20)
#    0.000    1.429    2.857    4.286    0.000    3.429 
#    0.000    0.000    0.000    1.714    3.714    0.000 
#    0.000    0.000    0.000    0.000    0.000    0.000 
#
# Total GULP energy -311839.702347 kJ/mol
# GULP energy per Si atom -5568.566113 kJ/mol
# Density = 2.039111 g / cm^3
# Si number density = 20.437631 Si / 1000 Ang^3
#
#
#
# Elastic Constant Matrix: (Units=GPa)
#
#
# Indices 1 2 3 4 5 6 
#
# 1 58.0239 36.3248 29.4792 0.0000 0.0000 0.0000
# 2 36.3248 58.0239 29.4792 0.0000 0.0000 0.0000
# 3 29.4792 29.4792 115.1678 0.0000 0.0000 0.0000
# 4 0.0000 0.0000 0.0000 24.5716 0.0000 0.0000
# 5 0.0000 0.0000 0.0000 0.0000 24.5716 0.0000
# 6 0.0000 0.0000 0.0000 0.0000 0.0000 31.7006
#
#
#
# Elastic Compliance Matrix: (Units=1/GPa)
#
#
# Indices 1 2 3 4 5 6 
#
# 1 0.029351 -0.016734 -0.003230 0.000000 0.000000 0.000000
# 2 -0.016734 0.029351 -0.003230 0.000000 0.000000 0.000000
# 3 -0.003230 -0.003230 0.010336 0.000000 0.000000 0.000000
# 4 0.000000 0.000000 0.000000 0.040697 0.000000 0.000000
# 5 0.000000 0.000000 0.000000 0.000000 0.040697 0.000000
# 6 0.000000 0.000000 0.000000 0.000000 0.000000 0.031545
#
#
# Mechanical properties :
#
#
# Convention : Reuss Voigt Hill
#
# Bulk Modulus (GPa) = 44.14562 46.86464 45.50513
# Shear Modulus (GPa) = 21.19411 25.23095 23.21253
#
# Velocity S-wave (km/s) = 3.22376 3.51741 3.37378
# Velocity P-wave (km/s) = 5.95852 6.28304 6.12293
#
# Compressibility (1/GPa) = 0.02265230
#
# Stress axis : x y z
#
# Youngs Moduli (GPa) = 34.07045 34.07045 96.74633
#
# Poissons Ratio (x) = 0.57013 0.31245
# Poissons Ratio (y) = 0.57013 0.31245
# Poissons Ratio (z) = 0.11003 0.11003
#
# Static dielectric constant tensor:
#      x y z
#    x 1.781680 0.000000 0.000000 
#    y 0.000000 1.781680 0.000000 
#    z 0.000000 0.000000 1.768870 
# 
# From -- ./inp_files/12455.got.cif
#   From: 2010.05.17/outbox.cif.g08.bks.cpg/sg91_7_cif.got.tgz:12455.got - 2010.06.03 19:20:03.
