data_PCOD9547960
_publ_section_title
;
Structure prediction by ZEFSAII (Michael W. Deem and Ramdas Pophale) SiO2 
 PCOD9547960
Probable space group: P 41 2 2
;
_chemical_formula_sum "Si O2"
_cell_formula_units_Z 48
_cell_length_a 14.424437
_cell_length_b 14.424437
_cell_length_c 11.775982
_cell_angle_alpha 90.000000
_cell_angle_beta 90.000000
_cell_angle_gamma 90.000000
_cell_volume 2450.162426
_symmetry_space_group_name_H-M "P 41 2 2"
_symmetry_group_IT_number 91
_symmetry_cell_setting 'tetragonal'
loop_
_space_group_symop_operation_xyz
x,y,z
-y,x,1/4+z
-x,-y,1/2+z
y,-x,3/4+z
x,-y,1/2-z
-x,y,-z
y,x,3/4-z
-y,-x,1/4-z
loop_
_atom_site_type_symbol
_atom_site_label
_atom_site_fract_x
_atom_site_fract_y
_atom_site_fract_z
Si Si1 0.302460 0.281348 0.553640
Si Si2 0.401872 0.129164 0.444245
Si Si3 0.350570 0.780273 0.700780
Si Si4 0.061320 0.390318 0.776153
Si Si5 0.646229 0.491894 0.380013
Si Si6 0.902228 0.682236 0.031629
O O1 0.359545 0.229750 0.457601
O O2 0.317850 0.223549 0.670031
O O3 0.339225 0.386438 0.577940
O O4 0.195956 0.269968 0.517260
O O5 0.500000 0.137466 0.500000
O O6 0.399867 0.098658 0.312867
O O7 0.355708 0.045156 0.516777
O O8 0.275772 0.724229 0.625000
O O9 0.369038 0.877609 0.636910
O O10 0.442757 0.716217 0.698734
O O11 0.060034 0.500000 0.750000
O O12 0.104253 0.348161 0.661708
O O13 0.679673 0.500000 0.250000
O O14 0.544800 0.544800 0.375000
O O15 0.000000 0.730857 0.000000
#
# Coordination Sequence:
#
# PCOD9547960 Si02
#       6
#     8   8   8   8   8   8
#     4  12  23  38  61  86 125 154 208 261 295 374
#     4  10  25  39  53  89 122 163 200 246 319 367
#     4  11  20  35  62  90 111 153 211 254 302 355
#     4  10  20  38  64  82 115 156 206 260 309 366
#     4  11  21  36  54  81 116 166 212 237 290 355
#     4  10  21  40  61  81 114 160 204 251 313 377
#
# _framework density 19.590536
#
# number of rings (size 3 to 8) (size 9 to 14) (size 15 to 20)
#    0.000    1.333    5.000    2.000    4.667    1.333 
#    0.000    0.000    0.000    0.000    0.000    4.667 
#    0.000    0.000    0.000    0.000    0.000    0.000 
#
# Total GULP energy -267330.773893 kJ/mol
# GULP energy per Si atom -5569.391123 kJ/mol
# Density = 1.954595 g / cm^3
# Si number density = 19.590536 Si / 1000 Ang^3
#
#
#
# Elastic Constant Matrix: (Units=GPa)
#
#
# Indices 1 2 3 4 5 6 
#
# 1 85.0628 24.3793 19.3646 0.0000 0.0000 0.0000
# 2 24.3793 85.0625 19.3644 0.0000 0.0000 0.0000
# 3 19.3646 19.3644 77.9978 0.0000 0.0000 0.0000
# 4 0.0000 0.0000 0.0000 6.9043 0.0000 0.0000
# 5 0.0000 0.0000 0.0000 0.0000 6.9022 0.0000
# 6 0.0000 0.0000 0.0000 0.0000 0.0000 16.3627
#
#
#
# Elastic Compliance Matrix: (Units=1/GPa)
#
#
# Indices 1 2 3 4 5 6 
#
# 1 0.013248 -0.003231 -0.002487 0.000000 0.000000 0.000000
# 2 -0.003231 0.013248 -0.002487 0.000000 0.000000 0.000000
# 3 -0.002487 -0.002487 0.014056 0.000000 0.000000 0.000000
# 4 0.000000 0.000000 0.000000 0.144837 0.000000 0.000000
# 5 0.000000 0.000000 0.000000 0.000000 0.144882 0.000000
# 6 0.000000 0.000000 0.000000 0.000000 0.000000 0.061115
#
#
# Mechanical properties :
#
#
# Convention : Reuss Voigt Hill
#
# Bulk Modulus (GPa) = 41.42080 41.59330 41.50705
# Shear Modulus (GPa) = 12.02379 18.36816 15.19598
#
# Velocity S-wave (km/s) = 2.48010 3.06535 2.78812
# Velocity P-wave (km/s) = 5.42129 5.81429 5.62122
#
# Compressibility (1/GPa) = 0.02414246
#
# Stress axis : x y z
#
# Youngs Moduli (GPa) = 75.48225 75.48197 71.14510
#
# Poissons Ratio (x) = 0.24387 0.17694
# Poissons Ratio (y) = 0.24387 0.17694
# Poissons Ratio (z) = 0.18773 0.18772
#
# Static dielectric constant tensor:
#      x y z
#    x 1.748210 0.000000 0.000000 
#    y 0.000000 1.748220 0.000000 
#    z 0.000000 0.000000 1.733460 
# 
# From -- ./inp_files/3840.got.cif
#   From: 2010.05.17/outbox.cif.g08.bks.cpg/sg91_2_cif.got.tgz:3840.got - 2010.06.03 19:20:03.
