data_PCOD9547717
_publ_section_title
;
Structure prediction by ZEFSAII (Michael W. Deem and Ramdas Pophale) SiO2 
 PCOD9547717
Probable space group: P 41 2 2
;
_chemical_formula_sum "Si O2"
_cell_formula_units_Z 44
_cell_length_a 20.926864
_cell_length_b 20.926864
_cell_length_c 6.072044
_cell_angle_alpha 90.000000
_cell_angle_beta 90.000000
_cell_angle_gamma 90.000000
_cell_volume 2659.152312
_symmetry_space_group_name_H-M "P 41 2 2"
_symmetry_group_IT_number 91
_symmetry_cell_setting 'tetragonal'
loop_
_space_group_symop_operation_xyz
x,y,z
-y,x,1/4+z
-x,-y,1/2+z
y,-x,3/4+z
x,-y,1/2-z
-x,y,-z
y,x,3/4-z
-y,-x,1/4-z
loop_
_atom_site_type_symbol
_atom_site_label
_atom_site_fract_x
_atom_site_fract_y
_atom_site_fract_z
Si Si1 0.211559 0.432217 0.128048
Si Si2 0.000000 0.644679 0.500000
Si Si3 0.365218 0.873415 0.522540
Si Si4 0.241761 0.335585 0.496522
Si Si5 0.574466 0.672380 0.447853
Si Si6 0.557412 0.939495 0.869980
O O1 0.216124 0.500000 0.250000
O O2 0.207748 0.377073 0.308668
O O3 0.158043 0.415624 0.944269
O O4 0.277907 0.422487 0.001808
O O5 0.934280 0.671012 0.383620
O O6 0.968349 0.606094 0.702691
O O7 0.323428 0.814137 0.427743
O O8 0.407016 0.900831 0.319624
O O9 0.276956 0.276956 0.375000
O O10 0.294416 0.381997 0.611991
O O11 0.500000 0.665714 0.500000
O O12 0.607121 0.607121 0.375000
O O13 0.525647 0.000000 0.750000
O O14 0.500000 0.906591 0.000000
#
# Coordination Sequence:
#
# PCOD9547717 Si02
#       6
#     8   4   8   8   8   8
#     4  11  22  38  54  76  98 128 167 210 270 339
#     4  10  20  36  48  68 106 134 168 202 248 312
#     4  10  24  34  51  76  99 134 170 209 259 326
#     4  11  22  38  57  74  98 130 168 218 272 339
#     4  11  22  39  58  78  96 123 164 217 284 357
#     4  10  19  34  47  69 101 138 168 201 249 313
#
# _framework density 16.546627000000001
#
# number of rings (size 3 to 8) (size 9 to 14) (size 15 to 20)
#    0.000    1.455    4.545    1.091    0.000    4.364 
#    3.273    1.818    0.000    0.000    0.000    0.000 
#    0.000    0.000    0.000    0.000    0.000    0.000 
#
# Total GULP energy -245084.431526 kJ/mol
# GULP energy per Si atom -5570.100716 kJ/mol
# Density = 1.650897 g / cm^3
# Si number density = 16.546627 Si / 1000 Ang^3
#
#
#
# Elastic Constant Matrix: (Units=GPa)
#
#
# Indices 1 2 3 4 5 6 
#
# 1 64.6938 32.9120 26.8844 0.0000 0.0000 0.0000
# 2 32.9120 64.6938 26.8844 0.0000 0.0000 0.0000
# 3 26.8844 26.8844 88.7575 0.0000 0.0000 0.0000
# 4 0.0000 0.0000 0.0000 25.6908 0.0000 0.0000
# 5 0.0000 0.0000 0.0000 0.0000 25.6908 0.0000
# 6 0.0000 0.0000 0.0000 0.0000 0.0000 -1.8427
#
#
#
# Elastic Compliance Matrix: (Units=1/GPa)
#
#
# Indices 1 2 3 4 5 6 
#
# 1 0.021881 -0.009584 -0.003725 0.000000 0.000000 0.000000
# 2 -0.009584 0.021881 -0.003725 0.000000 0.000000 0.000000
# 3 -0.003725 -0.003725 0.013523 0.000000 0.000000 0.000000
# 4 0.000000 0.000000 0.000000 0.038924 0.000000 0.000000
# 5 0.000000 0.000000 0.000000 0.000000 0.038924 0.000000
# 6 0.000000 0.000000 0.000000 0.000000 0.000000 -0.542679
#
#
# Mechanical properties :
#
#
# Convention : Reuss Voigt Hill
#
# Bulk Modulus (GPa) = 43.06935 43.50071 43.28503
# Shear Modulus (GPa) = -13.67093 18.67205 2.50056
#
# Velocity S-wave (km/s) = -2.87750 3.36289 1.23065
# Velocity P-wave (km/s) = 3.87886 6.43627 5.31371
#
# Compressibility (1/GPa) = 0.02321837
#
# Stress axis : x y z
#
# Youngs Moduli (GPa) = 45.70203 45.70203 73.94750
#
# Poissons Ratio (x) = 0.43799 0.27544
# Poissons Ratio (y) = 0.43799 0.27544
# Poissons Ratio (z) = 0.17023 0.17023
#
# Static dielectric constant tensor:
#      x y z
#    x 1.582720 0.000000 0.000000 
#    y 0.000000 1.582720 0.000000 
#    z 0.000000 0.000000 1.624160 
# 
# From -- ./inp_files/14286.got.cif
#   From: 2010.05.17/outbox.cif.g08.bks.cpg/sg91_8_cif.got.tgz:14286.got - 2010.06.03 19:20:03.
