data_PCOD9547814
_publ_section_title
;
Structure prediction by ZEFSAII (Michael W. Deem and Ramdas Pophale) SiO2 
 PCOD9547814
Probable space group: P 41 2 2
;
_chemical_formula_sum "Si O2"
_cell_formula_units_Z 60
_cell_length_a 17.801776
_cell_length_b 17.801776
_cell_length_c 9.472828
_cell_angle_alpha 90.000000
_cell_angle_beta 90.000000
_cell_angle_gamma 90.000000
_cell_volume 3001.969779
_symmetry_space_group_name_H-M "P 41 2 2"
_symmetry_group_IT_number 91
_symmetry_cell_setting 'tetragonal'
loop_
_space_group_symop_operation_xyz
x,y,z
-y,x,1/4+z
-x,-y,1/2+z
y,-x,3/4+z
x,-y,1/2-z
-x,y,-z
y,x,3/4-z
-y,-x,1/4-z
loop_
_atom_site_type_symbol
_atom_site_label
_atom_site_fract_x
_atom_site_fract_y
_atom_site_fract_z
Si Si1 0.064875 0.807846 0.125582
Si Si2 0.044512 0.167361 0.858362
Si Si3 0.328126 0.093463 0.874012
Si Si4 0.926621 0.651715 0.705661
Si Si5 0.500000 0.164367 0.500000
Si Si6 0.341616 0.633150 0.978440
Si Si7 0.746057 0.637091 0.301541
Si Si8 0.472967 0.701500 0.792987
O O1 0.142601 0.857400 0.125000
O O2 0.080390 0.723527 0.189013
O O3 0.017377 0.850555 0.244289
O O4 0.000000 0.802690 0.000000
O O5 0.099650 0.099650 0.875000
O O6 0.090005 0.242492 0.821561
O O7 0.000000 0.186409 0.000000
O O8 0.327957 0.101178 0.703471
O O9 0.367840 0.165583 0.934744
O O10 0.362579 0.015157 0.926991
O O11 0.884311 0.576377 0.753657
O O12 0.504420 0.219077 0.363452
O O13 0.278434 0.637350 0.859673
O O14 0.414932 0.665384 0.902956
O O15 0.324884 0.675117 0.125000
O O16 0.347990 0.546409 0.021144
O O17 0.712259 0.712259 0.375000
O O18 0.711215 0.570002 0.394872
#
# Coordination Sequence:
#
# PCOD9547814 Si02
#       8
#     8   8   8   8   4   8   8   8
#     4  11  24  44  63 100 148 177 226 289 346 410
#     4  11  21  37  65  93 128 179 227 268 328 406
#     4  10  19  44  66  91 127 170 233 281 329 404
#     4  10  23  44  67  93 128 180 224 288 346 407
#     4  12  22  46  70  88 134 172 226 286 344 402
#     4  11  22  43  67 100 136 174 215 274 339 408
#     4  10  22  40  69  98 131 175 226 275 333 412
#     4  11  23  44  67  97 138 172 223 272 338 415
#
# _framework density 19.986877
#
# number of rings (size 3 to 8) (size 9 to 14) (size 15 to 20)
#    0.000    1.333    5.333    1.600    0.000    1.600 
#   12.000    7.333    0.000    0.000    0.000    0.000 
#    0.000    0.000    0.000    0.000    0.000    0.000 
#
# Total GULP energy -334592.937544 kJ/mol
# GULP energy per Si atom -5576.548959 kJ/mol
# Density = 1.994139 g / cm^3
# Si number density = 19.986877 Si / 1000 Ang^3
#
#
#
# Elastic Constant Matrix: (Units=GPa)
#
#
# Indices 1 2 3 4 5 6 
#
# 1 122.9470 38.8899 43.5663 0.0000 0.0000 0.0000
# 2 38.8899 122.9486 43.5669 0.0000 0.0000 0.0000
# 3 43.5663 43.5669 131.2892 0.0000 0.0000 0.0000
# 4 0.0000 0.0000 0.0000 12.9447 0.0000 0.0000
# 5 0.0000 0.0000 0.0000 0.0000 12.9418 0.0000
# 6 0.0000 0.0000 0.0000 0.0000 0.0000 32.4171
#
#
#
# Elastic Compliance Matrix: (Units=1/GPa)
#
#
# Indices 1 2 3 4 5 6 
#
# 1 0.009710 -0.002187 -0.002496 0.000000 0.000000 0.000000
# 2 -0.002187 0.009710 -0.002496 0.000000 0.000000 0.000000
# 3 -0.002496 -0.002496 0.009274 0.000000 0.000000 0.000000
# 4 0.000000 0.000000 0.000000 0.077251 0.000000 0.000000
# 5 0.000000 0.000000 0.000000 0.000000 0.077269 0.000000
# 6 0.000000 0.000000 0.000000 0.000000 0.000000 0.030848
#
#
# Mechanical properties :
#
#
# Convention : Reuss Voigt Hill
#
# Bulk Modulus (GPa) = 69.76401 69.91456 69.83929
# Shear Modulus (GPa) = 21.44094 28.40484 24.92289
#
# Velocity S-wave (km/s) = 3.27884 3.77394 3.53507
# Velocity P-wave (km/s) = 7.02247 7.35162 7.18893
#
# Compressibility (1/GPa) = 0.01433404
#
# Stress axis : x y z
#
# Youngs Moduli (GPa) = 102.98774 102.98889 107.83293
#
# Poissons Ratio (x) = 0.22521 0.26920
# Poissons Ratio (y) = 0.22521 0.26920
# Poissons Ratio (z) = 0.25710 0.25711
#
# Static dielectric constant tensor:
#      x y z
#    x 1.724410 0.000000 0.000000 
#    y 0.000000 1.724420 0.000000 
#    z 0.000000 0.000000 1.737370 
# 
# From -- ./inp_files/15326.got.cif
#   From: 2010.05.17/outbox.cif.g08.bks.cpg/sg91_8_cif.got.tgz:15326.got - 2010.06.03 19:20:03.
