data_PCOD9547603
_publ_section_title
;
Structure prediction by ZEFSAII (Michael W. Deem and Ramdas Pophale) SiO2 
 PCOD9547603
Probable space group: P 41 2 2
;
_chemical_formula_sum "Si O2"
_cell_formula_units_Z 40
_cell_length_a 8.228692
_cell_length_b 8.228692
_cell_length_c 24.303027
_cell_angle_alpha 90.000000
_cell_angle_beta 90.000000
_cell_angle_gamma 90.000000
_cell_volume 1645.591303
_symmetry_space_group_name_H-M "P 41 2 2"
_symmetry_group_IT_number 91
_symmetry_cell_setting 'tetragonal'
loop_
_space_group_symop_operation_xyz
x,y,z
-y,x,1/4+z
-x,-y,1/2+z
y,-x,3/4+z
x,-y,1/2-z
-x,y,-z
y,x,3/4-z
-y,-x,1/4-z
loop_
_atom_site_type_symbol
_atom_site_label
_atom_site_fract_x
_atom_site_fract_y
_atom_site_fract_z
Si Si1 0.634576 0.925319 0.557203
Si Si2 0.176755 0.047195 0.164335
Si Si3 0.945242 0.304518 0.151777
Si Si4 0.373822 0.149652 0.708705
Si Si5 0.279563 0.293916 0.440693
O O1 0.684722 0.901156 0.622088
O O2 0.446250 0.880996 0.559360
O O3 0.761627 0.798976 0.531432
O O4 0.638068 0.120256 0.545236
O O5 0.068135 0.190664 0.186414
O O6 0.250223 0.908562 0.201049
O O7 0.050487 0.949514 0.125000
O O8 0.800991 0.199010 0.125000
O O9 0.063141 0.366164 0.101815
O O10 0.521767 0.281097 0.713438
O O11 0.393051 0.000000 0.750000
O O12 0.310039 0.310039 0.375000
#
# Coordination Sequence:
#
# PCOD9547603 Si02
#       5
#     8   8   8   8   8
#     4   9  18  33  55  82 114 155 196 231 287 364
#     4   7  13  27  50  74  98 137 198 230 256 333
#     4  10  18  34  57  83 111 158 198 237 284 368
#     4  11  22  36  59  92 117 146 196 261 307 342
#     4   9  16  35  57  80 114 152 205 238 281 362
#
# _framework density 24.307372999999998
#
# number of rings (size 3 to 8) (size 9 to 14) (size 15 to 20)
#    0.000    3.200    4.000    1.200    0.000    1.600 
#    0.000    1.000    0.000    0.000    0.000    0.000 
#    0.000    0.000    0.000    0.000    0.000    0.000 
#
# Total GULP energy -222759.321109 kJ/mol
# GULP energy per Si atom -5568.983028 kJ/mol
# Density = 2.425205 g / cm^3
# Si number density = 24.307373 Si / 1000 Ang^3
#
#
#
# Elastic Constant Matrix: (Units=GPa)
#
#
# Indices 1 2 3 4 5 6 
#
# 1 104.2327 45.6597 11.1111 0.0000 0.0000 0.0000
# 2 45.6597 104.2331 11.1111 0.0000 0.0000 0.0000
# 3 11.1111 11.1111 50.9693 0.0000 0.0000 0.0000
# 4 0.0000 0.0000 0.0000 20.0164 0.0000 0.0000
# 5 0.0000 0.0000 0.0000 0.0000 20.0160 0.0000
# 6 0.0000 0.0000 0.0000 0.0000 0.0000 13.5672
#
#
#
# Elastic Compliance Matrix: (Units=1/GPa)
#
#
# Indices 1 2 3 4 5 6 
#
# 1 0.011983 -0.005089 -0.001503 0.000000 0.000000 0.000000
# 2 -0.005089 0.011983 -0.001503 0.000000 0.000000 0.000000
# 3 -0.001503 -0.001503 0.020275 0.000000 0.000000 0.000000
# 4 0.000000 0.000000 0.000000 0.049959 0.000000 0.000000
# 5 0.000000 0.000000 0.000000 0.000000 0.049960 0.000000
# 6 0.000000 0.000000 0.000000 0.000000 0.000000 0.073707
#
#
# Mechanical properties :
#
#
# Convention : Reuss Voigt Hill
#
# Bulk Modulus (GPa) = 35.64841 43.91099 39.77970
# Shear Modulus (GPa) = 20.54157 23.49012 22.01585
#
# Velocity S-wave (km/s) = 2.91017 3.11204 3.01280
# Velocity P-wave (km/s) = 5.09800 5.56930 5.33886
#
# Compressibility (1/GPa) = 0.02805174
#
# Stress axis : x y z
#
# Youngs Moduli (GPa) = 83.44821 83.44856 49.32201
#
# Poissons Ratio (x) = 0.42469 0.07413
# Poissons Ratio (y) = 0.42468 0.07413
# Poissons Ratio (z) = 0.12542 0.12542
#
# Static dielectric constant tensor:
#      x y z
#    x 2.006190 0.000000 0.000000 
#    y 0.000000 2.006190 0.000000 
#    z 0.000000 0.000000 0.251590 
# 
# From -- ./inp_files/13433.got.cif
#   From: 2010.05.17/outbox.cif.g08.bks.cpg/sg91_7_cif.got.tgz:13433.got - 2010.06.03 19:20:03.
