data_PCOD9547428
_publ_section_title
;
Structure prediction by ZEFSAII (Michael W. Deem and Ramdas Pophale) SiO2 
 PCOD9547428
Probable space group: P 4 21 2
;
_chemical_formula_sum "Si O2"
_cell_formula_units_Z 18
_cell_length_a 12.886102
_cell_length_b 12.886102
_cell_length_c 4.812474
_cell_angle_alpha 90.000000
_cell_angle_beta 90.000000
_cell_angle_gamma 90.000000
_cell_volume 799.119127
_symmetry_space_group_name_H-M "P 4 21 2"
_symmetry_group_IT_number 90
_symmetry_cell_setting 'tetragonal'
loop_
_space_group_symop_operation_xyz
x,y,z
1/2-y,1/2+x,z
-x,-y,z
1/2+y,1/2-x,z
1/2+x,1/2-y,-z
1/2-x,1/2+y,-z
y,x,-z
-y,-x,-z
loop_
_atom_site_type_symbol
_atom_site_label
_atom_site_fract_x
_atom_site_fract_y
_atom_site_fract_z
Si Si1 0.806436 0.042309 0.397109
Si Si2 0.500000 0.500000 0.000000
Si Si3 0.671480 0.999329 0.881571
O O1 0.842664 0.157337 0.500000
O O2 0.770945 0.990475 0.682956
O O3 0.710381 0.021625 0.193069
O O4 0.903065 0.004458 0.212360
O O5 0.599661 0.099564 0.826497
#
# Coordination Sequence:
#
# PCOD9547428 Si02
#       3
#     8   2   8
#     4  12  24  47  69 103 142 187 238 288 358 424
#     4  12  26  48  66  96 154 184 220 314 342 412
#     4  11  25  48  74 103 145 186 235 299 355 426
#
# _framework density 22.524802000000001
#
# number of rings (size 3 to 8) (size 9 to 14) (size 15 to 20)
#    0.000    0.444    4.444    3.333    0.000    3.556 
#   16.000    0.000    0.000    0.000    0.000    0.000 
#    0.000    0.000    0.000    0.000    0.000    0.000 
#
# Total GULP energy -100363.815166 kJ/mol
# GULP energy per Si atom -5575.767509 kJ/mol
# Density = 2.247353 g / cm^3
# Si number density = 22.524802 Si / 1000 Ang^3
#
#
#
# Elastic Constant Matrix: (Units=GPa)
#
#
# Indices 1 2 3 4 5 6 
#
# 1 70.9111 22.1975 20.8652 0.0000 0.0000 0.0000
# 2 22.1975 70.9073 20.8636 0.0000 0.0000 0.0000
# 3 20.8652 20.8636 147.3399 0.0000 0.0000 0.0000
# 4 0.0000 0.0000 0.0000 26.7469 0.0000 0.0000
# 5 0.0000 0.0000 0.0000 0.0000 26.7463 0.0000
# 6 0.0000 0.0000 0.0000 0.0000 0.0000 21.1063
#
#
#
# Elastic Compliance Matrix: (Units=1/GPa)
#
#
# Indices 1 2 3 4 5 6 
#
# 1 0.015998 -0.004530 -0.001624 0.000000 0.000000 0.000000
# 2 -0.004530 0.015999 -0.001624 0.000000 0.000000 0.000000
# 3 -0.001624 -0.001624 0.007247 0.000000 0.000000 0.000000
# 4 0.000000 0.000000 0.000000 0.037387 0.000000 0.000000
# 5 0.000000 0.000000 0.000000 0.000000 0.037388 0.000000
# 6 0.000000 0.000000 0.000000 0.000000 0.000000 0.047379
#
#
# Mechanical properties :
#
#
# Convention : Reuss Voigt Hill
#
# Bulk Modulus (GPa) = 42.21647 46.33456 44.27551
# Shear Modulus (GPa) = 27.04874 29.93538 28.49206
#
# Velocity S-wave (km/s) = 3.46908 3.64950 3.56043
# Velocity P-wave (km/s) = 5.90160 6.19464 6.04989
#
# Compressibility (1/GPa) = 0.02368744
#
# Stress axis : x y z
#
# Youngs Moduli (GPa) = 62.50710 62.50394 137.98880
#
# Poissons Ratio (x) = 0.28317 0.22410
# Poissons Ratio (y) = 0.28318 0.22408
# Poissons Ratio (z) = 0.10151 0.10150
#
# Static dielectric constant tensor:
#      x y z
#    x 1.842930 0.000000 0.000000 
#    y 0.000000 1.842940 0.000000 
#    z 0.000000 0.000000 1.803560 
# 
# From -- ./inp_files/79.got.cif
#   From: 2010.05.17/outbox.cif.g08.bks.cpg/sg90_1_cif.got.tgz:79.got - 2010.06.03 19:17:45.
