data_PCOD9547213
_publ_section_title
;
Structure prediction by ZEFSAII (Michael W. Deem and Ramdas Pophale) SiO2 
 PCOD9547213
Probable space group: P 4 21 2
;
_chemical_formula_sum "Si O2"
_cell_formula_units_Z 40
_cell_length_a 14.940068
_cell_length_b 14.940068
_cell_length_c 8.401262
_cell_angle_alpha 90.000000
_cell_angle_beta 90.000000
_cell_angle_gamma 90.000000
_cell_volume 1875.208993
_symmetry_space_group_name_H-M "P 4 21 2"
_symmetry_group_IT_number 90
_symmetry_cell_setting 'tetragonal'
loop_
_space_group_symop_operation_xyz
x,y,z
1/2-y,1/2+x,z
-x,-y,z
1/2+y,1/2-x,z
1/2+x,1/2-y,-z
1/2-x,1/2+y,-z
y,x,-z
-y,-x,-z
loop_
_atom_site_type_symbol
_atom_site_label
_atom_site_fract_x
_atom_site_fract_y
_atom_site_fract_z
Si Si1 0.387023 0.223706 0.358105
Si Si2 0.306008 0.173677 0.902256
Si Si3 0.571387 0.222937 0.200784
Si Si4 0.707288 0.587869 0.294816
Si Si5 0.347823 0.609306 0.315650
O O1 0.474429 0.198851 0.260119
O O2 0.315023 0.147268 0.321242
O O3 0.350499 0.320891 0.303852
O O4 0.413266 0.236811 0.541117
O O5 0.394908 0.223887 0.848057
O O6 0.249637 0.141327 0.748543
O O7 0.244676 0.244676 0.000000
O O8 0.314279 0.094548 0.027919
O O9 0.584347 0.330526 0.211511
O O10 0.650939 0.497070 0.287724
O O11 0.368785 0.631216 0.500000
#
# Coordination Sequence:
#
# PCOD9547213 Si02
#       5
#     8   8   8   8   8
#     4  11  24  42  69  96 133 177 228 284 342 416
#     4  10  22  40  68  95 133 183 224 276 344 412
#     4  11  24  44  66  97 136 177 228 282 348 404
#     4  11  23  39  70 101 130 178 225 278 353 418
#     4  11  21  41  67  98 136 172 223 279 343 415
#
# _framework density 21.330957999999999
#
# number of rings (size 3 to 8) (size 9 to 14) (size 15 to 20)
#    0.000    1.200    6.000    1.200    2.800    1.200 
#    0.000    0.000    0.000    4.200    0.000    0.000 
#    0.000    0.000    0.000    0.000    0.000    0.000 
#
# Total GULP energy -223461.519420 kJ/mol
# GULP energy per Si atom -5586.537986 kJ/mol
# Density = 2.128241 g / cm^3
# Si number density = 21.330958 Si / 1000 Ang^3
#
#
#
# Elastic Constant Matrix: (Units=GPa)
#
#
# Indices 1 2 3 4 5 6 
#
# 1 84.0970 29.9335 36.7483 0.0000 0.0000 0.0000
# 2 29.9335 84.0976 36.7482 0.0000 0.0000 0.0000
# 3 36.7483 36.7482 84.9926 0.0000 0.0000 0.0000
# 4 0.0000 0.0000 0.0000 22.5348 0.0000 0.0000
# 5 0.0000 0.0000 0.0000 0.0000 22.5351 0.0000
# 6 0.0000 0.0000 0.0000 0.0000 0.0000 12.7534
#
#
#
# Elastic Compliance Matrix: (Units=1/GPa)
#
#
# Indices 1 2 3 4 5 6 
#
# 1 0.015310 -0.003152 -0.005257 0.000000 0.000000 0.000000
# 2 -0.003152 0.015310 -0.005257 0.000000 0.000000 0.000000
# 3 -0.005257 -0.005257 0.016311 0.000000 0.000000 0.000000
# 4 0.000000 0.000000 0.000000 0.044376 0.000000 0.000000
# 5 0.000000 0.000000 0.000000 0.000000 0.044375 0.000000
# 6 0.000000 0.000000 0.000000 0.000000 0.000000 0.078411
#
#
# Mechanical properties :
#
#
# Convention : Reuss Voigt Hill
#
# Bulk Modulus (GPa) = 51.01994 51.11635 51.06815
# Shear Modulus (GPa) = 20.16472 21.54846 20.85659
#
# Velocity S-wave (km/s) = 3.07795 3.18181 3.13031
# Velocity P-wave (km/s) = 6.04995 6.12487 6.08752
#
# Compressibility (1/GPa) = 0.01960018
#
# Stress axis : x y z
#
# Youngs Moduli (GPa) = 65.31630 65.31686 61.30724
#
# Poissons Ratio (x) = 0.20591 0.32227
# Poissons Ratio (y) = 0.20591 0.32226
# Poissons Ratio (z) = 0.34334 0.34334
#
# Static dielectric constant tensor:
#      x y z
#    x 1.771580 0.000000 0.000000 
#    y 0.000000 1.771580 0.000000 
#    z 0.000000 0.000000 1.820600 
# 
# From -- ./inp_files/1326.got.cif
#   From: 2010.05.17/outbox.cif.g08.bks.cpg/sg90_1_cif.got.tgz:1326.got - 2010.06.03 19:17:45.
