data_PCOD9547662
_publ_section_title
;
Structure prediction by ZEFSAII (Michael W. Deem and Ramdas Pophale) SiO2 
 PCOD9547662
Probable space group: P 41 2 2
;
_chemical_formula_sum "Si O2"
_cell_formula_units_Z 40
_cell_length_a 25.489933
_cell_length_b 25.489933
_cell_length_c 5.187683
_cell_angle_alpha 90.000000
_cell_angle_beta 90.000000
_cell_angle_gamma 90.000000
_cell_volume 3370.627952
_symmetry_space_group_name_H-M "P 41 2 2"
_symmetry_group_IT_number 91
_symmetry_cell_setting 'tetragonal'
loop_
_space_group_symop_operation_xyz
x,y,z
-y,x,1/4+z
-x,-y,1/2+z
y,-x,3/4+z
x,-y,1/2-z
-x,y,-z
y,x,3/4-z
-y,-x,1/4-z
loop_
_atom_site_type_symbol
_atom_site_label
_atom_site_fract_x
_atom_site_fract_y
_atom_site_fract_z
Si Si1 0.064024 0.532616 0.498464
Si Si2 0.348230 0.937174 0.735298
Si Si3 0.868627 0.179860 0.369286
Si Si4 0.063521 0.718375 0.011545
Si Si5 0.891929 0.968125 0.488454
O O1 0.079928 0.500000 0.750000
O O2 0.083281 0.592589 0.485461
O O3 0.000000 0.534322 0.500000
O O4 0.080276 0.500000 0.250000
O O5 0.325777 0.926712 0.453403
O O6 0.352382 0.000000 0.750000
O O7 0.306703 0.923630 0.960020
O O8 0.839549 0.160452 0.625000
O O9 0.897829 0.234508 0.432518
O O10 0.918000 0.142298 0.311360
O O11 0.829544 0.170457 0.125000
O O12 0.000000 0.732309 0.000000
O O13 0.945788 0.945788 0.375000
O O14 0.899040 0.000000 0.750000
O O15 0.866617 0.000000 0.250000
#
# Coordination Sequence:
#
# PCOD9547662 Si02
#       5
#     8   8   8   8   8
#     4   9  15  23  36  53  77 103 119 133 151 175
#     4   9  17  27  39  59  77  93 118 137 157 189
#     4  11  22  35  47  58  70  86 109 136 172 214
#     4  10  19  30  45  58  72  90 110 142 173 202
#     4  11  22  35  47  58  70  82  98 122 156 206
#
# _framework density 11.867224
#
# number of rings (size 3 to 8) (size 9 to 14) (size 15 to 20)
#    0.000    2.000    0.000    6.000    0.000    8.000 
#    0.000    1.000    0.000    0.000    0.000    0.000 
#    0.000    0.000    0.000    0.000    0.000    0.000 
#
# Total GULP energy -222802.648300 kJ/mol
# GULP energy per Si atom -5570.066207 kJ/mol
# Density = 1.184021 g / cm^3
# Si number density = 11.867224 Si / 1000 Ang^3
#
#
#
# Elastic Constant Matrix: (Units=GPa)
#
#
# Indices 1 2 3 4 5 6 
#
# 1 45.5476 16.7331 15.8253 0.0000 0.0000 0.0000
# 2 16.7331 45.5476 15.8251 0.0000 0.0000 0.0000
# 3 15.8253 15.8251 84.2123 0.0000 0.0000 0.0000
# 4 0.0000 0.0000 0.0000 7.6162 0.0000 0.0000
# 5 0.0000 0.0000 0.0000 0.0000 7.6179 0.0000
# 6 0.0000 0.0000 0.0000 0.0000 0.0000 2.1858
#
#
#
# Elastic Compliance Matrix: (Units=1/GPa)
#
#
# Indices 1 2 3 4 5 6 
#
# 1 0.026228 -0.008477 -0.003336 0.000000 0.000000 0.000000
# 2 -0.008477 0.026228 -0.003336 0.000000 0.000000 0.000000
# 3 -0.003336 -0.003336 0.013129 0.000000 0.000000 0.000000
# 4 0.000000 0.000000 0.000000 0.131298 0.000000 0.000000
# 5 0.000000 0.000000 0.000000 0.000000 0.131270 0.000000
# 6 0.000000 0.000000 0.000000 0.000000 0.000000 0.457500
#
#
# Mechanical properties :
#
#
# Convention : Reuss Voigt Hill
#
# Bulk Modulus (GPa) = 28.33810 30.23050 29.28430
# Shear Modulus (GPa) = 6.04075 11.94559 8.99317
#
# Velocity S-wave (km/s) = 2.25861 3.17614 2.75583
# Velocity P-wave (km/s) = 5.54373 6.24338 5.90393
#
# Compressibility (1/GPa) = 0.03528818
#
# Stress axis : x y z
#
# Youngs Moduli (GPa) = 38.12690 38.12697 76.17010
#
# Poissons Ratio (x) = 0.32319 0.25410
# Poissons Ratio (y) = 0.32318 0.25409
# Poissons Ratio (z) = 0.12719 0.12719
#
# Static dielectric constant tensor:
#      x y z
#    x 1.387060 0.000000 0.000000 
#    y 0.000000 1.387060 0.000000 
#    z 0.000000 0.000000 1.422750 
# 
# From -- ./inp_files/8759.got.cif
#   From: 2010.05.17/outbox.cif.g08.bks.cpg/sg91_5_cif.got.tgz:8759.got - 2010.06.03 19:20:03.
