data_PCOD9547516
_publ_section_title
;
Structure prediction by ZEFSAII (Michael W. Deem and Ramdas Pophale) SiO2 
 PCOD9547516
Probable space group: P 41 2 2
;
_chemical_formula_sum "Si O2"
_cell_formula_units_Z 64
_cell_length_a 14.365274
_cell_length_b 14.365274
_cell_length_c 17.958903
_cell_angle_alpha 90.000000
_cell_angle_beta 90.000000
_cell_angle_gamma 90.000000
_cell_volume 3706.018926
_symmetry_space_group_name_H-M "P 41 2 2"
_symmetry_group_IT_number 91
_symmetry_cell_setting 'tetragonal'
loop_
_space_group_symop_operation_xyz
x,y,z
-y,x,1/4+z
-x,-y,1/2+z
y,-x,3/4+z
x,-y,1/2-z
-x,y,-z
y,x,3/4-z
-y,-x,1/4-z
loop_
_atom_site_type_symbol
_atom_site_label
_atom_site_fract_x
_atom_site_fract_y
_atom_site_fract_z
Si Si1 0.462089 0.953386 0.079559
Si Si2 0.895762 0.744944 0.616979
Si Si3 0.588529 0.333627 0.047668
Si Si4 0.777307 0.305448 0.316388
Si Si5 0.837860 0.500059 0.376237
Si Si6 0.557048 0.100351 0.280450
Si Si7 0.275203 0.984783 0.484336
Si Si8 0.044679 0.929988 0.817637
O O1 0.496367 0.886261 0.145119
O O2 0.504966 0.056528 0.095719
O O3 0.500000 0.921445 0.000000
O O4 0.352409 0.971756 0.070628
O O5 0.783233 0.754589 0.618048
O O6 0.908422 0.664340 0.555181
O O7 0.925615 0.849336 0.596384
O O8 0.958200 0.716516 0.688276
O O9 0.613823 0.386178 0.125000
O O10 0.558442 0.231061 0.075325
O O11 0.500000 0.371910 0.000000
O O12 0.669930 0.308753 0.988523
O O13 0.802135 0.394654 0.366652
O O14 0.872034 0.289249 0.267477
O O15 0.834109 0.536270 0.460725
O O16 0.525766 0.000000 0.250000
O O17 0.170514 0.992475 0.455749
O O18 0.046841 0.000000 0.750000
O O19 0.974706 0.974706 0.875000
#
# Coordination Sequence:
#
# PCOD9547516 Si02
#       8
#     8   8   8   8   8   8   8   8
#     4  10  17  32  52  74 106 140 177 224 286 325
#     4  11  20  34  53  79 110 144 186 226 277 323
#     4  10  19  34  57  86 111 138 171 216 275 336
#     4   9  20  34  52  79 112 147 177 224 274 331
#     4   9  18  33  52  78 111 138 169 224 280 332
#     4  10  20  30  51  81 106 135 177 232 279 331
#     4  10  20  35  53  75 104 148 188 225 271 325
#     4  11  22  39  52  71 108 151 191 228 263 320
#
# _framework density 17.269203999999998
#
# number of rings (size 3 to 8) (size 9 to 14) (size 15 to 20)
#    0.000    2.000    2.500    3.000    1.750    0.000 
#    6.750    0.625    0.000    0.000   19.500    0.000 
#    0.000    0.000    0.000    0.000    0.000    0.000 
#
# Total GULP energy -356289.673495 kJ/mol
# GULP energy per Si atom -5567.026148 kJ/mol
# Density = 1.722990 g / cm^3
# Si number density = 17.269204 Si / 1000 Ang^3
#
#
#
# Elastic Constant Matrix: (Units=GPa)
#
#
# Indices 1 2 3 4 5 6 
#
# 1 71.9846 13.2213 31.8968 0.0000 0.0000 0.0000
# 2 13.2213 71.9842 31.8969 0.0000 0.0000 0.0000
# 3 31.8968 31.8969 93.5056 0.0000 0.0000 0.0000
# 4 0.0000 0.0000 0.0000 30.4630 0.0000 0.0000
# 5 0.0000 0.0000 0.0000 0.0000 30.4632 0.0000
# 6 0.0000 0.0000 0.0000 0.0000 0.0000 10.4022
#
#
#
# Elastic Compliance Matrix: (Units=1/GPa)
#
#
# Indices 1 2 3 4 5 6 
#
# 1 0.016390 -0.000628 -0.005377 0.000000 0.000000 0.000000
# 2 -0.000628 0.016390 -0.005377 0.000000 0.000000 0.000000
# 3 -0.005377 -0.005377 0.014363 0.000000 0.000000 0.000000
# 4 0.000000 0.000000 0.000000 0.032827 0.000000 0.000000
# 5 0.000000 0.000000 0.000000 0.000000 0.032826 0.000000
# 6 0.000000 0.000000 0.000000 0.000000 0.000000 0.096134
#
#
# Mechanical properties :
#
#
# Convention : Reuss Voigt Hill
#
# Bulk Modulus (GPa) = 41.01785 43.50049 42.25917
# Shear Modulus (GPa) = 20.84914 24.96298 22.90606
#
# Velocity S-wave (km/s) = 3.47839 3.80612 3.64594
# Velocity P-wave (km/s) = 6.31948 6.67531 6.49983
#
# Compressibility (1/GPa) = 0.02437963
#
# Stress axis : x y z
#
# Youngs Moduli (GPa) = 61.01423 61.01383 69.62432
#
# Poissons Ratio (x) = 0.03830 0.37435
# Poissons Ratio (y) = 0.03830 0.37435
# Poissons Ratio (z) = 0.32806 0.32806
#
# Static dielectric constant tensor:
#      x y z
#    x 1.601220 0.000000 0.000000 
#    y 0.000000 1.601220 0.000000 
#    z 0.000000 0.000000 1.616130 
# 
# From -- ./inp_files/12076.got.cif
#   From: 2010.05.17/outbox.cif.g08.bks.cpg/sg91_7_cif.got.tgz:12076.got - 2010.06.03 19:20:03.
