data_PCOD9547284
_publ_section_title
;
Structure prediction by ZEFSAII (Michael W. Deem and Ramdas Pophale) SiO2 
 PCOD9547284
Probable space group: P 4 21 2
;
_chemical_formula_sum "Si O2"
_cell_formula_units_Z 56
_cell_length_a 14.835124
_cell_length_b 14.835124
_cell_length_c 12.623248
_cell_angle_alpha 90.000000
_cell_angle_beta 90.000000
_cell_angle_gamma 90.000000
_cell_volume 2778.135832
_symmetry_space_group_name_H-M "P 4 21 2"
_symmetry_group_IT_number 90
_symmetry_cell_setting 'tetragonal'
loop_
_space_group_symop_operation_xyz
x,y,z
1/2-y,1/2+x,z
-x,-y,z
1/2+y,1/2-x,z
1/2+x,1/2-y,-z
1/2-x,1/2+y,-z
y,x,-z
-y,-x,-z
loop_
_atom_site_type_symbol
_atom_site_label
_atom_site_fract_x
_atom_site_fract_y
_atom_site_fract_z
Si Si1 0.563467 0.611963 0.615695
Si Si2 0.120476 0.701927 0.333824
Si Si3 0.640618 0.320645 0.623767
Si Si4 0.791930 0.000652 0.297108
Si Si5 0.649041 0.031160 0.119493
Si Si6 0.644487 0.045409 0.877697
Si Si7 0.529360 0.856615 0.461999
O O1 0.568887 0.568887 0.500000
O O2 0.628808 0.697833 0.622280
O O3 0.463372 0.649087 0.633761
O O4 0.608074 0.541694 0.696540
O O5 0.217973 0.655809 0.341150
O O6 0.078910 0.706560 0.216830
O O7 0.048992 0.654985 0.413431
O O8 0.668245 0.331756 0.500000
O O9 0.698082 0.392939 0.691046
O O10 0.731695 0.033655 0.199800
O O11 0.737030 0.034667 0.400996
O O12 0.567065 0.101950 0.134903
O O13 0.678888 0.047501 0.998061
O O14 0.556076 0.108245 0.865382
O O15 0.432507 0.897903 0.431951
#
# Coordination Sequence:
#
# PCOD9547284 Si02
#       7
#     8   8   8   8   8   8   8
#     4  12  24  42  60  88 130 176 217 259 323 401
#     4  12  23  38  63  96 125 164 219 275 323 393
#     4  12  25  40  63  92 137 181 221 265 330 402
#     4  12  24  38  62  88 130 172 221 261 315 400
#     4   9  20  39  66  96 128 166 208 268 338 389
#     4   9  18  37  65  93 125 162 203 260 334 396
#     4  11  22  35  56  92 131 163 198 266 335 383
#
# _framework density 20.157402999999999
#
# number of rings (size 3 to 8) (size 9 to 14) (size 15 to 20)
#    0.000    1.000    2.857    6.000    4.000    2.286 
#    0.000    0.714    0.000    2.571    0.000    6.000 
#    0.000    0.000    0.000    0.000    0.000    0.000 
#
# Total GULP energy -312789.054071 kJ/mol
# GULP energy per Si atom -5585.518823 kJ/mol
# Density = 2.011152 g / cm^3
# Si number density = 20.157403 Si / 1000 Ang^3
#
#
#
# Elastic Constant Matrix: (Units=GPa)
#
#
# Indices 1 2 3 4 5 6 
#
# 1 81.5664 44.0572 41.4042 0.0000 0.0000 0.0000
# 2 44.0572 81.5668 41.4041 0.0000 0.0000 0.0000
# 3 41.4042 41.4041 117.3553 0.0000 0.0000 0.0000
# 4 0.0000 0.0000 0.0000 19.8440 0.0000 0.0000
# 5 0.0000 0.0000 0.0000 0.0000 19.8440 0.0000
# 6 0.0000 0.0000 0.0000 0.0000 0.0000 27.8140
#
#
#
# Elastic Compliance Matrix: (Units=1/GPa)
#
#
# Indices 1 2 3 4 5 6 
#
# 1 0.018516 -0.008144 -0.003660 0.000000 0.000000 0.000000
# 2 -0.008144 0.018516 -0.003660 0.000000 0.000000 0.000000
# 3 -0.003660 -0.003660 0.011103 0.000000 0.000000 0.000000
# 4 0.000000 0.000000 0.000000 0.050393 0.000000 0.000000
# 5 0.000000 0.000000 0.000000 0.000000 0.050393 0.000000
# 6 0.000000 0.000000 0.000000 0.000000 0.000000 0.035953
#
#
# Mechanical properties :
#
#
# Convention : Reuss Voigt Hill
#
# Bulk Modulus (GPa) = 58.10464 59.35770 58.73117
# Shear Modulus (GPa) = 22.56954 23.74194 23.15574
#
# Velocity S-wave (km/s) = 3.34977 3.43567 3.39299
# Velocity P-wave (km/s) = 6.62188 6.72677 6.67453
#
# Compressibility (1/GPa) = 0.01721033
#
# Stress axis : x y z
#
# Youngs Moduli (GPa) = 54.00638 54.00670 90.06267
#
# Poissons Ratio (x) = 0.43982 0.32959
# Poissons Ratio (y) = 0.43981 0.32959
# Poissons Ratio (z) = 0.19764 0.19764
#
# Static dielectric constant tensor:
#      x y z
#    x 1.752330 0.000000 0.000000 
#    y 0.000000 1.752330 0.000000 
#    z 0.000000 0.000000 1.724440 
# 
# From -- ./inp_files/2230.got.cif
#   From: 2010.05.17/outbox.cif.g08.bks.cpg/sg90_2_cif.got.tgz:2230.got - 2010.06.03 19:17:45.
