data_PCOD9547862
_publ_section_title
;
Structure prediction by ZEFSAII (Michael W. Deem and Ramdas Pophale) SiO2 
 PCOD9547862
Probable space group: P 41 2 2
;
_chemical_formula_sum "Si O2"
_cell_formula_units_Z 56
_cell_length_a 15.166287
_cell_length_b 15.166287
_cell_length_c 12.375631
_cell_angle_alpha 90.000000
_cell_angle_beta 90.000000
_cell_angle_gamma 90.000000
_cell_volume 2846.596375
_symmetry_space_group_name_H-M "P 41 2 2"
_symmetry_group_IT_number 91
_symmetry_cell_setting 'tetragonal'
loop_
_space_group_symop_operation_xyz
x,y,z
-y,x,1/4+z
-x,-y,1/2+z
y,-x,3/4+z
x,-y,1/2-z
-x,y,-z
y,x,3/4-z
-y,-x,1/4-z
loop_
_atom_site_type_symbol
_atom_site_label
_atom_site_fract_x
_atom_site_fract_y
_atom_site_fract_z
Si Si1 0.077362 0.721851 0.907805
Si Si2 0.095972 0.623833 0.460360
Si Si3 0.560009 0.843696 0.784195
Si Si4 0.223855 0.231750 0.749809
Si Si5 0.660411 0.401995 0.291097
Si Si6 0.643387 0.460102 0.532789
Si Si7 0.974575 0.591192 0.769865
O O1 0.147278 0.782300 0.841337
O O2 0.029695 0.673771 0.807959
O O3 0.137130 0.645632 0.962687
O O4 0.000000 0.746867 0.000000
O O5 0.124523 0.532336 0.517197
O O6 0.169888 0.694819 0.472826
O O7 0.082578 0.608924 0.334255
O O8 0.000000 0.651813 0.500000
O O9 0.547740 0.744052 0.822294
O O10 0.573315 0.908904 0.882886
O O11 0.205537 0.205537 0.875000
O O12 0.265323 0.331117 0.742892
O O13 0.683699 0.500000 0.250000
O O14 0.646163 0.405607 0.420998
O O15 0.561306 0.378051 0.252037
O O16 0.578107 0.421894 0.625000
O O17 0.026698 0.500000 0.750000
#
# Coordination Sequence:
#
# PCOD9547862 Si02
#       7
#     8   8   8   8   8   8   8
#     4  10  21  41  61  91 126 166 208 265 337 408
#     4  11  22  39  60  89 124 163 213 270 335 392
#     4  10  20  35  59  87 122 168 221 272 324 385
#     4  12  25  39  64  94 126 166 219 274 332 399
#     4  12  25  42  56  86 130 185 235 277 324 388
#     4  12  24  38  60  82 126 184 237 277 319 376
#     4   9  19  34  60  85 119 155 204 261 323 386
#
# _framework density 19.672616000000001
#
# number of rings (size 3 to 8) (size 9 to 14) (size 15 to 20)
#    0.000    1.143    2.857    5.571    2.000    1.714 
#    0.000    2.143    0.000    0.000    0.000    8.000 
#    0.000    0.000    0.000    0.000    0.000    0.000 
#
# Total GULP energy -312049.378903 kJ/mol
# GULP energy per Si atom -5572.310338 kJ/mol
# Density = 1.962784 g / cm^3
# Si number density = 19.672616 Si / 1000 Ang^3
#
#
#
# Elastic Constant Matrix: (Units=GPa)
#
#
# Indices 1 2 3 4 5 6 
#
# 1 35.4741 25.8926 -4.1996 0.0000 0.0000 0.0000
# 2 25.8926 35.4749 -4.1979 0.0000 0.0000 0.0000
# 3 -4.1996 -4.1979 55.4906 0.0000 0.0000 0.0000
# 4 0.0000 0.0000 0.0000 9.7381 0.0000 0.0000
# 5 0.0000 0.0000 0.0000 0.0000 9.7389 0.0000
# 6 0.0000 0.0000 0.0000 0.0000 0.0000 4.9697
#
#
#
# Elastic Compliance Matrix: (Units=1/GPa)
#
#
# Indices 1 2 3 4 5 6 
#
# 1 0.060416 -0.043949 0.001248 0.000000 0.000000 0.000000
# 2 -0.043949 0.060414 0.001244 0.000000 0.000000 0.000000
# 3 0.001248 0.001244 0.018210 0.000000 0.000000 0.000000
# 4 0.000000 0.000000 0.000000 0.102690 0.000000 0.000000
# 5 0.000000 0.000000 0.000000 0.000000 0.102681 0.000000
# 6 0.000000 0.000000 0.000000 0.000000 0.000000 0.201218
#
#
# Mechanical properties :
#
#
# Convention : Reuss Voigt Hill
#
# Bulk Modulus (GPa) = 17.81738 17.93665 17.87702
# Shear Modulus (GPa) = 7.72498 12.15231 9.93865
#
# Velocity S-wave (km/s) = 1.98376 2.48811 2.25011
# Velocity P-wave (km/s) = 3.78466 4.17032 3.98216
#
# Compressibility (1/GPa) = 0.05612496
#
# Stress axis : x y z
#
# Youngs Moduli (GPa) = 16.55199 16.55246 54.91606
#
# Poissons Ratio (x) = 0.72746 -0.06851
# Poissons Ratio (y) = 0.72744 -0.06833
# Poissons Ratio (z) = -0.02065 -0.02059
#
# Static dielectric constant tensor:
#      x y z
#    x 1.719030 0.000000 0.000000 
#    y 0.000000 1.719030 0.000000 
#    z 0.000000 0.000000 1.716210 
# 
# From -- ./inp_files/3902.got.cif
#   From: 2010.05.17/outbox.cif.g08.bks.cpg/sg91_2_cif.got.tgz:3902.got - 2010.06.03 19:20:03.
