data_PCOD9547538
_publ_section_title
;
Structure prediction by ZEFSAII (Michael W. Deem and Ramdas Pophale) SiO2 
 PCOD9547538
Probable space group: P 41 2 2
;
_chemical_formula_sum "Si O2"
_cell_formula_units_Z 64
_cell_length_a 21.029237
_cell_length_b 21.029237
_cell_length_c 9.154358
_cell_angle_alpha 90.000000
_cell_angle_beta 90.000000
_cell_angle_gamma 90.000000
_cell_volume 4048.320834
_symmetry_space_group_name_H-M "P 41 2 2"
_symmetry_group_IT_number 91
_symmetry_cell_setting 'tetragonal'
loop_
_space_group_symop_operation_xyz
x,y,z
-y,x,1/4+z
-x,-y,1/2+z
y,-x,3/4+z
x,-y,1/2-z
-x,y,-z
y,x,3/4-z
-y,-x,1/4-z
loop_
_atom_site_type_symbol
_atom_site_label
_atom_site_fract_x
_atom_site_fract_y
_atom_site_fract_z
Si Si1 0.659296 0.071993 0.744848
Si Si2 0.264804 0.172763 0.452278
Si Si3 0.024598 0.828512 0.839154
Si Si4 0.093706 0.848805 0.358269
Si Si5 0.250121 0.940230 0.661469
Si Si6 0.424533 0.893271 0.526403
Si Si7 0.646893 0.854763 0.215181
Si Si8 0.041534 0.426641 0.223954
O O1 0.705714 0.123403 0.666751
O O2 0.623361 0.102726 0.885839
O O3 0.604016 0.055430 0.629968
O O4 0.687670 0.000000 0.750000
O O5 0.235231 0.235231 0.375000
O O6 0.204331 0.136935 0.526846
O O7 0.317956 0.183218 0.581601
O O8 0.087392 0.870117 0.855949
O O9 0.043054 0.764052 0.753660
O O10 0.968066 0.858488 0.742404
O O11 0.000000 0.819933 0.000000
O O12 0.073008 0.816461 0.509428
O O13 0.294280 0.881601 0.691576
O O14 0.277800 0.000000 0.750000
O O15 0.500000 0.882946 0.500000
O O16 0.401542 0.842566 0.649591
O O17 0.419996 0.968056 0.574532
O O18 0.609652 0.910507 0.131193
O O19 0.055374 0.500000 0.250000
#
# Coordination Sequence:
#
# PCOD9547538 Si02
#       8
#     8   8   8   8   8   8   8   8
#     4   9  19  31  46  69  92 119 152 187 234 285
#     4  10  21  36  49  63  84 113 154 197 233 276
#     4  11  21  35  50  65  81 101 135 182 241 301
#     4  10  22  37  50  63  79 102 135 184 244 302
#     4   9  19  34  49  63  81 105 134 169 214 278
#     4  10  18  28  45  72 100 120 143 177 223 285
#     4  10  19  31  47  65  88 118 146 175 219 266
#     4   9  16  28  46  68  96 124 145 171 216 279
#
# _framework density 15.809024000000001
#
# number of rings (size 3 to 8) (size 9 to 14) (size 15 to 20)
#    0.000    2.250    0.000    3.375    0.000    8.500 
#    0.000    8.750    0.000    0.000    0.000    0.000 
#    0.000    0.000    0.000    0.000    0.000    0.000 
#
# Total GULP energy -356318.221942 kJ/mol
# GULP energy per Si atom -5567.472218 kJ/mol
# Density = 1.577304 g / cm^3
# Si number density = 15.809024 Si / 1000 Ang^3
#
#
#
# Elastic Constant Matrix: (Units=GPa)
#
#
# Indices 1 2 3 4 5 6 
#
# 1 57.5422 25.4767 28.9224 0.0000 0.0000 0.0000
# 2 25.4767 57.5422 28.9224 0.0000 0.0000 0.0000
# 3 28.9224 28.9224 100.7104 0.0000 0.0000 0.0000
# 4 0.0000 0.0000 0.0000 5.1391 0.0000 0.0000
# 5 0.0000 0.0000 0.0000 0.0000 5.1391 0.0000
# 6 0.0000 0.0000 0.0000 0.0000 0.0000 7.1482
#
#
#
# Elastic Compliance Matrix: (Units=1/GPa)
#
#
# Indices 1 2 3 4 5 6 
#
# 1 0.023122 -0.008064 -0.004325 0.000000 0.000000 0.000000
# 2 -0.008064 0.023122 -0.004325 0.000000 0.000000 0.000000
# 3 -0.004325 -0.004325 0.012413 0.000000 0.000000 0.000000
# 4 0.000000 0.000000 0.000000 0.194586 0.000000 0.000000
# 5 0.000000 0.000000 0.000000 0.000000 0.194586 0.000000
# 6 0.000000 0.000000 0.000000 0.000000 0.000000 0.139896
#
#
# Mechanical properties :
#
#
# Convention : Reuss Voigt Hill
#
# Bulk Modulus (GPa) = 39.63170 42.49307 41.06239
# Shear Modulus (GPa) = 7.94202 12.31683 10.12942
#
# Velocity S-wave (km/s) = 2.24380 2.79427 2.53402
# Velocity P-wave (km/s) = 5.64237 6.11129 5.88151
#
# Compressibility (1/GPa) = 0.02523233
#
# Stress axis : x y z
#
# Youngs Moduli (GPa) = 43.24804 43.24804 80.55819
#
# Poissons Ratio (x) = 0.34874 0.34838
# Poissons Ratio (y) = 0.34874 0.34838
# Poissons Ratio (z) = 0.18703 0.18703
#
# Static dielectric constant tensor:
#      x y z
#    x 1.542270 0.000000 0.000000 
#    y 0.000000 1.542270 0.000000 
#    z 0.000000 0.000000 1.614430 
# 
# From -- ./inp_files/19827.got.cif
#   From: 2010.05.17/outbox.cif.g08.bks.cpg/sg91_10_cif.got.tgz:19827.got - 2010.06.03 19:20:03.
