data_PCOD9547788
_publ_section_title
;
Structure prediction by ZEFSAII (Michael W. Deem and Ramdas Pophale) SiO2 
 PCOD9547788
Probable space group: P 41 2 2
;
_chemical_formula_sum "Si O2"
_cell_formula_units_Z 40
_cell_length_a 9.501591
_cell_length_b 9.501591
_cell_length_c 23.011871
_cell_angle_alpha 90.000000
_cell_angle_beta 90.000000
_cell_angle_gamma 90.000000
_cell_volume 2077.517042
_symmetry_space_group_name_H-M "P 41 2 2"
_symmetry_group_IT_number 91
_symmetry_cell_setting 'tetragonal'
loop_
_space_group_symop_operation_xyz
x,y,z
-y,x,1/4+z
-x,-y,1/2+z
y,-x,3/4+z
x,-y,1/2-z
-x,y,-z
y,x,3/4-z
-y,-x,1/4-z
loop_
_atom_site_type_symbol
_atom_site_label
_atom_site_fract_x
_atom_site_fract_y
_atom_site_fract_z
Si Si1 0.332924 0.510520 0.485798
Si Si2 0.685496 0.161976 0.177090
Si Si3 0.146409 0.939878 0.479362
Si Si4 0.159723 0.303750 0.104900
Si Si5 0.194575 0.336546 0.241406
O O1 0.500000 0.532165 0.500000
O O2 0.242316 0.560295 0.541213
O O3 0.270614 0.602536 0.432316
O O4 0.305846 0.344617 0.478935
O O5 0.746477 0.253524 0.125000
O O6 0.812997 0.159947 0.223832
O O7 0.648586 0.002515 0.157994
O O8 0.155192 0.856317 0.419039
O O9 0.000000 0.006774 0.500000
O O10 0.257940 0.061743 0.482464
O O11 0.196692 0.307603 0.172352
O O12 0.169861 0.500000 0.250000
#
# Coordination Sequence:
#
# PCOD9547788 Si02
#       5
#     8   8   8   8   8
#     4  10  24  38  59  89 125 163 203 251 315 374
#     4  10  19  38  65  89 116 159 206 255 307 364
#     4   9  20  38  62  89 120 154 204 252 309 369
#     4  10  22  42  62  89 127 157 205 267 300 365
#     4  11  24  40  60  92 127 161 208 255 309 377
#
# _framework density 19.253753
#
# number of rings (size 3 to 8) (size 9 to 14) (size 15 to 20)
#    0.000    2.000    2.000    1.800    2.800    8.800 
#    0.000    2.000    0.000    0.000    0.000    0.000 
#    0.000    0.000    0.000    0.000    0.000    0.000 
#
# Total GULP energy -223081.340203 kJ/mol
# GULP energy per Si atom -5577.033505 kJ/mol
# Density = 1.920993 g / cm^3
# Si number density = 19.253753 Si / 1000 Ang^3
#
#
#
# Elastic Constant Matrix: (Units=GPa)
#
#
# Indices 1 2 3 4 5 6 
#
# 1 73.2721 50.5600 3.1081 0.0000 0.0000 0.0000
# 2 50.5600 73.2719 3.1080 0.0000 0.0000 0.0000
# 3 3.1081 3.1080 57.3748 0.0000 0.0000 0.0000
# 4 0.0000 0.0000 0.0000 20.7846 0.0000 0.0000
# 5 0.0000 0.0000 0.0000 0.0000 20.7809 0.0000
# 6 0.0000 0.0000 0.0000 0.0000 0.0000 42.0369
#
#
#
# Elastic Compliance Matrix: (Units=1/GPa)
#
#
# Indices 1 2 3 4 5 6 
#
# 1 0.026063 -0.017966 -0.000439 0.000000 0.000000 0.000000
# 2 -0.017966 0.026064 -0.000439 0.000000 0.000000 0.000000
# 3 -0.000439 -0.000439 0.017477 0.000000 0.000000 0.000000
# 4 0.000000 0.000000 0.000000 0.048113 0.000000 0.000000
# 5 0.000000 0.000000 0.000000 0.000000 0.048121 0.000000
# 6 0.000000 0.000000 0.000000 0.000000 0.000000 0.023789
#
#
# Mechanical properties :
#
#
# Convention : Reuss Voigt Hill
#
# Bulk Modulus (GPa) = 31.33115 35.27456 33.30286
# Shear Modulus (GPa) = 21.01266 26.52999 23.77133
#
# Velocity S-wave (km/s) = 3.30715 3.71605 3.51755
# Velocity P-wave (km/s) = 5.55797 6.06405 5.81652
#
# Compressibility (1/GPa) = 0.03191712
#
# Stress axis : x y z
#
# Youngs Moduli (GPa) = 38.36792 38.36779 57.21881
#
# Poissons Ratio (x) = 0.68932 0.02510
# Poissons Ratio (y) = 0.68932 0.02510
# Poissons Ratio (z) = 0.01683 0.01683
#
# Static dielectric constant tensor:
#      x y z
#    x 1.619760 0.000000 0.000000 
#    y 0.000000 1.619780 0.000000 
#    z 0.000000 0.000000 1.709460 
# 
# From -- ./inp_files/6748.got.cif
#   From: 2010.05.17/outbox.cif.g08.bks.cpg/sg91_4_cif.got.tgz:6748.got - 2010.06.03 19:20:03.
