data_PCOD9547517
_publ_section_title
;
Structure prediction by ZEFSAII (Michael W. Deem and Ramdas Pophale) SiO2 
 PCOD9547517
Probable space group: P 41 2 2
;
_chemical_formula_sum "Si O2"
_cell_formula_units_Z 64
_cell_length_a 21.083292
_cell_length_b 21.083292
_cell_length_c 9.334718
_cell_angle_alpha 90.000000
_cell_angle_beta 90.000000
_cell_angle_gamma 90.000000
_cell_volume 4149.330706
_symmetry_space_group_name_H-M "P 41 2 2"
_symmetry_group_IT_number 91
_symmetry_cell_setting 'tetragonal'
loop_
_space_group_symop_operation_xyz
x,y,z
-y,x,1/4+z
-x,-y,1/2+z
y,-x,3/4+z
x,-y,1/2-z
-x,y,-z
y,x,3/4-z
-y,-x,1/4-z
loop_
_atom_site_type_symbol
_atom_site_label
_atom_site_fract_x
_atom_site_fract_y
_atom_site_fract_z
Si Si1 0.732537 0.695752 0.714245
Si Si2 0.116310 0.482654 0.085151
Si Si3 0.263071 0.548178 0.376077
Si Si4 0.760905 0.373392 0.274097
Si Si5 0.449467 0.345481 0.900869
Si Si6 0.432879 0.105210 0.081379
Si Si7 0.357642 0.935694 0.678951
Si Si8 0.810958 0.720708 0.455032
O O1 0.734539 0.619615 0.689644
O O2 0.674175 0.725455 0.627764
O O3 0.792845 0.721131 0.622473
O O4 0.721164 0.721164 0.875000
O O5 0.104492 0.500000 0.250000
O O6 0.192006 0.469320 0.068244
O O7 0.091420 0.541851 0.990175
O O8 0.085449 0.417684 0.027806
O O9 0.276274 0.500000 0.250000
O O10 0.314514 0.535560 0.498682
O O11 0.714528 0.430757 0.247620
O O12 0.828090 0.396264 0.331538
O O13 0.772222 0.336541 0.123895
O O14 0.388936 0.388936 0.875000
O O15 0.500000 0.381430 0.000000
O O16 0.500000 0.113335 0.000000
O O17 0.388745 0.060852 0.981088
O O18 0.302530 0.882613 0.681175
O O19 0.334162 0.000000 0.750000
O O20 0.783415 0.783415 0.375000
#
# Coordination Sequence:
#
# PCOD9547517 Si02
#       8
#     8   8   8   8   8   8   8   8
#     4  11  21  30  49  75  97 116 151 204 262 300
#     4  10  20  31  48  69 105 134 164 209 251 290
#     4  11  22  35  48  72  95 117 152 207 259 303
#     4  10  17  32  54  69  86 111 151 203 247 304
#     4  12  22  36  51  62  75 109 149 191 254 318
#     4   9  18  31  48  72  91 122 164 199 247 298
#     4  10  19  33  52  72 100 137 176 207 244 291
#     4   9  17  34  51  74 102 126 158 203 247 294
#
# _framework density 15.424174000000001
#
# number of rings (size 3 to 8) (size 9 to 14) (size 15 to 20)
#    0.000    1.750    3.750    3.000    5.250    1.500 
#    0.000    0.625    0.000    0.000    0.000    0.000 
#    0.000    0.000    0.000    1.125    0.000    0.000 
#
# Total GULP energy -356427.613694 kJ/mol
# GULP energy per Si atom -5569.181464 kJ/mol
# Density = 1.538907 g / cm^3
# Si number density = 15.424174 Si / 1000 Ang^3
#
#
#
# Elastic Constant Matrix: (Units=GPa)
#
#
# Indices 1 2 3 4 5 6 
#
# 1 51.7442 21.7777 25.7842 0.0000 0.0000 0.0000
# 2 21.7777 51.7442 25.7842 0.0000 0.0000 0.0000
# 3 25.7842 25.7842 102.5605 0.0000 0.0000 0.0000
# 4 0.0000 0.0000 0.0000 12.3854 0.0000 0.0000
# 5 0.0000 0.0000 0.0000 0.0000 12.3854 0.0000
# 6 0.0000 0.0000 0.0000 0.0000 0.0000 9.5850
#
#
#
# Elastic Compliance Matrix: (Units=1/GPa)
#
#
# Indices 1 2 3 4 5 6 
#
# 1 0.024942 -0.008429 -0.004152 0.000000 0.000000 0.000000
# 2 -0.008429 0.024942 -0.004152 0.000000 0.000000 0.000000
# 3 -0.004152 -0.004152 0.011838 0.000000 0.000000 0.000000
# 4 0.000000 0.000000 0.000000 0.080740 0.000000 0.000000
# 5 0.000000 0.000000 0.000000 0.000000 0.080740 0.000000
# 6 0.000000 0.000000 0.000000 0.000000 0.000000 0.104330
#
#
# Mechanical properties :
#
#
# Convention : Reuss Voigt Hill
#
# Bulk Modulus (GPa) = 35.38790 39.19344 37.29067
# Shear Modulus (GPa) = 13.49838 15.71801 14.60820
#
# Velocity S-wave (km/s) = 2.96149 3.19572 3.08083
# Velocity P-wave (km/s) = 5.88956 6.25159 6.07327
#
# Compressibility (1/GPa) = 0.02825825
#
# Stress axis : x y z
#
# Youngs Moduli (GPa) = 40.09318 40.09318 84.47543
#
# Poissons Ratio (x) = 0.33793 0.35070
# Poissons Ratio (y) = 0.33793 0.35070
# Poissons Ratio (z) = 0.16645 0.16645
#
# Static dielectric constant tensor:
#      x y z
#    x 1.521650 0.000000 0.000000 
#    y 0.000000 1.521650 0.000000 
#    z 0.000000 0.000000 1.674660 
# 
# From -- ./inp_files/10162.got.cif
#   From: 2010.05.17/outbox.cif.g08.bks.cpg/sg91_6_cif.got.tgz:10162.got - 2010.06.03 19:20:03.
