data_PCOD9547523
_publ_section_title
;
Structure prediction by ZEFSAII (Michael W. Deem and Ramdas Pophale) SiO2 
 PCOD9547523
Probable space group: P 41 2 2
;
_chemical_formula_sum "Si O2"
_cell_formula_units_Z 40
_cell_length_a 11.758611
_cell_length_b 11.758611
_cell_length_c 15.069619
_cell_angle_alpha 90.000000
_cell_angle_beta 90.000000
_cell_angle_gamma 90.000000
_cell_volume 2083.599856
_symmetry_space_group_name_H-M "P 41 2 2"
_symmetry_group_IT_number 91
_symmetry_cell_setting 'tetragonal'
loop_
_space_group_symop_operation_xyz
x,y,z
-y,x,1/4+z
-x,-y,1/2+z
y,-x,3/4+z
x,-y,1/2-z
-x,y,-z
y,x,3/4-z
-y,-x,1/4-z
loop_
_atom_site_type_symbol
_atom_site_label
_atom_site_fract_x
_atom_site_fract_y
_atom_site_fract_z
Si Si1 0.520498 0.520498 0.875000
Si Si2 0.205545 0.818612 0.922624
Si Si3 0.976998 0.135231 0.271337
Si Si4 0.695541 0.575233 0.028341
Si Si5 0.867630 0.380766 0.982395
Si Si6 0.196678 0.196678 0.875000
O O1 0.539957 0.384530 0.862474
O O2 0.568395 0.598311 0.796028
O O3 0.092623 0.834101 0.860235
O O4 0.242135 0.692854 0.950246
O O5 0.309173 0.858649 0.858684
O O6 0.181187 0.896049 0.008813
O O7 0.910881 0.192849 0.189733
O O8 0.971129 0.000000 0.250000
O O9 0.792042 0.491933 0.991034
O O10 0.815422 0.301748 0.059924
O O11 0.000000 0.402003 0.000000
#
# Coordination Sequence:
#
# PCOD9547523 Si02
#       6
#     4   8   8   8   8   4
#     4  10  23  46  67  86 124 174 224 260 325 385
#     4  11  22  40  65  95 129 169 213 261 325 390
#     4  11  19  38  63  96 129 171 206 257 323 402
#     4  11  23  44  67  91 123 173 218 270 319 386
#     4  11  21  39  64  95 131 159 213 277 316 376
#     4  10  17  34  63  90 126 164 204 256 317 369
#
# _framework density 19.197543
#
# number of rings (size 3 to 8) (size 9 to 14) (size 15 to 20)
#    0.000    1.200    6.000    1.800    0.000    0.800 
#    7.200    0.000    0.000    0.000    0.000    0.000 
#    0.000    0.000    0.000    0.000    0.000    0.000 
#
# Total GULP energy -222893.548498 kJ/mol
# GULP energy per Si atom -5572.338712 kJ/mol
# Density = 1.915385 g / cm^3
# Si number density = 19.197543 Si / 1000 Ang^3
#
#
#
# Elastic Constant Matrix: (Units=GPa)
#
#
# Indices 1 2 3 4 5 6 
#
# 1 139.9942 72.4022 32.3109 0.0000 0.0000 0.0000
# 2 72.4022 139.9942 32.3109 0.0000 0.0000 0.0000
# 3 32.3109 32.3109 47.9322 0.0000 0.0000 0.0000
# 4 0.0000 0.0000 0.0000 -13.1892 0.0000 0.0000
# 5 0.0000 0.0000 0.0000 0.0000 -13.1892 0.0000
# 6 0.0000 0.0000 0.0000 0.0000 0.0000 22.7203
#
#
#
# Elastic Compliance Matrix: (Units=1/GPa)
#
#
# Indices 1 2 3 4 5 6 
#
# 1 0.010359 -0.004436 -0.003993 0.000000 0.000000 0.000000
# 2 -0.004436 0.010359 -0.003993 0.000000 0.000000 0.000000
# 3 -0.003993 -0.003993 0.026246 0.000000 0.000000 0.000000
# 4 0.000000 0.000000 0.000000 -0.075820 0.000000 0.000000
# 5 0.000000 0.000000 0.000000 0.000000 -0.075820 0.000000
# 6 0.000000 0.000000 0.000000 0.000000 0.000000 0.044014
#
#
# Mechanical properties :
#
#
# Convention : Reuss Voigt Hill
#
# Bulk Modulus (GPa) = 45.20595 66.88542 56.04568
# Shear Modulus (GPa) = -175.76626 11.99482 -81.88572
#
# Velocity S-wave (km/s) = -9.57890 2.50233 -6.53811
# Velocity P-wave (km/s) = 9.93688 6.57762 5.26671
#
# Compressibility (1/GPa) = 0.02212098
#
# Stress axis : x y z
#
# Youngs Moduli (GPa) = 96.53626 96.53626 38.10158
#
# Poissons Ratio (x) = 0.42822 0.15213
# Poissons Ratio (y) = 0.42822 0.15213
# Poissons Ratio (z) = 0.38543 0.38543
#
# Static dielectric constant tensor:
#      x y z
#    x 1.712270 0.000000 0.000000 
#    y 0.000000 1.712270 0.000000 
#    z 0.000000 0.000000 1.714870 
# 
# From -- ./inp_files/4830.got.cif
#   From: 2010.05.17/outbox.cif.g08.bks.cpg/sg91_3_cif.got.tgz:4830.got - 2010.06.03 19:20:03.
