data_PCOD9547980
_publ_section_title
;
Structure prediction by ZEFSAII (Michael W. Deem and Ramdas Pophale) SiO2 
 PCOD9547980
Probable space group: P 41 2 2
;
_chemical_formula_sum "Si O2"
_cell_formula_units_Z 28
_cell_length_a 8.994303
_cell_length_b 8.994303
_cell_length_c 14.651978
_cell_angle_alpha 90.000000
_cell_angle_beta 90.000000
_cell_angle_gamma 90.000000
_cell_volume 1185.308192
_symmetry_space_group_name_H-M "P 41 2 2"
_symmetry_group_IT_number 91
_symmetry_cell_setting 'tetragonal'
loop_
_space_group_symop_operation_xyz
x,y,z
-y,x,1/4+z
-x,-y,1/2+z
y,-x,3/4+z
x,-y,1/2-z
-x,y,-z
y,x,3/4-z
-y,-x,1/4-z
loop_
_atom_site_type_symbol
_atom_site_label
_atom_site_fract_x
_atom_site_fract_y
_atom_site_fract_z
Si Si1 0.421164 0.500000 0.250000
Si Si2 0.046528 0.808743 0.347815
Si Si3 0.049328 0.718222 0.141432
Si Si4 0.790710 0.452002 0.923697
O O1 0.513408 0.656535 0.244523
O O2 0.309774 0.529499 0.333042
O O3 0.024319 0.725723 0.250783
O O4 0.124761 0.703793 0.422384
O O5 0.173872 0.934582 0.341369
O O6 0.897795 0.897795 0.375000
O O7 0.209956 0.790045 0.125000
O O8 0.070456 0.562112 0.093599
#
# Coordination Sequence:
#
# PCOD9547980 Si02
#       4
#     4   8   8   8
#     4  10  20  38  74 102 124 172 242 286 330 398
#     4  11  23  39  64 100 138 179 226 277 344 415
#     4  11  20  40  68  94 132 185 230 274 340 421
#     4  11  20  42  69 100 133 179 232 285 342 407
#
# _framework density 23.622551000000001
#
# number of rings (size 3 to 8) (size 9 to 14) (size 15 to 20)
#    0.000    1.143    5.714    3.429    0.000    0.000 
#    5.143   11.429   12.571    0.000    0.000    0.000 
#    0.000    0.000    0.000    0.000    0.000    0.000 
#
# Total GULP energy -156087.537877 kJ/mol
# GULP energy per Si atom -5574.554924 kJ/mol
# Density = 2.356878 g / cm^3
# Si number density = 23.622551 Si / 1000 Ang^3
#
#
#
# Elastic Constant Matrix: (Units=GPa)
#
#
# Indices 1 2 3 4 5 6 
#
# 1 115.8921 46.4480 31.0986 0.0000 0.0000 0.0000
# 2 46.4480 115.8931 31.0988 0.0000 0.0000 0.0000
# 3 31.0986 31.0988 81.8397 0.0000 0.0000 0.0000
# 4 0.0000 0.0000 0.0000 23.2066 0.0000 0.0000
# 5 0.0000 0.0000 0.0000 0.0000 23.2059 0.0000
# 6 0.0000 0.0000 0.0000 0.0000 0.0000 34.8443
#
#
#
# Elastic Compliance Matrix: (Units=1/GPa)
#
#
# Indices 1 2 3 4 5 6 
#
# 1 0.010805 -0.003595 -0.002740 0.000000 0.000000 0.000000
# 2 -0.003595 0.010805 -0.002740 0.000000 0.000000 0.000000
# 3 -0.002740 -0.002740 0.014301 0.000000 0.000000 0.000000
# 4 0.000000 0.000000 0.000000 0.043091 0.000000 0.000000
# 5 0.000000 0.000000 0.000000 0.000000 0.043092 0.000000
# 6 0.000000 0.000000 0.000000 0.000000 0.000000 0.028699
#
#
# Mechanical properties :
#
#
# Convention : Reuss Voigt Hill
#
# Bulk Modulus (GPa) = 56.30074 58.99063 57.64569
# Shear Modulus (GPa) = 28.59388 29.91667 29.25528
#
# Velocity S-wave (km/s) = 3.48292 3.56258 3.52298
# Velocity P-wave (km/s) = 6.32926 6.47680 6.40346
#
# Compressibility (1/GPa) = 0.01776176
#
# Stress axis : x y z
#
# Youngs Moduli (GPa) = 92.55165 92.55240 69.92490
#
# Poissons Ratio (x) = 0.33275 0.19156
# Poissons Ratio (y) = 0.33274 0.19156
# Poissons Ratio (z) = 0.25355 0.25355
#
# Static dielectric constant tensor:
#      x y z
#    x 1.917980 0.000000 0.000000 
#    y 0.000000 1.917970 0.000000 
#    z 0.000000 0.000000 2.323690 
# 
# From -- ./inp_files/5262.got.cif
#   From: 2010.05.17/outbox.cif.g08.bks.cpg/sg91_3_cif.got.tgz:5262.got - 2010.06.03 19:20:03.
