data_PCOD9547992
_publ_section_title
;
Structure prediction by ZEFSAII (Michael W. Deem and Ramdas Pophale) SiO2 
 PCOD9547992
Probable space group: P 41 2 2
;
_chemical_formula_sum "Si O2"
_cell_formula_units_Z 64
_cell_length_a 11.596107
_cell_length_b 11.596107
_cell_length_c 24.899144
_cell_angle_alpha 90.000000
_cell_angle_beta 90.000000
_cell_angle_gamma 90.000000
_cell_volume 3348.180363
_symmetry_space_group_name_H-M "P 41 2 2"
_symmetry_group_IT_number 91
_symmetry_cell_setting 'tetragonal'
loop_
_space_group_symop_operation_xyz
x,y,z
-y,x,1/4+z
-x,-y,1/2+z
y,-x,3/4+z
x,-y,1/2-z
-x,y,-z
y,x,3/4-z
-y,-x,1/4-z
loop_
_atom_site_type_symbol
_atom_site_label
_atom_site_fract_x
_atom_site_fract_y
_atom_site_fract_z
Si Si1 0.122881 0.694421 0.973859
Si Si2 0.533995 0.500661 0.060002
Si Si3 0.512335 0.188404 0.686656
Si Si4 0.680064 0.130141 0.478253
Si Si5 0.609686 0.124763 0.039524
Si Si6 0.074302 0.526113 0.590314
Si Si7 0.633492 0.262224 0.225802
Si Si8 0.243301 0.544923 0.179090
O O1 0.204007 0.802849 0.962829
O O2 0.105196 0.607067 0.924089
O O3 0.180180 0.610934 0.018536
O O4 0.000000 0.727524 0.000000
O O5 0.517231 0.482770 0.125000
O O6 0.667041 0.465352 0.055874
O O7 0.479756 0.626646 0.053592
O O8 0.500000 0.443414 0.000000
O O9 0.406242 0.258279 0.712174
O O10 0.564544 0.242332 0.633777
O O11 0.470309 0.061480 0.671051
O O12 0.574476 0.175430 0.441464
O O13 0.641058 0.176741 0.536892
O O14 0.679668 0.992155 0.474900
O O15 0.562600 0.109277 0.100053
O O16 0.683734 0.241765 0.034199
O O17 0.500000 0.130745 0.000000
O O18 0.135695 0.613403 0.548717
#
# Coordination Sequence:
#
# PCOD9547992 Si02
#       8
#     8   8   8   8   8   8   8   8
#     4   9  21  38  62  89 119 156 208 262 313 377
#     4  12  24  37  55  92 128 159 203 261 336 388
#     4  10  20  39  63  91 120 168 206 256 325 393
#     4  11  21  38  59  87 122 161 206 252 320 374
#     4  12  23  41  58  88 127 168 208 259 323 389
#     4  10  20  40  63  86 120 163 215 260 319 383
#     4  11  24  38  58  88 124 168 210 269 311 380
#     4  11  21  36  61  89 121 160 201 252 321 400
#
# _framework density 19.114861000000001
#
# number of rings (size 3 to 8) (size 9 to 14) (size 15 to 20)
#    0.000    1.250    3.750    4.875    1.750    2.000 
#    0.000    1.250    0.000    0.000    0.000    0.000 
#    0.000    0.000    0.000    0.000    0.000    0.000 
#
# Total GULP energy -356540.318973 kJ/mol
# GULP energy per Si atom -5570.942484 kJ/mol
# Density = 1.907135 g / cm^3
# Si number density = 19.114861 Si / 1000 Ang^3
#
#
#
# Elastic Constant Matrix: (Units=GPa)
#
#
# Indices 1 2 3 4 5 6 
#
# 1 66.8603 45.3498 23.0476 0.0000 0.0000 0.0000
# 2 45.3498 66.8591 23.0475 0.0000 0.0000 0.0000
# 3 23.0476 23.0475 129.1247 0.0000 0.0000 0.0000
# 4 0.0000 0.0000 0.0000 14.5725 0.0000 0.0000
# 5 0.0000 0.0000 0.0000 0.0000 14.5725 0.0000
# 6 0.0000 0.0000 0.0000 0.0000 0.0000 27.7584
#
#
#
# Elastic Compliance Matrix: (Units=1/GPa)
#
#
# Indices 1 2 3 4 5 6 
#
# 1 0.028053 -0.018437 -0.001717 0.000000 0.000000 0.000000
# 2 -0.018437 0.028054 -0.001717 0.000000 0.000000 0.000000
# 3 -0.001717 -0.001717 0.008357 0.000000 0.000000 0.000000
# 4 0.000000 0.000000 0.000000 0.068622 0.000000 0.000000
# 5 0.000000 0.000000 0.000000 0.000000 0.068622 0.000000
# 6 0.000000 0.000000 0.000000 0.000000 0.000000 0.036025
#
#
# Mechanical properties :
#
#
# Convention : Reuss Voigt Hill
#
# Bulk Modulus (GPa) = 48.25063 49.52600 48.88832
# Shear Modulus (GPa) = 17.33809 22.80729 20.07269
#
# Velocity S-wave (km/s) = 3.01499 3.45798 3.24405
# Velocity P-wave (km/s) = 6.11698 6.47375 6.29789
#
# Compressibility (1/GPa) = 0.02072512
#
# Stress axis : x y z
#
# Youngs Moduli (GPa) = 35.64620 35.64555 119.65690
#
# Poissons Ratio (x) = 0.65719 0.20539
# Poissons Ratio (y) = 0.65720 0.20540
# Poissons Ratio (z) = 0.06119 0.06119
#
# Static dielectric constant tensor:
#      x y z
#    x 1.695850 0.000000 0.000000 
#    y 0.000000 1.695850 0.000000 
#    z 0.000000 0.000000 1.728250 
# 
# From -- ./inp_files/7040.got.cif
#   From: 2010.05.17/outbox.cif.g08.bks.cpg/sg91_4_cif.got.tgz:7040.got - 2010.06.03 19:20:03.
