data_PCOD9547276
_publ_section_title
;
Structure prediction by ZEFSAII (Michael W. Deem and Ramdas Pophale) SiO2 
 PCOD9547276
Probable space group: P 4 21 2
;
_chemical_formula_sum "Si O2"
_cell_formula_units_Z 56
_cell_length_a 14.303840
_cell_length_b 14.303840
_cell_length_c 14.052526
_cell_angle_alpha 90.000000
_cell_angle_beta 90.000000
_cell_angle_gamma 90.000000
_cell_volume 2875.144554
_symmetry_space_group_name_H-M "P 4 21 2"
_symmetry_group_IT_number 90
_symmetry_cell_setting 'tetragonal'
loop_
_space_group_symop_operation_xyz
x,y,z
1/2-y,1/2+x,z
-x,-y,z
1/2+y,1/2-x,z
1/2+x,1/2-y,-z
1/2-x,1/2+y,-z
y,x,-z
-y,-x,-z
loop_
_atom_site_type_symbol
_atom_site_label
_atom_site_fract_x
_atom_site_fract_y
_atom_site_fract_z
Si Si1 0.219261 0.327537 0.929013
Si Si2 0.920442 0.367816 0.105876
Si Si3 0.843637 0.503866 0.618602
Si Si4 0.655638 0.997685 0.605240
Si Si5 0.872693 0.878734 0.108724
Si Si6 0.292865 0.460486 0.231771
Si Si7 0.553213 0.688954 0.232389
O O1 0.176432 0.226506 0.901025
O O2 0.245887 0.385806 0.837441
O O3 0.305753 0.305753 0.000000
O O4 0.153868 0.389379 0.998214
O O5 0.878095 0.469087 0.124434
O O6 0.895639 0.282666 0.175401
O O7 0.907424 0.412218 0.636878
O O8 0.820042 0.500706 0.506398
O O9 0.752700 0.513466 0.683216
O O10 0.590884 0.088633 0.623228
O O11 0.741791 0.998796 0.676047
O O12 0.956504 0.824658 0.161104
O O13 0.852308 0.970238 0.169223
O O14 0.900317 0.900317 0.000000
O O15 0.379444 0.395923 0.261455
#
# Coordination Sequence:
#
# PCOD9547276 Si02
#       7
#     8   8   8   8   8   8   8
#     4  11  21  39  59  87 121 164 217 270 315 378
#     4  11  22  37  59  88 121 161 214 277 325 366
#     4   9  20  43  69  95 126 160 209 276 338 392
#     4   9  20  40  69  97 124 160 206 272 344 391
#     4  11  26  42  61  87 131 177 220 262 323 387
#     4  12  24  38  61  91 131 171 217 261 322 402
#     4  12  24  38  62  91 125 171 217 256 321 390
#
# _framework density 19.477281000000001
#
# number of rings (size 3 to 8) (size 9 to 14) (size 15 to 20)
#    0.000    1.286    1.429    6.429    2.000    2.286 
#    0.000    2.143    0.000    1.714    0.000    0.000 
#    0.000    0.000    0.000    0.000    0.000    0.000 
#
# Total GULP energy -312830.908752 kJ/mol
# GULP energy per Si atom -5586.266228 kJ/mol
# Density = 1.943295 g / cm^3
# Si number density = 19.477281 Si / 1000 Ang^3
#
#
#
# Elastic Constant Matrix: (Units=GPa)
#
#
# Indices 1 2 3 4 5 6 
#
# 1 81.8895 36.8751 54.4340 0.0000 0.0000 0.0000
# 2 36.8751 81.8895 54.4340 0.0000 0.0000 0.0000
# 3 54.4340 54.4340 112.4010 0.0000 0.0000 0.0000
# 4 0.0000 0.0000 0.0000 34.2619 0.0000 0.0000
# 5 0.0000 0.0000 0.0000 0.0000 34.2619 0.0000
# 6 0.0000 0.0000 0.0000 0.0000 0.0000 20.7766
#
#
#
# Elastic Compliance Matrix: (Units=1/GPa)
#
#
# Indices 1 2 3 4 5 6 
#
# 1 0.018679 -0.003537 -0.007333 0.000000 0.000000 0.000000
# 2 -0.003537 0.018679 -0.007333 0.000000 0.000000 0.000000
# 3 -0.007333 -0.007333 0.015999 0.000000 0.000000 0.000000
# 4 0.000000 0.000000 0.000000 0.029187 0.000000 0.000000
# 5 0.000000 0.000000 0.000000 0.000000 0.029187 0.000000
# 6 0.000000 0.000000 0.000000 0.000000 0.000000 0.048131
#
#
# Mechanical properties :
#
#
# Convention : Reuss Voigt Hill
#
# Bulk Modulus (GPa) = 58.99310 63.07401 61.03356
# Shear Modulus (GPa) = 24.76267 26.55588 25.65928
#
# Velocity S-wave (km/s) = 3.56948 3.69647 3.63353
# Velocity P-wave (km/s) = 6.88057 7.11844 7.00051
#
# Compressibility (1/GPa) = 0.01695113
#
# Stress axis : x y z
#
# Youngs Moduli (GPa) = 53.53736 53.53736 62.50293
#
# Poissons Ratio (x) = 0.18934 0.45834
# Poissons Ratio (y) = 0.18934 0.45834
# Poissons Ratio (z) = 0.39259 0.39259
#
# Static dielectric constant tensor:
#      x y z
#    x 1.708830 0.000000 0.000000 
#    y 0.000000 1.708830 0.000000 
#    z 0.000000 0.000000 1.671610 
# 
# From -- ./inp_files/2239.got.cif
#   From: 2010.05.17/outbox.cif.g08.bks.cpg/sg90_2_cif.got.tgz:2239.got - 2010.06.03 19:17:45.
