data_PCOD9547586
_publ_section_title
;
Structure prediction by ZEFSAII (Michael W. Deem and Ramdas Pophale) SiO2 
 PCOD9547586
Probable space group: P 41 2 2
;
_chemical_formula_sum "Si O2"
_cell_formula_units_Z 40
_cell_length_a 12.359930
_cell_length_b 12.359930
_cell_length_c 13.293824
_cell_angle_alpha 90.000000
_cell_angle_beta 90.000000
_cell_angle_gamma 90.000000
_cell_volume 2030.869171
_symmetry_space_group_name_H-M "P 41 2 2"
_symmetry_group_IT_number 91
_symmetry_cell_setting 'tetragonal'
loop_
_space_group_symop_operation_xyz
x,y,z
-y,x,1/4+z
-x,-y,1/2+z
y,-x,3/4+z
x,-y,1/2-z
-x,y,-z
y,x,3/4-z
-y,-x,1/4-z
loop_
_atom_site_type_symbol
_atom_site_label
_atom_site_fract_x
_atom_site_fract_y
_atom_site_fract_z
Si Si1 0.588954 0.936741 0.911694
Si Si2 0.611670 0.835738 0.701333
Si Si3 0.216278 0.383837 0.919716
Si Si4 0.783359 0.828373 0.169996
Si Si5 0.963813 0.744349 0.307636
O O1 0.603599 0.851621 0.821560
O O2 0.578518 0.050927 0.852534
O O3 0.500000 0.917368 0.000000
O O4 0.698577 0.956749 0.972345
O O5 0.510840 0.761142 0.669582
O O6 0.729624 0.804500 0.658287
O O7 0.314745 0.314745 0.875000
O O8 0.108819 0.351198 0.856237
O O9 0.190409 0.334193 0.029714
O O10 0.872410 0.816395 0.257319
O O11 0.793348 0.950026 0.132384
#
# Coordination Sequence:
#
# PCOD9547586 Si02
#       5
#     8   8   8   8   8
#     4  10  18  32  61  83 117 153 192 267 288 339
#     4  10  21  35  57  96 114 149 212 247 306 350
#     4  10  20  35  62  90 117 155 201 255 304 355
#     4  10  22  36  62  87 120 159 199 251 300 363
#     4  10  20  36  58  85 120 157 201 241 302 361
#
# _framework density 19.695999
#
# number of rings (size 3 to 8) (size 9 to 14) (size 15 to 20)
#    0.000    2.000    2.000    1.800    2.800    0.800 
#    0.000    0.000   79.200    0.000   20.800    0.000 
#    0.000    0.000    0.000    0.000    0.000    0.000 
#
# Total GULP energy -222799.510582 kJ/mol
# GULP energy per Si atom -5569.987765 kJ/mol
# Density = 1.965117 g / cm^3
# Si number density = 19.695999 Si / 1000 Ang^3
#
#
#
# Elastic Constant Matrix: (Units=GPa)
#
#
# Indices 1 2 3 4 5 6 
#
# 1 62.0019 10.5310 13.2432 0.0000 0.0000 0.0000
# 2 10.5310 62.0019 13.2432 0.0000 0.0000 0.0000
# 3 13.2432 13.2432 97.9903 0.0000 0.0000 0.0000
# 4 0.0000 0.0000 0.0000 13.6287 0.0000 0.0000
# 5 0.0000 0.0000 0.0000 0.0000 13.6287 0.0000
# 6 0.0000 0.0000 0.0000 0.0000 0.0000 8.4088
#
#
#
# Elastic Compliance Matrix: (Units=1/GPa)
#
#
# Indices 1 2 3 4 5 6 
#
# 1 0.016966 -0.002463 -0.001960 0.000000 0.000000 0.000000
# 2 -0.002463 0.016966 -0.001960 0.000000 0.000000 0.000000
# 3 -0.001960 -0.001960 0.010735 0.000000 0.000000 0.000000
# 4 0.000000 0.000000 0.000000 0.073375 0.000000 0.000000
# 5 0.000000 0.000000 0.000000 0.000000 0.073375 0.000000
# 6 0.000000 0.000000 0.000000 0.000000 0.000000 0.118922
#
#
# Mechanical properties :
#
#
# Convention : Reuss Voigt Hill
#
# Bulk Modulus (GPa) = 31.34791 32.89207 32.11999
# Shear Modulus (GPa) = 14.98187 19.46503 17.22345
#
# Velocity S-wave (km/s) = 2.76099 3.14709 2.96034
# Velocity P-wave (km/s) = 5.11024 5.47190 5.29416
#
# Compressibility (1/GPa) = 0.03190006
#
# Stress axis : x y z
#
# Youngs Moduli (GPa) = 58.94312 58.94312 93.15442
#
# Poissons Ratio (x) = 0.14517 0.18258
# Poissons Ratio (y) = 0.14517 0.18258
# Poissons Ratio (z) = 0.11553 0.11553
#
# Static dielectric constant tensor:
#      x y z
#    x 1.722410 0.000000 0.000000 
#    y 0.000000 1.722410 0.000000 
#    z 0.000000 0.000000 1.807340 
# 
# From -- ./inp_files/4695.got.cif
#   From: 2010.05.17/outbox.cif.g08.bks.cpg/sg91_3_cif.got.tgz:4695.got - 2010.06.03 19:20:03.
