data_PCOD9547378
_publ_section_title
;
Structure prediction by ZEFSAII (Michael W. Deem and Ramdas Pophale) SiO2 
 PCOD9547378
Probable space group: P 4 21 2
;
_chemical_formula_sum "Si O2"
_cell_formula_units_Z 40
_cell_length_a 8.279886
_cell_length_b 8.279886
_cell_length_c 24.674669
_cell_angle_alpha 90.000000
_cell_angle_beta 90.000000
_cell_angle_gamma 90.000000
_cell_volume 1691.609246
_symmetry_space_group_name_H-M "P 4 21 2"
_symmetry_group_IT_number 90
_symmetry_cell_setting 'tetragonal'
loop_
_space_group_symop_operation_xyz
x,y,z
1/2-y,1/2+x,z
-x,-y,z
1/2+y,1/2-x,z
1/2+x,1/2-y,-z
1/2-x,1/2+y,-z
y,x,-z
-y,-x,-z
loop_
_atom_site_type_symbol
_atom_site_label
_atom_site_fract_x
_atom_site_fract_y
_atom_site_fract_z
Si Si1 0.543368 0.735849 0.634685
Si Si2 0.913447 0.759471 0.052156
Si Si3 0.428978 0.262028 0.450726
Si Si4 0.956895 0.764114 0.239618
Si Si5 0.424056 0.738821 0.154015
O O1 0.376873 0.825477 0.620329
O O2 0.633569 0.592767 0.603705
O O3 0.500094 0.701177 0.697533
O O4 0.803158 0.597090 0.051725
O O5 0.872828 0.863672 0.105035
O O6 0.863112 0.863112 0.000000
O O7 0.607014 0.188865 0.453683
O O8 0.375799 0.375799 0.500000
O O9 0.123271 0.674505 0.225290
O O10 0.865947 0.906363 0.208518
O O11 0.603553 0.809205 0.150682
#
# Coordination Sequence:
#
# PCOD9547378 Si02
#       5
#     8   8   8   8   8
#     4   9  19  39  63  91 126 164 212 267 321 384
#     4  11  24  41  64  97 135 175 224 279 335 400
#     4  11  24  41  65 100 138 175 219 270 326 393
#     4   9  19  39  63  89 121 163 217 271 323 385
#     4  11  24  41  63  95 134 176 224 276 331 396
#
# _framework density 23.646121000000001
#
# number of rings (size 3 to 8) (size 9 to 14) (size 15 to 20)
#    0.000    1.800    0.000    4.800    0.000   12.800 
#    0.000   20.000    0.000    9.600    0.000    0.000 
#    0.000    0.000    0.000    0.000    0.000    0.000 
#
# Total GULP energy -223336.278370 kJ/mol
# GULP energy per Si atom -5583.406959 kJ/mol
# Density = 2.359230 g / cm^3
# Si number density = 23.646121 Si / 1000 Ang^3
#
#
#
# Elastic Constant Matrix: (Units=GPa)
#
#
# Indices 1 2 3 4 5 6 
#
# 1 100.6689 88.7857 44.6479 0.0000 0.0000 0.0000
# 2 88.7857 100.6689 44.6479 0.0000 0.0000 0.0000
# 3 44.6479 44.6479 72.3530 0.0000 0.0000 0.0000
# 4 0.0000 0.0000 0.0000 76.7876 0.0000 0.0000
# 5 0.0000 0.0000 0.0000 0.0000 76.7876 0.0000
# 6 0.0000 0.0000 0.0000 0.0000 0.0000 102.0305
#
#
#
# Elastic Compliance Matrix: (Units=1/GPa)
#
#
# Indices 1 2 3 4 5 6 
#
# 1 0.045798 -0.038355 -0.004593 0.000000 0.000000 0.000000
# 2 -0.038355 0.045798 -0.004593 0.000000 0.000000 0.000000
# 3 -0.004593 -0.004593 0.019490 0.000000 0.000000 0.000000
# 4 0.000000 0.000000 0.000000 0.013023 0.000000 0.000000
# 5 0.000000 0.000000 0.000000 0.000000 0.013023 0.000000
# 6 0.000000 0.000000 0.000000 0.000000 0.000000 0.009801
#
#
# Mechanical properties :
#
#
# Convention : Reuss Voigt Hill
#
# Bulk Modulus (GPa) = 62.48508 69.98377 66.23442
# Shear Modulus (GPa) = 20.21436 57.49510 38.85473
#
# Velocity S-wave (km/s) = 2.92699 4.93635 4.05801
# Velocity P-wave (km/s) = 6.15674 7.88357 7.07305
#
# Compressibility (1/GPa) = 0.01600382
#
# Stress axis : x y z
#
# Youngs Moduli (GPa) = 21.83503 21.83503 51.30910
#
# Poissons Ratio (x) = 0.83748 0.23567
# Poissons Ratio (y) = 0.83748 0.23567
# Poissons Ratio (z) = 0.10029 0.10029
#
# Static dielectric constant tensor:
#      x y z
#    x 1.881380 0.000000 0.000000 
#    y 0.000000 1.881380 0.000000 
#    z 0.000000 0.000000 1.911880 
# 
# From -- ./inp_files/2885.got.cif
#   From: 2010.05.17/outbox.cif.g08.bks.cpg/sg90_2_cif.got.tgz:2885.got - 2010.06.03 19:17:45.
