data_PCOD9547725
_publ_section_title
;
Structure prediction by ZEFSAII (Michael W. Deem and Ramdas Pophale) SiO2 
 PCOD9547725
Probable space group: P 41 2 2
;
_chemical_formula_sum "Si O2"
_cell_formula_units_Z 64
_cell_length_a 10.934165
_cell_length_b 10.934165
_cell_length_c 25.981295
_cell_angle_alpha 90.000000
_cell_angle_beta 90.000000
_cell_angle_gamma 90.000000
_cell_volume 3106.218776
_symmetry_space_group_name_H-M "P 41 2 2"
_symmetry_group_IT_number 91
_symmetry_cell_setting 'tetragonal'
loop_
_space_group_symop_operation_xyz
x,y,z
-y,x,1/4+z
-x,-y,1/2+z
y,-x,3/4+z
x,-y,1/2-z
-x,y,-z
y,x,3/4-z
-y,-x,1/4-z
loop_
_atom_site_type_symbol
_atom_site_label
_atom_site_fract_x
_atom_site_fract_y
_atom_site_fract_z
Si Si1 0.793010 0.028418 0.003263
Si Si2 0.856399 0.060865 0.678053
Si Si3 0.906017 0.221244 0.078470
Si Si4 0.222318 0.876057 0.907832
Si Si5 0.221570 0.391179 0.712316
Si Si6 0.214954 0.403615 0.598102
Si Si7 0.402031 0.947056 0.194517
Si Si8 0.576389 0.783598 0.257913
O O1 0.883346 0.112646 0.037745
O O2 0.715751 0.954096 0.046475
O O3 0.709826 0.113704 0.966943
O O4 0.868770 0.935538 0.969203
O O5 0.922185 0.077816 0.625000
O O6 0.720306 0.116167 0.674762
O O7 0.853397 0.914391 0.680463
O O8 0.810585 0.189416 0.125000
O O9 0.870145 0.339122 0.044702
O O10 0.038065 0.223992 0.106767
O O11 0.261841 0.736835 0.900429
O O12 0.188873 0.500000 0.750000
O O13 0.241401 0.446192 0.655749
O O14 0.339997 0.320892 0.734017
O O15 0.264695 0.474791 0.548294
O O16 0.066992 0.419218 0.590491
O O17 0.513285 0.861099 0.211797
O O18 0.361104 0.000000 0.250000
#
# Coordination Sequence:
#
# PCOD9547725 Si02
#       8
#     8   8   8   8   8   8   8   8
#     4  10  19  34  56  87 128 158 196 249 313 384
#     4  11  19  31  57  86 128 167 191 237 303 391
#     4   9  20  34  58  93 126 158 201 255 313 373
#     4  10  20  34  56  97 127 161 195 236 322 389
#     4  11  26  42  60  91 120 169 218 274 329 372
#     4  10  22  38  62  89 128 163 210 260 318 388
#     4   9  19  37  59  91 119 163 204 246 308 384
#     4  10  22  41  67  87 120 169 224 263 314 381
#
# _framework density 20.603829999999999
#
# number of rings (size 3 to 8) (size 9 to 14) (size 15 to 20)
#    0.000    2.000    0.000    5.250    5.250    4.000 
#    0.000   12.500    2.750    1.500    0.000    0.000 
#    0.000    0.000    0.000    0.000    0.000    0.000 
#
# Total GULP energy -356820.903061 kJ/mol
# GULP energy per Si atom -5575.326610 kJ/mol
# Density = 2.055693 g / cm^3
# Si number density = 20.603830 Si / 1000 Ang^3
#
#
#
# Elastic Constant Matrix: (Units=GPa)
#
#
# Indices 1 2 3 4 5 6 
#
# 1 60.4097 2.4746 5.6015 0.0000 0.0000 0.0000
# 2 2.4746 60.4099 5.6019 0.0000 0.0000 0.0000
# 3 5.6015 5.6019 74.6502 0.0000 0.0000 0.0000
# 4 0.0000 0.0000 0.0000 -0.2536 0.0000 0.0000
# 5 0.0000 0.0000 0.0000 0.0000 -0.2610 0.0000
# 6 0.0000 0.0000 0.0000 0.0000 0.0000 15.0072
#
#
#
# Elastic Compliance Matrix: (Units=1/GPa)
#
#
# Indices 1 2 3 4 5 6 
#
# 1 0.016689 -0.000572 -0.001209 0.000000 0.000000 0.000000
# 2 -0.000572 0.016689 -0.001210 0.000000 0.000000 0.000000
# 3 -0.001209 -0.001210 0.013577 0.000000 0.000000 0.000000
# 4 0.000000 0.000000 0.000000 -3.943387 0.000000 0.000000
# 5 0.000000 0.000000 0.000000 0.000000 -3.831819 0.000000
# 6 0.000000 0.000000 0.000000 0.000000 0.000000 0.066635
#
#
# Mechanical properties :
#
#
# Convention : Reuss Voigt Hill
#
# Bulk Modulus (GPa) = 24.40523 24.75843 24.58183
# Shear Modulus (GPa) = -0.65428 15.01797 7.18185
#
# Velocity S-wave (km/s) = -0.56413 2.70273 1.86902
# Velocity P-wave (km/s) = 3.38325 4.66714 4.07606
#
# Compressibility (1/GPa) = 0.04097482
#
# Stress axis : x y z
#
# Youngs Moduli (GPa) = 59.91908 59.91917 73.65218
#
# Poissons Ratio (x) = 0.03424 0.08908
# Poissons Ratio (y) = 0.03424 0.08908
# Poissons Ratio (z) = 0.07247 0.07247
#
# Static dielectric constant tensor:
#      x y z
#    x 1.826080 0.000000 0.000000 
#    y 0.000000 1.826090 0.000000 
#    z 0.000000 0.000000 1.775100 
# 
# From -- ./inp_files/12962.got.cif
#   From: 2010.05.17/outbox.cif.g08.bks.cpg/sg91_7_cif.got.tgz:12962.got - 2010.06.03 19:20:03.
