data_PCOD9547439
_publ_section_title
;
Structure prediction by ZEFSAII (Michael W. Deem and Ramdas Pophale) SiO2 
 PCOD9547439
Probable space group: P 4 21 2
;
_chemical_formula_sum "Si O2"
_cell_formula_units_Z 50
_cell_length_a 8.466106
_cell_length_b 8.466106
_cell_length_c 32.855869
_cell_angle_alpha 90.000000
_cell_angle_beta 90.000000
_cell_angle_gamma 90.000000
_cell_volume 2354.942794
_symmetry_space_group_name_H-M "P 4 21 2"
_symmetry_group_IT_number 90
_symmetry_cell_setting 'tetragonal'
loop_
_space_group_symop_operation_xyz
x,y,z
1/2-y,1/2+x,z
-x,-y,z
1/2+y,1/2-x,z
1/2+x,1/2-y,-z
1/2-x,1/2+y,-z
y,x,-z
-y,-x,-z
loop_
_atom_site_type_symbol
_atom_site_label
_atom_site_fract_x
_atom_site_fract_y
_atom_site_fract_z
Si Si1 0.753735 0.586305 0.534801
Si Si2 0.000000 0.500000 0.396525
Si Si3 0.163504 0.913358 0.618472
Si Si4 0.250823 0.902392 0.037849
Si Si5 0.623656 0.761223 0.213248
Si Si6 0.771181 0.639502 0.698427
Si Si7 0.109943 0.745334 0.873773
O O1 0.807334 0.408065 0.529172
O O2 0.632005 0.632005 0.500000
O O3 0.693273 0.618143 0.579952
O O4 0.807367 0.475366 0.395236
O O5 0.203750 0.824549 0.660413
O O6 0.000000 0.000000 0.628194
O O7 0.414894 0.803555 0.035818
O O8 0.176428 0.864053 0.082315
O O9 0.144287 0.855714 0.000000
O O10 0.435464 0.796762 0.213274
O O11 0.670296 0.693382 0.257168
O O12 0.653853 0.678197 0.169744
O O13 0.792398 0.449260 0.696155
O O14 0.199223 0.575930 0.873729
#
# Coordination Sequence:
#
# PCOD9547439 Si02
#       7
#     8   2   8   8   8   8   8
#     4  11  27  45  69  99 131 169 212 262 315 372
#     4  12  28  44  72 100 132 176 220 260 312 384
#     4  12  26  44  67  96 130 173 214 261 314 368
#     4   9  17  28  43  67  95 129 172 224 277 338
#     4   7  10  18  39  73 105 137 173 228 292 346
#     4   9  16  30  55  88 125 155 195 248 306 367
#     4   7  10  19  36  63  97 125 167 224 282 334
#
# _framework density 21.231940000000002
#
# number of rings (size 3 to 8) (size 9 to 14) (size 15 to 20)
#    0.000    2.720    0.000    5.760    4.480    1.600 
#    0.000    0.000    0.000    0.000   20.800    0.000 
#    0.000    0.000    0.000    0.000    0.000    0.000 
#
# Total GULP energy -278346.512508 kJ/mol
# GULP energy per Si atom -5566.930250 kJ/mol
# Density = 2.118362 g / cm^3
# Si number density = 21.231940 Si / 1000 Ang^3
#
#
#
# Elastic Constant Matrix: (Units=GPa)
#
#
# Indices 1 2 3 4 5 6 
#
# 1 1191.0446-1154.8136 9.1276 0.0000 0.0000 0.0000
# 2 -1154.8136 1191.0443 9.1274 0.0000 0.0000 0.0000
# 3 9.1276 9.1274 141.9569 0.0000 0.0000 0.0000
# 4 0.0000 0.0000 0.0000 27.7349 0.0000 0.0000
# 5 0.0000 0.0000 0.0000 0.0000 27.7349 0.0000
# 6 0.0000 0.0000 0.0000 0.0000 0.0000 -0.0515
#
#
#
# Elastic Compliance Matrix: (Units=1/GPa)
#
#
# Indices 1 2 3 4 5 6 
#
# 1 0.014476 0.014049 -0.001834 0.000000 0.000000 0.000000
# 2 0.014049 0.014476 -0.001834 0.000000 0.000000 0.000000
# 3 -0.001834 -0.001834 0.007280 0.000000 0.000000 0.000000
# 4 0.000000 0.000000 0.000000 0.036056 0.000000 0.000000
# 5 0.000000 0.000000 0.000000 0.000000 0.036056 0.000000
# 6 0.000000 0.000000 0.000000 0.000000 0.000000-19.418304
#
#
# Mechanical properties :
#
#
# Convention : Reuss Voigt Hill
#
# Bulk Modulus (GPa) = 17.54581 27.88095 22.71338
# Shear Modulus (GPa) = -0.25891 255.12396 127.43252
#
# Velocity S-wave (km/s) = -0.34958 10.97366 7.75561
# Velocity P-wave (km/s) = 2.84936 13.18036 9.53522
#
# Compressibility (1/GPa) = 0.05699367
#
# Stress axis : x y z
#
# Youngs Moduli (GPa) = 69.08188 69.08186 137.35796
#
# Poissons Ratio (x) = -0.97055 0.25193
# Poissons Ratio (y) = -0.97055 0.25193
# Poissons Ratio (z) = 0.12670 0.12670
#
# Static dielectric constant tensor:
#      x y z
#    x 1.779820 0.000000 0.000000 
#    y 0.000000 1.779820 0.000000 
#    z 0.000000 0.000000 1.846510 
# 
# From -- ./inp_files/3130.got.cif
#   From: 2010.05.17/outbox.cif.g08.bks.cpg/sg90_2_cif.got.tgz:3130.got - 2010.06.03 19:17:45.
