data_PCOD9547150
_publ_section_title
;
Structure prediction by ZEFSAII (Michael W. Deem and Ramdas Pophale) SiO2 
 PCOD9547150
Probable space group: P 4 21 2
;
_chemical_formula_sum "Si O2"
_cell_formula_units_Z 56
_cell_length_a 14.749355
_cell_length_b 14.749355
_cell_length_c 11.574370
_cell_angle_alpha 90.000000
_cell_angle_beta 90.000000
_cell_angle_gamma 90.000000
_cell_volume 2517.928647
_symmetry_space_group_name_H-M "P 4 21 2"
_symmetry_group_IT_number 90
_symmetry_cell_setting 'tetragonal'
loop_
_space_group_symop_operation_xyz
x,y,z
1/2-y,1/2+x,z
-x,-y,z
1/2+y,1/2-x,z
1/2+x,1/2-y,-z
1/2-x,1/2+y,-z
y,x,-z
-y,-x,-z
loop_
_atom_site_type_symbol
_atom_site_label
_atom_site_fract_x
_atom_site_fract_y
_atom_site_fract_z
Si Si1 0.242277 0.260923 0.676463
Si Si2 0.981394 0.099498 0.821062
Si Si3 0.129958 0.429588 0.748299
Si Si4 0.582556 0.663534 0.616647
Si Si5 0.392279 0.629045 0.621265
Si Si6 0.215439 0.667433 0.085812
Si Si7 0.725630 0.032780 0.015373
O O1 0.208121 0.363229 0.701381
O O2 0.340462 0.260931 0.619894
O O3 0.166218 0.208047 0.608066
O O4 0.250346 0.198192 0.789790
O O5 0.063868 0.112343 0.731103
O O6 0.896364 0.096056 0.733204
O O7 0.973827 0.179216 0.914613
O O8 0.000000 0.000000 0.871868
O O9 0.118945 0.535124 0.715716
O O10 0.151811 0.442001 0.884962
O O11 0.608377 0.608377 0.500000
O O12 0.478843 0.695357 0.628929
O O13 0.417464 0.582537 0.500000
O O14 0.287805 0.712196 0.000000
O O15 0.209761 0.561258 0.052561
O O16 0.119326 0.717761 0.066961
#
# Coordination Sequence:
#
# PCOD9547150 Si02
#       7
#     8   8   8   8   8   8   8
#     4  12  26  43  64 101 135 179 224 290 342 404
#     4  10  21  38  65 100 137 175 220 281 342 407
#     4  11  21  39  65  92 126 172 225 280 327 391
#     4  11  22  41  71  97 133 177 224 278 346 412
#     4  11  23  42  69  96 134 176 225 282 344 409
#     4  12  25  44  65  94 137 177 230 283 331 409
#     4  12  23  43  67  95 133 181 232 275 336 408
#
# _framework density 22.240504000000001
#
# number of rings (size 3 to 8) (size 9 to 14) (size 15 to 20)
#    0.000    0.714    5.714    2.143    2.000    0.286 
#    2.571    0.000    0.000    0.429    0.000    0.000 
#    0.000    0.000    0.000    0.000    0.000    0.000 
#
# Total GULP energy -312375.617310 kJ/mol
# GULP energy per Si atom -5578.136023 kJ/mol
# Density = 2.218988 g / cm^3
# Si number density = 22.240504 Si / 1000 Ang^3
#
#
#
# Elastic Constant Matrix: (Units=GPa)
#
#
# Indices 1 2 3 4 5 6 
#
# 1 77.9429 29.5985 7.6803 0.0000 0.0000 0.0000
# 2 29.5985 77.9445 7.6802 0.0000 0.0000 0.0000
# 3 7.6803 7.6802 67.2890 0.0000 0.0000 0.0000
# 4 0.0000 0.0000 0.0000 6.3097 0.0000 0.0000
# 5 0.0000 0.0000 0.0000 0.0000 6.3087 0.0000
# 6 0.0000 0.0000 0.0000 0.0000 0.0000 20.9306
#
#
#
# Elastic Compliance Matrix: (Units=1/GPa)
#
#
# Indices 1 2 3 4 5 6 
#
# 1 0.015069 -0.005616 -0.001079 0.000000 0.000000 0.000000
# 2 -0.005616 0.015069 -0.001079 0.000000 0.000000 0.000000
# 3 -0.001079 -0.001079 0.015108 0.000000 0.000000 0.000000
# 4 0.000000 0.000000 0.000000 0.158485 0.000000 0.000000
# 5 0.000000 0.000000 0.000000 0.000000 0.158512 0.000000
# 6 0.000000 0.000000 0.000000 0.000000 0.000000 0.047777
#
#
# Mechanical properties :
#
#
# Convention : Reuss Voigt Hill
#
# Bulk Modulus (GPa) = 33.67294 34.78826 34.23060
# Shear Modulus (GPa) = 11.48197 18.59097 15.03647
#
# Velocity S-wave (km/s) = 2.27461 2.89434 2.60298
# Velocity P-wave (km/s) = 4.69805 5.18126 4.94556
#
# Compressibility (1/GPa) = 0.02969744
#
# Stress axis : x y z
#
# Youngs Moduli (GPa) = 66.36214 66.36359 66.19196
#
# Poissons Ratio (x) = 0.37269 0.07142
# Poissons Ratio (y) = 0.37268 0.07141
# Poissons Ratio (z) = 0.07160 0.07160
#
# Static dielectric constant tensor:
#      x y z
#    x 1.881050 0.000000 0.000000 
#    y 0.000000 1.881050 0.000000 
#    z 0.000000 0.000000 1.914170 
# 
# From -- ./inp_files/2229.got.cif
#   From: 2010.05.17/outbox.cif.g08.bks.cpg/sg90_2_cif.got.tgz:2229.got - 2010.06.03 19:17:45.
