data_PCOD9547257
_publ_section_title
;
Structure prediction by ZEFSAII (Michael W. Deem and Ramdas Pophale) SiO2 
 PCOD9547257
Probable space group: P 4 21 2
;
_chemical_formula_sum "Si O2"
_cell_formula_units_Z 34
_cell_length_a 12.294095
_cell_length_b 12.294095
_cell_length_c 9.662363
_cell_angle_alpha 90.000000
_cell_angle_beta 90.000000
_cell_angle_gamma 90.000000
_cell_volume 1460.415651
_symmetry_space_group_name_H-M "P 4 21 2"
_symmetry_group_IT_number 90
_symmetry_cell_setting 'tetragonal'
loop_
_space_group_symop_operation_xyz
x,y,z
1/2-y,1/2+x,z
-x,-y,z
1/2+y,1/2-x,z
1/2+x,1/2-y,-z
1/2-x,1/2+y,-z
y,x,-z
-y,-x,-z
loop_
_atom_site_type_symbol
_atom_site_label
_atom_site_fract_x
_atom_site_fract_y
_atom_site_fract_z
Si Si1 0.380678 0.545575 0.856229
Si Si2 0.633502 0.125016 0.612636
Si Si3 0.268500 0.175553 0.315020
Si Si4 0.000000 0.500000 0.065759
Si Si5 0.125104 0.703189 0.953648
O O1 0.500000 0.500000 0.831022
O O2 0.338638 0.605229 0.718599
O O3 0.297655 0.452924 0.900046
O O4 0.387805 0.612196 0.000000
O O5 0.504361 0.147535 0.637766
O O6 0.653030 0.165672 0.454382
O O7 0.722198 0.200883 0.689354
O O8 0.343440 0.141705 0.187149
O O9 0.883788 0.569667 0.053836
O O10 0.231625 0.768376 0.000000
#
# Coordination Sequence:
#
# PCOD9547257 Si02
#       5
#     8   8   8   2   8
#     4  11  23  43  69  99 141 182 225 297 364 434
#     4  10  24  45  65  93 133 176 233 299 356 421
#     4  11  24  42  69  97 129 182 235 288 360 429
#     4  12  28  44  72 112 138 208 240 296 376 446
#     4  12  25  44  70 105 143 185 244 297 364 449
#
# _framework density 23.281041999999999
#
# number of rings (size 3 to 8) (size 9 to 14) (size 15 to 20)
#    0.000    0.941    4.706    2.118    3.294    0.000 
#    0.000    1.176    0.000    0.000    0.000    0.000 
#    0.000    0.000    0.000    0.000    0.000    0.000 
#
# Total GULP energy -189326.071693 kJ/mol
# GULP energy per Si atom -5568.413873 kJ/mol
# Density = 2.322805 g / cm^3
# Si number density = 23.281042 Si / 1000 Ang^3
#
#
#
# Elastic Constant Matrix: (Units=GPa)
#
#
# Indices 1 2 3 4 5 6 
#
# 1 56.5382 86.3489 -7.9886 0.0000 0.0000 0.0000
# 2 86.3489 56.5362 -7.9878 0.0000 0.0000 0.0000
# 3 -7.9886 -7.9878 68.4072 0.0000 0.0000 0.0000
# 4 0.0000 0.0000 0.0000 18.7825 0.0000 0.0000
# 5 0.0000 0.0000 0.0000 0.0000 18.7822 0.0000
# 6 0.0000 0.0000 0.0000 0.0000 0.0000 68.1032
#
#
#
# Elastic Compliance Matrix: (Units=1/GPa)
#
#
# Indices 1 2 3 4 5 6 
#
# 1 -0.013226 0.020318 0.000828 0.000000 0.000000 0.000000
# 2 0.020318 -0.013227 0.000828 0.000000 0.000000 0.000000
# 3 0.000828 0.000828 0.014812 0.000000 0.000000 0.000000
# 4 0.000000 0.000000 0.000000 0.053241 0.000000 0.000000
# 5 0.000000 0.000000 0.000000 0.000000 0.053242 0.000000
# 6 0.000000 0.000000 0.000000 0.000000 0.000000 0.014684
#
#
# Mechanical properties :
#
#
# Convention : Reuss Voigt Hill
#
# Bulk Modulus (GPa) = 30.95370 35.80298 33.37834
# Shear Modulus (GPa) = 65.49042 28.54085 47.01563
#
# Velocity S-wave (km/s) = 5.30956 3.50512 4.49874
# Velocity P-wave (km/s) = 7.13534 5.63854 6.43064
#
# Compressibility (1/GPa) = 0.03230632
#
# Stress axis : x y z
#
# Youngs Moduli (GPa) = -75.60785 -75.60538 67.51401
#
# Poissons Ratio (x) = 1.53611 -0.05589
# Poissons Ratio (y) = 1.53616 -0.05592
# Poissons Ratio (z) = 0.06260 0.06262
#
# Static dielectric constant tensor:
#      x y z
#    x 1.735270 0.000000 0.000000 
#    y 0.000000 1.735260 0.000000 
#    z 0.000000 0.000000 1.959610 
# 
# From -- ./inp_files/1972.got.cif
#   From: 2010.05.17/outbox.cif.g08.bks.cpg/sg90_1_cif.got.tgz:1972.got - 2010.06.03 19:17:45.
