data_PCOD9547874
_publ_section_title
;
Structure prediction by ZEFSAII (Michael W. Deem and Ramdas Pophale) SiO2 
 PCOD9547874
Probable space group: P 41 2 2
;
_chemical_formula_sum "Si O2"
_cell_formula_units_Z 28
_cell_length_a 16.770034
_cell_length_b 16.770034
_cell_length_c 5.106254
_cell_angle_alpha 90.000000
_cell_angle_beta 90.000000
_cell_angle_gamma 90.000000
_cell_volume 1436.052444
_symmetry_space_group_name_H-M "P 41 2 2"
_symmetry_group_IT_number 91
_symmetry_cell_setting 'tetragonal'
loop_
_space_group_symop_operation_xyz
x,y,z
-y,x,1/4+z
-x,-y,1/2+z
y,-x,3/4+z
x,-y,1/2-z
-x,y,-z
y,x,3/4-z
-y,-x,1/4-z
loop_
_atom_site_type_symbol
_atom_site_label
_atom_site_fract_x
_atom_site_fract_y
_atom_site_fract_z
Si Si1 0.052123 0.622298 0.259223
Si Si2 0.310797 0.689204 0.125000
Si Si3 0.420919 0.805393 0.327921
Si Si4 0.166595 0.723116 0.524877
O O1 0.086817 0.706429 0.363746
O O2 0.000000 0.586445 0.500000
O O3 0.132473 0.578153 0.162616
O O4 0.000000 0.628245 0.000000
O O5 0.396155 0.715945 0.237564
O O6 0.243271 0.703451 0.344482
O O7 0.500000 0.807782 0.500000
O O8 0.344915 0.834062 0.501474
O O9 0.189003 0.810998 0.625000
#
# Coordination Sequence:
#
# PCOD9547874 Si02
#       4
#     8   4   8   8
#     4  11  21  37  51  79 115 157 193 237 289 358
#     4   8  18  32  56  78 108 146 204 252 284 348
#     4  10  20  36  56  81 117 158 200 245 300 358
#     4   9  18  36  54  75 108 152 195 237 290 346
#
# _framework density 19.497897999999999
#
# number of rings (size 3 to 8) (size 9 to 14) (size 15 to 20)
#    0.000    2.286    2.857    0.000    0.000    4.571 
#    5.143    0.000    0.000    0.000    0.000    0.000 
#  154.286    0.000   29.143   17.714    3.429    0.000 
#
# Total GULP energy -155874.782440 kJ/mol
# GULP energy per Si atom -5566.956516 kJ/mol
# Density = 1.945352 g / cm^3
# Si number density = 19.497898 Si / 1000 Ang^3
#
#
#
# Elastic Constant Matrix: (Units=GPa)
#
#
# Indices 1 2 3 4 5 6 
#
# 1 73.1770 65.3233 39.6827 0.0000 0.0000 0.0000
# 2 65.3233 73.1745 39.6823 0.0000 0.0000 0.0000
# 3 39.6827 39.6823 116.1158 0.0000 0.0000 0.0000
# 4 0.0000 0.0000 0.0000 38.4803 0.0000 0.0000
# 5 0.0000 0.0000 0.0000 0.0000 38.4812 0.0000
# 6 0.0000 0.0000 0.0000 0.0000 0.0000 4.0346
#
#
#
# Elastic Compliance Matrix: (Units=1/GPa)
#
#
# Indices 1 2 3 4 5 6 
#
# 1 0.068162 -0.059185 -0.003068 0.000000 0.000000 0.000000
# 2 -0.059185 0.068165 -0.003069 0.000000 0.000000 0.000000
# 3 -0.003068 -0.003069 0.010709 0.000000 0.000000 0.000000
# 4 0.000000 0.000000 0.000000 0.025987 0.000000 0.000000
# 5 0.000000 0.000000 0.000000 0.000000 0.025987 0.000000
# 6 0.000000 0.000000 0.000000 0.000000 0.000000 0.247854
#
#
# Mechanical properties :
#
#
# Convention : Reuss Voigt Hill
#
# Bulk Modulus (GPa) = 61.00229 61.31599 61.15914
# Shear Modulus (GPa) = 8.57675 24.05116 16.31395
#
# Velocity S-wave (km/s) = 2.09961 3.51597 2.89572
# Velocity P-wave (km/s) = 6.10183 6.92809 6.52805
#
# Compressibility (1/GPa) = 0.01639283
#
# Stress axis : x y z
#
# Youngs Moduli (GPa) = 14.67091 14.67036 93.37627
#
# Poissons Ratio (x) = 0.86826 0.28650
# Poissons Ratio (y) = 0.86829 0.28654
# Poissons Ratio (z) = 0.04501 0.04502
#
# Static dielectric constant tensor:
#      x y z
#    x 1.755820 0.000000 0.000000 
#    y 0.000000 1.755830 0.000000 
#    z 0.000000 0.000000 1.832500 
# 
# From -- ./inp_files/13886.got.cif
#   From: 2010.05.17/outbox.cif.g08.bks.cpg/sg91_7_cif.got.tgz:13886.got - 2010.06.03 19:20:03.
