data_PCOD9547148
_publ_section_title
;
Structure prediction by ZEFSAII (Michael W. Deem and Ramdas Pophale) SiO2 
 PCOD9547148
Probable space group: P 4 21 2
;
_chemical_formula_sum "Si O2"
_cell_formula_units_Z 38
_cell_length_a 12.170373
_cell_length_b 12.170373
_cell_length_c 13.434466
_cell_angle_alpha 90.000000
_cell_angle_beta 90.000000
_cell_angle_gamma 90.000000
_cell_volume 1989.885952
_symmetry_space_group_name_H-M "P 4 21 2"
_symmetry_group_IT_number 90
_symmetry_cell_setting 'tetragonal'
loop_
_space_group_symop_operation_xyz
x,y,z
1/2-y,1/2+x,z
-x,-y,z
1/2+y,1/2-x,z
1/2+x,1/2-y,-z
1/2-x,1/2+y,-z
y,x,-z
-y,-x,-z
loop_
_atom_site_type_symbol
_atom_site_label
_atom_site_fract_x
_atom_site_fract_y
_atom_site_fract_z
Si Si1 0.817701 0.154093 0.344551
Si Si2 0.662547 0.446961 0.091088
Si Si3 0.000000 0.500000 0.215561
Si Si4 0.147041 0.708762 0.155068
Si Si5 0.500000 0.500000 0.733382
Si Si6 0.584192 0.837724 0.509454
O O1 0.802544 0.209771 0.237335
O O2 0.710136 0.110511 0.400284
O O3 0.870767 0.247962 0.414057
O O4 0.905322 0.056363 0.331113
O O5 0.721556 0.565287 0.085116
O O6 0.758058 0.356736 0.099678
O O7 0.592704 0.450825 0.193104
O O8 0.585781 0.414220 0.000000
O O9 0.070178 0.616909 0.208363
O O10 0.454928 0.857823 0.524290
#
# Coordination Sequence:
#
# PCOD9547148 Si02
#       6
#     8   8   2   8   4   8
#     4  10  23  38  60  87 117 155 200 240 301 352
#     4  10  21  38  61  88 124 154 204 251 297 360
#     4   8  16  32  56  84 120 140 210 240 276 356
#     4   9  20  35  60  90 114 166 194 250 299 353
#     4  10  23  37  58  90 114 158 194 251 293 358
#     4  10  24  39  59  86 120 154 196 251 293 358
#
# _framework density 19.096572999999999
#
# number of rings (size 3 to 8) (size 9 to 14) (size 15 to 20)
#    0.000    2.316    0.000    0.316   11.789    6.737 
#    0.000    0.000    0.000    0.000    0.000    0.000 
#    0.000    0.000    0.000    0.000    0.000    0.000 
#
# Total GULP energy -211643.839932 kJ/mol
# GULP energy per Si atom -5569.574735 kJ/mol
# Density = 1.905311 g / cm^3
# Si number density = 19.096573 Si / 1000 Ang^3
#
#
#
# Elastic Constant Matrix: (Units=GPa)
#
#
# Indices 1 2 3 4 5 6 
#
# 1 90.1390 44.2509 18.1493 0.0000 0.0000 0.0000
# 2 44.2509 90.1387 18.1494 0.0000 0.0000 0.0000
# 3 18.1493 18.1494 38.9844 0.0000 0.0000 0.0000
# 4 0.0000 0.0000 0.0000 13.2118 0.0000 0.0000
# 5 0.0000 0.0000 0.0000 0.0000 13.2105 0.0000
# 6 0.0000 0.0000 0.0000 0.0000 0.0000 39.2524
#
#
#
# Elastic Compliance Matrix: (Units=1/GPa)
#
#
# Indices 1 2 3 4 5 6 
#
# 1 0.015152 -0.006640 -0.003962 0.000000 0.000000 0.000000
# 2 -0.006640 0.015152 -0.003963 0.000000 0.000000 0.000000
# 3 -0.003962 -0.003963 0.029341 0.000000 0.000000 0.000000
# 4 0.000000 0.000000 0.000000 0.075690 0.000000 0.000000
# 5 0.000000 0.000000 0.000000 0.000000 0.075697 0.000000
# 6 0.000000 0.000000 0.000000 0.000000 0.000000 0.025476
#
#
# Mechanical properties :
#
#
# Convention : Reuss Voigt Hill
#
# Bulk Modulus (GPa) = 32.77239 42.26235 37.51737
# Shear Modulus (GPa) = 18.12844 22.38243 20.25544
#
# Velocity S-wave (km/s) = 3.08442 3.42726 3.26035
# Velocity P-wave (km/s) = 5.46658 6.15145 5.81910
#
# Compressibility (1/GPa) = 0.03051349
#
# Stress axis : x y z
#
# Youngs Moduli (GPa) = 65.99912 65.99882 34.08230
#
# Poissons Ratio (x) = 0.43826 0.13505
# Poissons Ratio (y) = 0.43826 0.13505
# Poissons Ratio (z) = 0.26152 0.26152
#
# Static dielectric constant tensor:
#      x y z
#    x 1.654110 0.000000 0.000000 
#    y 0.000000 1.654110 0.000000 
#    z 0.000000 0.000000 1.680410 
# 
# From -- ./inp_files/2498.got.cif
#   From: 2010.05.17/outbox.cif.g08.bks.cpg/sg90_2_cif.got.tgz:2498.got - 2010.06.03 19:17:45.
