data_PCOD9547704
_publ_section_title
;
Structure prediction by ZEFSAII (Michael W. Deem and Ramdas Pophale) SiO2 
 PCOD9547704
Probable space group: P 41 2 2
;
_chemical_formula_sum "Si O2"
_cell_formula_units_Z 64
_cell_length_a 19.604016
_cell_length_b 19.604016
_cell_length_c 9.457593
_cell_angle_alpha 90.000000
_cell_angle_beta 90.000000
_cell_angle_gamma 90.000000
_cell_volume 3634.717962
_symmetry_space_group_name_H-M "P 41 2 2"
_symmetry_group_IT_number 91
_symmetry_cell_setting 'tetragonal'
loop_
_space_group_symop_operation_xyz
x,y,z
-y,x,1/4+z
-x,-y,1/2+z
y,-x,3/4+z
x,-y,1/2-z
-x,y,-z
y,x,3/4-z
-y,-x,1/4-z
loop_
_atom_site_type_symbol
_atom_site_label
_atom_site_fract_x
_atom_site_fract_y
_atom_site_fract_z
Si Si1 0.447875 0.245420 0.130658
Si Si2 0.684749 0.323100 0.965768
Si Si3 0.349152 0.075210 0.977760
Si Si4 0.099775 0.548939 0.497316
Si Si5 0.540877 0.254788 0.356777
Si Si6 0.072927 0.677745 0.314442
Si Si7 0.397594 0.106399 0.278144
Si Si8 0.258176 0.830053 0.709782
O O1 0.378448 0.281383 0.090315
O O2 0.492098 0.288898 0.241076
O O3 0.420688 0.179974 0.217717
O O4 0.500000 0.229889 0.000000
O O5 0.703500 0.390191 0.878206
O O6 0.756562 0.283111 0.982109
O O7 0.661374 0.338627 0.125000
O O8 0.424158 0.082406 0.904420
O O9 0.308728 0.138776 0.909664
O O10 0.305640 0.007050 0.946242
O O11 0.360098 0.074039 0.144616
O O12 0.180760 0.556987 0.462798
O O13 0.068627 0.607705 0.402188
O O14 0.076026 0.473834 0.451112
O O15 0.500000 0.243453 0.500000
O O16 0.117937 0.730659 0.407277
O O17 0.103827 0.651238 0.164703
O O18 0.188224 0.811777 0.625000
#
# Coordination Sequence:
#
# PCOD9547704 Si02
#       8
#     8   8   8   8   8   8   8   8
#     4  11  22  36  58  83 107 146 190 235 283 342
#     4  11  20  36  60  76 104 140 185 236 292 337
#     4  11  21  35  52  78 111 148 185 220 274 329
#     4  10  19  33  51  70 107 149 186 219 258 323
#     4  11  21  36  54  79 109 135 181 238 291 339
#     4  11  22  35  51  78 113 147 181 226 278 319
#     4  11  21  32  50  78 113 144 184 226 267 330
#     4  10  21  37  57  76  99 144 191 227 268 323
#
# _framework density 17.607969000000001
#
# number of rings (size 3 to 8) (size 9 to 14) (size 15 to 20)
#    0.000    1.250    3.750    7.125    0.000    3.500 
#    0.000    1.875    0.000    2.250    0.000    0.000 
#    0.000    0.000    0.000   36.000    0.000    0.000 
#
# Total GULP energy -356290.454755 kJ/mol
# GULP energy per Si atom -5567.038356 kJ/mol
# Density = 1.756789 g / cm^3
# Si number density = 17.607969 Si / 1000 Ang^3
#
#
#
# Elastic Constant Matrix: (Units=GPa)
#
#
# Indices 1 2 3 4 5 6 
#
# 1 69.9112 39.0202 22.0069 0.0000 0.0000 0.0000
# 2 39.0202 69.9094 22.0066 0.0000 0.0000 0.0000
# 3 22.0069 22.0066 107.6656 0.0000 0.0000 0.0000
# 4 0.0000 0.0000 0.0000 13.8831 0.0000 0.0000
# 5 0.0000 0.0000 0.0000 0.0000 13.8832 0.0000
# 6 0.0000 0.0000 0.0000 0.0000 0.0000 10.9304
#
#
#
# Elastic Compliance Matrix: (Units=1/GPa)
#
#
# Indices 1 2 3 4 5 6 
#
# 1 0.021189 -0.011183 -0.002045 0.000000 0.000000 0.000000
# 2 -0.011183 0.021190 -0.002045 0.000000 0.000000 0.000000
# 3 -0.002045 -0.002045 0.010124 0.000000 0.000000 0.000000
# 4 0.000000 0.000000 0.000000 0.072030 0.000000 0.000000
# 5 0.000000 0.000000 0.000000 0.000000 0.072030 0.000000
# 6 0.000000 0.000000 0.000000 0.000000 0.000000 0.091488
#
#
# Mechanical properties :
#
#
# Convention : Reuss Voigt Hill
#
# Bulk Modulus (GPa) = 45.54569 45.95039 45.74804
# Shear Modulus (GPa) = 15.34132 18.70284 17.02208
#
# Velocity S-wave (km/s) = 2.95493 3.26265 3.11259
# Velocity P-wave (km/s) = 6.12902 6.35186 6.24143
#
# Compressibility (1/GPa) = 0.02195598
#
# Stress axis : x y z
#
# Youngs Moduli (GPa) = 47.19334 47.19219 98.77376
#
# Poissons Ratio (x) = 0.52775 0.20202
# Poissons Ratio (y) = 0.52777 0.20203
# Poissons Ratio (z) = 0.09653 0.09652
#
# Static dielectric constant tensor:
#      x y z
#    x 1.701920 0.000000 0.000000 
#    y 0.000000 1.701920 0.000000 
#    z 0.000000 0.000000 1.700920 
# 
# From -- ./inp_files/19807.got.cif
#   From: 2010.05.17/outbox.cif.g08.bks.cpg/sg91_10_cif.got.tgz:19807.got - 2010.06.03 19:20:03.
