data_PCOD9547983
_publ_section_title
;
Structure prediction by ZEFSAII (Michael W. Deem and Ramdas Pophale) SiO2 
 PCOD9547983
Probable space group: P 41 2 2
;
_chemical_formula_sum "Si O2"
_cell_formula_units_Z 48
_cell_length_a 11.828616
_cell_length_b 11.828616
_cell_length_c 16.337761
_cell_angle_alpha 90.000000
_cell_angle_beta 90.000000
_cell_angle_gamma 90.000000
_cell_volume 2285.916725
_symmetry_space_group_name_H-M "P 41 2 2"
_symmetry_group_IT_number 91
_symmetry_cell_setting 'tetragonal'
loop_
_space_group_symop_operation_xyz
x,y,z
-y,x,1/4+z
-x,-y,1/2+z
y,-x,3/4+z
x,-y,1/2-z
-x,y,-z
y,x,3/4-z
-y,-x,1/4-z
loop_
_atom_site_type_symbol
_atom_site_label
_atom_site_fract_x
_atom_site_fract_y
_atom_site_fract_z
Si Si1 0.000000 0.521863 0.500000
Si Si2 0.923361 0.923361 0.875000
Si Si3 0.172778 0.467565 0.625888
Si Si4 0.826844 0.093029 0.448311
Si Si5 0.810731 0.327417 0.932440
Si Si6 0.860566 0.305061 0.220167
Si Si7 0.574489 0.417469 0.918346
O O1 0.910970 0.450261 0.448736
O O2 0.924986 0.604241 0.555727
O O3 0.887114 0.856671 0.793391
O O4 0.056058 0.908340 0.897240
O O5 0.164540 0.599072 0.652951
O O6 0.132143 0.384106 0.698359
O O7 0.305359 0.446421 0.613891
O O8 0.743850 0.178385 0.401204
O O9 0.765823 0.970868 0.448352
O O10 0.781463 0.239373 0.005391
O O11 0.706800 0.413990 0.933914
O O12 0.527315 0.527315 0.875000
O O13 0.500000 0.397984 0.000000
#
# Coordination Sequence:
#
# PCOD9547983 Si02
#       7
#     4   4   8   8   8   8   8
#     4  12  24  36  64 102 130 168 216 274 342 406
#     4  10  24  36  60  88 134 186 212 266 318 408
#     4  10  21  39  61  92 125 167 216 277 349 387
#     4  11  21  39  58  91 133 175 222 263 333 390
#     4  11  23  38  65 100 129 167 226 275 332 405
#     4  10  20  39  58  85 130 168 210 281 327 388
#     4  11  22  44  70  93 129 175 224 282 339 400
#
# _framework density 20.998141
#
# number of rings (size 3 to 8) (size 9 to 14) (size 15 to 20)
#    0.000    1.333    6.667    1.000    2.333    0.000 
#    6.000    1.667    1.833    0.000    0.000    0.000 
#    0.000    0.000    0.000    0.000    0.000    0.000 
#
# Total GULP energy -268116.713353 kJ/mol
# GULP energy per Si atom -5585.764862 kJ/mol
# Density = 2.095035 g / cm^3
# Si number density = 20.998141 Si / 1000 Ang^3
#
#
#
# Elastic Constant Matrix: (Units=GPa)
#
#
# Indices 1 2 3 4 5 6 
#
# 1 62.5715 26.3852 17.5583 0.0000 0.0000 0.0000
# 2 26.3852 62.5715 17.5583 0.0000 0.0000 0.0000
# 3 17.5583 17.5583 75.0277 0.0000 0.0000 0.0000
# 4 0.0000 0.0000 0.0000 29.2245 0.0000 0.0000
# 5 0.0000 0.0000 0.0000 0.0000 29.2245 0.0000
# 6 0.0000 0.0000 0.0000 0.0000 0.0000 30.5075
#
#
#
# Elastic Compliance Matrix: (Units=1/GPa)
#
#
# Indices 1 2 3 4 5 6 
#
# 1 0.020010 -0.007625 -0.002899 0.000000 0.000000 0.000000
# 2 -0.007625 0.020010 -0.002899 0.000000 0.000000 0.000000
# 3 -0.002899 -0.002899 0.014685 0.000000 0.000000 0.000000
# 4 0.000000 0.000000 0.000000 0.034218 0.000000 0.000000
# 5 0.000000 0.000000 0.000000 0.000000 0.034218 0.000000
# 6 0.000000 0.000000 0.000000 0.000000 0.000000 0.032779
#
#
# Mechanical properties :
#
#
# Convention : Reuss Voigt Hill
#
# Bulk Modulus (GPa) = 35.89094 35.90828 35.89961
# Shear Modulus (GPa) = 26.03479 27.03590 26.53534
#
# Velocity S-wave (km/s) = 3.52499 3.59212 3.55871
# Velocity P-wave (km/s) = 5.80490 5.86023 5.83263
#
# Compressibility (1/GPa) = 0.02786219
#
# Stress axis : x y z
#
# Youngs Moduli (GPa) = 49.97447 49.97447 68.09638
#
# Poissons Ratio (x) = 0.38103 0.19738
# Poissons Ratio (y) = 0.38103 0.19738
# Poissons Ratio (z) = 0.14485 0.14485
#
# Static dielectric constant tensor:
#      x y z
#    x 1.744710 0.000000 0.000000 
#    y 0.000000 1.744710 0.000000 
#    z 0.000000 0.000000 1.806830 
# 
# From -- ./inp_files/21155.got.cif
#   From: 2010.05.17/outbox.cif.g08.bks.cpg/sg91_11_cif.got.tgz:21155.got - 2010.06.03 19:20:03.
