data_PCOD9547274
_publ_section_title
;
Structure prediction by ZEFSAII (Michael W. Deem and Ramdas Pophale) SiO2 
 PCOD9547274
Probable space group: P 4 21 2
;
_chemical_formula_sum "Si O2"
_cell_formula_units_Z 32
_cell_length_a 9.927498
_cell_length_b 9.927498
_cell_length_c 18.600905
_cell_angle_alpha 90.000000
_cell_angle_beta 90.000000
_cell_angle_gamma 90.000000
_cell_volume 1833.216220
_symmetry_space_group_name_H-M "P 4 21 2"
_symmetry_group_IT_number 90
_symmetry_cell_setting 'tetragonal'
loop_
_space_group_symop_operation_xyz
x,y,z
1/2-y,1/2+x,z
-x,-y,z
1/2+y,1/2-x,z
1/2+x,1/2-y,-z
1/2-x,1/2+y,-z
y,x,-z
-y,-x,-z
loop_
_atom_site_type_symbol
_atom_site_label
_atom_site_fract_x
_atom_site_fract_y
_atom_site_fract_z
Si Si1 0.362859 0.641268 0.584895
Si Si2 0.196022 0.385848 0.045939
Si Si3 0.393635 0.198795 0.785656
Si Si4 0.350479 0.343233 0.643876
O O1 0.379837 0.620164 0.500000
O O2 0.338725 0.499773 0.624840
O O3 0.241175 0.739968 0.601537
O O4 0.501971 0.699510 0.615897
O O5 0.178147 0.546724 0.032814
O O6 0.230813 0.371868 0.130598
O O7 0.307823 0.307823 0.000000
O O8 0.553355 0.175585 0.773959
O O9 0.342273 0.305924 0.727883
#
# Coordination Sequence:
#
# PCOD9547274 Si02
#       4
#     8   8   8   8
#     4  11  23  38  57  82 113 149 192 241 287 338
#     4   9  19  37  59  86 118 149 190 235 279 337
#     4   9  17  35  60  83 108 149 197 233 267 335
#     4  11  21  38  57  82 114 148 192 235 286 337
#
# _framework density 17.455660000000002
#
# number of rings (size 3 to 8) (size 9 to 14) (size 15 to 20)
#    0.000    2.000    2.500    4.500    0.000    1.500 
#    4.500    2.500    0.000    0.000    0.000    0.000 
#    0.000    0.000    0.000    0.000    0.000    0.000 
#
# Total GULP energy -178504.918260 kJ/mol
# GULP energy per Si atom -5578.278696 kJ/mol
# Density = 1.741593 g / cm^3
# Si number density = 17.455660 Si / 1000 Ang^3
#
#
#
# Elastic Constant Matrix: (Units=GPa)
#
#
# Indices 1 2 3 4 5 6 
#
# 1 -1534.9773 1649.9506 54.9513 0.0000 0.0000 0.0000
# 2 1649.9506-1534.8350 55.0161 0.0000 0.0000 0.0000
# 3 54.9513 55.0161 133.4526 0.0000 0.0000 0.0000
# 4 0.0000 0.0000 0.0000 29.3785 0.0000 0.0000
# 5 0.0000 0.0000 0.0000 0.0000 29.3786 0.0000
# 6 0.0000 0.0000 0.0000 0.0000 0.0000 36.4488
#
#
#
# Elastic Compliance Matrix: (Units=1/GPa)
#
#
# Indices 1 2 3 4 5 6 
#
# 1 0.007013 0.007327 -0.005908 0.000000 0.000000 0.000000
# 2 0.007327 0.007013 -0.005908 0.000000 0.000000 0.000000
# 3 -0.005908 -0.005908 0.012362 0.000000 0.000000 0.000000
# 4 0.000000 0.000000 0.000000 0.034038 0.000000 0.000000
# 5 0.000000 0.000000 0.000000 0.000000 0.034038 0.000000
# 6 0.000000 0.000000 0.000000 0.000000 0.000000 0.027436
#
#
# Mechanical properties :
#
#
# Convention : Reuss Voigt Hill
#
# Bulk Modulus (GPa) = 57.44269 64.83069 61.13669
# Shear Modulus (GPa) = 36.58144 -294.04400 -128.73128
#
# Velocity S-wave (km/s) = 4.58282 -12.99298 -8.59696
# Velocity P-wave (km/s) = 7.80911 13.70654 7.96515
#
# Compressibility (1/GPa) = 0.01740866
#
# Stress axis : x y z
#
# Youngs Moduli (GPa) = 142.60035 142.59220 80.89551
#
# Poissons Ratio (x) = -1.04474 0.47793
# Poissons Ratio (y) = -1.04480 0.47793
# Poissons Ratio (z) = 0.84249 0.84244
#
# Static dielectric constant tensor:
#      x y z
#    x 1.579150 0.000000 0.000000 
#    y 0.000000 1.579150 0.000000 
#    z 0.000000 0.000000 1.595330 
# 
# From -- ./inp_files/2700.got.cif
#   From: 2010.05.17/outbox.cif.g08.bks.cpg/sg90_2_cif.got.tgz:2700.got - 2010.06.03 19:17:45.
