data_PCOD9547045
_publ_section_title
;
Structure prediction by ZEFSAII (Michael W. Deem and Ramdas Pophale) SiO2 
 PCOD9547045
Probable space group: P 4 2 2
;
_chemical_formula_sum "Si O2"
_cell_formula_units_Z 48
_cell_length_a 8.292000
_cell_length_b 8.292000
_cell_length_c 31.790137
_cell_angle_alpha 90.000000
_cell_angle_beta 90.000000
_cell_angle_gamma 90.000000
_cell_volume 2185.802842
_symmetry_space_group_name_H-M "P 4 2 2"
_symmetry_group_IT_number 89
_symmetry_cell_setting 'tetragonal'
loop_
_space_group_symop_operation_xyz
x,y,z
-y,x,z
-x,-y,z
y,-x,z
x,-y,-z
-x,y,-z
y,x,-z
-y,-x,-z
loop_
_atom_site_type_symbol
_atom_site_label
_atom_site_fract_x
_atom_site_fract_y
_atom_site_fract_z
Si Si1 0.835995 0.593575 0.374482
Si Si2 0.413476 0.242127 0.161989
Si Si3 0.500000 0.500000 0.648470
Si Si4 0.819714 0.205246 0.546242
Si Si5 0.500000 0.000000 0.000000
Si Si6 0.242484 0.586141 0.066388
Si Si7 0.500000 0.000000 0.227761
Si Si8 0.910299 0.752316 0.288507
O O1 0.697790 0.483011 0.354028
O O2 0.765271 0.682843 0.415723
O O3 0.892515 0.711817 0.337462
O O4 0.000000 0.500000 0.386650
O O5 0.598657 0.304107 0.166595
O O6 0.392602 0.181966 0.114127
O O7 0.389562 0.105309 0.196487
O O8 0.752585 0.247416 0.500000
O O9 0.014717 0.216439 0.549040
O O10 0.393196 0.889787 0.969175
O O11 0.305111 0.401514 0.061759
O O12 0.600102 0.117537 0.258545
O O13 0.094553 0.801059 0.279701
#
# Coordination Sequence:
#
# PCOD9547045 Si02
#       8
#     8   8   2   8   2   8   4   8
#     4  12  24  45  66  97 136 177 216 279 342 401
#     4   9  19  37  57  81 116 159 204 257 322 386
#     4  12  28  44  73 104 132 176 236 272 328 417
#     4   9  18  36  65  95 125 170 222 269 327 400
#     4  12  18  26  52  86 104 142 200 262 310 370
#     4   9  19  35  54  77 112 155 201 253 317 391
#     4  12  21  36  60  95 122 155 210 272 321 390
#     4  11  24  41  61  90 128 175 216 260 332 406
#
# _framework density 21.959894999999999
#
# number of rings (size 3 to 8) (size 9 to 14) (size 15 to 20)
#    0.000    1.667    0.833    6.500    0.000    2.000 
#    0.000    6.250    0.000    4.000    0.000   14.000 
#    0.000    0.000    0.000    0.000    0.000    0.000 
#
# Total GULP energy -267644.959782 kJ/mol
# GULP energy per Si atom -5575.936662 kJ/mol
# Density = 2.190991 g / cm^3
# Si number density = 21.959895 Si / 1000 Ang^3
#
#
#
# Elastic Constant Matrix: (Units=GPa)
#
#
# Indices 1 2 3 4 5 6 
#
# 1 46.2325 2.8013 23.5172 0.0000 0.0000 0.0000
# 2 2.8013 46.2325 23.5173 0.0000 0.0000 0.0000
# 3 23.5172 23.5173 140.6762 0.0000 0.0000 0.0000
# 4 0.0000 0.0000 0.0000 28.7772 0.0000 0.0000
# 5 0.0000 0.0000 0.0000 0.0000 28.7772 0.0000
# 6 0.0000 0.0000 0.0000 0.0000 0.0000 -2.1310
#
#
#
# Elastic Compliance Matrix: (Units=1/GPa)
#
#
# Indices 1 2 3 4 5 6 
#
# 1 0.023657 0.000632 -0.004060 0.000000 0.000000 0.000000
# 2 0.000632 0.023657 -0.004060 0.000000 0.000000 0.000000
# 3 -0.004060 -0.004060 0.008466 0.000000 0.000000 0.000000
# 4 0.000000 0.000000 0.000000 0.034750 0.000000 0.000000
# 5 0.000000 0.000000 0.000000 0.000000 0.034750 0.000000
# 6 0.000000 0.000000 0.000000 0.000000 0.000000 -0.469271
#
#
# Mechanical properties :
#
#
# Convention : Reuss Voigt Hill
#
# Bulk Modulus (GPa) = 24.50843 36.97920 30.74382
# Shear Modulus (GPa) = -15.85226 23.30505 3.72639
#
# Velocity S-wave (km/s) = -2.68968 3.26123 1.30407
# Velocity P-wave (km/s) = 1.24052 5.57286 4.03706
#
# Compressibility (1/GPa) = 0.04080228
#
# Stress axis : x y z
#
# Youngs Moduli (GPa) = 42.27090 42.27081 118.11785
#
# Poissons Ratio (x) = -0.02672 0.47961
# Poissons Ratio (y) = -0.02672 0.47961
# Poissons Ratio (z) = 0.17164 0.17164
#
# Static dielectric constant tensor:
#      x y z
#    x 1.829060 0.000000 0.000000 
#    y 0.000000 1.829060 0.000000 
#    z 0.000000 0.000000 1.822450 
# 
# From -- ./inp_files/3057.got.cif
#   From: 2010.05.17/outbox.cif.g08.bks.cpg/sg89_2_cif.got.tgz:3057.got - 2010.06.03 19:15:31.
