data_PCOD9547570
_publ_section_title
;
Structure prediction by ZEFSAII (Michael W. Deem and Ramdas Pophale) SiO2 
 PCOD9547570
Probable space group: P 41 2 2
;
_chemical_formula_sum "Si O2"
_cell_formula_units_Z 24
_cell_length_a 7.067092
_cell_length_b 7.067092
_cell_length_c 16.823902
_cell_angle_alpha 90.000000
_cell_angle_beta 90.000000
_cell_angle_gamma 90.000000
_cell_volume 840.249417
_symmetry_space_group_name_H-M "P 41 2 2"
_symmetry_group_IT_number 91
_symmetry_cell_setting 'tetragonal'
loop_
_space_group_symop_operation_xyz
x,y,z
-y,x,1/4+z
-x,-y,1/2+z
y,-x,3/4+z
x,-y,1/2-z
-x,y,-z
y,x,3/4-z
-y,-x,1/4-z
loop_
_atom_site_type_symbol
_atom_site_label
_atom_site_fract_x
_atom_site_fract_y
_atom_site_fract_z
Si Si1 0.066895 0.222028 0.746721
Si Si2 0.741332 0.619058 0.954234
Si Si3 0.850997 0.488989 0.385307
O O1 0.842619 0.250913 0.729115
O O2 0.115875 0.336107 0.826223
O O3 0.183439 0.313683 0.674188
O O4 0.104324 0.000000 0.750000
O O5 0.613990 0.613990 0.875000
O O6 0.945608 0.558737 0.922507
O O7 0.714869 0.510788 0.037857
#
# Coordination Sequence:
#
# PCOD9547570 Si02
#       3
#     8   8   8
#     4  10  18  31  58  93 142 199 255 327 413 486
#     4   9  17  34  57  87 143 193 259 332 413 477
#     4   9  18  32  55  94 139 195 258 327 404 490
#
# _framework density 28.562949
#
# number of rings (size 3 to 8) (size 9 to 14) (size 15 to 20)
#    0.000    2.667    3.333    0.000    0.000    0.000 
#    0.000   13.333    7.333    0.000    0.000   46.667 
#    0.000    0.000    0.000    0.000    0.000    0.000 
#
# Total GULP energy -134580.087471 kJ/mol
# GULP energy per Si atom -5607.503645 kJ/mol
# Density = 2.849794 g / cm^3
# Si number density = 28.562949 Si / 1000 Ang^3
#
#
#
# Elastic Constant Matrix: (Units=GPa)
#
#
# Indices 1 2 3 4 5 6 
#
# 1 168.7982 35.3922 118.0771 0.0000 0.0000 0.0000
# 2 35.3922 168.7982 118.0771 0.0000 0.0000 0.0000
# 3 118.0771 118.0771 348.1560 0.0000 0.0000 0.0000
# 4 0.0000 0.0000 0.0000 71.9633 0.0000 0.0000
# 5 0.0000 0.0000 0.0000 0.0000 71.9633 0.0000
# 6 0.0000 0.0000 0.0000 0.0000 0.0000 22.9816
#
#
#
# Elastic Compliance Matrix: (Units=1/GPa)
#
#
# Indices 1 2 3 4 5 6 
#
# 1 0.007777 0.000281 -0.002733 0.000000 0.000000 0.000000
# 2 0.000281 0.007777 -0.002733 0.000000 0.000000 0.000000
# 3 -0.002733 -0.002733 0.004726 0.000000 0.000000 0.000000
# 4 0.000000 0.000000 0.000000 0.013896 0.000000 0.000000
# 5 0.000000 0.000000 0.000000 0.000000 0.013896 0.000000
# 6 0.000000 0.000000 0.000000 0.000000 0.000000 0.043513
#
#
# Mechanical properties :
#
#
# Convention : Reuss Voigt Hill
#
# Bulk Modulus (GPa) = 100.90220 136.53834 118.72027
# Shear Modulus (GPa) = 47.50236 60.99540 54.24888
#
# Velocity S-wave (km/s) = 4.08251 4.62613 4.36279
# Velocity P-wave (km/s) = 7.59114 8.74306 8.18739
#
# Compressibility (1/GPa) = 0.00991059
#
# Stress axis : x y z
#
# Youngs Moduli (GPa) = 128.58418 128.58418 211.59529
#
# Poissons Ratio (x) = -0.03614 0.57827
# Poissons Ratio (y) = -0.03614 0.57827
# Poissons Ratio (z) = 0.35141 0.35141
#
# Static dielectric constant tensor:
#      x y z
#    x 2.230120 0.000000 0.000000 
#    y 0.000000 2.230120 0.000000 
#    z 0.000000 0.000000 2.181360 
# 
# From -- ./inp_files/20896.got.cif
#   From: 2010.05.17/outbox.cif.g08.bks.cpg/sg91_11_cif.got.tgz:20896.got - 2010.06.03 19:20:03.
