data_PCOD9547076
_publ_section_title
;
Structure prediction by ZEFSAII (Michael W. Deem and Ramdas Pophale) SiO2 
 PCOD9547076
Probable space group: P 4 21 2
;
_chemical_formula_sum "Si O2"
_cell_formula_units_Z 48
_cell_length_a 15.278486
_cell_length_b 15.278486
_cell_length_c 12.221954
_cell_angle_alpha 90.000000
_cell_angle_beta 90.000000
_cell_angle_gamma 90.000000
_cell_volume 2852.996809
_symmetry_space_group_name_H-M "P 4 21 2"
_symmetry_group_IT_number 90
_symmetry_cell_setting 'tetragonal'
loop_
_space_group_symop_operation_xyz
x,y,z
1/2-y,1/2+x,z
-x,-y,z
1/2+y,1/2-x,z
1/2+x,1/2-y,-z
1/2-x,1/2+y,-z
y,x,-z
-y,-x,-z
loop_
_atom_site_type_symbol
_atom_site_label
_atom_site_fract_x
_atom_site_fract_y
_atom_site_fract_z
Si Si1 0.821223 0.706733 0.246438
Si Si2 0.415943 0.879936 0.959134
Si Si3 0.170621 0.083830 0.599459
Si Si4 0.099201 0.005887 0.238800
Si Si5 0.126014 0.217300 0.898055
Si Si6 0.169360 0.881381 0.616106
O O1 0.876858 0.657996 0.153610
O O2 0.884928 0.743256 0.339368
O O3 0.782660 0.794168 0.188383
O O4 0.746570 0.649318 0.303627
O O5 0.520891 0.882652 0.964997
O O6 0.386674 0.814142 0.054696
O O7 0.146453 0.146453 0.500000
O O8 0.086715 0.091310 0.678035
O O9 0.177986 0.981504 0.575780
O O10 0.172563 0.039325 0.153599
O O11 0.122323 0.919487 0.309598
O O12 0.000000 0.000000 0.190138
O O13 0.157633 0.157633 0.000000
O O14 0.169238 0.830763 0.500000
#
# Coordination Sequence:
#
# PCOD9547076 Si02
#       6
#     8   8   8   8   8   8
#     4  10  21  35  53  81 108 137 182 233 274 316
#     4  10  21  38  58  76 103 146 187 226 277 337
#     4  10  18  34  53  74 113 144 171 221 269 327
#     4   9  19  32  53  81 111 144 175 219 274 329
#     4   9  20  37  54  78 111 141 182 231 279 327
#     4  11  20  32  56  83 107 145 187 219 275 344
#
# _framework density 16.824414000000001
#
# number of rings (size 3 to 8) (size 9 to 14) (size 15 to 20)
#    0.000    2.167    1.667    1.500    2.333    1.667 
#    0.000    0.000    0.000    0.000    0.000    0.000 
#    0.000    0.000    0.000    0.000    0.000    0.000 
#
# Total GULP energy -267332.740817 kJ/mol
# GULP energy per Si atom -5569.432100 kJ/mol
# Density = 1.678612 g / cm^3
# Si number density = 16.824414 Si / 1000 Ang^3
#
#
#
# Elastic Constant Matrix: (Units=GPa)
#
#
# Indices 1 2 3 4 5 6 
#
# 1 54.8338 31.7990 22.7894 0.0000 0.0000 0.0000
# 2 31.7990 54.8338 22.7893 0.0000 0.0000 0.0000
# 3 22.7894 22.7893 66.0597 0.0000 0.0000 0.0000
# 4 0.0000 0.0000 0.0000 24.8925 0.0000 0.0000
# 5 0.0000 0.0000 0.0000 0.0000 24.8918 0.0000
# 6 0.0000 0.0000 0.0000 0.0000 0.0000 23.3868
#
#
#
# Elastic Compliance Matrix: (Units=1/GPa)
#
#
# Indices 1 2 3 4 5 6 
#
# 1 0.028758 -0.014655 -0.004865 0.000000 0.000000 0.000000
# 2 -0.014655 0.028758 -0.004865 0.000000 0.000000 0.000000
# 3 -0.004865 -0.004865 0.018495 0.000000 0.000000 0.000000
# 4 0.000000 0.000000 0.000000 0.040173 0.000000 0.000000
# 5 0.000000 0.000000 0.000000 0.000000 0.040174 0.000000
# 6 0.000000 0.000000 0.000000 0.000000 0.000000 0.042759
#
#
# Mechanical properties :
#
#
# Convention : Reuss Voigt Hill
#
# Bulk Modulus (GPa) = 36.71176 36.72031 36.71603
# Shear Modulus (GPa) = 19.45785 21.19087 20.32436
#
# Velocity S-wave (km/s) = 3.40446 3.55284 3.47944
# Velocity P-wave (km/s) = 6.10915 6.22119 6.16542
#
# Compressibility (1/GPa) = 0.02723923
#
# Stress axis : x y z
#
# Youngs Moduli (GPa) = 34.77343 34.77350 54.06989
#
# Poissons Ratio (x) = 0.50960 0.26306
# Poissons Ratio (y) = 0.50960 0.26305
# Poissons Ratio (z) = 0.16918 0.16918
#
# Static dielectric constant tensor:
#      x y z
#    x 1.568070 0.000000 0.000000 
#    y 0.000000 1.568070 0.000000 
#    z 0.000000 0.000000 1.576520 
# 
# From -- ./inp_files/2124.got.cif
#   From: 2010.05.17/outbox.cif.g08.bks.cpg/sg90_2_cif.got.tgz:2124.got - 2010.06.03 19:17:45.
