data_PCOD9547935
_publ_section_title
;
Structure prediction by ZEFSAII (Michael W. Deem and Ramdas Pophale) SiO2 
 PCOD9547935
Probable space group: P 41 2 2
;
_chemical_formula_sum "Si O2"
_cell_formula_units_Z 44
_cell_length_a 9.043162
_cell_length_b 9.043162
_cell_length_c 24.217093
_cell_angle_alpha 90.000000
_cell_angle_beta 90.000000
_cell_angle_gamma 90.000000
_cell_volume 1980.444295
_symmetry_space_group_name_H-M "P 41 2 2"
_symmetry_group_IT_number 91
_symmetry_cell_setting 'tetragonal'
loop_
_space_group_symop_operation_xyz
x,y,z
-y,x,1/4+z
-x,-y,1/2+z
y,-x,3/4+z
x,-y,1/2-z
-x,y,-z
y,x,3/4-z
-y,-x,1/4-z
loop_
_atom_site_type_symbol
_atom_site_label
_atom_site_fract_x
_atom_site_fract_y
_atom_site_fract_z
Si Si1 0.669988 0.918252 0.478296
Si Si2 0.690045 0.558626 0.944626
Si Si3 0.598022 0.200392 0.198785
Si Si4 0.558001 0.940304 0.128698
Si Si5 0.094651 0.754266 0.169381
Si Si6 0.445830 0.445830 0.875000
O O1 0.500000 0.904696 0.500000
O O2 0.733373 0.757616 0.464079
O O3 0.657490 0.020153 0.423634
O O4 0.766759 0.999061 0.525430
O O5 0.772893 0.458787 0.898270
O O6 0.713241 0.734165 0.935950
O O7 0.525702 0.507362 0.929806
O O8 0.758092 0.512075 0.002362
O O9 0.540841 0.274978 0.141662
O O10 0.607440 0.030768 0.182172
O O11 0.387529 0.972473 0.112179
O O12 0.114264 0.885737 0.125000
#
# Coordination Sequence:
#
# PCOD9547935 Si02
#       6
#     8   8   8   8   8   4
#     4  10  20  37  63  93 136 175 209 274 344 404
#     4  11  23  39  64  96 125 168 226 281 329 398
#     4  12  24  37  63 100 132 172 218 275 347 401
#     4  10  20  40  60  90 132 174 209 268 340 407
#     4   9  20  40  63  95 125 174 229 274 332 397
#     4  12  22  38  60 102 132 152 226 288 324 412
#
# _framework density 22.217238999999999
#
# number of rings (size 3 to 8) (size 9 to 14) (size 15 to 20)
#    0.000    1.455    4.545    2.182    5.091    1.455 
#    0.000    0.000    0.000   13.091    0.000    0.000 
#    0.000    0.000    0.000    0.000    0.000    0.000 
#
# Total GULP energy -245395.698967 kJ/mol
# GULP energy per Si atom -5577.174977 kJ/mol
# Density = 2.216667 g / cm^3
# Si number density = 22.217239 Si / 1000 Ang^3
#
#
#
# Elastic Constant Matrix: (Units=GPa)
#
#
# Indices 1 2 3 4 5 6 
#
# 1 52.3310 41.4689 29.2258 0.0000 0.0000 0.0000
# 2 41.4689 52.3307 29.2258 0.0000 0.0000 0.0000
# 3 29.2258 29.2258 118.8899 0.0000 0.0000 0.0000
# 4 0.0000 0.0000 0.0000 35.0813 0.0000 0.0000
# 5 0.0000 0.0000 0.0000 0.0000 35.0813 0.0000
# 6 0.0000 0.0000 0.0000 0.0000 0.0000 14.3457
#
#
#
# Elastic Compliance Matrix: (Units=1/GPa)
#
#
# Indices 1 2 3 4 5 6 
#
# 1 0.052327 -0.039737 -0.003095 0.000000 0.000000 0.000000
# 2 -0.039737 0.052327 -0.003095 0.000000 0.000000 0.000000
# 3 -0.003095 -0.003095 0.009933 0.000000 0.000000 0.000000
# 4 0.000000 0.000000 0.000000 0.028505 0.000000 0.000000
# 5 0.000000 0.000000 0.000000 0.000000 0.028505 0.000000
# 6 0.000000 0.000000 0.000000 0.000000 0.000000 0.069707
#
#
# Mechanical properties :
#
#
# Convention : Reuss Voigt Hill
#
# Bulk Modulus (GPa) = 43.98969 47.04362 45.51665
# Shear Modulus (GPa) = 14.67414 25.14375 19.90894
#
# Velocity S-wave (km/s) = 2.57278 3.36776 2.99675
# Velocity P-wave (km/s) = 5.35428 6.02849 5.70136
#
# Compressibility (1/GPa) = 0.02273260
#
# Stress axis : x y z
#
# Youngs Moduli (GPa) = 19.11071 19.11054 100.67773
#
# Poissons Ratio (x) = 0.75940 0.31157
# Poissons Ratio (y) = 0.75941 0.31158
# Poissons Ratio (z) = 0.05914 0.05914
#
# Static dielectric constant tensor:
#      x y z
#    x 1.781290 0.000000 0.000000 
#    y 0.000000 1.781290 0.000000 
#    z 0.000000 0.000000 1.856250 
# 
# From -- ./inp_files/7855.got.cif
#   From: 2010.05.17/outbox.cif.g08.bks.cpg/sg91_4_cif.got.tgz:7855.got - 2010.06.03 19:20:03.
