data_PCOD9547908
_publ_section_title
;
Structure prediction by ZEFSAII (Michael W. Deem and Ramdas Pophale) SiO2 
 PCOD9547908
Probable space group: P 41 2 2
;
_chemical_formula_sum "Si O2"
_cell_formula_units_Z 56
_cell_length_a 10.444483
_cell_length_b 10.444483
_cell_length_c 22.908807
_cell_angle_alpha 90.000000
_cell_angle_beta 90.000000
_cell_angle_gamma 90.000000
_cell_volume 2499.058187
_symmetry_space_group_name_H-M "P 41 2 2"
_symmetry_group_IT_number 91
_symmetry_cell_setting 'tetragonal'
loop_
_space_group_symop_operation_xyz
x,y,z
-y,x,1/4+z
-x,-y,1/2+z
y,-x,3/4+z
x,-y,1/2-z
-x,y,-z
y,x,3/4-z
-y,-x,1/4-z
loop_
_atom_site_type_symbol
_atom_site_label
_atom_site_fract_x
_atom_site_fract_y
_atom_site_fract_z
Si Si1 0.690430 0.111101 0.707604
Si Si2 0.360606 0.033423 0.092162
Si Si3 0.741728 0.623139 0.432393
Si Si4 0.440012 0.737884 0.804320
Si Si5 0.349324 0.002973 0.634116
Si Si6 0.896172 0.735929 0.727998
Si Si7 0.701663 0.338621 0.400235
O O1 0.700077 0.057111 0.642401
O O2 0.588070 0.225949 0.704006
O O3 0.822850 0.150555 0.738198
O O4 0.634074 0.000000 0.750000
O O5 0.513999 0.028081 0.102626
O O6 0.308682 0.173819 0.109639
O O7 0.331256 0.979477 0.028066
O O8 0.670959 0.670959 0.375000
O O9 0.691342 0.638052 0.497739
O O10 0.884453 0.677666 0.425973
O O11 0.742805 0.470001 0.428578
O O12 0.416813 0.642631 0.857354
O O13 0.376714 0.870426 0.828245
O O14 0.248890 0.020634 0.581091
O O15 0.771556 0.669357 0.697125
#
# Coordination Sequence:
#
# PCOD9547908 Si02
#       7
#     8   8   8   8   8   8   8
#     4  11  19  38  66  87 117 165 209 249 311 370
#     4  10  20  36  63  89 116 162 199 252 311 361
#     4  11  22  39  64  89 124 166 202 247 319 371
#     4  10  20  38  66  88 118 161 203 257 298 365
#     4   9  21  38  61  90 116 158 212 246 298 364
#     4  11  20  36  62  89 122 150 206 258 295 365
#     4  10  22  40  61  93 125 157 208 258 304 376
#
# _framework density 22.408442999999998
#
# number of rings (size 3 to 8) (size 9 to 14) (size 15 to 20)
#    0.000    1.714    2.857    3.000    2.000    0.571 
#    0.000    5.714    6.286    0.000    0.000    0.000 
#    0.000    0.000    0.000    0.000    0.000    0.000 
#
# Total GULP energy -311959.765212 kJ/mol
# GULP energy per Si atom -5570.710093 kJ/mol
# Density = 2.235744 g / cm^3
# Si number density = 22.408443 Si / 1000 Ang^3
#
#
#
# Elastic Constant Matrix: (Units=GPa)
#
#
# Indices 1 2 3 4 5 6 
#
# 1 20.2574 20.6721 1.8197 0.0000 0.0000 0.0000
# 2 20.6721 20.2574 1.8197 0.0000 0.0000 0.0000
# 3 1.8197 1.8197 101.3967 0.0000 0.0000 0.0000
# 4 0.0000 0.0000 0.0000 25.5775 0.0000 0.0000
# 5 0.0000 0.0000 0.0000 0.0000 25.5775 0.0000
# 6 0.0000 0.0000 0.0000 0.0000 0.0000 17.0183
#
#
#
# Elastic Compliance Matrix: (Units=1/GPa)
#
#
# Indices 1 2 3 4 5 6 
#
# 1 -1.193440 1.217912 -0.000439 0.000000 0.000000 0.000000
# 2 1.217912 -1.193440 -0.000439 0.000000 0.000000 0.000000
# 3 -0.000439 -0.000439 0.009878 0.000000 0.000000 0.000000
# 4 0.000000 0.000000 0.000000 0.039097 0.000000 0.000000
# 5 0.000000 0.000000 0.000000 0.000000 0.039097 0.000000
# 6 0.000000 0.000000 0.000000 0.000000 0.000000 0.058760
#
#
# Mechanical properties :
#
#
# Convention : Reuss Voigt Hill
#
# Bulk Modulus (GPa) = 17.52422 21.17051 19.34736
# Shear Modulus (GPa) = -1.07409 21.47467 10.20029
#
# Velocity S-wave (km/s) = -0.69308 3.09905 2.13585
# Velocity P-wave (km/s) = 2.68270 4.71948 3.83864
#
# Compressibility (1/GPa) = 0.05706388
#
# Stress axis : x y z
#
# Youngs Moduli (GPa) = -0.83791 -0.83791 101.23494
#
# Poissons Ratio (x) = 1.02050 0.04446
# Poissons Ratio (y) = 1.02050 0.04446
# Poissons Ratio (z) = -0.00037 -0.00037
#
# Static dielectric constant tensor:
#      x y z
#    x 1.869850 0.000000 0.000000 
#    y 0.000000 1.869850 0.000000 
#    z 0.000000 0.000000 1.866650 
# 
# From -- ./inp_files/12464.got.cif
#   From: 2010.05.17/outbox.cif.g08.bks.cpg/sg91_7_cif.got.tgz:12464.got - 2010.06.03 19:20:03.
