data_PCOD9547175
_publ_section_title
;
Structure prediction by ZEFSAII (Michael W. Deem and Ramdas Pophale) SiO2 
 PCOD9547175
Probable space group: P 4 21 2
;
_chemical_formula_sum "Si O2"
_cell_formula_units_Z 64
_cell_length_a 15.205645
_cell_length_b 15.205645
_cell_length_c 17.268935
_cell_angle_alpha 90.000000
_cell_angle_beta 90.000000
_cell_angle_gamma 90.000000
_cell_volume 3992.778780
_symmetry_space_group_name_H-M "P 4 21 2"
_symmetry_group_IT_number 90
_symmetry_cell_setting 'tetragonal'
loop_
_space_group_symop_operation_xyz
x,y,z
1/2-y,1/2+x,z
-x,-y,z
1/2+y,1/2-x,z
1/2+x,1/2-y,-z
1/2-x,1/2+y,-z
y,x,-z
-y,-x,-z
loop_
_atom_site_type_symbol
_atom_site_label
_atom_site_fract_x
_atom_site_fract_y
_atom_site_fract_z
Si Si1 0.929539 0.207994 0.964249
Si Si2 0.395910 0.892938 0.647157
Si Si3 0.256040 0.028909 0.881721
Si Si4 0.183234 0.696743 0.840838
Si Si5 0.849640 0.893664 0.087096
Si Si6 0.353040 0.186143 0.807303
Si Si7 0.393319 0.895734 0.478156
Si Si8 0.890965 0.601137 0.690671
O O1 0.888264 0.277676 0.905391
O O2 0.001539 0.146290 0.921422
O O3 0.852247 0.147754 0.000000
O O4 0.983563 0.253844 0.033843
O O5 0.501496 0.880979 0.651716
O O6 0.351262 0.848167 0.720588
O O7 0.362695 0.862596 0.562180
O O8 0.159555 0.072781 0.870163
O O9 0.323742 0.108578 0.866608
O O10 0.281351 0.950912 0.824398
O O11 0.256882 0.631923 0.875647
O O12 0.234811 0.786152 0.820916
O O13 0.142866 0.656842 0.763457
O O14 0.854534 0.854534 0.000000
O O15 0.498641 0.881322 0.478258
O O16 0.359258 0.865718 0.394279
O O17 0.880771 0.495533 0.694374
#
# Coordination Sequence:
#
# PCOD9547175 Si02
#       8
#     8   8   8   8   8   8   8   8
#     4  11  21  36  54  69  91 132 176 204 239 294
#     4   9  15  26  48  73  99 126 158 193 238 295
#     4  10  22  34  51  71  99 129 161 204 250 290
#     4  11  21  33  50  72 101 131 158 209 257 284
#     4   9  21  36  51  69  95 128 168 208 246 288
#     4  11  20  34  49  74 102 128 159 202 253 297
#     4   7  12  24  45  72  95 124 158 193 232 286
#     4   9  17  32  52  72  97 127 164 198 240 298
#
# _framework density 16.028936999999999
#
# number of rings (size 3 to 8) (size 9 to 14) (size 15 to 20)
#    0.000    2.375    2.500    2.625    3.500    2.500 
#    0.000    0.625    0.000    0.000    0.000    0.000 
#    0.000    0.000    0.000    3.250    0.000    0.000 
#
# Total GULP energy -356318.809830 kJ/mol
# GULP energy per Si atom -5567.481404 kJ/mol
# Density = 1.599245 g / cm^3
# Si number density = 16.028937 Si / 1000 Ang^3
#
#
#
# Elastic Constant Matrix: (Units=GPa)
#
#
# Indices 1 2 3 4 5 6 
#
# 1 55.6213 -8.0283 31.1754 0.0000 0.0000 0.0000
# 2 -8.0283 55.6163 31.1749 0.0000 0.0000 0.0000
# 3 31.1754 31.1749 108.1299 0.0000 0.0000 0.0000
# 4 0.0000 0.0000 0.0000 21.9062 0.0000 0.0000
# 5 0.0000 0.0000 0.0000 0.0000 21.9062 0.0000
# 6 0.0000 0.0000 0.0000 0.0000 0.0000 -4.2150
#
#
#
# Elastic Compliance Matrix: (Units=1/GPa)
#
#
# Indices 1 2 3 4 5 6 
#
# 1 0.024738 0.009028 -0.009735 0.000000 0.000000 0.000000
# 2 0.009028 0.024741 -0.009736 0.000000 0.000000 0.000000
# 3 -0.009735 -0.009736 0.014862 0.000000 0.000000 0.000000
# 4 0.000000 0.000000 0.000000 0.045649 0.000000 0.000000
# 5 0.000000 0.000000 0.000000 0.000000 0.045649 0.000000
# 6 0.000000 0.000000 0.000000 0.000000 0.000000 -0.237247
#
#
# Mechanical properties :
#
#
# Convention : Reuss Voigt Hill
#
# Bulk Modulus (GPa) = 23.01248 36.44573 29.72910
# Shear Modulus (GPa) = -108.14040 18.92250 -44.60895
#
# Velocity S-wave (km/s) = -8.22266 3.43960 -5.28116
# Velocity P-wave (km/s) = 8.70411 6.20977 4.31279
#
# Compressibility (1/GPa) = 0.04345468
#
# Stress axis : x y z
#
# Youngs Moduli (GPa) = 40.42308 40.41895 67.28611
#
# Poissons Ratio (x) = -0.36490 0.65505
# Poissons Ratio (y) = -0.36494 0.65509
# Poissons Ratio (z) = 0.39353 0.39352
#
# Static dielectric constant tensor:
#      x y z
#    x 1.534180 0.000000 0.000000 
#    y 0.000000 1.534180 0.000000 
#    z 0.000000 0.000000 1.573670 
# 
# From -- ./inp_files/2687.got.cif
#   From: 2010.05.17/outbox.cif.g08.bks.cpg/sg90_2_cif.got.tgz:2687.got - 2010.06.03 19:17:45.
