data_PCOD9547350
_publ_section_title
;
Structure prediction by ZEFSAII (Michael W. Deem and Ramdas Pophale) SiO2 
 PCOD9547350
Probable space group: P 4 21 2
;
_chemical_formula_sum "Si O2"
_cell_formula_units_Z 50
_cell_length_a 8.438331
_cell_length_b 8.438331
_cell_length_c 31.690444
_cell_angle_alpha 90.000000
_cell_angle_beta 90.000000
_cell_angle_gamma 90.000000
_cell_volume 2256.531694
_symmetry_space_group_name_H-M "P 4 21 2"
_symmetry_group_IT_number 90
_symmetry_cell_setting 'tetragonal'
loop_
_space_group_symop_operation_xyz
x,y,z
1/2-y,1/2+x,z
-x,-y,z
1/2+y,1/2-x,z
1/2+x,1/2-y,-z
1/2-x,1/2+y,-z
y,x,-z
-y,-x,-z
loop_
_atom_site_type_symbol
_atom_site_label
_atom_site_fract_x
_atom_site_fract_y
_atom_site_fract_z
Si Si1 0.091991 0.248063 0.120896
Si Si2 0.746993 0.407636 0.800449
Si Si3 0.399110 0.660023 0.453913
Si Si4 0.758465 0.403544 0.366328
Si Si5 0.596008 0.251318 0.040558
Si Si6 0.918540 0.753447 0.706915
Si Si7 0.000000 0.500000 0.556671
O O1 0.196035 0.410097 0.119234
O O2 0.131506 0.152831 0.163411
O O3 0.148291 0.142011 0.081700
O O4 0.805113 0.589871 0.804330
O O5 0.676307 0.388493 0.753390
O O6 0.500000 0.500000 0.456020
O O7 0.319954 0.680047 0.500000
O O8 0.285371 0.630357 0.414510
O O9 0.513825 0.806770 0.444348
O O10 0.802290 0.584373 0.358287
O O11 0.624048 0.354051 0.333637
O O12 0.412893 0.197339 0.040285
O O13 0.647480 0.352521 0.000000
O O14 0.809538 0.596702 0.705107
#
# Coordination Sequence:
#
# PCOD9547350 Si02
#       7
#     8   8   8   8   8   8   2
#     4  11  24  39  58  88 124 164 209 260 316 384
#     4   9  19  39  63  90 121 159 211 269 320 380
#     4  11  28  48  72 107 137 176 232 281 335 405
#     4  11  26  43  64  95 136 173 212 274 337 394
#     4  11  24  41  62  90 123 160 205 259 314 378
#     4   9  21  40  65  93 125 167 219 269 322 395
#     4  12  28  44  80 100 132 192 220 276 340 400
#
# _framework density 22.157900000000001
#
# number of rings (size 3 to 8) (size 9 to 14) (size 15 to 20)
#    0.000    1.600    0.000    3.840    8.960    8.000 
#    0.000    4.800    0.000    0.000    0.000    0.000 
#    0.000    0.000    0.000    0.000    0.000    0.000 
#
# Total GULP energy -279388.792255 kJ/mol
# GULP energy per Si atom -5587.775845 kJ/mol
# Density = 2.210747 g / cm^3
# Si number density = 22.157900 Si / 1000 Ang^3
#
#
#
# Elastic Constant Matrix: (Units=GPa)
#
#
# Indices 1 2 3 4 5 6 
#
# 1 51.3563 31.1627 21.4780 0.0000 0.0000 0.0000
# 2 31.1627 51.3558 21.4780 0.0000 0.0000 0.0000
# 3 21.4780 21.4780 114.1892 0.0000 0.0000 0.0000
# 4 0.0000 0.0000 0.0000 48.0377 0.0000 0.0000
# 5 0.0000 0.0000 0.0000 0.0000 48.0358 0.0000
# 6 0.0000 0.0000 0.0000 0.0000 0.0000 84.0708
#
#
#
# Elastic Compliance Matrix: (Units=1/GPa)
#
#
# Indices 1 2 3 4 5 6 
#
# 1 0.031477 -0.018044 -0.002527 0.000000 0.000000 0.000000
# 2 -0.018044 0.031478 -0.002527 0.000000 0.000000 0.000000
# 3 -0.002527 -0.002527 0.009708 0.000000 0.000000 0.000000
# 4 0.000000 0.000000 0.000000 0.020817 0.000000 0.000000
# 5 0.000000 0.000000 0.000000 0.000000 0.020818 0.000000
# 6 0.000000 0.000000 0.000000 0.000000 0.000000 0.011895
#
#
# Mechanical properties :
#
#
# Convention : Reuss Voigt Hill
#
# Bulk Modulus (GPa) = 37.78088 40.57094 39.17591
# Shear Modulus (GPa) = 27.59227 45.54770 36.56999
#
# Velocity S-wave (km/s) = 3.53265 4.53879 4.06695
# Velocity P-wave (km/s) = 5.80752 6.76883 6.30652
#
# Compressibility (1/GPa) = 0.02646841
#
# Stress axis : x y z
#
# Youngs Moduli (GPa) = 31.76879 31.76845 103.00865
#
# Poissons Ratio (x) = 0.57322 0.26028
# Poissons Ratio (y) = 0.57323 0.26028
# Poissons Ratio (z) = 0.08027 0.08027
#
# Static dielectric constant tensor:
#      x y z
#    x 1.806440 0.000000 0.000000 
#    y 0.000000 1.806440 0.000000 
#    z 0.000000 0.000000 1.807360 
# 
# From -- ./inp_files/3127.got.cif
#   From: 2010.05.17/outbox.cif.g08.bks.cpg/sg90_2_cif.got.tgz:3127.got - 2010.06.03 19:17:45.
