data_PCOD9547910
_publ_section_title
;
Structure prediction by ZEFSAII (Michael W. Deem and Ramdas Pophale) SiO2 
 PCOD9547910
Probable space group: P 41 2 2
;
_chemical_formula_sum "Si O2"
_cell_formula_units_Z 64
_cell_length_a 12.276631
_cell_length_b 12.276631
_cell_length_c 20.972078
_cell_angle_alpha 90.000000
_cell_angle_beta 90.000000
_cell_angle_gamma 90.000000
_cell_volume 3160.820760
_symmetry_space_group_name_H-M "P 41 2 2"
_symmetry_group_IT_number 91
_symmetry_cell_setting 'tetragonal'
loop_
_space_group_symop_operation_xyz
x,y,z
-y,x,1/4+z
-x,-y,1/2+z
y,-x,3/4+z
x,-y,1/2-z
-x,y,-z
y,x,3/4-z
-y,-x,1/4-z
loop_
_atom_site_type_symbol
_atom_site_label
_atom_site_fract_x
_atom_site_fract_y
_atom_site_fract_z
Si Si1 0.110275 0.225776 0.120315
Si Si2 0.449208 0.664946 0.065494
Si Si3 0.074220 0.519195 0.856971
Si Si4 0.250354 0.813164 0.013820
Si Si5 0.728243 0.876713 0.410792
Si Si6 0.052225 0.753898 0.800826
Si Si7 0.872181 0.399545 0.489620
Si Si8 0.551575 0.167497 0.347663
O O1 0.141445 0.263964 0.191985
O O2 0.171533 0.116429 0.101014
O O3 0.153237 0.324361 0.076803
O O4 0.980036 0.228379 0.119351
O O5 0.408737 0.591264 0.125000
O O6 0.351655 0.746626 0.043355
O O7 0.538097 0.742591 0.098415
O O8 0.500000 0.616101 0.000000
O O9 0.119634 0.402940 0.835068
O O10 0.068471 0.624673 0.812377
O O11 0.143366 0.563018 0.917358
O O12 0.948897 0.490478 0.875654
O O13 0.226212 0.922457 0.053184
O O14 0.156386 0.723638 0.006798
O O15 0.770896 0.770896 0.375000
O O16 0.776166 0.898145 0.481037
O O17 0.806120 0.475200 0.537988
O O18 0.000000 0.417367 0.500000
#
# Coordination Sequence:
#
# PCOD9547910 Si02
#       8
#     8   8   8   8   8   8   8   8
#     4  10  22  40  61  89 133 171 213 264 327 397
#     4  12  23  38  66  98 130 168 224 288 342 405
#     4  10  20  38  65  90 127 167 227 277 315 385
#     4  11  21  38  63  97 126 164 214 270 326 402
#     4  10  24  41  59  94 127 173 227 267 326 404
#     4  11  22  38  66  94 130 170 218 276 335 389
#     4  10  21  37  59  92 128 163 209 263 328 387
#     4  10  20  36  63  93 120 170 217 266 321 387
#
# _framework density 20.247906
#
# number of rings (size 3 to 8) (size 9 to 14) (size 15 to 20)
#    0.000    1.500    5.000    0.375    1.750    0.500 
#    4.500    0.000    0.000    6.000    0.000    0.000 
#    0.000    0.000    0.000    0.000    0.000    0.000 
#
# Total GULP energy -356878.341946 kJ/mol
# GULP energy per Si atom -5576.224093 kJ/mol
# Density = 2.020182 g / cm^3
# Si number density = 20.247906 Si / 1000 Ang^3
#
#
#
# Elastic Constant Matrix: (Units=GPa)
#
#
# Indices 1 2 3 4 5 6 
#
# 1 59.4748 26.0262 25.7180 0.0000 0.0000 0.0000
# 2 26.0262 59.4747 25.7182 0.0000 0.0000 0.0000
# 3 25.7180 25.7182 75.7670 0.0000 0.0000 0.0000
# 4 0.0000 0.0000 0.0000 24.6103 0.0000 0.0000
# 5 0.0000 0.0000 0.0000 0.0000 24.6102 0.0000
# 6 0.0000 0.0000 0.0000 0.0000 0.0000 25.0642
#
#
#
# Elastic Compliance Matrix: (Units=1/GPa)
#
#
# Indices 1 2 3 4 5 6 
#
# 1 0.022297 -0.007600 -0.004989 0.000000 0.000000 0.000000
# 2 -0.007600 0.022297 -0.004989 0.000000 0.000000 0.000000
# 3 -0.004989 -0.004989 0.016585 0.000000 0.000000 0.000000
# 4 0.000000 0.000000 0.000000 0.040633 0.000000 0.000000
# 5 0.000000 0.000000 0.000000 0.000000 0.040634 0.000000
# 6 0.000000 0.000000 0.000000 0.000000 0.000000 0.039898
#
#
# Mechanical properties :
#
#
# Convention : Reuss Voigt Hill
#
# Bulk Modulus (GPa) = 38.42583 38.84902 38.63742
# Shear Modulus (GPa) = 22.10704 22.67387 22.39045
#
# Velocity S-wave (km/s) = 3.30785 3.34999 3.32899
# Velocity P-wave (km/s) = 5.79725 5.84736 5.82236
#
# Compressibility (1/GPa) = 0.02602416
#
# Stress axis : x y z
#
# Youngs Moduli (GPa) = 44.84957 44.84936 60.29542
#
# Poissons Ratio (x) = 0.34085 0.30079
# Poissons Ratio (y) = 0.34085 0.30080
# Poissons Ratio (z) = 0.22374 0.22374
#
# Static dielectric constant tensor:
#      x y z
#    x 1.714780 0.000000 0.000000 
#    y 0.000000 1.714780 0.000000 
#    z 0.000000 0.000000 1.770610 
# 
# From -- ./inp_files/12963.got.cif
#   From: 2010.05.17/outbox.cif.g08.bks.cpg/sg91_7_cif.got.tgz:12963.got - 2010.06.03 19:20:03.
