data_PCOD9547891
_publ_section_title
;
Structure prediction by ZEFSAII (Michael W. Deem and Ramdas Pophale) SiO2 
 PCOD9547891
Probable space group: P 41 2 2
;
_chemical_formula_sum "Si O2"
_cell_formula_units_Z 48
_cell_length_a 14.690334
_cell_length_b 14.690334
_cell_length_c 11.209007
_cell_angle_alpha 90.000000
_cell_angle_beta 90.000000
_cell_angle_gamma 90.000000
_cell_volume 2418.969990
_symmetry_space_group_name_H-M "P 41 2 2"
_symmetry_group_IT_number 91
_symmetry_cell_setting 'tetragonal'
loop_
_space_group_symop_operation_xyz
x,y,z
-y,x,1/4+z
-x,-y,1/2+z
y,-x,3/4+z
x,-y,1/2-z
-x,y,-z
y,x,3/4-z
-y,-x,1/4-z
loop_
_atom_site_type_symbol
_atom_site_label
_atom_site_fract_x
_atom_site_fract_y
_atom_site_fract_z
Si Si1 0.673870 0.698353 0.512352
Si Si2 0.023719 0.595517 0.689987
Si Si3 0.600306 0.807514 0.709125
Si Si4 0.294332 0.052052 0.352514
Si Si5 0.500000 0.434496 0.000000
Si Si6 0.749706 0.749706 0.875000
Si Si7 0.596387 0.152384 0.280170
O O1 0.703381 0.703381 0.375000
O O2 0.631857 0.787410 0.575096
O O3 0.590288 0.627249 0.516756
O O4 0.768205 0.664068 0.570788
O O5 0.051942 0.500000 0.750000
O O6 0.009805 0.669782 0.792106
O O7 0.923319 0.579641 0.631410
O O8 0.092155 0.623429 0.585041
O O9 0.667434 0.740903 0.782313
O O10 0.495160 0.795513 0.737296
O O11 0.625914 0.904493 0.767795
O O12 0.256496 0.144220 0.411750
O O13 0.236899 0.000000 0.250000
O O14 0.487725 0.487725 0.875000
#
# Coordination Sequence:
#
# PCOD9547891 Si02
#       7
#     8   8   8   8   4   4   8
#     4  11  24  39  58  82 118 166 210 252 308 364
#     4  11  21  38  57  91 120 148 200 254 318 379
#     4  10  20  39  54  86 117 158 200 249 305 361
#     4  10  20  36  60  86 117 155 190 247 308 369
#     4  10  22  46  58  80 114 164 228 274 302 358
#     4   8  20  34  58  84 122 146 192 252 288 382
#     4  11  24  36  61  86 119 166 198 258 313 368
#
# _framework density 19.843154999999999
#
# number of rings (size 3 to 8) (size 9 to 14) (size 15 to 20)
#    1.000    0.667    1.667    4.000    4.667    0.000 
#    7.500    0.000    0.000    0.000    0.000    2.333 
#    0.000    0.000    0.000    0.000    0.000    0.000 
#
# Total GULP energy -267226.425891 kJ/mol
# GULP energy per Si atom -5567.217206 kJ/mol
# Density = 1.979799 g / cm^3
# Si number density = 19.843155 Si / 1000 Ang^3
#
#
#
# Elastic Constant Matrix: (Units=GPa)
#
#
# Indices 1 2 3 4 5 6 
#
# 1 77.8294 28.9130 28.7420 0.0000 0.0000 0.0000
# 2 28.9130 77.8294 28.7420 0.0000 0.0000 0.0000
# 3 28.7420 28.7420 103.6791 0.0000 0.0000 0.0000
# 4 0.0000 0.0000 0.0000 31.6240 0.0000 0.0000
# 5 0.0000 0.0000 0.0000 0.0000 31.6240 0.0000
# 6 0.0000 0.0000 0.0000 0.0000 0.0000 17.0273
#
#
#
# Elastic Compliance Matrix: (Units=1/GPa)
#
#
# Indices 1 2 3 4 5 6 
#
# 1 0.015728 -0.004715 -0.003053 0.000000 0.000000 0.000000
# 2 -0.004715 0.015728 -0.003053 0.000000 0.000000 0.000000
# 3 -0.003053 -0.003053 0.011338 0.000000 0.000000 0.000000
# 4 0.000000 0.000000 0.000000 0.031622 0.000000 0.000000
# 5 0.000000 0.000000 0.000000 0.000000 0.031622 0.000000
# 6 0.000000 0.000000 0.000000 0.000000 0.000000 0.058729
#
#
# Mechanical properties :
#
#
# Convention : Reuss Voigt Hill
#
# Bulk Modulus (GPa) = 47.27880 48.01466 47.64673
# Shear Modulus (GPa) = 25.84539 27.58447 26.71493
#
# Velocity S-wave (km/s) = 3.61291 3.73248 3.67318
# Velocity P-wave (km/s) = 6.42512 6.54407 6.48487
#
# Compressibility (1/GPa) = 0.02115113
#
# Stress axis : x y z
#
# Youngs Moduli (GPa) = 63.58199 63.58199 88.20068
#
# Poissons Ratio (x) = 0.29981 0.26927
# Poissons Ratio (y) = 0.29981 0.26927
# Poissons Ratio (z) = 0.19411 0.19411
#
# Static dielectric constant tensor:
#      x y z
#    x 1.744780 0.000000 0.000000 
#    y 0.000000 1.744780 0.000000 
#    z 0.000000 0.000000 1.785400 
# 
# From -- ./inp_files/10804.got.cif
#   From: 2010.05.17/outbox.cif.g08.bks.cpg/sg91_6_cif.got.tgz:10804.got - 2010.06.03 19:20:03.
