data_PCOD9547635
_publ_section_title
;
Structure prediction by ZEFSAII (Michael W. Deem and Ramdas Pophale) SiO2 
 PCOD9547635
Probable space group: P 41 2 2
;
_chemical_formula_sum "Si O2"
_cell_formula_units_Z 44
_cell_length_a 11.929288
_cell_length_b 11.929288
_cell_length_c 17.943763
_cell_angle_alpha 90.000000
_cell_angle_beta 90.000000
_cell_angle_gamma 90.000000
_cell_volume 2553.539449
_symmetry_space_group_name_H-M "P 41 2 2"
_symmetry_group_IT_number 91
_symmetry_cell_setting 'tetragonal'
loop_
_space_group_symop_operation_xyz
x,y,z
-y,x,1/4+z
-x,-y,1/2+z
y,-x,3/4+z
x,-y,1/2-z
-x,y,-z
y,x,3/4-z
-y,-x,1/4-z
loop_
_atom_site_type_symbol
_atom_site_label
_atom_site_fract_x
_atom_site_fract_y
_atom_site_fract_z
Si Si1 0.720049 0.627734 0.226470
Si Si2 0.575219 0.033360 0.927918
Si Si3 0.643210 0.012459 0.161768
Si Si4 0.383713 0.230860 0.598055
Si Si5 0.761267 0.761267 0.375000
Si Si6 0.795418 0.351878 0.678776
O O1 0.694033 0.500000 0.250000
O O2 0.848673 0.629057 0.198002
O O3 0.649116 0.676219 0.158360
O O4 0.712910 0.702934 0.300560
O O5 0.483891 0.046501 0.862316
O O6 0.658709 0.929850 0.918964
O O7 0.500000 0.000930 0.000000
O O8 0.726844 0.108196 0.131478
O O9 0.652869 0.000000 0.250000
O O10 0.659738 0.889781 0.126763
O O11 0.337946 0.243692 0.514257
O O12 0.518287 0.226365 0.592415
O O13 0.729221 0.270780 0.625000
#
# Coordination Sequence:
#
# PCOD9547635 Si02
#       6
#     8   8   8   8   4   8
#     4  11  22  36  58  86 119 150 190 251 291 348
#     4  10  18  38  59  80 111 152 195 240 284 341
#     4  11  20  35  62  86 111 154 200 237 289 365
#     4  10  21  39  56  85 118 154 198 235 294 354
#     4  12  20  34  60  92 114 148 196 246 302 340
#     4  10  20  38  62  81 113 160 194 237 288 355
#
# _framework density 17.230986000000001
#
# number of rings (size 3 to 8) (size 9 to 14) (size 15 to 20)
#    0.000    1.455    9.091    0.000    0.000    4.364 
#    4.909    0.000    2.000    0.000    0.000    0.000 
#    0.000    0.000    0.000    0.000    0.000    0.000 
#
# Total GULP energy -245387.565988 kJ/mol
# GULP energy per Si atom -5576.990136 kJ/mol
# Density = 1.719177 g / cm^3
# Si number density = 17.230986 Si / 1000 Ang^3
#
#
#
# Elastic Constant Matrix: (Units=GPa)
#
#
# Indices 1 2 3 4 5 6 
#
# 1 60.7487 36.2105 47.9022 0.0000 0.0000 0.0000
# 2 36.2105 60.7479 47.9029 0.0000 0.0000 0.0000
# 3 47.9022 47.9029 129.4649 0.0000 0.0000 0.0000
# 4 0.0000 0.0000 0.0000 28.3845 0.0000 0.0000
# 5 0.0000 0.0000 0.0000 0.0000 28.3848 0.0000
# 6 0.0000 0.0000 0.0000 0.0000 0.0000 24.2248
#
#
#
# Elastic Compliance Matrix: (Units=1/GPa)
#
#
# Indices 1 2 3 4 5 6 
#
# 1 0.028505 -0.012248 -0.006015 0.000000 0.000000 0.000000
# 2 -0.012248 0.028506 -0.006016 0.000000 0.000000 0.000000
# 3 -0.006015 -0.006016 0.012175 0.000000 0.000000 0.000000
# 4 0.000000 0.000000 0.000000 0.035231 0.000000 0.000000
# 5 0.000000 0.000000 0.000000 0.000000 0.035230 0.000000
# 6 0.000000 0.000000 0.000000 0.000000 0.000000 0.041280
#
#
# Mechanical properties :
#
#
# Convention : Reuss Voigt Hill
#
# Bulk Modulus (GPa) = 48.47534 57.22140 52.84837
# Shear Modulus (GPa) = 21.15412 24.12853 22.64132
#
# Velocity S-wave (km/s) = 3.50763 3.74612 3.62883
# Velocity P-wave (km/s) = 6.67820 7.21053 6.94946
#
# Compressibility (1/GPa) = 0.02062905
#
# Stress axis : x y z
#
# Youngs Moduli (GPa) = 35.08162 35.08053 82.13234
#
# Poissons Ratio (x) = 0.42967 0.49403
# Poissons Ratio (y) = 0.42968 0.49407
# Poissons Ratio (z) = 0.21102 0.21103
#
# Static dielectric constant tensor:
#      x y z
#    x 1.597100 0.000000 0.000000 
#    y 0.000000 1.597100 0.000000 
#    z 0.000000 0.000000 1.601970 
# 
# From -- ./inp_files/5492.got.cif
#   From: 2010.05.17/outbox.cif.g08.bks.cpg/sg91_3_cif.got.tgz:5492.got - 2010.06.03 19:20:03.
