data_PCOD9547711
_publ_section_title
;
Structure prediction by ZEFSAII (Michael W. Deem and Ramdas Pophale) SiO2 
 PCOD9547711
Probable space group: P 41 2 2
;
_chemical_formula_sum "Si O2"
_cell_formula_units_Z 48
_cell_length_a 9.380542
_cell_length_b 9.380542
_cell_length_c 31.534900
_cell_angle_alpha 90.000000
_cell_angle_beta 90.000000
_cell_angle_gamma 90.000000
_cell_volume 2774.899909
_symmetry_space_group_name_H-M "P 41 2 2"
_symmetry_group_IT_number 91
_symmetry_cell_setting 'tetragonal'
loop_
_space_group_symop_operation_xyz
x,y,z
-y,x,1/4+z
-x,-y,1/2+z
y,-x,3/4+z
x,-y,1/2-z
-x,y,-z
y,x,3/4-z
-y,-x,1/4-z
loop_
_atom_site_type_symbol
_atom_site_label
_atom_site_fract_x
_atom_site_fract_y
_atom_site_fract_z
Si Si1 0.236609 0.651959 0.668781
Si Si2 0.162372 0.097823 0.491075
Si Si3 0.164793 0.241812 0.003251
Si Si4 0.933635 0.421969 0.795578
Si Si5 0.580439 0.409029 0.293590
Si Si6 0.731700 0.336750 0.672883
O O1 0.270128 0.729873 0.625000
O O2 0.260505 0.761966 0.707403
O O3 0.338514 0.515120 0.674488
O O4 0.075458 0.598985 0.677002
O O5 0.269264 0.126018 0.530445
O O6 0.222572 0.183970 0.451369
O O7 0.000000 0.136145 0.500000
O O8 0.169277 0.926189 0.484826
O O9 0.266193 0.329175 0.034745
O O10 0.000000 0.285944 0.000000
O O11 0.968255 0.500000 0.750000
O O12 0.821969 0.518419 0.820523
O O13 0.571830 0.500000 0.250000
O O14 0.424525 0.366936 0.308742
O O15 0.714556 0.285445 0.625000
#
# Coordination Sequence:
#
# PCOD9547711 Si02
#       6
#     8   8   8   8   8   8
#     4  10  19  33  55  80 103 135 180 223 261 309
#     4   9  18  37  59  76 101 142 182 214 260 323
#     4   9  19  36  57  79 105 139 177 216 264 324
#     4   9  18  37  58  74 104 148 178 206 265 333
#     4  10  19  34  54  76 106 141 175 213 264 325
#     4  11  22  35  52  79 109 139 176 220 265 312
#
# _framework density 17.297920000000001
#
# number of rings (size 3 to 8) (size 9 to 14) (size 15 to 20)
#    0.000    2.333    0.000    5.500    0.000    2.000 
#    0.000   14.167    0.000    0.000    0.000    0.000 
#    0.000    0.000    0.000    0.000    0.000    0.000 
#
# Total GULP energy -267700.894656 kJ/mol
# GULP energy per Si atom -5577.101972 kJ/mol
# Density = 1.725855 g / cm^3
# Si number density = 17.297920 Si / 1000 Ang^3
#
#
#
# Elastic Constant Matrix: (Units=GPa)
#
#
# Indices 1 2 3 4 5 6 
#
# 1 125.6669 72.6808 57.1600 0.0000 0.0000 0.0000
# 2 72.6808 125.6669 57.1604 0.0000 0.0000 0.0000
# 3 57.1600 57.1604 82.9895 0.0000 0.0000 0.0000
# 4 0.0000 0.0000 0.0000 11.4266 0.0000 0.0000
# 5 0.0000 0.0000 0.0000 0.0000 11.4266 0.0000
# 6 0.0000 0.0000 0.0000 0.0000 0.0000 18.4075
#
#
#
# Elastic Compliance Matrix: (Units=1/GPa)
#
#
# Indices 1 2 3 4 5 6 
#
# 1 0.013617 -0.005256 -0.005758 0.000000 0.000000 0.000000
# 2 -0.005256 0.013617 -0.005759 0.000000 0.000000 0.000000
# 3 -0.005758 -0.005759 0.019982 0.000000 0.000000 0.000000
# 4 0.000000 0.000000 0.000000 0.087515 0.000000 0.000000
# 5 0.000000 0.000000 0.000000 0.000000 0.087515 0.000000
# 6 0.000000 0.000000 0.000000 0.000000 0.000000 0.054326
#
#
# Mechanical properties :
#
#
# Convention : Reuss Voigt Hill
#
# Bulk Modulus (GPa) = 73.15571 78.70285 75.92928
# Shear Modulus (GPa) = 15.88944 18.07361 16.98152
#
# Velocity S-wave (km/s) = 3.03409 3.23591 3.13662
# Velocity P-wave (km/s) = 7.39308 7.71743 7.55700
#
# Compressibility (1/GPa) = 0.01366947
#
# Stress axis : x y z
#
# Youngs Moduli (GPa) = 73.43906 73.43864 50.04443
#
# Poissons Ratio (x) = 0.38600 0.28818
# Poissons Ratio (y) = 0.38600 0.28819
# Poissons Ratio (z) = 0.42290 0.42290
#
# Static dielectric constant tensor:
#      x y z
#    x 1.586140 0.000000 0.000000 
#    y 0.000000 1.586140 0.000000 
#    z 0.000000 0.000000 1.568910 
# 
# From -- ./inp_files/22254.got.cif
#   From: 2010.05.17/outbox.cif.g08.bks.cpg/sg91_12_cif.got.tgz:22254.got - 2010.06.03 19:20:03.
