data_PCOD9547794
_publ_section_title
;
Structure prediction by ZEFSAII (Michael W. Deem and Ramdas Pophale) SiO2 
 PCOD9547794
Probable space group: P 41 2 2
;
_chemical_formula_sum "Si O2"
_cell_formula_units_Z 36
_cell_length_a 8.295954
_cell_length_b 8.295954
_cell_length_c 22.090743
_cell_angle_alpha 90.000000
_cell_angle_beta 90.000000
_cell_angle_gamma 90.000000
_cell_volume 1520.347953
_symmetry_space_group_name_H-M "P 41 2 2"
_symmetry_group_IT_number 91
_symmetry_cell_setting 'tetragonal'
loop_
_space_group_symop_operation_xyz
x,y,z
-y,x,1/4+z
-x,-y,1/2+z
y,-x,3/4+z
x,-y,1/2-z
-x,y,-z
y,x,3/4-z
-y,-x,1/4-z
loop_
_atom_site_type_symbol
_atom_site_label
_atom_site_fract_x
_atom_site_fract_y
_atom_site_fract_z
Si Si1 0.617192 0.941181 0.581195
Si Si2 0.618083 0.575549 0.312261
Si Si3 0.785066 0.500000 0.750000
Si Si4 0.165056 0.163603 0.969274
Si Si5 0.144301 0.193812 0.548847
O O1 0.491288 0.798130 0.571986
O O2 0.738392 0.899970 0.527465
O O3 0.702567 0.918475 0.644795
O O4 0.544219 0.110468 0.560476
O O5 0.550274 0.500000 0.250000
O O6 0.531547 0.531547 0.375000
O O7 0.669797 0.760619 0.305567
O O8 0.735268 0.314465 0.771879
O O9 0.000000 0.208295 0.000000
O O10 0.162373 0.996092 0.931250
O O11 0.000000 0.193831 0.500000
#
# Coordination Sequence:
#
# PCOD9547794 Si02
#       5
#     8   8   4   8   8
#     4  10  19  39  60  87 138 168 219 277 344 421
#     4  10  20  39  60  85 131 172 216 283 341 413
#     4  10  20  42  64 100 144 174 218 314 348 404
#     4   9  19  32  60  98 117 160 219 275 334 404
#     4  10  21  37  65  97 134 181 231 282 357 425
#
# _framework density 23.678788999999998
#
# number of rings (size 3 to 8) (size 9 to 14) (size 15 to 20)
#    0.000    2.222    5.556    0.000    3.111    7.111 
#    2.000    5.556    0.000    0.000    0.000    0.000 
#    0.000    0.000    0.000    0.000    0.000    0.000 
#
# Total GULP energy -200406.085079 kJ/mol
# GULP energy per Si atom -5566.835697 kJ/mol
# Density = 2.362489 g / cm^3
# Si number density = 23.678789 Si / 1000 Ang^3
#
#
#
# Elastic Constant Matrix: (Units=GPa)
#
#
# Indices 1 2 3 4 5 6 
#
# 1 22.8068 58.9631 32.1126 0.0000 0.0000 0.0000
# 2 58.9631 22.8068 32.1126 0.0000 0.0000 0.0000
# 3 32.1126 32.1126 143.9982 0.0000 0.0000 0.0000
# 4 0.0000 0.0000 0.0000 27.6692 0.0000 0.0000
# 5 0.0000 0.0000 0.0000 0.0000 27.6692 0.0000
# 6 0.0000 0.0000 0.0000 0.0000 0.0000 96.9980
#
#
#
# Elastic Compliance Matrix: (Units=1/GPa)
#
#
# Indices 1 2 3 4 5 6 
#
# 1 -0.006416 0.021242 -0.003306 0.000000 0.000000 0.000000
# 2 0.021242 -0.006416 -0.003306 0.000000 0.000000 0.000000
# 3 -0.003306 -0.003306 0.008419 0.000000 0.000000 0.000000
# 4 0.000000 0.000000 0.000000 0.036141 0.000000 0.000000
# 5 0.000000 0.000000 0.000000 0.000000 0.036141 0.000000
# 6 0.000000 0.000000 0.000000 0.000000 0.000000 0.010309
#
#
# Mechanical properties :
#
#
# Convention : Reuss Voigt Hill
#
# Bulk Modulus (GPa) = 40.24714 48.44313 44.34514
# Shear Modulus (GPa) = 87.40702 34.89551 61.15127
#
# Velocity S-wave (km/s) = 6.08225 3.84305 5.08738
# Velocity P-wave (km/s) = 8.14611 6.33994 7.29911
#
# Compressibility (1/GPa) = 0.02484648
#
# Stress axis : x y z
#
# Youngs Moduli (GPa) = -155.86922 -155.86922 118.77581
#
# Poissons Ratio (x) = 3.31098 0.39272
# Poissons Ratio (y) = 3.31098 0.39272
# Poissons Ratio (z) = -0.51536 -0.51536
#
# Static dielectric constant tensor:
#      x y z
#    x 2.611690 0.000000 0.000000 
#    y 0.000000 2.611690 0.000000 
#    z 0.000000 0.000000 1.826040 
# 
# From -- ./inp_files/6154.got.cif
#   From: 2010.05.17/outbox.cif.g08.bks.cpg/sg91_4_cif.got.tgz:6154.got - 2010.06.03 19:20:03.
