data_PCOD9547721
_publ_section_title
;
Structure prediction by ZEFSAII (Michael W. Deem and Ramdas Pophale) SiO2 
 PCOD9547721
Probable space group: P 41 2 2
;
_chemical_formula_sum "Si O2"
_cell_formula_units_Z 48
_cell_length_a 9.304942
_cell_length_b 9.304942
_cell_length_c 31.562131
_cell_angle_alpha 90.000000
_cell_angle_beta 90.000000
_cell_angle_gamma 90.000000
_cell_volume 2732.710710
_symmetry_space_group_name_H-M "P 41 2 2"
_symmetry_group_IT_number 91
_symmetry_cell_setting 'tetragonal'
loop_
_space_group_symop_operation_xyz
x,y,z
-y,x,1/4+z
-x,-y,1/2+z
y,-x,3/4+z
x,-y,1/2-z
-x,y,-z
y,x,3/4-z
-y,-x,1/4-z
loop_
_atom_site_type_symbol
_atom_site_label
_atom_site_fract_x
_atom_site_fract_y
_atom_site_fract_z
Si Si1 0.832032 0.172402 0.830879
Si Si2 0.172522 0.165313 0.073271
Si Si3 0.332385 0.327758 0.751803
Si Si4 0.838453 0.172576 0.174875
Si Si5 0.169067 0.824806 0.171012
Si Si6 0.363291 0.825795 0.251406
O O1 0.800168 0.220470 0.878815
O O2 0.721391 0.211633 0.794443
O O3 0.994432 0.213254 0.818839
O O4 0.833292 0.998446 0.832666
O O5 0.999344 0.176356 0.066051
O O6 0.215072 0.996987 0.071807
O O7 0.260123 0.248061 0.037964
O O8 0.331862 0.500000 0.750000
O O9 0.257999 0.266039 0.794214
O O10 0.490568 0.260933 0.750095
O O11 0.806895 0.193106 0.125000
O O12 0.224944 0.775057 0.125000
O O13 0.266177 0.787394 0.210817
O O14 0.386743 0.000000 0.250000
#
# Coordination Sequence:
#
# PCOD9547721 Si02
#       6
#     8   8   8   8   8   8
#     4   8  16  32  60  88 102 123 169 228 274 309
#     4   9  17  35  60  83 104 129 170 221 270 315
#     4  12  25  36  47  73 113 151 180 208 251 306
#     4   9  18  36  62  85 102 128 171 222 271 314
#     4   8  15  31  58  86 104 124 168 227 273 310
#     4  10  19  34  55  77 104 141 179 212 256 312
#
# _framework density 17.564978
#
# number of rings (size 3 to 8) (size 9 to 14) (size 15 to 20)
#    0.000    2.667    0.000    4.500    0.000    4.000 
#    0.000   10.833    0.000    0.000    0.000    0.000 
#    0.000    0.000    0.000    0.000    0.000    0.000 
#
# Total GULP energy -267648.296864 kJ/mol
# GULP energy per Si atom -5576.006185 kJ/mol
# Density = 1.752500 g / cm^3
# Si number density = 17.564978 Si / 1000 Ang^3
#
#
#
# Elastic Constant Matrix: (Units=GPa)
#
#
# Indices 1 2 3 4 5 6 
#
# 1 96.7594 64.0689 89.2508 0.0000 0.0000 0.0000
# 2 64.0689 96.7592 89.2507 0.0000 0.0000 0.0000
# 3 89.2508 89.2507 141.0412 0.0000 0.0000 0.0000
# 4 0.0000 0.0000 0.0000 -0.2944 0.0000 0.0000
# 5 0.0000 0.0000 0.0000 0.0000 -0.2945 0.0000
# 6 0.0000 0.0000 0.0000 0.0000 0.0000 16.4815
#
#
#
# Elastic Compliance Matrix: (Units=1/GPa)
#
#
# Indices 1 2 3 4 5 6 
#
# 1 0.025739 -0.004851 -0.013218 0.000000 0.000000 0.000000
# 2 -0.004851 0.025739 -0.013218 0.000000 0.000000 0.000000
# 3 -0.013218 -0.013218 0.023819 0.000000 0.000000 0.000000
# 4 0.000000 0.000000 0.000000 -3.396388 0.000000 0.000000
# 5 0.000000 0.000000 0.000000 0.000000 -3.395531 0.000000
# 6 0.000000 0.000000 0.000000 0.000000 0.000000 0.060674
#
#
# Mechanical properties :
#
#
# Convention : Reuss Voigt Hill
#
# Bulk Modulus (GPa) = 78.59621 91.07784 84.83702
# Shear Modulus (GPa) = -0.75883 9.31113 4.27615
#
# Velocity S-wave (km/s) = -0.65799 2.30488 1.56197
# Velocity P-wave (km/s) = 6.65326 7.68426 7.18727
#
# Compressibility (1/GPa) = 0.01272326
#
# Stress axis : x y z
#
# Youngs Moduli (GPa) = 38.85102 38.85089 41.98279
#
# Poissons Ratio (x) = 0.18845 0.55494
# Poissons Ratio (y) = 0.18845 0.55495
# Poissons Ratio (z) = 0.51355 0.51355
#
# Static dielectric constant tensor:
#      x y z
#    x 1.581610 0.000000 0.000000 
#    y 0.000000 1.581610 0.000000 
#    z 0.000000 0.000000 1.617390 
# 
# From -- ./inp_files/7924.got.cif
#   From: 2010.05.17/outbox.cif.g08.bks.cpg/sg91_4_cif.got.tgz:7924.got - 2010.06.03 19:20:03.
