data_PCOD9547289
_publ_section_title
;
Structure prediction by ZEFSAII (Michael W. Deem and Ramdas Pophale) SiO2 
 PCOD9547289
Probable space group: P 4 21 2
;
_chemical_formula_sum "Si O2"
_cell_formula_units_Z 40
_cell_length_a 9.560254
_cell_length_b 9.560254
_cell_length_c 23.456401
_cell_angle_alpha 90.000000
_cell_angle_beta 90.000000
_cell_angle_gamma 90.000000
_cell_volume 2143.878847
_symmetry_space_group_name_H-M "P 4 21 2"
_symmetry_group_IT_number 90
_symmetry_cell_setting 'tetragonal'
loop_
_space_group_symop_operation_xyz
x,y,z
1/2-y,1/2+x,z
-x,-y,z
1/2+y,1/2-x,z
1/2+x,1/2-y,-z
1/2-x,1/2+y,-z
y,x,-z
-y,-x,-z
loop_
_atom_site_type_symbol
_atom_site_label
_atom_site_fract_x
_atom_site_fract_y
_atom_site_fract_z
Si Si1 0.168133 0.138405 0.830916
Si Si2 0.721748 0.083179 0.464048
Si Si3 0.289571 0.107449 0.957590
Si Si4 0.855653 0.132565 0.217503
Si Si5 0.774427 0.563630 0.668467
O O1 0.229202 0.129506 0.894109
O O2 0.228553 0.271607 0.799696
O O3 0.001618 0.147216 0.823967
O O4 0.210263 0.999161 0.796665
O O5 0.578509 0.173940 0.474189
O O6 0.846023 0.153978 0.500000
O O7 0.765058 0.085358 0.397355
O O8 0.441251 0.182144 0.965144
O O9 0.178276 0.178276 0.000000
O O10 0.839865 0.090526 0.283192
O O11 0.834141 0.407479 0.676663
#
# Coordination Sequence:
#
# PCOD9547289 Si02
#       5
#     8   8   8   8   8
#     4  11  24  40  64  92 126 162 197 253 304 363
#     4   9  19  37  59  85 121 162 205 253 309 362
#     4  11  26  46  68  94 126 165 205 250 307 365
#     4  11  22  39  62  92 124 163 203 246 308 366
#     4   9  17  35  61  87 118 159 205 256 301 360
#
# _framework density 18.657771
#
# number of rings (size 3 to 8) (size 9 to 14) (size 15 to 20)
#    0.000    1.800    4.000    1.200    2.800    1.600 
#    3.600    0.000    0.000    0.000    0.000    0.000 
#    0.000    0.000    0.000    0.000    0.000    0.000 
#
# Total GULP energy -223029.044363 kJ/mol
# GULP energy per Si atom -5575.726109 kJ/mol
# Density = 1.861530 g / cm^3
# Si number density = 18.657771 Si / 1000 Ang^3
#
#
#
# Elastic Constant Matrix: (Units=GPa)
#
#
# Indices 1 2 3 4 5 6 
#
# 1 62.1467 35.5811 42.6577 0.0000 0.0000 0.0000
# 2 35.5811 62.1480 42.6581 0.0000 0.0000 0.0000
# 3 42.6577 42.6581 122.7245 0.0000 0.0000 0.0000
# 4 0.0000 0.0000 0.0000 30.2081 0.0000 0.0000
# 5 0.0000 0.0000 0.0000 0.0000 30.2092 0.0000
# 6 0.0000 0.0000 0.0000 0.0000 0.0000 36.2471
#
#
#
# Elastic Compliance Matrix: (Units=1/GPa)
#
#
# Indices 1 2 3 4 5 6 
#
# 1 0.026166 -0.011476 -0.005106 0.000000 0.000000 0.000000
# 2 -0.011476 0.026166 -0.005106 0.000000 0.000000 0.000000
# 3 -0.005106 -0.005106 0.011698 0.000000 0.000000 0.000000
# 4 0.000000 0.000000 0.000000 0.033104 0.000000 0.000000
# 5 0.000000 0.000000 0.000000 0.000000 0.033102 0.000000
# 6 0.000000 0.000000 0.000000 0.000000 0.000000 0.027588
#
#
# Mechanical properties :
#
#
# Convention : Reuss Voigt Hill
#
# Bulk Modulus (GPa) = 48.41777 54.31255 51.36516
# Shear Modulus (GPa) = 24.02865 27.74105 25.88485
#
# Velocity S-wave (km/s) = 3.59257 3.86013 3.72875
# Velocity P-wave (km/s) = 6.57386 7.00290 6.79177
#
# Compressibility (1/GPa) = 0.02065358
#
# Stress axis : x y z
#
# Youngs Moduli (GPa) = 38.21732 38.21813 85.48468
#
# Poissons Ratio (x) = 0.43859 0.43650
# Poissons Ratio (y) = 0.43858 0.43649
# Poissons Ratio (z) = 0.19514 0.19514
#
# Static dielectric constant tensor:
#      x y z
#    x 1.574680 0.000000 0.000000 
#    y 0.000000 1.574680 0.000000 
#    z 0.000000 0.000000 1.629310 
# 
# From -- ./inp_files/2888.got.cif
#   From: 2010.05.17/outbox.cif.g08.bks.cpg/sg90_2_cif.got.tgz:2888.got - 2010.06.03 19:17:45.
