data_PCOD9547013
_publ_section_title
;
Structure prediction by ZEFSAII (Michael W. Deem and Ramdas Pophale) SiO2 
 PCOD9547013
Probable space group: P 4 2 2
;
_chemical_formula_sum "Si O2"
_cell_formula_units_Z 48
_cell_length_a 8.312032
_cell_length_b 8.312032
_cell_length_c 32.057012
_cell_angle_alpha 90.000000
_cell_angle_beta 90.000000
_cell_angle_gamma 90.000000
_cell_volume 2214.814983
_symmetry_space_group_name_H-M "P 4 2 2"
_symmetry_group_IT_number 89
_symmetry_cell_setting 'tetragonal'
loop_
_space_group_symop_operation_xyz
x,y,z
-y,x,z
-x,-y,z
y,-x,z
x,-y,-z
-x,y,-z
y,x,-z
-y,-x,-z
loop_
_atom_site_type_symbol
_atom_site_label
_atom_site_fract_x
_atom_site_fract_y
_atom_site_fract_z
Si Si1 0.578218 0.758198 0.799636
Si Si2 0.582968 0.239704 0.292642
Si Si3 0.306583 0.693418 0.500000
Si Si4 0.760984 0.881689 0.415159
Si Si5 0.245730 0.097210 0.873754
Si Si6 0.000000 0.500000 0.640539
Si Si7 0.716106 0.664074 0.046968
O O1 0.398493 0.691837 0.800829
O O2 0.605552 0.832145 0.753852
O O3 0.619955 0.855232 0.840696
O O4 0.693990 0.398765 0.296180
O O5 0.607763 0.107165 0.327968
O O6 0.284870 0.500000 0.500000
O O7 0.187774 0.734418 0.461588
O O8 0.598941 0.871150 0.387738
O O9 0.929921 0.795458 0.406874
O O10 0.283102 0.146733 0.921183
O O11 0.085575 0.200565 0.866078
O O12 0.529471 0.713584 0.053652
O O13 0.732564 0.732564 0.000000
#
# Coordination Sequence:
#
# PCOD9547013 Si02
#       7
#     8   8   4   8   8   4   8
#     4   9  19  37  60  84 111 149 200 253 301 355
#     4   9  20  38  60  89 124 161 206 259 310 365
#     4  11  24  43  68  96 124 161 214 271 326 390
#     4  11  24  41  62  92 131 171 211 259 318 385
#     4  11  24  37  51  79 117 153 192 240 296 359
#     4  12  22  38  65  96 130 170 212 259 320 388
#     4   9  19  37  60  84 109 141 187 242 296 354
#
# _framework density 21.672239000000001
#
# number of rings (size 3 to 8) (size 9 to 14) (size 15 to 20)
#    0.000    1.917    0.000    5.000    0.000    8.667 
#    0.000    4.167    0.000    2.000    0.000    0.000 
#    0.000    0.000    0.000    0.000    0.000    0.000 
#
# Total GULP energy -267394.444505 kJ/mol
# GULP energy per Si atom -5570.717594 kJ/mol
# Density = 2.162291 g / cm^3
# Si number density = 21.672239 Si / 1000 Ang^3
#
#
#
# Elastic Constant Matrix: (Units=GPa)
#
#
# Indices 1 2 3 4 5 6 
#
# 1 32.8570 35.5942 41.0037 0.0000 0.0000 0.0000
# 2 35.5942 32.8560 41.0037 0.0000 0.0000 0.0000
# 3 41.0037 41.0037 109.4714 0.0000 0.0000 0.0000
# 4 0.0000 0.0000 0.0000 11.0993 0.0000 0.0000
# 5 0.0000 0.0000 0.0000 0.0000 11.0989 0.0000
# 6 0.0000 0.0000 0.0000 0.0000 0.0000 190.4306
#
#
#
# Elastic Compliance Matrix: (Units=1/GPa)
#
#
# Indices 1 2 3 4 5 6 
#
# 1 -0.169376 0.195882 -0.009928 0.000000 0.000000 0.000000
# 2 0.195882 -0.169386 -0.009924 0.000000 0.000000 0.000000
# 3 -0.009928 -0.009924 0.016571 0.000000 0.000000 0.000000
# 4 0.000000 0.000000 0.000000 0.090096 0.000000 0.000000
# 5 0.000000 0.000000 0.000000 0.000000 0.090099 0.000000
# 6 0.000000 0.000000 0.000000 0.000000 0.000000 0.005251
#
#
# Mechanical properties :
#
#
# Convention : Reuss Voigt Hill
#
# Bulk Modulus (GPa) = 33.48058 45.59863 39.53960
# Shear Modulus (GPa) = -10.44171 46.36461 17.96145
#
# Velocity S-wave (km/s) = -2.19738 4.63033 2.88197
# Velocity P-wave (km/s) = 3.00735 7.04787 5.41833
#
# Compressibility (1/GPa) = 0.02986806
#
# Stress axis : x y z
#
# Youngs Moduli (GPa) = -5.90402 -5.90366 60.34697
#
# Poissons Ratio (x) = 1.15642 0.59915
# Poissons Ratio (y) = 1.15649 0.59890
# Poissons Ratio (z) = -0.05862 -0.05859
#
# Static dielectric constant tensor:
#      x y z
#    x 1.817170 0.000000 0.000000 
#    y 0.000000 1.817170 0.000000 
#    z 0.000000 0.000000 1.813850 
# 
# From -- ./inp_files/3007.got.cif
#   From: 2010.05.17/outbox.cif.g08.bks.cpg/sg89_2_cif.got.tgz:3007.got - 2010.06.03 19:15:31.
