data_PCOD9547208
_publ_section_title
;
Structure prediction by ZEFSAII (Michael W. Deem and Ramdas Pophale) SiO2 
 PCOD9547208
Probable space group: P 4 21 2
;
_chemical_formula_sum "Si O2"
_cell_formula_units_Z 40
_cell_length_a 7.982023
_cell_length_b 7.982023
_cell_length_c 28.924295
_cell_angle_alpha 90.000000
_cell_angle_beta 90.000000
_cell_angle_gamma 90.000000
_cell_volume 1842.844675
_symmetry_space_group_name_H-M "P 4 21 2"
_symmetry_group_IT_number 90
_symmetry_cell_setting 'tetragonal'
loop_
_space_group_symop_operation_xyz
x,y,z
1/2-y,1/2+x,z
-x,-y,z
1/2+y,1/2-x,z
1/2+x,1/2-y,-z
1/2-x,1/2+y,-z
y,x,-z
-y,-x,-z
loop_
_atom_site_type_symbol
_atom_site_label
_atom_site_fract_x
_atom_site_fract_y
_atom_site_fract_z
Si Si1 0.233866 0.909223 0.860196
Si Si2 0.500000 0.500000 0.624515
Si Si3 0.407069 0.266147 0.046665
Si Si4 0.232497 0.089687 0.295792
Si Si5 0.500000 0.500000 0.217183
Si Si6 0.734027 0.594426 0.547107
O O1 0.398925 0.795358 0.858467
O O2 0.141241 0.869114 0.907923
O O3 0.112166 0.886946 0.816707
O O4 0.620804 0.395202 0.658354
O O5 0.612786 0.613622 0.590829
O O6 0.597874 0.205476 0.047183
O O7 0.363691 0.363691 0.000000
O O8 0.396386 0.203715 0.295497
O O9 0.115373 0.110067 0.251124
O O10 0.794563 0.401552 0.548711
O O11 0.639292 0.639292 0.500000
#
# Coordination Sequence:
#
# PCOD9547208 Si02
#       6
#     8   4   8   8   4   8
#     4  11  23  39  61  90 124 162 204 253 314 381
#     4  11  21  36  61  90 125 164 213 263 318 380
#     4  11  24  41  62  90 124 163 208 257 311 373
#     4  10  22  40  63  90 121 161 209 264 326 389
#     4  11  22  40  64  90 120 156 202 259 320 384
#     4  11  23  40  64  95 134 178 224 275 330 389
#
# _framework density 21.705575
#
# number of rings (size 3 to 8) (size 9 to 14) (size 15 to 20)
#    0.000    1.200    0.000    6.300    0.000    5.200 
#    0.000    2.000    0.000   22.200    0.000    0.000 
#    0.000    0.000    0.000    0.000    0.000    0.000 
#
# Total GULP energy -223985.306664 kJ/mol
# GULP energy per Si atom -5599.632667 kJ/mol
# Density = 2.165617 g / cm^3
# Si number density = 21.705575 Si / 1000 Ang^3
#
#
#
# Elastic Constant Matrix: (Units=GPa)
#
#
# Indices 1 2 3 4 5 6 
#
# 1 89.0657 28.6114 53.0311 0.0000 0.0000 0.0000
# 2 28.6114 89.0657 53.0311 0.0000 0.0000 0.0000
# 3 53.0311 53.0311 196.9187 0.0000 0.0000 0.0000
# 4 0.0000 0.0000 0.0000 31.3214 0.0000 0.0000
# 5 0.0000 0.0000 0.0000 0.0000 31.3214 0.0000
# 6 0.0000 0.0000 0.0000 0.0000 0.0000 31.1146
#
#
#
# Elastic Compliance Matrix: (Units=1/GPa)
#
#
# Indices 1 2 3 4 5 6 
#
# 1 0.013882 -0.002660 -0.003022 0.000000 0.000000 0.000000
# 2 -0.002660 0.013882 -0.003022 0.000000 0.000000 0.000000
# 3 -0.003022 -0.003022 0.006706 0.000000 0.000000 0.000000
# 4 0.000000 0.000000 0.000000 0.031927 0.000000 0.000000
# 5 0.000000 0.000000 0.000000 0.000000 0.031927 0.000000
# 6 0.000000 0.000000 0.000000 0.000000 0.000000 0.032139
#
#
# Mechanical properties :
#
#
# Convention : Reuss Voigt Hill
#
# Bulk Modulus (GPa) = 58.61325 71.59970 65.10648
# Shear Modulus (GPa) = 32.56112 34.77655 33.66884
#
# Velocity S-wave (km/s) = 3.87735 4.00708 3.94275
# Velocity P-wave (km/s) = 6.86349 7.38020 7.12653
#
# Compressibility (1/GPa) = 0.01706099
#
# Stress axis : x y z
#
# Youngs Moduli (GPa) = 72.03828 72.03828 149.12181
#
# Poissons Ratio (x) = 0.19162 0.45065
# Poissons Ratio (y) = 0.19162 0.45065
# Poissons Ratio (z) = 0.21770 0.21770
#
# Static dielectric constant tensor:
#      x y z
#    x 1.799710 0.000000 0.000000 
#    y 0.000000 1.799710 0.000000 
#    z 0.000000 0.000000 1.752490 
# 
# From -- ./inp_files/2977.got.cif
#   From: 2010.05.17/outbox.cif.g08.bks.cpg/sg90_2_cif.got.tgz:2977.got - 2010.06.03 19:17:45.
