data_PCOD9547360
_publ_section_title
;
Structure prediction by ZEFSAII (Michael W. Deem and Ramdas Pophale) SiO2 
 PCOD9547360
Probable space group: P 4 21 2
;
_chemical_formula_sum "Si O2"
_cell_formula_units_Z 34
_cell_length_a 8.308502
_cell_length_b 8.308502
_cell_length_c 22.885797
_cell_angle_alpha 90.000000
_cell_angle_beta 90.000000
_cell_angle_gamma 90.000000
_cell_volume 1579.834155
_symmetry_space_group_name_H-M "P 4 21 2"
_symmetry_group_IT_number 90
_symmetry_cell_setting 'tetragonal'
loop_
_space_group_symop_operation_xyz
x,y,z
1/2-y,1/2+x,z
-x,-y,z
1/2+y,1/2-x,z
1/2+x,1/2-y,-z
1/2-x,1/2+y,-z
y,x,-z
-y,-x,-z
loop_
_atom_site_type_symbol
_atom_site_label
_atom_site_fract_x
_atom_site_fract_y
_atom_site_fract_z
Si Si1 0.925515 0.761257 0.207796
Si Si2 0.258398 0.588046 0.684110
Si Si3 0.449348 0.735449 0.106407
Si Si4 0.500000 0.500000 0.000000
Si Si5 0.581981 0.258345 0.446909
O O1 0.808648 0.605009 0.205944
O O2 0.881062 0.855668 0.266778
O O3 0.887533 0.877309 0.153633
O O4 0.195776 0.404529 0.690209
O O5 0.324934 0.608116 0.618399
O O6 0.620322 0.821265 0.113779
O O7 0.473678 0.648773 0.044238
O O8 0.400566 0.193744 0.450968
O O9 0.628216 0.371785 0.500000
#
# Coordination Sequence:
#
# PCOD9547360 Si02
#       5
#     8   8   8   2   8
#     4  11  24  40  60  91 129 166 208 262 320 378
#     4   9  19  37  59  83 115 159 210 263 322 386
#     4  11  24  42  66  94 125 164 205 248 304 368
#     4  12  24  44  68  96 128 160 202 252 296 356
#     4   9  19  35  54  79 114 156 205 262 322 386
#
# _framework density 21.521248
#
# number of rings (size 3 to 8) (size 9 to 14) (size 15 to 20)
#    0.000    1.882    0.000    4.941    0.000    7.059 
#    0.000    9.412    0.000    0.000    0.000    0.000 
#    0.000    0.000    0.000    0.000    0.000    0.000 
#
# Total GULP energy -189990.430416 kJ/mol
# GULP energy per Si atom -5587.953836 kJ/mol
# Density = 2.147226 g / cm^3
# Si number density = 21.521248 Si / 1000 Ang^3
#
#
#
# Elastic Constant Matrix: (Units=GPa)
#
#
# Indices 1 2 3 4 5 6 
#
# 1 128.2208 31.0909 70.5265 0.0000 0.0000 0.0000
# 2 31.0909 128.2209 70.5258 0.0000 0.0000 0.0000
# 3 70.5265 70.5258 161.0732 0.0000 0.0000 0.0000
# 4 0.0000 0.0000 0.0000 73.3111 0.0000 0.0000
# 5 0.0000 0.0000 0.0000 0.0000 73.3111 0.0000
# 6 0.0000 0.0000 0.0000 0.0000 0.0000 45.2455
#
#
#
# Elastic Compliance Matrix: (Units=1/GPa)
#
#
# Indices 1 2 3 4 5 6 
#
# 1 0.010273 -0.000022 -0.004488 0.000000 0.000000 0.000000
# 2 -0.000022 0.010273 -0.004488 0.000000 0.000000 0.000000
# 3 -0.004488 -0.004488 0.010139 0.000000 0.000000 0.000000
# 4 0.000000 0.000000 0.000000 0.013641 0.000000 0.000000
# 5 0.000000 0.000000 0.000000 0.000000 0.013640 0.000000
# 6 0.000000 0.000000 0.000000 0.000000 0.000000 0.022102
#
#
# Mechanical properties :
#
#
# Convention : Reuss Voigt Hill
#
# Bulk Modulus (GPa) = 78.81963 84.64458 81.73211
# Shear Modulus (GPa) = 48.87817 54.73165 51.80491
#
# Velocity S-wave (km/s) = 4.77084 5.04843 4.91160
# Velocity P-wave (km/s) = 8.18850 8.56728 8.38003
#
# Compressibility (1/GPa) = 0.01268719
#
# Stress axis : x y z
#
# Youngs Moduli (GPa) = 97.34005 97.34070 98.63033
#
# Poissons Ratio (x) = 0.00217 0.44270
# Poissons Ratio (y) = 0.00217 0.44269
# Poissons Ratio (z) = 0.43691 0.43690
#
# Static dielectric constant tensor:
#      x y z
#    x 1.889360 0.000000 0.000000 
#    y 0.000000 1.889360 0.000000 
#    z 0.000000 0.000000 1.752390 
# 
# From -- ./inp_files/2736.got.cif
#   From: 2010.05.17/outbox.cif.g08.bks.cpg/sg90_2_cif.got.tgz:2736.got - 2010.06.03 19:17:45.
