data_PCOD9547474
_publ_section_title
;
Structure prediction by ZEFSAII (Michael W. Deem and Ramdas Pophale) SiO2 
 PCOD9547474
Probable space group: P 41 2 2
;
_chemical_formula_sum "Si O2"
_cell_formula_units_Z 56
_cell_length_a 25.113545
_cell_length_b 25.113545
_cell_length_c 5.411839
_cell_angle_alpha 90.000000
_cell_angle_beta 90.000000
_cell_angle_gamma 90.000000
_cell_volume 3413.193510
_symmetry_space_group_name_H-M "P 41 2 2"
_symmetry_group_IT_number 91
_symmetry_cell_setting 'tetragonal'
loop_
_space_group_symop_operation_xyz
x,y,z
-y,x,1/4+z
-x,-y,1/2+z
y,-x,3/4+z
x,-y,1/2-z
-x,y,-z
y,x,3/4-z
-y,-x,1/4-z
loop_
_atom_site_type_symbol
_atom_site_label
_atom_site_fract_x
_atom_site_fract_y
_atom_site_fract_z
Si Si1 0.034263 0.264925 0.750220
Si Si2 0.193099 0.561067 0.744908
Si Si3 0.922585 0.438168 0.755263
Si Si4 0.797919 0.405438 0.739563
Si Si5 0.920741 0.383715 0.256742
Si Si6 0.144907 0.233271 0.863507
Si Si7 0.719472 0.808336 0.887001
O O1 0.062878 0.322645 0.735181
O O2 0.083339 0.224992 0.797285
O O3 0.000000 0.256553 0.500000
O O4 0.000000 0.264925 0.000000
O O5 0.172788 0.500000 0.750000
O O6 0.224812 0.576147 0.499935
O O7 0.142648 0.601931 0.753999
O O8 0.225878 0.569382 0.993826
O O9 0.935136 0.500000 0.750000
O O10 0.858244 0.429684 0.752706
O O11 0.941331 0.410544 0.505944
O O12 0.940998 0.410145 0.005040
O O13 0.799811 0.342320 0.698388
O O14 0.179873 0.179873 0.875000
O O15 0.166917 0.268837 0.633519
O O16 0.154924 0.259880 0.133511
O O17 0.754133 0.754133 0.875000
#
# Coordination Sequence:
#
# PCOD9547474 Si02
#       7
#     8   8   8   8   8   8   8
#     4  12  24  37  53  74  99 124 153 183 223 284
#     4  10  18  28  45  64  83 115 163 207 240 272
#     4  10  17  27  46  64  81 112 159 204 237 268
#     4  10  16  25  40  62  89 114 143 191 247 282
#     4  10  18  30  45  61  85 114 146 186 233 270
#     4  10  20  36  55  74  97 124 152 185 223 272
#     4  10  19  31  50  75  98 121 154 192 238 298
#
# _framework density 16.406921000000001
#
# number of rings (size 3 to 8) (size 9 to 14) (size 15 to 20)
#    0.000    1.714    0.000   10.286    0.000    0.000 
#    0.000    0.000    0.000   14.571    0.000    0.000 
#    0.000    1.143    0.000    0.000    0.000    0.000 
#
# Total GULP energy -312254.729230 kJ/mol
# GULP energy per Si atom -5575.977308 kJ/mol
# Density = 1.636958 g / cm^3
# Si number density = 16.406921 Si / 1000 Ang^3
#
#
#
# Elastic Constant Matrix: (Units=GPa)
#
#
# Indices 1 2 3 4 5 6 
#
# 1 51.9869 30.7100 27.7882 0.0000 0.0000 0.0000
# 2 30.7100 51.9869 27.7882 0.0000 0.0000 0.0000
# 3 27.7882 27.7882 171.5867 0.0000 0.0000 0.0000
# 4 0.0000 0.0000 0.0000 16.3770 0.0000 0.0000
# 5 0.0000 0.0000 0.0000 0.0000 16.3770 0.0000
# 6 0.0000 0.0000 0.0000 0.0000 0.0000 11.4301
#
#
#
# Elastic Compliance Matrix: (Units=1/GPa)
#
#
# Indices 1 2 3 4 5 6 
#
# 1 0.030284 -0.016715 -0.002198 0.000000 0.000000 0.000000
# 2 -0.016715 0.030284 -0.002198 0.000000 0.000000 0.000000
# 3 -0.002198 -0.002198 0.006540 0.000000 0.000000 0.000000
# 4 0.000000 0.000000 0.000000 0.061061 0.000000 0.000000
# 5 0.000000 0.000000 0.000000 0.000000 0.061061 0.000000
# 6 0.000000 0.000000 0.000000 0.000000 0.000000 0.087488
#
#
# Mechanical properties :
#
#
# Convention : Reuss Voigt Hill
#
# Bulk Modulus (GPa) = 40.17992 49.79259 44.98626
# Shear Modulus (GPa) = 15.27953 21.45509 18.36731
#
# Velocity S-wave (km/s) = 3.05501 3.62012 3.34950
# Velocity P-wave (km/s) = 6.08168 6.92012 6.51440
#
# Compressibility (1/GPa) = 0.02488805
#
# Stress axis : x y z
#
# Youngs Moduli (GPa) = 33.02046 33.02046 152.91165
#
# Poissons Ratio (x) = 0.55194 0.33602
# Poissons Ratio (y) = 0.55194 0.33602
# Poissons Ratio (z) = 0.07256 0.07256
#
# Static dielectric constant tensor:
#      x y z
#    x 1.557910 0.000000 0.000000 
#    y 0.000000 1.557910 0.000000 
#    z 0.000000 0.000000 1.665520 
# 
# From -- ./inp_files/9162.got.cif
#   From: 2010.05.17/outbox.cif.g08.bks.cpg/sg91_5_cif.got.tgz:9162.got - 2010.06.03 19:20:03.
