data_PCOD9547177
_publ_section_title
;
Structure prediction by ZEFSAII (Michael W. Deem and Ramdas Pophale) SiO2 
 PCOD9547177
Probable space group: P 4 21 2
;
_chemical_formula_sum "Si O2"
_cell_formula_units_Z 44
_cell_length_a 14.202555
_cell_length_b 14.202555
_cell_length_c 11.220280
_cell_angle_alpha 90.000000
_cell_angle_beta 90.000000
_cell_angle_gamma 90.000000
_cell_volume 2263.271498
_symmetry_space_group_name_H-M "P 4 21 2"
_symmetry_group_IT_number 90
_symmetry_cell_setting 'tetragonal'
loop_
_space_group_symop_operation_xyz
x,y,z
1/2-y,1/2+x,z
-x,-y,z
1/2+y,1/2-x,z
1/2+x,1/2-y,-z
1/2-x,1/2+y,-z
y,x,-z
-y,-x,-z
loop_
_atom_site_type_symbol
_atom_site_label
_atom_site_fract_x
_atom_site_fract_y
_atom_site_fract_z
Si Si1 0.859407 0.564476 0.066790
Si Si2 0.451253 0.595912 0.636383
Si Si3 0.882678 0.760354 0.770037
Si Si4 0.230234 0.414387 0.810987
Si Si5 0.338788 0.434100 0.170315
Si Si6 0.886633 0.886633 0.000000
O O1 0.879465 0.454617 0.093055
O O2 0.765878 0.595386 0.133377
O O3 0.833325 0.576025 0.928464
O O4 0.500000 0.500000 0.685493
O O5 0.428090 0.571911 0.500000
O O6 0.353085 0.626852 0.691911
O O7 0.527259 0.666251 0.693775
O O8 0.806462 0.680010 0.749395
O O9 0.881535 0.799797 0.906587
O O10 0.986980 0.720792 0.744378
O O11 0.340891 0.402060 0.840102
O O12 0.374807 0.518720 0.081783
#
# Coordination Sequence:
#
# PCOD9547177 Si02
#       6
#     8   8   8   8   8   4
#     4  11  23  37  54  87 135 174 195 230 298 379
#     4  10  22  44  65  85 116 150 202 264 315 350
#     4  11  24  36  57  89 120 161 197 249 301 366
#     4  12  22  35  56  89 125 161 203 240 303 364
#     4  11  23  35  60  91 119 159 203 255 303 362
#     4  10  22  35  52  88 124 151 194 244 308 357
#
# _framework density 19.440884
#
# number of rings (size 3 to 8) (size 9 to 14) (size 15 to 20)
#    0.000    1.091    5.455    0.545    7.636    1.091 
#    0.000    1.818    0.000    0.000    0.000    0.000 
#    0.000    0.000    0.000    0.000    0.000    0.000 
#
# Total GULP energy -245407.055981 kJ/mol
# GULP energy per Si atom -5577.433090 kJ/mol
# Density = 1.939664 g / cm^3
# Si number density = 19.440884 Si / 1000 Ang^3
#
#
#
# Elastic Constant Matrix: (Units=GPa)
#
#
# Indices 1 2 3 4 5 6 
#
# 1 67.1421 9.1141 -0.9638 0.0000 0.0000 0.0000
# 2 9.1141 67.1421 -0.9638 0.0000 0.0000 0.0000
# 3 -0.9638 -0.9638 39.3683 0.0000 0.0000 0.0000
# 4 0.0000 0.0000 0.0000 12.8637 0.0000 0.0000
# 5 0.0000 0.0000 0.0000 0.0000 12.8638 0.0000
# 6 0.0000 0.0000 0.0000 0.0000 0.0000 31.7239
#
#
#
# Elastic Compliance Matrix: (Units=1/GPa)
#
#
# Indices 1 2 3 4 5 6 
#
# 1 0.015177 -0.002056 0.000321 0.000000 0.000000 0.000000
# 2 -0.002056 0.015177 0.000321 0.000000 0.000000 0.000000
# 3 0.000321 0.000321 0.025417 0.000000 0.000000 0.000000
# 4 0.000000 0.000000 0.000000 0.077738 0.000000 0.000000
# 5 0.000000 0.000000 0.000000 0.000000 0.077738 0.000000
# 6 0.000000 0.000000 0.000000 0.000000 0.000000 0.031522
#
#
# Mechanical properties :
#
#
# Convention : Reuss Voigt Hill
#
# Bulk Modulus (GPa) = 18.88737 20.89173 19.88955
# Shear Modulus (GPa) = 18.99377 22.58801 20.79089
#
# Velocity S-wave (km/s) = 3.12909 3.41234 3.27378
# Velocity P-wave (km/s) = 4.77403 5.12787 4.95411
#
# Compressibility (1/GPa) = 0.05294543
#
# Stress axis : x y z
#
# Youngs Moduli (GPa) = 65.88734 65.88734 39.34397
#
# Poissons Ratio (x) = 0.13544 -0.01264
# Poissons Ratio (y) = 0.13544 -0.01264
# Poissons Ratio (z) = -0.02117 -0.02117
#
# Static dielectric constant tensor:
#      x y z
#    x 1.706520 0.000000 0.000000 
#    y 0.000000 1.706520 0.000000 
#    z 0.000000 0.000000 1.720540 
# 
# From -- ./inp_files/2058.got.cif
#   From: 2010.05.17/outbox.cif.g08.bks.cpg/sg90_2_cif.got.tgz:2058.got - 2010.06.03 19:17:45.
