data_PCOD9547176
_publ_section_title
;
Structure prediction by ZEFSAII (Michael W. Deem and Ramdas Pophale) SiO2 
 PCOD9547176
Probable space group: P 4 21 2
;
_chemical_formula_sum "Si O2"
_cell_formula_units_Z 56
_cell_length_a 15.294857
_cell_length_b 15.294857
_cell_length_c 14.310973
_cell_angle_alpha 90.000000
_cell_angle_beta 90.000000
_cell_angle_gamma 90.000000
_cell_volume 3347.803847
_symmetry_space_group_name_H-M "P 4 21 2"
_symmetry_group_IT_number 90
_symmetry_cell_setting 'tetragonal'
loop_
_space_group_symop_operation_xyz
x,y,z
1/2-y,1/2+x,z
-x,-y,z
1/2+y,1/2-x,z
1/2+x,1/2-y,-z
1/2-x,1/2+y,-z
y,x,-z
-y,-x,-z
loop_
_atom_site_type_symbol
_atom_site_label
_atom_site_fract_x
_atom_site_fract_y
_atom_site_fract_z
Si Si1 0.899530 0.607877 0.868422
Si Si2 0.646265 0.186333 0.731007
Si Si3 0.706341 0.430723 0.543414
Si Si4 0.895386 0.395431 0.077159
Si Si5 0.892918 0.150562 0.605501
Si Si6 0.470426 0.243866 0.642254
Si Si7 0.698475 0.816246 0.309692
O O1 0.881458 0.504199 0.861837
O O2 0.856041 0.658391 0.783682
O O3 0.870019 0.634692 0.972894
O O4 0.650842 0.150760 0.836324
O O5 0.548804 0.218207 0.710187
O O6 0.675965 0.108406 0.660588
O O7 0.712603 0.264891 0.713795
O O8 0.644863 0.355138 0.500000
O O9 0.646682 0.502737 0.596648
O O10 0.752347 0.484697 0.459787
O O11 0.775907 0.387773 0.612909
O O12 0.881706 0.500196 0.084386
O O13 0.855378 0.144623 0.500000
O O14 0.839422 0.073845 0.657292
O O15 0.866356 0.243237 0.648610
#
# Coordination Sequence:
#
# PCOD9547176 Si02
#       7
#     8   8   8   8   8   8   8
#     4   9  19  36  56  78 104 140 177 214 271 335
#     4  11  20  35  55  81 108 137 176 226 275 314
#     4  11  21  36  55  75 105 150 184 213 261 318
#     4   9  17  32  56  79 105 136 172 221 271 321
#     4   9  21  36  52  74 109 143 180 222 260 307
#     4  10  22  34  53  80 108 138 178 221 267 316
#     4  11  21  34  54  79 111 141 177 225 268 310
#
# _framework density 16.727383
#
# number of rings (size 3 to 8) (size 9 to 14) (size 15 to 20)
#    0.000    2.000    2.857    2.143    4.000    3.429 
#    0.000    0.000    0.000    0.000    0.000    0.000 
#    0.000    2.286    0.000    0.000    0.000    0.000 
#
# Total GULP energy -312154.605915 kJ/mol
# GULP energy per Si atom -5574.189391 kJ/mol
# Density = 1.668931 g / cm^3
# Si number density = 16.727383 Si / 1000 Ang^3
#
#
#
# Elastic Constant Matrix: (Units=GPa)
#
#
# Indices 1 2 3 4 5 6 
#
# 1 29.1501 34.7901 36.7792 0.0000 0.0000 0.0000
# 2 34.7901 29.1439 36.7771 0.0000 0.0000 0.0000
# 3 36.7792 36.7771 94.8564 0.0000 0.0000 0.0000
# 4 0.0000 0.0000 0.0000 28.8942 0.0000 0.0000
# 5 0.0000 0.0000 0.0000 0.0000 28.8941 0.0000
# 6 0.0000 0.0000 0.0000 0.0000 0.0000 7.7222
#
#
#
# Elastic Compliance Matrix: (Units=1/GPa)
#
#
# Indices 1 2 3 4 5 6 
#
# 1 -0.074475 0.102721 -0.010950 0.000000 0.000000 0.000000
# 2 0.102721 -0.074497 -0.010945 0.000000 0.000000 0.000000
# 3 -0.010950 -0.010945 0.019031 0.000000 0.000000 0.000000
# 4 0.000000 0.000000 0.000000 0.034609 0.000000 0.000000
# 5 0.000000 0.000000 0.000000 0.000000 0.034609 0.000000
# 6 0.000000 0.000000 0.000000 0.000000 0.000000 0.129496
#
#
# Mechanical properties :
#
#
# Convention : Reuss Voigt Hill
#
# Bulk Modulus (GPa) = 31.53430 41.09367 36.31398
# Shear Modulus (GPa) = -60.74682 16.08905 -22.32888
#
# Velocity S-wave (km/s) = -6.03280 3.10472 -3.65755
# Velocity P-wave (km/s) = 5.44365 6.12147 1.97978
#
# Compressibility (1/GPa) = 0.03171151
#
# Stress axis : x y z
#
# Youngs Moduli (GPa) = -13.42735 -13.42328 52.54516
#
# Poissons Ratio (x) = 1.37885 0.57535
# Poissons Ratio (y) = 1.37927 0.57510
# Poissons Ratio (z) = -0.14702 -0.14692
#
# Static dielectric constant tensor:
#      x y z
#    x 1.564760 0.000000 0.000000 
#    y 0.000000 1.564760 0.000000 
#    z 0.000000 0.000000 1.574670 
# 
# From -- ./inp_files/2251.got.cif
#   From: 2010.05.17/outbox.cif.g08.bks.cpg/sg90_2_cif.got.tgz:2251.got - 2010.06.03 19:17:45.
