data_PCOD9547951
_publ_section_title
;
Structure prediction by ZEFSAII (Michael W. Deem and Ramdas Pophale) SiO2 
 PCOD9547951
Probable space group: P 41 2 2
;
_chemical_formula_sum "Si O2"
_cell_formula_units_Z 48
_cell_length_a 8.992971
_cell_length_b 8.992971
_cell_length_c 28.573165
_cell_angle_alpha 90.000000
_cell_angle_beta 90.000000
_cell_angle_gamma 90.000000
_cell_volume 2310.812643
_symmetry_space_group_name_H-M "P 41 2 2"
_symmetry_group_IT_number 91
_symmetry_cell_setting 'tetragonal'
loop_
_space_group_symop_operation_xyz
x,y,z
-y,x,1/4+z
-x,-y,1/2+z
y,-x,3/4+z
x,-y,1/2-z
-x,y,-z
y,x,3/4-z
-y,-x,1/4-z
loop_
_atom_site_type_symbol
_atom_site_label
_atom_site_fract_x
_atom_site_fract_y
_atom_site_fract_z
Si Si1 0.124379 0.329312 0.352139
Si Si2 0.343593 0.065912 0.572491
Si Si3 0.803620 0.831003 0.764625
Si Si4 0.410862 0.277228 0.922723
Si Si5 0.313550 0.205198 0.131681
Si Si6 0.555153 0.659367 0.728669
O O1 0.280210 0.280210 0.375000
O O2 0.112609 0.203789 0.312450
O O3 0.127539 0.489474 0.328424
O O4 0.973991 0.328159 0.382972
O O5 0.353168 0.889590 0.572892
O O6 0.269101 0.116811 0.524509
O O7 0.252112 0.141871 0.614946
O O8 0.630817 0.776469 0.764283
O O9 0.810709 0.000000 0.750000
O O10 0.343981 0.343981 0.875000
O O11 0.588448 0.263644 0.911898
O O12 0.362301 0.381952 0.965547
O O13 0.380587 0.283355 0.178410
O O14 0.602135 0.500000 0.750000
#
# Coordination Sequence:
#
# PCOD9547951 Si02
#       6
#     8   8   8   8   8   8
#     4  11  22  38  62  89 119 159 203 250 305 367
#     4  10  21  38  60  87 120 157 199 246 300 361
#     4  11  23  39  59  87 121 156 199 249 302 364
#     4   9  20  37  58  86 120 156 197 248 300 355
#     4   9  20  38  59  88 121 154 198 246 298 362
#     4  10  20  38  61  85 115 154 200 251 300 353
#
# _framework density 20.771915
#
# number of rings (size 3 to 8) (size 9 to 14) (size 15 to 20)
#    0.000    2.000    0.000    4.500    0.000    9.333 
#    0.000    0.833    0.000    0.000    0.000    0.000 
#    0.000    0.000    0.000    0.000    0.000    0.000 
#
# Total GULP energy -267362.090201 kJ/mol
# GULP energy per Si atom -5570.043546 kJ/mol
# Density = 2.072464 g / cm^3
# Si number density = 20.771915 Si / 1000 Ang^3
#
#
#
# Elastic Constant Matrix: (Units=GPa)
#
#
# Indices 1 2 3 4 5 6 
#
# 1 89.7085 38.7953 22.4381 0.0000 0.0000 0.0000
# 2 38.7953 89.7085 22.4381 0.0000 0.0000 0.0000
# 3 22.4381 22.4381 40.9918 0.0000 0.0000 0.0000
# 4 0.0000 0.0000 0.0000 30.4828 0.0000 0.0000
# 5 0.0000 0.0000 0.0000 0.0000 30.4828 0.0000
# 6 0.0000 0.0000 0.0000 0.0000 0.0000 17.0904
#
#
#
# Elastic Compliance Matrix: (Units=1/GPa)
#
#
# Indices 1 2 3 4 5 6 
#
# 1 0.014631 -0.005010 -0.005266 0.000000 0.000000 0.000000
# 2 -0.005010 0.014631 -0.005266 0.000000 0.000000 0.000000
# 3 -0.005266 -0.005266 0.030160 0.000000 0.000000 0.000000
# 4 0.000000 0.000000 0.000000 0.032805 0.000000 0.000000
# 5 0.000000 0.000000 0.000000 0.000000 0.032805 0.000000
# 6 0.000000 0.000000 0.000000 0.000000 0.000000 0.058512
#
#
# Mechanical properties :
#
#
# Convention : Reuss Voigt Hill
#
# Bulk Modulus (GPa) = 35.28940 43.08353 39.18646
# Shear Modulus (GPa) = 22.31372 24.72701 23.52037
#
# Velocity S-wave (km/s) = 3.28109 3.45397 3.36864
# Velocity P-wave (km/s) = 5.60178 6.05746 5.83407
#
# Compressibility (1/GPa) = 0.02833712
#
# Stress axis : x y z
#
# Youngs Moduli (GPa) = 68.34745 68.34745 33.15596
#
# Poissons Ratio (x) = 0.34243 0.17461
# Poissons Ratio (y) = 0.34243 0.17461
# Poissons Ratio (z) = 0.35994 0.35994
#
# Static dielectric constant tensor:
#      x y z
#    x 1.777330 0.000000 0.000000 
#    y 0.000000 1.777330 0.000000 
#    z 0.000000 0.000000 1.812310 
# 
# From -- ./inp_files/13579.got.cif
#   From: 2010.05.17/outbox.cif.g08.bks.cpg/sg91_7_cif.got.tgz:13579.got - 2010.06.03 19:20:03.
