data_PCOD9547763
_publ_section_title
;
Structure prediction by ZEFSAII (Michael W. Deem and Ramdas Pophale) SiO2 
 PCOD9547763
Probable space group: P 41 2 2
;
_chemical_formula_sum "Si O2"
_cell_formula_units_Z 48
_cell_length_a 11.318032
_cell_length_b 11.318032
_cell_length_c 16.159926
_cell_angle_alpha 90.000000
_cell_angle_beta 90.000000
_cell_angle_gamma 90.000000
_cell_volume 2070.051750
_symmetry_space_group_name_H-M "P 41 2 2"
_symmetry_group_IT_number 91
_symmetry_cell_setting 'tetragonal'
loop_
_space_group_symop_operation_xyz
x,y,z
-y,x,1/4+z
-x,-y,1/2+z
y,-x,3/4+z
x,-y,1/2-z
-x,y,-z
y,x,3/4-z
-y,-x,1/4-z
loop_
_atom_site_type_symbol
_atom_site_label
_atom_site_fract_x
_atom_site_fract_y
_atom_site_fract_z
Si Si1 0.212309 0.187970 0.241159
Si Si2 0.671584 0.671584 0.875000
Si Si3 0.043435 0.500000 0.750000
Si Si4 0.958938 0.000000 0.750000
Si Si5 0.872692 0.872692 0.375000
Si Si6 0.319034 0.949988 0.877206
Si Si7 0.730927 0.424620 0.957226
Si Si8 0.572095 0.771962 0.638226
O O1 0.239404 0.296647 0.301040
O O2 0.136709 0.089977 0.288334
O O3 0.137155 0.215857 0.158920
O O4 0.341225 0.163184 0.204217
O O5 0.695025 0.540203 0.905219
O O6 0.128480 0.534943 0.824782
O O7 0.967706 0.602467 0.708765
O O8 0.050054 0.919420 0.700765
O O9 0.922356 0.740838 0.391999
O O10 0.388096 0.867718 0.811902
O O11 0.644529 0.324112 0.917691
O O12 0.719562 0.467027 0.053330
#
# Coordination Sequence:
#
# PCOD9547763 Si02
#       8
#     8   4   4   4   4   8   8   8
#     4   9  20  37  60  92 125 162 213 274 337 418
#     4  10  19  36  67  94 122 170 220 274 347 410
#     4  12  26  42  64  92 128 178 228 286 350 418
#     4  10  20  36  60  90 126 162 208 270 334 408
#     4  10  23  38  61  92 126 176 218 266 341 414
#     4  10  23  42  63  90 130 171 222 280 343 415
#     4  10  23  44  67  96 133 173 226 290 350 423
#     4  10  25  42  63  95 131 175 226 282 349 418
#
# _framework density 23.187826000000001
#
# number of rings (size 3 to 8) (size 9 to 14) (size 15 to 20)
#    0.000    2.000    0.000    1.500    0.000   22.667 
#    0.000    0.000    0.000    0.000    0.000    0.000 
#    0.000    0.000    0.000    0.000    0.000    0.000 
#
# Total GULP energy -267235.793976 kJ/mol
# GULP energy per Si atom -5567.412375 kJ/mol
# Density = 2.313505 g / cm^3
# Si number density = 23.187826 Si / 1000 Ang^3
#
#
#
# Elastic Constant Matrix: (Units=GPa)
#
#
# Indices 1 2 3 4 5 6 
#
# 1 73.0921 40.8138 21.7596 0.0000 0.0000 0.0000
# 2 40.8138 73.0921 21.7596 0.0000 0.0000 0.0000
# 3 21.7596 21.7596 91.8885 0.0000 0.0000 0.0000
# 4 0.0000 0.0000 0.0000 32.5210 0.0000 0.0000
# 5 0.0000 0.0000 0.0000 0.0000 32.5210 0.0000
# 6 0.0000 0.0000 0.0000 0.0000 0.0000 36.5361
#
#
#
# Elastic Compliance Matrix: (Units=1/GPa)
#
#
# Indices 1 2 3 4 5 6 
#
# 1 0.020317 -0.010664 -0.002286 0.000000 0.000000 0.000000
# 2 -0.010664 0.020317 -0.002286 0.000000 0.000000 0.000000
# 3 -0.002286 -0.002286 0.011965 0.000000 0.000000 0.000000
# 4 0.000000 0.000000 0.000000 0.030749 0.000000 0.000000
# 5 0.000000 0.000000 0.000000 0.000000 0.030749 0.000000
# 6 0.000000 0.000000 0.000000 0.000000 0.000000 0.027370
#
#
# Mechanical properties :
#
#
# Convention : Reuss Voigt Hill
#
# Bulk Modulus (GPa) = 45.19313 45.19320 45.19316
# Shear Modulus (GPa) = 27.88402 30.56494 29.22448
#
# Velocity S-wave (km/s) = 3.47151 3.63457 3.55397
# Velocity P-wave (km/s) = 5.96665 6.09474 6.03103
#
# Compressibility (1/GPa) = 0.02212726
#
# Stress axis : x y z
#
# Youngs Moduli (GPa) = 49.22097 49.22097 83.57500
#
# Poissons Ratio (x) = 0.52490 0.19103
# Poissons Ratio (y) = 0.52490 0.19103
# Poissons Ratio (z) = 0.11251 0.11251
#
# Static dielectric constant tensor:
#      x y z
#    x 1.935990 0.000000 0.000000 
#    y 0.000000 1.935990 0.000000 
#    z 0.000000 0.000000 1.949270 
# 
# From -- ./inp_files/16974.got.cif
#   From: 2010.05.17/outbox.cif.g08.bks.cpg/sg91_9_cif.got.tgz:16974.got - 2010.06.03 19:20:03.
