data_PCOD9547462
_publ_section_title
;
Structure prediction by ZEFSAII (Michael W. Deem and Ramdas Pophale) SiO2 
 PCOD9547462
Probable space group: P 4 21 2
;
_chemical_formula_sum "Si O2"
_cell_formula_units_Z 38
_cell_length_a 9.000000
_cell_length_b 9.000000
_cell_length_c 24.000000
_cell_angle_alpha 90.000000
_cell_angle_beta 90.000000
_cell_angle_gamma 90.000000
_cell_volume 1944.000000
_symmetry_space_group_name_H-M "P 4 21 2"
_symmetry_group_IT_number 90
_symmetry_cell_setting 'tetragonal'
loop_
_space_group_symop_operation_xyz
x,y,z
1/2-y,1/2+x,z
-x,-y,z
1/2+y,1/2-x,z
1/2+x,1/2-y,-z
1/2-x,1/2+y,-z
y,x,-z
-y,-x,-z
loop_
_atom_site_type_symbol
_atom_site_label
_atom_site_fract_x
_atom_site_fract_y
_atom_site_fract_z
Si Si1 0.286699 0.713302 0.000000
Si Si2 0.767060 0.400264 0.881939
Si Si3 0.776577 0.385721 0.215628
Si Si4 0.000000 0.500000 0.011401
Si Si5 0.376934 0.781564 0.654284
Si Si6 0.623464 0.220105 0.447621
O O1 0.317388 0.638304 0.939521
O O2 0.350919 0.884414 0.990395
O O3 0.811949 0.574158 0.881194
O O4 0.675921 0.341801 0.828540
O O5 0.807178 0.561965 0.207448
O O6 0.735917 0.358316 0.280710
O O7 0.554209 0.804826 0.646269
O O8 0.303662 0.673243 0.609099
O O9 0.445497 0.195759 0.449726
O O10 0.685659 0.314342 0.500000
#
# Coordination Sequence:
#
# PCOD9547462 Si02
#       6
#     4   8   8   2   8   8
#     4  12  24  50  68 102 132 190 220 298 340 434
#     4  11  24  43  61  89 129 167 215 272 335 395
#     4   9  21  39  62  89 121 160 208 257 316 382
#     4  12  28  48  76 100 148 176 244 276 374 408
#     4   9  19  39  62  87 119 157 201 254 305 369
#     4  11  24  39  58  87 120 155 196 244 300 362
#
# _framework density 19.547325000000001
#
# number of rings (size 3 to 8) (size 9 to 14) (size 15 to 20)
#    0.000    1.684    2.105    2.526    2.947    7.579 
#    0.000    6.316    0.000    0.000    0.000    0.000 
#    0.000    0.000    0.000    0.000    0.000    0.000 
#
# Total GULP energy -211607.943487 kJ/mol
# GULP energy per Si atom -5568.630092 kJ/mol
# Density = 1.950283 g / cm^3
# Si number density = 19.547325 Si / 1000 Ang^3
#
#
#
# Elastic Constant Matrix: (Units=GPa)
#
#
# Indices 1 2 3 4 5 6 
#
# 1 28.4457 3.3715 8.6263 0.0000 0.0000 0.0000
# 2 3.3715 28.4456 8.6256 0.0000 0.0000 0.0000
# 3 8.6263 8.6256 109.7169 0.0000 0.0000 0.0000
# 4 0.0000 0.0000 0.0000 26.3349 0.0000 0.0000
# 5 0.0000 0.0000 0.0000 0.0000 26.3348 0.0000
# 6 0.0000 0.0000 0.0000 0.0000 0.0000 47.5042
#
#
#
# Elastic Compliance Matrix: (Units=1/GPa)
#
#
# Indices 1 2 3 4 5 6 
#
# 1 0.036355 -0.003526 -0.002581 0.000000 0.000000 0.000000
# 2 -0.003526 0.036355 -0.002581 0.000000 0.000000 0.000000
# 3 -0.002581 -0.002581 0.009520 0.000000 0.000000 0.000000
# 4 0.000000 0.000000 0.000000 0.037972 0.000000 0.000000
# 5 0.000000 0.000000 0.000000 0.000000 0.037973 0.000000
# 6 0.000000 0.000000 0.000000 0.000000 0.000000 0.021051
#
#
# Mechanical properties :
#
#
# Convention : Reuss Voigt Hill
#
# Bulk Modulus (GPa) = 15.41918 23.09498 19.25708
# Shear Modulus (GPa) = 22.91250 29.76711 26.33980
#
# Velocity S-wave (km/s) = 3.42739 3.90657 3.67480
# Velocity P-wave (km/s) = 4.85468 5.67353 5.28000
#
# Compressibility (1/GPa) = 0.06485430
#
# Stress axis : x y z
#
# Youngs Moduli (GPa) = 27.50629 27.50623 105.03974
#
# Poissons Ratio (x) = 0.09699 0.27112
# Poissons Ratio (y) = 0.09699 0.27110
# Poissons Ratio (z) = 0.07100 0.07099
#
# Static dielectric constant tensor:
#      x y z
#    x 1.691320 0.000000 0.000000 
#    y 0.000000 1.691320 0.000000 
#    z 0.000000 0.000000 1.691240 
# 
# From -- ./inp_files/2917.got.cif
#   From: 2010.05.17/outbox.ucp.g08.bks.cvg/sg90_2_cif.got.tgz:2917.got - 2010.06.11 10:36:03.
