data_PCOD9547962
_publ_section_title
;
Structure prediction by ZEFSAII (Michael W. Deem and Ramdas Pophale) SiO2 
 PCOD9547962
Probable space group: P 41 2 2
;
_chemical_formula_sum "Si O2"
_cell_formula_units_Z 48
_cell_length_a 9.974205
_cell_length_b 9.974205
_cell_length_c 21.832007
_cell_angle_alpha 90.000000
_cell_angle_beta 90.000000
_cell_angle_gamma 90.000000
_cell_volume 2171.952094
_symmetry_space_group_name_H-M "P 41 2 2"
_symmetry_group_IT_number 91
_symmetry_cell_setting 'tetragonal'
loop_
_space_group_symop_operation_xyz
x,y,z
-y,x,1/4+z
-x,-y,1/2+z
y,-x,3/4+z
x,-y,1/2-z
-x,y,-z
y,x,3/4-z
-y,-x,1/4-z
loop_
_atom_site_type_symbol
_atom_site_label
_atom_site_fract_x
_atom_site_fract_y
_atom_site_fract_z
Si Si1 0.023094 0.000000 0.250000
Si Si2 0.796137 0.173297 0.310994
Si Si3 0.729920 0.085056 0.437706
Si Si4 0.429931 0.289626 0.120675
Si Si5 0.703242 0.214819 0.061064
Si Si6 0.393982 0.606019 0.125000
Si Si7 0.642412 0.652112 0.744592
O O1 0.926079 0.086220 0.294542
O O2 0.097210 0.885816 0.289802
O O3 0.718845 0.094796 0.364265
O O4 0.808915 0.318804 0.343179
O O5 0.729352 0.211453 0.245804
O O6 0.653170 0.207626 0.468090
O O7 0.679957 0.939483 0.456981
O O8 0.562394 0.280129 0.079761
O O9 0.379213 0.443812 0.120749
O O10 0.442662 0.266884 0.193952
O O11 0.783535 0.216466 0.125000
O O12 0.312366 0.652440 0.065541
O O13 0.587325 0.500000 0.750000
#
# Coordination Sequence:
#
# PCOD9547962 Si02
#       7
#     4   8   8   8   8   4   8
#     4  10  20  38  64  84 120 174 224 258 308 382
#     4  10  21  37  57  88 123 164 204 265 321 363
#     4  10  21  40  59  88 126 168 213 261 315 377
#     4  10  21  36  63  95 126 155 209 264 321 388
#     4  11  22  35  62  95 123 163 215 262 318 379
#     4  10  20  40  64  94 124 168 204 254 326 388
#     4   9  21  39  62  89 125 160 204 256 318 381
#
# _framework density 22.099937000000001
#
# number of rings (size 3 to 8) (size 9 to 14) (size 15 to 20)
#    0.000    2.000    0.833    3.000    2.333    4.000 
#    6.000    0.000    7.333    0.000    0.000    0.000 
#    0.000    0.000    0.000    0.000    0.000    0.000 
#
# Total GULP energy -267291.777142 kJ/mol
# GULP energy per Si atom -5568.578690 kJ/mol
# Density = 2.204964 g / cm^3
# Si number density = 22.099937 Si / 1000 Ang^3
#
#
#
# Elastic Constant Matrix: (Units=GPa)
#
#
# Indices 1 2 3 4 5 6 
#
# 1 63.2772 18.0761 23.2862 0.0000 0.0000 0.0000
# 2 18.0761 63.2763 23.2861 0.0000 0.0000 0.0000
# 3 23.2862 23.2861 181.6982 0.0000 0.0000 0.0000
# 4 0.0000 0.0000 0.0000 26.4602 0.0000 0.0000
# 5 0.0000 0.0000 0.0000 0.0000 26.4602 0.0000
# 6 0.0000 0.0000 0.0000 0.0000 0.0000 24.8223
#
#
#
# Elastic Compliance Matrix: (Units=1/GPa)
#
#
# Indices 1 2 3 4 5 6 
#
# 1 0.017694 -0.004429 -0.001700 0.000000 0.000000 0.000000
# 2 -0.004429 0.017695 -0.001700 0.000000 0.000000 0.000000
# 3 -0.001700 -0.001700 0.005939 0.000000 0.000000 0.000000
# 4 0.000000 0.000000 0.000000 0.037793 0.000000 0.000000
# 5 0.000000 0.000000 0.000000 0.000000 0.037793 0.000000
# 6 0.000000 0.000000 0.000000 0.000000 0.000000 0.040286
#
#
# Mechanical properties :
#
#
# Convention : Reuss Voigt Hill
#
# Bulk Modulus (GPa) = 38.95618 48.61650 43.78634
# Shear Modulus (GPa) = 27.56113 31.78877 29.67495
#
# Velocity S-wave (km/s) = 3.53528 3.79675 3.66835
# Velocity P-wave (km/s) = 5.85917 6.42391 6.14803
#
# Compressibility (1/GPa) = 0.02566987
#
# Stress axis : x y z
#
# Youngs Moduli (GPa) = 56.51520 56.51446 168.36753
#
# Poissons Ratio (x) = 0.25031 0.28624
# Poissons Ratio (y) = 0.25031 0.28624
# Poissons Ratio (z) = 0.09608 0.09608
#
# Static dielectric constant tensor:
#      x y z
#    x 1.842830 0.000000 0.000000 
#    y 0.000000 1.842830 0.000000 
#    z 0.000000 0.000000 1.960130 
# 
# From -- ./inp_files/17290.got.cif
#   From: 2010.05.17/outbox.cif.g08.bks.cpg/sg91_9_cif.got.tgz:17290.got - 2010.06.03 19:20:03.
