data_PCOD9547321
_publ_section_title
;
Structure prediction by ZEFSAII (Michael W. Deem and Ramdas Pophale) SiO2 
 PCOD9547321
Probable space group: P 4 21 2
;
_chemical_formula_sum "Si O2"
_cell_formula_units_Z 40
_cell_length_a 8.066096
_cell_length_b 8.066096
_cell_length_c 27.268876
_cell_angle_alpha 90.000000
_cell_angle_beta 90.000000
_cell_angle_gamma 90.000000
_cell_volume 1774.165011
_symmetry_space_group_name_H-M "P 4 21 2"
_symmetry_group_IT_number 90
_symmetry_cell_setting 'tetragonal'
loop_
_space_group_symop_operation_xyz
x,y,z
1/2-y,1/2+x,z
-x,-y,z
1/2+y,1/2-x,z
1/2+x,1/2-y,-z
1/2-x,1/2+y,-z
y,x,-z
-y,-x,-z
loop_
_atom_site_type_symbol
_atom_site_label
_atom_site_fract_x
_atom_site_fract_y
_atom_site_fract_z
Si Si1 0.235151 0.085700 0.356586
Si Si2 0.090433 0.234920 0.047892
Si Si3 0.264383 0.596332 0.259991
Si Si4 0.233940 0.083541 0.547827
Si Si5 0.235882 0.097567 0.846468
O O1 0.398731 0.200963 0.359062
O O2 0.145960 0.123969 0.305476
O O3 0.124636 0.136395 0.402711
O O4 0.201611 0.401779 0.046463
O O5 0.126588 0.151548 0.100931
O O6 0.131798 0.131798 0.000000
O O7 0.203459 0.405935 0.262823
O O8 0.344872 0.628434 0.206381
O O9 0.397091 0.199864 0.547029
O O10 0.129800 0.129800 0.500000
O O11 0.406509 0.203071 0.846466
#
# Coordination Sequence:
#
# PCOD9547321 Si02
#       5
#     8   8   8   8   8
#     4  11  24  39  54  77 111 147 179 211 252 305
#     4   9  17  30  48  70  97 130 167 208 256 308
#     4   9  17  32  56  81 100 125 169 220 264 308
#     4  11  24  41  62  88 114 141 177 218 258 302
#     4   7  12  26  48  71  95 125 164 210 256 304
#
# _framework density 22.545815000000001
#
# number of rings (size 3 to 8) (size 9 to 14) (size 15 to 20)
#    0.000    2.600    0.000    4.800    0.000    8.800 
#    0.000    2.000    0.000    9.600    0.000    0.000 
#    0.000    0.000    0.000    0.000    0.000    0.000 
#
# Total GULP energy -223758.737742 kJ/mol
# GULP energy per Si atom -5593.968444 kJ/mol
# Density = 2.249450 g / cm^3
# Si number density = 22.545815 Si / 1000 Ang^3
#
#
#
# Elastic Constant Matrix: (Units=GPa)
#
#
# Indices 1 2 3 4 5 6 
#
# 1 67.9067 46.0701 58.4158 0.0000 0.0000 0.0000
# 2 46.0701 67.9067 58.4158 0.0000 0.0000 0.0000
# 3 58.4158 58.4158 255.6965 0.0000 0.0000 0.0000
# 4 0.0000 0.0000 0.0000 96.3265 0.0000 0.0000
# 5 0.0000 0.0000 0.0000 0.0000 96.3265 0.0000
# 6 0.0000 0.0000 0.0000 0.0000 0.0000 36.5093
#
#
#
# Elastic Compliance Matrix: (Units=1/GPa)
#
#
# Indices 1 2 3 4 5 6 
#
# 1 0.028626 -0.017169 -0.002617 0.000000 0.000000 0.000000
# 2 -0.017169 0.028626 -0.002617 0.000000 0.000000 0.000000
# 3 -0.002617 -0.002617 0.005107 0.000000 0.000000 0.000000
# 4 0.000000 0.000000 0.000000 0.010381 0.000000 0.000000
# 5 0.000000 0.000000 0.000000 0.000000 0.010381 0.000000
# 6 0.000000 0.000000 0.000000 0.000000 0.000000 0.027390
#
#
# Mechanical properties :
#
#
# Convention : Reuss Voigt Hill
#
# Bulk Modulus (GPa) = 56.97797 79.70148 68.33972
# Shear Modulus (GPa) = 31.02335 61.07300 46.04818
#
# Velocity S-wave (km/s) = 3.71349 5.21030 4.52422
# Velocity P-wave (km/s) = 6.61163 8.46309 7.59400
#
# Compressibility (1/GPa) = 0.01755064
#
# Stress axis : x y z
#
# Youngs Moduli (GPa) = 34.93367 34.93367 195.81753
#
# Poissons Ratio (x) = 0.59978 0.51252
# Poissons Ratio (y) = 0.59978 0.51252
# Poissons Ratio (z) = 0.09143 0.09143
#
# Static dielectric constant tensor:
#      x y z
#    x 1.821020 0.000000 0.000000 
#    y 0.000000 1.821020 0.000000 
#    z 0.000000 0.000000 1.837760 
# 
# From -- ./inp_files/2882.got.cif
#   From: 2010.05.17/outbox.cif.g08.bks.cpg/sg90_2_cif.got.tgz:2882.got - 2010.06.03 19:17:45.
