data_PCOD9547599
_publ_section_title
;
Structure prediction by ZEFSAII (Michael W. Deem and Ramdas Pophale) SiO2 
 PCOD9547599
Probable space group: P 41 2 2
;
_chemical_formula_sum "Si O2"
_cell_formula_units_Z 44
_cell_length_a 14.979079
_cell_length_b 14.979079
_cell_length_c 11.185249
_cell_angle_alpha 90.000000
_cell_angle_beta 90.000000
_cell_angle_gamma 90.000000
_cell_volume 2509.665723
_symmetry_space_group_name_H-M "P 41 2 2"
_symmetry_group_IT_number 91
_symmetry_cell_setting 'tetragonal'
loop_
_space_group_symop_operation_xyz
x,y,z
-y,x,1/4+z
-x,-y,1/2+z
y,-x,3/4+z
x,-y,1/2-z
-x,y,-z
y,x,3/4-z
-y,-x,1/4-z
loop_
_atom_site_type_symbol
_atom_site_label
_atom_site_fract_x
_atom_site_fract_y
_atom_site_fract_z
Si Si1 0.563782 0.086542 0.814075
Si Si2 0.044079 0.185859 0.827184
Si Si3 0.910764 0.140796 0.434672
Si Si4 0.411679 0.160221 0.436895
Si Si5 0.962650 0.382254 0.192910
Si Si6 0.221032 0.221032 0.375000
O O1 0.565396 0.153842 0.704592
O O2 0.611145 0.101845 0.940486
O O3 0.606485 0.000000 0.750000
O O4 0.463895 0.060523 0.856177
O O5 0.119670 0.119670 0.875000
O O6 0.057083 0.189152 0.684238
O O7 0.048352 0.287450 0.869018
O O8 0.946213 0.146146 0.849991
O O9 0.854877 0.202769 0.524778
O O10 0.000000 0.107501 0.500000
O O11 0.500000 0.198578 0.500000
O O12 0.316572 0.208947 0.437768
O O13 0.396230 0.062846 0.502033
#
# Coordination Sequence:
#
# PCOD9547599 Si02
#       6
#     8   8   8   8   8   4
#     4   9  17  32  56  74  99 135 178 226 294 328
#     4  12  24  33  50  74 112 154 206 238 269 316
#     4  12  21  39  50  70 111 163 203 233 261 320
#     4  11  20  36  55  84 110 135 184 244 291 345
#     4  10  18  34  52  75 102 146 185 235 285 330
#     4  12  24  36  62  80 112 156 192 232 296 348
#
# _framework density 17.532215000000001
#
# number of rings (size 3 to 8) (size 9 to 14) (size 15 to 20)
#    0.000    1.091    7.273    2.727    0.000    4.364 
#    0.000    0.000    0.000    0.000    0.000    0.000 
#   13.636    0.000    0.000    0.000    0.000    0.000 
#
# Total GULP energy -245441.449537 kJ/mol
# GULP energy per Si atom -5578.214762 kJ/mol
# Density = 1.749231 g / cm^3
# Si number density = 17.532215 Si / 1000 Ang^3
#
#
#
# Elastic Constant Matrix: (Units=GPa)
#
#
# Indices 1 2 3 4 5 6 
#
# 1 82.7665 15.1690 -2.0202 0.0000 0.0000 0.0000
# 2 15.1690 82.7665 -2.0202 0.0000 0.0000 0.0000
# 3 -2.0202 -2.0202 55.8637 0.0000 0.0000 0.0000
# 4 0.0000 0.0000 0.0000 14.9059 0.0000 0.0000
# 5 0.0000 0.0000 0.0000 0.0000 14.9059 0.0000
# 6 0.0000 0.0000 0.0000 0.0000 0.0000 6.9478
#
#
#
# Elastic Compliance Matrix: (Units=1/GPa)
#
#
# Indices 1 2 3 4 5 6 
#
# 1 0.012510 -0.002284 0.000370 0.000000 0.000000 0.000000
# 2 -0.002284 0.012510 0.000370 0.000000 0.000000 0.000000
# 3 0.000370 0.000370 0.017927 0.000000 0.000000 0.000000
# 4 0.000000 0.000000 0.000000 0.067087 0.000000 0.000000
# 5 0.000000 0.000000 0.000000 0.000000 0.067087 0.000000
# 6 0.000000 0.000000 0.000000 0.000000 0.000000 0.143930
#
#
# Mechanical properties :
#
#
# Convention : Reuss Voigt Hill
#
# Bulk Modulus (GPa) = 25.08853 27.07262 26.08058
# Shear Modulus (GPa) = 14.81803 21.36979 18.09391
#
# Velocity S-wave (km/s) = 2.91037 3.49504 3.21602
# Velocity P-wave (km/s) = 5.06307 5.63580 5.35710
#
# Compressibility (1/GPa) = 0.03985885
#
# Stress axis : x y z
#
# Youngs Moduli (GPa) = 79.93761 79.93761 55.78031
#
# Poissons Ratio (x) = 0.18255 -0.02063
# Poissons Ratio (y) = 0.18255 -0.02063
# Poissons Ratio (z) = -0.02956 -0.02956
#
# Static dielectric constant tensor:
#      x y z
#    x 1.608010 0.000000 0.000000 
#    y 0.000000 1.608010 0.000000 
#    z 0.000000 0.000000 1.646220 
# 
# From -- ./inp_files/3727.got.cif
#   From: 2010.05.17/outbox.cif.g08.bks.cpg/sg91_2_cif.got.tgz:3727.got - 2010.06.03 19:20:03.
