data_PCOD9547203
_publ_section_title
;
Structure prediction by ZEFSAII (Michael W. Deem and Ramdas Pophale) SiO2 
 PCOD9547203
Probable space group: P 4 21 2
;
_chemical_formula_sum "Si O2"
_cell_formula_units_Z 56
_cell_length_a 15.546689
_cell_length_b 15.546689
_cell_length_c 11.869949
_cell_angle_alpha 90.000000
_cell_angle_beta 90.000000
_cell_angle_gamma 90.000000
_cell_volume 2868.961200
_symmetry_space_group_name_H-M "P 4 21 2"
_symmetry_group_IT_number 90
_symmetry_cell_setting 'tetragonal'
loop_
_space_group_symop_operation_xyz
x,y,z
1/2-y,1/2+x,z
-x,-y,z
1/2+y,1/2-x,z
1/2+x,1/2-y,-z
1/2-x,1/2+y,-z
y,x,-z
-y,-x,-z
loop_
_atom_site_type_symbol
_atom_site_label
_atom_site_fract_x
_atom_site_fract_y
_atom_site_fract_z
Si Si1 0.053779 0.912688 0.125225
Si Si2 0.620172 0.240531 0.551343
Si Si3 0.826356 0.153301 0.300935
Si Si4 0.079307 0.736603 0.478011
Si Si5 0.778177 0.909229 0.813039
Si Si6 0.769003 0.298045 0.886784
Si Si7 0.376244 0.074488 0.979433
O O1 0.126449 0.913180 0.219964
O O2 0.993128 0.830787 0.150557
O O3 0.091707 0.908294 0.000000
O O4 0.000000 0.000000 0.132508
O O5 0.689894 0.310107 0.500000
O O6 0.522871 0.235692 0.505966
O O7 0.656091 0.143696 0.536697
O O8 0.606292 0.266278 0.681312
O O9 0.897716 0.212270 0.362736
O O10 0.780063 0.113430 0.408127
O O11 0.759299 0.201826 0.219145
O O12 0.828990 0.827340 0.862006
O O13 0.684515 0.906296 0.872227
O O14 0.760397 0.239604 0.000000
O O15 0.828215 0.378867 0.916973
O O16 0.471802 0.113415 0.979774
#
# Coordination Sequence:
#
# PCOD9547203 Si02
#       7
#     8   8   8   8   8   8   8
#     4  11  27  41  66 107 143 179 233 294 354 440
#     4  12  25  47  74 102 142 187 243 309 363 439
#     4  11  22  45  67 100 139 183 233 292 350 430
#     4  11  25  45  73 104 139 186 246 289 370 437
#     4  11  24  42  70  98 140 179 228 287 366 411
#     4  10  22  39  70  93 133 181 219 275 351 417
#     4  10  25  43  65 100 135 176 232 284 344 429
#
# _framework density 19.519259000000002
#
# number of rings (size 3 to 8) (size 9 to 14) (size 15 to 20)
#    0.000    1.143    4.286    0.429   16.000    0.286 
#    2.571    1.429    0.000    0.000    0.000    0.000 
#    0.000    0.000    0.000    0.000    0.000    0.000 
#
# Total GULP energy -312233.648626 kJ/mol
# GULP energy per Si atom -5575.600868 kJ/mol
# Density = 1.947483 g / cm^3
# Si number density = 19.519259 Si / 1000 Ang^3
#
#
#
# Elastic Constant Matrix: (Units=GPa)
#
#
# Indices 1 2 3 4 5 6 
#
# 1 80.3827 54.7996 39.8354 0.0000 0.0000 0.0000
# 2 54.7996 80.3819 39.8327 0.0000 0.0000 0.0000
# 3 39.8354 39.8327 127.8631 0.0000 0.0000 0.0000
# 4 0.0000 0.0000 0.0000 13.9367 0.0000 0.0000
# 5 0.0000 0.0000 0.0000 0.0000 13.9357 0.0000
# 6 0.0000 0.0000 0.0000 0.0000 0.0000 33.2995
#
#
#
# Elastic Compliance Matrix: (Units=1/GPa)
#
#
# Indices 1 2 3 4 5 6 
#
# 1 0.024075 -0.015014 -0.002823 0.000000 0.000000 0.000000
# 2 -0.015014 0.024075 -0.002822 0.000000 0.000000 0.000000
# 3 -0.002823 -0.002822 0.009580 0.000000 0.000000 0.000000
# 4 0.000000 0.000000 0.000000 0.071753 0.000000 0.000000
# 5 0.000000 0.000000 0.000000 0.000000 0.071758 0.000000
# 6 0.000000 0.000000 0.000000 0.000000 0.000000 0.030030
#
#
# Mechanical properties :
#
#
# Convention : Reuss Voigt Hill
#
# Bulk Modulus (GPa) = 60.93690 61.95145 61.44418
# Shear Modulus (GPa) = 17.98169 22.51171 20.24670
#
# Velocity S-wave (km/s) = 3.03847 3.39972 3.22416
# Velocity P-wave (km/s) = 6.60275 6.87156 6.73850
#
# Compressibility (1/GPa) = 0.01641042
#
# Stress axis : x y z
#
# Youngs Moduli (GPa) = 41.53669 41.53721 104.38725
#
# Poissons Ratio (x) = 0.62363 0.29472
# Poissons Ratio (y) = 0.62363 0.29462
# Poissons Ratio (z) = 0.11727 0.11723
#
# Static dielectric constant tensor:
#      x y z
#    x 1.734730 0.000000 0.000000 
#    y 0.000000 1.734740 0.000000 
#    z 0.000000 0.000000 1.699750 
# 
# From -- ./inp_files/2255.got.cif
#   From: 2010.05.17/outbox.cif.g08.bks.cpg/sg90_2_cif.got.tgz:2255.got - 2010.06.03 19:17:45.
