data_PCOD9547672
_publ_section_title
;
Structure prediction by ZEFSAII (Michael W. Deem and Ramdas Pophale) SiO2 
 PCOD9547672
Probable space group: P 41 2 2
;
_chemical_formula_sum "Si O2"
_cell_formula_units_Z 48
_cell_length_a 23.247190
_cell_length_b 23.247190
_cell_length_c 4.900976
_cell_angle_alpha 90.000000
_cell_angle_beta 90.000000
_cell_angle_gamma 90.000000
_cell_volume 2648.643492
_symmetry_space_group_name_H-M "P 41 2 2"
_symmetry_group_IT_number 91
_symmetry_cell_setting 'tetragonal'
loop_
_space_group_symop_operation_xyz
x,y,z
-y,x,1/4+z
-x,-y,1/2+z
y,-x,3/4+z
x,-y,1/2-z
-x,y,-z
y,x,3/4-z
-y,-x,1/4-z
loop_
_atom_site_type_symbol
_atom_site_label
_atom_site_fract_x
_atom_site_fract_y
_atom_site_fract_z
Si Si1 0.066061 0.847439 0.479724
Si Si2 0.230057 0.066232 0.224432
Si Si3 0.538683 0.624579 0.237741
Si Si4 0.763408 0.670279 0.333099
Si Si5 0.247507 0.459262 0.014763
Si Si6 0.725797 0.818084 0.918179
O O1 0.107015 0.892986 0.625000
O O2 0.073661 0.790297 0.664626
O O3 0.000000 0.866997 0.500000
O O4 0.073770 0.826165 0.170272
O O5 0.272047 0.116337 0.323248
O O6 0.249858 0.000000 0.250000
O O7 0.500000 0.634224 0.500000
O O8 0.590119 0.590119 0.375000
O O9 0.554710 0.687383 0.129203
O O10 0.500000 0.595614 0.000000
O O11 0.700238 0.700238 0.375000
O O12 0.771603 0.604315 0.422380
O O13 0.805792 0.707766 0.523605
O O14 0.781950 0.682179 0.023029
O O15 0.220357 0.500000 0.250000
O O16 0.247000 0.500000 0.750000
O O17 0.788120 0.788120 0.875000
#
# Coordination Sequence:
#
# PCOD9547672 Si02
#       6
#     8   8   8   8   8   8
#     4  10  19  31  46  65  91 129 172 213 252 287
#     4  10  20  33  50  71  99 132 168 207 250 304
#     4  10  20  32  46  63  85 118 157 196 236 273
#     4  10  20  33  51  76 104 131 162 204 251 299
#     4  10  20  34  51  70  96 128 160 195 239 296
#     4  10  19  31  50  75 102 132 163 203 254 303
#
# _framework density 18.122484
#
# number of rings (size 3 to 8) (size 9 to 14) (size 15 to 20)
#    0.000    2.000    0.000    4.500    0.000    2.000 
#    0.000    7.500    0.000    0.000    0.000    0.000 
#    0.000   13.333    0.000    0.000    0.000    0.000 
#
# Total GULP energy -267313.219579 kJ/mol
# GULP energy per Si atom -5569.025408 kJ/mol
# Density = 1.808124 g / cm^3
# Si number density = 18.122484 Si / 1000 Ang^3
#
#
#
# Elastic Constant Matrix: (Units=GPa)
#
#
# Indices 1 2 3 4 5 6 
#
# 1 68.3862 15.7650 0.0868 0.0000 0.0000 0.0000
# 2 15.7650 68.3866 0.0877 0.0000 0.0000 0.0000
# 3 0.0868 0.0877 78.3921 0.0000 0.0000 0.0000
# 4 0.0000 0.0000 0.0000 19.3231 0.0000 0.0000
# 5 0.0000 0.0000 0.0000 0.0000 19.3233 0.0000
# 6 0.0000 0.0000 0.0000 0.0000 0.0000 9.9181
#
#
#
# Elastic Compliance Matrix: (Units=1/GPa)
#
#
# Indices 1 2 3 4 5 6 
#
# 1 0.015444 -0.003560 -0.000013 0.000000 0.000000 0.000000
# 2 -0.003560 0.015443 -0.000013 0.000000 0.000000 0.000000
# 3 -0.000013 -0.000013 0.012756 0.000000 0.000000 0.000000
# 4 0.000000 0.000000 0.000000 0.051751 0.000000 0.000000
# 5 0.000000 0.000000 0.000000 0.000000 0.051751 0.000000
# 6 0.000000 0.000000 0.000000 0.000000 0.000000 0.100825
#
#
# Mechanical properties :
#
#
# Convention : Reuss Voigt Hill
#
# Bulk Modulus (GPa) = 27.41964 27.44936 27.43450
# Shear Modulus (GPa) = 18.70548 22.99459 20.85004
#
# Velocity S-wave (km/s) = 3.21623 3.56595 3.39559
# Velocity P-wave (km/s) = 5.38100 5.66869 5.52672
#
# Compressibility (1/GPa) = 0.03647021
#
# Stress axis : x y z
#
# Youngs Moduli (GPa) = 64.75189 64.75224 78.39192
#
# Poissons Ratio (x) = 0.23053 0.00103
# Poissons Ratio (y) = 0.23053 0.00105
# Poissons Ratio (z) = 0.00085 0.00086
#
# Static dielectric constant tensor:
#      x y z
#    x 1.641390 0.000000 0.000000 
#    y 0.000000 1.641390 0.000000 
#    z 0.000000 0.000000 1.631930 
# 
# From -- ./inp_files/14366.got.cif
#   From: 2010.05.17/outbox.cif.g08.bks.cpg/sg91_8_cif.got.tgz:14366.got - 2010.06.03 19:20:03.
