data_PCOD9547025
_publ_section_title
;
Structure prediction by ZEFSAII (Michael W. Deem and Ramdas Pophale) SiO2 
 PCOD9547025
Probable space group: P 4 2 2
;
_chemical_formula_sum "Si O2"
_cell_formula_units_Z 40
_cell_length_a 9.048741
_cell_length_b 9.048741
_cell_length_c 26.874203
_cell_angle_alpha 90.000000
_cell_angle_beta 90.000000
_cell_angle_gamma 90.000000
_cell_volume 2200.452047
_symmetry_space_group_name_H-M "P 4 2 2"
_symmetry_group_IT_number 89
_symmetry_cell_setting 'tetragonal'
loop_
_space_group_symop_operation_xyz
x,y,z
-y,x,z
-x,-y,z
y,-x,z
x,-y,-z
-x,y,-z
y,x,-z
-y,-x,-z
loop_
_atom_site_type_symbol
_atom_site_label
_atom_site_fract_x
_atom_site_fract_y
_atom_site_fract_z
Si Si1 0.977329 0.752886 0.443659
Si Si2 0.606651 0.724574 0.181088
Si Si3 0.500000 0.000000 0.633538
Si Si4 0.677168 0.322833 0.000000
Si Si5 0.261097 0.570250 0.294481
Si Si6 0.207522 0.138532 0.094409
O O1 0.846592 0.871945 0.437773
O O2 0.000000 0.694106 0.500000
O O3 0.947418 0.627899 0.403564
O O4 0.433644 0.688239 0.174543
O O5 0.608664 0.783887 0.237692
O O6 0.687624 0.824432 0.141115
O O7 0.425668 0.874832 0.668044
O O8 0.699384 0.500000 0.000000
O O9 0.775792 0.272548 0.046819
O O10 0.324720 0.403613 0.301054
O O11 0.038632 0.195972 0.094717
#
# Coordination Sequence:
#
# PCOD9547025 Si02
#       6
#     8   8   4   4   8   8
#     4   9  19  35  52  74 108 146 184 230 286 348
#     4   9  19  37  58  78 104 143 187 223 265 330
#     4  12  19  30  56  84 104 138 189 236 284 338
#     4  11  24  41  62  88 114 145 188 229 270 332
#     4   9  20  36  52  76 110 142 177 226 278 330
#     4  11  24  39  57  85 118 146 179 228 280 327
#
# _framework density 18.178080999999999
#
# number of rings (size 3 to 8) (size 9 to 14) (size 15 to 20)
#    0.000    2.100    0.000    5.100    0.000    9.600 
#    0.000    0.000    0.000    2.400    0.000    8.400 
#    0.000    0.000    0.000    0.000    0.000    0.000 
#
# Total GULP energy -222746.864419 kJ/mol
# GULP energy per Si atom -5568.671610 kJ/mol
# Density = 1.813671 g / cm^3
# Si number density = 18.178081 Si / 1000 Ang^3
#
#
#
# Elastic Constant Matrix: (Units=GPa)
#
#
# Indices 1 2 3 4 5 6 
#
# 1 57.3239 37.9370 61.9255 0.0000 0.0000 0.0000
# 2 37.9370 57.3240 61.9254 0.0000 0.0000 0.0000
# 3 61.9255 61.9254 121.9105 0.0000 0.0000 0.0000
# 4 0.0000 0.0000 0.0000 -138.4638 0.0000 0.0000
# 5 0.0000 0.0000 0.0000 0.0000 -138.4038 0.0000
# 6 0.0000 0.0000 0.0000 0.0000 0.0000 20.8760
#
#
#
# Elastic Compliance Matrix: (Units=1/GPa)
#
#
# Indices 1 2 3 4 5 6 
#
# 1 0.041247 -0.010335 -0.015702 0.000000 0.000000 0.000000
# 2 -0.010335 0.041246 -0.015702 0.000000 0.000000 0.000000
# 3 -0.015702 -0.015702 0.024155 0.000000 0.000000 0.000000
# 4 0.000000 0.000000 0.000000 -0.007222 0.000000 0.000000
# 5 0.000000 0.000000 0.000000 0.000000 -0.007225 0.000000
# 6 0.000000 0.000000 0.000000 0.000000 0.000000 0.047902
#
#
# Mechanical properties :
#
#
# Convention : Reuss Voigt Hill
#
# Bulk Modulus (GPa) = 43.15803 62.23712 52.69758
# Shear Modulus (GPa) = 21.61666 -46.21362 -12.29848
#
# Velocity S-wave (km/s) = 3.45216 -5.04756 -2.60389
# Velocity P-wave (km/s) = 6.29946 0.58416 4.47350
#
# Compressibility (1/GPa) = 0.02317066
#
# Stress axis : x y z
#
# Youngs Moduli (GPa) = 24.24440 24.24449 41.39981
#
# Poissons Ratio (x) = 0.25056 0.65006
# Poissons Ratio (y) = 0.25055 0.65006
# Poissons Ratio (z) = 0.38069 0.38069
#
# Static dielectric constant tensor:
#      x y z
#    x 1.633320 0.000000 0.000000 
#    y 0.000000 1.633310 0.000000 
#    z 0.000000 0.000000 1.631240 
# 
# From -- ./inp_files/2835.got.cif
#   From: 2010.05.17/outbox.cif.g08.bks.cpg/sg89_2_cif.got.tgz:2835.got - 2010.06.03 19:15:31.
