data_PCOD9547094
_publ_section_title
;
Structure prediction by ZEFSAII (Michael W. Deem and Ramdas Pophale) SiO2 
 PCOD9547094
Probable space group: P 4 21 2
;
_chemical_formula_sum "Si O2"
_cell_formula_units_Z 48
_cell_length_a 14.153704
_cell_length_b 14.153704
_cell_length_c 11.047443
_cell_angle_alpha 90.000000
_cell_angle_beta 90.000000
_cell_angle_gamma 90.000000
_cell_volume 2213.104836
_symmetry_space_group_name_H-M "P 4 21 2"
_symmetry_group_IT_number 90
_symmetry_cell_setting 'tetragonal'
loop_
_space_group_symop_operation_xyz
x,y,z
1/2-y,1/2+x,z
-x,-y,z
1/2+y,1/2-x,z
1/2+x,1/2-y,-z
1/2-x,1/2+y,-z
y,x,-z
-y,-x,-z
loop_
_atom_site_type_symbol
_atom_site_label
_atom_site_fract_x
_atom_site_fract_y
_atom_site_fract_z
Si Si1 0.651980 0.993314 0.118811
Si Si2 0.800078 0.574876 0.629520
Si Si3 0.981053 0.891555 0.661008
Si Si4 0.714354 0.283784 0.645528
Si Si5 0.137564 0.992590 0.060432
Si Si6 0.384130 0.902301 0.635463
O O1 0.594278 0.086861 0.086113
O O2 0.665237 0.004097 0.265490
O O3 0.752317 0.988048 0.056092
O O4 0.694555 0.536779 0.593555
O O5 0.795510 0.678634 0.689027
O O6 0.864382 0.587988 0.510382
O O7 0.015456 0.887042 0.798653
O O8 0.871177 0.857212 0.666199
O O9 0.000000 0.000000 0.622520
O O10 0.721337 0.278664 0.500000
O O11 0.680000 0.180965 0.685391
O O12 0.103920 0.896081 0.000000
O O13 0.075459 0.075459 0.000000
O O14 0.489652 0.871855 0.671214
#
# Coordination Sequence:
#
# PCOD9547094 Si02
#       6
#     8   8   8   8   8   8
#     4  10  20  34  59  93 121 150 202 264 317 373
#     4  10  19  35  57  83 119 159 210 261 314 374
#     4  11  22  37  63  91 124 167 213 275 321 376
#     4  10  22  37  55  89 128 165 215 256 321 384
#     4  10  20  40  63  88 124 166 211 255 329 397
#     4  10  20  35  56  77 115 167 210 255 310 373
#
# _framework density 21.688987000000001
#
# number of rings (size 3 to 8) (size 9 to 14) (size 15 to 20)
#    0.000    1.833    1.667    5.000    2.333    2.333 
#    3.000    0.000    0.000    0.000    0.000    2.333 
#    0.000    0.000    0.000    0.000    0.000    0.000 
#
# Total GULP energy -267811.555940 kJ/mol
# GULP energy per Si atom -5579.407415 kJ/mol
# Density = 2.163962 g / cm^3
# Si number density = 21.688987 Si / 1000 Ang^3
#
#
#
# Elastic Constant Matrix: (Units=GPa)
#
#
# Indices 1 2 3 4 5 6 
#
# 1 125.7523 52.9729 -1.7883 0.0000 0.0000 0.0000
# 2 52.9729 125.7695 -1.7876 0.0000 0.0000 0.0000
# 3 -1.7883 -1.7876 25.4463 0.0000 0.0000 0.0000
# 4 0.0000 0.0000 0.0000 17.5722 0.0000 0.0000
# 5 0.0000 0.0000 0.0000 0.0000 17.5719 0.0000
# 6 0.0000 0.0000 0.0000 0.0000 0.0000 25.3223
#
#
#
# Elastic Compliance Matrix: (Units=1/GPa)
#
#
# Indices 1 2 3 4 5 6 
#
# 1 0.009671 -0.004068 0.000394 0.000000 0.000000 0.000000
# 2 -0.004068 0.009670 0.000393 0.000000 0.000000 0.000000
# 3 0.000394 0.000393 0.039354 0.000000 0.000000 0.000000
# 4 0.000000 0.000000 0.000000 0.056908 0.000000 0.000000
# 5 0.000000 0.000000 0.000000 0.000000 0.056909 0.000000
# 6 0.000000 0.000000 0.000000 0.000000 0.000000 0.039491
#
#
# Mechanical properties :
#
#
# Convention : Reuss Voigt Hill
#
# Bulk Modulus (GPa) = 19.18136 41.75135 30.46636
# Shear Modulus (GPa) = 21.19164 27.26469 24.22816
#
# Velocity S-wave (km/s) = 3.12920 3.54937 3.34589
# Velocity P-wave (km/s) = 4.68176 6.00743 5.38554
#
# Compressibility (1/GPa) = 0.05213394
#
# Stress axis : x y z
#
# Youngs Moduli (GPa) = 103.39843 103.41275 25.41058
#
# Poissons Ratio (x) = 0.42067 -0.01001
# Poissons Ratio (y) = 0.42061 -0.01000
# Poissons Ratio (z) = -0.04073 -0.04069
#
# Static dielectric constant tensor:
#      x y z
#    x 1.845110 0.000000 0.000000 
#    y 0.000000 1.845110 0.000000 
#    z 0.000000 0.000000 1.787750 
# 
# From -- ./inp_files/2143.got.cif
#   From: 2010.05.17/outbox.cif.g08.bks.cpg/sg90_2_cif.got.tgz:2143.got - 2010.06.03 19:17:45.
