data_PCOD9547649
_publ_section_title
;
Structure prediction by ZEFSAII (Michael W. Deem and Ramdas Pophale) SiO2 
 PCOD9547649
Probable space group: P 41 2 2
;
_chemical_formula_sum "Si O2"
_cell_formula_units_Z 36
_cell_length_a 9.179770
_cell_length_b 9.179770
_cell_length_c 20.529366
_cell_angle_alpha 90.000000
_cell_angle_beta 90.000000
_cell_angle_gamma 90.000000
_cell_volume 1729.972253
_symmetry_space_group_name_H-M "P 41 2 2"
_symmetry_group_IT_number 91
_symmetry_cell_setting 'tetragonal'
loop_
_space_group_symop_operation_xyz
x,y,z
-y,x,1/4+z
-x,-y,1/2+z
y,-x,3/4+z
x,-y,1/2-z
-x,y,-z
y,x,3/4-z
-y,-x,1/4-z
loop_
_atom_site_type_symbol
_atom_site_label
_atom_site_fract_x
_atom_site_fract_y
_atom_site_fract_z
Si Si1 0.131797 0.206167 0.948674
Si Si2 0.472240 0.527761 0.125000
Si Si3 0.351631 0.029884 0.039152
Si Si4 0.670571 0.294940 0.524775
Si Si5 0.455343 0.192796 0.166633
O O1 0.134660 0.134660 0.875000
O O2 0.149368 0.379818 0.935367
O O3 0.259920 0.133534 0.991184
O O4 0.000000 0.186165 0.000000
O O5 0.349273 0.567578 0.072435
O O6 0.458995 0.362200 0.145931
O O7 0.389829 0.101161 0.107886
O O8 0.292474 0.866143 0.049586
O O9 0.500000 0.012742 0.000000
O O10 0.500000 0.285811 0.500000
O O11 0.796429 0.342953 0.475789
#
# Coordination Sequence:
#
# PCOD9547649 Si02
#       5
#     8   4   8   8   8
#     4  12  27  46  71 104 139 190 241 292 360 442
#     4  10  18  40  64  98 136 172 234 278 346 404
#     4  11  22  42  66  96 139 176 229 283 350 417
#     4   9  22  37  65 101 133 169 221 293 345 401
#     4  11  21  40  70  99 133 181 234 289 344 421
#
# _framework density 20.809581999999999
#
# number of rings (size 3 to 8) (size 9 to 14) (size 15 to 20)
#    0.000    1.333    3.333    1.333    3.111    5.333 
#    2.000    1.111    0.000    0.000    0.000    0.000 
#    0.000    0.000    0.000    0.000    0.000    0.000 
#
# Total GULP energy -200456.436583 kJ/mol
# GULP energy per Si atom -5568.234350 kJ/mol
# Density = 2.076222 g / cm^3
# Si number density = 20.809582 Si / 1000 Ang^3
#
#
#
# Elastic Constant Matrix: (Units=GPa)
#
#
# Indices 1 2 3 4 5 6 
#
# 1 75.0240 29.6666 48.4192 0.0000 0.0000 0.0000
# 2 29.6666 75.0249 48.4196 0.0000 0.0000 0.0000
# 3 48.4192 48.4196 96.6463 0.0000 0.0000 0.0000
# 4 0.0000 0.0000 0.0000 52.1238 0.0000 0.0000
# 5 0.0000 0.0000 0.0000 0.0000 52.1237 0.0000
# 6 0.0000 0.0000 0.0000 0.0000 0.0000 -17.8353
#
#
#
# Elastic Compliance Matrix: (Units=1/GPa)
#
#
# Indices 1 2 3 4 5 6 
#
# 1 0.019924 -0.002123 -0.008918 0.000000 0.000000 0.000000
# 2 -0.002123 0.019924 -0.008918 0.000000 0.000000 0.000000
# 3 -0.008918 -0.008918 0.019283 0.000000 0.000000 0.000000
# 4 0.000000 0.000000 0.000000 0.019185 0.000000 0.000000
# 5 0.000000 0.000000 0.000000 0.000000 0.019185 0.000000
# 6 0.000000 0.000000 0.000000 0.000000 0.000000 -0.056068
#
#
# Mechanical properties :
#
#
# Convention : Reuss Voigt Hill
#
# Bulk Modulus (GPa) = 52.04997 55.52289 53.78643
# Shear Modulus (GPa) = 56.97573 25.29509 41.13541
#
# Velocity S-wave (km/s) = 5.23823 3.49026 4.45089
# Velocity P-wave (km/s) = 7.85189 6.55605 7.23305
#
# Compressibility (1/GPa) = 0.01921231
#
# Stress axis : x y z
#
# Youngs Moduli (GPa) = 50.19007 50.19052 51.85860
#
# Poissons Ratio (x) = 0.10654 0.46250
# Poissons Ratio (y) = 0.10654 0.46250
# Poissons Ratio (z) = 0.44762 0.44762
#
# Static dielectric constant tensor:
#      x y z
#    x 1.764270 0.000000 0.000000 
#    y 0.000000 1.764270 0.000000 
#    z 0.000000 0.000000 1.969330 
# 
# From -- ./inp_files/6124.got.cif
#   From: 2010.05.17/outbox.cif.g08.bks.cpg/sg91_4_cif.got.tgz:6124.got - 2010.06.03 19:20:03.
