data_PCOD9547671
_publ_section_title
;
Structure prediction by ZEFSAII (Michael W. Deem and Ramdas Pophale) SiO2 
 PCOD9547671
Probable space group: P 41 2 2
;
_chemical_formula_sum "Si O2"
_cell_formula_units_Z 48
_cell_length_a 22.525145
_cell_length_b 22.525145
_cell_length_c 5.078781
_cell_angle_alpha 90.000000
_cell_angle_beta 90.000000
_cell_angle_gamma 90.000000
_cell_volume 2576.882860
_symmetry_space_group_name_H-M "P 41 2 2"
_symmetry_group_IT_number 91
_symmetry_cell_setting 'tetragonal'
loop_
_space_group_symop_operation_xyz
x,y,z
-y,x,1/4+z
-x,-y,1/2+z
y,-x,3/4+z
x,-y,1/2-z
-x,y,-z
y,x,3/4-z
-y,-x,1/4-z
loop_
_atom_site_type_symbol
_atom_site_label
_atom_site_fract_x
_atom_site_fract_y
_atom_site_fract_z
Si Si1 0.457476 0.193213 0.250106
Si Si2 0.810874 0.714890 0.346563
Si Si3 0.339716 0.245253 0.402884
Si Si4 0.063151 0.543586 0.999130
Si Si5 0.062004 0.161095 0.413484
Si Si6 0.753585 0.938993 0.332492
O O1 0.500000 0.191922 0.500000
O O2 0.406655 0.240670 0.304810
O O3 0.426333 0.127623 0.235474
O O4 0.500000 0.201979 0.000000
O O5 0.779701 0.779701 0.375000
O O6 0.777128 0.671335 0.550204
O O7 0.879248 0.715836 0.426904
O O8 0.797420 0.696365 0.048192
O O9 0.309082 0.309082 0.375000
O O10 0.063373 0.500000 0.250000
O O11 0.062284 0.500000 0.750000
O O12 0.000000 0.577688 0.000000
O O13 0.114962 0.114962 0.375000
O O14 0.066181 0.212486 0.637232
O O15 0.000000 0.130494 0.500000
O O16 0.060036 0.195197 0.137666
O O17 0.720071 0.000000 0.250000
#
# Coordination Sequence:
#
# PCOD9547671 Si02
#       6
#     8   8   8   8   8   8
#     4  10  19  33  53  75 104 140 174 210 258 309
#     4  10  19  33  52  71  97 134 169 206 258 310
#     4  10  21  35  53  79 107 135 172 215 253 300
#     4   8  14  25  42  64  90 123 165 206 242 288
#     4  10  19  31  46  65  87 116 155 203 260 321
#     4  10  20  33  50  70  94 122 163 214 258 310
#
# _framework density 18.627154000000001
#
# number of rings (size 3 to 8) (size 9 to 14) (size 15 to 20)
#    0.000    2.333    0.000    3.500    0.000    1.333 
#    0.000    4.167    0.000    2.000    0.000    0.000 
#    0.000    1.333    0.000    0.000    0.000    0.000 
#
# Total GULP energy -267332.708701 kJ/mol
# GULP energy per Si atom -5569.431431 kJ/mol
# Density = 1.858476 g / cm^3
# Si number density = 18.627154 Si / 1000 Ang^3
#
#
#
# Elastic Constant Matrix: (Units=GPa)
#
#
# Indices 1 2 3 4 5 6 
#
# 1 68.1756 33.7622 4.2189 0.0000 0.0000 0.0000
# 2 33.7622 68.1756 4.2189 0.0000 0.0000 0.0000
# 3 4.2189 4.2189 105.8231 0.0000 0.0000 0.0000
# 4 0.0000 0.0000 0.0000 12.9931 0.0000 0.0000
# 5 0.0000 0.0000 0.0000 0.0000 12.9931 0.0000
# 6 0.0000 0.0000 0.0000 0.0000 0.0000 16.8877
#
#
#
# Elastic Compliance Matrix: (Units=1/GPa)
#
#
# Indices 1 2 3 4 5 6 
#
# 1 0.019450 -0.009608 -0.000392 0.000000 0.000000 0.000000
# 2 -0.009608 0.019450 -0.000392 0.000000 0.000000 0.000000
# 3 -0.000392 -0.000392 0.009481 0.000000 0.000000 0.000000
# 4 0.000000 0.000000 0.000000 0.076964 0.000000 0.000000
# 5 0.000000 0.000000 0.000000 0.000000 0.076964 0.000000
# 6 0.000000 0.000000 0.000000 0.000000 0.000000 0.059215
#
#
# Mechanical properties :
#
#
# Convention : Reuss Voigt Hill
#
# Bulk Modulus (GPa) = 36.23685 36.28604 36.26145
# Shear Modulus (GPa) = 17.15213 21.90640 19.52927
#
# Velocity S-wave (km/s) = 3.03778 3.43307 3.24146
# Velocity P-wave (km/s) = 5.63916 5.93609 5.78953
#
# Compressibility (1/GPa) = 0.02759622
#
# Stress axis : x y z
#
# Youngs Moduli (GPa) = 51.41279 51.41279 105.47394
#
# Poissons Ratio (x) = 0.49398 0.04139
# Poissons Ratio (y) = 0.49398 0.04139
# Poissons Ratio (z) = 0.02017 0.02017
#
# Static dielectric constant tensor:
#      x y z
#    x 1.676210 0.000000 0.000000 
#    y 0.000000 1.676210 0.000000 
#    z 0.000000 0.000000 1.635430 
# 
# From -- ./inp_files/14362.got.cif
#   From: 2010.05.17/outbox.cif.g08.bks.cpg/sg91_8_cif.got.tgz:14362.got - 2010.06.03 19:20:03.
