data_PCOD9547939
_publ_section_title
;
Structure prediction by ZEFSAII (Michael W. Deem and Ramdas Pophale) SiO2 
 PCOD9547939
Probable space group: P 41 2 2
;
_chemical_formula_sum "Si O2"
_cell_formula_units_Z 40
_cell_length_a 8.805449
_cell_length_b 8.805449
_cell_length_c 26.032831
_cell_angle_alpha 90.000000
_cell_angle_beta 90.000000
_cell_angle_gamma 90.000000
_cell_volume 2018.479817
_symmetry_space_group_name_H-M "P 41 2 2"
_symmetry_group_IT_number 91
_symmetry_cell_setting 'tetragonal'
loop_
_space_group_symop_operation_xyz
x,y,z
-y,x,1/4+z
-x,-y,1/2+z
y,-x,3/4+z
x,-y,1/2-z
-x,y,-z
y,x,3/4-z
-y,-x,1/4-z
loop_
_atom_site_type_symbol
_atom_site_label
_atom_site_fract_x
_atom_site_fract_y
_atom_site_fract_z
Si Si1 0.055113 0.000000 0.250000
Si Si2 0.189422 0.745987 0.724060
Si Si3 0.500000 0.369110 0.500000
Si Si4 0.710071 0.472781 0.082508
Si Si5 0.260161 0.183779 0.432404
Si Si6 0.857996 0.586847 0.175765
O O1 0.942543 0.871752 0.274270
O O2 0.155418 0.903844 0.209430
O O3 0.338307 0.804980 0.694464
O O4 0.139735 0.588990 0.695281
O O5 0.231018 0.686720 0.781539
O O6 0.401806 0.463177 0.540274
O O7 0.373358 0.276835 0.468597
O O8 0.605675 0.394326 0.125000
O O9 0.801585 0.590736 0.117195
O O10 0.247709 0.247709 0.375000
O O11 0.340711 0.021903 0.428057
#
# Coordination Sequence:
#
# PCOD9547939 Si02
#       6
#     4   8   4   8   8   8
#     4  10  22  42  62  92 130 160 208 264 314 382
#     4   9  18  38  64  90 123 160 205 260 315 365
#     4  12  24  42  62  90 132 166 204 266 312 376
#     4  10  20  37  65  92 115 161 214 258 308 370
#     4  11  25  41  63  92 128 173 206 256 327 376
#     4   9  19  39  60  87 124 165 207 253 312 381
#
# _framework density 19.816896
#
# number of rings (size 3 to 8) (size 9 to 14) (size 15 to 20)
#    0.000    2.000    0.000    5.400    2.800    2.400 
#   10.800    0.000    0.000    0.000    0.000    0.000 
#    0.000    0.000    0.000    0.000    0.000    0.000 
#
# Total GULP energy -222973.620577 kJ/mol
# GULP energy per Si atom -5574.340514 kJ/mol
# Density = 1.977179 g / cm^3
# Si number density = 19.816896 Si / 1000 Ang^3
#
#
#
# Elastic Constant Matrix: (Units=GPa)
#
#
# Indices 1 2 3 4 5 6 
#
# 1 35.1151 44.8299 46.6663 0.0000 0.0000 0.0000
# 2 44.8299 35.1134 46.6648 0.0000 0.0000 0.0000
# 3 46.6663 46.6648 146.1513 0.0000 0.0000 0.0000
# 4 0.0000 0.0000 0.0000 26.4386 0.0000 0.0000
# 5 0.0000 0.0000 0.0000 0.0000 26.4373 0.0000
# 6 0.0000 0.0000 0.0000 0.0000 0.0000 -132.6368
#
#
#
# Elastic Compliance Matrix: (Units=1/GPa)
#
#
# Indices 1 2 3 4 5 6 
#
# 1 -0.041491 0.061434 -0.006367 0.000000 0.000000 0.000000
# 2 0.061434 -0.041492 -0.006368 0.000000 0.000000 0.000000
# 3 -0.006367 -0.006368 0.010909 0.000000 0.000000 0.000000
# 4 0.000000 0.000000 0.000000 0.037823 0.000000 0.000000
# 5 0.000000 0.000000 0.000000 0.000000 0.037825 0.000000
# 6 0.000000 0.000000 0.000000 0.000000 0.000000 -0.007539
#
#
# Mechanical properties :
#
#
# Convention : Reuss Voigt Hill
#
# Bulk Modulus (GPa) = 39.48926 54.74463 47.11694
# Shear Modulus (GPa) = -53.80817 -10.73759 -32.27288
#
# Velocity S-wave (km/s) = -5.21648 -2.33027 -4.03991
# Velocity P-wave (km/s) = 4.03879 4.52161 1.43756
#
# Compressibility (1/GPa) = 0.02532334
#
# Stress axis : x y z
#
# Youngs Moduli (GPa) = -24.10164 -24.10074 91.67149
#
# Poissons Ratio (x) = 1.48061 0.58370
# Poissons Ratio (y) = 1.48067 0.58375
# Poissons Ratio (z) = -0.15346 -0.15347
#
# Static dielectric constant tensor:
#      x y z
#    x 1.780320 0.000000 0.000000 
#    y 0.000000 1.780330 0.000000 
#    z 0.000000 0.000000 1.796010 
# 
# From -- ./inp_files/6850.got.cif
#   From: 2010.05.17/outbox.cif.g08.bks.cpg/sg91_4_cif.got.tgz:6850.got - 2010.06.03 19:20:03.
