data_PCOD9547546
_publ_section_title
;
Structure prediction by ZEFSAII (Michael W. Deem and Ramdas Pophale) SiO2 
 PCOD9547546
Probable space group: P 41 2 2
;
_chemical_formula_sum "Si O2"
_cell_formula_units_Z 56
_cell_length_a 19.759556
_cell_length_b 19.759556
_cell_length_c 10.509274
_cell_angle_alpha 90.000000
_cell_angle_beta 90.000000
_cell_angle_gamma 90.000000
_cell_volume 4103.241501
_symmetry_space_group_name_H-M "P 41 2 2"
_symmetry_group_IT_number 91
_symmetry_cell_setting 'tetragonal'
loop_
_space_group_symop_operation_xyz
x,y,z
-y,x,1/4+z
-x,-y,1/2+z
y,-x,3/4+z
x,-y,1/2-z
-x,y,-z
y,x,3/4-z
-y,-x,1/4-z
loop_
_atom_site_type_symbol
_atom_site_label
_atom_site_fract_x
_atom_site_fract_y
_atom_site_fract_z
Si Si1 0.919280 0.418119 0.762269
Si Si2 0.418179 0.072833 0.988302
Si Si3 0.619360 0.677186 0.245456
Si Si4 0.570752 0.168348 0.245044
Si Si5 0.704259 0.642744 0.997391
Si Si6 0.407927 0.146021 0.245383
Si Si7 0.377133 0.514666 0.107204
O O1 0.921216 0.500000 0.750000
O O2 0.868664 0.403461 0.877606
O O3 0.891325 0.392525 0.627702
O O4 0.996154 0.395705 0.788916
O O5 0.403418 0.126000 0.876537
O O6 0.500000 0.070644 0.000000
O O7 0.393077 0.099309 0.124147
O O8 0.655193 0.655193 0.375000
O O9 0.592039 0.753677 0.256557
O O10 0.668467 0.670137 0.124038
O O11 0.555080 0.628471 0.217608
O O12 0.488786 0.162386 0.244594
O O13 0.783118 0.630148 0.015180
O O14 0.689043 0.689043 0.875000
O O15 0.668407 0.571246 0.961145
O O16 0.350306 0.500000 0.250000
O O17 0.450328 0.549673 0.125000
#
# Coordination Sequence:
#
# PCOD9547546 Si02
#       7
#     8   8   8   8   8   8   8
#     4   9  17  27  47  67  84 107 129 157 202 270
#     4   9  17  29  42  68  91 102 125 162 208 265
#     4  12  24  36  49  66  83 107 146 188 234 277
#     4  10  19  31  47  61  85 110 134 163 223 271
#     4  11  21  35  50  62  83 111 148 184 220 280
#     4  10  18  29  47  63  83 110 135 172 218 259
#     4  11  22  38  50  60  75 103 145 193 235 282
#
# _framework density 13.647746
#
# number of rings (size 3 to 8) (size 9 to 14) (size 15 to 20)
#    0.000    1.714    4.286    2.571    0.000    4.571 
#    0.000    0.000    0.000    0.000    0.000    0.000 
#    0.000    0.000    0.000    0.000    0.000    0.000 
#
# Total GULP energy -312343.025730 kJ/mol
# GULP energy per Si atom -5577.554031 kJ/mol
# Density = 1.361668 g / cm^3
# Si number density = 13.647746 Si / 1000 Ang^3
#
#
#
# Elastic Constant Matrix: (Units=GPa)
#
#
# Indices 1 2 3 4 5 6 
#
# 1 65.0014 16.3763 26.4860 0.0000 0.0000 0.0000
# 2 16.3763 65.0011 26.4852 0.0000 0.0000 0.0000
# 3 26.4860 26.4852 97.4894 0.0000 0.0000 0.0000
# 4 0.0000 0.0000 0.0000 16.2390 0.0000 0.0000
# 5 0.0000 0.0000 0.0000 0.0000 16.2389 0.0000
# 6 0.0000 0.0000 0.0000 0.0000 0.0000 8.5370
#
#
#
# Elastic Compliance Matrix: (Units=1/GPa)
#
#
# Indices 1 2 3 4 5 6 
#
# 1 0.017747 -0.002819 -0.004056 0.000000 0.000000 0.000000
# 2 -0.002819 0.017747 -0.004056 0.000000 0.000000 0.000000
# 3 -0.004056 -0.004056 0.012461 0.000000 0.000000 0.000000
# 4 0.000000 0.000000 0.000000 0.061580 0.000000 0.000000
# 5 0.000000 0.000000 0.000000 0.000000 0.061580 0.000000
# 6 0.000000 0.000000 0.000000 0.000000 0.000000 0.117138
#
#
# Mechanical properties :
#
#
# Convention : Reuss Voigt Hill
#
# Bulk Modulus (GPa) = 38.32124 40.68744 39.50434
# Shear Modulus (GPa) = 15.68324 18.74594 17.21459
#
# Velocity S-wave (km/s) = 3.39358 3.71017 3.55540
# Velocity P-wave (km/s) = 6.59507 6.94486 6.77223
#
# Compressibility (1/GPa) = 0.02609519
#
# Stress axis : x y z
#
# Youngs Moduli (GPa) = 56.34762 56.34769 80.24908
#
# Poissons Ratio (x) = 0.15882 0.32547
# Poissons Ratio (y) = 0.15882 0.32546
# Poissons Ratio (z) = 0.22853 0.22852
#
# Static dielectric constant tensor:
#      x y z
#    x 1.431860 0.000000 0.000000 
#    y 0.000000 1.431860 0.000000 
#    z 0.000000 0.000000 1.468660 
# 
# From -- ./inp_files/10126.got.cif
#   From: 2010.05.17/outbox.cif.g08.bks.cpg/sg91_6_cif.got.tgz:10126.got - 2010.06.03 19:20:03.
