data_PCOD9547354
_publ_section_title
;
Structure prediction by ZEFSAII (Michael W. Deem and Ramdas Pophale) SiO2 
 PCOD9547354
Probable space group: P 4 21 2
;
_chemical_formula_sum "Si O2"
_cell_formula_units_Z 38
_cell_length_a 7.803767
_cell_length_b 7.803767
_cell_length_c 27.396123
_cell_angle_alpha 90.000000
_cell_angle_beta 90.000000
_cell_angle_gamma 90.000000
_cell_volume 1668.390451
_symmetry_space_group_name_H-M "P 4 21 2"
_symmetry_group_IT_number 90
_symmetry_cell_setting 'tetragonal'
loop_
_space_group_symop_operation_xyz
x,y,z
1/2-y,1/2+x,z
-x,-y,z
1/2+y,1/2-x,z
1/2+x,1/2-y,-z
1/2-x,1/2+y,-z
y,x,-z
-y,-x,-z
loop_
_atom_site_type_symbol
_atom_site_label
_atom_site_fract_x
_atom_site_fract_y
_atom_site_fract_z
Si Si1 0.893414 0.232683 0.810934
Si Si2 0.094426 0.768014 0.288745
Si Si3 0.000000 0.000000 0.368142
Si Si4 0.602992 0.268550 0.448500
Si Si5 0.228087 0.894758 0.078755
Si Si6 0.500000 0.500000 0.000000
O O1 0.786909 0.408899 0.807293
O O2 0.840526 0.119593 0.765403
O O3 0.866519 0.166237 0.865803
O O4 0.210035 0.601328 0.294225
O O5 0.127967 0.903110 0.331414
O O6 0.100930 0.127980 0.404003
O O7 0.404277 0.212874 0.445595
O O8 0.644444 0.355557 0.500000
O O9 0.405177 0.788608 0.071838
O O10 0.074575 0.865103 0.040984
#
# Coordination Sequence:
#
# PCOD9547354 Si02
#       6
#     8   8   4   8   8   2
#     4   9  19  38  61  81 109 154 201 242 292 360
#     4  11  24  39  59  90 124 157 198 252 306 354
#     4  12  23  41  62  88 127 167 202 242 302 374
#     4  11  24  43  68  95 124 163 211 259 308 366
#     4   9  20  37  55  80 113 149 192 237 287 350
#     4  12  20  30  56  84 110 148 188 240 298 340
#
# _framework density 22.776444999999999
#
# number of rings (size 3 to 8) (size 9 to 14) (size 15 to 20)
#    0.000    1.684    0.000    6.000    0.000    4.211 
#    0.000    4.211    0.000    2.526    0.000    0.000 
#    0.000    0.000    0.000    0.000    0.000    0.000 
#
# Total GULP energy -212129.060921 kJ/mol
# GULP energy per Si atom -5582.343708 kJ/mol
# Density = 2.272460 g / cm^3
# Si number density = 22.776445 Si / 1000 Ang^3
#
#
#
# Elastic Constant Matrix: (Units=GPa)
#
#
# Indices 1 2 3 4 5 6 
#
# 1 57.9041 3.1295 32.1329 0.0000 0.0000 0.0000
# 2 3.1295 57.9039 32.1329 0.0000 0.0000 0.0000
# 3 32.1329 32.1329 171.0881 0.0000 0.0000 0.0000
# 4 0.0000 0.0000 0.0000 -6.2931 0.0000 0.0000
# 5 0.0000 0.0000 0.0000 0.0000 -6.2931 0.0000
# 6 0.0000 0.0000 0.0000 0.0000 0.0000 25.4588
#
#
#
# Elastic Compliance Matrix: (Units=1/GPa)
#
#
# Indices 1 2 3 4 5 6 
#
# 1 0.019340 0.001083 -0.003836 0.000000 0.000000 0.000000
# 2 0.001083 0.019340 -0.003836 0.000000 0.000000 0.000000
# 3 -0.003836 -0.003836 0.007286 0.000000 0.000000 0.000000
# 4 0.000000 0.000000 0.000000 -0.158903 0.000000 0.000000
# 5 0.000000 0.000000 0.000000 0.000000 -0.158905 0.000000
# 6 0.000000 0.000000 0.000000 0.000000 0.000000 0.039279
#
#
# Mechanical properties :
#
#
# Convention : Reuss Voigt Hill
#
# Bulk Modulus (GPa) = 30.49776 46.85407 38.67591
# Shear Modulus (GPa) = -23.98574 17.20791 -3.38892
#
# Velocity S-wave (km/s) = -3.24866 2.75164 -1.22112
# Velocity P-wave (km/s) = 0.80785 5.54178 3.87677
#
# Compressibility (1/GPa) = 0.03278929
#
# Stress axis : x y z
#
# Youngs Moduli (GPa) = 51.70636 51.70615 137.25352
#
# Poissons Ratio (x) = -0.05602 0.52648
# Poissons Ratio (y) = -0.05602 0.52648
# Poissons Ratio (z) = 0.19834 0.19834
#
# Static dielectric constant tensor:
#      x y z
#    x 1.912230 0.000000 0.000000 
#    y 0.000000 1.912230 0.000000 
#    z 0.000000 0.000000 1.822270 
# 
# From -- ./inp_files/2903.got.cif
#   From: 2010.05.17/outbox.cif.g08.bks.cpg/sg90_2_cif.got.tgz:2903.got - 2010.06.03 19:17:45.
