data_PCOD9547571
_publ_section_title
;
Structure prediction by ZEFSAII (Michael W. Deem and Ramdas Pophale) SiO2 
 PCOD9547571
Probable space group: P 41 2 2
;
_chemical_formula_sum "Si O2"
_cell_formula_units_Z 44
_cell_length_a 21.232801
_cell_length_b 21.232801
_cell_length_c 5.431630
_cell_angle_alpha 90.000000
_cell_angle_beta 90.000000
_cell_angle_gamma 90.000000
_cell_volume 2448.751738
_symmetry_space_group_name_H-M "P 41 2 2"
_symmetry_group_IT_number 91
_symmetry_cell_setting 'tetragonal'
loop_
_space_group_symop_operation_xyz
x,y,z
-y,x,1/4+z
-x,-y,1/2+z
y,-x,3/4+z
x,-y,1/2-z
-x,y,-z
y,x,3/4-z
-y,-x,1/4-z
loop_
_atom_site_type_symbol
_atom_site_label
_atom_site_fract_x
_atom_site_fract_y
_atom_site_fract_z
Si Si1 0.137186 0.704955 0.894661
Si Si2 0.361003 0.859592 0.858969
Si Si3 0.860695 0.500000 0.750000
Si Si4 0.500000 0.062171 0.000000
Si Si5 0.754618 0.000000 0.750000
Si Si6 0.867643 0.051634 0.433266
Si Si7 0.000000 0.389451 0.000000
Si Si8 0.170340 0.829661 0.625000
O O1 0.155534 0.657280 0.672793
O O2 0.061015 0.715457 0.912532
O O3 0.166241 0.770089 0.801247
O O4 0.158782 0.684468 0.166415
O O5 0.357739 0.936642 0.847360
O O6 0.430362 0.834142 0.934907
O O7 0.898868 0.489539 0.497621
O O8 0.437584 0.022261 0.960668
O O9 0.805801 0.019355 0.546060
O O10 0.917677 0.082324 0.625000
O O11 0.836436 0.109236 0.291351
O O12 0.897115 0.000000 0.250000
#
# Coordination Sequence:
#
# PCOD9547571 Si02
#       8
#     8   8   4   4   4   8   4   4
#     4  12  25  39  58  85 104 139 176 218 272 331
#     4  11  23  35  56  81 107 140 174 205 262 315
#     4  10  21  38  50  76 112 138 168 210 242 310
#     4  10  19  28  50  68 106 144 158 184 254 290
#     4  12  24  38  65  80 103 130 180 210 280 346
#     4  12  23  44  68  85 102 135 167 226 301 362
#     4  10  18  32  45  76 103 132 166 202 236 312
#     4  12  26  42  64  76 112 134 172 236 272 346
#
# _framework density 17.968339
#
# number of rings (size 3 to 8) (size 9 to 14) (size 15 to 20)
#    0.000    0.727    3.636    6.545    0.000    2.909 
#    0.000    0.000   28.000    0.000    0.000    0.000 
#    0.000    0.000    0.000    0.000    0.000    0.000 
#
# Total GULP energy -245530.821002 kJ/mol
# GULP energy per Si atom -5580.245932 kJ/mol
# Density = 1.792744 g / cm^3
# Si number density = 17.968339 Si / 1000 Ang^3
#
#
#
# Elastic Constant Matrix: (Units=GPa)
#
#
# Indices 1 2 3 4 5 6 
#
# 1 52.7346 2.0598 20.8564 0.0000 0.0000 0.0000
# 2 2.0598 52.7358 20.8562 0.0000 0.0000 0.0000
# 3 20.8564 20.8562 113.3384 0.0000 0.0000 0.0000
# 4 0.0000 0.0000 0.0000 21.1059 0.0000 0.0000
# 5 0.0000 0.0000 0.0000 0.0000 21.1071 0.0000
# 6 0.0000 0.0000 0.0000 0.0000 0.0000 0.5278
#
#
#
# Elastic Compliance Matrix: (Units=1/GPa)
#
#
# Indices 1 2 3 4 5 6 
#
# 1 0.020478 0.000745 -0.003905 0.000000 0.000000 0.000000
# 2 0.000745 0.020478 -0.003905 0.000000 0.000000 0.000000
# 3 -0.003905 -0.003905 0.010260 0.000000 0.000000 0.000000
# 4 0.000000 0.000000 0.000000 0.047380 0.000000 0.000000
# 5 0.000000 0.000000 0.000000 0.000000 0.047377 0.000000
# 6 0.000000 0.000000 0.000000 0.000000 0.000000 1.894708
#
#
# Mechanical properties :
#
#
# Convention : Reuss Voigt Hill
#
# Bulk Modulus (GPa) = 26.96539 34.03929 30.50234
# Shear Modulus (GPa) = 2.41876 20.21724 11.31800
#
# Velocity S-wave (km/s) = 1.16148 3.35798 2.51247
# Velocity P-wave (km/s) = 4.10347 5.83265 5.04273
#
# Compressibility (1/GPa) = 0.03708458
#
# Stress axis : x y z
#
# Youngs Moduli (GPa) = 48.83196 48.83318 97.46153
#
# Poissons Ratio (x) = -0.03637 0.38063
# Poissons Ratio (y) = -0.03637 0.38062
# Poissons Ratio (z) = 0.19071 0.19071
#
# Static dielectric constant tensor:
#      x y z
#    x 1.664230 0.000000 0.000000 
#    y 0.000000 1.664230 0.000000 
#    z 0.000000 0.000000 1.600260 
# 
# From -- ./inp_files/8876.got.cif
#   From: 2010.05.17/outbox.cif.g08.bks.cpg/sg91_5_cif.got.tgz:8876.got - 2010.06.03 19:20:03.
