data_PCOD9547229
_publ_section_title
;
Structure prediction by ZEFSAII (Michael W. Deem and Ramdas Pophale) SiO2 
 PCOD9547229
Probable space group: P 4 21 2
;
_chemical_formula_sum "Si O2"
_cell_formula_units_Z 18
_cell_length_a 13.344817
_cell_length_b 13.344817
_cell_length_c 4.940852
_cell_angle_alpha 90.000000
_cell_angle_beta 90.000000
_cell_angle_gamma 90.000000
_cell_volume 879.887383
_symmetry_space_group_name_H-M "P 4 21 2"
_symmetry_group_IT_number 90
_symmetry_cell_setting 'tetragonal'
loop_
_space_group_symop_operation_xyz
x,y,z
1/2-y,1/2+x,z
-x,-y,z
1/2+y,1/2-x,z
1/2+x,1/2-y,-z
1/2-x,1/2+y,-z
y,x,-z
-y,-x,-z
loop_
_atom_site_type_symbol
_atom_site_label
_atom_site_fract_x
_atom_site_fract_y
_atom_site_fract_z
Si Si1 0.000000 0.000000 0.000000
Si Si2 0.962649 0.661926 0.661767
Si Si3 0.929645 0.793321 0.160065
O O1 0.895283 0.995254 0.839750
O O2 0.884577 0.572178 0.614033
O O3 0.930259 0.750266 0.459571
O O4 0.967760 0.705470 0.964510
O O5 0.829641 0.829641 0.000000
#
# Coordination Sequence:
#
# PCOD9547229 Si02
#       3
#     2   8   8
#     4   8  24  42  60  86 136 158 190 280 284 366
#     4  11  23  42  65  91 130 164 207 260 307 370
#     4  10  22  43  60  93 125 166 207 254 312 365
#
# _framework density 20.457163999999999
#
# number of rings (size 3 to 8) (size 9 to 14) (size 15 to 20)
#    1.333    0.444    0.000    4.000    0.000    7.111 
#   24.000    0.000    0.000    0.000    0.000    0.000 
#    0.000    0.000    0.000    0.000    0.000    0.000 
#
# Total GULP energy -100246.848065 kJ/mol
# GULP energy per Si atom -5569.269337 kJ/mol
# Density = 2.041060 g / cm^3
# Si number density = 20.457164 Si / 1000 Ang^3
#
#
#
# Elastic Constant Matrix: (Units=GPa)
#
#
# Indices 1 2 3 4 5 6 
#
# 1 49.1972 38.7931 -4.4791 0.0000 0.0000 0.0000
# 2 38.7931 49.1972 -4.4791 0.0000 0.0000 0.0000
# 3 -4.4791 -4.4791 77.8236 0.0000 0.0000 0.0000
# 4 0.0000 0.0000 0.0000 21.4686 0.0000 0.0000
# 5 0.0000 0.0000 0.0000 0.0000 21.4686 0.0000
# 6 0.0000 0.0000 0.0000 0.0000 0.0000 17.7990
#
#
#
# Elastic Compliance Matrix: (Units=1/GPa)
#
#
# Indices 1 2 3 4 5 6 
#
# 1 0.053774 -0.042342 0.000658 0.000000 0.000000 0.000000
# 2 -0.042342 0.053774 0.000658 0.000000 0.000000 0.000000
# 3 0.000658 0.000658 0.012925 0.000000 0.000000 0.000000
# 4 0.000000 0.000000 0.000000 0.046580 0.000000 0.000000
# 5 0.000000 0.000000 0.000000 0.000000 0.046580 0.000000
# 6 0.000000 0.000000 0.000000 0.000000 0.000000 0.056183
#
#
# Mechanical properties :
#
#
# Convention : Reuss Voigt Hill
#
# Bulk Modulus (GPa) = 26.02751 26.20975 26.11863
# Shear Modulus (GPa) = 13.71088 21.90612 17.80850
#
# Velocity S-wave (km/s) = 2.59168 3.27590 2.95367
# Velocity P-wave (km/s) = 4.65900 5.21043 4.94241
#
# Compressibility (1/GPa) = 0.03842089
#
# Stress axis : x y z
#
# Youngs Moduli (GPa) = 18.59644 18.59644 77.36754
#
# Poissons Ratio (x) = 0.78741 -0.05090
# Poissons Ratio (y) = 0.78741 -0.05090
# Poissons Ratio (z) = -0.01224 -0.01224
#
# Static dielectric constant tensor:
#      x y z
#    x 1.812450 0.000000 0.000000 
#    y 0.000000 1.812450 0.000000 
#    z 0.000000 0.000000 1.696780 
# 
# From -- ./inp_files/12.got.cif
#   From: 2010.05.17/outbox.cif.g08.bks.cpg/sg90_1_cif.got.tgz:12.got - 2010.06.03 19:17:45.
