data_PCOD9547156
_publ_section_title
;
Structure prediction by ZEFSAII (Michael W. Deem and Ramdas Pophale) SiO2 
 PCOD9547156
Probable space group: P 4 21 2
;
_chemical_formula_sum "Si O2"
_cell_formula_units_Z 40
_cell_length_a 12.602837
_cell_length_b 12.602837
_cell_length_c 13.584419
_cell_angle_alpha 90.000000
_cell_angle_beta 90.000000
_cell_angle_gamma 90.000000
_cell_volume 2157.633652
_symmetry_space_group_name_H-M "P 4 21 2"
_symmetry_group_IT_number 90
_symmetry_cell_setting 'tetragonal'
loop_
_space_group_symop_operation_xyz
x,y,z
1/2-y,1/2+x,z
-x,-y,z
1/2+y,1/2-x,z
1/2+x,1/2-y,-z
1/2-x,1/2+y,-z
y,x,-z
-y,-x,-z
loop_
_atom_site_type_symbol
_atom_site_label
_atom_site_fract_x
_atom_site_fract_y
_atom_site_fract_z
Si Si1 0.600682 0.719340 0.827196
Si Si2 0.367183 0.707976 0.893601
Si Si3 0.372197 0.504279 0.759738
Si Si4 0.673500 0.031631 0.631306
Si Si5 0.494840 0.667479 0.465457
O O1 0.494737 0.722747 0.893143
O O2 0.686680 0.806030 0.858745
O O3 0.651063 0.602011 0.821973
O O4 0.557194 0.743252 0.716969
O O5 0.346032 0.611085 0.818164
O O6 0.326056 0.673945 0.000000
O O7 0.500000 0.500000 0.744887
O O8 0.321578 0.503208 0.651663
O O9 0.582061 0.118464 0.643493
O O10 0.728687 0.026548 0.525681
O O11 0.580769 0.580769 0.500000
O O12 0.381633 0.618368 0.500000
#
# Coordination Sequence:
#
# PCOD9547156 Si02
#       5
#     8   8   8   8   8
#     4  11  22  41  67  90 127 164 214 269 323 388
#     4  11  26  41  66  96 123 170 218 274 334 384
#     4  10  21  39  62  95 128 162 215 269 319 390
#     4  11  23  38  57  91 128 166 211 262 318 390
#     4  11  19  34  59  91 124 161 205 252 313 381
#
# _framework density 18.538827000000001
#
# number of rings (size 3 to 8) (size 9 to 14) (size 15 to 20)
#    0.000    1.200    6.000    1.200    2.800    5.600 
#    0.000    0.000    0.000    0.600    0.000    0.000 
#    0.000    0.000    0.000    0.000    0.000    0.000 
#
# Total GULP energy -223357.264047 kJ/mol
# GULP energy per Si atom -5583.931601 kJ/mol
# Density = 1.849663 g / cm^3
# Si number density = 18.538827 Si / 1000 Ang^3
#
#
#
# Elastic Constant Matrix: (Units=GPa)
#
#
# Indices 1 2 3 4 5 6 
#
# 1 112.3962 16.6454 39.7211 0.0000 0.0000 0.0000
# 2 16.6454 112.3975 39.7201 0.0000 0.0000 0.0000
# 3 39.7211 39.7201 117.9184 0.0000 0.0000 0.0000
# 4 0.0000 0.0000 0.0000 26.5840 0.0000 0.0000
# 5 0.0000 0.0000 0.0000 0.0000 26.5844 0.0000
# 6 0.0000 0.0000 0.0000 0.0000 0.0000 9.0903
#
#
#
# Elastic Compliance Matrix: (Units=1/GPa)
#
#
# Indices 1 2 3 4 5 6 
#
# 1 0.010110 -0.000333 -0.003293 0.000000 0.000000 0.000000
# 2 -0.000333 0.010110 -0.003293 0.000000 0.000000 0.000000
# 3 -0.003293 -0.003293 0.010699 0.000000 0.000000 0.000000
# 4 0.000000 0.000000 0.000000 0.037617 0.000000 0.000000
# 5 0.000000 0.000000 0.000000 0.000000 0.037616 0.000000
# 6 0.000000 0.000000 0.000000 0.000000 0.000000 0.110007
#
#
# Mechanical properties :
#
#
# Convention : Reuss Voigt Hill
#
# Bulk Modulus (GPa) = 58.54951 59.43170 58.99061
# Shear Modulus (GPa) = 21.21405 28.89344 25.05374
#
# Velocity S-wave (km/s) = 3.38643 3.95211 3.68015
# Velocity P-wave (km/s) = 6.85136 7.27689 7.06733
#
# Compressibility (1/GPa) = 0.01707956
#
# Stress axis : x y z
#
# Youngs Moduli (GPa) = 98.90831 98.91037 93.46552
#
# Poissons Ratio (x) = 0.03298 0.30782
# Poissons Ratio (y) = 0.03298 0.30780
# Poissons Ratio (z) = 0.32574 0.32573
#
# Static dielectric constant tensor:
#      x y z
#    x 1.649920 0.000000 0.000000 
#    y 0.000000 1.649920 0.000000 
#    z 0.000000 0.000000 1.629210 
# 
# From -- ./inp_files/2469.got.cif
#   From: 2010.05.17/outbox.cif.g08.bks.cpg/sg90_2_cif.got.tgz:2469.got - 2010.06.03 19:17:45.
