data_PCOD9547710
_publ_section_title
;
Structure prediction by ZEFSAII (Michael W. Deem and Ramdas Pophale) SiO2 
 PCOD9547710
Probable space group: P 41 2 2
;
_chemical_formula_sum "Si O2"
_cell_formula_units_Z 44
_cell_length_a 12.082162
_cell_length_b 12.082162
_cell_length_c 14.719976
_cell_angle_alpha 90.000000
_cell_angle_beta 90.000000
_cell_angle_gamma 90.000000
_cell_volume 2148.802057
_symmetry_space_group_name_H-M "P 41 2 2"
_symmetry_group_IT_number 91
_symmetry_cell_setting 'tetragonal'
loop_
_space_group_symop_operation_xyz
x,y,z
-y,x,1/4+z
-x,-y,1/2+z
y,-x,3/4+z
x,-y,1/2-z
-x,y,-z
y,x,3/4-z
-y,-x,1/4-z
loop_
_atom_site_type_symbol
_atom_site_label
_atom_site_fract_x
_atom_site_fract_y
_atom_site_fract_z
Si Si1 0.131891 0.638773 0.507580
Si Si2 0.829199 0.520575 0.848451
Si Si3 0.858523 0.217278 0.292722
Si Si4 0.082002 0.869712 0.277608
Si Si5 0.063718 0.424867 0.597101
Si Si6 0.762135 0.762135 0.875000
O O1 0.175338 0.584088 0.413863
O O2 0.201274 0.749635 0.517134
O O3 0.133488 0.535608 0.577290
O O4 0.000000 0.663670 0.500000
O O5 0.779948 0.500000 0.750000
O O6 0.780534 0.632589 0.889738
O O7 0.959450 0.546776 0.840589
O O8 0.860215 0.122275 0.369854
O O9 0.870811 0.328119 0.353014
O O10 0.967490 0.194336 0.234608
O O11 0.168610 0.809342 0.210179
O O12 0.075058 0.000000 0.250000
O O13 0.000000 0.394991 0.500000
#
# Coordination Sequence:
#
# PCOD9547710 Si02
#       6
#     8   8   8   8   8   4
#     4   9  21  36  52  77 124 156 193 241 294 348
#     4  10  19  33  54  81 112 152 198 239 276 361
#     4  12  21  35  57  85 122 161 196 243 304 361
#     4  12  21  31  51  86 127 156 185 235 305 376
#     4   9  19  37  54  77 120 161 190 244 293 346
#     4  12  20  34  54  84 122 148 192 240 302 340
#
# _framework density 20.476524999999999
#
# number of rings (size 3 to 8) (size 9 to 14) (size 15 to 20)
#    0.000    1.818    3.636    4.364    0.000    0.727 
#    0.000    0.000    0.000    0.000    0.000    3.818 
#   10.909    0.000    0.000    0.000    0.000    0.000 
#
# Total GULP energy -245691.985680 kJ/mol
# GULP energy per Si atom -5583.908765 kJ/mol
# Density = 2.042992 g / cm^3
# Si number density = 20.476525 Si / 1000 Ang^3
#
#
#
# Elastic Constant Matrix: (Units=GPa)
#
#
# Indices 1 2 3 4 5 6 
#
# 1 93.1801 36.8893 20.9395 0.0000 0.0000 0.0000
# 2 36.8893 93.1801 20.9395 0.0000 0.0000 0.0000
# 3 20.9395 20.9395 34.0244 0.0000 0.0000 0.0000
# 4 0.0000 0.0000 0.0000 10.3907 0.0000 0.0000
# 5 0.0000 0.0000 0.0000 0.0000 10.3907 0.0000
# 6 0.0000 0.0000 0.0000 0.0000 0.0000 -6.8703
#
#
#
# Elastic Compliance Matrix: (Units=1/GPa)
#
#
# Indices 1 2 3 4 5 6 
#
# 1 0.013676 -0.004088 -0.005901 0.000000 0.000000 0.000000
# 2 -0.004088 0.013676 -0.005901 0.000000 0.000000 0.000000
# 3 -0.005901 -0.005901 0.036654 0.000000 0.000000 0.000000
# 4 0.000000 0.000000 0.000000 0.096240 0.000000 0.000000
# 5 0.000000 0.000000 0.000000 0.000000 0.096240 0.000000
# 6 0.000000 0.000000 0.000000 0.000000 0.000000 -0.145554
#
#
# Mechanical properties :
#
#
# Convention : Reuss Voigt Hill
#
# Bulk Modulus (GPa) = 31.03009 41.99126 36.51067
# Shear Modulus (GPa) = 32.58299 12.22332 22.40316
#
# Velocity S-wave (km/s) = 3.99336 2.44589 3.31129
# Velocity P-wave (km/s) = 6.03734 5.34117 5.69989
#
# Compressibility (1/GPa) = 0.03222678
#
# Stress axis : x y z
#
# Youngs Moduli (GPa) = 73.11818 73.11818 27.28240
#
# Poissons Ratio (x) = 0.29894 0.16099
# Poissons Ratio (y) = 0.29894 0.16099
# Poissons Ratio (z) = 0.43145 0.43145
#
# Static dielectric constant tensor:
#      x y z
#    x 1.751490 0.000000 0.000000 
#    y 0.000000 1.751490 0.000000 
#    z 0.000000 0.000000 1.780170 
# 
# From -- ./inp_files/11875.got.cif
#   From: 2010.05.17/outbox.cif.g08.bks.cpg/sg91_6_cif.got.tgz:11875.got - 2010.06.03 19:20:03.
