data_PCOD9547053
_publ_section_title
;
Structure prediction by ZEFSAII (Michael W. Deem and Ramdas Pophale) SiO2 
 PCOD9547053
Probable space group: P 4 2 2
;
_chemical_formula_sum "Si O2"
_cell_formula_units_Z 50
_cell_length_a 8.424333
_cell_length_b 8.424333
_cell_length_c 31.574693
_cell_angle_alpha 90.000000
_cell_angle_beta 90.000000
_cell_angle_gamma 90.000000
_cell_volume 2240.836591
_symmetry_space_group_name_H-M "P 4 2 2"
_symmetry_group_IT_number 89
_symmetry_cell_setting 'tetragonal'
loop_
_space_group_symop_operation_xyz
x,y,z
-y,x,z
-x,-y,z
y,-x,z
x,-y,-z
-x,y,-z
y,x,-z
-y,-x,-z
loop_
_atom_site_type_symbol
_atom_site_label
_atom_site_fract_x
_atom_site_fract_y
_atom_site_fract_z
Si Si1 0.173399 0.792094 0.544679
Si Si2 0.584895 0.248971 0.284283
Si Si3 0.202930 0.823735 0.046770
Si Si4 0.869990 0.236745 0.635743
Si Si5 0.500000 0.500000 0.853344
Si Si6 0.087660 0.755228 0.788591
Si Si7 0.162700 0.592141 0.874456
O O1 0.254390 0.745611 0.500000
O O2 0.200672 0.710105 0.589881
O O3 0.980539 0.787581 0.544727
O O4 0.693047 0.406153 0.282857
O O5 0.639981 0.167844 0.327557
O O6 0.621415 0.144597 0.243338
O O7 0.317043 0.769754 0.084174
O O8 0.015674 0.787018 0.050014
O O9 0.241917 0.758084 0.000000
O O10 0.059543 0.205148 0.639147
O O11 0.304101 0.486808 0.854968
O O12 0.107573 0.709436 0.837334
O O13 0.908781 0.805492 0.779874
O O14 0.000000 0.500000 0.886161
#
# Coordination Sequence:
#
# PCOD9547053 Si02
#       7
#     8   8   8   8   2   8   8
#     4   7  10  19  41  75 111 145 183 238 310 378
#     4  11  26  41  58  82 116 163 210 264 326 394
#     4   9  18  38  69 101 136 180 228 276 331 396
#     4   9  17  32  55  84 117 150 196 256 314 386
#     4  12  28  44  69 104 136 176 232 276 321 412
#     4  11  25  43  67  97 126 163 213 268 327 399
#     4  12  26  45  70 102 141 185 221 280 341 394
#
# _framework density 22.313095000000001
#
# number of rings (size 3 to 8) (size 9 to 14) (size 15 to 20)
#    0.000    2.080    0.000    5.760    4.480    4.480 
#    0.000    6.000    0.000    0.960    0.000    5.600 
#    0.000    0.000    0.000    0.000    0.000    0.000 
#
# Total GULP energy -278506.892592 kJ/mol
# GULP energy per Si atom -5570.137852 kJ/mol
# Density = 2.226231 g / cm^3
# Si number density = 22.313095 Si / 1000 Ang^3
#
#
#
# Elastic Constant Matrix: (Units=GPa)
#
#
# Indices 1 2 3 4 5 6 
#
# 1 7.9331 49.0302 7.8180 0.0000 0.0000 0.0000
# 2 49.0302 7.9333 7.8180 0.0000 0.0000 0.0000
# 3 7.8180 7.8180 109.9426 0.0000 0.0000 0.0000
# 4 0.0000 0.0000 0.0000 -635.9110 0.0000 0.0000
# 5 0.0000 0.0000 0.0000 0.0000 -635.8553 0.0000
# 6 0.0000 0.0000 0.0000 0.0000 0.0000 11.9744
#
#
#
# Elastic Compliance Matrix: (Units=1/GPa)
#
#
# Indices 1 2 3 4 5 6 
#
# 1 -0.003214 0.021119 -0.001273 0.000000 0.000000 0.000000
# 2 0.021119 -0.003214 -0.001273 0.000000 0.000000 0.000000
# 3 -0.001273 -0.001273 0.009277 0.000000 0.000000 0.000000
# 4 0.000000 0.000000 0.000000 -0.001573 0.000000 0.000000
# 5 0.000000 0.000000 0.000000 0.000000 -0.001573 0.000000
# 6 0.000000 0.000000 0.000000 0.000000 0.000000 0.083511
#
#
# Mechanical properties :
#
#
# Convention : Reuss Voigt Hill
#
# Bulk Modulus (GPa) = 25.00424 28.34903 26.67664
# Shear Modulus (GPa) = 84.17336 -247.88220 -81.85442
#
# Velocity S-wave (km/s) = 6.14863 -10.55149 -6.06334
# Velocity P-wave (km/s) = 7.85098 11.64957 6.08583
#
# Compressibility (1/GPa) = 0.03999321
#
# Stress axis : x y z
#
# Youngs Moduli (GPa) = -311.13084 -311.13987 107.79660
#
# Poissons Ratio (x) = 6.57086 0.13725
# Poissons Ratio (y) = 6.57067 0.13725
# Poissons Ratio (z) = -0.39613 -0.39614
#
# Static dielectric constant tensor:
#      x y z
#    x 1.891870 0.000000 0.000000 
#    y 0.000000 1.891870 0.000000 
#    z 0.000000 0.000000 1.899370 
# 
# From -- ./inp_files/3045.got.cif
#   From: 2010.05.17/outbox.cif.g08.bks.cpg/sg89_2_cif.got.tgz:3045.got - 2010.06.03 19:15:31.
