data_PCOD9547141
_publ_section_title
;
Structure prediction by ZEFSAII (Michael W. Deem and Ramdas Pophale) SiO2 
 PCOD9547141
Probable space group: P 4 21 2
;
_chemical_formula_sum "Si O2"
_cell_formula_units_Z 40
_cell_length_a 19.437708
_cell_length_b 19.437708
_cell_length_c 5.136834
_cell_angle_alpha 90.000000
_cell_angle_beta 90.000000
_cell_angle_gamma 90.000000
_cell_volume 1940.821698
_symmetry_space_group_name_H-M "P 4 21 2"
_symmetry_group_IT_number 90
_symmetry_cell_setting 'tetragonal'
loop_
_space_group_symop_operation_xyz
x,y,z
1/2-y,1/2+x,z
-x,-y,z
1/2+y,1/2-x,z
1/2+x,1/2-y,-z
1/2-x,1/2+y,-z
y,x,-z
-y,-x,-z
loop_
_atom_site_type_symbol
_atom_site_label
_atom_site_fract_x
_atom_site_fract_y
_atom_site_fract_z
Si Si1 0.576754 0.531919 0.755670
Si Si2 0.282878 0.190562 0.169482
Si Si3 0.052478 0.207099 0.880205
Si Si4 0.012838 0.289330 0.393250
Si Si5 0.153180 0.361922 0.328714
O O1 0.500000 0.500000 0.752633
O O2 0.578183 0.578183 0.500000
O O3 0.630707 0.471446 0.805053
O O4 0.581843 0.581843 0.000000
O O5 0.315076 0.195288 0.458347
O O6 0.222866 0.132434 0.178127
O O7 0.253777 0.253777 0.000000
O O8 0.339243 0.161198 0.970367
O O9 0.011949 0.253877 0.674019
O O10 0.033214 0.232763 0.170623
O O11 0.939760 0.323212 0.346232
O O12 0.074187 0.344870 0.395714
#
# Coordination Sequence:
#
# PCOD9547141 Si02
#       5
#     8   8   8   8   8
#     4  10  21  36  54  82 116 150 193 239 279 347
#     4  10  21  37  60  87 112 152 205 239 279 348
#     4  10  21  38  58  85 115 156 187 242 300 333
#     4  10  21  39  62  84 121 151 193 245 294 359
#     4  10  21  39  60  90 117 152 198 242 297 347
#
# _framework density 20.609826000000002
#
# number of rings (size 3 to 8) (size 9 to 14) (size 15 to 20)
#    0.000    2.000    0.000    3.000    2.800    0.400 
#    7.200   10.000    0.000    7.200    0.000    0.000 
#    0.000    0.000    0.000    0.000    0.000    0.000 
#
# Total GULP energy -222991.659892 kJ/mol
# GULP energy per Si atom -5574.791497 kJ/mol
# Density = 2.056292 g / cm^3
# Si number density = 20.609826 Si / 1000 Ang^3
#
#
#
# Elastic Constant Matrix: (Units=GPa)
#
#
# Indices 1 2 3 4 5 6 
#
# 1 28.3558 32.4061 -15.2218 0.0000 0.0000 0.0000
# 2 32.4061 28.3558 -15.2218 0.0000 0.0000 0.0000
# 3 -15.2218 -15.2218 118.4447 0.0000 0.0000 0.0000
# 4 0.0000 0.0000 0.0000 22.3542 0.0000 0.0000
# 5 0.0000 0.0000 0.0000 0.0000 22.3542 0.0000
# 6 0.0000 0.0000 0.0000 0.0000 0.0000 36.4757
#
#
#
# Elastic Compliance Matrix: (Units=1/GPa)
#
#
# Indices 1 2 3 4 5 6 
#
# 1 -0.114653 0.132243 0.002261 0.000000 0.000000 0.000000
# 2 0.132243 -0.114653 0.002261 0.000000 0.000000 0.000000
# 3 0.002261 0.002261 0.009024 0.000000 0.000000 0.000000
# 4 0.000000 0.000000 0.000000 0.044734 0.000000 0.000000
# 5 0.000000 0.000000 0.000000 0.000000 0.044734 0.000000
# 6 0.000000 0.000000 0.000000 0.000000 0.000000 0.027416
#
#
# Mechanical properties :
#
#
# Convention : Reuss Voigt Hill
#
# Bulk Modulus (GPa) = 18.78050 19.89796 19.33923
# Shear Modulus (GPa) = -13.92071 27.78308 6.93118
#
# Velocity S-wave (km/s) = -2.60174 3.67556 1.83585
# Velocity P-wave (km/s) = 0.32674 5.26199 3.72796
#
# Compressibility (1/GPa) = 0.05324672
#
# Stress axis : x y z
#
# Youngs Moduli (GPa) = -8.72199 -8.72199 110.81813
#
# Poissons Ratio (x) = 1.15342 -0.25051
# Poissons Ratio (y) = 1.15342 -0.25051
# Poissons Ratio (z) = 0.01972 0.01972
#
# Static dielectric constant tensor:
#      x y z
#    x 1.732630 0.000000 0.000000 
#    y 0.000000 1.732630 0.000000 
#    z 0.000000 0.000000 1.712430 
# 
# From -- ./inp_files/432.got.cif
#   From: 2010.05.17/outbox.cif.g08.bks.cpg/sg90_1_cif.got.tgz:432.got - 2010.06.03 19:17:45.
