data_PCOD9547690
_publ_section_title
;
Structure prediction by ZEFSAII (Michael W. Deem and Ramdas Pophale) SiO2 
 PCOD9547690
Probable space group: P 41 2 2
;
_chemical_formula_sum "Si O2"
_cell_formula_units_Z 32
_cell_length_a 19.756695
_cell_length_b 19.756695
_cell_length_c 5.040414
_cell_angle_alpha 90.000000
_cell_angle_beta 90.000000
_cell_angle_gamma 90.000000
_cell_volume 1967.409662
_symmetry_space_group_name_H-M "P 41 2 2"
_symmetry_group_IT_number 91
_symmetry_cell_setting 'tetragonal'
loop_
_space_group_symop_operation_xyz
x,y,z
-y,x,1/4+z
-x,-y,1/2+z
y,-x,3/4+z
x,-y,1/2-z
-x,y,-z
y,x,3/4-z
-y,-x,1/4-z
loop_
_atom_site_type_symbol
_atom_site_label
_atom_site_fract_x
_atom_site_fract_y
_atom_site_fract_z
Si Si1 0.141843 0.751726 0.665257
Si Si2 0.855618 0.453869 0.492796
Si Si3 0.705577 0.000000 0.250000
Si Si4 0.314145 0.794409 0.087505
Si Si5 0.387342 0.000000 0.250000
O O1 0.176097 0.823904 0.625000
O O2 0.180885 0.700674 0.461945
O O3 0.064008 0.747967 0.593520
O O4 0.157508 0.728343 0.962848
O O5 0.862342 0.500000 0.750000
O O6 0.807467 0.390744 0.569954
O O7 0.931706 0.427514 0.426848
O O8 0.830948 0.500000 0.250000
O O9 0.657870 0.019117 0.496804
O O10 0.279608 0.720393 0.125000
#
# Coordination Sequence:
#
# PCOD9547690 Si02
#       5
#     8   8   4   8   4
#     4  10  19  32  51  71  93 128 171 217 257 291
#     4  12  22  34  49  74 106 140 170 201 248 305
#     4  12  18  33  52  70 101 128 178 214 252 302
#     4  10  20  36  52  70  96 132 173 211 244 287
#     4  12  22  33  48  72 107 144 166 198 246 304
#
# _framework density 16.265042000000001
#
# number of rings (size 3 to 8) (size 9 to 14) (size 15 to 20)
#    0.000    1.000    5.000    3.750    0.000    0.000 
#    0.000    0.000    0.000    0.000    0.000    7.000 
#    0.000    2.000    0.000    0.000    0.000    0.000 
#
# Total GULP energy -178638.589368 kJ/mol
# GULP energy per Si atom -5582.455918 kJ/mol
# Density = 1.622802 g / cm^3
# Si number density = 16.265042 Si / 1000 Ang^3
#
#
#
# Elastic Constant Matrix: (Units=GPa)
#
#
# Indices 1 2 3 4 5 6 
#
# 1 76.3665 41.2321 -1.6433 0.0000 0.0000 0.0000
# 2 41.2321 76.3652 -1.6437 0.0000 0.0000 0.0000
# 3 -1.6433 -1.6437 62.5876 0.0000 0.0000 0.0000
# 4 0.0000 0.0000 0.0000 14.5451 0.0000 0.0000
# 5 0.0000 0.0000 0.0000 0.0000 14.5457 0.0000
# 6 0.0000 0.0000 0.0000 0.0000 0.0000 35.2329
#
#
#
# Elastic Compliance Matrix: (Units=1/GPa)
#
#
# Indices 1 2 3 4 5 6 
#
# 1 0.018486 -0.009976 0.000223 0.000000 0.000000 0.000000
# 2 -0.009976 0.018486 0.000224 0.000000 0.000000 0.000000
# 3 0.000223 0.000224 0.015989 0.000000 0.000000 0.000000
# 4 0.000000 0.000000 0.000000 0.068752 0.000000 0.000000
# 5 0.000000 0.000000 0.000000 0.000000 0.068749 0.000000
# 6 0.000000 0.000000 0.000000 0.000000 0.000000 0.028383
#
#
# Mechanical properties :
#
#
# Convention : Reuss Voigt Hill
#
# Bulk Modulus (GPa) = 29.49609 32.35660 30.92634
# Shear Modulus (GPa) = 20.06381 24.68969 22.37675
#
# Velocity S-wave (km/s) = 3.51601 3.90033 3.71314
# Velocity P-wave (km/s) = 5.88703 6.34192 6.11870
#
# Compressibility (1/GPa) = 0.03390280
#
# Stress axis : x y z
#
# Youngs Moduli (GPa) = 54.09479 54.09386 62.54162
#
# Poissons Ratio (x) = 0.53966 -0.01397
# Poissons Ratio (y) = 0.53967 -0.01398
# Poissons Ratio (z) = -0.01208 -0.01209
#
# Static dielectric constant tensor:
#      x y z
#    x 1.563520 0.000000 0.000000 
#    y 0.000000 1.563520 0.000000 
#    z 0.000000 0.000000 1.557240 
# 
# From -- ./inp_files/753.got.cif
#   From: 2010.05.17/outbox.cif.g08.bks.cpg/sg91_1_cif.got.tgz:753.got - 2010.06.03 19:20:03.
