data_PCOD9547202
_publ_section_title
;
Structure prediction by ZEFSAII (Michael W. Deem and Ramdas Pophale) SiO2 
 PCOD9547202
Probable space group: P 4 21 2
;
_chemical_formula_sum "Si O2"
_cell_formula_units_Z 34
_cell_length_a 17.588930
_cell_length_b 17.588930
_cell_length_c 4.986638
_cell_angle_alpha 90.000000
_cell_angle_beta 90.000000
_cell_angle_gamma 90.000000
_cell_volume 1542.718485
_symmetry_space_group_name_H-M "P 4 21 2"
_symmetry_group_IT_number 90
_symmetry_cell_setting 'tetragonal'
loop_
_space_group_symop_operation_xyz
x,y,z
1/2-y,1/2+x,z
-x,-y,z
1/2+y,1/2-x,z
1/2+x,1/2-y,-z
1/2-x,1/2+y,-z
y,x,-z
-y,-x,-z
loop_
_atom_site_type_symbol
_atom_site_label
_atom_site_fract_x
_atom_site_fract_y
_atom_site_fract_z
Si Si1 0.500000 0.000000 0.751447
Si Si2 0.103044 0.820137 0.242540
Si Si3 0.318512 0.572109 0.169947
Si Si4 0.344003 0.922519 0.572212
Si Si5 0.576264 0.217207 0.326034
O O1 0.418028 0.952951 0.729793
O O2 0.139020 0.860981 0.500000
O O3 0.102215 0.729102 0.260816
O O4 0.015369 0.844097 0.196906
O O5 0.153529 0.846471 0.000000
O O6 0.422329 0.754786 0.023507
O O7 0.286371 0.592903 0.465198
O O8 0.379721 0.620280 0.000000
O O9 0.368826 0.852198 0.389585
O O10 0.313299 0.992291 0.394050
#
# Coordination Sequence:
#
# PCOD9547202 Si02
#       5
#     2   8   8   8   8
#     4   8  16  40  72  98 132 178 208 270 324 386
#     4  11  24  42  65  92 128 170 214 272 325 387
#     4  11  24  43  62  89 124 165 218 268 321 382
#     4   9  20  40  65  97 131 166 215 256 326 396
#     4  10  22  39  64  92 127 165 204 265 320 390
#
# _framework density 22.039017000000001
#
# number of rings (size 3 to 8) (size 9 to 14) (size 15 to 20)
#    0.000    1.882    0.000    3.529    0.000    8.941 
#    0.000    3.529    0.000   25.412    0.000    0.000 
#    0.000    0.000    0.000    0.000    0.000    0.000 
#
# Total GULP energy -189537.213694 kJ/mol
# GULP energy per Si atom -5574.623932 kJ/mol
# Density = 2.198886 g / cm^3
# Si number density = 22.039017 Si / 1000 Ang^3
#
#
#
# Elastic Constant Matrix: (Units=GPa)
#
#
# Indices 1 2 3 4 5 6 
#
# 1 117.3172 65.6949 23.6288 0.0000 0.0000 0.0000
# 2 65.6949 117.3153 23.6279 0.0000 0.0000 0.0000
# 3 23.6288 23.6279 91.3032 0.0000 0.0000 0.0000
# 4 0.0000 0.0000 0.0000 11.8290 0.0000 0.0000
# 5 0.0000 0.0000 0.0000 0.0000 11.8273 0.0000
# 6 0.0000 0.0000 0.0000 0.0000 0.0000 67.5616
#
#
#
# Elastic Compliance Matrix: (Units=1/GPa)
#
#
# Indices 1 2 3 4 5 6 
#
# 1 0.012614 -0.006758 -0.001515 0.000000 0.000000 0.000000
# 2 -0.006758 0.012614 -0.001515 0.000000 0.000000 0.000000
# 3 -0.001515 -0.001515 0.011737 0.000000 0.000000 0.000000
# 4 0.000000 0.000000 0.000000 0.084538 0.000000 0.000000
# 5 0.000000 0.000000 0.000000 0.000000 0.084550 0.000000
# 6 0.000000 0.000000 0.000000 0.000000 0.000000 0.014801
#
#
# Mechanical properties :
#
#
# Convention : Reuss Voigt Hill
#
# Bulk Modulus (GPa) = 57.51630 61.31543 59.41587
# Shear Modulus (GPa) = 20.30648 32.44251 26.37450
#
# Velocity S-wave (km/s) = 3.03873 3.84089 3.46311
# Velocity P-wave (km/s) = 6.20210 6.89577 6.55811
#
# Compressibility (1/GPa) = 0.01738637
#
# Stress axis : x y z
#
# Youngs Moduli (GPa) = 79.27982 79.27881 85.20196
#
# Poissons Ratio (x) = 0.53578 0.12912
# Poissons Ratio (y) = 0.53579 0.12910
# Poissons Ratio (z) = 0.12014 0.12013
#
# Static dielectric constant tensor:
#      x y z
#    x 1.800540 0.000000 0.000000 
#    y 0.000000 1.800540 0.000000 
#    z 0.000000 0.000000 1.792700 
# 
# From -- ./inp_files/387.got.cif
#   From: 2010.05.17/outbox.cif.g08.bks.cpg/sg90_1_cif.got.tgz:387.got - 2010.06.03 19:17:45.
