data_PCOD9547222
_publ_section_title
;
Structure prediction by ZEFSAII (Michael W. Deem and Ramdas Pophale) SiO2 
 PCOD9547222
Probable space group: P 4 21 2
;
_chemical_formula_sum "Si O2"
_cell_formula_units_Z 42
_cell_length_a 13.739406
_cell_length_b 13.739406
_cell_length_c 9.549115
_cell_angle_alpha 90.000000
_cell_angle_beta 90.000000
_cell_angle_gamma 90.000000
_cell_volume 1802.598635
_symmetry_space_group_name_H-M "P 4 21 2"
_symmetry_group_IT_number 90
_symmetry_cell_setting 'tetragonal'
loop_
_space_group_symop_operation_xyz
x,y,z
1/2-y,1/2+x,z
-x,-y,z
1/2+y,1/2-x,z
1/2+x,1/2-y,-z
1/2-x,1/2+y,-z
y,x,-z
-y,-x,-z
loop_
_atom_site_type_symbol
_atom_site_label
_atom_site_fract_x
_atom_site_fract_y
_atom_site_fract_z
Si Si1 0.979371 0.712649 0.096969
Si Si2 0.784370 0.948204 0.193125
Si Si3 0.167279 0.826164 0.163393
Si Si4 0.000000 0.500000 0.021324
Si Si5 0.759103 0.842262 0.677774
Si Si6 0.434485 0.853351 0.438662
O O1 0.058282 0.785506 0.163490
O O2 0.027551 0.616455 0.032460
O O3 0.907400 0.689965 0.222980
O O4 0.926450 0.765410 0.968596
O O5 0.853181 0.869065 0.266843
O O6 0.682768 0.939705 0.278544
O O7 0.821517 0.059415 0.194066
O O8 0.227881 0.766676 0.278993
O O9 0.195231 0.804770 0.000000
O O10 0.732015 0.882433 0.525973
O O11 0.547470 0.876548 0.470602
#
# Coordination Sequence:
#
# PCOD9547222 Si02
#       6
#     8   8   8   2   8   8
#     4  11  24  40  71 104 137 178 230 288 343 416
#     4  11  25  42  67  98 140 187 227 282 347 421
#     4  10  22  42  67 103 141 181 233 289 352 417
#     4  12  24  36  72 110 140 172 228 294 348 404
#     4  12  23  43  66  98 139 183 228 286 349 415
#     4  11  26  43  68 101 137 177 233 292 348 407
#
# _framework density 23.299696000000001
#
# number of rings (size 3 to 8) (size 9 to 14) (size 15 to 20)
#    0.000    0.952    1.905    4.571    5.333    0.762 
#    0.000    5.714    0.000    4.571    0.000    0.000 
#    0.000    0.000    0.000    0.000    0.000    0.000 
#
# Total GULP energy -234184.424944 kJ/mol
# GULP energy per Si atom -5575.819642 kJ/mol
# Density = 2.324666 g / cm^3
# Si number density = 23.299696 Si / 1000 Ang^3
#
#
#
# Elastic Constant Matrix: (Units=GPa)
#
#
# Indices 1 2 3 4 5 6 
#
# 1 94.0454 56.8396 25.3602 0.0000 0.0000 0.0000
# 2 56.8396 94.0454 25.3598 0.0000 0.0000 0.0000
# 3 25.3602 25.3598 93.8981 0.0000 0.0000 0.0000
# 4 0.0000 0.0000 0.0000 34.7874 0.0000 0.0000
# 5 0.0000 0.0000 0.0000 0.0000 34.7873 0.0000
# 6 0.0000 0.0000 0.0000 0.0000 0.0000 32.0122
#
#
#
# Elastic Compliance Matrix: (Units=1/GPa)
#
#
# Indices 1 2 3 4 5 6 
#
# 1 0.017083 -0.009794 -0.001969 0.000000 0.000000 0.000000
# 2 -0.009794 0.017083 -0.001969 0.000000 0.000000 0.000000
# 3 -0.001969 -0.001969 0.011713 0.000000 0.000000 0.000000
# 4 0.000000 0.000000 0.000000 0.028746 0.000000 0.000000
# 5 0.000000 0.000000 0.000000 0.000000 0.028746 0.000000
# 6 0.000000 0.000000 0.000000 0.000000 0.000000 0.031238
#
#
# Mechanical properties :
#
#
# Convention : Reuss Voigt Hill
#
# Bulk Modulus (GPa) = 54.29729 55.23423 54.76576
# Shear Modulus (GPa) = 29.72431 31.94599 30.83515
#
# Velocity S-wave (km/s) = 3.57562 3.70684 3.64182
# Velocity P-wave (km/s) = 6.35620 6.48678 6.42182
#
# Compressibility (1/GPa) = 0.01841712
#
# Stress axis : x y z
#
# Youngs Moduli (GPa) = 58.53615 58.53628 85.37325
#
# Poissons Ratio (x) = 0.57331 0.16808
# Poissons Ratio (y) = 0.57331 0.16807
# Poissons Ratio (z) = 0.11524 0.11524
#
# Static dielectric constant tensor:
#      x y z
#    x 1.919830 0.000000 0.000000 
#    y 0.000000 1.919830 0.000000 
#    z 0.000000 0.000000 1.891920 
# 
# From -- ./inp_files/1365.got.cif
#   From: 2010.05.17/outbox.cif.g08.bks.cpg/sg90_1_cif.got.tgz:1365.got - 2010.06.03 19:17:45.
