data_PCOD9547928
_publ_section_title
;
Structure prediction by ZEFSAII (Michael W. Deem and Ramdas Pophale) SiO2 
 PCOD9547928
Probable space group: P 41 2 2
;
_chemical_formula_sum "Si O2"
_cell_formula_units_Z 48
_cell_length_a 11.456869
_cell_length_b 11.456869
_cell_length_c 20.285393
_cell_angle_alpha 90.000000
_cell_angle_beta 90.000000
_cell_angle_gamma 90.000000
_cell_volume 2662.657587
_symmetry_space_group_name_H-M "P 41 2 2"
_symmetry_group_IT_number 91
_symmetry_cell_setting 'tetragonal'
loop_
_space_group_symop_operation_xyz
x,y,z
-y,x,1/4+z
-x,-y,1/2+z
y,-x,3/4+z
x,-y,1/2-z
-x,y,-z
y,x,3/4-z
-y,-x,1/4-z
loop_
_atom_site_type_symbol
_atom_site_label
_atom_site_fract_x
_atom_site_fract_y
_atom_site_fract_z
Si Si1 0.802257 0.802257 0.875000
Si Si2 0.000000 0.508680 0.500000
Si Si3 0.818493 0.500000 0.750000
Si Si4 0.344291 0.711665 0.248331
Si Si5 0.748482 0.391122 0.992056
Si Si6 0.382050 0.017679 0.391055
Si Si7 0.620371 0.243178 0.890291
Si Si8 0.625658 0.625658 0.375000
O O1 0.723456 0.765159 0.812785
O O2 0.751880 0.932253 0.889779
O O3 0.116249 0.585745 0.505808
O O4 0.021098 0.435205 0.432946
O O5 0.729314 0.399400 0.770517
O O6 0.896047 0.453592 0.689435
O O7 0.479718 0.692301 0.230275
O O8 0.346613 0.785840 0.314869
O O9 0.718621 0.309307 0.931225
O O10 0.690568 0.340156 0.057958
O O11 0.399095 0.886424 0.418279
O O12 0.508510 0.331040 0.886457
#
# Coordination Sequence:
#
# PCOD9547928 Si02
#       8
#     4   4   4   8   8   8   8   4
#     4  10  20  37  62  83 110 154 202 254 287 344
#     4  12  20  42  60  82 118 164 198 244 294 376
#     4  10  24  34  56  86 120 148 186 248 304 348
#     4  10  21  36  53  87 115 150 191 240 296 358
#     4  11  23  36  61  84 123 155 198 239 300 368
#     4  11  21  39  59  85 119 155 202 244 302 351
#     4  11  23  37  58  88 124 157 190 244 304 371
#     4  10  22  37  56  89 122 158 188 244 301 376
#
# _framework density 18.027103
#
# number of rings (size 3 to 8) (size 9 to 14) (size 15 to 20)
#    0.000    1.333    5.000    1.500    9.333    0.000 
#    0.000    0.000    0.000    6.000    0.000    0.000 
#    0.000    0.000    0.000    0.000    0.000    0.000 
#
# Total GULP energy -267255.379457 kJ/mol
# GULP energy per Si atom -5567.820405 kJ/mol
# Density = 1.798607 g / cm^3
# Si number density = 18.027103 Si / 1000 Ang^3
#
#
#
# Elastic Constant Matrix: (Units=GPa)
#
#
# Indices 1 2 3 4 5 6 
#
# 1 75.0937 35.9534 18.7632 0.0000 0.0000 0.0000
# 2 35.9534 75.0937 18.7632 0.0000 0.0000 0.0000
# 3 18.7632 18.7632 85.8813 0.0000 0.0000 0.0000
# 4 0.0000 0.0000 0.0000 22.4296 0.0000 0.0000
# 5 0.0000 0.0000 0.0000 0.0000 22.4296 0.0000
# 6 0.0000 0.0000 0.0000 0.0000 0.0000 9.0905
#
#
#
# Elastic Compliance Matrix: (Units=1/GPa)
#
#
# Indices 1 2 3 4 5 6 
#
# 1 0.017636 -0.007913 -0.002124 0.000000 0.000000 0.000000
# 2 -0.007913 0.017636 -0.002124 0.000000 0.000000 0.000000
# 3 -0.002124 -0.002124 0.012572 0.000000 0.000000 0.000000
# 4 0.000000 0.000000 0.000000 0.044584 0.000000 0.000000
# 5 0.000000 0.000000 0.000000 0.000000 0.044584 0.000000
# 6 0.000000 0.000000 0.000000 0.000000 0.000000 0.110005
#
#
# Mechanical properties :
#
#
# Convention : Reuss Voigt Hill
#
# Bulk Modulus (GPa) = 42.51483 42.55868 42.53675
# Shear Modulus (GPa) = 17.90950 21.62917 19.76934
#
# Velocity S-wave (km/s) = 3.15537 3.46759 3.31516
# Velocity P-wave (km/s) = 6.07537 6.30013 6.18877
#
# Compressibility (1/GPa) = 0.02352120
#
# Stress axis : x y z
#
# Youngs Moduli (GPa) = 56.70190 56.70190 79.54067
#
# Poissons Ratio (x) = 0.44868 0.16897
# Poissons Ratio (y) = 0.44868 0.16897
# Poissons Ratio (z) = 0.12045 0.12045
#
# Static dielectric constant tensor:
#      x y z
#    x 1.660650 0.000000 0.000000 
#    y 0.000000 1.660650 0.000000 
#    z 0.000000 0.000000 1.648000 
# 
# From -- ./inp_files/6367.got.cif
#   From: 2010.05.17/outbox.cif.g08.bks.cpg/sg91_4_cif.got.tgz:6367.got - 2010.06.03 19:20:03.
