data_PCOD9547046
_publ_section_title
;
Structure prediction by ZEFSAII (Michael W. Deem and Ramdas Pophale) SiO2 
 PCOD9547046
Probable space group: P 4 2 2
;
_chemical_formula_sum "Si O2"
_cell_formula_units_Z 50
_cell_length_a 8.298115
_cell_length_b 8.298115
_cell_length_c 34.448591
_cell_angle_alpha 90.000000
_cell_angle_beta 90.000000
_cell_angle_gamma 90.000000
_cell_volume 2372.085626
_symmetry_space_group_name_H-M "P 4 2 2"
_symmetry_group_IT_number 89
_symmetry_cell_setting 'tetragonal'
loop_
_space_group_symop_operation_xyz
x,y,z
-y,x,z
-x,-y,z
y,-x,z
x,-y,-z
-x,y,-z
y,x,-z
-y,-x,-z
loop_
_atom_site_type_symbol
_atom_site_label
_atom_site_fract_x
_atom_site_fract_y
_atom_site_fract_z
Si Si1 0.408539 0.755317 0.222786
Si Si2 0.332398 0.714695 0.459408
Si Si3 0.000000 0.500000 0.000000
Si Si4 0.252546 0.103661 0.703461
Si Si5 0.237400 0.872301 0.379591
Si Si6 0.258567 0.083154 0.937121
Si Si7 0.756256 0.404077 0.863517
O O1 0.302260 0.592549 0.224752
O O2 0.360132 0.858975 0.259586
O O3 0.379957 0.825890 0.179836
O O4 0.285453 0.526434 0.458911
O O5 0.242087 0.757914 0.500000
O O6 0.298560 0.814973 0.420974
O O7 0.896469 0.615173 0.028047
O O8 0.326636 0.156230 0.661572
O O9 0.083462 0.201168 0.705101
O O10 0.062530 0.790421 0.378380
O O11 0.346707 0.124676 0.896938
O O12 0.100377 0.194834 0.939660
O O13 0.699221 0.590012 0.866957
#
# Coordination Sequence:
#
# PCOD9547046 Si02
#       7
#     8   8   2   8   8   8   8
#     4   9  19  35  55  81 113 148 187 230 275 328
#     4   9  19  35  52  72 100 132 167 211 264 322
#     4  12  24  42  64  86 120 158 192 238 292 350
#     4   9  19  35  52  73 105 142 180 224 273 325
#     4   9  19  35  52  72 101 136 174 219 270 323
#     4  11  24  41  63  92 123 156 197 246 297 348
#     4   9  19  38  61  85 118 159 198 237 287 346
#
# _framework density 21.078496999999999
#
# number of rings (size 3 to 8) (size 9 to 14) (size 15 to 20)
#    0.000    2.560    0.000    3.840    0.000    5.120 
#    0.000   12.000    0.000    0.960    0.000    0.000 
#    0.000    0.000    0.000    0.000    0.000    0.000 
#
# Total GULP energy -278852.065441 kJ/mol
# GULP energy per Si atom -5577.041309 kJ/mol
# Density = 2.103052 g / cm^3
# Si number density = 21.078497 Si / 1000 Ang^3
#
#
#
# Elastic Constant Matrix: (Units=GPa)
#
#
# Indices 1 2 3 4 5 6 
#
# 1 23.8791 38.2426 46.9245 0.0000 0.0000 0.0000
# 2 38.2426 23.8796 46.9252 0.0000 0.0000 0.0000
# 3 46.9245 46.9252 192.6042 0.0000 0.0000 0.0000
# 4 0.0000 0.0000 0.0000 22.9556 0.0000 0.0000
# 5 0.0000 0.0000 0.0000 0.0000 22.9559 0.0000
# 6 0.0000 0.0000 0.0000 0.0000 0.0000 26.7336
#
#
#
# Elastic Compliance Matrix: (Units=1/GPa)
#
#
# Indices 1 2 3 4 5 6 
#
# 1 -0.022075 0.047548 -0.006206 0.000000 0.000000 0.000000
# 2 0.047548 -0.022075 -0.006206 0.000000 0.000000 0.000000
# 3 -0.006206 -0.006206 0.008216 0.000000 0.000000 0.000000
# 4 0.000000 0.000000 0.000000 0.043562 0.000000 0.000000
# 5 0.000000 0.000000 0.000000 0.000000 0.043562 0.000000
# 6 0.000000 0.000000 0.000000 0.000000 0.000000 0.037406
#
#
# Mechanical properties :
#
#
# Convention : Reuss Voigt Hill
#
# Bulk Modulus (GPa) = 29.12237 56.06085 42.59161
# Shear Modulus (GPa) = 167.94386 21.74706 94.84546
#
# Velocity S-wave (km/s) = 8.93579 3.21552 6.71521
# Velocity P-wave (km/s) = 10.96862 6.35925 8.96523
#
# Compressibility (1/GPa) = 0.03433787
#
# Stress axis : x y z
#
# Youngs Moduli (GPa) = -45.30054 -45.30112 121.71320
#
# Poissons Ratio (x) = 2.15397 0.75538
# Poissons Ratio (y) = 2.15394 0.75536
# Poissons Ratio (z) = -0.28114 -0.28114
#
# Static dielectric constant tensor:
#      x y z
#    x 1.762630 0.000000 0.000000 
#    y 0.000000 1.762630 0.000000 
#    z 0.000000 0.000000 1.823060 
# 
# From -- ./inp_files/3004.got.cif
#   From: 2010.05.17/outbox.cif.g08.bks.cpg/sg89_2_cif.got.tgz:3004.got - 2010.06.03 19:15:31.
