data_PCOD9547888
_publ_section_title
;
Structure prediction by ZEFSAII (Michael W. Deem and Ramdas Pophale) SiO2 
 PCOD9547888
Probable space group: P 41 2 2
;
_chemical_formula_sum "Si O2"
_cell_formula_units_Z 48
_cell_length_a 11.525577
_cell_length_b 11.525577
_cell_length_c 16.093474
_cell_angle_alpha 90.000000
_cell_angle_beta 90.000000
_cell_angle_gamma 90.000000
_cell_volume 2137.839789
_symmetry_space_group_name_H-M "P 41 2 2"
_symmetry_group_IT_number 91
_symmetry_cell_setting 'tetragonal'
loop_
_space_group_symop_operation_xyz
x,y,z
-y,x,1/4+z
-x,-y,1/2+z
y,-x,3/4+z
x,-y,1/2-z
-x,y,-z
y,x,3/4-z
-y,-x,1/4-z
loop_
_atom_site_type_symbol
_atom_site_label
_atom_site_fract_x
_atom_site_fract_y
_atom_site_fract_z
Si Si1 0.996804 0.003197 0.625000
Si Si2 0.747133 0.092775 0.870288
Si Si3 0.282201 0.463077 0.083594
Si Si4 0.260563 0.755513 0.723952
Si Si5 0.000000 0.790370 0.500000
Si Si6 0.300249 0.321679 0.239392
Si Si7 0.561235 0.081048 0.580280
O O1 0.017148 0.137395 0.598428
O O2 0.115707 0.995227 0.676612
O O3 0.732061 0.203247 0.810083
O O4 0.639301 0.006652 0.869065
O O5 0.744899 0.146009 0.965887
O O6 0.334807 0.417375 0.169998
O O7 0.146911 0.470137 0.111717
O O8 0.312499 0.365701 0.016052
O O9 0.306884 0.588986 0.047502
O O10 0.257533 0.742468 0.625000
O O11 0.287416 0.889574 0.739512
O O12 0.186071 0.362356 0.289627
O O13 0.500000 0.024310 0.500000
#
# Coordination Sequence:
#
# PCOD9547888 Si02
#       7
#     4   8   8   8   4   8   8
#     4  10  22  34  56  96 134 172 214 262 326 396
#     4  10  24  38  64  97 132 172 221 272 328 403
#     4  10  23  44  66  94 125 170 220 274 332 393
#     4  10  22  40  62  93 131 170 215 269 326 399
#     4  10  20  36  58  88 132 178 208 256 336 392
#     4  10  23  44  68  96 130 171 226 277 338 397
#     4  10  23  43  66  94 133 174 221 280 335 397
#
# _framework density 22.452573000000001
#
# number of rings (size 3 to 8) (size 9 to 14) (size 15 to 20)
#    0.000    2.000    0.833    0.500    7.000    6.000 
#    0.000    9.167    0.000    0.000    0.000    0.000 
#    0.000    0.000    0.000    0.000    0.000    0.000 
#
# Total GULP energy -267382.629597 kJ/mol
# GULP energy per Si atom -5570.471450 kJ/mol
# Density = 2.240147 g / cm^3
# Si number density = 22.452573 Si / 1000 Ang^3
#
#
#
# Elastic Constant Matrix: (Units=GPa)
#
#
# Indices 1 2 3 4 5 6 
#
# 1 50.4214 27.1089 36.6047 0.0000 0.0000 0.0000
# 2 27.1089 50.4219 36.6046 0.0000 0.0000 0.0000
# 3 36.6047 36.6046 124.5081 0.0000 0.0000 0.0000
# 4 0.0000 0.0000 0.0000 25.5898 0.0000 0.0000
# 5 0.0000 0.0000 0.0000 0.0000 25.5901 0.0000
# 6 0.0000 0.0000 0.0000 0.0000 0.0000 18.6319
#
#
#
# Elastic Compliance Matrix: (Units=1/GPa)
#
#
# Indices 1 2 3 4 5 6 
#
# 1 0.030375 -0.012520 -0.005249 0.000000 0.000000 0.000000
# 2 -0.012520 0.030375 -0.005249 0.000000 0.000000 0.000000
# 3 -0.005249 -0.005249 0.011118 0.000000 0.000000 0.000000
# 4 0.000000 0.000000 0.000000 0.039078 0.000000 0.000000
# 5 0.000000 0.000000 0.000000 0.000000 0.039078 0.000000
# 6 0.000000 0.000000 0.000000 0.000000 0.000000 0.053671
#
#
# Mechanical properties :
#
#
# Convention : Reuss Voigt Hill
#
# Bulk Modulus (GPa) = 38.71344 47.33197 43.02271
# Shear Modulus (GPa) = 19.35418 22.29790 20.82604
#
# Velocity S-wave (km/s) = 2.93917 3.15479 3.04889
# Velocity P-wave (km/s) = 5.36638 5.86488 5.62116
#
# Compressibility (1/GPa) = 0.02583082
#
# Stress axis : x y z
#
# Youngs Moduli (GPa) = 32.92169 32.92220 89.94364
#
# Poissons Ratio (x) = 0.41219 0.47214
# Poissons Ratio (y) = 0.41218 0.47212
# Poissons Ratio (z) = 0.17282 0.17281
#
# Static dielectric constant tensor:
#      x y z
#    x 1.860390 0.000000 0.000000 
#    y 0.000000 1.860390 0.000000 
#    z 0.000000 0.000000 1.899590 
# 
# From -- ./inp_files/16945.got.cif
#   From: 2010.05.17/outbox.cif.g08.bks.cpg/sg91_9_cif.got.tgz:16945.got - 2010.06.03 19:20:03.
