data_PCOD9547574
_publ_section_title
;
Structure prediction by ZEFSAII (Michael W. Deem and Ramdas Pophale) SiO2 
 PCOD9547574
Probable space group: P 41 2 2
;
_chemical_formula_sum "Si O2"
_cell_formula_units_Z 48
_cell_length_a 11.733465
_cell_length_b 11.733465
_cell_length_c 18.991219
_cell_angle_alpha 90.000000
_cell_angle_beta 90.000000
_cell_angle_gamma 90.000000
_cell_volume 2614.600900
_symmetry_space_group_name_H-M "P 41 2 2"
_symmetry_group_IT_number 91
_symmetry_cell_setting 'tetragonal'
loop_
_space_group_symop_operation_xyz
x,y,z
-y,x,1/4+z
-x,-y,1/2+z
y,-x,3/4+z
x,-y,1/2-z
-x,y,-z
y,x,3/4-z
-y,-x,1/4-z
loop_
_atom_site_type_symbol
_atom_site_label
_atom_site_fract_x
_atom_site_fract_y
_atom_site_fract_z
Si Si1 0.761394 0.775808 0.068436
Si Si2 0.630889 0.004333 0.486023
Si Si3 0.081463 0.589972 0.591394
Si Si4 0.628762 0.181669 0.298033
Si Si5 0.023350 0.329361 0.604360
Si Si6 0.238609 0.631096 0.064332
O O1 0.715108 0.759431 0.147899
O O2 0.897885 0.767781 0.071937
O O3 0.709184 0.892975 0.040434
O O4 0.725195 0.682419 0.010760
O O5 0.500000 0.045050 0.500000
O O6 0.621378 0.911279 0.423731
O O7 0.675804 0.967859 0.561524
O O8 0.170363 0.643292 0.536323
O O9 0.077651 0.452345 0.583055
O O10 0.952002 0.624595 0.570758
O O11 0.504850 0.234177 0.312721
O O12 0.891807 0.330103 0.581791
O O13 0.318210 0.681790 0.125000
#
# Coordination Sequence:
#
# PCOD9547574 Si02
#       6
#     8   8   8   8   8   8
#     4  11  20  30  53  81 108 137 176 223 277 328
#     4   9  18  32  54  83 105 133 182 231 274 324
#     4   8  15  31  52  72 107 134 174 235 261 304
#     4   9  18  31  50  81 106 137 178 222 276 324
#     4  10  18  32  51  81 108 139 178 222 281 320
#     4  11  20  32  54  80 114 143 175 229 283 326
#
# _framework density 18.358442
#
# number of rings (size 3 to 8) (size 9 to 14) (size 15 to 20)
#    0.000    2.333    3.333    1.500    0.000    0.000 
#    0.000    0.833    0.000    8.000   13.000    0.000 
#    0.000    0.000    0.000    0.000    0.000    0.000 
#
# Total GULP energy -267268.490479 kJ/mol
# GULP energy per Si atom -5568.093552 kJ/mol
# Density = 1.831666 g / cm^3
# Si number density = 18.358442 Si / 1000 Ang^3
#
#
#
# Elastic Constant Matrix: (Units=GPa)
#
#
# Indices 1 2 3 4 5 6 
#
# 1 35.1196 12.2705 15.6758 0.0000 0.0000 0.0000
# 2 12.2705 35.1205 15.6758 0.0000 0.0000 0.0000
# 3 15.6758 15.6758 118.4657 0.0000 0.0000 0.0000
# 4 0.0000 0.0000 0.0000 24.1929 0.0000 0.0000
# 5 0.0000 0.0000 0.0000 0.0000 24.1930 0.0000
# 6 0.0000 0.0000 0.0000 0.0000 0.0000 11.5635
#
#
#
# Elastic Compliance Matrix: (Units=1/GPa)
#
#
# Indices 1 2 3 4 5 6 
#
# 1 0.033446 -0.010319 -0.003060 0.000000 0.000000 0.000000
# 2 -0.010319 0.033445 -0.003060 0.000000 0.000000 0.000000
# 3 -0.003060 -0.003060 0.009251 0.000000 0.000000 0.000000
# 4 0.000000 0.000000 0.000000 0.041335 0.000000 0.000000
# 5 0.000000 0.000000 0.000000 0.000000 0.041334 0.000000
# 6 0.000000 0.000000 0.000000 0.000000 0.000000 0.086479
#
#
# Mechanical properties :
#
#
# Convention : Reuss Voigt Hill
#
# Bulk Modulus (GPa) = 23.11490 30.66111 26.88800
# Shear Modulus (GPa) = 17.08883 21.66213 19.37548
#
# Velocity S-wave (km/s) = 3.05428 3.43877 3.25221
# Velocity P-wave (km/s) = 5.00564 5.70127 5.36474
#
# Compressibility (1/GPa) = 0.04326215
#
# Stress axis : x y z
#
# Youngs Moduli (GPa) = 29.89935 29.90018 108.09531
#
# Poissons Ratio (x) = 0.30855 0.33078
# Poissons Ratio (y) = 0.30854 0.33077
# Poissons Ratio (z) = 0.09150 0.09149
#
# Static dielectric constant tensor:
#      x y z
#    x 1.615200 0.000000 0.000000 
#    y 0.000000 1.615200 0.000000 
#    z 0.000000 0.000000 1.730330 
# 
# From -- ./inp_files/17268.got.cif
#   From: 2010.05.17/outbox.cif.g08.bks.cpg/sg91_9_cif.got.tgz:17268.got - 2010.06.03 19:20:03.
