data_PCOD9547554
_publ_section_title
;
Structure prediction by ZEFSAII (Michael W. Deem and Ramdas Pophale) SiO2 
 PCOD9547554
Probable space group: P 41 2 2
;
_chemical_formula_sum "Si O2"
_cell_formula_units_Z 36
_cell_length_a 9.047440
_cell_length_b 9.047440
_cell_length_c 21.502768
_cell_angle_alpha 90.000000
_cell_angle_beta 90.000000
_cell_angle_gamma 90.000000
_cell_volume 1760.134245
_symmetry_space_group_name_H-M "P 41 2 2"
_symmetry_group_IT_number 91
_symmetry_cell_setting 'tetragonal'
loop_
_space_group_symop_operation_xyz
x,y,z
-y,x,1/4+z
-x,-y,1/2+z
y,-x,3/4+z
x,-y,1/2-z
-x,y,-z
y,x,3/4-z
-y,-x,1/4-z
loop_
_atom_site_type_symbol
_atom_site_label
_atom_site_fract_x
_atom_site_fract_y
_atom_site_fract_z
Si Si1 0.993652 0.335561 0.225990
Si Si2 0.724439 0.695808 0.664682
Si Si3 0.529636 0.500000 0.750000
Si Si4 0.692219 0.229252 0.276991
Si Si5 0.587394 0.815862 0.353585
O O1 0.026351 0.500000 0.250000
O O2 0.149394 0.256130 0.213467
O O3 0.866399 0.264302 0.268343
O O4 0.915208 0.357427 0.159583
O O5 0.636813 0.557824 0.695275
O O6 0.804906 0.665987 0.599072
O O7 0.589113 0.806732 0.651225
O O8 0.417640 0.630161 0.768549
O O9 0.650030 0.140987 0.214102
O O10 0.656396 0.656396 0.375000
#
# Coordination Sequence:
#
# PCOD9547554 Si02
#       5
#     8   8   4   8   8
#     4  11  19  33  51  81 120 146 182 237 285 332
#     4  11  19  29  53  84 113 143 184 233 278 340
#     4  10  18  30  52  82 112 150 172 226 294 334
#     4  10  18  33  52  75 116 152 184 224 280 338
#     4   9  19  34  55  80 115 153 182 227 284 333
#
# _framework density 20.452985999999999
#
# number of rings (size 3 to 8) (size 9 to 14) (size 15 to 20)
#    0.000    1.778    4.444    3.333    0.000    0.889 
#    0.000    0.000    0.000    0.000    0.000   51.333 
#    0.000    0.000    0.000    0.000    0.000    0.000 
#
# Total GULP energy -200402.129204 kJ/mol
# GULP energy per Si atom -5566.725811 kJ/mol
# Density = 2.040643 g / cm^3
# Si number density = 20.452986 Si / 1000 Ang^3
#
#
#
# Elastic Constant Matrix: (Units=GPa)
#
#
# Indices 1 2 3 4 5 6 
#
# 1 64.3370 4.3901 15.7425 0.0000 0.0000 0.0000
# 2 4.3901 64.3370 15.7425 0.0000 0.0000 0.0000
# 3 15.7425 15.7425 98.4062 0.0000 0.0000 0.0000
# 4 0.0000 0.0000 0.0000 25.8396 0.0000 0.0000
# 5 0.0000 0.0000 0.0000 0.0000 25.8396 0.0000
# 6 0.0000 0.0000 0.0000 0.0000 0.0000 -11.7494
#
#
#
# Elastic Compliance Matrix: (Units=1/GPa)
#
#
# Indices 1 2 3 4 5 6 
#
# 1 0.016191 -0.000490 -0.002512 0.000000 0.000000 0.000000
# 2 -0.000490 0.016191 -0.002512 0.000000 0.000000 0.000000
# 3 -0.002512 -0.002512 0.010966 0.000000 0.000000 0.000000
# 4 0.000000 0.000000 0.000000 0.038700 0.000000 0.000000
# 5 0.000000 0.000000 0.000000 0.000000 0.038700 0.000000
# 6 0.000000 0.000000 0.000000 0.000000 0.000000 -0.085110
#
#
# Mechanical properties :
#
#
# Convention : Reuss Voigt Hill
#
# Bulk Modulus (GPa) = 30.94010 33.20338 32.07174
# Shear Modulus (GPa) = 87.04857 20.73295 53.89076
#
# Velocity S-wave (km/s) = 6.53090 3.18730 5.13866
# Velocity P-wave (km/s) = 8.48708 5.46026 7.13600
#
# Compressibility (1/GPa) = 0.03232051
#
# Stress axis : x y z
#
# Youngs Moduli (GPa) = 61.76190 61.76190 91.19432
#
# Poissons Ratio (x) = 0.03028 0.22906
# Poissons Ratio (y) = 0.03028 0.22906
# Poissons Ratio (z) = 0.15513 0.15513
#
# Static dielectric constant tensor:
#      x y z
#    x 1.752830 0.000000 0.000000 
#    y 0.000000 1.752830 0.000000 
#    z 0.000000 0.000000 1.793190 
# 
# From -- ./inp_files/12281.got.cif
#   From: 2010.05.17/outbox.cif.g08.bks.cpg/sg91_7_cif.got.tgz:12281.got - 2010.06.03 19:20:03.
