data_PCOD9547262
_publ_section_title
;
Structure prediction by ZEFSAII (Michael W. Deem and Ramdas Pophale) SiO2 
 PCOD9547262
Probable space group: P 4 21 2
;
_chemical_formula_sum "Si O2"
_cell_formula_units_Z 40
_cell_length_a 14.596943
_cell_length_b 14.596943
_cell_length_c 9.055012
_cell_angle_alpha 90.000000
_cell_angle_beta 90.000000
_cell_angle_gamma 90.000000
_cell_volume 1929.358152
_symmetry_space_group_name_H-M "P 4 21 2"
_symmetry_group_IT_number 90
_symmetry_cell_setting 'tetragonal'
loop_
_space_group_symop_operation_xyz
x,y,z
1/2-y,1/2+x,z
-x,-y,z
1/2+y,1/2-x,z
1/2+x,1/2-y,-z
1/2-x,1/2+y,-z
y,x,-z
-y,-x,-z
loop_
_atom_site_type_symbol
_atom_site_label
_atom_site_fract_x
_atom_site_fract_y
_atom_site_fract_z
Si Si1 0.644421 0.955931 0.020038
Si Si2 0.842993 0.733521 0.619518
Si Si3 0.084363 0.930128 0.828601
Si Si4 0.680860 0.397819 0.146714
Si Si5 0.762416 0.533347 0.686038
O O1 0.557682 0.891729 0.994252
O O2 0.687806 0.975792 0.182030
O O3 0.719878 0.909142 0.920543
O O4 0.772166 0.772166 0.500000
O O5 0.831733 0.809582 0.750712
O O6 0.815239 0.627760 0.652367
O O7 0.949913 0.740593 0.568889
O O8 0.063795 0.839197 0.736727
O O9 0.162489 0.002016 0.783111
O O10 0.098652 0.901349 0.000000
O O11 0.000000 0.000000 0.817617
O O12 0.617167 0.382834 0.000000
#
# Coordination Sequence:
#
# PCOD9547262 Si02
#       5
#     8   8   8   8   8
#     4  11  22  38  67 104 138 184 236 289 354 427
#     4  12  29  47  69 102 141 189 250 294 354 432
#     4  11  18  34  65 105 136 171 216 285 360 405
#     4  12  21  41  67 103 141 176 234 295 353 424
#     4  12  23  44  72  97 139 195 235 289 358 434
#
# _framework density 20.732284
#
# number of rings (size 3 to 8) (size 9 to 14) (size 15 to 20)
#    0.000    0.400   10.000    0.000    2.800    2.800 
#    0.000    1.000    0.000    0.000    0.000    0.000 
#    0.000    0.000    0.000    0.000    0.000    0.000 
#
# Total GULP energy -222706.307945 kJ/mol
# GULP energy per Si atom -5567.657699 kJ/mol
# Density = 2.068510 g / cm^3
# Si number density = 20.732284 Si / 1000 Ang^3
#
#
#
# Elastic Constant Matrix: (Units=GPa)
#
#
# Indices 1 2 3 4 5 6 
#
# 1 135.0655 63.5765 26.4962 0.0000 0.0000 0.0000
# 2 63.5765 135.0639 26.4960 0.0000 0.0000 0.0000
# 3 26.4962 26.4960 32.0028 0.0000 0.0000 0.0000
# 4 0.0000 0.0000 0.0000 12.7454 0.0000 0.0000
# 5 0.0000 0.0000 0.0000 0.0000 12.7460 0.0000
# 6 0.0000 0.0000 0.0000 0.0000 0.0000 121.7721
#
#
#
# Elastic Compliance Matrix: (Units=1/GPa)
#
#
# Indices 1 2 3 4 5 6 
#
# 1 0.010225 -0.003763 -0.005350 0.000000 0.000000 0.000000
# 2 -0.003763 0.010225 -0.005350 0.000000 0.000000 0.000000
# 3 -0.005350 -0.005350 0.040105 0.000000 0.000000 0.000000
# 4 0.000000 0.000000 0.000000 0.078460 0.000000 0.000000
# 5 0.000000 0.000000 0.000000 0.000000 0.078456 0.000000
# 6 0.000000 0.000000 0.000000 0.000000 0.000000 0.008212
#
#
# Mechanical properties :
#
#
# Convention : Reuss Voigt Hill
#
# Bulk Modulus (GPa) = 31.61565 59.47441 45.54503
# Shear Modulus (GPa) = 18.85717 41.82360 30.34038
#
# Velocity S-wave (km/s) = 3.01916 4.49633 3.82964
# Velocity P-wave (km/s) = 5.23797 7.46358 6.44754
#
# Compressibility (1/GPa) = 0.03162990
#
# Stress axis : x y z
#
# Youngs Moduli (GPa) = 97.80183 97.80066 24.93429
#
# Poissons Ratio (x) = 0.36807 0.13339
# Poissons Ratio (y) = 0.36808 0.13339
# Poissons Ratio (z) = 0.52319 0.52319
#
# Static dielectric constant tensor:
#      x y z
#    x 1.924330 0.000000 0.000000 
#    y 0.000000 1.924320 0.000000 
#    z 0.000000 0.000000 1.838270 
# 
# From -- ./inp_files/1264.got.cif
#   From: 2010.05.17/outbox.cif.g08.bks.cpg/sg90_1_cif.got.tgz:1264.got - 2010.06.03 19:17:45.
