data_PCOD9547040
_publ_section_title
;
Structure prediction by ZEFSAII (Michael W. Deem and Ramdas Pophale) SiO2 
 PCOD9547040
Probable space group: P 4 2 2
;
_chemical_formula_sum "Si O2"
_cell_formula_units_Z 48
_cell_length_a 8.523599
_cell_length_b 8.523599
_cell_length_c 32.755636
_cell_angle_alpha 90.000000
_cell_angle_beta 90.000000
_cell_angle_gamma 90.000000
_cell_volume 2379.753947
_symmetry_space_group_name_H-M "P 4 2 2"
_symmetry_group_IT_number 89
_symmetry_cell_setting 'tetragonal'
loop_
_space_group_symop_operation_xyz
x,y,z
-y,x,z
-x,-y,z
y,-x,z
x,-y,-z
-x,y,-z
y,x,-z
-y,-x,-z
loop_
_atom_site_type_symbol
_atom_site_label
_atom_site_fract_x
_atom_site_fract_y
_atom_site_fract_z
Si Si1 0.420408 0.751190 0.264365
Si Si2 0.187945 0.812056 0.500000
Si Si3 0.500000 0.000000 0.200073
Si Si4 0.736077 0.979743 0.044151
Si Si5 0.235596 0.886932 0.337494
Si Si6 0.286567 0.653542 0.584360
Si Si7 0.055006 0.740862 0.133347
O O1 0.310551 0.598371 0.261460
O O2 0.370789 0.828864 0.307088
O O3 0.406450 0.879642 0.228892
O O4 0.245821 0.716750 0.539491
O O5 0.000000 0.786827 0.500000
O O6 0.620469 0.915931 0.169560
O O7 0.661761 0.948893 0.088347
O O8 0.839656 0.137348 0.044511
O O9 0.656884 0.000000 0.000000
O O10 0.279943 0.838559 0.383419
O O11 0.070019 0.798239 0.330228
O O12 0.289573 0.465857 0.590658
O O13 0.178185 0.883401 0.136443
#
# Coordination Sequence:
#
# PCOD9547040 Si02
#       7
#     8   4   4   8   8   8   8
#     4  11  24  41  60  82 110 147 190 235 289 352
#     4  11  24  41  62  92 128 167 212 257 300 350
#     4  12  22  36  55  80 110 144 185 240 296 350
#     4   7  10  20  41  68  98 134 176 222 275 339
#     4  11  24  42  65  93 121 151 192 243 297 354
#     4  11  24  41  63  93 128 165 205 247 295 355
#     4   9  18  32  51  76 106 142 184 231 288 351
#
# _framework density 20.170152000000002
#
# number of rings (size 3 to 8) (size 9 to 14) (size 15 to 20)
#    0.000    1.917    0.000    6.000    0.000    8.000 
#    0.000    2.083    0.000    0.000    0.000    0.000 
#    0.000    0.000    0.000   20.333    0.000    1.333 
#
# Total GULP energy -267612.246945 kJ/mol
# GULP energy per Si atom -5575.255145 kJ/mol
# Density = 2.012424 g / cm^3
# Si number density = 20.170152 Si / 1000 Ang^3
#
#
#
# Elastic Constant Matrix: (Units=GPa)
#
#
# Indices 1 2 3 4 5 6 
#
# 1 57.6445 15.1427 21.2955 0.0000 0.0000 0.0000
# 2 15.1427 57.6448 21.2955 0.0000 0.0000 0.0000
# 3 21.2955 21.2955 153.8004 0.0000 0.0000 0.0000
# 4 0.0000 0.0000 0.0000 78.7952 0.0000 0.0000
# 5 0.0000 0.0000 0.0000 0.0000 78.7951 0.0000
# 6 0.0000 0.0000 0.0000 0.0000 0.0000 21.9762
#
#
#
# Elastic Compliance Matrix: (Units=1/GPa)
#
#
# Indices 1 2 3 4 5 6 
#
# 1 0.019239 -0.004289 -0.002070 0.000000 0.000000 0.000000
# 2 -0.004289 0.019239 -0.002070 0.000000 0.000000 0.000000
# 3 -0.002070 -0.002070 0.007075 0.000000 0.000000 0.000000
# 4 0.000000 0.000000 0.000000 0.012691 0.000000 0.000000
# 5 0.000000 0.000000 0.000000 0.000000 0.012691 0.000000
# 6 0.000000 0.000000 0.000000 0.000000 0.000000 0.045504
#
#
# Mechanical properties :
#
#
# Convention : Reuss Voigt Hill
#
# Bulk Modulus (GPa) = 34.84931 42.72856 38.78894
# Shear Modulus (GPa) = 34.99863 50.00372 42.50118
#
# Velocity S-wave (km/s) = 4.17006 4.98445 4.59533
# Velocity P-wave (km/s) = 6.36404 7.37268 6.88685
#
# Compressibility (1/GPa) = 0.02869497
#
# Stress axis : x y z
#
# Youngs Moduli (GPa) = 51.97735 51.97761 141.33949
#
# Poissons Ratio (x) = 0.22294 0.29257
# Poissons Ratio (y) = 0.22294 0.29257
# Poissons Ratio (z) = 0.10759 0.10759
#
# Static dielectric constant tensor:
#      x y z
#    x 1.716600 0.000000 0.000000 
#    y 0.000000 1.716600 0.000000 
#    z 0.000000 0.000000 1.747580 
# 
# From -- ./inp_files/2974.got.cif
#   From: 2010.05.17/outbox.cif.g08.bks.cpg/sg89_2_cif.got.tgz:2974.got - 2010.06.03 19:15:31.
