data_PCOD9547007
_publ_section_title
;
Structure prediction by ZEFSAII (Michael W. Deem and Ramdas Pophale) SiO2 
 PCOD9547007
Probable space group: P 4 2 2
;
_chemical_formula_sum "Si O2"
_cell_formula_units_Z 48
_cell_length_a 8.503756
_cell_length_b 8.503756
_cell_length_c 31.378208
_cell_angle_alpha 90.000000
_cell_angle_beta 90.000000
_cell_angle_gamma 90.000000
_cell_volume 2269.079532
_symmetry_space_group_name_H-M "P 4 2 2"
_symmetry_group_IT_number 89
_symmetry_cell_setting 'tetragonal'
loop_
_space_group_symop_operation_xyz
x,y,z
-y,x,z
-x,-y,z
y,-x,z
x,-y,-z
-x,y,-z
y,x,-z
-y,-x,-z
loop_
_atom_site_type_symbol
_atom_site_label
_atom_site_fract_x
_atom_site_fract_y
_atom_site_fract_z
Si Si1 0.036556 0.737844 0.951866
Si Si2 0.754644 0.578962 0.208023
Si Si3 0.239649 0.098785 0.626374
Si Si4 0.708779 0.659069 0.450691
Si Si5 0.753483 0.420955 0.700002
Si Si6 0.426935 0.757536 0.114543
O O1 0.115387 0.610318 0.921260
O O2 0.875028 0.832412 0.945119
O O3 0.000000 0.681344 0.000000
O O4 0.598846 0.687896 0.208201
O O5 0.834594 0.605908 0.253774
O O6 0.830519 0.600915 0.161817
O O7 0.278927 0.150483 0.578245
O O8 0.373954 0.148076 0.659144
O O9 0.080880 0.197390 0.634181
O O10 0.528633 0.709579 0.441365
O O11 0.713748 0.713748 0.500000
O O12 0.688483 0.597704 0.698489
O O13 0.314098 0.602983 0.111359
#
# Coordination Sequence:
#
# PCOD9547007 Si02
#       6
#     8   8   8   8   8   8
#     4   9  19  37  53  69  99 140 179 209 244 297
#     4   7  12  26  50  80 110 134 160 206 265 317
#     4  11  24  37  48  70 109 150 182 217 264 315
#     4   9  19  37  60  83 103 127 170 227 279 328
#     4   9  17  32  56  81 103 134 177 218 259 313
#     4   9  17  32  57  87 112 132 164 215 270 318
#
# _framework density 21.153949999999998
#
# number of rings (size 3 to 8) (size 9 to 14) (size 15 to 20)
#    0.000    3.000    0.000    4.000    0.000    5.333 
#    0.000   12.500    0.000   12.000    0.000    0.000 
#    0.000    0.000    0.000    0.000    0.000    0.000 
#
# Total GULP energy -267240.766615 kJ/mol
# GULP energy per Si atom -5567.515971 kJ/mol
# Density = 2.110580 g / cm^3
# Si number density = 21.153950 Si / 1000 Ang^3
#
#
#
# Elastic Constant Matrix: (Units=GPa)
#
#
# Indices 1 2 3 4 5 6 
#
# 1 25.5914 47.5300 27.7156 0.0000 0.0000 0.0000
# 2 47.5300 25.5914 27.7156 0.0000 0.0000 0.0000
# 3 27.7156 27.7156 75.5486 0.0000 0.0000 0.0000
# 4 0.0000 0.0000 0.0000 -0.5871 0.0000 0.0000
# 5 0.0000 0.0000 0.0000 0.0000 -0.5871 0.0000
# 6 0.0000 0.0000 0.0000 0.0000 0.0000 33.7155
#
#
#
# Elastic Compliance Matrix: (Units=1/GPa)
#
#
# Indices 1 2 3 4 5 6 
#
# 1 -0.013319 0.032263 -0.006950 0.000000 0.000000 0.000000
# 2 0.032263 -0.013319 -0.006950 0.000000 0.000000 0.000000
# 3 -0.006950 -0.006950 0.018336 0.000000 0.000000 0.000000
# 4 0.000000 0.000000 0.000000 -1.703382 0.000000 0.000000
# 5 0.000000 0.000000 0.000000 0.000000 -1.703382 0.000000
# 6 0.000000 0.000000 0.000000 0.000000 0.000000 0.029660
#
#
# Mechanical properties :
#
#
# Convention : Reuss Voigt Hill
#
# Bulk Modulus (GPa) = 35.18035 36.96154 36.07095
# Shear Modulus (GPa) = -1.46513 8.09296 3.31391
#
# Velocity S-wave (km/s) = -0.83313 1.95807 1.25298
# Velocity P-wave (km/s) = 3.96753 4.75633 4.37972
#
# Compressibility (1/GPa) = 0.02842496
#
# Stress axis : x y z
#
# Youngs Moduli (GPa) = -75.08215 -75.08215 54.53825
#
# Poissons Ratio (x) = 2.42239 0.37904
# Poissons Ratio (y) = 2.42239 0.37904
# Poissons Ratio (z) = -0.52181 -0.52181
#
# Static dielectric constant tensor:
#      x y z
#    x 1.786550 0.000000 0.000000 
#    y 0.000000 1.786550 0.000000 
#    z 0.000000 0.000000 1.815080 
# 
# From -- ./inp_files/2967.got.cif
#   From: 2010.05.17/outbox.cif.g08.bks.cpg/sg89_2_cif.got.tgz:2967.got - 2010.06.03 19:15:31.
