data_PCOD9547306
_publ_section_title
;
Structure prediction by ZEFSAII (Michael W. Deem and Ramdas Pophale) SiO2 
 PCOD9547306
Probable space group: P 4 21 2
;
_chemical_formula_sum "Si O2"
_cell_formula_units_Z 36
_cell_length_a 8.709092
_cell_length_b 8.709092
_cell_length_c 21.256419
_cell_angle_alpha 90.000000
_cell_angle_beta 90.000000
_cell_angle_gamma 90.000000
_cell_volume 1612.262894
_symmetry_space_group_name_H-M "P 4 21 2"
_symmetry_group_IT_number 90
_symmetry_cell_setting 'tetragonal'
loop_
_space_group_symop_operation_xyz
x,y,z
1/2-y,1/2+x,z
-x,-y,z
1/2+y,1/2-x,z
1/2+x,1/2-y,-z
1/2-x,1/2+y,-z
y,x,-z
-y,-x,-z
loop_
_atom_site_type_symbol
_atom_site_label
_atom_site_fract_x
_atom_site_fract_y
_atom_site_fract_z
Si Si1 0.650971 0.603717 0.178812
Si Si2 0.364065 0.219949 0.693372
Si Si3 0.500000 0.000000 0.427319
Si Si4 0.083190 0.738606 0.951149
Si Si5 0.000000 0.500000 0.159167
Si Si6 0.913260 0.164682 0.568896
O O1 0.500000 0.500000 0.187942
O O2 0.685083 0.685888 0.245423
O O3 0.611635 0.709937 0.119908
O O4 0.809009 0.512990 0.161795
O O5 0.548803 0.202137 0.697701
O O6 0.330108 0.298174 0.627625
O O7 0.522919 0.187859 0.427967
O O8 0.187064 0.589563 0.962659
O O9 0.132530 0.867471 0.000000
O O10 0.837049 0.162952 0.500000
O O11 0.000000 0.000000 0.574361
#
# Coordination Sequence:
#
# PCOD9547306 Si02
#       6
#     8   8   2   8   2   8
#     4  12  25  45  78 114 152 205 256 312 394 461
#     4  11  23  44  77 111 152 208 259 320 393 467
#     4  12  28  48  73 116 145 204 264 310 404 464
#     4  11  29  49  74 112 149 196 255 318 387 463
#     4  12  24  48  73 112 153 204 252 314 376 468
#     4  11  27  47  74 111 156 203 258 327 395 469
#
# _framework density 22.328862000000001
#
# number of rings (size 3 to 8) (size 9 to 14) (size 15 to 20)
#    0.000    0.667    2.222    3.333   12.444    0.000 
#    0.000    0.000    0.000    0.000    0.000    0.000 
#    0.000    0.000    0.000    0.000    0.000    0.000 
#
# Total GULP energy -200441.133406 kJ/mol
# GULP energy per Si atom -5567.809261 kJ/mol
# Density = 2.227804 g / cm^3
# Si number density = 22.328862 Si / 1000 Ang^3
#
#
#
# Elastic Constant Matrix: (Units=GPa)
#
#
# Indices 1 2 3 4 5 6 
#
# 1 61.5971 67.1506 14.6119 0.0000 0.0000 0.0000
# 2 67.1506 61.5908 14.6085 0.0000 0.0000 0.0000
# 3 14.6119 14.6085 101.2539 0.0000 0.0000 0.0000
# 4 0.0000 0.0000 0.0000 30.8909 0.0000 0.0000
# 5 0.0000 0.0000 0.0000 0.0000 30.8910 0.0000
# 6 0.0000 0.0000 0.0000 0.0000 0.0000 2.7502
#
#
#
# Elastic Compliance Matrix: (Units=1/GPa)
#
#
# Indices 1 2 3 4 5 6 
#
# 1 -0.085963 0.093997 -0.001156 0.000000 0.000000 0.000000
# 2 0.093997 -0.085971 -0.001161 0.000000 0.000000 0.000000
# 3 -0.001156 -0.001161 0.010211 0.000000 0.000000 0.000000
# 4 0.000000 0.000000 0.000000 0.032372 0.000000 0.000000
# 5 0.000000 0.000000 0.000000 0.000000 0.032372 0.000000
# 6 0.000000 0.000000 0.000000 0.000000 0.000000 0.363616
#
#
# Mechanical properties :
#
#
# Convention : Reuss Voigt Hill
#
# Bulk Modulus (GPa) = 46.21860 46.35374 46.28617
# Shear Modulus (GPa) = 55.25548 21.44446 38.34997
#
# Velocity S-wave (km/s) = 4.97995 3.10238 4.14878
# Velocity P-wave (km/s) = 7.33557 5.79980 6.61242
#
# Compressibility (1/GPa) = 0.02163631
#
# Stress axis : x y z
#
# Youngs Moduli (GPa) = -11.63289 -11.63184 97.93791
#
# Poissons Ratio (x) = 1.09336 0.11324
# Poissons Ratio (y) = 1.09346 0.11372
# Poissons Ratio (z) = -0.01345 -0.01351
#
# Static dielectric constant tensor:
#      x y z
#    x 1.834120 0.000000 0.000000 
#    y 0.000000 1.834120 0.000000 
#    z 0.000000 0.000000 1.800320 
# 
# From -- ./inp_files/2783.got.cif
#   From: 2010.05.17/outbox.cif.g08.bks.cpg/sg90_2_cif.got.tgz:2783.got - 2010.06.03 19:17:45.
