data_PCOD9547977
_publ_section_title
;
Structure prediction by ZEFSAII (Michael W. Deem and Ramdas Pophale) SiO2 
 PCOD9547977
Probable space group: P 41 2 2
;
_chemical_formula_sum "Si O2"
_cell_formula_units_Z 40
_cell_length_a 8.557211
_cell_length_b 8.557211
_cell_length_c 22.659440
_cell_angle_alpha 90.000000
_cell_angle_beta 90.000000
_cell_angle_gamma 90.000000
_cell_volume 1659.256983
_symmetry_space_group_name_H-M "P 41 2 2"
_symmetry_group_IT_number 91
_symmetry_cell_setting 'tetragonal'
loop_
_space_group_symop_operation_xyz
x,y,z
-y,x,1/4+z
-x,-y,1/2+z
y,-x,3/4+z
x,-y,1/2-z
-x,y,-z
y,x,3/4-z
-y,-x,1/4-z
loop_
_atom_site_type_symbol
_atom_site_label
_atom_site_fract_x
_atom_site_fract_y
_atom_site_fract_z
Si Si1 0.886338 0.848420 0.623563
Si Si2 0.329640 0.162066 0.823823
Si Si3 0.323019 0.828441 0.268942
Si Si4 0.661566 0.828738 0.526998
Si Si5 0.397692 0.469189 0.441813
O O1 0.809260 0.784254 0.683736
O O2 0.746100 0.908103 0.581657
O O3 0.987000 0.707443 0.594622
O O4 0.013553 0.986448 0.625000
O O5 0.285296 0.285296 0.875000
O O6 0.506105 0.177120 0.801100
O O7 0.205588 0.211212 0.773553
O O8 0.356127 0.744751 0.207044
O O9 0.279266 0.000000 0.250000
O O10 0.500000 0.893108 0.500000
O O11 0.625477 0.654047 0.550434
O O12 0.500000 0.427086 0.500000
O O13 0.447905 0.447905 0.375000
#
# Coordination Sequence:
#
# PCOD9547977 Si02
#       5
#     8   8   8   8   8
#     4  11  24  41  64  93 132 176 222 274 333 401
#     4  10  21  40  68  96 128 167 217 275 335 399
#     4  11  24  42  63  92 133 176 215 271 343 407
#     4  10  20  38  67  99 129 165 217 275 335 402
#     4  10  21  39  69 104 135 168 223 291 354 419
#
# _framework density 24.107174000000001
#
# number of rings (size 3 to 8) (size 9 to 14) (size 15 to 20)
#    0.000    1.600    0.000    5.400    0.000    9.600 
#    0.000    0.000    0.000   13.200    0.000    0.000 
#    0.000    0.000    0.000    0.000    0.000    0.000 
#
# Total GULP energy -223463.863087 kJ/mol
# GULP energy per Si atom -5586.596577 kJ/mol
# Density = 2.405231 g / cm^3
# Si number density = 24.107174 Si / 1000 Ang^3
#
#
#
# Elastic Constant Matrix: (Units=GPa)
#
#
# Indices 1 2 3 4 5 6 
#
# 1 64.9215 -0.4664 20.9159 0.0000 0.0000 0.0000
# 2 -0.4664 64.9219 20.9159 0.0000 0.0000 0.0000
# 3 20.9159 20.9159 129.3262 0.0000 0.0000 0.0000
# 4 0.0000 0.0000 0.0000 17.3270 0.0000 0.0000
# 5 0.0000 0.0000 0.0000 0.0000 17.3274 0.0000
# 6 0.0000 0.0000 0.0000 0.0000 0.0000 -71.2018
#
#
#
# Elastic Compliance Matrix: (Units=1/GPa)
#
#
# Indices 1 2 3 4 5 6 
#
# 1 0.016314 0.001020 -0.002803 0.000000 0.000000 0.000000
# 2 0.001020 0.016314 -0.002803 0.000000 0.000000 0.000000
# 3 -0.002803 -0.002803 0.008639 0.000000 0.000000 0.000000
# 4 0.000000 0.000000 0.000000 0.057713 0.000000 0.000000
# 5 0.000000 0.000000 0.000000 0.000000 0.057712 0.000000
# 6 0.000000 0.000000 0.000000 0.000000 0.000000 -0.014045
#
#
# Mechanical properties :
#
#
# Convention : Reuss Voigt Hill
#
# Bulk Modulus (GPa) = 31.15888 37.98894 34.57391
# Shear Modulus (GPa) = 30.76581 7.21081 18.98831
#
# Velocity S-wave (km/s) = 3.57628 1.73137 2.80958
# Velocity P-wave (km/s) = 5.47780 4.44853 4.98977
#
# Compressibility (1/GPa) = 0.03209358
#
# Stress axis : x y z
#
# Youngs Moduli (GPa) = 61.29801 61.29840 115.75160
#
# Poissons Ratio (x) = -0.06255 0.32450
# Poissons Ratio (y) = -0.06255 0.32450
# Poissons Ratio (z) = 0.17185 0.17185
#
# Static dielectric constant tensor:
#      x y z
#    x 2.061980 0.000000 0.000000 
#    y 0.000000 2.061980 0.000000 
#    z 0.000000 0.000000 2.687400 
# 
# From -- ./inp_files/12734.got.cif
#   From: 2010.05.17/outbox.cif.g08.bks.cpg/sg91_7_cif.got.tgz:12734.got - 2010.06.03 19:20:03.
