data_PCOD9547769
_publ_section_title
;
Structure prediction by ZEFSAII (Michael W. Deem and Ramdas Pophale) SiO2 
 PCOD9547769
Probable space group: P 41 2 2
;
_chemical_formula_sum "Si O2"
_cell_formula_units_Z 40
_cell_length_a 13.534774
_cell_length_b 13.534774
_cell_length_c 9.986954
_cell_angle_alpha 90.000000
_cell_angle_beta 90.000000
_cell_angle_gamma 90.000000
_cell_volume 1829.511174
_symmetry_space_group_name_H-M "P 41 2 2"
_symmetry_group_IT_number 91
_symmetry_cell_setting 'tetragonal'
loop_
_space_group_symop_operation_xyz
x,y,z
-y,x,1/4+z
-x,-y,1/2+z
y,-x,3/4+z
x,-y,1/2-z
-x,y,-z
y,x,3/4-z
-y,-x,1/4-z
loop_
_atom_site_type_symbol
_atom_site_label
_atom_site_fract_x
_atom_site_fract_y
_atom_site_fract_z
Si Si1 0.212609 0.060691 0.846367
Si Si2 0.884950 0.568814 0.963080
Si Si3 0.606828 0.253112 0.968088
Si Si4 0.811411 0.363036 0.982478
Si Si5 0.063926 0.230758 0.364416
O O1 0.291630 0.093852 0.729837
O O2 0.226505 0.991116 0.511890
O O3 0.138148 0.000000 0.750000
O O4 0.165915 0.165915 0.875000
O O5 0.836907 0.466774 0.915605
O O6 0.882778 0.662289 0.865235
O O7 0.822816 0.597549 0.095928
O O8 0.000000 0.549977 0.000000
O O9 0.703923 0.320042 0.945037
O O10 0.500000 0.304901 0.000000
O O11 0.621352 0.194178 0.106167
O O12 0.144054 0.144054 0.375000
O O13 0.000000 0.228594 0.500000
#
# Coordination Sequence:
#
# PCOD9547769 Si02
#       5
#     8   8   8   8   8
#     4  12  25  40  67  95 128 171 230 278 326 403
#     4  10  21  37  62  94 130 172 214 272 344 400
#     4   9  18  34  65  93 129 169 222 276 333 397
#     4  10  19  37  63  95 126 167 220 282 322 397
#     4  11  25  43  67  94 137 179 217 277 346 407
#
# _framework density 21.863762999999999
#
# number of rings (size 3 to 8) (size 9 to 14) (size 15 to 20)
#    0.000    1.600    2.000    4.200    2.800    2.400 
#    0.000    5.000    8.800    0.000    0.000    0.000 
#    0.000    0.000    0.000    0.000    0.000    0.000 
#
# Total GULP energy -222903.075928 kJ/mol
# GULP energy per Si atom -5572.576898 kJ/mol
# Density = 2.181400 g / cm^3
# Si number density = 21.863763 Si / 1000 Ang^3
#
#
#
# Elastic Constant Matrix: (Units=GPa)
#
#
# Indices 1 2 3 4 5 6 
#
# 1 123.2135 60.0156 45.7651 0.0000 0.0000 0.0000
# 2 60.0156 123.2135 45.7651 0.0000 0.0000 0.0000
# 3 45.7651 45.7651 113.2727 0.0000 0.0000 0.0000
# 4 0.0000 0.0000 0.0000 20.6421 0.0000 0.0000
# 5 0.0000 0.0000 0.0000 0.0000 20.6421 0.0000
# 6 0.0000 0.0000 0.0000 0.0000 0.0000 27.9449
#
#
#
# Elastic Compliance Matrix: (Units=1/GPa)
#
#
# Indices 1 2 3 4 5 6 
#
# 1 0.011330 -0.004493 -0.002763 0.000000 0.000000 0.000000
# 2 -0.004493 0.011330 -0.002763 0.000000 0.000000 0.000000
# 3 -0.002763 -0.002763 0.011061 0.000000 0.000000 0.000000
# 4 0.000000 0.000000 0.000000 0.048445 0.000000 0.000000
# 5 0.000000 0.000000 0.000000 0.000000 0.048445 0.000000
# 6 0.000000 0.000000 0.000000 0.000000 0.000000 0.035785
#
#
# Mechanical properties :
#
#
# Convention : Reuss Voigt Hill
#
# Bulk Modulus (GPa) = 73.06984 73.64347 73.35666
# Shear Modulus (GPa) = 26.17894 27.72278 26.95086
#
# Velocity S-wave (km/s) = 3.46405 3.56473 3.51475
# Velocity P-wave (km/s) = 7.03510 7.12033 7.07784
#
# Compressibility (1/GPa) = 0.01368554
#
# Stress axis : x y z
#
# Youngs Moduli (GPa) = 88.25749 88.25749 90.41127
#
# Poissons Ratio (x) = 0.39652 0.24977
# Poissons Ratio (y) = 0.39652 0.24977
# Poissons Ratio (z) = 0.24382 0.24382
#
# Static dielectric constant tensor:
#      x y z
#    x 2.256880 0.000000 0.000000 
#    y 0.000000 2.256880 0.000000 
#    z 0.000000 0.000000 1.964460 
# 
# From -- ./inp_files/14989.got.cif
#   From: 2010.05.17/outbox.cif.g08.bks.cpg/sg91_8_cif.got.tgz:14989.got - 2010.06.03 19:20:03.
