data_PCOD9547168
_publ_section_title
;
Structure prediction by ZEFSAII (Michael W. Deem and Ramdas Pophale) SiO2 
 PCOD9547168
Probable space group: P 4 21 2
;
_chemical_formula_sum "Si O2"
_cell_formula_units_Z 34
_cell_length_a 12.732651
_cell_length_b 12.732651
_cell_length_c 11.734288
_cell_angle_alpha 90.000000
_cell_angle_beta 90.000000
_cell_angle_gamma 90.000000
_cell_volume 1902.367482
_symmetry_space_group_name_H-M "P 4 21 2"
_symmetry_group_IT_number 90
_symmetry_cell_setting 'tetragonal'
loop_
_space_group_symop_operation_xyz
x,y,z
1/2-y,1/2+x,z
-x,-y,z
1/2+y,1/2-x,z
1/2+x,1/2-y,-z
1/2-x,1/2+y,-z
y,x,-z
-y,-x,-z
loop_
_atom_site_type_symbol
_atom_site_label
_atom_site_fract_x
_atom_site_fract_y
_atom_site_fract_z
Si Si1 0.247714 0.095480 0.052934
Si Si2 0.000000 0.000000 0.500000
Si Si3 0.873126 0.203340 0.877116
Si Si4 0.014197 0.879845 0.279069
Si Si5 0.166410 0.544905 0.190994
O O1 0.302358 0.193217 0.114591
O O2 0.232773 0.994750 0.129833
O O3 0.139437 0.139437 0.000000
O O4 0.316373 0.058608 0.944577
O O5 0.005230 0.901935 0.413571
O O6 0.847650 0.125664 0.774707
O O7 0.853629 0.146372 0.000000
O O8 0.940427 0.782345 0.244342
O O9 0.000000 0.000000 0.231045
O O10 0.123265 0.428555 0.220134
#
# Coordination Sequence:
#
# PCOD9547168 Si02
#       5
#     8   2   8   8   8
#     4  11  20  31  50  87 126 158 194 233 301 380
#     4   8  24  44  66  80 116 156 232 282 308 336
#     4  11  21  32  54  87 122 159 195 243 309 381
#     4  10  21  41  62  84 119 161 217 267 305 357
#     4  11  20  35  59  90 131 165 195 238 309 388
#
# _framework density 17.872468000000001
#
# number of rings (size 3 to 8) (size 9 to 14) (size 15 to 20)
#    0.706    0.706    4.706    2.824    0.000    0.471 
#    0.000    1.176    0.000    0.000    0.000    0.000 
#    0.000    0.000    0.000    0.000    0.000    0.000 
#
# Total GULP energy -189318.760862 kJ/mol
# GULP energy per Si atom -5568.198849 kJ/mol
# Density = 1.783179 g / cm^3
# Si number density = 17.872468 Si / 1000 Ang^3
#
#
#
# Elastic Constant Matrix: (Units=GPa)
#
#
# Indices 1 2 3 4 5 6 
#
# 1 94.8186 36.5279 26.4903 0.0000 0.0000 0.0000
# 2 36.5279 94.8165 26.4902 0.0000 0.0000 0.0000
# 3 26.4903 26.4902 78.1853 0.0000 0.0000 0.0000
# 4 0.0000 0.0000 0.0000 11.6837 0.0000 0.0000
# 5 0.0000 0.0000 0.0000 0.0000 11.6840 0.0000
# 6 0.0000 0.0000 0.0000 0.0000 0.0000 25.7809
#
#
#
# Elastic Compliance Matrix: (Units=1/GPa)
#
#
# Indices 1 2 3 4 5 6 
#
# 1 0.012987 -0.004168 -0.002988 0.000000 0.000000 0.000000
# 2 -0.004168 0.012987 -0.002988 0.000000 0.000000 0.000000
# 3 -0.002988 -0.002988 0.014815 0.000000 0.000000 0.000000
# 4 0.000000 0.000000 0.000000 0.085589 0.000000 0.000000
# 5 0.000000 0.000000 0.000000 0.000000 0.085587 0.000000
# 6 0.000000 0.000000 0.000000 0.000000 0.000000 0.038788
#
#
# Mechanical properties :
#
#
# Convention : Reuss Voigt Hill
#
# Bulk Modulus (GPa) = 48.77892 49.64857 49.21374
# Shear Modulus (GPa) = 17.99364 21.71720 19.85542
#
# Velocity S-wave (km/s) = 3.17642 3.48964 3.33671
# Velocity P-wave (km/s) = 6.38787 6.63901 6.51465
#
# Compressibility (1/GPa) = 0.02050066
#
# Stress axis : x y z
#
# Youngs Moduli (GPa) = 76.99971 76.99786 67.49998
#
# Poissons Ratio (x) = 0.32096 0.20168
# Poissons Ratio (y) = 0.32097 0.20169
# Poissons Ratio (z) = 0.23007 0.23007
#
# Static dielectric constant tensor:
#      x y z
#    x 1.660190 0.000000 0.000000 
#    y 0.000000 1.660190 0.000000 
#    z 0.000000 0.000000 1.601240 
# 
# From -- ./inp_files/2430.got.cif
#   From: 2010.05.17/outbox.cif.g08.bks.cpg/sg90_2_cif.got.tgz:2430.got - 2010.06.03 19:17:45.
