data_PCOD9547343
_publ_section_title
;
Structure prediction by ZEFSAII (Michael W. Deem and Ramdas Pophale) SiO2 
 PCOD9547343
Probable space group: P 4 21 2
;
_chemical_formula_sum "Si O2"
_cell_formula_units_Z 36
_cell_length_a 8.443929
_cell_length_b 8.443929
_cell_length_c 25.004029
_cell_angle_alpha 90.000000
_cell_angle_beta 90.000000
_cell_angle_gamma 90.000000
_cell_volume 1782.785691
_symmetry_space_group_name_H-M "P 4 21 2"
_symmetry_group_IT_number 90
_symmetry_cell_setting 'tetragonal'
loop_
_space_group_symop_operation_xyz
x,y,z
1/2-y,1/2+x,z
-x,-y,z
1/2+y,1/2-x,z
1/2+x,1/2-y,-z
1/2-x,1/2+y,-z
y,x,-z
-y,-x,-z
loop_
_atom_site_type_symbol
_atom_site_label
_atom_site_fract_x
_atom_site_fract_y
_atom_site_fract_z
Si Si1 0.585056 0.255186 0.949933
Si Si2 0.544918 0.260619 0.264906
Si Si3 0.000000 0.000000 0.639602
Si Si4 0.076000 0.241173 0.853059
Si Si5 0.455680 0.737268 0.542799
O O1 0.404673 0.193249 0.951303
O O2 0.623307 0.357660 0.897369
O O3 0.638361 0.361640 0.000000
O O4 0.376194 0.174962 0.265728
O O5 0.538555 0.362282 0.317982
O O6 0.578159 0.333550 0.206453
O O7 0.147140 0.018323 0.598915
O O8 0.188147 0.398261 0.858538
O O9 0.622647 0.826744 0.536994
O O10 0.389425 0.610575 0.500000
#
# Coordination Sequence:
#
# PCOD9547343 Si02
#       5
#     8   8   4   8   8
#     4  11  24  39  57  85 118 152 196 249 306 370
#     4   9  20  37  57  84 118 157 201 250 307 374
#     4  12  21  36  62  92 123 160 208 262 318 374
#     4   9  19  37  59  83 113 151 197 246 298 362
#     4  11  24  42  64  93 131 174 220 269 322 380
#
# _framework density 20.193116
#
# number of rings (size 3 to 8) (size 9 to 14) (size 15 to 20)
#    0.000    1.778    0.000    5.667    0.000    8.444 
#    0.000    2.222    0.000    2.667    0.000    0.000 
#    0.000    0.000    0.000    0.000    0.000    0.000 
#
# Total GULP energy -200554.329974 kJ/mol
# GULP energy per Si atom -5570.953610 kJ/mol
# Density = 2.014716 g / cm^3
# Si number density = 20.193116 Si / 1000 Ang^3
#
#
#
# Elastic Constant Matrix: (Units=GPa)
#
#
# Indices 1 2 3 4 5 6 
#
# 1 67.2381 86.4053 80.6632 0.0000 0.0000 0.0000
# 2 86.4053 67.2405 80.6614 0.0000 0.0000 0.0000
# 3 80.6632 80.6614 191.2670 0.0000 0.0000 0.0000
# 4 0.0000 0.0000 0.0000 44.4069 0.0000 0.0000
# 5 0.0000 0.0000 0.0000 0.0000 44.4068 0.0000
# 6 0.0000 0.0000 0.0000 0.0000 0.0000 34.9597
#
#
#
# Elastic Compliance Matrix: (Units=1/GPa)
#
#
# Indices 1 2 3 4 5 6 
#
# 1 -0.020249 0.031928 -0.004925 0.000000 0.000000 0.000000
# 2 0.031928 -0.020246 -0.004927 0.000000 0.000000 0.000000
# 3 -0.004925 -0.004927 0.009383 0.000000 0.000000 0.000000
# 4 0.000000 0.000000 0.000000 0.022519 0.000000 0.000000
# 5 0.000000 0.000000 0.000000 0.000000 0.022519 0.000000
# 6 0.000000 0.000000 0.000000 0.000000 0.000000 0.028604
#
#
# Mechanical properties :
#
#
# Convention : Reuss Voigt Hill
#
# Bulk Modulus (GPa) = 76.68418 91.24503 83.96460
# Shear Modulus (GPa) = 1834.66162 29.95576 932.30869
#
# Velocity S-wave (km/s) = 30.17500 3.85575 21.51043
# Velocity P-wave (km/s) = 35.38500 8.06888 25.66325
#
# Compressibility (1/GPa) = 0.01304050
#
# Stress axis : x y z
#
# Youngs Moduli (GPa) = -49.38591 -49.39179 106.57275
#
# Poissons Ratio (x) = 1.57700 0.52491
# Poissons Ratio (y) = 1.57681 0.52507
# Poissons Ratio (z) = -0.24324 -0.24335
#
# Static dielectric constant tensor:
#      x y z
#    x 1.790790 0.000000 0.000000 
#    y 0.000000 1.790790 0.000000 
#    z 0.000000 0.000000 1.724680 
# 
# From -- ./inp_files/2747.got.cif
#   From: 2010.05.17/outbox.cif.g08.bks.cpg/sg90_2_cif.got.tgz:2747.got - 2010.06.03 19:17:45.
