data_PCOD9547144
_publ_section_title
;
Structure prediction by ZEFSAII (Michael W. Deem and Ramdas Pophale) SiO2 
 PCOD9547144
Probable space group: P 4 21 2
;
_chemical_formula_sum "Si O2"
_cell_formula_units_Z 56
_cell_length_a 11.917519
_cell_length_b 11.917519
_cell_length_c 18.538373
_cell_angle_alpha 90.000000
_cell_angle_beta 90.000000
_cell_angle_gamma 90.000000
_cell_volume 2632.954306
_symmetry_space_group_name_H-M "P 4 21 2"
_symmetry_group_IT_number 90
_symmetry_cell_setting 'tetragonal'
loop_
_space_group_symop_operation_xyz
x,y,z
1/2-y,1/2+x,z
-x,-y,z
1/2+y,1/2-x,z
1/2+x,1/2-y,-z
1/2-x,1/2+y,-z
y,x,-z
-y,-x,-z
loop_
_atom_site_type_symbol
_atom_site_label
_atom_site_fract_x
_atom_site_fract_y
_atom_site_fract_z
Si Si1 0.166427 0.778672 0.226435
Si Si2 0.332041 0.596684 0.918466
Si Si3 0.684621 0.194633 0.399121
Si Si4 0.838831 0.218604 0.919292
Si Si5 0.778317 0.014686 0.309638
Si Si6 0.610856 0.148715 0.561438
Si Si7 0.166226 0.079718 0.764413
O O1 0.150337 0.771401 0.140656
O O2 0.235884 0.670449 0.248260
O O3 0.043245 0.794544 0.257215
O O4 0.235747 0.892681 0.245572
O O5 0.308758 0.467096 0.909561
O O6 0.212119 0.658005 0.909432
O O7 0.407909 0.635354 0.850228
O O8 0.377570 0.622431 0.000000
O O9 0.584812 0.197324 0.339260
O O10 0.629108 0.165234 0.475367
O O11 0.752984 0.311332 0.405594
O O12 0.775590 0.100478 0.376727
O O13 0.812066 0.187935 0.000000
O O14 0.882136 0.941752 0.281184
O O15 0.478166 0.152487 0.579011
#
# Coordination Sequence:
#
# PCOD9547144 Si02
#       7
#     8   8   8   8   8   8   8
#     4  11  24  42  64  94 129 173 223 276 335 401
#     4  10  21  37  59  88 122 165 218 276 339 401
#     4  11  24  42  70 102 131 180 214 264 330 386
#     4  10  21  37  59  88 122 165 218 276 339 401
#     4  12  23  43  66  96 134 177 217 264 326 400
#     4  10  22  44  72 100 134 170 220 270 313 389
#     4  11  24  42  64  94 129 173 223 276 335 401
#
# _framework density 21.268884
#
# number of rings (size 3 to 8) (size 9 to 14) (size 15 to 20)
#    0.000    1.286    4.286    1.286    0.000    4.571 
#    0.000    0.000    0.000    5.143    0.000    0.000 
#    0.000    0.000    0.000    0.000    0.000    0.000 
#
# Total GULP energy -311990.346441 kJ/mol
# GULP energy per Si atom -5571.256186 kJ/mol
# Density = 2.122048 g / cm^3
# Si number density = 21.268884 Si / 1000 Ang^3
#
#
#
# Elastic Constant Matrix: (Units=GPa)
#
#
# Indices 1 2 3 4 5 6 
#
# 1 97.3903 33.9694 13.9359 0.0000 0.0000 0.0000
# 2 33.9694 97.3919 13.9356 0.0000 0.0000 0.0000
# 3 13.9359 13.9356 94.8692 0.0000 0.0000 0.0000
# 4 0.0000 0.0000 0.0000 19.2373 0.0000 0.0000
# 5 0.0000 0.0000 0.0000 0.0000 19.2375 0.0000
# 6 0.0000 0.0000 0.0000 0.0000 0.0000 16.1822
#
#
#
# Elastic Compliance Matrix: (Units=1/GPa)
#
#
# Indices 1 2 3 4 5 6 
#
# 1 0.011813 -0.003955 -0.001154 0.000000 0.000000 0.000000
# 2 -0.003955 0.011812 -0.001154 0.000000 0.000000 0.000000
# 3 -0.001154 -0.001154 0.010880 0.000000 0.000000 0.000000
# 4 0.000000 0.000000 0.000000 0.051982 0.000000 0.000000
# 5 0.000000 0.000000 0.000000 0.000000 0.051982 0.000000
# 6 0.000000 0.000000 0.000000 0.000000 0.000000 0.061796
#
#
# Mechanical properties :
#
#
# Convention : Reuss Voigt Hill
#
# Bulk Modulus (GPa) = 45.49984 45.92590 45.71287
# Shear Modulus (GPa) = 22.71504 26.11876 24.41690
#
# Velocity S-wave (km/s) = 3.27156 3.50812 3.39191
# Velocity P-wave (km/s) = 5.97578 6.16840 6.07285
#
# Compressibility (1/GPa) = 0.02197810
#
# Stress axis : x y z
#
# Youngs Moduli (GPa) = 84.65532 84.65682 91.91237
#
# Poissons Ratio (x) = 0.33481 0.10609
# Poissons Ratio (y) = 0.33481 0.10608
# Poissons Ratio (z) = 0.09772 0.09771
#
# Static dielectric constant tensor:
#      x y z
#    x 1.793030 0.000000 0.000000 
#    y 0.000000 1.793020 0.000000 
#    z 0.000000 0.000000 1.866900 
# 
# From -- ./inp_files/2815.got.cif
#   From: 2010.05.17/outbox.cif.g08.bks.cpg/sg90_2_cif.got.tgz:2815.got - 2010.06.03 19:17:45.
