data_PCOD9547503
_publ_section_title
;
Structure prediction by ZEFSAII (Michael W. Deem and Ramdas Pophale) SiO2 
 PCOD9547503
Probable space group: P 41 2 2
;
_chemical_formula_sum "Si O2"
_cell_formula_units_Z 56
_cell_length_a 17.260817
_cell_length_b 17.260817
_cell_length_c 12.746779
_cell_angle_alpha 90.000000
_cell_angle_beta 90.000000
_cell_angle_gamma 90.000000
_cell_volume 3797.721843
_symmetry_space_group_name_H-M "P 41 2 2"
_symmetry_group_IT_number 91
_symmetry_cell_setting 'tetragonal'
loop_
_space_group_symop_operation_xyz
x,y,z
-y,x,1/4+z
-x,-y,1/2+z
y,-x,3/4+z
x,-y,1/2-z
-x,y,-z
y,x,3/4-z
-y,-x,1/4-z
loop_
_atom_site_type_symbol
_atom_site_label
_atom_site_fract_x
_atom_site_fract_y
_atom_site_fract_z
Si Si1 0.550652 0.350527 0.396080
Si Si2 0.243102 0.627387 0.628872
Si Si3 0.560903 0.089252 0.730240
Si Si4 0.590470 0.883918 0.533907
Si Si5 0.820424 0.591502 0.588015
Si Si6 0.630919 0.504233 0.412948
Si Si7 0.404956 0.057776 0.492817
O O1 0.500000 0.365456 0.500000
O O2 0.580528 0.262387 0.394757
O O3 0.616676 0.415791 0.382394
O O4 0.503592 0.361709 0.288635
O O5 0.307652 0.692349 0.625000
O O6 0.186415 0.631560 0.726618
O O7 0.195185 0.633962 0.521063
O O8 0.291911 0.546655 0.628007
O O9 0.595894 0.116128 0.840325
O O10 0.491044 0.145577 0.699993
O O11 0.613231 0.084009 0.626100
O O12 0.532822 0.000000 0.750000
O O13 0.500000 0.878782 0.500000
O O14 0.617852 0.968459 0.494373
O O15 0.883490 0.623951 0.669003
O O16 0.557642 0.557642 0.375000
O O17 0.500000 0.059405 0.500000
#
# Coordination Sequence:
#
# PCOD9547503 Si02
#       7
#     8   8   8   8   8   8   8
#     4  11  20  32  47  59  74 106 148 196 244 278
#     4  10  22  33  43  64  87 123 159 197 230 264
#     4   9  16  29  47  71  88 102 133 184 243 287
#     4  10  17  28  49  67  85 112 143 183 233 286
#     4  10  19  31  44  63  90 104 136 190 234 282
#     4  10  21  35  46  56  76 111 158 206 236 264
#     4   8  16  28  48  70  88 103 130 185 241 286
#
# _framework density 14.745683
#
# number of rings (size 3 to 8) (size 9 to 14) (size 15 to 20)
#    0.000    2.286    1.429    3.857    0.000    3.429 
#    0.000    0.000    0.000    0.000    0.000    0.000 
#    0.000    0.000    0.000    0.000    0.000    0.000 
#
# Total GULP energy -312045.151194 kJ/mol
# GULP energy per Si atom -5572.234843 kJ/mol
# Density = 1.471212 g / cm^3
# Si number density = 14.745683 Si / 1000 Ang^3
#
#
#
# Elastic Constant Matrix: (Units=GPa)
#
#
# Indices 1 2 3 4 5 6 
#
# 1 66.6150 21.8447 37.4916 0.0000 0.0000 0.0000
# 2 21.8447 66.6166 37.4919 0.0000 0.0000 0.0000
# 3 37.4916 37.4919 92.1401 0.0000 0.0000 0.0000
# 4 0.0000 0.0000 0.0000 19.9408 0.0000 0.0000
# 5 0.0000 0.0000 0.0000 0.0000 19.9395 0.0000
# 6 0.0000 0.0000 0.0000 0.0000 0.0000 1.4676
#
#
#
# Elastic Compliance Matrix: (Units=1/GPa)
#
#
# Indices 1 2 3 4 5 6 
#
# 1 0.019796 -0.002540 -0.007022 0.000000 0.000000 0.000000
# 2 -0.002540 0.019796 -0.007022 0.000000 0.000000 0.000000
# 3 -0.007022 -0.007022 0.016567 0.000000 0.000000 0.000000
# 4 0.000000 0.000000 0.000000 0.050148 0.000000 0.000000
# 5 0.000000 0.000000 0.000000 0.000000 0.050152 0.000000
# 6 0.000000 0.000000 0.000000 0.000000 0.000000 0.681383
#
#
# Mechanical properties :
#
#
# Convention : Reuss Voigt Hill
#
# Bulk Modulus (GPa) = 43.49055 46.55866 45.02461
# Shear Modulus (GPa) = 5.69040 16.83915 11.26477
#
# Velocity S-wave (km/s) = 1.96657 3.38297 2.76694
# Velocity P-wave (km/s) = 5.89189 6.84853 6.38814
#
# Compressibility (1/GPa) = 0.02299350
#
# Stress axis : x y z
#
# Youngs Moduli (GPa) = 50.51434 50.51571 60.36028
#
# Poissons Ratio (x) = 0.12830 0.42383
# Poissons Ratio (y) = 0.12830 0.42382
# Poissons Ratio (z) = 0.35469 0.35470
#
# Static dielectric constant tensor:
#      x y z
#    x 1.487450 0.000000 0.000000 
#    y 0.000000 1.487450 0.000000 
#    z 0.000000 0.000000 1.547690 
# 
# From -- ./inp_files/16038.got.cif
#   From: 2010.05.17/outbox.cif.g08.bks.cpg/sg91_9_cif.got.tgz:16038.got - 2010.06.03 19:20:03.
