data_PCOD9547590
_publ_section_title
;
Structure prediction by ZEFSAII (Michael W. Deem and Ramdas Pophale) SiO2 
 PCOD9547590
Probable space group: P 41 2 2
;
_chemical_formula_sum "Si O2"
_cell_formula_units_Z 64
_cell_length_a 14.397233
_cell_length_b 14.397233
_cell_length_c 17.773395
_cell_angle_alpha 90.000000
_cell_angle_beta 90.000000
_cell_angle_gamma 90.000000
_cell_volume 3684.074969
_symmetry_space_group_name_H-M "P 41 2 2"
_symmetry_group_IT_number 91
_symmetry_cell_setting 'tetragonal'
loop_
_space_group_symop_operation_xyz
x,y,z
-y,x,1/4+z
-x,-y,1/2+z
y,-x,3/4+z
x,-y,1/2-z
-x,y,-z
y,x,3/4-z
-y,-x,1/4-z
loop_
_atom_site_type_symbol
_atom_site_label
_atom_site_fract_x
_atom_site_fract_y
_atom_site_fract_z
Si Si1 0.407032 0.755565 0.355193
Si Si2 0.149163 0.300719 0.355563
Si Si3 0.626766 0.224682 0.156719
Si Si4 0.288372 0.611695 0.428327
Si Si5 0.702679 0.406945 0.561434
Si Si6 0.144306 0.598171 0.294904
Si Si7 0.599703 0.983398 0.339412
Si Si8 0.030225 0.623851 0.915075
O O1 0.518728 0.754582 0.363678
O O2 0.358723 0.695260 0.418581
O O3 0.381643 0.706909 0.275782
O O4 0.367913 0.860306 0.351124
O O5 0.206358 0.206358 0.375000
O O6 0.193271 0.382848 0.408397
O O7 0.167166 0.327974 0.269707
O O8 0.038914 0.312049 0.366649
O O9 0.700735 0.299266 0.125000
O O10 0.628920 0.228135 0.247562
O O11 0.639598 0.116783 0.136657
O O12 0.333430 0.511549 0.439482
O O13 0.227252 0.594648 0.354402
O O14 0.645290 0.354711 0.625000
O O15 0.130454 0.500000 0.250000
O O16 0.058529 0.627416 0.347966
O O17 0.486875 0.985466 0.344853
O O18 0.620912 0.000000 0.250000
O O19 0.000000 0.646101 0.000000
#
# Coordination Sequence:
#
# PCOD9547590 Si02
#       8
#     8   8   8   8   8   8   8   8
#     4  10  22  34  55  80 113 161 195 239 297 346
#     4  11  21  33  53  85 119 144 180 239 298 360
#     4  10  23  41  58  78 117 160 202 250 294 346
#     4  11  21  36  53  81 116 152 199 244 285 350
#     4  10  19  32  49  75 114 156 191 236 290 342
#     4  12  21  33  58  89 112 147 198 245 296 360
#     4  10  19  38  60  80 115 155 195 250 304 345
#     4  10  18  33  53  78 114 154 184 233 306 355
#
# _framework density 17.372069
#
# number of rings (size 3 to 8) (size 9 to 14) (size 15 to 20)
#    0.000    1.500    5.000    1.500    0.000    2.000 
#    0.000    2.500    0.000    0.000    0.000    0.875 
#    0.000    0.000    0.000    0.000    0.000    0.000 
#
# Total GULP energy -356296.036780 kJ/mol
# GULP energy per Si atom -5567.125575 kJ/mol
# Density = 1.733253 g / cm^3
# Si number density = 17.372069 Si / 1000 Ang^3
#
#
#
# Elastic Constant Matrix: (Units=GPa)
#
#
# Indices 1 2 3 4 5 6 
#
# 1 70.3797 51.7988 9.1885 0.0000 0.0000 0.0000
# 2 51.7988 70.3783 9.1912 0.0000 0.0000 0.0000
# 3 9.1885 9.1912 38.6497 0.0000 0.0000 0.0000
# 4 0.0000 0.0000 0.0000 29.5462 0.0000 0.0000
# 5 0.0000 0.0000 0.0000 0.0000 29.5460 0.0000
# 6 0.0000 0.0000 0.0000 0.0000 0.0000 21.9423
#
#
#
# Elastic Compliance Matrix: (Units=1/GPa)
#
#
# Indices 1 2 3 4 5 6 
#
# 1 0.031154 -0.022666 -0.002016 0.000000 0.000000 0.000000
# 2 -0.022666 0.031155 -0.002020 0.000000 0.000000 0.000000
# 3 -0.002016 -0.002020 0.026833 0.000000 0.000000 0.000000
# 4 0.000000 0.000000 0.000000 0.033845 0.000000 0.000000
# 5 0.000000 0.000000 0.000000 0.000000 0.033846 0.000000
# 6 0.000000 0.000000 0.000000 0.000000 0.000000 0.045574
#
#
# Mechanical properties :
#
#
# Convention : Reuss Voigt Hill
#
# Bulk Modulus (GPa) = 27.98236 35.52940 31.75588
# Shear Modulus (GPa) = 18.67587 23.48883 21.08235
#
# Velocity S-wave (km/s) = 3.28235 3.68109 3.48742
# Velocity P-wave (km/s) = 5.52338 6.20996 5.87671
#
# Compressibility (1/GPa) = 0.03573680
#
# Stress axis : x y z
#
# Youngs Moduli (GPa) = 32.09866 32.09740 37.26723
#
# Poissons Ratio (x) = 0.72752 0.07514
# Poissons Ratio (y) = 0.72755 0.07529
# Poissons Ratio (z) = 0.06472 0.06485
#
# Static dielectric constant tensor:
#      x y z
#    x 1.616430 0.000000 0.000000 
#    y 0.000000 1.616440 0.000000 
#    z 0.000000 0.000000 1.614280 
# 
# From -- ./inp_files/21221.got.cif
#   From: 2010.05.17/outbox.cif.g08.bks.cpg/sg91_11_cif.got.tgz:21221.got - 2010.06.03 19:20:03.
