data_PCOD9547066
_publ_section_title
;
Structure prediction by ZEFSAII (Michael W. Deem and Ramdas Pophale) SiO2 
 PCOD9547066
Probable space group: P 4 21 2
;
_chemical_formula_sum "Si O2"
_cell_formula_units_Z 52
_cell_length_a 17.050881
_cell_length_b 17.050881
_cell_length_c 8.488140
_cell_angle_alpha 90.000000
_cell_angle_beta 90.000000
_cell_angle_gamma 90.000000
_cell_volume 2467.778526
_symmetry_space_group_name_H-M "P 4 21 2"
_symmetry_group_IT_number 90
_symmetry_cell_setting 'tetragonal'
loop_
_space_group_symop_operation_xyz
x,y,z
1/2-y,1/2+x,z
-x,-y,z
1/2+y,1/2-x,z
1/2+x,1/2-y,-z
1/2-x,1/2+y,-z
y,x,-z
-y,-x,-z
loop_
_atom_site_type_symbol
_atom_site_label
_atom_site_fract_x
_atom_site_fract_y
_atom_site_fract_z
Si Si1 0.289645 0.273703 0.323724
Si Si2 0.214001 0.502569 0.362378
Si Si3 0.482901 0.868753 0.308922
Si Si4 0.780913 0.581577 0.895656
Si Si5 0.381967 0.439453 0.340865
Si Si6 0.400405 0.400405 0.000000
Si Si7 0.351264 0.148889 0.805498
O O1 0.259021 0.259021 0.500000
O O2 0.354105 0.219079 0.244677
O O3 0.337628 0.355291 0.332749
O O4 0.215364 0.284872 0.211715
O O5 0.180283 0.525293 0.531519
O O6 0.308304 0.497722 0.360702
O O7 0.182204 0.565227 0.238015
O O8 0.176376 0.418447 0.318114
O O9 0.417959 0.935686 0.303173
O O10 0.497263 0.805435 0.171286
O O11 0.693233 0.584812 0.970799
O O12 0.841765 0.608631 0.027021
O O13 0.434058 0.434058 0.500000
O O14 0.420170 0.443265 0.166177
#
# Coordination Sequence:
#
# PCOD9547066 Si02
#       7
#     8   8   8   8   8   4   8
#     4   9  17  33  54  72  92 129 174 221 277 308
#     4  11  20  35  49  69 105 142 182 208 257 317
#     4  11  24  36  47  68 104 152 187 214 249 318
#     4  11  19  34  51  73  98 132 184 229 273 307
#     4   9  17  30  51  75  92 131 173 221 267 305
#     4  10  16  32  54  70  92 122 177 227 276 306
#     4  11  21  32  51  75 101 143 172 217 262 316
#
# _framework density 21.071583
#
# number of rings (size 3 to 8) (size 9 to 14) (size 15 to 20)
#    0.000    1.692    6.154    3.692    2.154    0.308 
#    0.000    0.000    0.000    0.000    0.000    0.000 
#    0.000    0.615    0.615    0.462    0.000    0.000 
#
# Total GULP energy -289980.224528 kJ/mol
# GULP energy per Si atom -5576.542779 kJ/mol
# Density = 2.102362 g / cm^3
# Si number density = 21.071583 Si / 1000 Ang^3
#
#
#
# Elastic Constant Matrix: (Units=GPa)
#
#
# Indices 1 2 3 4 5 6 
#
# 1 27.8585 33.3244 2.9278 0.0000 0.0000 0.0000
# 2 33.3244 27.8585 2.9278 0.0000 0.0000 0.0000
# 3 2.9278 2.9278 114.4436 0.0000 0.0000 0.0000
# 4 0.0000 0.0000 0.0000 16.3847 0.0000 0.0000
# 5 0.0000 0.0000 0.0000 0.0000 16.3847 0.0000
# 6 0.0000 0.0000 0.0000 0.0000 0.0000 32.3281
#
#
#
# Elastic Compliance Matrix: (Units=1/GPa)
#
#
# Indices 1 2 3 4 5 6 
#
# 1 -0.083283 0.099667 -0.000419 0.000000 0.000000 0.000000
# 2 0.099667 -0.083283 -0.000419 0.000000 0.000000 0.000000
# 3 -0.000419 -0.000419 0.008759 0.000000 0.000000 0.000000
# 4 0.000000 0.000000 0.000000 0.061033 0.000000 0.000000
# 5 0.000000 0.000000 0.000000 0.000000 0.061033 0.000000
# 6 0.000000 0.000000 0.000000 0.000000 0.000000 0.030933
#
#
# Mechanical properties :
#
#
# Convention : Reuss Voigt Hill
#
# Bulk Modulus (GPa) = 25.09296 27.61341 26.35319
# Shear Modulus (GPa) = -26.42964 21.75153 -2.33905
#
# Velocity S-wave (km/s) = -3.54542 3.21638 -1.05473
# Velocity P-wave (km/s) = 2.19675 5.18907 3.32421
#
# Compressibility (1/GPa) = 0.03985181
#
# Stress axis : x y z
#
# Youngs Moduli (GPa) = -12.00731 -12.00731 114.16339
#
# Poissons Ratio (x) = 1.19673 0.04785
# Poissons Ratio (y) = 1.19673 0.04785
# Poissons Ratio (z) = -0.00503 -0.00503
#
# Static dielectric constant tensor:
#      x y z
#    x 1.756800 0.000000 0.000000 
#    y 0.000000 1.756800 0.000000 
#    z 0.000000 0.000000 1.844760 
# 
# From -- ./inp_files/1587.got.cif
#   From: 2010.05.17/outbox.cif.g08.bks.cpg/sg90_1_cif.got.tgz:1587.got - 2010.06.03 19:17:45.
