data_PCOD9547800
_publ_section_title
;
Structure prediction by ZEFSAII (Michael W. Deem and Ramdas Pophale) SiO2 
 PCOD9547800
Probable space group: P 41 2 2
;
_chemical_formula_sum "Si O2"
_cell_formula_units_Z 44
_cell_length_a 7.902401
_cell_length_b 7.902401
_cell_length_c 33.519370
_cell_angle_alpha 90.000000
_cell_angle_beta 90.000000
_cell_angle_gamma 90.000000
_cell_volume 2093.215659
_symmetry_space_group_name_H-M "P 41 2 2"
_symmetry_group_IT_number 91
_symmetry_cell_setting 'tetragonal'
loop_
_space_group_symop_operation_xyz
x,y,z
-y,x,1/4+z
-x,-y,1/2+z
y,-x,3/4+z
x,-y,1/2-z
-x,y,-z
y,x,3/4-z
-y,-x,1/4-z
loop_
_atom_site_type_symbol
_atom_site_label
_atom_site_fract_x
_atom_site_fract_y
_atom_site_fract_z
Si Si1 0.500000 0.550388 0.000000
Si Si2 0.039761 0.256323 0.958485
Si Si3 0.279192 0.720809 0.125000
Si Si4 0.849102 0.377993 0.471773
Si Si5 0.287771 0.106008 0.129915
Si Si6 0.890823 0.890823 0.375000
Si Si7 0.609167 0.675781 0.177610
O O1 0.337852 0.663116 0.987363
O O2 0.551677 0.429920 0.963549
O O3 0.142641 0.418586 0.973320
O O4 0.137950 0.185596 0.919486
O O5 0.857514 0.323450 0.942814
O O6 0.000000 0.154233 0.000000
O O7 0.426207 0.696769 0.157131
O O8 0.083288 0.697766 0.137968
O O9 0.887074 0.338601 0.425962
O O10 0.000000 0.312446 0.500000
O O11 0.381391 0.249239 0.104250
O O12 0.089124 0.144362 0.130341
#
# Coordination Sequence:
#
# PCOD9547800 Si02
#       7
#     4   8   4   8   8   4   8
#     4  12  22  38  64  90 124 172 208 256 328 382
#     4  10  19  40  59  83 128 166 203 272 321 380
#     4  11  20  42  65  84 126 163 198 268 309 368
#     4  11  21  39  62  86 126 167 209 264 325 385
#     4  10  22  39  62  94 121 163 213 261 324 381
#     4   9  22  36  63  92 120 165 218 264 331 392
#     4  11  22  39  61  92 123 159 216 256 313 390
#
# _framework density 21.020287
#
# number of rings (size 3 to 8) (size 9 to 14) (size 15 to 20)
#    0.000    1.455    5.455    1.091    0.000    2.182 
#    0.000    2.727    0.000    0.000    0.000    0.000 
#    0.000    0.000    0.000    0.000    0.000    0.000 
#
# Total GULP energy -245116.182028 kJ/mol
# GULP energy per Si atom -5570.822319 kJ/mol
# Density = 2.097244 g / cm^3
# Si number density = 21.020287 Si / 1000 Ang^3
#
#
#
# Elastic Constant Matrix: (Units=GPa)
#
#
# Indices 1 2 3 4 5 6 
#
# 1 61.4387 29.8317 39.8069 0.0000 0.0000 0.0000
# 2 29.8317 61.4395 39.8067 0.0000 0.0000 0.0000
# 3 39.8069 39.8067 150.2616 0.0000 0.0000 0.0000
# 4 0.0000 0.0000 0.0000 25.0581 0.0000 0.0000
# 5 0.0000 0.0000 0.0000 0.0000 25.0584 0.0000
# 6 0.0000 0.0000 0.0000 0.0000 0.0000 3.3748
#
#
#
# Elastic Compliance Matrix: (Units=1/GPa)
#
#
# Indices 1 2 3 4 5 6 
#
# 1 0.022944 -0.008695 -0.003775 0.000000 0.000000 0.000000
# 2 -0.008695 0.022943 -0.003775 0.000000 0.000000 0.000000
# 3 -0.003775 -0.003775 0.008655 0.000000 0.000000 0.000000
# 4 0.000000 0.000000 0.000000 0.039907 0.000000 0.000000
# 5 0.000000 0.000000 0.000000 0.000000 0.039907 0.000000
# 6 0.000000 0.000000 0.000000 0.000000 0.000000 0.296316
#
#
# Mechanical properties :
#
#
# Convention : Reuss Voigt Hill
#
# Bulk Modulus (GPa) = 45.34325 54.67005 50.00665
# Shear Modulus (GPa) = 10.62672 21.61123 16.11897
#
# Velocity S-wave (km/s) = 2.25087 3.20990 2.77217
# Velocity P-wave (km/s) = 5.32666 6.30893 5.83849
#
# Compressibility (1/GPa) = 0.02205400
#
# Stress axis : x y z
#
# Youngs Moduli (GPa) = 43.58471 43.58550 115.53896
#
# Poissons Ratio (x) = 0.37895 0.43615
# Poissons Ratio (y) = 0.37895 0.43613
# Poissons Ratio (z) = 0.16453 0.16452
#
# Static dielectric constant tensor:
#      x y z
#    x 1.790230 0.000000 0.000000 
#    y 0.000000 1.790230 0.000000 
#    z 0.000000 0.000000 1.885630 
# 
# From -- ./inp_files/18114.got.cif
#   From: 2010.05.17/outbox.cif.g08.bks.cpg/sg91_10_cif.got.tgz:18114.got - 2010.06.03 19:20:03.
