data_PCOD9547524
_publ_section_title
;
Structure prediction by ZEFSAII (Michael W. Deem and Ramdas Pophale) SiO2 
 PCOD9547524
Probable space group: P 41 2 2
;
_chemical_formula_sum "Si O2"
_cell_formula_units_Z 60
_cell_length_a 17.149929
_cell_length_b 17.149929
_cell_length_c 10.061188
_cell_angle_alpha 90.000000
_cell_angle_beta 90.000000
_cell_angle_gamma 90.000000
_cell_volume 2959.197266
_symmetry_space_group_name_H-M "P 41 2 2"
_symmetry_group_IT_number 91
_symmetry_cell_setting 'tetragonal'
loop_
_space_group_symop_operation_xyz
x,y,z
-y,x,1/4+z
-x,-y,1/2+z
y,-x,3/4+z
x,-y,1/2-z
-x,y,-z
y,x,3/4-z
-y,-x,1/4-z
loop_
_atom_site_type_symbol
_atom_site_label
_atom_site_fract_x
_atom_site_fract_y
_atom_site_fract_z
Si Si1 0.730031 0.569539 0.832262
Si Si2 0.927724 0.807620 0.851290
Si Si3 0.668951 0.142927 0.474605
Si Si4 0.247848 0.737569 0.473940
Si Si5 0.336348 0.388200 0.585204
Si Si6 0.991260 0.421585 0.337188
Si Si7 0.256951 0.910022 0.394487
Si Si8 0.428182 0.500000 0.750000
O O1 0.768150 0.500000 0.750000
O O2 0.789252 0.641117 0.824116
O O3 0.655130 0.595857 0.747619
O O4 0.704574 0.553351 0.981690
O O5 0.892794 0.892794 0.875000
O O6 0.878491 0.758723 0.746920
O O7 0.017074 0.796889 0.811144
O O8 0.912510 0.758476 0.986391
O O9 0.675244 0.182990 0.328604
O O10 0.615268 0.069277 0.515709
O O11 0.272898 0.727103 0.625000
O O12 0.321798 0.722374 0.379758
O O13 0.230560 0.829162 0.457053
O O14 0.373458 0.429064 0.710116
O O15 0.972377 0.500000 0.250000
O O16 0.931016 0.348050 0.328859
O O17 0.000000 0.436441 0.500000
O O18 0.480120 0.519881 0.625000
#
# Coordination Sequence:
#
# PCOD9547524 Si02
#       8
#     8   8   8   8   8   8   8   4
#     4  10  20  35  60  87 114 146 205 268 320 379
#     4  10  17  34  68  93 122 156 217 264 316 383
#     4  10  20  37  63  90 117 171 213 265 318 380
#     4  11  23  40  63  91 131 169 221 270 323 396
#     4  10  23  38  58  84 117 158 209 262 326 397
#     4  11  23  40  62  96 137 173 222 272 334 409
#     4  10  20  37  62  97 123 167 213 266 325 396
#     4  12  26  40  60  80 116 164 212 276 342 402
#
# _framework density 20.275769
#
# number of rings (size 3 to 8) (size 9 to 14) (size 15 to 20)
#    0.000    1.600    4.000    2.400    4.667    2.133 
#    1.200    2.000    0.000    3.200    0.000    0.000 
#    0.000    0.000    0.000    0.000    0.000    0.000 
#
# Total GULP energy -334099.557167 kJ/mol
# GULP energy per Si atom -5568.325953 kJ/mol
# Density = 2.022962 g / cm^3
# Si number density = 20.275769 Si / 1000 Ang^3
#
#
#
# Elastic Constant Matrix: (Units=GPa)
#
#
# Indices 1 2 3 4 5 6 
#
# 1 64.7996 40.5888 19.6894 0.0000 0.0000 0.0000
# 2 40.5888 64.8035 19.6919 0.0000 0.0000 0.0000
# 3 19.6894 19.6919 96.0755 0.0000 0.0000 0.0000
# 4 0.0000 0.0000 0.0000 25.5111 0.0000 0.0000
# 5 0.0000 0.0000 0.0000 0.0000 25.5112 0.0000
# 6 0.0000 0.0000 0.0000 0.0000 0.0000 21.4593
#
#
#
# Elastic Compliance Matrix: (Units=1/GPa)
#
#
# Indices 1 2 3 4 5 6 
#
# 1 0.025789 -0.015513 -0.002106 0.000000 0.000000 0.000000
# 2 -0.015513 0.025787 -0.002106 0.000000 0.000000 0.000000
# 3 -0.002106 -0.002106 0.011272 0.000000 0.000000 0.000000
# 4 0.000000 0.000000 0.000000 0.039199 0.000000 0.000000
# 5 0.000000 0.000000 0.000000 0.000000 0.039199 0.000000
# 6 0.000000 0.000000 0.000000 0.000000 0.000000 0.046600
#
#
# Mechanical properties :
#
#
# Convention : Reuss Voigt Hill
#
# Bulk Modulus (GPa) = 42.73717 42.84652 42.79185
# Shear Modulus (GPa) = 21.26816 24.21021 22.73919
#
# Velocity S-wave (km/s) = 3.24225 3.45925 3.35251
# Velocity P-wave (km/s) = 5.92790 6.09368 6.01136
#
# Compressibility (1/GPa) = 0.02339883
#
# Stress axis : x y z
#
# Youngs Moduli (GPa) = 38.77679 38.77865 88.71773
#
# Poissons Ratio (x) = 0.60156 0.18680
# Poissons Ratio (y) = 0.60153 0.18687
# Poissons Ratio (z) = 0.08165 0.08168
#
# Static dielectric constant tensor:
#      x y z
#    x 1.774770 0.000000 0.000000 
#    y 0.000000 1.774770 0.000000 
#    z 0.000000 0.000000 1.757290 
# 
# From -- ./inp_files/19708.got.cif
#   From: 2010.05.17/outbox.cif.g08.bks.cpg/sg91_10_cif.got.tgz:19708.got - 2010.06.03 19:20:03.
