data_PCOD9547400
_publ_section_title
;
Structure prediction by ZEFSAII (Michael W. Deem and Ramdas Pophale) SiO2 
 PCOD9547400
Probable space group: P 4 21 2
;
_chemical_formula_sum "Si O2"
_cell_formula_units_Z 50
_cell_length_a 9.216279
_cell_length_b 9.216279
_cell_length_c 25.551970
_cell_angle_alpha 90.000000
_cell_angle_beta 90.000000
_cell_angle_gamma 90.000000
_cell_volume 2170.379186
_symmetry_space_group_name_H-M "P 4 21 2"
_symmetry_group_IT_number 90
_symmetry_cell_setting 'tetragonal'
loop_
_space_group_symop_operation_xyz
x,y,z
1/2-y,1/2+x,z
-x,-y,z
1/2+y,1/2-x,z
1/2+x,1/2-y,-z
1/2-x,1/2+y,-z
y,x,-z
-y,-x,-z
loop_
_atom_site_type_symbol
_atom_site_label
_atom_site_fract_x
_atom_site_fract_y
_atom_site_fract_z
Si Si1 0.611135 0.790908 0.276849
Si Si2 0.125989 0.710974 0.356874
Si Si3 0.962590 0.159019 0.831589
Si Si4 0.934872 0.718513 0.013701
Si Si5 0.793137 0.636210 0.548541
Si Si6 0.000000 0.500000 0.183027
Si Si7 0.821280 0.726245 0.128457
O O1 0.442260 0.811016 0.292340
O O2 0.705024 0.666257 0.303724
O O3 0.594317 0.759585 0.215302
O O4 0.191284 0.547740 0.360628
O O5 0.204066 0.807236 0.401275
O O6 0.834787 0.151330 0.873269
O O7 0.106342 0.207678 0.860730
O O8 0.000000 0.000000 0.809385
O O9 0.825998 0.592010 0.993648
O O10 0.911710 0.702698 0.075997
O O11 0.874369 0.874369 0.000000
O O12 0.805767 0.460343 0.547670
O O13 0.704751 0.704751 0.500000
O O14 0.090325 0.347150 0.175819
#
# Coordination Sequence:
#
# PCOD9547400 Si02
#       7
#     8   8   8   8   8   2   8
#     4  11  25  44  65  95 136 179 226 285 347 416
#     4  11  26  46  68 102 142 189 244 299 356 423
#     4  12  25  41  71 105 129 175 233 282 349 409
#     4  11  24  45  67  98 136 175 219 275 338 410
#     4  11  24  43  71 108 147 191 242 300 359 425
#     4  12  20  48  68  92 132 176 216 276 336 420
#     4  12  24  45  70  96 137 177 224 282 343 412
#
# _framework density 23.037448999999999
#
# number of rings (size 3 to 8) (size 9 to 14) (size 15 to 20)
#    0.000    0.640    4.800    1.920    4.480    6.720 
#    0.000    0.000    0.000    0.000    0.000    0.000 
#    0.000    0.000    0.000    0.000    0.000    0.000 
#
# Total GULP energy -278885.767879 kJ/mol
# GULP energy per Si atom -5577.715358 kJ/mol
# Density = 2.298501 g / cm^3
# Si number density = 23.037449 Si / 1000 Ang^3
#
#
#
# Elastic Constant Matrix: (Units=GPa)
#
#
# Indices 1 2 3 4 5 6 
#
# 1 101.3035 28.2985 8.0898 0.0000 0.0000 0.0000
# 2 28.2985 101.3035 8.0898 0.0000 0.0000 0.0000
# 3 8.0898 8.0898 40.5012 0.0000 0.0000 0.0000
# 4 0.0000 0.0000 0.0000 32.3364 0.0000 0.0000
# 5 0.0000 0.0000 0.0000 0.0000 32.3364 0.0000
# 6 0.0000 0.0000 0.0000 0.0000 0.0000 39.6789
#
#
#
# Elastic Compliance Matrix: (Units=1/GPa)
#
#
# Indices 1 2 3 4 5 6 
#
# 1 0.010805 -0.002892 -0.001581 0.000000 0.000000 0.000000
# 2 -0.002892 0.010805 -0.001581 0.000000 0.000000 0.000000
# 3 -0.001581 -0.001581 0.025322 0.000000 0.000000 0.000000
# 4 0.000000 0.000000 0.000000 0.030925 0.000000 0.000000
# 5 0.000000 0.000000 0.000000 0.000000 0.030925 0.000000
# 6 0.000000 0.000000 0.000000 0.000000 0.000000 0.025202
#
#
# Mechanical properties :
#
#
# Convention : Reuss Voigt Hill
#
# Bulk Modulus (GPa) = 28.71407 36.89602 32.80505
# Shear Modulus (GPa) = 31.70562 34.11233 32.90897
#
# Velocity S-wave (km/s) = 3.71383 3.85220 3.78365
# Velocity P-wave (km/s) = 5.55708 5.98635 5.77571
#
# Compressibility (1/GPa) = 0.03482613
#
# Stress axis : x y z
#
# Youngs Moduli (GPa) = 92.54567 92.54567 39.49130
#
# Poissons Ratio (x) = 0.26766 0.06242
# Poissons Ratio (y) = 0.26766 0.06242
# Poissons Ratio (z) = 0.14628 0.14628
#
# Static dielectric constant tensor:
#      x y z
#    x 1.891110 0.000000 0.000000 
#    y 0.000000 1.891110 0.000000 
#    z 0.000000 0.000000 1.940290 
# 
# From -- ./inp_files/3103.got.cif
#   From: 2010.05.17/outbox.cif.g08.bks.cpg/sg90_2_cif.got.tgz:3103.got - 2010.06.03 19:17:45.
