data_PCOD9547801
_publ_section_title
;
Structure prediction by ZEFSAII (Michael W. Deem and Ramdas Pophale) SiO2 
 PCOD9547801
Probable space group: P 41 2 2
;
_chemical_formula_sum "Si O2"
_cell_formula_units_Z 48
_cell_length_a 15.077659
_cell_length_b 15.077659
_cell_length_c 11.221297
_cell_angle_alpha 90.000000
_cell_angle_beta 90.000000
_cell_angle_gamma 90.000000
_cell_volume 2551.002541
_symmetry_space_group_name_H-M "P 41 2 2"
_symmetry_group_IT_number 91
_symmetry_cell_setting 'tetragonal'
loop_
_space_group_symop_operation_xyz
x,y,z
-y,x,1/4+z
-x,-y,1/2+z
y,-x,3/4+z
x,-y,1/2-z
-x,y,-z
y,x,3/4-z
-y,-x,1/4-z
loop_
_atom_site_type_symbol
_atom_site_label
_atom_site_fract_x
_atom_site_fract_y
_atom_site_fract_z
Si Si1 0.386359 0.097889 0.253649
Si Si2 0.586370 0.705253 0.421545
Si Si3 0.414670 0.127082 0.765831
Si Si4 0.214539 0.899557 0.718476
Si Si5 0.402170 0.807422 0.991996
Si Si6 0.728383 0.241213 0.882134
O O1 0.488027 0.089971 0.204216
O O2 0.388064 0.139064 0.386296
O O3 0.326541 0.162855 0.176436
O O4 0.347778 0.000000 0.250000
O O5 0.500000 0.711623 0.500000
O O6 0.607678 0.607678 0.375000
O O7 0.578018 0.772610 0.312452
O O8 0.670970 0.731994 0.502180
O O9 0.320320 0.093531 0.817789
O O10 0.406399 0.127162 0.622771
O O11 0.149261 0.850740 0.625000
O O12 0.216285 0.827781 0.826145
O O13 0.187043 0.000000 0.750000
O O14 0.323535 0.740250 0.958542
O O15 0.500000 0.764827 0.000000
#
# Coordination Sequence:
#
# PCOD9547801 Si02
#       6
#     8   8   8   8   8   8
#     4  11  23  38  59  97 129 165 207 261 329 384
#     4  12  21  40  67  94 128 163 213 265 323 383
#     4  10  19  40  65  93 122 160 203 272 319 386
#     4  11  22  39  63  93 124 165 219 263 325 380
#     4   9  20  38  58  84 123 166 209 246 311 382
#     4  11  21  39  64  88 127 163 209 268 316 380
#
# _framework density 18.816133000000001
#
# number of rings (size 3 to 8) (size 9 to 14) (size 15 to 20)
#    0.000    1.333    6.667    1.000    0.000    2.667 
#    9.000    1.667    0.000    0.000    0.000    0.000 
#    0.000    0.000    0.000    0.000    0.000    0.000 
#
# Total GULP energy -267394.026142 kJ/mol
# GULP energy per Si atom -5570.708878 kJ/mol
# Density = 1.877331 g / cm^3
# Si number density = 18.816133 Si / 1000 Ang^3
#
#
#
# Elastic Constant Matrix: (Units=GPa)
#
#
# Indices 1 2 3 4 5 6 
#
# 1 115.8535 52.6056 30.7848 0.0000 0.0000 0.0000
# 2 52.6056 115.8543 30.7842 0.0000 0.0000 0.0000
# 3 30.7848 30.7842 68.8686 0.0000 0.0000 0.0000
# 4 0.0000 0.0000 0.0000 12.5575 0.0000 0.0000
# 5 0.0000 0.0000 0.0000 0.0000 12.5574 0.0000
# 6 0.0000 0.0000 0.0000 0.0000 0.0000 14.5490
#
#
#
# Elastic Compliance Matrix: (Units=1/GPa)
#
#
# Indices 1 2 3 4 5 6 
#
# 1 0.011453 -0.004358 -0.003172 0.000000 0.000000 0.000000
# 2 -0.004358 0.011453 -0.003172 0.000000 0.000000 0.000000
# 3 -0.003172 -0.003172 0.017356 0.000000 0.000000 0.000000
# 4 0.000000 0.000000 0.000000 0.079634 0.000000 0.000000
# 5 0.000000 0.000000 0.000000 0.000000 0.079634 0.000000
# 6 0.000000 0.000000 0.000000 0.000000 0.000000 0.068733
#
#
# Mechanical properties :
#
#
# Convention : Reuss Voigt Hill
#
# Bulk Modulus (GPa) = 53.02233 58.76950 55.89592
# Shear Modulus (GPa) = 16.89464 20.35956 18.62710
#
# Velocity S-wave (km/s) = 2.99972 3.29299 3.14977
# Velocity P-wave (km/s) = 6.34335 6.76459 6.55735
#
# Compressibility (1/GPa) = 0.01885998
#
# Stress axis : x y z
#
# Youngs Moduli (GPa) = 87.31277 87.31382 57.61746
#
# Poissons Ratio (x) = 0.38049 0.18275
# Poissons Ratio (y) = 0.38048 0.18274
# Poissons Ratio (z) = 0.27693 0.27692
#
# Static dielectric constant tensor:
#      x y z
#    x 1.665790 0.000000 0.000000 
#    y 0.000000 1.665790 0.000000 
#    z 0.000000 0.000000 1.632500 
# 
# From -- ./inp_files/10763.got.cif
#   From: 2010.05.17/outbox.cif.g08.bks.cpg/sg91_6_cif.got.tgz:10763.got - 2010.06.03 19:20:03.
