data_PCOD9547587
_publ_section_title
;
Structure prediction by ZEFSAII (Michael W. Deem and Ramdas Pophale) SiO2 
 PCOD9547587
Probable space group: P 41 2 2
;
_chemical_formula_sum "Si O2"
_cell_formula_units_Z 36
_cell_length_a 9.166198
_cell_length_b 9.166198
_cell_length_c 20.637092
_cell_angle_alpha 90.000000
_cell_angle_beta 90.000000
_cell_angle_gamma 90.000000
_cell_volume 1733.911667
_symmetry_space_group_name_H-M "P 41 2 2"
_symmetry_group_IT_number 91
_symmetry_cell_setting 'tetragonal'
loop_
_space_group_symop_operation_xyz
x,y,z
-y,x,1/4+z
-x,-y,1/2+z
y,-x,3/4+z
x,-y,1/2-z
-x,y,-z
y,x,3/4-z
-y,-x,1/4-z
loop_
_atom_site_type_symbol
_atom_site_label
_atom_site_fract_x
_atom_site_fract_y
_atom_site_fract_z
Si Si1 0.197740 0.127852 0.108538
Si Si2 0.957755 0.809452 0.737246
Si Si3 0.103081 0.349668 0.446457
Si Si4 0.137402 0.500000 0.250000
Si Si5 0.551737 0.325071 0.372093
O O1 0.070731 0.144212 0.163132
O O2 0.289883 0.278454 0.109328
O O3 0.299832 0.996158 0.135799
O O4 0.139700 0.080443 0.038029
O O5 0.801170 0.844738 0.770861
O O6 0.966853 0.636632 0.740049
O O7 0.236111 0.452396 0.428841
O O8 0.000000 0.423025 0.500000
O O9 0.244738 0.490834 0.188859
O O10 0.490036 0.490036 0.375000
#
# Coordination Sequence:
#
# PCOD9547587 Si02
#       5
#     8   8   8   4   8
#     4  10  21  34  63  94 123 166 218 269 319 383
#     4  10  19  36  61  94 120 163 218 266 317 380
#     4  10  19  37  62  85 119 163 217 263 303 377
#     4  10  18  32  64  88 118 152 210 258 306 372
#     4  11  20  36  61  89 122 160 211 260 319 386
#
# _framework density 20.762301999999998
#
# number of rings (size 3 to 8) (size 9 to 14) (size 15 to 20)
#    0.000    1.778    4.444    0.667    0.000    0.000 
#    0.000    6.667    0.000    2.667    0.000    0.000 
#    0.000    0.000    0.000    0.000    0.000    0.000 
#
# Total GULP energy -200688.062101 kJ/mol
# GULP energy per Si atom -5574.668392 kJ/mol
# Density = 2.071505 g / cm^3
# Si number density = 20.762302 Si / 1000 Ang^3
#
#
#
# Elastic Constant Matrix: (Units=GPa)
#
#
# Indices 1 2 3 4 5 6 
#
# 1 90.9616 20.3091 24.7652 0.0000 0.0000 0.0000
# 2 20.3091 90.9616 24.7652 0.0000 0.0000 0.0000
# 3 24.7652 24.7652 103.6745 0.0000 0.0000 0.0000
# 4 0.0000 0.0000 0.0000 13.3060 0.0000 0.0000
# 5 0.0000 0.0000 0.0000 0.0000 13.3060 0.0000
# 6 0.0000 0.0000 0.0000 0.0000 0.0000 11.9590
#
#
#
# Elastic Compliance Matrix: (Units=1/GPa)
#
#
# Indices 1 2 3 4 5 6 
#
# 1 0.012105 -0.002049 -0.002402 0.000000 0.000000 0.000000
# 2 -0.002049 0.012105 -0.002402 0.000000 0.000000 0.000000
# 3 -0.002402 -0.002402 0.010793 0.000000 0.000000 0.000000
# 4 0.000000 0.000000 0.000000 0.075154 0.000000 0.000000
# 5 0.000000 0.000000 0.000000 0.000000 0.075154 0.000000
# 6 0.000000 0.000000 0.000000 0.000000 0.000000 0.083619
#
#
# Mechanical properties :
#
#
# Convention : Reuss Voigt Hill
#
# Bulk Modulus (GPa) = 46.95459 47.25294 47.10377
# Shear Modulus (GPa) = 17.25714 22.09810 19.67762
#
# Velocity S-wave (km/s) = 2.88614 3.26596 3.08191
# Velocity P-wave (km/s) = 5.81127 6.08526 5.94984
#
# Compressibility (1/GPa) = 0.02129717
#
# Stress axis : x y z
#
# Youngs Moduli (GPa) = 82.60984 82.60984 92.65064
#
# Poissons Ratio (x) = 0.16924 0.22257
# Poissons Ratio (y) = 0.16924 0.22257
# Poissons Ratio (z) = 0.19845 0.19845
#
# Static dielectric constant tensor:
#      x y z
#    x 1.800520 0.000000 0.000000 
#    y 0.000000 1.800520 0.000000 
#    z 0.000000 0.000000 1.837650 
# 
# From -- ./inp_files/12286.got.cif
#   From: 2010.05.17/outbox.cif.g08.bks.cpg/sg91_7_cif.got.tgz:12286.got - 2010.06.03 19:20:03.
