data_PCOD9547879
_publ_section_title
;
Structure prediction by ZEFSAII (Michael W. Deem and Ramdas Pophale) SiO2 
 PCOD9547879
Probable space group: P 41 2 2
;
_chemical_formula_sum "Si O2"
_cell_formula_units_Z 40
_cell_length_a 11.365672
_cell_length_b 11.365672
_cell_length_c 18.108337
_cell_angle_alpha 90.000000
_cell_angle_beta 90.000000
_cell_angle_gamma 90.000000
_cell_volume 2339.207811
_symmetry_space_group_name_H-M "P 41 2 2"
_symmetry_group_IT_number 91
_symmetry_cell_setting 'tetragonal'
loop_
_space_group_symop_operation_xyz
x,y,z
-y,x,1/4+z
-x,-y,1/2+z
y,-x,3/4+z
x,-y,1/2-z
-x,y,-z
y,x,3/4-z
-y,-x,1/4-z
loop_
_atom_site_type_symbol
_atom_site_label
_atom_site_fract_x
_atom_site_fract_y
_atom_site_fract_z
Si Si1 0.296119 0.908126 0.550217
Si Si2 0.310944 0.400685 0.084367
Si Si3 0.282334 0.869229 0.723546
Si Si4 0.266628 0.500000 0.750000
Si Si5 0.639557 0.824294 0.016597
Si Si6 0.325665 0.674335 0.125000
O O1 0.303122 0.879269 0.636695
O O2 0.177029 0.851466 0.517821
O O3 0.397133 0.823625 0.519629
O O4 0.312761 0.045005 0.532983
O O5 0.439103 0.349663 0.061906
O O6 0.257985 0.348286 0.160723
O O7 0.314194 0.540781 0.095196
O O8 0.221321 0.364314 0.018560
O O9 0.300272 0.000000 0.750000
O O10 0.500000 0.835277 0.000000
O O11 0.692205 0.762603 0.943680
#
# Coordination Sequence:
#
# PCOD9547879 Si02
#       6
#     8   8   8   4   8   4
#     4  10  20  36  59  79 112 147 192 240 283 338
#     4  10  22  36  59  85 120 149 187 242 292 354
#     4  10  20  36  57  85 108 148 193 240 286 338
#     4  10  22  34  58  86 110 144 190 240 284 344
#     4  10  20  39  58  81 119 157 187 232 290 351
#     4  10  24  36  58  86 118 160 186 232 298 366
#
# _framework density 17.099806000000001
#
# number of rings (size 3 to 8) (size 9 to 14) (size 15 to 20)
#    0.000    2.000    3.000    0.000    7.000    1.600 
#    0.000    2.000    0.000    0.000    0.000    0.000 
#    0.000    0.000    0.000    0.000    0.000    0.000 
#
# Total GULP energy -222719.371947 kJ/mol
# GULP energy per Si atom -5567.984299 kJ/mol
# Density = 1.706089 g / cm^3
# Si number density = 17.099806 Si / 1000 Ang^3
#
#
#
# Elastic Constant Matrix: (Units=GPa)
#
#
# Indices 1 2 3 4 5 6 
#
# 1 63.9427 35.6871 34.5469 0.0000 0.0000 0.0000
# 2 35.6871 63.9420 34.5466 0.0000 0.0000 0.0000
# 3 34.5469 34.5466 74.4658 0.0000 0.0000 0.0000
# 4 0.0000 0.0000 0.0000 24.9757 0.0000 0.0000
# 5 0.0000 0.0000 0.0000 0.0000 24.9756 0.0000
# 6 0.0000 0.0000 0.0000 0.0000 0.0000 21.2263
#
#
#
# Elastic Compliance Matrix: (Units=1/GPa)
#
#
# Indices 1 2 3 4 5 6 
#
# 1 0.025095 -0.010297 -0.006865 0.000000 0.000000 0.000000
# 2 -0.010297 0.025095 -0.006865 0.000000 0.000000 0.000000
# 3 -0.006865 -0.006865 0.019799 0.000000 0.000000 0.000000
# 4 0.000000 0.000000 0.000000 0.040039 0.000000 0.000000
# 5 0.000000 0.000000 0.000000 0.000000 0.040039 0.000000
# 6 0.000000 0.000000 0.000000 0.000000 0.000000 0.047111
#
#
# Mechanical properties :
#
#
# Convention : Reuss Voigt Hill
#
# Bulk Modulus (GPa) = 45.59071 45.76797 45.67934
# Shear Modulus (GPa) = 19.79850 20.74019 20.26935
#
# Velocity S-wave (km/s) = 3.40637 3.48644 3.44663
# Velocity P-wave (km/s) = 6.49542 6.55975 6.52766
#
# Compressibility (1/GPa) = 0.02193429
#
# Stress axis : x y z
#
# Youngs Moduli (GPa) = 39.84878 39.84844 50.50745
#
# Poissons Ratio (x) = 0.41030 0.34675
# Poissons Ratio (y) = 0.41031 0.34675
# Poissons Ratio (z) = 0.27358 0.27357
#
# Static dielectric constant tensor:
#      x y z
#    x 1.757240 0.000000 0.000000 
#    y 0.000000 1.757240 0.000000 
#    z 0.000000 0.000000 1.570370 
# 
# From -- ./inp_files/4791.got.cif
#   From: 2010.05.17/outbox.cif.g08.bks.cpg/sg91_3_cif.got.tgz:4791.got - 2010.06.03 19:20:03.
