data_PCOD9547120
_publ_section_title
;
Structure prediction by ZEFSAII (Michael W. Deem and Ramdas Pophale) SiO2 
 PCOD9547120
Probable space group: P 4 21 2
;
_chemical_formula_sum "Si O2"
_cell_formula_units_Z 34
_cell_length_a 9.278601
_cell_length_b 9.278601
_cell_length_c 22.114883
_cell_angle_alpha 90.000000
_cell_angle_beta 90.000000
_cell_angle_gamma 90.000000
_cell_volume 1903.924161
_symmetry_space_group_name_H-M "P 4 21 2"
_symmetry_group_IT_number 90
_symmetry_cell_setting 'tetragonal'
loop_
_space_group_symop_operation_xyz
x,y,z
1/2-y,1/2+x,z
-x,-y,z
1/2+y,1/2-x,z
1/2+x,1/2-y,-z
1/2-x,1/2+y,-z
y,x,-z
-y,-x,-z
loop_
_atom_site_type_symbol
_atom_site_label
_atom_site_fract_x
_atom_site_fract_y
_atom_site_fract_z
Si Si1 0.763712 0.510512 0.713575
Si Si2 0.721636 0.278365 0.500000
Si Si3 0.545127 0.665657 0.423979
Si Si4 0.000000 0.000000 0.000000
Si Si5 0.000000 0.000000 0.195552
Si Si6 0.996102 0.745558 0.097699
O O1 0.867325 0.645017 0.724201
O O2 0.720544 0.515921 0.643075
O O3 0.634442 0.513301 0.759930
O O4 0.809168 0.209843 0.443762
O O5 0.559667 0.260906 0.474157
O O6 0.500000 0.500000 0.425785
O O7 0.998625 0.855192 0.040785
O O8 0.008426 0.143265 0.154053
O O9 0.858311 0.637360 0.097864
#
# Coordination Sequence:
#
# PCOD9547120 Si02
#       6
#     8   4   8   2   4   8
#     4  11  23  37  59  83 106 146 194 238 286 345
#     4  12  22  38  60  78 110 140 178 232 304 358
#     4  12  23  39  56  83 109 137 181 237 291 356
#     4  10  20  36  64  96 124 162 196 242 280 318
#     4  11  22  39  60  81 122 157 196 240 288 329
#     4  10  21  38  61  90 125 163 197 237 281 335
#
# _framework density 17.857852999999999
#
# number of rings (size 3 to 8) (size 9 to 14) (size 15 to 20)
#    0.000    0.941    5.882    2.118    0.000    0.471 
#    0.000    0.000    0.000   11.294    0.000    0.000 
#    0.000    0.000    0.000    0.000    0.000    0.000 
#
# Total GULP energy -189516.667711 kJ/mol
# GULP energy per Si atom -5574.019639 kJ/mol
# Density = 1.781721 g / cm^3
# Si number density = 17.857853 Si / 1000 Ang^3
#
#
#
# Elastic Constant Matrix: (Units=GPa)
#
#
# Indices 1 2 3 4 5 6 
#
# 1 131.4453 77.1732 84.0430 0.0000 0.0000 0.0000
# 2 77.1732 131.4462 84.0431 0.0000 0.0000 0.0000
# 3 84.0430 84.0431 154.0323 0.0000 0.0000 0.0000
# 4 0.0000 0.0000 0.0000 24.3306 0.0000 0.0000
# 5 0.0000 0.0000 0.0000 0.0000 24.3304 0.0000
# 6 0.0000 0.0000 0.0000 0.0000 0.0000 40.9911
#
#
#
# Elastic Compliance Matrix: (Units=1/GPa)
#
#
# Indices 1 2 3 4 5 6 
#
# 1 0.013490 -0.004936 -0.004667 0.000000 0.000000 0.000000
# 2 -0.004936 0.013490 -0.004667 0.000000 0.000000 0.000000
# 3 -0.004667 -0.004667 0.011585 0.000000 0.000000 0.000000
# 4 0.000000 0.000000 0.000000 0.041101 0.000000 0.000000
# 5 0.000000 0.000000 0.000000 0.000000 0.041101 0.000000
# 6 0.000000 0.000000 0.000000 0.000000 0.000000 0.024396
#
#
# Mechanical properties :
#
#
# Convention : Reuss Voigt Hill
#
# Bulk Modulus (GPa) = 99.75877 100.82694 100.29285
# Shear Modulus (GPa) = 28.24174 29.37470 28.80822
#
# Velocity S-wave (km/s) = 3.98109 4.06016 4.02082
# Velocity P-wave (km/s) = 8.78158 8.86359 8.82268
#
# Compressibility (1/GPa) = 0.01002418
#
# Stress axis : x y z
#
# Youngs Moduli (GPa) = 74.13060 74.13132 86.31809
#
# Poissons Ratio (x) = 0.36590 0.40286
# Poissons Ratio (y) = 0.36590 0.40285
# Poissons Ratio (z) = 0.34598 0.34597
#
# Static dielectric constant tensor:
#      x y z
#    x 1.613240 0.000000 0.000000 
#    y 0.000000 1.613230 0.000000 
#    z 0.000000 0.000000 1.604960 
# 
# From -- ./inp_files/2769.got.cif
#   From: 2010.05.17/outbox.cif.g08.bks.cpg/sg90_2_cif.got.tgz:2769.got - 2010.06.03 19:17:45.
