data_PCOD9547621
_publ_section_title
;
Structure prediction by ZEFSAII (Michael W. Deem and Ramdas Pophale) SiO2 
 PCOD9547621
Probable space group: P 41 2 2
;
_chemical_formula_sum "Si O2"
_cell_formula_units_Z 60
_cell_length_a 14.480139
_cell_length_b 14.480139
_cell_length_c 15.535914
_cell_angle_alpha 90.000000
_cell_angle_beta 90.000000
_cell_angle_gamma 90.000000
_cell_volume 3257.483842
_symmetry_space_group_name_H-M "P 41 2 2"
_symmetry_group_IT_number 91
_symmetry_cell_setting 'tetragonal'
loop_
_space_group_symop_operation_xyz
x,y,z
-y,x,1/4+z
-x,-y,1/2+z
y,-x,3/4+z
x,-y,1/2-z
-x,y,-z
y,x,3/4-z
-y,-x,1/4-z
loop_
_atom_site_type_symbol
_atom_site_label
_atom_site_fract_x
_atom_site_fract_y
_atom_site_fract_z
Si Si1 0.994023 0.856366 0.397865
Si Si2 0.696598 0.184406 0.674742
Si Si3 0.090169 0.164999 0.548967
Si Si4 0.908034 0.680333 0.332347
Si Si5 0.718398 0.574710 0.330694
Si Si6 0.151929 0.464687 0.541626
Si Si7 0.012346 0.657883 0.849626
Si Si8 0.000000 0.586189 0.500000
O O1 0.957613 0.957613 0.375000
O O2 0.924315 0.788106 0.348571
O O3 0.000000 0.841191 0.500000
O O4 0.093423 0.851307 0.353727
O O5 0.725107 0.274893 0.625000
O O6 0.787784 0.151482 0.725568
O O7 0.617963 0.200672 0.743551
O O8 0.662353 0.095719 0.620766
O O9 0.053195 0.246868 0.610606
O O10 0.000000 0.125685 0.500000
O O11 0.802473 0.648719 0.312134
O O12 0.966512 0.650476 0.250051
O O13 0.957041 0.639104 0.418073
O O14 0.701618 0.500000 0.250000
O O15 0.632367 0.632367 0.375000
O O16 0.771577 0.516810 0.403895
O O17 0.071439 0.421104 0.602120
O O18 0.091202 0.526775 0.476753
#
# Coordination Sequence:
#
# PCOD9547621 Si02
#       8
#     8   8   8   8   8   8   8   4
#     4  12  23  35  49  77 124 172 210 255 299 340
#     4  10  19  34  58  90 121 160 207 252 288 348
#     4   9  20  35  52  78 116 172 216 245 278 337
#     4  11  22  38  57  91 118 158 203 256 315 359
#     4  11  24  44  69  93 114 153 200 255 324 405
#     4  10  19  39  61  89 121 159 200 248 311 363
#     4  10  18  35  62  84 123 163 212 247 289 361
#     4  10  20  36  58  82 124 150 198 254 306 368
#
# _framework density 18.419122999999999
#
# number of rings (size 3 to 8) (size 9 to 14) (size 15 to 20)
#    0.000    1.600    3.333    3.200    0.000    3.200 
#    0.000    2.000    0.000    0.000    0.000    0.000 
#    0.000    0.000    0.000    0.000    0.000    0.000 
#
# Total GULP energy -334047.365497 kJ/mol
# GULP energy per Si atom -5567.456092 kJ/mol
# Density = 1.837720 g / cm^3
# Si number density = 18.419123 Si / 1000 Ang^3
#
#
#
# Elastic Constant Matrix: (Units=GPa)
#
#
# Indices 1 2 3 4 5 6 
#
# 1 57.2257 36.3001 17.9721 0.0000 0.0000 0.0000
# 2 36.3001 57.2237 17.9719 0.0000 0.0000 0.0000
# 3 17.9721 17.9719 66.3536 0.0000 0.0000 0.0000
# 4 0.0000 0.0000 0.0000 -7.1491 0.0000 0.0000
# 5 0.0000 0.0000 0.0000 0.0000 -7.1474 0.0000
# 6 0.0000 0.0000 0.0000 0.0000 0.0000 21.2217
#
#
#
# Elastic Compliance Matrix: (Units=1/GPa)
#
#
# Indices 1 2 3 4 5 6 
#
# 1 0.029862 -0.017928 -0.003232 0.000000 0.000000 0.000000
# 2 -0.017928 0.029863 -0.003233 0.000000 0.000000 0.000000
# 3 -0.003232 -0.003233 0.016822 0.000000 0.000000 0.000000
# 4 0.000000 0.000000 0.000000 -0.139877 0.000000 0.000000
# 5 0.000000 0.000000 0.000000 0.000000 -0.139912 0.000000
# 6 0.000000 0.000000 0.000000 0.000000 0.000000 0.047122
#
#
# Mechanical properties :
#
#
# Convention : Reuss Voigt Hill
#
# Bulk Modulus (GPa) = 36.02160 36.14345 36.08253
# Shear Modulus (GPa) = -50.97852 8.62231 -21.17810
#
# Velocity S-wave (km/s) = -5.26660 2.16595 -3.39453
# Velocity P-wave (km/s) = 4.16937 5.09122 2.06602
#
# Compressibility (1/GPa) = 0.02776112
#
# Stress axis : x y z
#
# Youngs Moduli (GPa) = 33.48728 33.48607 59.44654
#
# Poissons Ratio (x) = 0.60034 0.19216
# Poissons Ratio (y) = 0.60036 0.19217
# Poissons Ratio (z) = 0.10825 0.10825
#
# Static dielectric constant tensor:
#      x y z
#    x 1.701720 0.000000 0.000000 
#    y 0.000000 1.701720 0.000000 
#    z 0.000000 0.000000 1.653250 
# 
# From -- ./inp_files/11587.got.cif
#   From: 2010.05.17/outbox.cif.g08.bks.cpg/sg91_6_cif.got.tgz:11587.got - 2010.06.03 19:20:03.
