data_PCOD9547271
_publ_section_title
;
Structure prediction by ZEFSAII (Michael W. Deem and Ramdas Pophale) SiO2 
 PCOD9547271
Probable space group: P 4 21 2
;
_chemical_formula_sum "Si O2"
_cell_formula_units_Z 60
_cell_length_a 15.191718
_cell_length_b 15.191718
_cell_length_c 14.460172
_cell_angle_alpha 90.000000
_cell_angle_beta 90.000000
_cell_angle_gamma 90.000000
_cell_volume 3337.238453
_symmetry_space_group_name_H-M "P 4 21 2"
_symmetry_group_IT_number 90
_symmetry_cell_setting 'tetragonal'
loop_
_space_group_symop_operation_xyz
x,y,z
1/2-y,1/2+x,z
-x,-y,z
1/2+y,1/2-x,z
1/2+x,1/2-y,-z
1/2-x,1/2+y,-z
y,x,-z
-y,-x,-z
loop_
_atom_site_type_symbol
_atom_site_label
_atom_site_fract_x
_atom_site_fract_y
_atom_site_fract_z
Si Si1 0.875804 0.416218 0.788834
Si Si2 0.063409 0.262919 0.616766
Si Si3 0.589609 0.552403 0.609118
Si Si4 0.385389 0.258484 0.655128
Si Si5 0.614767 0.097348 0.806778
Si Si6 0.143573 0.493291 0.457384
Si Si7 0.901282 0.611591 0.989118
Si Si8 0.236662 0.236662 0.500000
O O1 0.883195 0.523207 0.782080
O O2 0.808514 0.395726 0.706927
O O3 0.846937 0.379354 0.889700
O O4 0.141107 0.247373 0.543990
O O5 0.010745 0.172589 0.627148
O O6 0.997163 0.330297 0.564564
O O7 0.500000 0.500000 0.627730
O O8 0.582873 0.582873 0.500000
O O9 0.602357 0.638450 0.672620
O O10 0.368788 0.189328 0.737055
O O11 0.475688 0.227790 0.604348
O O12 0.308306 0.250824 0.579667
O O13 0.510135 0.118316 0.795487
O O14 0.634077 0.135365 0.909815
O O15 0.087640 0.579172 0.436391
O O16 0.881740 0.507220 0.988214
#
# Coordination Sequence:
#
# PCOD9547271 Si02
#       8
#     8   8   8   8   8   8   8   4
#     4   9  18  31  55  88 118 145 173 227 304 368
#     4  12  23  37  54  76 109 157 202 243 292 346
#     4  11  24  40  54  69 106 171 221 247 279 338
#     4  12  22  38  53  78 114 155 200 248 285 346
#     4   9  18  31  56  89 117 145 178 227 302 369
#     4  11  21  33  51  78 112 140 178 234 299 351
#     4   7  12  28  50  82 120 142 165 212 288 369
#     4  12  26  38  50  78 114 154 196 260 288 330
#
# _framework density 17.978936999999998
#
# number of rings (size 3 to 8) (size 9 to 14) (size 15 to 20)
#    0.000    1.733    3.333    4.000    1.867    2.133 
#    0.000    0.000    0.000    0.800    0.000    0.000 
#    0.000    9.600    0.000    0.000    0.000    0.000 
#
# Total GULP energy -334182.765948 kJ/mol
# GULP energy per Si atom -5569.712766 kJ/mol
# Density = 1.793802 g / cm^3
# Si number density = 17.978937 Si / 1000 Ang^3
#
#
#
# Elastic Constant Matrix: (Units=GPa)
#
#
# Indices 1 2 3 4 5 6 
#
# 1 64.9163 28.3375 24.9659 0.0000 0.0000 0.0000
# 2 28.3375 64.9163 24.9659 0.0000 0.0000 0.0000
# 3 24.9659 24.9659 119.2026 0.0000 0.0000 0.0000
# 4 0.0000 0.0000 0.0000 18.1675 0.0000 0.0000
# 5 0.0000 0.0000 0.0000 0.0000 18.1675 0.0000
# 6 0.0000 0.0000 0.0000 0.0000 0.0000 21.1829
#
#
#
# Elastic Compliance Matrix: (Units=1/GPa)
#
#
# Indices 1 2 3 4 5 6 
#
# 1 0.019708 -0.007630 -0.002530 0.000000 0.000000 0.000000
# 2 -0.007630 0.019708 -0.002530 0.000000 0.000000 0.000000
# 3 -0.002530 -0.002530 0.009449 0.000000 0.000000 0.000000
# 4 0.000000 0.000000 0.000000 0.055043 0.000000 0.000000
# 5 0.000000 0.000000 0.000000 0.000000 0.055043 0.000000
# 6 0.000000 0.000000 0.000000 0.000000 0.000000 0.047208
#
#
# Mechanical properties :
#
#
# Convention : Reuss Voigt Hill
#
# Bulk Modulus (GPa) = 42.57851 45.06375 43.82113
# Shear Modulus (GPa) = 20.88844 22.88798 21.88821
#
# Velocity S-wave (km/s) = 3.41226 3.57184 3.49296
# Velocity P-wave (km/s) = 6.26566 6.49076 6.37920
#
# Compressibility (1/GPa) = 0.02348603
#
# Stress axis : x y z
#
# Youngs Moduli (GPa) = 50.74075 50.74075 105.83494
#
# Poissons Ratio (x) = 0.38716 0.26772
# Poissons Ratio (y) = 0.38716 0.26772
# Poissons Ratio (z) = 0.12835 0.12835
#
# Static dielectric constant tensor:
#      x y z
#    x 1.642360 0.000000 0.000000 
#    y 0.000000 1.642360 0.000000 
#    z 0.000000 0.000000 1.704910 
# 
# From -- ./inp_files/2569.got.cif
#   From: 2010.05.17/outbox.cif.g08.bks.cpg/sg90_2_cif.got.tgz:2569.got - 2010.06.03 19:17:45.
