data_PCOD9547290
_publ_section_title
;
Structure prediction by ZEFSAII (Michael W. Deem and Ramdas Pophale) SiO2 
 PCOD9547290
Probable space group: P 4 21 2
;
_chemical_formula_sum "Si O2"
_cell_formula_units_Z 36
_cell_length_a 13.780074
_cell_length_b 13.780074
_cell_length_c 8.791440
_cell_angle_alpha 90.000000
_cell_angle_beta 90.000000
_cell_angle_gamma 90.000000
_cell_volume 1669.410405
_symmetry_space_group_name_H-M "P 4 21 2"
_symmetry_group_IT_number 90
_symmetry_cell_setting 'tetragonal'
loop_
_space_group_symop_operation_xyz
x,y,z
1/2-y,1/2+x,z
-x,-y,z
1/2+y,1/2-x,z
1/2+x,1/2-y,-z
1/2-x,1/2+y,-z
y,x,-z
-y,-x,-z
loop_
_atom_site_type_symbol
_atom_site_label
_atom_site_fract_x
_atom_site_fract_y
_atom_site_fract_z
Si Si1 0.083525 0.066795 0.749476
Si Si2 0.333208 0.815198 0.537602
Si Si3 0.692970 0.307031 0.000000
Si Si4 0.114826 0.382017 0.122114
Si Si5 0.213051 0.989783 0.483576
O O1 0.021023 0.133647 0.636628
O O2 0.160775 0.006249 0.647199
O O3 0.143634 0.136939 0.858828
O O4 0.000000 0.000000 0.823227
O O5 0.291271 0.708730 0.500000
O O6 0.346327 0.849021 0.711306
O O7 0.257091 0.885234 0.459269
O O8 0.440851 0.806816 0.474545
O O9 0.807497 0.331472 0.007831
O O10 0.132830 0.497792 0.107722
#
# Coordination Sequence:
#
# PCOD9547290 Si02
#       5
#     8   8   4   8   8
#     4  11  22  43  63  97 138 173 223 282 345 399
#     4  12  20  38  67  97 128 170 225 273 334 406
#     4  12  23  46  68 105 136 180 240 284 338 415
#     4  11  24  47  72  95 138 191 233 279 356 429
#     4  11  22  39  65  97 131 176 220 280 336 411
#
# _framework density 21.564498
#
# number of rings (size 3 to 8) (size 9 to 14) (size 15 to 20)
#    0.000    0.667    6.667    3.000    0.000    0.444 
#   16.000    0.000    0.000    0.000    0.000    0.000 
#    0.000    0.000    0.000    0.000    0.000    0.000 
#
# Total GULP energy -200927.259788 kJ/mol
# GULP energy per Si atom -5581.312772 kJ/mol
# Density = 2.151542 g / cm^3
# Si number density = 21.564498 Si / 1000 Ang^3
#
#
#
# Elastic Constant Matrix: (Units=GPa)
#
#
# Indices 1 2 3 4 5 6 
#
# 1 99.5381 38.9758 8.0651 0.0000 0.0000 0.0000
# 2 38.9758 99.5389 8.0645 0.0000 0.0000 0.0000
# 3 8.0651 8.0645 41.6507 0.0000 0.0000 0.0000
# 4 0.0000 0.0000 0.0000 19.8575 0.0000 0.0000
# 5 0.0000 0.0000 0.0000 0.0000 19.8578 0.0000
# 6 0.0000 0.0000 0.0000 0.0000 0.0000 58.2410
#
#
#
# Elastic Compliance Matrix: (Units=1/GPa)
#
#
# Indices 1 2 3 4 5 6 
#
# 1 0.011949 -0.004563 -0.001430 0.000000 0.000000 0.000000
# 2 -0.004563 0.011949 -0.001430 0.000000 0.000000 0.000000
# 3 -0.001430 -0.001430 0.024563 0.000000 0.000000 0.000000
# 4 0.000000 0.000000 0.000000 0.050359 0.000000 0.000000
# 5 0.000000 0.000000 0.000000 0.000000 0.050358 0.000000
# 6 0.000000 0.000000 0.000000 0.000000 0.000000 0.017170
#
#
# Mechanical properties :
#
#
# Convention : Reuss Voigt Hill
#
# Bulk Modulus (GPa) = 29.74913 38.99317 34.37115
# Shear Modulus (GPa) = 25.98766 31.96608 28.97687
#
# Velocity S-wave (km/s) = 3.47524 3.85430 3.66967
# Velocity P-wave (km/s) = 5.47069 6.15865 5.82483
#
# Compressibility (1/GPa) = 0.03361443
#
# Stress axis : x y z
#
# Youngs Moduli (GPa) = 83.68921 83.69013 40.71161
#
# Poissons Ratio (x) = 0.38187 0.05823
# Poissons Ratio (y) = 0.38187 0.05822
# Poissons Ratio (z) = 0.11970 0.11968
#
# Static dielectric constant tensor:
#      x y z
#    x 1.816480 0.000000 0.000000 
#    y 0.000000 1.816480 0.000000 
#    z 0.000000 0.000000 1.801020 
# 
# From -- ./inp_files/1189.got.cif
#   From: 2010.05.17/outbox.cif.g08.bks.cpg/sg90_1_cif.got.tgz:1189.got - 2010.06.03 19:17:45.
