data_PCOD9547821
_publ_section_title
;
Structure prediction by ZEFSAII (Michael W. Deem and Ramdas Pophale) SiO2 
 PCOD9547821
Probable space group: P 41 2 2
;
_chemical_formula_sum "Si O2"
_cell_formula_units_Z 48
_cell_length_a 12.482434
_cell_length_b 12.482434
_cell_length_c 15.246347
_cell_angle_alpha 90.000000
_cell_angle_beta 90.000000
_cell_angle_gamma 90.000000
_cell_volume 2375.550990
_symmetry_space_group_name_H-M "P 41 2 2"
_symmetry_group_IT_number 91
_symmetry_cell_setting 'tetragonal'
loop_
_space_group_symop_operation_xyz
x,y,z
-y,x,1/4+z
-x,-y,1/2+z
y,-x,3/4+z
x,-y,1/2-z
-x,y,-z
y,x,3/4-z
-y,-x,1/4-z
loop_
_atom_site_type_symbol
_atom_site_label
_atom_site_fract_x
_atom_site_fract_y
_atom_site_fract_z
Si Si1 0.968165 0.557326 0.896214
Si Si2 0.618163 0.321844 0.029795
Si Si3 0.646937 0.100390 0.103299
Si Si4 0.021087 0.194817 0.395869
Si Si5 0.610081 0.190123 0.302914
Si Si6 0.187214 0.939077 0.843110
O O1 0.975515 0.680136 0.864074
O O2 0.854129 0.496682 0.902564
O O3 0.037931 0.466596 0.845319
O O4 0.000000 0.559673 0.000000
O O5 0.625949 0.374052 0.125000
O O6 0.662277 0.201601 0.041571
O O7 0.500000 0.309560 0.000000
O O8 0.684699 0.387996 0.959889
O O9 0.629515 0.143750 0.203604
O O10 0.755536 0.030940 0.097821
O O11 0.130730 0.130730 0.375000
O O12 0.000000 0.200259 0.500000
O O13 0.923567 0.119903 0.362227
O O14 0.717739 0.148364 0.347990
O O15 0.177662 0.000000 0.750000
#
# Coordination Sequence:
#
# PCOD9547821 Si02
#       6
#     8   8   8   8   8   8
#     4   8  16  34  54  72  99 145 188 214 264 342
#     4  10  20  32  52  87 115 140 186 241 292 339
#     4   8  16  32  54  81 107 137 182 227 279 339
#     4  11  23  35  51  79 113 152 191 228 276 343
#     4   8  16  33  56  77 104 144 181 226 284 334
#     4   9  18  34  56  80 113 149 180 227 289 343
#
# _framework density 20.205838
#
# number of rings (size 3 to 8) (size 9 to 14) (size 15 to 20)
#    0.000    3.000    0.000    2.500    2.333    4.667 
#    0.000    0.833    0.000    0.000    0.000    0.000 
#    0.000    0.000    0.000    0.000    0.000    0.000 
#
# Total GULP energy -267251.208966 kJ/mol
# GULP energy per Si atom -5567.733520 kJ/mol
# Density = 2.015985 g / cm^3
# Si number density = 20.205838 Si / 1000 Ang^3
#
#
#
# Elastic Constant Matrix: (Units=GPa)
#
#
# Indices 1 2 3 4 5 6 
#
# 1 64.4744 87.2926 11.9510 0.0000 0.0000 0.0000
# 2 87.2926 64.4650 11.9506 0.0000 0.0000 0.0000
# 3 11.9510 11.9506 24.1364 0.0000 0.0000 0.0000
# 4 0.0000 0.0000 0.0000 12.9125 0.0000 0.0000
# 5 0.0000 0.0000 0.0000 0.0000 12.9123 0.0000
# 6 0.0000 0.0000 0.0000 0.0000 0.0000 12.6704
#
#
#
# Elastic Compliance Matrix: (Units=1/GPa)
#
#
# Indices 1 2 3 4 5 6 
#
# 1 -0.018333 0.025481 -0.003539 0.000000 0.000000 0.000000
# 2 0.025481 -0.018336 -0.003538 0.000000 0.000000 0.000000
# 3 -0.003539 -0.003538 0.044935 0.000000 0.000000 0.000000
# 4 0.000000 0.000000 0.000000 0.077444 0.000000 0.000000
# 5 0.000000 0.000000 0.000000 0.000000 0.077445 0.000000
# 6 0.000000 0.000000 0.000000 0.000000 0.000000 0.078924
#
#
# Mechanical properties :
#
#
# Convention : Reuss Voigt Hill
#
# Bulk Modulus (GPa) = 22.18555 41.71823 31.95189
# Shear Modulus (GPa) = 22.69668 10.49116 16.59392
#
# Velocity S-wave (km/s) = 3.35516 2.28110 2.86884
# Velocity P-wave (km/s) = 5.10030 5.25636 5.17892
#
# Compressibility (1/GPa) = 0.04507437
#
# Stress axis : x y z
#
# Youngs Moduli (GPa) = -54.54604 -54.53765 22.25420
#
# Poissons Ratio (x) = 1.38968 0.07876
# Poissons Ratio (y) = 1.38989 0.07874
# Poissons Ratio (z) = -0.19303 -0.19296
#
# Static dielectric constant tensor:
#      x y z
#    x 1.736270 0.000000 0.000000 
#    y 0.000000 1.736270 0.000000 
#    z 0.000000 0.000000 1.796650 
# 
# From -- ./inp_files/5607.got.cif
#   From: 2010.05.17/outbox.cif.g08.bks.cpg/sg91_3_cif.got.tgz:5607.got - 2010.06.03 19:20:03.
