data_PCOD9547736
_publ_section_title
;
Structure prediction by ZEFSAII (Michael W. Deem and Ramdas Pophale) SiO2 
 PCOD9547736
Probable space group: P 41 2 2
;
_chemical_formula_sum "Si O2"
_cell_formula_units_Z 56
_cell_length_a 13.825430
_cell_length_b 13.825430
_cell_length_c 16.092341
_cell_angle_alpha 90.000000
_cell_angle_beta 90.000000
_cell_angle_gamma 90.000000
_cell_volume 3075.930526
_symmetry_space_group_name_H-M "P 41 2 2"
_symmetry_group_IT_number 91
_symmetry_cell_setting 'tetragonal'
loop_
_space_group_symop_operation_xyz
x,y,z
-y,x,1/4+z
-x,-y,1/2+z
y,-x,3/4+z
x,-y,1/2-z
-x,y,-z
y,x,3/4-z
-y,-x,1/4-z
loop_
_atom_site_type_symbol
_atom_site_label
_atom_site_fract_x
_atom_site_fract_y
_atom_site_fract_z
Si Si1 0.108375 0.611368 0.752728
Si Si2 0.634579 0.009410 0.658425
Si Si3 0.632622 0.317879 0.923184
Si Si4 0.499858 0.591822 0.293666
Si Si5 0.602706 0.799697 0.095191
Si Si6 0.771494 0.614334 0.849612
Si Si7 0.984803 0.590816 0.407474
O O1 0.070994 0.500000 0.750000
O O2 0.219853 0.607812 0.779663
O O3 0.048338 0.666690 0.824973
O O4 0.090449 0.639705 0.656411
O O5 0.635865 0.123534 0.638844
O O6 0.524658 0.966580 0.668711
O O7 0.681205 0.000000 0.750000
O O8 0.573174 0.331641 0.835921
O O9 0.744409 0.317834 0.897976
O O10 0.618117 0.411900 0.982155
O O11 0.447058 0.500000 0.250000
O O12 0.552073 0.552073 0.375000
O O13 0.498495 0.753797 0.119059
O O14 0.597661 0.912054 0.112920
O O15 0.619898 0.783912 0.998837
O O16 0.685771 0.685771 0.875000
O O17 0.000000 0.631459 0.500000
#
# Coordination Sequence:
#
# PCOD9547736 Si02
#       7
#     8   8   8   8   8   8   8
#     4  10  19  35  53  76 106 145 186 237 284 325
#     4   9  18  32  54  77 101 133 183 231 288 337
#     4  11  23  32  53  75 110 151 190 232 274 330
#     4   9  20  36  46  67 105 153 197 229 262 314
#     4  10  22  35  50  79 109 146 189 226 270 338
#     4  10  21  35  53  75 111 149 185 230 278 327
#     4   9  18  36  57  75  99 141 184 233 284 333
#
# _framework density 18.205871999999999
#
# number of rings (size 3 to 8) (size 9 to 14) (size 15 to 20)
#    0.000    2.286    1.429    1.286    6.000    5.143 
#    0.000    0.000    0.000    0.000    0.000    0.000 
#    0.000    3.429    0.000    0.000    0.000    0.000 
#
# Total GULP energy -311765.712382 kJ/mol
# GULP energy per Si atom -5567.244864 kJ/mol
# Density = 1.816443 g / cm^3
# Si number density = 18.205872 Si / 1000 Ang^3
#
#
#
# Elastic Constant Matrix: (Units=GPa)
#
#
# Indices 1 2 3 4 5 6 
#
# 1 43.4831 25.9551 37.6506 0.0000 0.0000 0.0000
# 2 25.9551 43.4831 37.6506 0.0000 0.0000 0.0000
# 3 37.6506 37.6506 132.9546 0.0000 0.0000 0.0000
# 4 0.0000 0.0000 0.0000 20.8374 0.0000 0.0000
# 5 0.0000 0.0000 0.0000 0.0000 20.8374 0.0000
# 6 0.0000 0.0000 0.0000 0.0000 0.0000 4.2683
#
#
#
# Elastic Compliance Matrix: (Units=1/GPa)
#
#
# Indices 1 2 3 4 5 6 
#
# 1 0.038918 -0.018134 -0.005886 0.000000 0.000000 0.000000
# 2 -0.018134 0.038918 -0.005886 0.000000 0.000000 0.000000
# 3 -0.005886 -0.005886 0.010855 0.000000 0.000000 0.000000
# 4 0.000000 0.000000 0.000000 0.047991 0.000000 0.000000
# 5 0.000000 0.000000 0.000000 0.000000 0.047991 0.000000
# 6 0.000000 0.000000 0.000000 0.000000 0.000000 0.234286
#
#
# Mechanical properties :
#
#
# Convention : Reuss Voigt Hill
#
# Bulk Modulus (GPa) = 34.62607 46.93703 40.78155
# Shear Modulus (GPa) = 10.23763 17.09960 13.66861
#
# Velocity S-wave (km/s) = 2.37391 3.06802 2.74301
# Velocity P-wave (km/s) = 5.15504 6.19577 5.69921
#
# Compressibility (1/GPa) = 0.02887998
#
# Stress axis : x y z
#
# Youngs Moduli (GPa) = 25.69524 25.69524 92.12502
#
# Poissons Ratio (x) = 0.46595 0.54222
# Poissons Ratio (y) = 0.46595 0.54222
# Poissons Ratio (z) = 0.15123 0.15123
#
# Static dielectric constant tensor:
#      x y z
#    x 1.637980 0.000000 0.000000 
#    y 0.000000 1.637980 0.000000 
#    z 0.000000 0.000000 1.718950 
# 
# From -- ./inp_files/11517.got.cif
#   From: 2010.05.17/outbox.cif.g08.bks.cpg/sg91_6_cif.got.tgz:11517.got - 2010.06.03 19:20:03.
