data_PCOD9547897
_publ_section_title
;
Structure prediction by ZEFSAII (Michael W. Deem and Ramdas Pophale) SiO2 
 PCOD9547897
Probable space group: P 41 2 2
;
_chemical_formula_sum "Si O2"
_cell_formula_units_Z 40
_cell_length_a 19.581455
_cell_length_b 19.581455
_cell_length_c 5.054618
_cell_angle_alpha 90.000000
_cell_angle_beta 90.000000
_cell_angle_gamma 90.000000
_cell_volume 1938.109264
_symmetry_space_group_name_H-M "P 41 2 2"
_symmetry_group_IT_number 91
_symmetry_cell_setting 'tetragonal'
loop_
_space_group_symop_operation_xyz
x,y,z
-y,x,1/4+z
-x,-y,1/2+z
y,-x,3/4+z
x,-y,1/2-z
-x,y,-z
y,x,3/4-z
-y,-x,1/4-z
loop_
_atom_site_type_symbol
_atom_site_label
_atom_site_fract_x
_atom_site_fract_y
_atom_site_fract_z
Si Si1 0.582331 0.767809 0.480407
Si Si2 0.417587 0.148594 0.476931
Si Si3 0.076893 0.142618 0.124024
Si Si4 0.645255 0.455454 0.501556
Si Si5 0.951362 0.707231 0.747240
O O1 0.500000 0.762133 0.500000
O O2 0.599283 0.827841 0.681020
O O3 0.600405 0.696830 0.621206
O O4 0.598406 0.790668 0.185984
O O5 0.500000 0.133443 0.500000
O O6 0.363115 0.089993 0.529561
O O7 0.093411 0.093411 0.375000
O O8 0.087890 0.220049 0.231989
O O9 0.125119 0.125119 0.875000
O O10 0.000000 0.135468 0.000000
O O11 0.675008 0.500000 0.750000
O O12 0.581904 0.418097 0.625000
O O13 0.623794 0.500000 0.250000
O O14 0.000000 0.710288 0.500000
O O15 0.000000 0.706480 0.000000
#
# Coordination Sequence:
#
# PCOD9547897 Si02
#       5
#     8   8   8   8   8
#     4   9  18  35  56  79 109 147 193 247 298 343
#     4  10  20  36  61  88 117 158 206 247 290 359
#     4  11  23  42  65  91 124 162 204 252 308 366
#     4  11  22  37  57  81 113 151 195 253 320 387
#     4  11  23  40  61  89 129 166 194 243 313 363
#
# _framework density 20.638674000000002
#
# number of rings (size 3 to 8) (size 9 to 14) (size 15 to 20)
#    0.000    1.600    0.000    7.800    0.000    2.400 
#    0.000    4.000    0.000    2.400    0.000    0.000 
#    0.000    0.000    0.000    0.000    0.000    0.000 
#
# Total GULP energy -222843.585725 kJ/mol
# GULP energy per Si atom -5571.089643 kJ/mol
# Density = 2.059170 g / cm^3
# Si number density = 20.638674 Si / 1000 Ang^3
#
#
#
# Elastic Constant Matrix: (Units=GPa)
#
#
# Indices 1 2 3 4 5 6 
#
# 1 71.6915 47.2837 36.3469 0.0000 0.0000 0.0000
# 2 47.2837 71.6895 36.3473 0.0000 0.0000 0.0000
# 3 36.3469 36.3473 140.8313 0.0000 0.0000 0.0000
# 4 0.0000 0.0000 0.0000 31.1594 0.0000 0.0000
# 5 0.0000 0.0000 0.0000 0.0000 31.1597 0.0000
# 6 0.0000 0.0000 0.0000 0.0000 0.0000 -47.5297
#
#
#
# Elastic Compliance Matrix: (Units=1/GPa)
#
#
# Indices 1 2 3 4 5 6 
#
# 1 0.025475 -0.015497 -0.002575 0.000000 0.000000 0.000000
# 2 -0.015497 0.025476 -0.002576 0.000000 0.000000 0.000000
# 3 -0.002575 -0.002576 0.008430 0.000000 0.000000 0.000000
# 4 0.000000 0.000000 0.000000 0.032093 0.000000 0.000000
# 5 0.000000 0.000000 0.000000 0.000000 0.032093 0.000000
# 6 0.000000 0.000000 0.000000 0.000000 0.000000 -0.021039
#
#
# Mechanical properties :
#
#
# Convention : Reuss Voigt Hill
#
# Bulk Modulus (GPa) = 55.29151 58.24089 56.76620
# Shear Modulus (GPa) = 33.36644 13.90683 23.63664
#
# Velocity S-wave (km/s) = 4.02518 2.59863 3.38784
# Velocity P-wave (km/s) = 6.96068 6.10609 6.54735
#
# Compressibility (1/GPa) = 0.01808596
#
# Stress axis : x y z
#
# Youngs Moduli (GPa) = 39.25411 39.25268 118.62291
#
# Poissons Ratio (x) = 0.60829 0.30548
# Poissons Ratio (y) = 0.60831 0.30552
# Poissons Ratio (z) = 0.10109 0.10110
#
# Static dielectric constant tensor:
#      x y z
#    x 1.847500 0.000000 0.000000 
#    y 0.000000 1.847500 0.000000 
#    z 0.000000 0.000000 1.761840 
# 
# From -- ./inp_files/8530.got.cif
#   From: 2010.05.17/outbox.cif.g08.bks.cpg/sg91_5_cif.got.tgz:8530.got - 2010.06.03 19:20:03.
