data_PCOD9547965
_publ_section_title
;
Structure prediction by ZEFSAII (Michael W. Deem and Ramdas Pophale) SiO2 
 PCOD9547965
Probable space group: P 41 2 2
;
_chemical_formula_sum "Si O2"
_cell_formula_units_Z 64
_cell_length_a 11.822173
_cell_length_b 11.822173
_cell_length_c 21.728657
_cell_angle_alpha 90.000000
_cell_angle_beta 90.000000
_cell_angle_gamma 90.000000
_cell_volume 3036.879116
_symmetry_space_group_name_H-M "P 41 2 2"
_symmetry_group_IT_number 91
_symmetry_cell_setting 'tetragonal'
loop_
_space_group_symop_operation_xyz
x,y,z
-y,x,1/4+z
-x,-y,1/2+z
y,-x,3/4+z
x,-y,1/2-z
-x,y,-z
y,x,3/4-z
-y,-x,1/4-z
loop_
_atom_site_type_symbol
_atom_site_label
_atom_site_fract_x
_atom_site_fract_y
_atom_site_fract_z
Si Si1 0.637163 0.771352 0.130108
Si Si2 0.982178 0.673943 0.781291
Si Si3 0.225804 0.105099 0.728751
Si Si4 0.932430 0.003291 0.557186
Si Si5 0.518210 0.371318 0.274794
Si Si6 0.352523 0.223155 0.825433
Si Si7 0.547759 0.012982 0.099063
Si Si8 0.634386 0.262716 0.507150
O O1 0.734740 0.814440 0.174247
O O2 0.578929 0.663690 0.161858
O O3 0.679236 0.740724 0.062519
O O4 0.559318 0.885158 0.126023
O O5 0.017632 0.802753 0.788209
O O6 0.846526 0.679326 0.791553
O O7 0.031789 0.581586 0.827825
O O8 0.005341 0.624155 0.713265
O O9 0.239462 0.185675 0.788055
O O10 0.127498 0.029436 0.695372
O O11 0.306367 0.000000 0.750000
O O12 0.947351 0.052650 0.625000
O O13 0.000000 0.060303 0.500000
O O14 0.534201 0.500000 0.250000
O O15 0.566047 0.283392 0.224200
O O16 0.385315 0.350468 0.284712
O O17 0.315119 0.315119 0.875000
O O18 0.408541 0.115514 0.859251
O O19 0.500000 0.243588 0.500000
#
# Coordination Sequence:
#
# PCOD9547965 Si02
#       8
#     8   8   8   8   8   8   8   8
#     4  10  20  38  64  88 123 161 212 272 312 395
#     4  10  21  42  65  99 128 169 225 273 335 395
#     4  10  21  39  64  89 123 164 213 258 324 390
#     4  11  27  43  64  99 135 179 224 277 341 408
#     4  10  25  39  57  94 129 166 213 261 331 396
#     4  11  23  40  64  97 130 171 212 274 333 389
#     4  10  20  40  71  98 123 169 230 274 325 399
#     4  10  20  39  65  88 117 173 213 257 329 393
#
# _framework density 21.074268
#
# number of rings (size 3 to 8) (size 9 to 14) (size 15 to 20)
#    0.000    1.750    3.750    0.750    5.250    5.500 
#    4.500    0.000    0.000    0.000    0.000    0.000 
#    0.000    0.000    0.000    0.000    0.000    0.000 
#
# Total GULP energy -356352.359550 kJ/mol
# GULP energy per Si atom -5568.005618 kJ/mol
# Density = 2.102630 g / cm^3
# Si number density = 21.074268 Si / 1000 Ang^3
#
#
#
# Elastic Constant Matrix: (Units=GPa)
#
#
# Indices 1 2 3 4 5 6 
#
# 1 56.6324 -12.8576 5.9191 0.0000 0.0000 0.0000
# 2 -12.8576 56.6319 5.9189 0.0000 0.0000 0.0000
# 3 5.9191 5.9189 62.2025 0.0000 0.0000 0.0000
# 4 0.0000 0.0000 0.0000 16.5907 0.0000 0.0000
# 5 0.0000 0.0000 0.0000 0.0000 16.5907 0.0000
# 6 0.0000 0.0000 0.0000 0.0000 0.0000 17.5815
#
#
#
# Elastic Compliance Matrix: (Units=1/GPa)
#
#
# Indices 1 2 3 4 5 6 
#
# 1 0.018919 0.004529 -0.002231 0.000000 0.000000 0.000000
# 2 0.004529 0.018919 -0.002231 0.000000 0.000000 0.000000
# 3 -0.002231 -0.002231 0.016501 0.000000 0.000000 0.000000
# 4 0.000000 0.000000 0.000000 0.060275 0.000000 0.000000
# 5 0.000000 0.000000 0.000000 0.000000 0.060275 0.000000
# 6 0.000000 0.000000 0.000000 0.000000 0.000000 0.056878
#
#
# Mechanical properties :
#
#
# Convention : Reuss Voigt Hill
#
# Bulk Modulus (GPa) = 18.35816 19.26975 18.81396
# Shear Modulus (GPa) = 20.01665 21.91833 20.96749
#
# Velocity S-wave (km/s) = 3.08525 3.22848 3.15768
# Velocity P-wave (km/s) = 4.62837 4.80219 4.71608
#
# Compressibility (1/GPa) = 0.05447168
#
# Stress axis : x y z
#
# Youngs Moduli (GPa) = 52.85670 52.85629 60.60187
#
# Poissons Ratio (x) = -0.23936 0.13522
# Poissons Ratio (y) = -0.23936 0.13521
# Poissons Ratio (z) = 0.11794 0.11793
#
# Static dielectric constant tensor:
#      x y z
#    x 1.850050 0.000000 0.000000 
#    y 0.000000 1.850050 0.000000 
#    z 0.000000 0.000000 1.852850 
# 
# From -- ./inp_files/21857.got.cif
#   From: 2010.05.17/outbox.cif.g08.bks.cpg/sg91_11_cif.got.tgz:21857.got - 2010.06.03 19:20:03.
