data_PCOD9547740
_publ_section_title
;
Structure prediction by ZEFSAII (Michael W. Deem and Ramdas Pophale) SiO2 
 PCOD9547740
Probable space group: P 41 2 2
;
_chemical_formula_sum "Si O2"
_cell_formula_units_Z 48
_cell_length_a 20.678006
_cell_length_b 20.678006
_cell_length_c 5.855299
_cell_angle_alpha 90.000000
_cell_angle_beta 90.000000
_cell_angle_gamma 90.000000
_cell_volume 2503.608349
_symmetry_space_group_name_H-M "P 41 2 2"
_symmetry_group_IT_number 91
_symmetry_cell_setting 'tetragonal'
loop_
_space_group_symop_operation_xyz
x,y,z
-y,x,1/4+z
-x,-y,1/2+z
y,-x,3/4+z
x,-y,1/2-z
-x,y,-z
y,x,3/4-z
-y,-x,1/4-z
loop_
_atom_site_type_symbol
_atom_site_label
_atom_site_fract_x
_atom_site_fract_y
_atom_site_fract_z
Si Si1 0.280110 0.838050 0.258775
Si Si2 0.500000 0.151953 0.500000
Si Si3 0.830489 0.067470 0.617390
Si Si4 0.803312 0.634724 0.612032
Si Si5 0.000000 0.246816 0.000000
Si Si6 0.724053 0.724053 0.375000
Si Si7 0.500000 0.076304 0.000000
Si Si8 0.073002 0.640278 0.725198
O O1 0.216415 0.880327 0.233662
O O2 0.271728 0.785671 0.455313
O O3 0.339542 0.887432 0.303007
O O4 0.304309 0.805271 0.030445
O O5 0.565179 0.194012 0.478645
O O6 0.503562 0.114110 0.750384
O O7 0.900851 0.099150 0.625000
O O8 0.798887 0.052437 0.370332
O O9 0.829561 0.000000 0.750000
O O10 0.738477 0.652648 0.473629
O O11 0.870097 0.637906 0.465350
O O12 0.972029 0.298549 0.179370
O O13 0.430326 0.041235 0.988896
#
# Coordination Sequence:
#
# PCOD9547740 Si02
#       8
#     8   4   8   8   4   4   4   8
#     4  11  20  38  60  88 114 150 198 246 307 372
#     4  10  20  34  59  84 126 170 208 245 300 366
#     4  12  27  44  65  86 110 147 188 259 331 399
#     4  10  19  35  55  86 119 159 206 246 301 358
#     4  12  24  44  64  88 114 150 202 254 302 380
#     4  10  22  32  58  88 122 150 208 256 300 360
#     4  10  20  38  59  92 128 166 206 245 298 368
#     4  10  21  36  61  87 118 159 196 245 292 366
#
# _framework density 19.172328
#
# number of rings (size 3 to 8) (size 9 to 14) (size 15 to 20)
#    0.000    1.333    5.000    1.500    2.333    0.667 
#    1.500    5.000    0.000    0.000    0.000    0.000 
#    0.000    0.000    0.000    0.000   44.333    7.417 
#
# Total GULP energy -267242.470547 kJ/mol
# GULP energy per Si atom -5567.551470 kJ/mol
# Density = 1.912869 g / cm^3
# Si number density = 19.172328 Si / 1000 Ang^3
#
#
#
# Elastic Constant Matrix: (Units=GPa)
#
#
# Indices 1 2 3 4 5 6 
#
# 1 66.0348 46.4113 14.4611 0.0000 0.0000 0.0000
# 2 46.4113 66.0430 14.4620 0.0000 0.0000 0.0000
# 3 14.4611 14.4620 51.1300 0.0000 0.0000 0.0000
# 4 0.0000 0.0000 0.0000 13.8031 0.0000 0.0000
# 5 0.0000 0.0000 0.0000 0.0000 13.8012 0.0000
# 6 0.0000 0.0000 0.0000 0.0000 0.0000 6.3674
#
#
#
# Elastic Compliance Matrix: (Units=1/GPa)
#
#
# Indices 1 2 3 4 5 6 
#
# 1 0.030271 -0.020679 -0.002713 0.000000 0.000000 0.000000
# 2 -0.020679 0.030268 -0.002713 0.000000 0.000000 0.000000
# 3 -0.002713 -0.002713 0.021092 0.000000 0.000000 0.000000
# 4 0.000000 0.000000 0.000000 0.072447 0.000000 0.000000
# 5 0.000000 0.000000 0.000000 0.000000 0.072458 0.000000
# 6 0.000000 0.000000 0.000000 0.000000 0.000000 0.157050
#
#
# Mechanical properties :
#
#
# Convention : Reuss Voigt Hill
#
# Bulk Modulus (GPa) = 33.98679 37.09738 35.54209
# Shear Modulus (GPa) = 11.22075 13.98589 12.60332
#
# Velocity S-wave (km/s) = 2.42183 2.70382 2.56671
# Velocity P-wave (km/s) = 5.05825 5.39806 5.23091
#
# Compressibility (1/GPa) = 0.02942320
#
# Stress axis : x y z
#
# Youngs Moduli (GPa) = 33.03439 33.03848 47.41034
#
# Poissons Ratio (x) = 0.68321 0.12861
# Poissons Ratio (y) = 0.68312 0.12860
# Poissons Ratio (z) = 0.08961 0.08962
#
# Static dielectric constant tensor:
#      x y z
#    x 1.681640 0.000000 0.000000 
#    y 0.000000 1.681640 0.000000 
#    z 0.000000 0.000000 1.879380 
# 
# From -- ./inp_files/14428.got.cif
#   From: 2010.05.17/outbox.cif.g08.bks.cpg/sg91_8_cif.got.tgz:14428.got - 2010.06.03 19:20:03.
