data_PCOD9547959
_publ_section_title
;
Structure prediction by ZEFSAII (Michael W. Deem and Ramdas Pophale) SiO2 
 PCOD9547959
Probable space group: P 41 2 2
;
_chemical_formula_sum "Si O2"
_cell_formula_units_Z 36
_cell_length_a 8.687998
_cell_length_b 8.687998
_cell_length_c 22.310410
_cell_angle_alpha 90.000000
_cell_angle_beta 90.000000
_cell_angle_gamma 90.000000
_cell_volume 1684.018957
_symmetry_space_group_name_H-M "P 41 2 2"
_symmetry_group_IT_number 91
_symmetry_cell_setting 'tetragonal'
loop_
_space_group_symop_operation_xyz
x,y,z
-y,x,1/4+z
-x,-y,1/2+z
y,-x,3/4+z
x,-y,1/2-z
-x,y,-z
y,x,3/4-z
-y,-x,1/4-z
loop_
_atom_site_type_symbol
_atom_site_label
_atom_site_fract_x
_atom_site_fract_y
_atom_site_fract_z
Si Si1 0.320615 0.232992 0.808893
Si Si2 0.379438 0.924844 0.332665
Si Si3 0.500000 0.478194 0.500000
Si Si4 0.665544 0.913900 0.532904
Si Si5 0.237000 0.736078 0.033724
O O1 0.252024 0.252024 0.875000
O O2 0.443359 0.095925 0.813309
O O3 0.417427 0.386335 0.789931
O O4 0.191788 0.225002 0.757698
O O5 0.357589 0.858597 0.399025
O O6 0.287085 0.827045 0.283777
O O7 0.325141 0.100589 0.326003
O O8 0.611277 0.368436 0.538737
O O9 0.500000 0.918274 0.500000
O O10 0.727547 0.085781 0.539369
#
# Coordination Sequence:
#
# PCOD9547959 Si02
#       5
#     8   8   4   8   8
#     4  11  21  40  65  99 138 169 230 293 349 412
#     4  10  23  45  66  98 141 178 234 279 355 424
#     4  10  20  38  64 100 128 180 232 286 346 410
#     4  12  22  43  71 101 136 177 228 290 349 420
#     4  10  23  44  67  99 137 185 233 281 349 424
#
# _framework density 21.37743
#
# number of rings (size 3 to 8) (size 9 to 14) (size 15 to 20)
#    0.000    1.333    4.444    0.667    0.000    1.778 
#   12.000   13.333    0.000    0.000    0.000    0.000 
#    0.000    0.000    0.000    0.000    0.000    0.000 
#
# Total GULP energy -201232.998941 kJ/mol
# GULP energy per Si atom -5589.805526 kJ/mol
# Density = 2.132877 g / cm^3
# Si number density = 21.377430 Si / 1000 Ang^3
#
#
#
# Elastic Constant Matrix: (Units=GPa)
#
#
# Indices 1 2 3 4 5 6 
#
# 1 74.5215 28.8263 20.0521 0.0000 0.0000 0.0000
# 2 28.8263 74.5215 20.0521 0.0000 0.0000 0.0000
# 3 20.0521 20.0521 159.9625 0.0000 0.0000 0.0000
# 4 0.0000 0.0000 0.0000 16.1897 0.0000 0.0000
# 5 0.0000 0.0000 0.0000 0.0000 16.1897 0.0000
# 6 0.0000 0.0000 0.0000 0.0000 0.0000 28.4091
#
#
#
# Elastic Compliance Matrix: (Units=1/GPa)
#
#
# Indices 1 2 3 4 5 6 
#
# 1 0.016027 -0.005857 -0.001275 0.000000 0.000000 0.000000
# 2 -0.005857 0.016027 -0.001275 0.000000 0.000000 0.000000
# 3 -0.001275 -0.001275 0.006571 0.000000 0.000000 0.000000
# 4 0.000000 0.000000 0.000000 0.061768 0.000000 0.000000
# 5 0.000000 0.000000 0.000000 0.000000 0.061768 0.000000
# 6 0.000000 0.000000 0.000000 0.000000 0.000000 0.035200
#
#
# Mechanical properties :
#
#
# Convention : Reuss Voigt Hill
#
# Bulk Modulus (GPa) = 45.84445 49.65184 47.74815
# Shear Modulus (GPa) = 22.57890 28.16269 25.37079
#
# Velocity S-wave (km/s) = 3.25345 3.63354 3.44874
# Velocity P-wave (km/s) = 5.96700 6.39376 6.18406
#
# Compressibility (1/GPa) = 0.02181289
#
# Stress axis : x y z
#
# Youngs Moduli (GPa) = 62.39285 62.39285 152.18122
#
# Poissons Ratio (x) = 0.36541 0.19403
# Poissons Ratio (y) = 0.36541 0.19403
# Poissons Ratio (z) = 0.07955 0.07955
#
# Static dielectric constant tensor:
#      x y z
#    x 1.774670 0.000000 0.000000 
#    y 0.000000 1.774670 0.000000 
#    z 0.000000 0.000000 1.764200 
# 
# From -- ./inp_files/6163.got.cif
#   From: 2010.05.17/outbox.cif.g08.bks.cpg/sg91_4_cif.got.tgz:6163.got - 2010.06.03 19:20:03.
