data_PCOD9547195
_publ_section_title
;
Structure prediction by ZEFSAII (Michael W. Deem and Ramdas Pophale) SiO2 
 PCOD9547195
Probable space group: P 4 21 2
;
_chemical_formula_sum "Si O2"
_cell_formula_units_Z 40
_cell_length_a 11.723050
_cell_length_b 11.723050
_cell_length_c 14.620996
_cell_angle_alpha 90.000000
_cell_angle_beta 90.000000
_cell_angle_gamma 90.000000
_cell_volume 2009.362037
_symmetry_space_group_name_H-M "P 4 21 2"
_symmetry_group_IT_number 90
_symmetry_cell_setting 'tetragonal'
loop_
_space_group_symop_operation_xyz
x,y,z
1/2-y,1/2+x,z
-x,-y,z
1/2+y,1/2-x,z
1/2+x,1/2-y,-z
1/2-x,1/2+y,-z
y,x,-z
-y,-x,-z
loop_
_atom_site_type_symbol
_atom_site_label
_atom_site_fract_x
_atom_site_fract_y
_atom_site_fract_z
Si Si1 0.870423 0.870423 0.000000
Si Si2 0.837923 0.908702 0.718067
Si Si3 0.000000 0.000000 0.148428
Si Si4 0.314339 0.038565 0.338265
Si Si5 0.593250 0.165529 0.869501
Si Si6 0.686566 0.968942 0.556104
O O1 0.879112 0.748340 0.046786
O O2 0.898385 0.963109 0.079724
O O3 0.924251 0.802642 0.709067
O O4 0.728158 0.871484 0.776249
O O5 0.795045 0.949773 0.619818
O O6 0.894805 0.005977 0.781392
O O7 0.414722 0.130805 0.317712
O O8 0.292183 0.038649 0.447740
O O9 0.457648 0.148381 0.872193
O O10 0.590325 0.873109 0.575839
#
# Coordination Sequence:
#
# PCOD9547195 Si02
#       6
#     4   8   4   8   8   8
#     4   9  20  42  64  79 114 152 174 219 284 338
#     4  11  20  34  58  85 114 144 183 241 294 324
#     4   9  22  38  53  82 110 136 175 222 276 339
#     4   9  20  37  53  74 111 159 202 232 271 336
#     4  10  22  39  61  88 113 143 185 227 276 346
#     4   9  18  34  54  77 110 152 195 236 282 339
#
# _framework density 19.906817
#
# number of rings (size 3 to 8) (size 9 to 14) (size 15 to 20)
#    0.000    2.400    0.000    3.000    0.000    9.600 
#    0.000   10.000    0.000    9.600    0.000    0.000 
#    0.000    0.000    0.000    0.000    0.000    0.000 
#
# Total GULP energy -223005.366004 kJ/mol
# GULP energy per Si atom -5575.134150 kJ/mol
# Density = 1.986151 g / cm^3
# Si number density = 19.906817 Si / 1000 Ang^3
#
#
#
# Elastic Constant Matrix: (Units=GPa)
#
#
# Indices 1 2 3 4 5 6 
#
# 1 54.7382 19.4869 38.0154 0.0000 0.0000 0.0000
# 2 19.4869 54.7382 38.0154 0.0000 0.0000 0.0000
# 3 38.0154 38.0154 66.4053 0.0000 0.0000 0.0000
# 4 0.0000 0.0000 0.0000 25.0388 0.0000 0.0000
# 5 0.0000 0.0000 0.0000 0.0000 25.0388 0.0000
# 6 0.0000 0.0000 0.0000 0.0000 0.0000 12.3814
#
#
#
# Elastic Compliance Matrix: (Units=1/GPa)
#
#
# Indices 1 2 3 4 5 6 
#
# 1 0.030471 0.002103 -0.018648 0.000000 0.000000 0.000000
# 2 0.002103 0.030471 -0.018648 0.000000 0.000000 0.000000
# 3 -0.018648 -0.018648 0.036410 0.000000 0.000000 0.000000
# 4 0.000000 0.000000 0.000000 0.039938 0.000000 0.000000
# 5 0.000000 0.000000 0.000000 0.000000 0.039938 0.000000
# 6 0.000000 0.000000 0.000000 0.000000 0.000000 0.080766
#
#
# Mechanical properties :
#
#
# Convention : Reuss Voigt Hill
#
# Bulk Modulus (GPa) = 37.08290 40.76856 38.92573
# Shear Modulus (GPa) = 14.82063 17.84941 16.33502
#
# Velocity S-wave (km/s) = 2.73151 2.99766 2.86767
# Velocity P-wave (km/s) = 5.34948 5.70135 5.52821
#
# Compressibility (1/GPa) = 0.02696661
#
# Stress axis : x y z
#
# Youngs Moduli (GPa) = 32.81827 32.81827 27.46516
#
# Poissons Ratio (x) = -0.06902 0.51216
# Poissons Ratio (y) = -0.06902 0.51216
# Poissons Ratio (z) = 0.61199 0.61199
#
# Static dielectric constant tensor:
#      x y z
#    x 1.716220 0.000000 0.000000 
#    y 0.000000 1.716220 0.000000 
#    z 0.000000 0.000000 1.707980 
# 
# From -- ./inp_files/2496.got.cif
#   From: 2010.05.17/outbox.cif.g08.bks.cpg/sg90_2_cif.got.tgz:2496.got - 2010.06.03 19:17:45.
