data_PCOD9547475
_publ_section_title
;
Structure prediction by ZEFSAII (Michael W. Deem and Ramdas Pophale) SiO2 
 PCOD9547475
Probable space group: P 41 2 2
;
_chemical_formula_sum "Si O2"
_cell_formula_units_Z 32
_cell_length_a 21.893943
_cell_length_b 21.893943
_cell_length_c 5.349516
_cell_angle_alpha 90.000000
_cell_angle_beta 90.000000
_cell_angle_gamma 90.000000
_cell_volume 2564.262357
_symmetry_space_group_name_H-M "P 41 2 2"
_symmetry_group_IT_number 91
_symmetry_cell_setting 'tetragonal'
loop_
_space_group_symop_operation_xyz
x,y,z
-y,x,1/4+z
-x,-y,1/2+z
y,-x,3/4+z
x,-y,1/2-z
-x,y,-z
y,x,3/4-z
-y,-x,1/4-z
loop_
_atom_site_type_symbol
_atom_site_label
_atom_site_fract_x
_atom_site_fract_y
_atom_site_fract_z
Si Si1 0.540868 0.732113 0.248996
Si Si2 0.569399 0.072883 0.752216
Si Si3 0.382063 0.617938 0.625000
Si Si4 0.566326 0.566326 0.875000
Si Si5 0.874166 0.569654 0.504749
O O1 0.500000 0.728893 0.500000
O O2 0.596379 0.684343 0.279629
O O3 0.564359 0.801584 0.231320
O O4 0.500000 0.719358 0.000000
O O5 0.599349 0.098316 0.501676
O O6 0.499761 0.098744 0.749147
O O7 0.567037 0.000000 0.750000
O O8 0.598339 0.100735 0.000947
O O9 0.422511 0.607171 0.372043
O O10 0.572847 0.500000 0.750000
#
# Coordination Sequence:
#
# PCOD9547475 Si02
#       5
#     8   8   4   4   8
#     4  12  21  35  47  56  77  92 122 149 189 230
#     4  10  16  25  41  63  81  96 114 128 158 210
#     4  12  25  34  48  64  68  94 120 154 186 236
#     4  12  23  38  50  60  72  80 106 154 214 250
#     4  10  16  27  39  58  76 103 110 135 167 203
#
# _framework density 12.479222999999999
#
# number of rings (size 3 to 8) (size 9 to 14) (size 15 to 20)
#    0.000    1.000    5.000    9.000    0.000    0.000 
#    0.000    0.000    0.000    0.000    0.000    0.000 
#    0.000    0.000    0.000    0.000    0.000    0.000 
#
# Total GULP energy -178206.498950 kJ/mol
# GULP energy per Si atom -5568.953092 kJ/mol
# Density = 1.245082 g / cm^3
# Si number density = 12.479223 Si / 1000 Ang^3
#
#
#
# Elastic Constant Matrix: (Units=GPa)
#
#
# Indices 1 2 3 4 5 6 
#
# 1 73.1763 36.3155 32.0742 0.0000 0.0000 0.0000
# 2 36.3155 73.1764 32.0746 0.0000 0.0000 0.0000
# 3 32.0742 32.0746 140.6434 0.0000 0.0000 0.0000
# 4 0.0000 0.0000 0.0000 -20.5234 0.0000 0.0000
# 5 0.0000 0.0000 0.0000 0.0000 -20.4160 0.0000
# 6 0.0000 0.0000 0.0000 0.0000 0.0000 2.6558
#
#
#
# Elastic Compliance Matrix: (Units=1/GPa)
#
#
# Indices 1 2 3 4 5 6 
#
# 1 0.018835 -0.008294 -0.002404 0.000000 0.000000 0.000000
# 2 -0.008294 0.018835 -0.002404 0.000000 0.000000 0.000000
# 3 -0.002404 -0.002404 0.008207 0.000000 0.000000 0.000000
# 4 0.000000 0.000000 0.000000 -0.048725 0.000000 0.000000
# 5 0.000000 0.000000 0.000000 0.000000 -0.048981 0.000000
# 6 0.000000 0.000000 0.000000 0.000000 0.000000 0.376528
#
#
# Mechanical properties :
#
#
# Convention : Reuss Voigt Hill
#
# Bulk Modulus (GPa) = 50.82946 54.21385 52.52166
# Shear Modulus (GPa) = 13.98756 4.77875 9.38316
#
# Velocity S-wave (km/s) = 3.35157 1.95900 2.74506
# Velocity P-wave (km/s) = 7.46974 6.97528 7.22674
#
# Compressibility (1/GPa) = 0.01967363
#
# Stress axis : x y z
#
# Youngs Moduli (GPa) = 53.09175 53.09174 121.85181
#
# Poissons Ratio (x) = 0.44033 0.29293
# Poissons Ratio (y) = 0.44033 0.29294
# Poissons Ratio (z) = 0.12763 0.12764
#
# Static dielectric constant tensor:
#      x y z
#    x 1.397290 0.000000 0.000000 
#    y 0.000000 1.397270 0.000000 
#    z 0.000000 0.000000 2.048940 
# 
# From -- ./inp_files/8734.got.cif
#   From: 2010.05.17/outbox.cif.g08.bks.cpg/sg91_5_cif.got.tgz:8734.got - 2010.06.03 19:20:03.
