data_PCOD9547239
_publ_section_title
;
Structure prediction by ZEFSAII (Michael W. Deem and Ramdas Pophale) SiO2 
 PCOD9547239
Probable space group: P 4 21 2
;
_chemical_formula_sum "Si O2"
_cell_formula_units_Z 58
_cell_length_a 17.668293
_cell_length_b 17.668293
_cell_length_c 8.911260
_cell_angle_alpha 90.000000
_cell_angle_beta 90.000000
_cell_angle_gamma 90.000000
_cell_volume 2781.815358
_symmetry_space_group_name_H-M "P 4 21 2"
_symmetry_group_IT_number 90
_symmetry_cell_setting 'tetragonal'
loop_
_space_group_symop_operation_xyz
x,y,z
1/2-y,1/2+x,z
-x,-y,z
1/2+y,1/2-x,z
1/2+x,1/2-y,-z
1/2-x,1/2+y,-z
y,x,-z
-y,-x,-z
loop_
_atom_site_type_symbol
_atom_site_label
_atom_site_fract_x
_atom_site_fract_y
_atom_site_fract_z
Si Si1 0.253570 0.648436 0.108460
Si Si2 0.000000 0.500000 0.533387
Si Si3 0.611166 0.059648 0.160070
Si Si4 0.705686 0.648592 0.150618
Si Si5 0.377102 0.728757 0.534215
Si Si6 0.225239 0.349043 0.630094
Si Si7 0.488722 0.194704 0.878522
Si Si8 0.020142 0.672065 0.452969
O O1 0.194217 0.717008 0.113910
O O2 0.266963 0.632302 0.285493
O O3 0.220630 0.568487 0.051919
O O4 0.320614 0.679387 0.000000
O O5 0.028115 0.589460 0.524247
O O6 0.529901 0.097213 0.189012
O O7 0.676073 0.104672 0.247489
O O8 0.638924 0.055349 0.988705
O O9 0.669393 0.694995 0.290293
O O10 0.732133 0.562155 0.162538
O O11 0.656153 0.656153 0.000000
O O12 0.358744 0.641257 0.500000
O O13 0.318225 0.774571 0.426572
O O14 0.454509 0.771289 0.494198
O O15 0.218118 0.403045 0.485154
O O16 0.498685 0.154531 0.719535
#
# Coordination Sequence:
#
# PCOD9547239 Si02
#       8
#     8   2   8   8   8   8   8   8
#     4  10  23  40  67  95 127 172 220 278 326 394
#     4  12  24  36  60  94 156 176 212 262 344 424
#     4  11  25  37  57  91 137 178 212 258 329 405
#     4  11  22  41  63  93 127 168 222 274 325 395
#     4  11  22  41  63  91 129 171 227 267 325 397
#     4  12  23  40  64  91 131 175 218 275 321 395
#     4  11  24  41  62  94 130 170 226 270 335 395
#     4  11  26  38  62  98 132 181 214 274 343 406
#
# _framework density 20.849695000000001
#
# number of rings (size 3 to 8) (size 9 to 14) (size 15 to 20)
#    0.000    0.966    4.138    2.483    5.793    1.103 
#    0.000    0.000    0.000    0.414    0.000    0.966 
#    0.000    0.000    0.000    0.000    0.000    0.000 
#
# Total GULP energy -323004.018582 kJ/mol
# GULP energy per Si atom -5569.034803 kJ/mol
# Density = 2.080224 g / cm^3
# Si number density = 20.849695 Si / 1000 Ang^3
#
#
#
# Elastic Constant Matrix: (Units=GPa)
#
#
# Indices 1 2 3 4 5 6 
#
# 1 70.7539 45.5006 11.1175 0.0000 0.0000 0.0000
# 2 45.5006 70.7555 11.1175 0.0000 0.0000 0.0000
# 3 11.1175 11.1175 63.0111 0.0000 0.0000 0.0000
# 4 0.0000 0.0000 0.0000 33.2373 0.0000 0.0000
# 5 0.0000 0.0000 0.0000 0.0000 33.2369 0.0000
# 6 0.0000 0.0000 0.0000 0.0000 0.0000 32.5334
#
#
#
# Elastic Compliance Matrix: (Units=1/GPa)
#
#
# Indices 1 2 3 4 5 6 
#
# 1 0.024250 -0.015348 -0.001571 0.000000 0.000000 0.000000
# 2 -0.015348 0.024250 -0.001571 0.000000 0.000000 0.000000
# 3 -0.001571 -0.001571 0.016424 0.000000 0.000000 0.000000
# 4 0.000000 0.000000 0.000000 0.030087 0.000000 0.000000
# 5 0.000000 0.000000 0.000000 0.000000 0.030087 0.000000
# 6 0.000000 0.000000 0.000000 0.000000 0.000000 0.030738
#
#
# Mechanical properties :
#
#
# Convention : Reuss Voigt Hill
#
# Bulk Modulus (GPa) = 35.78314 37.77685 36.77999
# Shear Modulus (GPa) = 24.73666 28.92049 26.82858
#
# Velocity S-wave (km/s) = 3.44819 3.72841 3.59104
# Velocity P-wave (km/s) = 5.74918 6.05745 5.90533
#
# Compressibility (1/GPa) = 0.02794612
#
# Stress axis : x y z
#
# Youngs Moduli (GPa) = 41.23684 41.23786 60.88473
#
# Poissons Ratio (x) = 0.63291 0.09563
# Poissons Ratio (y) = 0.63289 0.09563
# Poissons Ratio (z) = 0.06477 0.06477
#
# Static dielectric constant tensor:
#      x y z
#    x 1.789450 0.000000 0.000000 
#    y 0.000000 1.789450 0.000000 
#    z 0.000000 0.000000 1.907310 
# 
# From -- ./inp_files/1649.got.cif
#   From: 2010.05.17/outbox.cif.g08.bks.cpg/sg90_1_cif.got.tgz:1649.got - 2010.06.03 19:17:45.
