data_PCOD9547610
_publ_section_title
;
Structure prediction by ZEFSAII (Michael W. Deem and Ramdas Pophale) SiO2 
 PCOD9547610
Probable space group: P 41 2 2
;
_chemical_formula_sum "Si O2"
_cell_formula_units_Z 36
_cell_length_a 15.123583
_cell_length_b 15.123583
_cell_length_c 7.140743
_cell_angle_alpha 90.000000
_cell_angle_beta 90.000000
_cell_angle_gamma 90.000000
_cell_volume 1633.250467
_symmetry_space_group_name_H-M "P 41 2 2"
_symmetry_group_IT_number 91
_symmetry_cell_setting 'tetragonal'
loop_
_space_group_symop_operation_xyz
x,y,z
-y,x,1/4+z
-x,-y,1/2+z
y,-x,3/4+z
x,-y,1/2-z
-x,y,-z
y,x,3/4-z
-y,-x,1/4-z
loop_
_atom_site_type_symbol
_atom_site_label
_atom_site_fract_x
_atom_site_fract_y
_atom_site_fract_z
Si Si1 0.586140 0.830336 0.116958
Si Si2 0.296615 0.326953 0.652986
Si Si3 0.857972 0.198299 0.336760
Si Si4 0.781330 0.500000 0.250000
Si Si5 0.957107 0.751159 0.702973
O O1 0.624227 0.731874 0.070906
O O2 0.557294 0.833128 0.339628
O O3 0.662494 0.897884 0.050501
O O4 0.500000 0.849521 0.000000
O O5 0.206378 0.276877 0.599214
O O6 0.279428 0.430635 0.635392
O O7 0.311975 0.311975 0.875000
O O8 0.832689 0.110977 0.450979
O O9 0.957532 0.232316 0.331017
O O10 0.827320 0.172680 0.125000
O O11 0.000000 0.749068 0.500000
#
# Coordination Sequence:
#
# PCOD9547610 Si02
#       5
#     8   8   8   4   8
#     4  10  21  36  56  88 118 155 199 248 309 369
#     4   8  16  32  55  78 113 152 194 234 300 366
#     4   8  14  27  51  81 107 150 193 242 293 359
#     4  10  18  34  60  80 110 156 200 244 298 376
#     4   9  16  31  53  86 113 153 203 246 303 365
#
# _framework density 22.041934000000001
#
# number of rings (size 3 to 8) (size 9 to 14) (size 15 to 20)
#    0.000    3.111    0.000    4.000    0.000    0.889 
#    8.000    0.000   22.000    0.000  104.000    0.000 
#    0.000    0.222    0.000    0.000    0.000    0.000 
#
# Total GULP energy -200589.327324 kJ/mol
# GULP energy per Si atom -5571.925759 kJ/mol
# Density = 2.199177 g / cm^3
# Si number density = 22.041934 Si / 1000 Ang^3
#
#
#
# Elastic Constant Matrix: (Units=GPa)
#
#
# Indices 1 2 3 4 5 6 
#
# 1 146.5280 59.1173 26.9790 0.0000 0.0000 0.0000
# 2 59.1173 146.5280 26.9790 0.0000 0.0000 0.0000
# 3 26.9790 26.9790 65.6432 0.0000 0.0000 0.0000
# 4 0.0000 0.0000 0.0000 18.4193 0.0000 0.0000
# 5 0.0000 0.0000 0.0000 0.0000 18.4193 0.0000
# 6 0.0000 0.0000 0.0000 0.0000 0.0000 -22.1275
#
#
#
# Elastic Compliance Matrix: (Units=1/GPa)
#
#
# Indices 1 2 3 4 5 6 
#
# 1 0.008445 -0.002995 -0.002240 0.000000 0.000000 0.000000
# 2 -0.002995 0.008445 -0.002240 0.000000 0.000000 0.000000
# 3 -0.002240 -0.002240 0.017075 0.000000 0.000000 0.000000
# 4 0.000000 0.000000 0.000000 0.054291 0.000000 0.000000
# 5 0.000000 0.000000 0.000000 0.000000 0.054291 0.000000
# 6 0.000000 0.000000 0.000000 0.000000 0.000000 -0.045193
#
#
# Mechanical properties :
#
#
# Convention : Reuss Voigt Hill
#
# Bulk Modulus (GPa) = 52.58805 64.98332 58.78568
# Shear Modulus (GPa) = 42.14299 19.31716 30.73007
#
# Velocity S-wave (km/s) = 4.37732 2.96359 3.73790
# Velocity P-wave (km/s) = 7.03263 6.42309 6.73476
#
# Compressibility (1/GPa) = 0.01901573
#
# Stress axis : x y z
#
# Youngs Moduli (GPa) = 118.40787 118.40787 58.56436
#
# Poissons Ratio (x) = 0.35462 0.13119
# Poissons Ratio (y) = 0.35462 0.13119
# Poissons Ratio (z) = 0.26525 0.26525
#
# Static dielectric constant tensor:
#      x y z
#    x 1.829660 0.000000 0.000000 
#    y 0.000000 1.829660 0.000000 
#    z 0.000000 0.000000 1.966640 
# 
# From -- ./inp_files/14904.got.cif
#   From: 2010.05.17/outbox.cif.g08.bks.cpg/sg91_8_cif.got.tgz:14904.got - 2010.06.03 19:20:03.
