data_PCOD9547532
_publ_section_title
;
Structure prediction by ZEFSAII (Michael W. Deem and Ramdas Pophale) SiO2 
 PCOD9547532
Probable space group: P 41 2 2
;
_chemical_formula_sum "Si O2"
_cell_formula_units_Z 48
_cell_length_a 12.356620
_cell_length_b 12.356620
_cell_length_c 16.940744
_cell_angle_alpha 90.000000
_cell_angle_beta 90.000000
_cell_angle_gamma 90.000000
_cell_volume 2586.615418
_symmetry_space_group_name_H-M "P 41 2 2"
_symmetry_group_IT_number 91
_symmetry_cell_setting 'tetragonal'
loop_
_space_group_symop_operation_xyz
x,y,z
-y,x,1/4+z
-x,-y,1/2+z
y,-x,3/4+z
x,-y,1/2-z
-x,y,-z
y,x,3/4-z
-y,-x,1/4-z
loop_
_atom_site_type_symbol
_atom_site_label
_atom_site_fract_x
_atom_site_fract_y
_atom_site_fract_z
Si Si1 0.600050 0.183825 0.904860
Si Si2 0.801955 0.362200 0.163417
Si Si3 0.936299 0.817263 0.805096
Si Si4 0.961768 0.631420 0.588725
Si Si5 0.431459 0.072659 0.423723
Si Si6 0.828291 0.836694 0.639260
O O1 0.482711 0.230347 0.882595
O O2 0.701535 0.190599 0.846489
O O3 0.577209 0.056882 0.917225
O O4 0.634908 0.220018 0.992711
O O5 0.732961 0.267040 0.125000
O O6 0.930622 0.350657 0.143707
O O7 0.883336 0.883336 0.875000
O O8 0.895730 0.692943 0.816348
O O9 0.894402 0.859158 0.720182
O O10 0.064389 0.826600 0.825993
O O11 0.903251 0.515989 0.604065
O O12 0.883433 0.730823 0.604216
O O13 0.000000 0.632838 0.500000
O O14 0.500000 0.104526 0.500000
#
# Coordination Sequence:
#
# PCOD9547532 Si02
#       6
#     8   8   8   8   8   8
#     4   9  18  34  57  78 108 152 189 224 288 340
#     4  10  18  33  55  83 113 141 182 240 289 335
#     4  11  24  38  60  84 119 161 200 237 301 362
#     4  11  21  32  57  91 111 146 197 243 291 346
#     4  10  17  39  60  75 110 156 193 242 283 339
#     4  11  22  39  57  82 123 159 193 239 291 362
#
# _framework density 18.557068000000001
#
# number of rings (size 3 to 8) (size 9 to 14) (size 15 to 20)
#    0.000    1.667    5.000    2.500    0.000    6.000 
#    0.000    0.000    0.000    5.000    0.000    0.000 
#    0.000    0.000    0.000    0.000    0.000    0.000 
#
# Total GULP energy -267231.225507 kJ/mol
# GULP energy per Si atom -5567.317198 kJ/mol
# Density = 1.851483 g / cm^3
# Si number density = 18.557068 Si / 1000 Ang^3
#
#
#
# Elastic Constant Matrix: (Units=GPa)
#
#
# Indices 1 2 3 4 5 6 
#
# 1 60.9961 44.1182 4.6633 0.0000 0.0000 0.0000
# 2 44.1182 60.9965 4.6638 0.0000 0.0000 0.0000
# 3 4.6633 4.6638 46.5649 0.0000 0.0000 0.0000
# 4 0.0000 0.0000 0.0000 18.1013 0.0000 0.0000
# 5 0.0000 0.0000 0.0000 0.0000 18.1019 0.0000
# 6 0.0000 0.0000 0.0000 0.0000 0.0000 -7.3946
#
#
#
# Elastic Compliance Matrix: (Units=1/GPa)
#
#
# Indices 1 2 3 4 5 6 
#
# 1 0.034424 -0.024825 -0.000961 0.000000 0.000000 0.000000
# 2 -0.024825 0.034424 -0.000962 0.000000 0.000000 0.000000
# 3 -0.000961 -0.000962 0.021668 0.000000 0.000000 0.000000
# 4 0.000000 0.000000 0.000000 0.055245 0.000000 0.000000
# 5 0.000000 0.000000 0.000000 0.000000 0.055243 0.000000
# 6 0.000000 0.000000 0.000000 0.000000 0.000000 -0.135233
#
#
# Mechanical properties :
#
#
# Convention : Reuss Voigt Hill
#
# Bulk Modulus (GPa) = 27.01234 30.60533 28.80884
# Shear Modulus (GPa) = 37.99263 13.43585 25.71424
#
# Velocity S-wave (km/s) = 4.52966 2.69370 3.72652
# Velocity P-wave (km/s) = 6.47650 5.11889 5.83730
#
# Compressibility (1/GPa) = 0.03702012
#
# Stress axis : x y z
#
# Youngs Moduli (GPa) = 29.04977 29.04991 46.15113
#
# Poissons Ratio (x) = 0.72116 0.04435
# Poissons Ratio (y) = 0.72116 0.04438
# Poissons Ratio (z) = 0.02792 0.02793
#
# Static dielectric constant tensor:
#      x y z
#    x 1.725360 0.000000 0.000000 
#    y 0.000000 1.725360 0.000000 
#    z 0.000000 0.000000 1.694960 
# 
# From -- ./inp_files/16921.got.cif
#   From: 2010.05.17/outbox.cif.g08.bks.cpg/sg91_9_cif.got.tgz:16921.got - 2010.06.03 19:20:03.
