data_PCOD9547147
_publ_section_title
;
Structure prediction by ZEFSAII (Michael W. Deem and Ramdas Pophale) SiO2 
 PCOD9547147
Probable space group: P 4 21 2
;
_chemical_formula_sum "Si O2"
_cell_formula_units_Z 56
_cell_length_a 11.788046
_cell_length_b 11.788046
_cell_length_c 19.476883
_cell_angle_alpha 90.000000
_cell_angle_beta 90.000000
_cell_angle_gamma 90.000000
_cell_volume 2706.469263
_symmetry_space_group_name_H-M "P 4 21 2"
_symmetry_group_IT_number 90
_symmetry_cell_setting 'tetragonal'
loop_
_space_group_symop_operation_xyz
x,y,z
1/2-y,1/2+x,z
-x,-y,z
1/2+y,1/2-x,z
1/2+x,1/2-y,-z
1/2-x,1/2+y,-z
y,x,-z
-y,-x,-z
loop_
_atom_site_type_symbol
_atom_site_label
_atom_site_fract_x
_atom_site_fract_y
_atom_site_fract_z
Si Si1 0.186469 0.529720 0.074509
Si Si2 0.397301 0.589066 0.167208
Si Si3 0.671602 0.205127 0.405112
Si Si4 0.378878 0.542025 0.689010
Si Si5 0.862501 0.627994 0.437857
Si Si6 0.670371 0.058671 0.276127
Si Si7 0.962143 0.685757 0.913384
O O1 0.125411 0.409272 0.085584
O O2 0.290936 0.545423 0.124423
O O3 0.218190 0.539784 0.994082
O O4 0.500000 0.500000 0.163882
O O5 0.370484 0.605002 0.248172
O O6 0.436490 0.705389 0.131557
O O7 0.591775 0.303167 0.372287
O O8 0.794491 0.266303 0.402871
O O9 0.648048 0.162206 0.481554
O O10 0.658147 0.097079 0.355859
O O11 0.500000 0.500000 0.664702
O O12 0.305982 0.442214 0.727652
O O13 0.844741 0.494803 0.422454
O O14 0.567084 0.136010 0.250318
O O15 0.870541 0.585516 0.901490
#
# Coordination Sequence:
#
# PCOD9547147 Si02
#       7
#     8   8   8   8   8   8   8
#     4   9  20  41  64  87 120 166 210 255 315 378
#     4  11  24  39  58  92 126 162 209 263 316 372
#     4  10  21  38  63  90 115 161 197 245 310 366
#     4  10  23  40  56  86 124 163 200 251 303 364
#     4  10  21  38  60  91 123 151 196 250 302 365
#     4   9  18  36  62  86 110 151 201 242 295 360
#     4   9  20  38  62  92 124 157 203 263 324 381
#
# _framework density 20.691164000000001
#
# number of rings (size 3 to 8) (size 9 to 14) (size 15 to 20)
#    0.000    2.286    0.000    3.000    4.000    5.714 
#    5.143    3.571    0.000    1.714    0.000    0.000 
#    0.000    0.000    0.000    0.000    0.000    0.000 
#
# Total GULP energy -311972.275451 kJ/mol
# GULP energy per Si atom -5570.933490 kJ/mol
# Density = 2.064407 g / cm^3
# Si number density = 20.691164 Si / 1000 Ang^3
#
#
#
# Elastic Constant Matrix: (Units=GPa)
#
#
# Indices 1 2 3 4 5 6 
#
# 1 69.0658 11.5286 2.2231 0.0000 0.0000 0.0000
# 2 11.5286 69.0658 2.2231 0.0000 0.0000 0.0000
# 3 2.2231 2.2231 53.9646 0.0000 0.0000 0.0000
# 4 0.0000 0.0000 0.0000 21.3464 0.0000 0.0000
# 5 0.0000 0.0000 0.0000 0.0000 21.3464 0.0000
# 6 0.0000 0.0000 0.0000 0.0000 0.0000 12.4383
#
#
#
# Elastic Compliance Matrix: (Units=1/GPa)
#
#
# Indices 1 2 3 4 5 6 
#
# 1 0.014908 -0.002472 -0.000512 0.000000 0.000000 0.000000
# 2 -0.002472 0.014908 -0.000512 0.000000 0.000000 0.000000
# 3 -0.000512 -0.000512 0.018573 0.000000 0.000000 0.000000
# 4 0.000000 0.000000 0.000000 0.046846 0.000000 0.000000
# 5 0.000000 0.000000 0.000000 0.000000 0.046846 0.000000
# 6 0.000000 0.000000 0.000000 0.000000 0.000000 0.080397
#
#
# Mechanical properties :
#
#
# Convention : Reuss Voigt Hill
#
# Bulk Modulus (GPa) = 24.15706 24.89399 24.52553
# Shear Modulus (GPa) = 20.55328 22.76765 21.66047
#
# Velocity S-wave (km/s) = 3.15514 3.32076 3.23901
# Velocity P-wave (km/s) = 4.99736 5.17307 5.08597
#
# Compressibility (1/GPa) = 0.04139576
#
# Stress axis : x y z
#
# Youngs Moduli (GPa) = 67.07779 67.07779 53.84198
#
# Poissons Ratio (x) = 0.16582 0.02758
# Poissons Ratio (y) = 0.16582 0.02758
# Poissons Ratio (z) = 0.03436 0.03436
#
# Static dielectric constant tensor:
#      x y z
#    x 1.768490 0.000000 0.000000 
#    y 0.000000 1.768490 0.000000 
#    z 0.000000 0.000000 1.778480 
# 
# From -- ./inp_files/2826.got.cif
#   From: 2010.05.17/outbox.cif.g08.bks.cpg/sg90_2_cif.got.tgz:2826.got - 2010.06.03 19:17:45.
