data_PCOD9547471
_publ_section_title
;
Structure prediction by ZEFSAII (Michael W. Deem and Ramdas Pophale) SiO2 
 PCOD9547471
Probable space group: P 41 2 2
;
_chemical_formula_sum "Si O2"
_cell_formula_units_Z 40
_cell_length_a 10.226640
_cell_length_b 10.226640
_cell_length_c 17.925589
_cell_angle_alpha 90.000000
_cell_angle_beta 90.000000
_cell_angle_gamma 90.000000
_cell_volume 1874.732770
_symmetry_space_group_name_H-M "P 41 2 2"
_symmetry_group_IT_number 91
_symmetry_cell_setting 'tetragonal'
loop_
_space_group_symop_operation_xyz
x,y,z
-y,x,1/4+z
-x,-y,1/2+z
y,-x,3/4+z
x,-y,1/2-z
-x,y,-z
y,x,3/4-z
-y,-x,1/4-z
loop_
_atom_site_type_symbol
_atom_site_label
_atom_site_fract_x
_atom_site_fract_y
_atom_site_fract_z
Si Si1 0.455033 0.035316 0.078030
Si Si2 0.801555 0.624990 0.429164
Si Si3 0.005020 0.203684 0.411055
Si Si4 0.247449 0.238576 0.670749
Si Si5 0.592437 0.584737 0.678589
O O1 0.572260 0.076977 0.131854
O O2 0.347411 0.962967 0.127961
O O3 0.373881 0.169688 0.056397
O O4 0.500000 0.975702 0.000000
O O5 0.717104 0.717104 0.375000
O O6 0.828735 0.701044 0.505266
O O7 0.710028 0.498990 0.448618
O O8 0.862531 0.167364 0.377724
O O9 0.000000 0.203837 0.500000
O O10 0.106413 0.106413 0.375000
O O11 0.362890 0.284218 0.616949
O O12 0.626385 0.500000 0.750000
O O13 0.504466 0.495535 0.625000
#
# Coordination Sequence:
#
# PCOD9547471 Si02
#       5
#     8   8   8   8   8
#     4   9  18  34  62  98 131 168 206 265 344 392
#     4  10  15  26  52  94 137 155 193 245 317 401
#     4  10  23  46  67  85 120 179 237 290 333 378
#     4   9  19  32  57  90 125 176 211 247 328 388
#     4  10  17  24  45  86 137 165 187 229 314 399
#
# _framework density 21.336372999999998
#
# number of rings (size 3 to 8) (size 9 to 14) (size 15 to 20)
#    1.200    1.200    4.000    0.000    0.000    0.000 
#    0.000    8.000    0.000    0.000    0.000    0.000 
#    0.000    0.000    0.000    0.400    0.000    0.000 
#
# Total GULP energy -223239.201118 kJ/mol
# GULP energy per Si atom -5580.980028 kJ/mol
# Density = 2.128781 g / cm^3
# Si number density = 21.336373 Si / 1000 Ang^3
#
#
#
# Elastic Constant Matrix: (Units=GPa)
#
#
# Indices 1 2 3 4 5 6 
#
# 1 49.0319 47.5233 64.0274 0.0000 0.0000 0.0000
# 2 47.5233 49.0313 64.0271 0.0000 0.0000 0.0000
# 3 64.0274 64.0271 211.8467 0.0000 0.0000 0.0000
# 4 0.0000 0.0000 0.0000 -56.8154 0.0000 0.0000
# 5 0.0000 0.0000 0.0000 0.0000 -56.7172 0.0000
# 6 0.0000 0.0000 0.0000 0.0000 0.0000 28.5172
#
#
#
# Elastic Compliance Matrix: (Units=1/GPa)
#
#
# Indices 1 2 3 4 5 6 
#
# 1 0.340133 -0.322850 -0.005224 0.000000 0.000000 0.000000
# 2 -0.322850 0.340138 -0.005224 0.000000 0.000000 0.000000
# 3 -0.005224 -0.005224 0.007878 0.000000 0.000000 0.000000
# 4 0.000000 0.000000 0.000000 -0.017601 0.000000 0.000000
# 5 0.000000 0.000000 0.000000 0.000000 -0.017631 0.000000
# 6 0.000000 0.000000 0.000000 0.000000 0.000000 0.035067
#
#
# Mechanical properties :
#
#
# Convention : Reuss Voigt Hill
#
# Bulk Modulus (GPa) = 46.39923 73.45174 59.92548
# Shear Modulus (GPa) = 3.67171 -8.04762 -2.18795
#
# Velocity S-wave (km/s) = 1.31324 -1.94421 -1.01375
# Velocity P-wave (km/s) = 4.90848 5.42774 5.17463
#
# Compressibility (1/GPa) = 0.02155208
#
# Stress axis : x y z
#
# Youngs Moduli (GPa) = 2.94002 2.93999 126.93144
#
# Poissons Ratio (x) = 0.94918 0.66310
# Poissons Ratio (y) = 0.94919 0.66313
# Poissons Ratio (z) = 0.01536 0.01536
#
# Static dielectric constant tensor:
#      x y z
#    x 1.803320 0.000000 0.000000 
#    y 0.000000 1.803310 0.000000 
#    z 0.000000 0.000000 1.735590 
# 
# From -- ./inp_files/11349.got.cif
#   From: 2010.05.17/outbox.cif.g08.bks.cpg/sg91_6_cif.got.tgz:11349.got - 2010.06.03 19:20:03.
