data_PCOD9547003
_publ_section_title
;
Structure prediction by ZEFSAII (Michael W. Deem and Ramdas Pophale) SiO2 
 PCOD9547003
Probable space group: P 4 2 2
;
_chemical_formula_sum "Si O2"
_cell_formula_units_Z 34
_cell_length_a 11.789616
_cell_length_b 11.789616
_cell_length_c 10.747468
_cell_angle_alpha 90.000000
_cell_angle_beta 90.000000
_cell_angle_gamma 90.000000
_cell_volume 1493.844803
_symmetry_space_group_name_H-M "P 4 2 2"
_symmetry_group_IT_number 89
_symmetry_cell_setting 'tetragonal'
loop_
_space_group_symop_operation_xyz
x,y,z
-y,x,z
-x,-y,z
y,-x,z
x,-y,-z
-x,y,-z
y,x,-z
-y,-x,-z
loop_
_atom_site_type_symbol
_atom_site_label
_atom_site_fract_x
_atom_site_fract_y
_atom_site_fract_z
Si Si1 0.269497 0.845022 0.621363
Si Si2 0.678050 0.000000 0.000000
Si Si3 0.500000 0.500000 0.657629
Si Si4 0.492823 0.752848 0.277312
Si Si5 0.718580 0.922034 0.734023
Si Si6 0.202900 0.500000 0.000000
O O1 0.219166 0.780835 0.500000
O O2 0.392299 0.799764 0.662133
O O3 0.175739 0.809785 0.721788
O O4 0.274523 0.980534 0.630822
O O5 0.733618 0.980781 0.867326
O O6 0.603748 0.885198 0.011657
O O7 0.458766 0.365704 0.660457
O O8 0.400601 0.854324 0.281375
O O9 0.501240 0.728060 0.128292
#
# Coordination Sequence:
#
# PCOD9547003 Si02
#       6
#     8   4   2   8   8   4
#     4  12  26  46  73 107 146 202 261 315 381 466
#     4   9  18  38  72 105 144 198 245 312 381 476
#     4  12  24  45  69 116 146 192 253 309 384 466
#     4  11  23  45  71 108 154 196 248 315 394 461
#     4  11  24  46  74 109 147 199 256 317 400 456
#     4   9  18  37  70 102 148 195 249 302 380 480
#
# _framework density 22.760064
#
# number of rings (size 3 to 8) (size 9 to 14) (size 15 to 20)
#    0.000    1.176    4.706    1.412    0.000    3.765 
#    0.000    4.118    0.000    1.412    0.000    0.000 
#    0.000    0.000    0.000    0.000    0.000    0.000 
#
# Total GULP energy -189351.366530 kJ/mol
# GULP energy per Si atom -5569.157839 kJ/mol
# Density = 2.270826 g / cm^3
# Si number density = 22.760064 Si / 1000 Ang^3
#
#
#
# Elastic Constant Matrix: (Units=GPa)
#
#
# Indices 1 2 3 4 5 6 
#
# 1 56.8580 114.9316 43.9269 0.0000 0.0000 0.0000
# 2 114.9316 56.8603 43.9287 0.0000 0.0000 0.0000
# 3 43.9269 43.9287 130.1328 0.0000 0.0000 0.0000
# 4 0.0000 0.0000 0.0000 17.3313 0.0000 0.0000
# 5 0.0000 0.0000 0.0000 0.0000 17.3312 0.0000
# 6 0.0000 0.0000 0.0000 0.0000 0.0000 -96.2026
#
#
#
# Elastic Compliance Matrix: (Units=1/GPa)
#
#
# Indices 1 2 3 4 5 6 
#
# 1 -0.005092 0.012128 -0.002375 0.000000 0.000000 0.000000
# 2 0.012128 -0.005092 -0.002375 0.000000 0.000000 0.000000
# 3 -0.002375 -0.002375 0.009288 0.000000 0.000000 0.000000
# 4 0.000000 0.000000 0.000000 0.057699 0.000000 0.000000
# 5 0.000000 0.000000 0.000000 0.000000 0.057699 0.000000
# 6 0.000000 0.000000 0.000000 0.000000 0.000000 -0.010395
#
#
# Mechanical properties :
#
#
# Convention : Reuss Voigt Hill
#
# Bulk Modulus (GPa) = 72.15393 72.15840 72.15616
# Shear Modulus (GPa) = 53.20772 -9.57041 21.81866
#
# Velocity S-wave (km/s) = 4.84029 -2.05281 3.09955
# Velocity P-wave (km/s) = 7.93780 5.11410 6.67693
#
# Compressibility (1/GPa) = 0.01385926
#
# Stress axis : x y z
#
# Youngs Moduli (GPa) = -196.37860 -196.38386 107.66766
#
# Poissons Ratio (x) = 2.38169 0.25572
# Poissons Ratio (y) = 2.38163 0.25569
# Poissons Ratio (z) = -0.46641 -0.46638
#
# Static dielectric constant tensor:
#      x y z
#    x 1.839490 0.000000 0.000000 
#    y 0.000000 1.839490 0.000000 
#    z 0.000000 0.000000 1.992760 
# 
# From -- ./inp_files/1654.got.cif
#   From: 2010.05.17/outbox.cif.g08.bks.cpg/sg89_1_cif.got.tgz:1654.got - 2010.06.03 19:15:31.
