data_PCOD9548474
_publ_section_title
;
Structure prediction by ZEFSAII (Michael W. Deem and Ramdas Pophale) SiO2 
 PCOD9548474
Probable space group: P 41 2 2
;
_chemical_formula_sum "Si O2"
_cell_formula_units_Z 56
_cell_length_a 10.903714
_cell_length_b 10.903714
_cell_length_c 21.037872
_cell_angle_alpha 90.000000
_cell_angle_beta 90.000000
_cell_angle_gamma 90.000000
_cell_volume 2501.213198
_symmetry_space_group_name_H-M "P 41 2 2"
_symmetry_group_IT_number 91
_symmetry_cell_setting 'tetragonal'
loop_
_space_group_symop_operation_xyz
x,y,z
-y,x,1/4+z
-x,-y,1/2+z
y,-x,3/4+z
x,-y,1/2-z
-x,y,-z
y,x,3/4-z
-y,-x,1/4-z
loop_
_atom_site_type_symbol
_atom_site_label
_atom_site_fract_x
_atom_site_fract_y
_atom_site_fract_z
Si Si1 0.000000 0.770342 0.500000
Si Si2 0.526269 0.526269 0.875000
Si Si3 0.007321 0.856983 0.924478
Si Si4 0.795416 0.514900 0.675478
Si Si5 0.071469 0.727170 0.365459
Si Si6 0.051065 0.387965 0.636142
Si Si7 0.733971 0.460804 0.179417
Si Si8 0.864768 0.736024 0.267950
O O1 0.033505 0.696692 0.436824
O O2 0.119183 0.849717 0.515488
O O3 0.525130 0.658622 0.908045
O O4 0.510908 0.401742 0.916829
O O5 0.128309 0.916653 0.893675
O O6 0.030609 0.711468 0.918533
O O7 0.899695 0.899695 0.875000
O O8 0.000000 0.887294 0.000000
O O9 0.809810 0.500000 0.750000
O O10 0.806332 0.655472 0.652462
O O11 0.917033 0.448707 0.647000
O O12 0.972328 0.690119 0.313389
O O13 0.165305 0.483278 0.631156
O O14 0.096037 0.308429 0.697852
O O15 0.776926 0.500000 0.250000
O O16 0.744420 0.315937 0.194704
#
# Coordination Sequence:
#
# PCOD9548474 Si02
#       8
#     4   4   8   8   8   8   8   8
#     4  12  26  40  72 122 150 178 252 324 376 450
#     4  12  28  42  72 110 142 192 260 322 370 452
#     4  12  27  43  73 110 152 194 244 313 390 458
#     4  12  26  49  73 101 144 204 254 309 389 466
#     4  12  25  45  71 104 148 192 241 308 380 458
#     4  11  22  48  71  99 143 198 249 301 372 467
#     4  10  23  46  70  97 136 191 247 299 365 447
#     4  11  22  44  75 103 146 195 240 303 383 451
#
# _framework density 22.389136000000001
#
# number of rings (size 3 to 8) (size 9 to 14) (size 15 to 20)
#    0.000    0.571    4.286    3.857    7.000    0.000 
#    1.286    1.429    0.000    0.000    0.000    0.000 
#    0.000    0.000    0.000    0.000    0.000    0.000 
#
# Total GULP energy -312253.161368 kJ/mol
# GULP energy per Si atom -5575.949310 kJ/mol
# Density = 2.233818 g / cm^3
# Si number density = 22.389136 Si / 1000 Ang^3
#
#
#
# Elastic Constant Matrix: (Units=GPa)
#
#
# Indices 1 2 3 4 5 6 
#
# 1 97.1456 32.1415 19.2546 0.0000 0.0000 0.0000
# 2 32.1415 97.1456 19.2546 0.0000 0.0000 0.0000
# 3 19.2546 19.2546 117.6749 0.0000 0.0000 0.0000
# 4 0.0000 0.0000 0.0000 19.4733 0.0000 0.0000
# 5 0.0000 0.0000 0.0000 0.0000 19.4733 0.0000
# 6 0.0000 0.0000 0.0000 0.0000 0.0000 -31.6825
#
#
#
# Elastic Compliance Matrix: (Units=1/GPa)
#
#
# Indices 1 2 3 4 5 6 
#
# 1 0.011757 -0.003626 -0.001330 0.000000 0.000000 0.000000
# 2 -0.003626 0.011757 -0.001330 0.000000 0.000000 0.000000
# 3 -0.001330 -0.001330 0.008933 0.000000 0.000000 0.000000
# 4 0.000000 0.000000 0.000000 0.051352 0.000000 0.000000
# 5 0.000000 0.000000 0.000000 0.000000 0.051352 0.000000
# 6 0.000000 0.000000 0.000000 0.000000 0.000000 -0.031563
#
#
# Mechanical properties :
#
#
# Convention : Reuss Voigt Hill
#
# Bulk Modulus (GPa) = 50.31793 50.36306 50.34050
# Shear Modulus (GPa) = 40.72047 17.54052 29.13050
#
# Velocity S-wave (km/s) = 4.26932 2.80203 3.61099
# Velocity P-wave (km/s) = 6.84294 5.74559 6.31813
#
# Compressibility (1/GPa) = 0.01987363
#
# Stress axis : x y z
#
# Youngs Moduli (GPa) = 85.05336 85.05336 111.93978
#
# Poissons Ratio (x) = 0.30843 0.14893
# Poissons Ratio (y) = 0.30843 0.14893
# Poissons Ratio (z) = 0.11316 0.11316
#
# Static dielectric constant tensor:
#      x y z
#    x 1.934310 0.000000 0.000000 
#    y 0.000000 1.934310 0.000000 
#    z 0.000000 0.000000 1.829850 
# 
# From -- ./inp_files/17337.got.cif
#   From: 2010.05.17/outbox.cif.g08.bks.cpg/sg91_9_cif.got.tgz:17337.got - 2010.06.03 19:20:03.
