data_PCOD9548643
_publ_section_title
;
Structure prediction by ZEFSAII (Michael W. Deem and Ramdas Pophale) SiO2 
 PCOD9548643
Probable space group: P 41 2 2
;
_chemical_formula_sum "Si O2"
_cell_formula_units_Z 32
_cell_length_a 10.953378
_cell_length_b 10.953378
_cell_length_c 12.374920
_cell_angle_alpha 90.000000
_cell_angle_beta 90.000000
_cell_angle_gamma 90.000000
_cell_volume 1484.699461
_symmetry_space_group_name_H-M "P 41 2 2"
_symmetry_group_IT_number 91
_symmetry_cell_setting 'tetragonal'
loop_
_space_group_symop_operation_xyz
x,y,z
-y,x,1/4+z
-x,-y,1/2+z
y,-x,3/4+z
x,-y,1/2-z
-x,y,-z
y,x,3/4-z
-y,-x,1/4-z
loop_
_atom_site_type_symbol
_atom_site_label
_atom_site_fract_x
_atom_site_fract_y
_atom_site_fract_z
Si Si1 0.408166 0.739412 0.700173
Si Si2 0.636883 0.070718 0.038110
Si Si3 0.215006 0.627428 0.309119
Si Si4 0.866977 0.672844 0.055260
O O1 0.377849 0.622151 0.625000
O O2 0.333636 0.847116 0.640348
O O3 0.372163 0.720660 0.823900
O O4 0.543271 0.796413 0.703798
O O5 0.626672 0.930685 0.070750
O O6 0.500000 0.106355 0.000000
O O7 0.709955 0.100076 0.928963
O O8 0.249165 0.500000 0.250000
O O9 0.242267 0.759845 0.257811
O O10 0.000000 0.664896 0.000000
#
# Coordination Sequence:
#
# PCOD9548643 Si02
#       4
#     8   8   8   8
#     4  11  21  40  67  93 127 179 237 282 335 425
#     4   9  19  38  65  92 126 181 235 275 343 424
#     4  11  23  40  66 102 136 176 231 298 348 415
#     4  11  23  41  67  96 139 188 226 282 361 435
#
# _framework density 21.553184000000002
#
# number of rings (size 3 to 8) (size 9 to 14) (size 15 to 20)
#    0.000    1.500    2.500    5.250    0.000    4.000 
#    4.500    0.000    5.500    0.000    0.000    0.000 
#    0.000    0.000    0.000    0.000    0.000    0.000 
#
# Total GULP energy -178183.660572 kJ/mol
# GULP energy per Si atom -5568.239393 kJ/mol
# Density = 2.150413 g / cm^3
# Si number density = 21.553184 Si / 1000 Ang^3
#
#
#
# Elastic Constant Matrix: (Units=GPa)
#
#
# Indices 1 2 3 4 5 6 
#
# 1 60.6808 45.1004 26.6840 0.0000 0.0000 0.0000
# 2 45.1004 60.6816 26.6843 0.0000 0.0000 0.0000
# 3 26.6840 26.6843 108.0145 0.0000 0.0000 0.0000
# 4 0.0000 0.0000 0.0000 19.4710 0.0000 0.0000
# 5 0.0000 0.0000 0.0000 0.0000 19.4705 0.0000
# 6 0.0000 0.0000 0.0000 0.0000 0.0000 4.1355
#
#
#
# Elastic Compliance Matrix: (Units=1/GPa)
#
#
# Indices 1 2 3 4 5 6 
#
# 1 0.037491 -0.026691 -0.002668 0.000000 0.000000 0.000000
# 2 -0.026691 0.037490 -0.002668 0.000000 0.000000 0.000000
# 3 -0.002668 -0.002668 0.010576 0.000000 0.000000 0.000000
# 4 0.000000 0.000000 0.000000 0.051359 0.000000 0.000000
# 5 0.000000 0.000000 0.000000 0.000000 0.051360 0.000000
# 6 0.000000 0.000000 0.000000 0.000000 0.000000 0.241806
#
#
# Mechanical properties :
#
#
# Convention : Reuss Voigt Hill
#
# Bulk Modulus (GPa) = 46.50426 47.36824 46.93625
# Shear Modulus (GPa) = 9.97402 17.34262 13.65832
#
# Velocity S-wave (km/s) = 2.15353 2.83970 2.52008
# Velocity P-wave (km/s) = 5.27323 5.72512 5.50381
#
# Compressibility (1/GPa) = 0.02150341
#
# Stress axis : x y z
#
# Youngs Moduli (GPa) = 26.67334 26.67367 94.55195
#
# Poissons Ratio (x) = 0.71195 0.25226
# Poissons Ratio (y) = 0.71194 0.25226
# Poissons Ratio (z) = 0.07116 0.07116
#
# Static dielectric constant tensor:
#      x y z
#    x 1.815960 0.000000 0.000000 
#    y 0.000000 1.815960 0.000000 
#    z 0.000000 0.000000 1.926240 
# 
# From -- ./inp_files/3377.got.cif
#   From: 2010.05.17/outbox.cif.g08.bks.cpg/sg91_2_cif.got.tgz:3377.got - 2010.06.03 19:20:03.
