data_PCOD9548903
_publ_section_title
;
Structure prediction by ZEFSAII (Michael W. Deem and Ramdas Pophale) SiO2 
 PCOD9548903
Probable space group: P 41 21 2
;
_chemical_formula_sum "Si O2"
_cell_formula_units_Z 44
_cell_length_a 11.239882
_cell_length_b 11.239882
_cell_length_c 17.200681
_cell_angle_alpha 90.000000
_cell_angle_beta 90.000000
_cell_angle_gamma 90.000000
_cell_volume 2173.047129
_symmetry_space_group_name_H-M "P 41 21 2"
_symmetry_group_IT_number 92
_symmetry_cell_setting 'tetragonal'
loop_
_space_group_symop_operation_xyz
x,y,z
1/2-y,1/2+x,1/4+z
-x,-y,1/2+z
1/2+y,1/2-x,3/4+z
1/2+x,1/2-y,3/4-z
1/2-x,1/2+y,1/4-z
y,x,-z
-y,-x,1/2-z
loop_
_atom_site_type_symbol
_atom_site_label
_atom_site_fract_x
_atom_site_fract_y
_atom_site_fract_z
Si Si1 0.552764 0.537819 0.914303
Si Si2 0.411471 0.217352 0.742852
Si Si3 0.274779 0.872304 0.590941
Si Si4 0.528656 0.471345 0.750000
Si Si5 0.977711 0.677642 0.655635
Si Si6 0.397420 0.804154 0.735583
O O1 0.582784 0.677780 0.905086
O O2 0.482280 0.516097 0.834083
O O3 0.678808 0.469750 0.905991
O O4 0.507267 0.507267 0.000000
O O5 0.290402 0.261254 0.700393
O O6 0.491202 0.333905 0.754554
O O7 0.479629 0.138610 0.679249
O O8 0.381400 0.143305 0.817903
O O9 0.386906 0.835581 0.643626
O O10 0.283415 0.973288 0.524625
O O11 0.082372 0.647169 0.715306
O O12 0.306171 0.693830 0.750000
#
# Coordination Sequence:
#
# PCOD9548903 Si02
#       6
#     8   8   8   4   8   8
#     4  10  18  37  60  91 126 165 213 267 324 382
#     4  10  21  41  61  94 126 176 212 273 327 395
#     4  10  22  34  58  97 129 162 212 273 336 377
#     4   8  20  36  60  90 120 174 218 248 330 390
#     4  10  19  36  61  85 125 160 214 257 326 382
#     4  12  20  36  61  98 130 158 214 280 328 379
#
# _framework density 20.248063999999999
#
# number of rings (size 3 to 8) (size 9 to 14) (size 15 to 20)
#    0.000    2.182    5.455    1.091    5.091    0.000 
#    0.000    7.273    8.000    2.182    0.000    0.000 
#    0.000    0.000    0.000    0.000    0.000    0.000 
#
# Total GULP energy -245015.231700 kJ/mol
# GULP energy per Si atom -5568.527993 kJ/mol
# Density = 2.020198 g / cm^3
# Si number density = 20.248064 Si / 1000 Ang^3
#
#
#
# Elastic Constant Matrix: (Units=GPa)
#
#
# Indices 1 2 3 4 5 6 
#
# 1 36.2307 24.7004 32.4707 0.0000 0.0000 0.0000
# 2 24.7004 36.2303 32.4700 0.0000 0.0000 0.0000
# 3 32.4707 32.4700 122.1054 0.0000 0.0000 0.0000
# 4 0.0000 0.0000 0.0000 28.3016 0.0000 0.0000
# 5 0.0000 0.0000 0.0000 0.0000 28.3018 0.0000
# 6 0.0000 0.0000 0.0000 0.0000 0.0000 6.5485
#
#
#
# Elastic Compliance Matrix: (Units=1/GPa)
#
#
# Indices 1 2 3 4 5 6 
#
# 1 0.054817 -0.031913 -0.006091 0.000000 0.000000 0.000000
# 2 -0.031913 0.054817 -0.006090 0.000000 0.000000 0.000000
# 3 -0.006091 -0.006090 0.011429 0.000000 0.000000 0.000000
# 4 0.000000 0.000000 0.000000 0.035334 0.000000 0.000000
# 5 0.000000 0.000000 0.000000 0.000000 0.035333 0.000000
# 6 0.000000 0.000000 0.000000 0.000000 0.000000 0.152706
#
#
# Mechanical properties :
#
#
# Convention : Reuss Voigt Hill
#
# Bulk Modulus (GPa) = 30.41959 41.53874 35.97917
# Shear Modulus (GPa) = 11.27189 19.62539 15.44864
#
# Velocity S-wave (km/s) = 2.36199 3.11665 2.76519
# Velocity P-wave (km/s) = 4.74286 5.78885 5.29176
#
# Compressibility (1/GPa) = 0.03287356
#
# Stress axis : x y z
#
# Youngs Moduli (GPa) = 18.24264 18.24260 87.49814
#
# Poissons Ratio (x) = 0.58218 0.53293
# Poissons Ratio (y) = 0.58218 0.53288
# Poissons Ratio (z) = 0.11111 0.11110
#
# Static dielectric constant tensor:
#      x y z
#    x 1.761520 0.000000 0.000000 
#    y 0.000000 1.761520 0.000000 
#    z 0.000000 0.000000 1.772450 
# 
# From -- ./inp_files/3053.got.cif
#   From: 2010.05.17/outbox.cif.g08.bks.cpg/sg92_2_cif.got.tgz:3053.got - 2010.06.03 19:35:17.
