data_PCOD9548640
_publ_section_title
;
Structure prediction by ZEFSAII (Michael W. Deem and Ramdas Pophale) SiO2 
 PCOD9548640
Probable space group: P 41 2 2
;
_chemical_formula_sum "Si O2"
_cell_formula_units_Z 40
_cell_length_a 10.969983
_cell_length_b 10.969983
_cell_length_c 15.194782
_cell_angle_alpha 90.000000
_cell_angle_beta 90.000000
_cell_angle_gamma 90.000000
_cell_volume 1828.548074
_symmetry_space_group_name_H-M "P 41 2 2"
_symmetry_group_IT_number 91
_symmetry_cell_setting 'tetragonal'
loop_
_space_group_symop_operation_xyz
x,y,z
-y,x,1/4+z
-x,-y,1/2+z
y,-x,3/4+z
x,-y,1/2-z
-x,y,-z
y,x,3/4-z
-y,-x,1/4-z
loop_
_atom_site_type_symbol
_atom_site_label
_atom_site_fract_x
_atom_site_fract_y
_atom_site_fract_z
Si Si1 0.918644 0.737680 0.924601
Si Si2 0.609700 0.331508 0.935977
Si Si3 0.938177 0.643899 0.240825
Si Si4 0.734491 0.074445 0.165747
Si Si5 0.505843 0.788460 0.738058
O O1 0.820214 0.820214 0.875000
O O2 0.006391 0.691921 0.848050
O O3 0.860505 0.618450 0.970721
O O4 0.000000 0.802076 0.000000
O O5 0.663061 0.208118 0.981171
O O6 0.558239 0.293271 0.841639
O O7 0.500000 0.369365 0.000000
O O8 0.707693 0.438099 0.938665
O O9 0.953666 0.500000 0.250000
O O10 0.999340 0.702582 0.326997
O O11 0.828962 0.171039 0.125000
O O12 0.604176 0.131700 0.195874
O O13 0.781402 0.000000 0.250000
#
# Coordination Sequence:
#
# PCOD9548640 Si02
#       5
#     8   8   8   8   8
#     4  12  28  49  74 102 149 198 246 315 380 448
#     4  11  21  39  73 106 152 187 235 301 383 452
#     4  11  21  43  73 103 138 194 243 302 376 458
#     4  12  24  42  71 102 141 194 255 313 379 453
#     4  12  23  44  72 109 148 193 242 309 385 466
#
# _framework density 21.875281000000001
#
# number of rings (size 3 to 8) (size 9 to 14) (size 15 to 20)
#    0.000    0.400    8.000    2.400    0.000    6.400 
#    0.000    3.000    0.000    0.000    0.000    0.000 
#    0.000    0.000    0.000    0.000    0.000    0.000 
#
# Total GULP energy -223578.669339 kJ/mol
# GULP energy per Si atom -5589.466733 kJ/mol
# Density = 2.182549 g / cm^3
# Si number density = 21.875281 Si / 1000 Ang^3
#
#
#
# Elastic Constant Matrix: (Units=GPa)
#
#
# Indices 1 2 3 4 5 6 
#
# 1 55.6023 46.1144 46.3616 0.0000 0.0000 0.0000
# 2 46.1144 55.6019 46.3613 0.0000 0.0000 0.0000
# 3 46.3616 46.3613 157.7365 0.0000 0.0000 0.0000
# 4 0.0000 0.0000 0.0000 40.3762 0.0000 0.0000
# 5 0.0000 0.0000 0.0000 0.0000 40.3762 0.0000
# 6 0.0000 0.0000 0.0000 0.0000 0.0000 -7.3739
#
#
#
# Elastic Compliance Matrix: (Units=1/GPa)
#
#
# Indices 1 2 3 4 5 6 
#
# 1 0.059414 -0.045985 -0.003947 0.000000 0.000000 0.000000
# 2 -0.045985 0.059414 -0.003947 0.000000 0.000000 0.000000
# 3 -0.003947 -0.003947 0.008660 0.000000 0.000000 0.000000
# 4 0.000000 0.000000 0.000000 0.024767 0.000000 0.000000
# 5 0.000000 0.000000 0.000000 0.000000 0.024767 0.000000
# 6 0.000000 0.000000 0.000000 0.000000 0.000000 -0.135614
#
#
# Mechanical properties :
#
#
# Convention : Reuss Voigt Hill
#
# Bulk Modulus (GPa) = 50.68372 60.73503 55.70938
# Shear Modulus (GPa) = 32.10401 23.34926 27.72663
#
# Velocity S-wave (km/s) = 3.83507 3.27062 3.56404
# Velocity P-wave (km/s) = 6.54447 6.48746 6.51603
#
# Compressibility (1/GPa) = 0.01973020
#
# Stress axis : x y z
#
# Youngs Moduli (GPa) = 16.83097 16.83093 115.47419
#
# Poissons Ratio (x) = 0.77397 0.45580
# Poissons Ratio (y) = 0.77397 0.45578
# Poissons Ratio (z) = 0.06644 0.06643
#
# Static dielectric constant tensor:
#      x y z
#    x 1.864990 0.000000 0.000000 
#    y 0.000000 1.864990 0.000000 
#    z 0.000000 0.000000 1.812680 
# 
# From -- ./inp_files/4733.got.cif
#   From: 2010.05.17/outbox.cif.g08.bks.cpg/sg91_3_cif.got.tgz:4733.got - 2010.06.03 19:20:03.
