data_PCOD9548022
_publ_section_title
;
Structure prediction by ZEFSAII (Michael W. Deem and Ramdas Pophale) SiO2 
 PCOD9548022
Probable space group: P 41 2 2
;
_chemical_formula_sum "Si O2"
_cell_formula_units_Z 44
_cell_length_a 8.869073
_cell_length_b 8.869073
_cell_length_c 25.297756
_cell_angle_alpha 90.000000
_cell_angle_beta 90.000000
_cell_angle_gamma 90.000000
_cell_volume 1989.933020
_symmetry_space_group_name_H-M "P 41 2 2"
_symmetry_group_IT_number 91
_symmetry_cell_setting 'tetragonal'
loop_
_space_group_symop_operation_xyz
x,y,z
-y,x,1/4+z
-x,-y,1/2+z
y,-x,3/4+z
x,-y,1/2-z
-x,y,-z
y,x,3/4-z
-y,-x,1/4-z
loop_
_atom_site_type_symbol
_atom_site_label
_atom_site_fract_x
_atom_site_fract_y
_atom_site_fract_z
Si Si1 0.107416 0.660010 0.638895
Si Si2 0.820081 0.631511 0.987751
Si Si3 0.170630 0.933550 0.973841
Si Si4 0.216957 0.783043 0.125000
Si Si5 0.672593 0.110293 0.293889
Si Si6 0.921867 0.327705 0.322123
O O1 0.269610 0.730391 0.625000
O O2 0.109627 0.503277 0.670466
O O3 0.023124 0.795854 0.670543
O O4 0.007662 0.617249 0.587813
O O5 0.762602 0.693806 0.930541
O O6 0.790899 0.454565 0.985686
O O7 0.773535 0.759557 0.029279
O O8 0.000000 0.626166 0.000000
O O9 0.000000 0.933061 0.000000
O O10 0.282461 0.010908 0.015461
O O11 0.045063 0.740827 0.137831
O O12 0.774982 0.226494 0.324511
O O13 0.746493 0.000000 0.250000
#
# Coordination Sequence:
#
# PCOD9548022 Si02
#       6
#     8   8   8   4   8   8
#     4  12  25  41  66 102 137 181 226 287 355 417
#     4   9  20  39  63  96 132 166 215 283 339 397
#     4  10  22  41  69  98 126 172 233 286 332 410
#     4  10  20  40  66  96 126 166 230 278 326 394
#     4  11  24  41  65  98 136 178 226 284 343 417
#     4  11  23  40  64  98 134 174 221 293 336 418
#
# _framework density 22.111298000000001
#
# number of rings (size 3 to 8) (size 9 to 14) (size 15 to 20)
#    0.000    1.455    1.818    3.273    8.909    0.727 
#    1.636    0.000    0.000   15.273    0.000    0.000 
#    0.000    0.000    0.000    0.000    0.000    0.000 
#
# Total GULP energy -244995.344811 kJ/mol
# GULP energy per Si atom -5568.076018 kJ/mol
# Density = 2.206097 g / cm^3
# Si number density = 22.111298 Si / 1000 Ang^3
#
#
#
# Elastic Constant Matrix: (Units=GPa)
#
#
# Indices 1 2 3 4 5 6 
#
# 1 104.4932 42.2956 12.9239 0.0000 0.0000 0.0000
# 2 42.2956 104.4950 12.9243 0.0000 0.0000 0.0000
# 3 12.9239 12.9243 64.3891 0.0000 0.0000 0.0000
# 4 0.0000 0.0000 0.0000 18.6891 0.0000 0.0000
# 5 0.0000 0.0000 0.0000 0.0000 18.6879 0.0000
# 6 0.0000 0.0000 0.0000 0.0000 0.0000 -7.0266
#
#
#
# Elastic Compliance Matrix: (Units=1/GPa)
#
#
# Indices 1 2 3 4 5 6 
#
# 1 0.011570 -0.004508 -0.001417 0.000000 0.000000 0.000000
# 2 -0.004508 0.011570 -0.001418 0.000000 0.000000 0.000000
# 3 -0.001417 -0.001418 0.016100 0.000000 0.000000 0.000000
# 4 0.000000 0.000000 0.000000 0.053507 0.000000 0.000000
# 5 0.000000 0.000000 0.000000 0.000000 0.053511 0.000000
# 6 0.000000 0.000000 0.000000 0.000000 0.000000 -0.142316
#
#
# Mechanical properties :
#
#
# Convention : Reuss Voigt Hill
#
# Bulk Modulus (GPa) = 40.72689 45.51831 43.12260
# Shear Modulus (GPa) = 186.49087 19.75232 103.12160
#
# Velocity S-wave (km/s) = 9.19375 2.99208 6.83658
# Velocity P-wave (km/s) = 11.45247 5.70678 9.04783
#
# Compressibility (1/GPa) = 0.02455380
#
# Stress axis : x y z
#
# Youngs Moduli (GPa) = 86.43116 86.43248 62.11331
#
# Poissons Ratio (x) = 0.38962 0.08804
# Poissons Ratio (y) = 0.38961 0.08805
# Poissons Ratio (z) = 0.12251 0.12252
#
# Static dielectric constant tensor:
#      x y z
#    x 1.861040 0.000000 0.000000 
#    y 0.000000 1.861040 0.000000 
#    z 0.000000 0.000000 1.990440 
# 
# From -- ./inp_files/18061.got.cif
#   From: 2010.05.17/outbox.cif.g08.bks.cpg/sg91_10_cif.got.tgz:18061.got - 2010.06.03 19:20:03.
