data_PCOD9548937
_publ_section_title
;
Structure prediction by ZEFSAII (Michael W. Deem and Ramdas Pophale) SiO2 
 PCOD9548937
Probable space group: P 41 21 2
;
_chemical_formula_sum "Si O2"
_cell_formula_units_Z 56
_cell_length_a 16.014675
_cell_length_b 16.014675
_cell_length_c 10.914975
_cell_angle_alpha 90.000000
_cell_angle_beta 90.000000
_cell_angle_gamma 90.000000
_cell_volume 2799.361623
_symmetry_space_group_name_H-M "P 41 21 2"
_symmetry_group_IT_number 92
_symmetry_cell_setting 'tetragonal'
loop_
_space_group_symop_operation_xyz
x,y,z
1/2-y,1/2+x,1/4+z
-x,-y,1/2+z
1/2+y,1/2-x,3/4+z
1/2+x,1/2-y,3/4-z
1/2-x,1/2+y,1/4-z
y,x,-z
-y,-x,1/2-z
loop_
_atom_site_type_symbol
_atom_site_label
_atom_site_fract_x
_atom_site_fract_y
_atom_site_fract_z
Si Si1 0.400208 0.784132 0.428813
Si Si2 0.040647 0.126652 0.702676
Si Si3 0.585556 0.216032 0.647845
Si Si4 0.281935 0.277643 0.854273
Si Si5 0.941262 0.519477 0.561588
Si Si6 0.572020 0.605608 0.305786
Si Si7 0.522614 0.643592 0.048741
O O1 0.410976 0.712461 0.529058
O O2 0.408647 0.750425 0.288388
O O3 0.305859 0.818212 0.434225
O O4 0.470743 0.853614 0.443653
O O5 0.979746 0.120136 0.587486
O O6 0.982121 0.124066 0.823963
O O7 0.099656 0.046517 0.713952
O O8 0.677626 0.226657 0.589532
O O9 0.571094 0.117653 0.663502
O O10 0.512317 0.263565 0.574810
O O11 0.360933 0.319674 0.790804
O O12 0.292901 0.292901 0.000000
O O13 0.989457 0.483995 0.679511
O O14 0.519391 0.601851 0.183048
O O15 0.613688 0.613688 0.000000
#
# Coordination Sequence:
#
# PCOD9548937 Si02
#       7
#     8   8   8   8   8   8   8
#     4  10  20  35  62  90 119 150 198 257 312 351
#     4  11  20  34  58  88 123 153 194 257 301 358
#     4  10  21  36  61  86 119 155 203 252 303 371
#     4  10  19  34  58  92 117 146 193 257 312 347
#     4  10  23  42  65  89 118 160 211 259 311 375
#     4  11  22  34  58  87 122 154 201 250 302 367
#     4  12  24  39  57  87 128 169 202 245 315 378
#
# _framework density 20.004560999999999
#
# number of rings (size 3 to 8) (size 9 to 14) (size 15 to 20)
#    0.000    1.429    5.714    1.286    6.000    0.000 
#    2.571    0.000    0.000    1.714    0.000    0.000 
#    0.000    0.000    0.000    0.000    0.000    0.000 
#
# Total GULP energy -312393.996067 kJ/mol
# GULP energy per Si atom -5578.464215 kJ/mol
# Density = 1.995903 g / cm^3
# Si number density = 20.004561 Si / 1000 Ang^3
#
#
#
# Elastic Constant Matrix: (Units=GPa)
#
#
# Indices 1 2 3 4 5 6 
#
# 1 53.3261 20.9537 6.0853 0.0000 0.0000 0.0000
# 2 20.9537 53.3261 6.0853 0.0000 0.0000 0.0000
# 3 6.0853 6.0853 45.8241 0.0000 0.0000 0.0000
# 4 0.0000 0.0000 0.0000 22.3417 0.0000 0.0000
# 5 0.0000 0.0000 0.0000 0.0000 22.3417 0.0000
# 6 0.0000 0.0000 0.0000 0.0000 0.0000 35.6637
#
#
#
# Elastic Compliance Matrix: (Units=1/GPa)
#
#
# Indices 1 2 3 4 5 6 
#
# 1 0.022326 -0.008564 -0.001828 0.000000 0.000000 0.000000
# 2 -0.008564 0.022326 -0.001828 0.000000 0.000000 0.000000
# 3 -0.001828 -0.001828 0.022308 0.000000 0.000000 0.000000
# 4 0.000000 0.000000 0.000000 0.044759 0.000000 0.000000
# 5 0.000000 0.000000 0.000000 0.000000 0.044759 0.000000
# 6 0.000000 0.000000 0.000000 0.000000 0.000000 0.028040
#
#
# Mechanical properties :
#
#
# Convention : Reuss Voigt Hill
#
# Bulk Modulus (GPa) = 23.51735 24.30279 23.91007
# Shear Modulus (GPa) = 22.40831 24.02623 23.21727
#
# Velocity S-wave (km/s) = 3.35051 3.46936 3.41045
# Velocity P-wave (km/s) = 5.17198 5.31259 5.24276
#
# Compressibility (1/GPa) = 0.04252180
#
# Stress axis : x y z
#
# Youngs Moduli (GPa) = 44.79026 44.79026 44.82704
#
# Poissons Ratio (x) = 0.38359 0.08192
# Poissons Ratio (y) = 0.38359 0.08192
# Poissons Ratio (z) = 0.08186 0.08186
#
# Static dielectric constant tensor:
#      x y z
#    x 1.744440 0.000000 0.000000 
#    y 0.000000 1.744440 0.000000 
#    z 0.000000 0.000000 1.706720 
# 
# From -- ./inp_files/2296.got.cif
#   From: 2010.05.17/outbox.cif.g08.bks.cpg/sg92_2_cif.got.tgz:2296.got - 2010.06.03 19:35:17.
