data_PCOD9548055
_publ_section_title
;
Structure prediction by ZEFSAII (Michael W. Deem and Ramdas Pophale) SiO2 
 PCOD9548055
Probable space group: P 41 2 2
;
_chemical_formula_sum "Si O2"
_cell_formula_units_Z 40
_cell_length_a 11.856070
_cell_length_b 11.856070
_cell_length_c 10.352709
_cell_angle_alpha 90.000000
_cell_angle_beta 90.000000
_cell_angle_gamma 90.000000
_cell_volume 1455.242991
_symmetry_space_group_name_H-M "P 41 2 2"
_symmetry_group_IT_number 91
_symmetry_cell_setting 'tetragonal'
loop_
_space_group_symop_operation_xyz
x,y,z
-y,x,1/4+z
-x,-y,1/2+z
y,-x,3/4+z
x,-y,1/2-z
-x,y,-z
y,x,3/4-z
-y,-x,1/4-z
loop_
_atom_site_type_symbol
_atom_site_label
_atom_site_fract_x
_atom_site_fract_y
_atom_site_fract_z
Si Si1 0.528172 0.131798 0.867979
Si Si2 0.915757 0.915757 0.375000
Si Si3 0.000000 0.652422 0.500000
Si Si4 0.240307 0.631060 0.221734
Si Si5 0.341478 0.757385 0.753921
Si Si6 0.003037 0.752559 0.145372
O O1 0.649386 0.080442 0.863059
O O2 0.500000 0.192584 0.000000
O O3 0.561979 0.026547 0.136100
O O4 0.473217 0.210371 0.761147
O O5 0.882289 0.714365 0.512729
O O6 0.000000 0.922798 0.500000
O O7 0.955799 0.807712 0.280359
O O8 0.217195 0.500000 0.250000
O O9 0.339194 0.660807 0.125000
O O10 0.290608 0.678818 0.357406
O O11 0.127134 0.700016 0.177914
O O12 0.299687 0.700314 0.625000
O O13 0.000000 0.814421 0.000000
#
# Coordination Sequence:
#
# PCOD9548055 Si02
#       6
#     8   4   4   8   8   8
#     4  10  20  42  77 119 163 211 284 369 419 506
#     4  12  32  58  82 120 186 240 294 352 434 530
#     4   8  18  40  72 114 160 212 268 364 410 510
#     4  12  29  56  87 129 168 230 295 368 453 532
#     4  10  23  46  76 121 168 217 283 359 445 512
#     4  12  26  52  91 123 174 234 295 360 447 530
#
# _framework density 27.486816999999999
#
# number of rings (size 3 to 8) (size 9 to 14) (size 15 to 20)
#    1.200    0.000    1.000    4.800    4.200    4.800 
#    3.600    1.000    0.000    0.000    0.000    0.000 
#    0.000    0.000    0.000    0.000    0.000    0.000 
#
# Total GULP energy -222911.583822 kJ/mol
# GULP energy per Si atom -5572.789596 kJ/mol
# Density = 2.742426 g / cm^3
# Si number density = 27.486817 Si / 1000 Ang^3
#
#
#
# Elastic Constant Matrix: (Units=GPa)
#
#
# Indices 1 2 3 4 5 6 
#
# 1 126.7933 54.2636 54.0917 0.0000 0.0000 0.0000
# 2 54.2636 126.7952 54.0932 0.0000 0.0000 0.0000
# 3 54.0917 54.0932 307.5916 0.0000 0.0000 0.0000
# 4 0.0000 0.0000 0.0000 43.8563 0.0000 0.0000
# 5 0.0000 0.0000 0.0000 0.0000 43.8559 0.0000
# 6 0.0000 0.0000 0.0000 0.0000 0.0000 38.0393
#
#
#
# Elastic Compliance Matrix: (Units=1/GPa)
#
#
# Indices 1 2 3 4 5 6 
#
# 1 0.009979 -0.003808 -0.001085 0.000000 0.000000 0.000000
# 2 -0.003808 0.009979 -0.001085 0.000000 0.000000 0.000000
# 3 -0.001085 -0.001085 0.003633 0.000000 0.000000 0.000000
# 4 0.000000 0.000000 0.000000 0.022802 0.000000 0.000000
# 5 0.000000 0.000000 0.000000 0.000000 0.022802 0.000000
# 6 0.000000 0.000000 0.000000 0.000000 0.000000 0.026289
#
#
# Mechanical properties :
#
#
# Convention : Reuss Voigt Hill
#
# Bulk Modulus (GPa) = 85.94990 98.45300 92.20145
# Shear Modulus (GPa) = 44.91592 51.73242 48.32417
#
# Velocity S-wave (km/s) = 4.04677 4.34300 4.19750
# Velocity P-wave (km/s) = 7.29195 7.81312 7.55703
#
# Compressibility (1/GPa) = 0.01163468
#
# Stress axis : x y z
#
# Youngs Moduli (GPa) = 100.20553 100.20668 275.27051
#
# Poissons Ratio (x) = 0.38157 0.29875
# Poissons Ratio (y) = 0.38157 0.29876
# Poissons Ratio (z) = 0.10875 0.10876
#
# Static dielectric constant tensor:
#      x y z
#    x 2.307200 0.000000 0.000000 
#    y 0.000000 2.307200 0.000000 
#    z 0.000000 0.000000 2.364650 
# 
# From -- ./inp_files/15063.got.cif
#   From: 2010.05.17/outbox.cif.g08.bks.cpg/sg91_8_cif.got.tgz:15063.got - 2010.06.03 19:20:03.
