data_PCOD9548451
_publ_section_title
;
Structure prediction by ZEFSAII (Michael W. Deem and Ramdas Pophale) SiO2 
 PCOD9548451
Probable space group: P 41 2 2
;
_chemical_formula_sum "Si O2"
_cell_formula_units_Z 64
_cell_length_a 11.872579
_cell_length_b 11.872579
_cell_length_c 22.894973
_cell_angle_alpha 90.000000
_cell_angle_beta 90.000000
_cell_angle_gamma 90.000000
_cell_volume 3227.232629
_symmetry_space_group_name_H-M "P 41 2 2"
_symmetry_group_IT_number 91
_symmetry_cell_setting 'tetragonal'
loop_
_space_group_symop_operation_xyz
x,y,z
-y,x,1/4+z
-x,-y,1/2+z
y,-x,3/4+z
x,-y,1/2-z
-x,y,-z
y,x,3/4-z
-y,-x,1/4-z
loop_
_atom_site_type_symbol
_atom_site_label
_atom_site_fract_x
_atom_site_fract_y
_atom_site_fract_z
Si Si1 0.596491 0.259304 0.079507
Si Si2 0.934813 0.600109 0.415703
Si Si3 0.238652 0.080799 0.118352
Si Si4 0.824095 0.003131 0.388882
Si Si5 0.865256 0.044900 0.508588
Si Si6 0.714883 0.351075 0.304461
Si Si7 0.726554 0.847617 0.820031
Si Si8 0.167464 0.526244 0.459768
O O1 0.677889 0.322112 0.125000
O O2 0.574029 0.138526 0.108910
O O3 0.476538 0.320390 0.073073
O O4 0.646013 0.254397 0.014472
O O5 0.868302 0.563724 0.474291
O O6 0.963532 0.732697 0.407841
O O7 0.056358 0.544028 0.420544
O O8 0.135114 0.152611 0.143035
O O9 0.320724 0.174403 0.091942
O O10 0.177333 0.014659 0.066409
O O11 0.281768 0.980084 0.159998
O O12 0.798585 0.982096 0.456678
O O13 0.937507 0.937507 0.375000
O O14 0.843241 0.176752 0.520847
O O15 0.000000 0.030533 0.500000
O O16 0.612777 0.263281 0.310795
O O17 0.774017 0.774017 0.875000
O O18 0.606037 0.806048 0.796382
#
# Coordination Sequence:
#
# PCOD9548451 Si02
#       8
#     8   8   8   8   8   8   8   8
#     4  11  23  44  64  87 124 166 208 258 318 375
#     4  11  24  38  61  95 127 166 199 261 318 376
#     4  11  21  39  57  93 126 165 208 254 317 383
#     4  12  22  33  57  92 135 165 199 250 314 385
#     4  11  21  34  58  89 125 170 205 246 310 386
#     4  11  24  41  64  91 122 162 212 259 314 381
#     4  10  23  43  64  89 126 167 215 268 317 373
#     4  11  24  41  64  95 121 162 220 263 320 373
#
# _framework density 19.831232
#
# number of rings (size 3 to 8) (size 9 to 14) (size 15 to 20)
#    0.000    1.000    5.000    2.250    3.500    1.500 
#    0.000    0.000    0.000    0.000    0.000    0.000 
#    0.000    0.000    0.000    0.000    0.000    0.000 
#
# Total GULP energy -356977.838147 kJ/mol
# GULP energy per Si atom -5577.778721 kJ/mol
# Density = 1.978610 g / cm^3
# Si number density = 19.831232 Si / 1000 Ang^3
#
#
#
# Elastic Constant Matrix: (Units=GPa)
#
#
# Indices 1 2 3 4 5 6 
#
# 1 47.4725 29.9422 7.5481 0.0000 0.0000 0.0000
# 2 29.9422 47.4768 7.5501 0.0000 0.0000 0.0000
# 3 7.5481 7.5501 67.6789 0.0000 0.0000 0.0000
# 4 0.0000 0.0000 0.0000 10.9278 0.0000 0.0000
# 5 0.0000 0.0000 0.0000 0.0000 10.9278 0.0000
# 6 0.0000 0.0000 0.0000 0.0000 0.0000 15.9004
#
#
#
# Elastic Compliance Matrix: (Units=1/GPa)
#
#
# Indices 1 2 3 4 5 6 
#
# 1 0.035122 -0.021916 -0.001472 0.000000 0.000000 0.000000
# 2 -0.021916 0.035119 -0.001474 0.000000 0.000000 0.000000
# 3 -0.001472 -0.001474 0.015104 0.000000 0.000000 0.000000
# 4 0.000000 0.000000 0.000000 0.091510 0.000000 0.000000
# 5 0.000000 0.000000 0.000000 0.000000 0.091510 0.000000
# 6 0.000000 0.000000 0.000000 0.000000 0.000000 0.062891
#
#
# Mechanical properties :
#
#
# Convention : Reuss Voigt Hill
#
# Bulk Modulus (GPa) = 28.07297 28.07880 28.07588
# Shear Modulus (GPa) = 12.72737 15.39040 14.05889
#
# Velocity S-wave (km/s) = 2.53609 2.78882 2.66546
# Velocity P-wave (km/s) = 4.77099 4.95577 4.86426
#
# Compressibility (1/GPa) = 0.03562146
#
# Stress axis : x y z
#
# Youngs Moduli (GPa) = 28.47213 28.47447 66.20666
#
# Poissons Ratio (x) = 0.62405 0.09747
# Poissons Ratio (y) = 0.62400 0.09756
# Poissons Ratio (z) = 0.04192 0.04196
#
# Static dielectric constant tensor:
#      x y z
#    x 1.722950 0.000000 0.000000 
#    y 0.000000 1.722950 0.000000 
#    z 0.000000 0.000000 1.760970 
# 
# From -- ./inp_files/21866.got.cif
#   From: 2010.05.17/outbox.cif.g08.bks.cpg/sg91_11_cif.got.tgz:21866.got - 2010.06.03 19:20:03.
