data_PCOD9548305
_publ_section_title
;
Structure prediction by ZEFSAII (Michael W. Deem and Ramdas Pophale) SiO2 
 PCOD9548305
Probable space group: P 41 2 2
;
_chemical_formula_sum "Si O2"
_cell_formula_units_Z 56
_cell_length_a 10.390672
_cell_length_b 10.390672
_cell_length_c 22.295130
_cell_angle_alpha 90.000000
_cell_angle_beta 90.000000
_cell_angle_gamma 90.000000
_cell_volume 2407.117446
_symmetry_space_group_name_H-M "P 41 2 2"
_symmetry_group_IT_number 91
_symmetry_cell_setting 'tetragonal'
loop_
_space_group_symop_operation_xyz
x,y,z
-y,x,1/4+z
-x,-y,1/2+z
y,-x,3/4+z
x,-y,1/2-z
-x,y,-z
y,x,3/4-z
-y,-x,1/4-z
loop_
_atom_site_type_symbol
_atom_site_label
_atom_site_fract_x
_atom_site_fract_y
_atom_site_fract_z
Si Si1 0.649497 0.723291 0.310608
Si Si2 0.992497 0.932170 0.812185
Si Si3 0.736458 0.789232 0.555236
Si Si4 0.399755 0.014139 0.684267
Si Si5 0.816306 0.546703 0.856711
Si Si6 0.748221 0.784078 0.788728
Si Si7 0.306626 0.637641 0.923522
O O1 0.663612 0.663612 0.375000
O O2 0.748680 0.682735 0.259319
O O3 0.501492 0.689316 0.295321
O O4 0.666253 0.876658 0.320906
O O5 0.008250 0.008250 0.875000
O O6 0.841477 0.898564 0.807686
O O7 0.072553 0.800228 0.812731
O O8 0.031252 0.000000 0.750000
O O9 0.862978 0.694959 0.561933
O O10 0.638411 0.758011 0.608336
O O11 0.483415 0.049544 0.626533
O O12 0.468083 0.000000 0.750000
O O13 0.819884 0.651236 0.804941
O O14 0.780935 0.623294 0.918293
O O15 0.709570 0.442031 0.837525
O O16 0.720055 0.780664 0.718807
#
# Coordination Sequence:
#
# PCOD9548305 Si02
#       7
#     8   8   8   8   8   8   8
#     4  11  25  42  68 100 132 185 234 287 353 419
#     4  12  25  43  71 105 143 182 229 291 354 432
#     4  10  24  44  65 103 136 177 237 278 349 425
#     4   9  19  40  66  89 127 177 215 270 340 410
#     4  10  22  40  63  97 133 166 237 279 338 418
#     4  11  23  41  64 100 133 174 227 284 348 412
#     4  11  23  42  68  92 131 189 223 289 348 408
#
# _framework density 23.264341000000002
#
# number of rings (size 3 to 8) (size 9 to 14) (size 15 to 20)
#    0.000    1.429    1.429    5.143    4.000    6.857 
#    2.571    0.000    0.000    0.000    0.000    0.000 
#    0.000    0.000    0.000    0.000    0.000    0.000 
#
# Total GULP energy -312688.187659 kJ/mol
# GULP energy per Si atom -5583.717637 kJ/mol
# Density = 2.321139 g / cm^3
# Si number density = 23.264341 Si / 1000 Ang^3
#
#
#
# Elastic Constant Matrix: (Units=GPa)
#
#
# Indices 1 2 3 4 5 6 
#
# 1 40.7410 -3.0563 11.7545 0.0000 0.0000 0.0000
# 2 -3.0563 40.7410 11.7545 0.0000 0.0000 0.0000
# 3 11.7545 11.7545 114.1940 0.0000 0.0000 0.0000
# 4 0.0000 0.0000 0.0000 24.8470 0.0000 0.0000
# 5 0.0000 0.0000 0.0000 0.0000 24.8470 0.0000
# 6 0.0000 0.0000 0.0000 0.0000 0.0000 22.6620
#
#
#
# Elastic Compliance Matrix: (Units=1/GPa)
#
#
# Indices 1 2 3 4 5 6 
#
# 1 0.025595 0.002762 -0.002919 0.000000 0.000000 0.000000
# 2 0.002762 0.025595 -0.002919 0.000000 0.000000 0.000000
# 3 -0.002919 -0.002919 0.009358 0.000000 0.000000 0.000000
# 4 0.000000 0.000000 0.000000 0.040246 0.000000 0.000000
# 5 0.000000 0.000000 0.000000 0.000000 0.040246 0.000000
# 6 0.000000 0.000000 0.000000 0.000000 0.000000 0.044127
#
#
# Mechanical properties :
#
#
# Convention : Reuss Voigt Hill
#
# Bulk Modulus (GPa) = 18.38366 26.28681 22.33523
# Shear Modulus (GPa) = 23.87205 26.15274 25.01240
#
# Velocity S-wave (km/s) = 3.20679 3.35648 3.28249
# Velocity P-wave (km/s) = 4.65087 5.13274 4.89773
#
# Compressibility (1/GPa) = 0.05439614
#
# Stress axis : x y z
#
# Youngs Moduli (GPa) = 39.07060 39.07060 106.86111
#
# Poissons Ratio (x) = -0.10792 0.31192
# Poissons Ratio (y) = -0.10792 0.31192
# Poissons Ratio (z) = 0.11404 0.11404
#
# Static dielectric constant tensor:
#      x y z
#    x 1.932190 0.000000 0.000000 
#    y 0.000000 1.932190 0.000000 
#    z 0.000000 0.000000 1.903690 
# 
# From -- ./inp_files/6423.got.cif
#   From: 2010.05.17/outbox.cif.g08.bks.cpg/sg91_4_cif.got.tgz:6423.got - 2010.06.03 19:20:03.
