data_PCOD9548310
_publ_section_title
;
Structure prediction by ZEFSAII (Michael W. Deem and Ramdas Pophale) SiO2 
 PCOD9548310
Probable space group: P 41 2 2
;
_chemical_formula_sum "Si O2"
_cell_formula_units_Z 44
_cell_length_a 12.266927
_cell_length_b 12.266927
_cell_length_c 15.930250
_cell_angle_alpha 90.000000
_cell_angle_beta 90.000000
_cell_angle_gamma 90.000000
_cell_volume 2397.144163
_symmetry_space_group_name_H-M "P 41 2 2"
_symmetry_group_IT_number 91
_symmetry_cell_setting 'tetragonal'
loop_
_space_group_symop_operation_xyz
x,y,z
-y,x,1/4+z
-x,-y,1/2+z
y,-x,3/4+z
x,-y,1/2-z
-x,y,-z
y,x,3/4-z
-y,-x,1/4-z
loop_
_atom_site_type_symbol
_atom_site_label
_atom_site_fract_x
_atom_site_fract_y
_atom_site_fract_z
Si Si1 0.889682 0.739640 0.314552
Si Si2 0.086851 0.066494 0.567788
Si Si3 0.225942 0.751353 0.416128
Si Si4 0.557178 0.500000 0.250000
Si Si5 0.891909 0.577318 0.460667
Si Si6 0.563713 0.314360 0.834194
O O1 0.813847 0.813847 0.375000
O O2 0.816107 0.704029 0.236535
O O3 0.924412 0.643797 0.376542
O O4 0.986041 0.818437 0.282773
O O5 0.157971 0.151359 0.621279
O O6 0.000000 0.111474 0.500000
O O7 0.011512 0.988489 0.625000
O O8 0.157187 0.663581 0.470714
O O9 0.307783 0.697209 0.350081
O O10 0.633580 0.516756 0.169842
O O11 0.478906 0.603374 0.263182
O O12 0.800524 0.491277 0.436049
O O13 0.000000 0.527160 0.500000
#
# Coordination Sequence:
#
# PCOD9548310 Si02
#       6
#     8   8   8   4   8   8
#     4   9  19  30  54  89 122 153 199 247 298 359
#     4  11  20  34  57  86 123 168 207 244 303 378
#     4  11  21  37  60  89 122 164 204 257 312 374
#     4  10  22  40  66  94 116 158 208 278 312 376
#     4  11  21  36  60  95 126 156 198 265 321 367
#     4  11  22  39  65  92 120 157 214 261 325 374
#
# _framework density 18.355174999999999
#
# number of rings (size 3 to 8) (size 9 to 14) (size 15 to 20)
#    0.000    1.455    5.455    1.091    5.091    0.727 
#    0.000    0.000    8.000    0.000    0.000    0.000 
#    0.000    0.000    0.000    0.000    0.000    0.000 
#
# Total GULP energy -245211.939386 kJ/mol
# GULP energy per Si atom -5572.998622 kJ/mol
# Density = 1.831340 g / cm^3
# Si number density = 18.355175 Si / 1000 Ang^3
#
#
#
# Elastic Constant Matrix: (Units=GPa)
#
#
# Indices 1 2 3 4 5 6 
#
# 1 60.9422 42.5816 24.9151 0.0000 0.0000 0.0000
# 2 42.5816 60.9426 24.9151 0.0000 0.0000 0.0000
# 3 24.9151 24.9151 45.3081 0.0000 0.0000 0.0000
# 4 0.0000 0.0000 0.0000 25.8981 0.0000 0.0000
# 5 0.0000 0.0000 0.0000 0.0000 25.8982 0.0000
# 6 0.0000 0.0000 0.0000 0.0000 0.0000 36.5599
#
#
#
# Elastic Compliance Matrix: (Units=1/GPa)
#
#
# Indices 1 2 3 4 5 6 
#
# 1 0.033800 -0.020663 -0.007224 0.000000 0.000000 0.000000
# 2 -0.020663 0.033800 -0.007224 0.000000 0.000000 0.000000
# 3 -0.007224 -0.007224 0.030016 0.000000 0.000000 0.000000
# 4 0.000000 0.000000 0.000000 0.038613 0.000000 0.000000
# 5 0.000000 0.000000 0.000000 0.000000 0.038613 0.000000
# 6 0.000000 0.000000 0.000000 0.000000 0.000000 0.027352
#
#
# Mechanical properties :
#
#
# Convention : Reuss Voigt Hill
#
# Bulk Modulus (GPa) = 36.50464 39.11294 37.80879
# Shear Modulus (GPa) = 17.75894 22.65667 20.20780
#
# Velocity S-wave (km/s) = 3.11387 3.51714 3.32163
# Velocity P-wave (km/s) = 5.73231 6.15215 5.94593
#
# Compressibility (1/GPa) = 0.02739378
#
# Stress axis : x y z
#
# Youngs Moduli (GPa) = 29.58545 29.58571 33.31553
#
# Poissons Ratio (x) = 0.61134 0.24067
# Poissons Ratio (y) = 0.61134 0.24067
# Poissons Ratio (z) = 0.21373 0.21372
#
# Static dielectric constant tensor:
#      x y z
#    x 1.640950 0.000000 0.000000 
#    y 0.000000 1.640950 0.000000 
#    z 0.000000 0.000000 1.653490 
# 
# From -- ./inp_files/16829.got.cif
#   From: 2010.05.17/outbox.cif.g08.bks.cpg/sg91_9_cif.got.tgz:16829.got - 2010.06.03 19:20:03.
