data_PCOD9548581
_publ_section_title
;
Structure prediction by ZEFSAII (Michael W. Deem and Ramdas Pophale) SiO2 
 PCOD9548581
Probable space group: P 41 2 2
;
_chemical_formula_sum "Si O2"
_cell_formula_units_Z 36
_cell_length_a 9.171797
_cell_length_b 9.171797
_cell_length_c 18.904317
_cell_angle_alpha 90.000000
_cell_angle_beta 90.000000
_cell_angle_gamma 90.000000
_cell_volume 1590.266312
_symmetry_space_group_name_H-M "P 41 2 2"
_symmetry_group_IT_number 91
_symmetry_cell_setting 'tetragonal'
loop_
_space_group_symop_operation_xyz
x,y,z
-y,x,1/4+z
-x,-y,1/2+z
y,-x,3/4+z
x,-y,1/2-z
-x,y,-z
y,x,3/4-z
-y,-x,1/4-z
loop_
_atom_site_type_symbol
_atom_site_label
_atom_site_fract_x
_atom_site_fract_y
_atom_site_fract_z
Si Si1 0.500000 0.163667 0.000000
Si Si2 0.718689 0.378194 0.926408
Si Si3 0.859082 0.240255 0.419809
Si Si4 0.000000 0.511321 0.500000
Si Si5 0.252910 0.041802 0.466779
Si Si6 0.319018 0.680983 0.125000
O O1 0.414780 0.275986 0.050097
O O2 0.366433 0.052229 0.986403
O O3 0.747615 0.311755 0.849326
O O4 0.672963 0.544570 0.925901
O O5 0.870154 0.387607 0.970016
O O6 0.929326 0.394771 0.444160
O O7 0.857959 0.122574 0.481769
O O8 0.937560 0.194365 0.346466
O O9 0.323685 0.172020 0.420638
#
# Coordination Sequence:
#
# PCOD9548581 Si02
#       6
#     4   8   8   4   8   4
#     4  10  26  46  68 114 158 198 256 322 406 452
#     4  11  26  43  75 112 150 202 258 337 389 473
#     4  11  24  45  78 107 160 197 266 330 390 480
#     4  12  24  50  70 114 152 200 268 324 410 470
#     4  11  22  45  75 117 149 208 260 336 388 478
#     4  12  22  42  80 106 142 208 274 322 384 480
#
# _framework density 22.637716999999999
#
# number of rings (size 3 to 8) (size 9 to 14) (size 15 to 20)
#    0.000    0.889    4.444    1.333    6.222    0.889 
#    0.000   17.778    0.000    0.000    0.000    0.000 
#    0.000    0.000    0.000    0.000    0.000    0.000 
#
# Total GULP energy -200529.923908 kJ/mol
# GULP energy per Si atom -5570.275664 kJ/mol
# Density = 2.258619 g / cm^3
# Si number density = 22.637717 Si / 1000 Ang^3
#
#
#
# Elastic Constant Matrix: (Units=GPa)
#
#
# Indices 1 2 3 4 5 6 
#
# 1 94.0557 44.8292 34.5929 0.0000 0.0000 0.0000
# 2 44.8292 94.0557 34.5926 0.0000 0.0000 0.0000
# 3 34.5929 34.5926 78.8756 0.0000 0.0000 0.0000
# 4 0.0000 0.0000 0.0000 32.0319 0.0000 0.0000
# 5 0.0000 0.0000 0.0000 0.0000 32.0320 0.0000
# 6 0.0000 0.0000 0.0000 0.0000 0.0000 21.8108
#
#
#
# Elastic Compliance Matrix: (Units=1/GPa)
#
#
# Indices 1 2 3 4 5 6 
#
# 1 0.014764 -0.005551 -0.004041 0.000000 0.000000 0.000000
# 2 -0.005551 0.014764 -0.004041 0.000000 0.000000 0.000000
# 3 -0.004041 -0.004041 0.016222 0.000000 0.000000 0.000000
# 4 0.000000 0.000000 0.000000 0.031219 0.000000 0.000000
# 5 0.000000 0.000000 0.000000 0.000000 0.031219 0.000000
# 6 0.000000 0.000000 0.000000 0.000000 0.000000 0.045849
#
#
# Mechanical properties :
#
#
# Convention : Reuss Voigt Hill
#
# Bulk Modulus (GPa) = 54.09477 55.00182 54.54829
# Shear Modulus (GPa) = 26.67209 27.37308 27.02258
#
# Velocity S-wave (km/s) = 3.43624 3.48110 3.45874
# Velocity P-wave (km/s) = 6.30011 6.36449 6.33238
#
# Compressibility (1/GPa) = 0.01848608
#
# Stress axis : x y z
#
# Youngs Moduli (GPa) = 67.73382 67.73408 61.64324
#
# Poissons Ratio (x) = 0.37597 0.24908
# Poissons Ratio (y) = 0.37596 0.24907
# Poissons Ratio (z) = 0.27369 0.27368
#
# Static dielectric constant tensor:
#      x y z
#    x 1.879460 0.000000 0.000000 
#    y 0.000000 1.879470 0.000000 
#    z 0.000000 0.000000 1.944820 
# 
# From -- ./inp_files/17219.got.cif
#   From: 2010.05.17/outbox.cif.g08.bks.cpg/sg91_9_cif.got.tgz:17219.got - 2010.06.03 19:20:03.
