data_PCOD9548962
_publ_section_title
;
Structure prediction by ZEFSAII (Michael W. Deem and Ramdas Pophale) SiO2 
 PCOD9548962
Probable space group: P 41 21 2
;
_chemical_formula_sum "Si O2"
_cell_formula_units_Z 40
_cell_length_a 18.492838
_cell_length_b 18.492838
_cell_length_c 5.778921
_cell_angle_alpha 90.000000
_cell_angle_beta 90.000000
_cell_angle_gamma 90.000000
_cell_volume 1976.304629
_symmetry_space_group_name_H-M "P 41 21 2"
_symmetry_group_IT_number 92
_symmetry_cell_setting 'tetragonal'
loop_
_space_group_symop_operation_xyz
x,y,z
1/2-y,1/2+x,1/4+z
-x,-y,1/2+z
1/2+y,1/2-x,3/4+z
1/2+x,1/2-y,3/4-z
1/2-x,1/2+y,1/4-z
y,x,-z
-y,-x,1/2-z
loop_
_atom_site_type_symbol
_atom_site_label
_atom_site_fract_x
_atom_site_fract_y
_atom_site_fract_z
Si Si1 0.866772 0.982891 0.586737
Si Si2 0.787041 0.787041 0.000000
Si Si3 0.824500 0.290106 0.649299
Si Si4 0.390299 0.390299 0.500000
Si Si5 0.033601 0.772940 0.016849
Si Si6 0.412501 0.757144 0.053917
O O1 0.922626 0.922626 0.500000
O O2 0.791138 0.958755 0.476069
O O3 0.897384 0.054749 0.464586
O O4 0.840544 0.996416 0.848692
O O5 0.712604 0.797514 0.855680
O O6 0.851525 0.791957 0.818401
O O7 0.777002 0.222999 0.750000
O O8 0.909005 0.271804 0.664875
O O9 0.810896 0.362664 0.798684
O O10 0.311316 0.410338 0.589689
O O11 0.971505 0.725633 0.894548
#
# Coordination Sequence:
#
# PCOD9548962 Si02
#       6
#     8   4   8   4   8   8
#     4  11  22  35  53  78 122 163 202 242 291 366
#     4  10  19  38  60  84 118 156 196 255 308 356
#     4  10  20  35  59  84 118 158 205 257 303 360
#     4  10  23  32  52  78 114 170 206 241 296 354
#     4  11  22  38  55  86 125 158 205 257 304 362
#     4  10  21  35  56  84 115 157 198 247 308 359
#
# _framework density 20.239795999999998
#
# number of rings (size 3 to 8) (size 9 to 14) (size 15 to 20)
#    0.000    1.600    0.000    6.600    2.800    6.400 
#    0.000    0.000    0.000    0.000    0.000    0.000 
#   84.000    0.000    0.000    0.000    0.000    0.000 
#
# Total GULP energy -222689.612151 kJ/mol
# GULP energy per Si atom -5567.240304 kJ/mol
# Density = 2.019373 g / cm^3
# Si number density = 20.239796 Si / 1000 Ang^3
#
#
#
# Elastic Constant Matrix: (Units=GPa)
#
#
# Indices 1 2 3 4 5 6 
#
# 1 86.1386 51.4764 22.2561 0.0000 0.0000 0.0000
# 2 51.4764 86.1387 22.2565 0.0000 0.0000 0.0000
# 3 22.2561 22.2565 56.1636 0.0000 0.0000 0.0000
# 4 0.0000 0.0000 0.0000 20.8848 0.0000 0.0000
# 5 0.0000 0.0000 0.0000 0.0000 20.8847 0.0000
# 6 0.0000 0.0000 0.0000 0.0000 0.0000 36.4779
#
#
#
# Elastic Compliance Matrix: (Units=1/GPa)
#
#
# Indices 1 2 3 4 5 6 
#
# 1 0.018592 -0.010257 -0.003303 0.000000 0.000000 0.000000
# 2 -0.010257 0.018592 -0.003303 0.000000 0.000000 0.000000
# 3 -0.003303 -0.003303 0.020423 0.000000 0.000000 0.000000
# 4 0.000000 0.000000 0.000000 0.047882 0.000000 0.000000
# 5 0.000000 0.000000 0.000000 0.000000 0.047882 0.000000
# 6 0.000000 0.000000 0.000000 0.000000 0.000000 0.027414
#
#
# Mechanical properties :
#
#
# Convention : Reuss Voigt Hill
#
# Bulk Modulus (GPa) = 41.87420 46.71322 44.29371
# Shear Modulus (GPa) = 22.47472 24.47962 23.47717
#
# Velocity S-wave (km/s) = 3.33592 3.48153 3.40950
# Velocity P-wave (km/s) = 5.96420 6.26828 6.11813
#
# Compressibility (1/GPa) = 0.02388105
#
# Stress axis : x y z
#
# Youngs Moduli (GPa) = 53.78539 53.78529 48.96466
#
# Poissons Ratio (x) = 0.55170 0.16172
# Poissons Ratio (y) = 0.55170 0.16173
# Poissons Ratio (z) = 0.17765 0.17766
#
# Static dielectric constant tensor:
#      x y z
#    x 1.724110 0.000000 0.000000 
#    y 0.000000 1.724110 0.000000 
#    z 0.000000 0.000000 1.854630 
# 
# From -- ./inp_files/457.got.cif
#   From: 2010.05.17/outbox.cif.g08.bks.cpg/sg92_1_cif.got.tgz:457.got - 2010.06.03 19:35:17.
