data_PCOD9548855
_publ_section_title
;
Structure prediction by ZEFSAII (Michael W. Deem and Ramdas Pophale) SiO2 
 PCOD9548855
Probable space group: P 41 21 2
;
_chemical_formula_sum "Si O2"
_cell_formula_units_Z 48
_cell_length_a 17.266882
_cell_length_b 17.266882
_cell_length_c 9.092571
_cell_angle_alpha 90.000000
_cell_angle_beta 90.000000
_cell_angle_gamma 90.000000
_cell_volume 2710.906527
_symmetry_space_group_name_H-M "P 41 21 2"
_symmetry_group_IT_number 92
_symmetry_cell_setting 'tetragonal'
loop_
_space_group_symop_operation_xyz
x,y,z
1/2-y,1/2+x,1/4+z
-x,-y,1/2+z
1/2+y,1/2-x,3/4+z
1/2+x,1/2-y,3/4-z
1/2-x,1/2+y,1/4-z
y,x,-z
-y,-x,1/2-z
loop_
_atom_site_type_symbol
_atom_site_label
_atom_site_fract_x
_atom_site_fract_y
_atom_site_fract_z
Si Si1 0.642557 0.835516 0.827980
Si Si2 0.784828 0.104003 0.337109
Si Si3 0.939466 0.735706 0.679544
Si Si4 0.029234 0.343485 0.475762
Si Si5 0.927199 0.495402 0.807880
Si Si6 0.774988 0.256490 0.912518
O O1 0.561442 0.838749 0.743401
O O2 0.710905 0.793264 0.745076
O O3 0.621766 0.786677 0.975866
O O4 0.664978 0.920055 0.880946
O O5 0.856589 0.143412 0.250000
O O6 0.761891 0.149486 0.486737
O O7 0.792699 0.011339 0.357646
O O8 0.947594 0.719779 0.854086
O O9 0.848108 0.744833 0.650267
O O10 0.965617 0.657247 0.596478
O O11 0.052526 0.424711 0.395989
O O12 0.937997 0.512901 0.637296
O O13 0.778938 0.221063 0.750000
#
# Coordination Sequence:
#
# PCOD9548855 Si02
#       6
#     8   8   8   8   8   8
#     4  10  19  34  56  81 114 149 186 236 269 344
#     4   9  17  34  60  79 102 144 188 236 279 336
#     4  10  18  33  53  76 106 148 186 225 279 339
#     4  10  16  31  56  85 109 140 189 222 273 342
#     4  10  17  27  46  74 109 138 174 212 263 337
#     4  11  23  37  49  82 119 147 191 232 293 342
#
# _framework density 17.706254000000001
#
# number of rings (size 3 to 8) (size 9 to 14) (size 15 to 20)
#    0.000    2.000    6.667    1.000    0.000    1.333 
#    3.000    0.000    0.000    0.000   13.000    0.000 
#    0.000    0.000    0.000    0.000    0.000    0.000 
#
# Total GULP energy -267473.299936 kJ/mol
# GULP energy per Si atom -5572.360415 kJ/mol
# Density = 1.766595 g / cm^3
# Si number density = 17.706254 Si / 1000 Ang^3
#
#
#
# Elastic Constant Matrix: (Units=GPa)
#
#
# Indices 1 2 3 4 5 6 
#
# 1 71.8025 18.8151 16.6521 0.0000 0.0000 0.0000
# 2 18.8151 71.8043 16.6519 0.0000 0.0000 0.0000
# 3 16.6521 16.6519 55.3260 0.0000 0.0000 0.0000
# 4 0.0000 0.0000 0.0000 21.2390 0.0000 0.0000
# 5 0.0000 0.0000 0.0000 0.0000 21.2387 0.0000
# 6 0.0000 0.0000 0.0000 0.0000 0.0000 20.4646
#
#
#
# Elastic Compliance Matrix: (Units=1/GPa)
#
#
# Indices 1 2 3 4 5 6 
#
# 1 0.015640 -0.003232 -0.003735 0.000000 0.000000 0.000000
# 2 -0.003232 0.015640 -0.003734 0.000000 0.000000 0.000000
# 3 -0.003735 -0.003734 0.020323 0.000000 0.000000 0.000000
# 4 0.000000 0.000000 0.000000 0.047083 0.000000 0.000000
# 5 0.000000 0.000000 0.000000 0.000000 0.047084 0.000000
# 6 0.000000 0.000000 0.000000 0.000000 0.000000 0.048865
#
#
# Mechanical properties :
#
#
# Convention : Reuss Voigt Hill
#
# Bulk Modulus (GPa) = 33.11228 33.68567 33.39898
# Shear Modulus (GPa) = 22.11377 22.37604 22.24491
#
# Velocity S-wave (km/s) = 3.53785 3.55876 3.54832
# Velocity P-wave (km/s) = 5.95231 5.99604 5.97421
#
# Compressibility (1/GPa) = 0.03020028
#
# Stress axis : x y z
#
# Youngs Moduli (GPa) = 63.93805 63.93982 49.20610
#
# Poissons Ratio (x) = 0.20666 0.18376
# Poissons Ratio (y) = 0.20666 0.18376
# Poissons Ratio (z) = 0.23878 0.23878
#
# Static dielectric constant tensor:
#      x y z
#    x 1.636150 0.000000 0.000000 
#    y 0.000000 1.636140 0.000000 
#    z 0.000000 0.000000 1.647660 
# 
# From -- ./inp_files/1503.got.cif
#   From: 2010.05.17/outbox.cif.g08.bks.cpg/sg92_1_cif.got.tgz:1503.got - 2010.06.03 19:35:17.
