data_PCOD9548963
_publ_section_title
;
Structure prediction by ZEFSAII (Michael W. Deem and Ramdas Pophale) SiO2 
 PCOD9548963
Probable space group: P 41 21 2
;
_chemical_formula_sum "Si O2"
_cell_formula_units_Z 40
_cell_length_a 12.770998
_cell_length_b 12.770998
_cell_length_c 10.887689
_cell_angle_alpha 90.000000
_cell_angle_beta 90.000000
_cell_angle_gamma 90.000000
_cell_volume 1775.764546
_symmetry_space_group_name_H-M "P 41 21 2"
_symmetry_group_IT_number 92
_symmetry_cell_setting 'tetragonal'
loop_
_space_group_symop_operation_xyz
x,y,z
1/2-y,1/2+x,1/4+z
-x,-y,1/2+z
1/2+y,1/2-x,3/4+z
1/2+x,1/2-y,3/4-z
1/2-x,1/2+y,1/4-z
y,x,-z
-y,-x,1/2-z
loop_
_atom_site_type_symbol
_atom_site_label
_atom_site_fract_x
_atom_site_fract_y
_atom_site_fract_z
Si Si1 0.238402 0.850451 0.429639
Si Si2 0.026883 0.563019 0.174566
Si Si3 0.705207 0.068544 0.183122
Si Si4 0.432367 0.432367 0.000000
Si Si5 0.713296 0.286705 0.250000
Si Si6 0.368135 0.668101 0.004126
O O1 0.331563 0.916286 0.366646
O O2 0.225672 0.886778 0.571016
O O3 0.134422 0.884583 0.361676
O O4 0.277831 0.729447 0.425713
O O5 0.025153 0.565423 0.324460
O O6 0.906135 0.558156 0.132379
O O7 0.694432 0.164634 0.276665
O O8 0.753281 0.965520 0.240656
O O9 0.553264 0.410771 0.964118
O O10 0.679712 0.350063 0.367935
#
# Coordination Sequence:
#
# PCOD9548963 Si02
#       6
#     8   8   8   4   4   8
#     4  10  23  41  62  92 134 176 213 270 345 412
#     4  10  20  38  66  94 126 174 225 272 330 399
#     4  10  20  38  62  90 122 167 225 276 323 396
#     4  12  23  42  63  86 132 172 206 276 349 396
#     4  10  19  38  63  86 122 164 214 266 325 402
#     4  11  23  39  64  97 127 168 223 274 334 402
#
# _framework density 22.525507999999999
#
# number of rings (size 3 to 8) (size 9 to 14) (size 15 to 20)
#    0.000    1.600    0.000    7.800    0.000    3.200 
#    0.000    7.000    0.000    0.000    0.000    0.000 
#    0.000    0.000    0.000    0.000    0.000    0.000 
#
# Total GULP energy -223050.363618 kJ/mol
# GULP energy per Si atom -5576.259090 kJ/mol
# Density = 2.247424 g / cm^3
# Si number density = 22.525508 Si / 1000 Ang^3
#
#
#
# Elastic Constant Matrix: (Units=GPa)
#
#
# Indices 1 2 3 4 5 6 
#
# 1 110.6127 41.9932 -1.5077 0.0000 0.0000 0.0000
# 2 41.9932 110.6119 -1.5075 0.0000 0.0000 0.0000
# 3 -1.5077 -1.5075 27.1416 0.0000 0.0000 0.0000
# 4 0.0000 0.0000 0.0000 27.2603 0.0000 0.0000
# 5 0.0000 0.0000 0.0000 0.0000 27.2602 0.0000
# 6 0.0000 0.0000 0.0000 0.0000 0.0000 38.3101
#
#
#
# Elastic Compliance Matrix: (Units=1/GPa)
#
#
# Indices 1 2 3 4 5 6 
#
# 1 0.010567 -0.004007 0.000364 0.000000 0.000000 0.000000
# 2 -0.004007 0.010567 0.000364 0.000000 0.000000 0.000000
# 3 0.000364 0.000364 0.036884 0.000000 0.000000 0.000000
# 4 0.000000 0.000000 0.000000 0.036683 0.000000 0.000000
# 5 0.000000 0.000000 0.000000 0.000000 0.036683 0.000000
# 6 0.000000 0.000000 0.000000 0.000000 0.000000 0.026103
#
#
# Mechanical properties :
#
#
# Convention : Reuss Voigt Hill
#
# Bulk Modulus (GPa) = 19.43182 36.25802 27.84492
# Shear Modulus (GPa) = 27.59430 32.52534 30.05982
#
# Velocity S-wave (km/s) = 3.50383 3.80404 3.65702
# Velocity P-wave (km/s) = 5.00144 5.95194 5.49727
#
# Compressibility (1/GPa) = 0.05146197
#
# Stress axis : x y z
#
# Youngs Moduli (GPa) = 94.63796 94.63730 27.11179
#
# Poissons Ratio (x) = 0.37917 -0.00988
# Poissons Ratio (y) = 0.37917 -0.00988
# Poissons Ratio (z) = -0.03449 -0.03448
#
# Static dielectric constant tensor:
#      x y z
#    x 1.893960 0.000000 0.000000 
#    y 0.000000 1.893960 0.000000 
#    z 0.000000 0.000000 2.033630 
# 
# From -- ./inp_files/2674.got.cif
#   From: 2010.05.17/outbox.cif.g08.bks.cpg/sg92_2_cif.got.tgz:2674.got - 2010.06.03 19:35:17.
