data_PCOD9548820
_publ_section_title
;
Structure prediction by ZEFSAII (Michael W. Deem and Ramdas Pophale) SiO2 
 PCOD9548820
Probable space group: P 41 2 2
;
_chemical_formula_sum "Si O2"
_cell_formula_units_Z 36
_cell_length_a 8.238427
_cell_length_b 8.238427
_cell_length_c 22.213004
_cell_angle_alpha 90.000000
_cell_angle_beta 90.000000
_cell_angle_gamma 90.000000
_cell_volume 1507.633887
_symmetry_space_group_name_H-M "P 41 2 2"
_symmetry_group_IT_number 91
_symmetry_cell_setting 'tetragonal'
loop_
_space_group_symop_operation_xyz
x,y,z
-y,x,1/4+z
-x,-y,1/2+z
y,-x,3/4+z
x,-y,1/2-z
-x,y,-z
y,x,3/4-z
-y,-x,1/4-z
loop_
_atom_site_type_symbol
_atom_site_label
_atom_site_fract_x
_atom_site_fract_y
_atom_site_fract_z
Si Si1 0.679817 0.970852 0.020085
Si Si2 0.000000 0.169105 0.000000
Si Si3 0.755823 0.329758 0.559903
Si Si4 0.588520 0.975404 0.149888
Si Si5 0.648342 0.351659 0.125000
Si Si6 0.452085 0.500000 0.750000
O O1 0.633838 0.898091 0.085369
O O2 0.500000 0.037802 0.000000
O O3 0.741384 0.845989 0.969366
O O4 0.842808 0.077789 0.027386
O O5 0.921461 0.280782 0.948776
O O6 0.671774 0.328227 0.625000
O O7 0.927661 0.412276 0.574729
O O8 0.656840 0.440351 0.514426
O O9 0.612134 0.166344 0.142468
O O10 0.541522 0.373902 0.064573
#
# Coordination Sequence:
#
# PCOD9548820 Si02
#       6
#     8   4   8   8   4   4
#     4  12  27  53  81 117 163 214 269 345 420 505
#     4  12  28  54  78 116 166 218 268 340 424 512
#     4  12  25  50  79 115 156 202 272 336 412 497
#     4  12  27  53  75 118 162 206 277 341 426 505
#     4  12  28  48  82 114 166 218 268 350 422 508
#     4  12  26  48  80 118 154 214 268 336 414 504
#
# _framework density 23.878478999999999
#
# number of rings (size 3 to 8) (size 9 to 14) (size 15 to 20)
#    0.000    0.000    6.667    1.333    1.556    4.444 
#    4.000    0.000    0.000    0.000    0.000    0.000 
#    0.000    0.000    0.000    0.000    0.000    0.000 
#
# Total GULP energy -201066.426286 kJ/mol
# GULP energy per Si atom -5585.178508 kJ/mol
# Density = 2.382413 g / cm^3
# Si number density = 23.878479 Si / 1000 Ang^3
#
#
#
# Elastic Constant Matrix: (Units=GPa)
#
#
# Indices 1 2 3 4 5 6 
#
# 1 70.1085 39.9258 13.5246 0.0000 0.0000 0.0000
# 2 39.9258 70.1073 13.5245 0.0000 0.0000 0.0000
# 3 13.5246 13.5245 145.7347 0.0000 0.0000 0.0000
# 4 0.0000 0.0000 0.0000 29.1383 0.0000 0.0000
# 5 0.0000 0.0000 0.0000 0.0000 29.1389 0.0000
# 6 0.0000 0.0000 0.0000 0.0000 0.0000 24.7561
#
#
#
# Elastic Compliance Matrix: (Units=1/GPa)
#
#
# Indices 1 2 3 4 5 6 
#
# 1 0.021216 -0.011916 -0.000863 0.000000 0.000000 0.000000
# 2 -0.011916 0.021216 -0.000863 0.000000 0.000000 0.000000
# 3 -0.000863 -0.000863 0.007022 0.000000 0.000000 0.000000
# 4 0.000000 0.000000 0.000000 0.034319 0.000000 0.000000
# 5 0.000000 0.000000 0.000000 0.000000 0.034318 0.000000
# 6 0.000000 0.000000 0.000000 0.000000 0.000000 0.040394
#
#
# Mechanical properties :
#
#
# Convention : Reuss Voigt Hill
#
# Bulk Modulus (GPa) = 45.10558 46.65559 45.88058
# Shear Modulus (GPa) = 25.88523 31.20504 28.54513
#
# Velocity S-wave (km/s) = 3.29605 3.61893 3.46125
# Velocity P-wave (km/s) = 5.78065 6.08633 5.93545
#
# Compressibility (1/GPa) = 0.02217021
#
# Stress axis : x y z
#
# Youngs Moduli (GPa) = 47.13407 47.13327 142.41004
#
# Poissons Ratio (x) = 0.56164 0.12291
# Poissons Ratio (y) = 0.56165 0.12291
# Poissons Ratio (z) = 0.04068 0.04068
#
# Static dielectric constant tensor:
#      x y z
#    x 1.938320 0.000000 0.000000 
#    y 0.000000 1.938320 0.000000 
#    z 0.000000 0.000000 1.908050 
# 
# From -- ./inp_files/6197.got.cif
#   From: 2010.05.17/outbox.cif.g08.bks.cpg/sg91_4_cif.got.tgz:6197.got - 2010.06.03 19:20:03.
