data_PCOD9548843
_publ_section_title
;
Structure prediction by ZEFSAII (Michael W. Deem and Ramdas Pophale) SiO2 
 PCOD9548843
Probable space group: P 41 2 2
;
_chemical_formula_sum "Si O2"
_cell_formula_units_Z 56
_cell_length_a 15.000000
_cell_length_b 15.000000
_cell_length_c 12.000000
_cell_angle_alpha 90.000000
_cell_angle_beta 90.000000
_cell_angle_gamma 90.000000
_cell_volume 2700.000000
_symmetry_space_group_name_H-M "P 41 2 2"
_symmetry_group_IT_number 91
_symmetry_cell_setting 'tetragonal'
loop_
_space_group_symop_operation_xyz
x,y,z
-y,x,1/4+z
-x,-y,1/2+z
y,-x,3/4+z
x,-y,1/2-z
-x,y,-z
y,x,3/4-z
-y,-x,1/4-z
loop_
_atom_site_type_symbol
_atom_site_label
_atom_site_fract_x
_atom_site_fract_y
_atom_site_fract_z
Si Si1 0.890221 0.840316 0.001463
Si Si2 0.020746 0.831810 0.626009
Si Si3 0.087825 0.643870 0.694874
Si Si4 0.226513 0.696564 0.856462
Si Si5 0.799692 0.610392 0.525416
Si Si6 0.271654 0.406948 0.427998
Si Si7 0.604559 0.114036 0.506469
O O1 0.852086 0.852086 0.875000
O O2 0.838074 0.766370 0.075924
O O3 0.000000 0.828774 0.000000
O O4 0.862185 0.932732 0.059935
O O5 0.083861 0.916140 0.625000
O O6 0.073178 0.749525 0.678324
O O7 0.000000 0.804741 0.500000
O O8 0.163303 0.632128 0.786056
O O9 0.129482 0.605609 0.578039
O O10 0.992700 0.617537 0.750824
O O11 0.302374 0.735746 0.772703
O O12 0.271668 0.639145 0.952491
O O13 0.748872 0.514638 0.551764
O O14 0.853042 0.638740 0.637400
O O15 0.363503 0.363503 0.375000
O O16 0.185197 0.370946 0.354343
O O17 0.500000 0.126502 0.500000
#
# Coordination Sequence:
#
# PCOD9548843 Si02
#       7
#     8   8   8   8   8   8   8
#     4  12  25  39  61  95 140 195 254 311 365 437
#     4  12  23  39  60  87 133 192 244 288 352 431
#     4  12  25  41  67 104 144 188 234 292 369 451
#     4  12  26  42  71 102 144 184 240 304 372 449
#     4  11  24  46  73 103 142 195 239 305 378 450
#     4  11  25  46  76 104 139 185 247 316 378 451
#     4  10  23  42  68 103 139 182 235 286 366 444
#
# _framework density 20.740741
#
# number of rings (size 3 to 8) (size 9 to 14) (size 15 to 20)
#    0.000    0.571    1.429    8.143    6.000    0.000 
#    0.000    0.000    0.000    5.143    0.000    0.000 
#    0.000    0.000    0.000    0.000    0.000    0.000 
#
# Total GULP energy -312214.573968 kJ/mol
# GULP energy per Si atom -5575.260249 kJ/mol
# Density = 2.069353 g / cm^3
# Si number density = 20.740741 Si / 1000 Ang^3
#
#
#
# Elastic Constant Matrix: (Units=GPa)
#
#
# Indices 1 2 3 4 5 6 
#
# 1 78.1686 9.3787 -4.5067 0.0000 0.0000 0.0000
# 2 9.3787 78.1688 -4.5048 0.0000 0.0000 0.0000
# 3 -4.5067 -4.5048 61.6122 0.0000 0.0000 0.0000
# 4 0.0000 0.0000 0.0000 -0.4017 0.0000 0.0000
# 5 0.0000 0.0000 0.0000 0.0000 -0.4266 0.0000
# 6 0.0000 0.0000 0.0000 0.0000 0.0000 26.7177
#
#
#
# Elastic Compliance Matrix: (Units=1/GPa)
#
#
# Indices 1 2 3 4 5 6 
#
# 1 0.013023 -0.001514 0.000842 0.000000 0.000000 0.000000
# 2 -0.001514 0.013023 0.000841 0.000000 0.000000 0.000000
# 3 0.000842 0.000841 0.016354 0.000000 0.000000 0.000000
# 4 0.000000 0.000000 0.000000 -2.489377 0.000000 0.000000
# 5 0.000000 0.000000 0.000000 0.000000 -2.344380 0.000000
# 6 0.000000 0.000000 0.000000 0.000000 0.000000 0.037428
#
#
# Mechanical properties :
#
#
# Convention : Reuss Voigt Hill
#
# Bulk Modulus (GPa) = 23.39819 24.29823 23.84821
# Shear Modulus (GPa) = -1.05485 19.68338 9.31426
#
# Velocity S-wave (km/s) = -0.71393 3.08396 2.12145
# Velocity P-wave (km/s) = 3.25978 4.94183 4.18616
#
# Compressibility (1/GPa) = 0.04273834
#
# Stress axis : x y z
#
# Youngs Moduli (GPa) = 76.78697 76.78740 61.14840
#
# Poissons Ratio (x) = 0.11626 -0.05148
# Poissons Ratio (y) = 0.11625 -0.05145
# Poissons Ratio (z) = -0.06465 -0.06461
#
# Static dielectric constant tensor:
#      x y z
#    x 1.817910 0.000000 0.000000 
#    y 0.000000 1.817950 0.000000 
#    z 0.000000 0.000000 1.796130 
# 
# From -- ./inp_files/15967.got.cif
#   From: 2010.05.17/outbox.ucp.g08.bks.cvg/sg91_8_cif.got.tgz:15967.got - 2010.06.11 10:36:11.
