data_PCOD9548063
_publ_section_title
;
Structure prediction by ZEFSAII (Michael W. Deem and Ramdas Pophale) SiO2 
 PCOD9548063
Probable space group: P 41 2 2
;
_chemical_formula_sum "Si O2"
_cell_formula_units_Z 36
_cell_length_a 8.814804
_cell_length_b 8.814804
_cell_length_c 21.705411
_cell_angle_alpha 90.000000
_cell_angle_beta 90.000000
_cell_angle_gamma 90.000000
_cell_volume 1686.527138
_symmetry_space_group_name_H-M "P 41 2 2"
_symmetry_group_IT_number 91
_symmetry_cell_setting 'tetragonal'
loop_
_space_group_symop_operation_xyz
x,y,z
-y,x,1/4+z
-x,-y,1/2+z
y,-x,3/4+z
x,-y,1/2-z
-x,y,-z
y,x,3/4-z
-y,-x,1/4-z
loop_
_atom_site_type_symbol
_atom_site_label
_atom_site_fract_x
_atom_site_fract_y
_atom_site_fract_z
Si Si1 0.281957 0.411249 0.545113
Si Si2 0.500000 0.851788 0.000000
Si Si3 0.349145 0.500000 0.750000
Si Si4 0.000000 0.441219 0.000000
Si Si5 0.352740 0.108543 0.080803
Si Si6 0.142937 0.012098 0.679843
O O1 0.367221 0.256257 0.526947
O O2 0.411899 0.539435 0.545798
O O3 0.151825 0.459633 0.496669
O O4 0.187882 0.410805 0.607767
O O5 0.564762 0.960859 0.946146
O O6 0.238241 0.624217 0.779035
O O7 0.999812 0.322733 0.057005
O O8 0.175706 0.086642 0.091415
O O9 0.100425 0.899576 0.625000
O O10 0.077643 0.000000 0.750000
#
# Coordination Sequence:
#
# PCOD9548063 Si02
#       6
#     8   4   4   4   8   8
#     4  11  24  43  73 101 149 186 249 311 371 451
#     4  10  28  44  70 110 142 194 248 302 388 454
#     4  10  20  46  66 108 132 192 246 308 366 444
#     4  10  24  44  74 108 148 200 248 310 382 440
#     4  11  24  42  72  99 146 193 245 304 378 448
#     4  10  24  43  74 109 148 193 255 309 377 448
#
# _framework density 21.345638999999998
#
# number of rings (size 3 to 8) (size 9 to 14) (size 15 to 20)
#    0.667    0.889    2.222    0.667    6.222    5.333 
#    0.000    2.222    0.000    0.000    0.000    0.000 
#    0.000    0.000    0.000    0.000    0.000    0.000 
#
# Total GULP energy -200773.864325 kJ/mol
# GULP energy per Si atom -5577.051787 kJ/mol
# Density = 2.129706 g / cm^3
# Si number density = 21.345639 Si / 1000 Ang^3
#
#
#
# Elastic Constant Matrix: (Units=GPa)
#
#
# Indices 1 2 3 4 5 6 
#
# 1 108.9882 62.3372 26.9230 0.0000 0.0000 0.0000
# 2 62.3372 108.9895 26.9233 0.0000 0.0000 0.0000
# 3 26.9230 26.9233 76.3828 0.0000 0.0000 0.0000
# 4 0.0000 0.0000 0.0000 29.1085 0.0000 0.0000
# 5 0.0000 0.0000 0.0000 0.0000 29.1083 0.0000
# 6 0.0000 0.0000 0.0000 0.0000 0.0000 27.3343
#
#
#
# Elastic Compliance Matrix: (Units=1/GPa)
#
#
# Indices 1 2 3 4 5 6 
#
# 1 0.014000 -0.007436 -0.002314 0.000000 0.000000 0.000000
# 2 -0.007436 0.014000 -0.002314 0.000000 0.000000 0.000000
# 3 -0.002314 -0.002314 0.014723 0.000000 0.000000 0.000000
# 4 0.000000 0.000000 0.000000 0.034354 0.000000 0.000000
# 5 0.000000 0.000000 0.000000 0.000000 0.034355 0.000000
# 6 0.000000 0.000000 0.000000 0.000000 0.000000 0.036584
#
#
# Mechanical properties :
#
#
# Convention : Reuss Voigt Hill
#
# Bulk Modulus (GPa) = 53.77404 58.52527 56.14966
# Shear Modulus (GPa) = 28.03631 28.98867 28.51249
#
# Velocity S-wave (km/s) = 3.62808 3.68919 3.65876
# Velocity P-wave (km/s) = 6.54197 6.75457 6.64912
#
# Compressibility (1/GPa) = 0.01859633
#
# Stress axis : x y z
#
# Youngs Moduli (GPa) = 71.42959 71.43036 67.92106
#
# Poissons Ratio (x) = 0.53114 0.15714
# Poissons Ratio (y) = 0.53113 0.15715
# Poissons Ratio (z) = 0.16526 0.16527
#
# Static dielectric constant tensor:
#      x y z
#    x 1.788200 0.000000 0.000000 
#    y 0.000000 1.788200 0.000000 
#    z 0.000000 0.000000 1.895630 
# 
# From -- ./inp_files/6202.got.cif
#   From: 2010.05.17/outbox.cif.g08.bks.cpg/sg91_4_cif.got.tgz:6202.got - 2010.06.03 19:20:03.
