data_PCOD9548381
_publ_section_title
;
Structure prediction by ZEFSAII (Michael W. Deem and Ramdas Pophale) SiO2 
 PCOD9548381
Probable space group: P 41 2 2
;
_chemical_formula_sum "Si O2"
_cell_formula_units_Z 36
_cell_length_a 8.566575
_cell_length_b 8.566575
_cell_length_c 20.292273
_cell_angle_alpha 90.000000
_cell_angle_beta 90.000000
_cell_angle_gamma 90.000000
_cell_volume 1489.172952
_symmetry_space_group_name_H-M "P 41 2 2"
_symmetry_group_IT_number 91
_symmetry_cell_setting 'tetragonal'
loop_
_space_group_symop_operation_xyz
x,y,z
-y,x,1/4+z
-x,-y,1/2+z
y,-x,3/4+z
x,-y,1/2-z
-x,y,-z
y,x,3/4-z
-y,-x,1/4-z
loop_
_atom_site_type_symbol
_atom_site_label
_atom_site_fract_x
_atom_site_fract_y
_atom_site_fract_z
Si Si1 0.128833 0.954081 0.324002
Si Si2 0.642826 0.013033 0.128123
Si Si3 0.739785 0.567050 0.070621
Si Si4 0.613029 0.700779 0.199387
Si Si5 0.106073 0.500000 0.750000
O O1 0.022986 0.812647 0.350402
O O2 0.301428 0.876450 0.320996
O O3 0.084901 0.000000 0.250000
O O4 0.095601 0.095601 0.375000
O O5 0.613464 0.882779 0.182743
O O6 0.594504 0.178233 0.157848
O O7 0.534466 0.002709 0.063333
O O8 0.622036 0.619687 0.127718
O O9 0.672641 0.529613 0.998938
O O10 0.773711 0.640314 0.233103
#
# Coordination Sequence:
#
# PCOD9548381 Si02
#       5
#     8   8   8   8   4
#     4  11  26  41  69 108 143 185 240 307 371 435
#     4  10  23  40  70  98 143 188 242 304 369 436
#     4  10  23  46  71 105 139 194 242 307 366 449
#     4  10  22  43  72  99 142 190 245 303 372 442
#     4  10  24  42  66 102 140 186 254 302 368 456
#
# _framework density 24.174492000000001
#
# number of rings (size 3 to 8) (size 9 to 14) (size 15 to 20)
#    0.000    1.778    0.000    2.000   12.444    2.667 
#    0.000    8.889    9.778    0.000    0.000    0.000 
#    0.000    0.000    0.000    0.000    0.000    0.000 
#
# Total GULP energy -201204.200768 kJ/mol
# GULP energy per Si atom -5589.005577 kJ/mol
# Density = 2.411947 g / cm^3
# Si number density = 24.174492 Si / 1000 Ang^3
#
#
#
# Elastic Constant Matrix: (Units=GPa)
#
#
# Indices 1 2 3 4 5 6 
#
# 1 75.2020 74.8978 46.8452 0.0000 0.0000 0.0000
# 2 74.8978 75.2020 46.8452 0.0000 0.0000 0.0000
# 3 46.8452 46.8452 189.9822 0.0000 0.0000 0.0000
# 4 0.0000 0.0000 0.0000 38.9080 0.0000 0.0000
# 5 0.0000 0.0000 0.0000 0.0000 38.9080 0.0000
# 6 0.0000 0.0000 0.0000 0.0000 0.0000 -11.5916
#
#
#
# Elastic Compliance Matrix: (Units=1/GPa)
#
#
# Indices 1 2 3 4 5 6 
#
# 1 1.647441 -1.639566 -0.001942 0.000000 0.000000 0.000000
# 2 -1.639566 1.647441 -0.001942 0.000000 0.000000 0.000000
# 3 -0.001942 -0.001942 0.006221 0.000000 0.000000 0.000000
# 4 0.000000 0.000000 0.000000 0.025702 0.000000 0.000000
# 5 0.000000 0.000000 0.000000 0.000000 0.025702 0.000000
# 6 0.000000 0.000000 0.000000 0.000000 0.000000 -0.086269
#
#
# Mechanical properties :
#
#
# Convention : Reuss Voigt Hill
#
# Bulk Modulus (GPa) = 70.40709 75.28473 72.84591
# Shear Modulus (GPa) = 0.76244 24.69808 12.73026
#
# Velocity S-wave (km/s) = 0.56221 3.19981 2.29726
# Velocity P-wave (km/s) = 5.44143 6.69787 6.10208
#
# Compressibility (1/GPa) = 0.01420311
#
# Stress axis : x y z
#
# Youngs Moduli (GPa) = 0.60700 0.60700 160.74208
#
# Poissons Ratio (x) = 0.99522 0.31209
# Poissons Ratio (y) = 0.99522 0.31209
# Poissons Ratio (z) = 0.00118 0.00118
#
# Static dielectric constant tensor:
#      x y z
#    x 1.973400 0.000000 0.000000 
#    y 0.000000 1.973400 0.000000 
#    z 0.000000 0.000000 1.994420 
# 
# From -- ./inp_files/17205.got.cif
#   From: 2010.05.17/outbox.cif.g08.bks.cpg/sg91_9_cif.got.tgz:17205.got - 2010.06.03 19:20:03.
