data_PCOD9548348
_publ_section_title
;
Structure prediction by ZEFSAII (Michael W. Deem and Ramdas Pophale) SiO2 
 PCOD9548348
Probable space group: P 41 2 2
;
_chemical_formula_sum "Si O2"
_cell_formula_units_Z 40
_cell_length_a 14.771021
_cell_length_b 14.771021
_cell_length_c 8.500048
_cell_angle_alpha 90.000000
_cell_angle_beta 90.000000
_cell_angle_gamma 90.000000
_cell_volume 1854.566495
_symmetry_space_group_name_H-M "P 41 2 2"
_symmetry_group_IT_number 91
_symmetry_cell_setting 'tetragonal'
loop_
_space_group_symop_operation_xyz
x,y,z
-y,x,1/4+z
-x,-y,1/2+z
y,-x,3/4+z
x,-y,1/2-z
-x,y,-z
y,x,3/4-z
-y,-x,1/4-z
loop_
_atom_site_type_symbol
_atom_site_label
_atom_site_fract_x
_atom_site_fract_y
_atom_site_fract_z
Si Si1 0.954643 0.236612 0.324574
Si Si2 0.861376 0.409117 0.203360
Si Si3 0.210895 0.141047 0.540458
Si Si4 0.217268 0.409823 0.147328
Si Si5 0.396217 0.334538 0.039005
O O1 0.926572 0.327159 0.235058
O O2 0.860751 0.182741 0.338877
O O3 0.000000 0.250793 0.500000
O O4 0.034587 0.193865 0.223736
O O5 0.911591 0.500000 0.250000
O O6 0.772909 0.399193 0.318293
O O7 0.820598 0.422446 0.029759
O O8 0.183764 0.183764 0.375000
O O9 0.315834 0.167692 0.558692
O O10 0.200552 0.500000 0.250000
O O11 0.326859 0.388388 0.150890
O O12 0.500000 0.364681 0.000000
O O13 0.344947 0.344947 0.875000
#
# Coordination Sequence:
#
# PCOD9548348 Si02
#       5
#     8   8   8   8   8
#     4  10  22  43  73  97 136 187 229 302 363 432
#     4  10  22  42  67  95 140 182 227 286 356 419
#     4  10  23  42  71  98 140 179 239 293 365 422
#     4  11  24  39  68 105 140 190 240 288 354 427
#     4   9  19  36  58  88 132 183 225 275 336 392
#
# _framework density 21.568383999999998
#
# number of rings (size 3 to 8) (size 9 to 14) (size 15 to 20)
#    0.000    2.000    2.000    0.000    5.600    4.000 
#    0.000    0.000   35.200    0.000    0.000    0.000 
#    0.000    0.000    0.000    0.000    0.000    0.000 
#
# Total GULP energy -222809.428915 kJ/mol
# GULP energy per Si atom -5570.235723 kJ/mol
# Density = 2.151929 g / cm^3
# Si number density = 21.568384 Si / 1000 Ang^3
#
#
#
# Elastic Constant Matrix: (Units=GPa)
#
#
# Indices 1 2 3 4 5 6 
#
# 1 103.7868 36.4420 36.2847 0.0000 0.0000 0.0000
# 2 36.4420 103.7868 36.2847 0.0000 0.0000 0.0000
# 3 36.2847 36.2847 37.7137 0.0000 0.0000 0.0000
# 4 0.0000 0.0000 0.0000 16.6968 0.0000 0.0000
# 5 0.0000 0.0000 0.0000 0.0000 16.6968 0.0000
# 6 0.0000 0.0000 0.0000 0.0000 0.0000 4.0450
#
#
#
# Elastic Compliance Matrix: (Units=1/GPa)
#
#
# Indices 1 2 3 4 5 6 
#
# 1 0.014526 -0.000323 -0.013665 0.000000 0.000000 0.000000
# 2 -0.000323 0.014526 -0.013665 0.000000 0.000000 0.000000
# 3 -0.013665 -0.013665 0.052809 0.000000 0.000000 0.000000
# 4 0.000000 0.000000 0.000000 0.059892 0.000000 0.000000
# 5 0.000000 0.000000 0.000000 0.000000 0.059892 0.000000
# 6 0.000000 0.000000 0.000000 0.000000 0.000000 0.247218
#
#
# Mechanical properties :
#
#
# Convention : Reuss Voigt Hill
#
# Bulk Modulus (GPa) = 37.65582 51.47892 44.56737
# Shear Modulus (GPa) = 9.74623 16.57277 13.15950
#
# Velocity S-wave (km/s) = 2.12804 2.77498 2.47276
# Velocity P-wave (km/s) = 4.85127 5.84696 5.37223
#
# Compressibility (1/GPa) = 0.02655632
#
# Stress axis : x y z
#
# Youngs Moduli (GPa) = 68.84278 68.84278 18.93610
#
# Poissons Ratio (x) = 0.02224 0.25875
# Poissons Ratio (y) = 0.02224 0.25875
# Poissons Ratio (z) = 0.94071 0.94071
#
# Static dielectric constant tensor:
#      x y z
#    x 1.838810 0.000000 0.000000 
#    y 0.000000 1.838810 0.000000 
#    z 0.000000 0.000000 1.812720 
# 
# From -- ./inp_files/2391.got.cif
#   From: 2010.05.17/outbox.cif.g08.bks.cpg/sg91_2_cif.got.tgz:2391.got - 2010.06.03 19:20:03.
