data_PCOD9548516
_publ_section_title
;
Structure prediction by ZEFSAII (Michael W. Deem and Ramdas Pophale) SiO2 
 PCOD9548516
Probable space group: P 41 2 2
;
_chemical_formula_sum "Si O2"
_cell_formula_units_Z 40
_cell_length_a 9.529416
_cell_length_b 9.529416
_cell_length_c 19.910094
_cell_angle_alpha 90.000000
_cell_angle_beta 90.000000
_cell_angle_gamma 90.000000
_cell_volume 1808.031043
_symmetry_space_group_name_H-M "P 41 2 2"
_symmetry_group_IT_number 91
_symmetry_cell_setting 'tetragonal'
loop_
_space_group_symop_operation_xyz
x,y,z
-y,x,1/4+z
-x,-y,1/2+z
y,-x,3/4+z
x,-y,1/2-z
-x,y,-z
y,x,3/4-z
-y,-x,1/4-z
loop_
_atom_site_type_symbol
_atom_site_label
_atom_site_fract_x
_atom_site_fract_y
_atom_site_fract_z
Si Si1 0.470910 0.077536 0.925349
Si Si2 0.000000 0.783881 0.000000
Si Si3 0.992728 0.007273 0.625000
Si Si4 0.363256 0.230845 0.172555
Si Si5 0.302432 0.880036 0.841855
Si Si6 0.661259 0.347601 0.026389
O O1 0.613627 0.144483 0.896909
O O2 0.419326 0.991597 0.861387
O O3 0.500000 0.017264 0.000000
O O4 0.354410 0.198753 0.936455
O O5 0.028586 0.884074 0.063762
O O6 0.869704 0.684892 0.018091
O O7 0.150536 0.043400 0.651833
O O8 0.229387 0.321471 0.153700
O O9 0.507734 0.309369 0.185316
O O10 0.331073 0.790467 0.775398
O O11 0.500000 0.362698 0.000000
#
# Coordination Sequence:
#
# PCOD9548516 Si02
#       6
#     8   4   4   8   8   8
#     4  11  24  44  70  98 142 182 239 297 350 438
#     4  10  24  44  68  98 148 184 242 300 370 432
#     4  10  26  42  68 106 146 180 240 314 354 442
#     4  11  23  43  67 100 135 185 234 285 355 430
#     4  11  25  42  69 102 135 188 232 288 368 417
#     4  11  24  45  69 101 142 181 235 297 355 437
#
# _framework density 22.123515999999999
#
# number of rings (size 3 to 8) (size 9 to 14) (size 15 to 20)
#    0.000    1.200    4.000    1.800    8.400    0.800 
#    0.000    2.000    0.000    0.000    0.000    0.000 
#    0.000    0.000    0.000    0.000    0.000    0.000 
#
# Total GULP energy -223052.856236 kJ/mol
# GULP energy per Si atom -5576.321406 kJ/mol
# Density = 2.207316 g / cm^3
# Si number density = 22.123516 Si / 1000 Ang^3
#
#
#
# Elastic Constant Matrix: (Units=GPa)
#
#
# Indices 1 2 3 4 5 6 
#
# 1 56.5803 24.3626 19.6853 0.0000 0.0000 0.0000
# 2 24.3626 56.5798 19.6853 0.0000 0.0000 0.0000
# 3 19.6853 19.6853 68.8376 0.0000 0.0000 0.0000
# 4 0.0000 0.0000 0.0000 41.9192 0.0000 0.0000
# 5 0.0000 0.0000 0.0000 0.0000 41.9192 0.0000
# 6 0.0000 0.0000 0.0000 0.0000 0.0000 17.0006
#
#
#
# Elastic Compliance Matrix: (Units=1/GPa)
#
#
# Indices 1 2 3 4 5 6 
#
# 1 0.022695 -0.008344 -0.004104 0.000000 0.000000 0.000000
# 2 -0.008344 0.022695 -0.004104 0.000000 0.000000 0.000000
# 3 -0.004104 -0.004104 0.016874 0.000000 0.000000 0.000000
# 4 0.000000 0.000000 0.000000 0.023855 0.000000 0.000000
# 5 0.000000 0.000000 0.000000 0.000000 0.023855 0.000000
# 6 0.000000 0.000000 0.000000 0.000000 0.000000 0.058822
#
#
# Mechanical properties :
#
#
# Convention : Reuss Voigt Hill
#
# Bulk Modulus (GPa) = 34.29361 34.38490 34.33925
# Shear Modulus (GPa) = 23.62727 28.05207 25.83967
#
# Velocity S-wave (km/s) = 3.27153 3.56473 3.42127
# Velocity P-wave (km/s) = 5.45941 5.70254 5.58230
#
# Compressibility (1/GPa) = 0.02915995
#
# Stress axis : x y z
#
# Youngs Moduli (GPa) = 44.06314 44.06271 59.26262
#
# Poissons Ratio (x) = 0.36767 0.24320
# Poissons Ratio (y) = 0.36768 0.24320
# Poissons Ratio (z) = 0.18082 0.18083
#
# Static dielectric constant tensor:
#      x y z
#    x 1.799020 0.000000 0.000000 
#    y 0.000000 1.799020 0.000000 
#    z 0.000000 0.000000 1.886010 
# 
# From -- ./inp_files/17522.got.cif
#   From: 2010.05.17/outbox.cif.g08.bks.cpg/sg91_9_cif.got.tgz:17522.got - 2010.06.03 19:20:03.
