data_PCOD9548559
_publ_section_title
;
Structure prediction by ZEFSAII (Michael W. Deem and Ramdas Pophale) SiO2 
 PCOD9548559
Probable space group: P 41 2 2
;
_chemical_formula_sum "Si O2"
_cell_formula_units_Z 48
_cell_length_a 8.533407
_cell_length_b 8.533407
_cell_length_c 28.566596
_cell_angle_alpha 90.000000
_cell_angle_beta 90.000000
_cell_angle_gamma 90.000000
_cell_volume 2080.191955
_symmetry_space_group_name_H-M "P 41 2 2"
_symmetry_group_IT_number 91
_symmetry_cell_setting 'tetragonal'
loop_
_space_group_symop_operation_xyz
x,y,z
-y,x,1/4+z
-x,-y,1/2+z
y,-x,3/4+z
x,-y,1/2-z
-x,y,-z
y,x,3/4-z
-y,-x,1/4-z
loop_
_atom_site_type_symbol
_atom_site_label
_atom_site_fract_x
_atom_site_fract_y
_atom_site_fract_z
Si Si1 0.289006 0.719566 0.834886
Si Si2 0.753786 0.931921 0.913577
Si Si3 0.850240 0.327459 0.016905
Si Si4 0.436545 0.484146 0.946571
Si Si5 0.916036 0.013515 0.069971
Si Si6 0.845433 0.588572 0.671052
O O1 0.279281 0.761461 0.780430
O O2 0.378009 0.553258 0.834271
O O3 0.392832 0.842166 0.864413
O O4 0.111950 0.730658 0.854851
O O5 0.798577 0.798577 0.875000
O O6 0.583144 0.905166 0.936015
O O7 0.916783 0.932547 0.942877
O O8 0.734491 0.411728 0.051686
O O9 0.909189 0.174239 0.042558
O O10 0.000000 0.425614 0.000000
O O11 0.417692 0.663407 0.933274
O O12 0.500000 0.481435 0.000000
O O13 0.943234 0.056767 0.125000
O O14 0.748592 0.928434 0.061986
#
# Coordination Sequence:
#
# PCOD9548559 Si02
#       6
#     8   8   8   8   8   8
#     4  11  22  43  67  97 139 183 238 296 360 436
#     4  11  22  42  68 101 141 173 236 305 345 430
#     4  11  22  43  69  95 137 187 235 302 357 435
#     4  10  25  43  61 102 139 183 250 293 367 449
#     4  11  23  46  66 106 137 178 245 289 363 442
#     4  12  24  44  73 100 142 193 230 309 373 434
#
# _framework density 23.074794000000001
#
# number of rings (size 3 to 8) (size 9 to 14) (size 15 to 20)
#    0.000    1.000    5.000    2.500    0.000    5.333 
#    6.000    0.000    0.000    0.000    0.000    0.000 
#    0.000    0.000    0.000    0.000    0.000    0.000 
#
# Total GULP energy -267724.252295 kJ/mol
# GULP energy per Si atom -5577.588589 kJ/mol
# Density = 2.302228 g / cm^3
# Si number density = 23.074794 Si / 1000 Ang^3
#
#
#
# Elastic Constant Matrix: (Units=GPa)
#
#
# Indices 1 2 3 4 5 6 
#
# 1 155.1844 61.7241 3.5046 0.0000 0.0000 0.0000
# 2 61.7241 155.1844 3.5047 0.0000 0.0000 0.0000
# 3 3.5046 3.5047 35.7246 0.0000 0.0000 0.0000
# 4 0.0000 0.0000 0.0000 22.6443 0.0000 0.0000
# 5 0.0000 0.0000 0.0000 0.0000 22.6443 0.0000
# 6 0.0000 0.0000 0.0000 0.0000 0.0000 40.9222
#
#
#
# Elastic Compliance Matrix: (Units=1/GPa)
#
#
# Indices 1 2 3 4 5 6 
#
# 1 0.007662 -0.003037 -0.000454 0.000000 0.000000 0.000000
# 2 -0.003037 0.007662 -0.000454 0.000000 0.000000 0.000000
# 3 -0.000454 -0.000454 0.028081 0.000000 0.000000 0.000000
# 4 0.000000 0.000000 0.000000 0.044161 0.000000 0.000000
# 5 0.000000 0.000000 0.000000 0.000000 0.044161 0.000000
# 6 0.000000 0.000000 0.000000 0.000000 0.000000 0.024437
#
#
# Mechanical properties :
#
#
# Convention : Reuss Voigt Hill
#
# Bulk Modulus (GPa) = 28.15639 53.72890 40.94265
# Shear Modulus (GPa) = 28.42637 35.73283 32.07960
#
# Velocity S-wave (km/s) = 3.51368 3.93945 3.73264
# Velocity P-wave (km/s) = 5.35631 6.63533 6.02983
#
# Compressibility (1/GPa) = 0.03551592
#
# Stress axis : x y z
#
# Youngs Moduli (GPa) = 130.50890 130.50885 35.61134
#
# Poissons Ratio (x) = 0.39641 0.01616
# Poissons Ratio (y) = 0.39641 0.01616
# Poissons Ratio (z) = 0.05921 0.05921
#
# Static dielectric constant tensor:
#      x y z
#    x 1.914070 0.000000 0.000000 
#    y 0.000000 1.914070 0.000000 
#    z 0.000000 0.000000 1.973620 
# 
# From -- ./inp_files/22255.got.cif
#   From: 2010.05.17/outbox.cif.g08.bks.cpg/sg91_12_cif.got.tgz:22255.got - 2010.06.03 19:20:03.
