data_PCOD9548967
_publ_section_title
;
Structure prediction by ZEFSAII (Michael W. Deem and Ramdas Pophale) SiO2 
 PCOD9548967
Probable space group: P 41 21 2
;
_chemical_formula_sum "Si O2"
_cell_formula_units_Z 40
_cell_length_a 14.785295
_cell_length_b 14.785295
_cell_length_c 8.322122
_cell_angle_alpha 90.000000
_cell_angle_beta 90.000000
_cell_angle_gamma 90.000000
_cell_volume 1819.257049
_symmetry_space_group_name_H-M "P 41 21 2"
_symmetry_group_IT_number 92
_symmetry_cell_setting 'tetragonal'
loop_
_space_group_symop_operation_xyz
x,y,z
1/2-y,1/2+x,1/4+z
-x,-y,1/2+z
1/2+y,1/2-x,3/4+z
1/2+x,1/2-y,3/4-z
1/2-x,1/2+y,1/4-z
y,x,-z
-y,-x,1/2-z
loop_
_atom_site_type_symbol
_atom_site_label
_atom_site_fract_x
_atom_site_fract_y
_atom_site_fract_z
Si Si1 0.363200 0.264853 0.864402
Si Si2 0.982377 0.113325 0.097850
Si Si3 0.798389 0.338157 0.198727
Si Si4 0.087794 0.453685 0.039157
Si Si5 0.301351 0.995148 0.732936
O O1 0.407373 0.352284 0.780070
O O2 0.316566 0.207457 0.724208
O O3 0.434645 0.193451 0.937281
O O4 0.294883 0.294883 0.000000
O O5 0.015683 0.208557 0.171846
O O6 0.055732 0.055732 0.000000
O O7 0.941080 0.058921 0.250000
O O8 0.704547 0.295454 0.250000
O O9 0.799090 0.444613 0.175230
O O10 0.887942 0.308395 0.295130
O O11 0.062981 0.550545 0.112221
O O12 0.029759 0.383334 0.152731
#
# Coordination Sequence:
#
# PCOD9548967 Si02
#       5
#     8   8   8   8   8
#     4  10  21  41  67  94 129 175 223 272 339 400
#     4  11  23  42  68  92 133 175 225 286 339 396
#     4  10  21  40  66  94 129 174 218 279 337 399
#     4  11  21  43  63  96 131 177 213 273 337 401
#     4  10  19  38  66  86 130 166 214 266 335 396
#
# _framework density 21.986996999999999
#
# number of rings (size 3 to 8) (size 9 to 14) (size 15 to 20)
#    0.000    1.600    6.000    3.000    0.000    4.000 
#    7.200    2.000    0.000    0.000    0.000    0.000 
#    0.000    0.000    0.000    0.000    0.000    0.000 
#
# Total GULP energy -223476.725297 kJ/mol
# GULP energy per Si atom -5586.918132 kJ/mol
# Density = 2.193695 g / cm^3
# Si number density = 21.986997 Si / 1000 Ang^3
#
#
#
# Elastic Constant Matrix: (Units=GPa)
#
#
# Indices 1 2 3 4 5 6 
#
# 1 23.7148 75.3748 34.2378 0.0000 0.0000 0.0000
# 2 75.3748 23.7089 34.2244 0.0000 0.0000 0.0000
# 3 34.2378 34.2244 49.4907 0.0000 0.0000 0.0000
# 4 0.0000 0.0000 0.0000 28.8697 0.0000 0.0000
# 5 0.0000 0.0000 0.0000 0.0000 28.8705 0.0000
# 6 0.0000 0.0000 0.0000 0.0000 0.0000 32.9298
#
#
#
# Elastic Compliance Matrix: (Units=1/GPa)
#
#
# Indices 1 2 3 4 5 6 
#
# 1 -0.000016 0.019343 -0.013365 0.000000 0.000000 0.000000
# 2 0.019343 -0.000011 -0.013374 0.000000 0.000000 0.000000
# 3 -0.013365 -0.013374 0.038701 0.000000 0.000000 0.000000
# 4 0.000000 0.000000 0.000000 0.034638 0.000000 0.000000
# 5 0.000000 0.000000 0.000000 0.000000 0.034637 0.000000
# 6 0.000000 0.000000 0.000000 0.000000 0.000000 0.030368
#
#
# Mechanical properties :
#
#
# Convention : Reuss Voigt Hill
#
# Bulk Modulus (GPa) = 41.87403 42.73204 42.30304
# Shear Modulus (GPa) = 31.04222 15.00584 23.02403
#
# Velocity S-wave (km/s) = 3.76153 2.61528 3.23950
# Velocity P-wave (km/s) = 6.16050 5.34761 5.76839
#
# Compressibility (1/GPa) = 0.02388115
#
# Stress axis : x y z
#
# Youngs Moduli (GPa) = -64101.38521 -91961.66498 25.83938
#
# Poissons Ratio (x) = 1778.81455 0.34536
# Poissons Ratio (y) = 1239.91314 0.34558
# Poissons Ratio (z) = -856.74661 -1229.89591
#
# Static dielectric constant tensor:
#      x y z
#    x 1.824830 0.000000 0.000000 
#    y 0.000000 1.824830 0.000000 
#    z 0.000000 0.000000 1.847990 
# 
# From -- ./inp_files/1314.got.cif
#   From: 2010.05.17/outbox.cif.g08.bks.cpg/sg92_1_cif.got.tgz:1314.got - 2010.06.03 19:35:17.
