data_PCOD9548116
_publ_section_title
;
Structure prediction by ZEFSAII (Michael W. Deem and Ramdas Pophale) SiO2 
 PCOD9548116
Probable space group: P 41 2 2
;
_chemical_formula_sum "Si O2"
_cell_formula_units_Z 40
_cell_length_a 20.117072
_cell_length_b 20.117072
_cell_length_c 5.014002
_cell_angle_alpha 90.000000
_cell_angle_beta 90.000000
_cell_angle_gamma 90.000000
_cell_volume 2029.149491
_symmetry_space_group_name_H-M "P 41 2 2"
_symmetry_group_IT_number 91
_symmetry_cell_setting 'tetragonal'
loop_
_space_group_symop_operation_xyz
x,y,z
-y,x,1/4+z
-x,-y,1/2+z
y,-x,3/4+z
x,-y,1/2-z
-x,y,-z
y,x,3/4-z
-y,-x,1/4-z
loop_
_atom_site_type_symbol
_atom_site_label
_atom_site_fract_x
_atom_site_fract_y
_atom_site_fract_z
Si Si1 0.641506 0.641506 0.875000
Si Si2 0.048422 0.846291 0.747961
Si Si3 0.047465 0.696537 0.754290
Si Si4 0.425765 0.768571 0.966410
Si Si5 0.573466 0.426535 0.125000
Si Si6 0.854752 0.574909 0.210570
O O1 0.719147 0.626574 0.849920
O O2 0.616704 0.599238 0.621617
O O3 0.103666 0.896335 0.625000
O O4 0.075501 0.771583 0.805016
O O5 0.000000 0.839030 0.500000
O O6 0.000000 0.866907 0.000000
O O7 0.099908 0.637651 0.725811
O O8 0.000000 0.698266 0.500000
O O9 0.000000 0.680668 0.000000
O O10 0.419587 0.791076 0.660496
O O11 0.500000 0.739001 0.000000
O O12 0.423106 0.833245 0.152827
O O13 0.580081 0.500000 0.250000
O O14 0.882757 0.500000 0.250000
#
# Coordination Sequence:
#
# PCOD9548116 Si02
#       6
#     4   8   8   8   4   8
#     4  12  23  38  58  80 110 154 202 238 302 379
#     4  10  21  38  59  87 122 162 204 248 303 355
#     4  10  21  38  61  88 122 156 197 250 306 362
#     4  10  21  38  56  80 114 152 192 247 304 357
#     4  12  23  36  54  80 108 140 192 256 310 359
#     4  10  21  38  60  85 119 155 197 251 305 365
#
# _framework density 19.712692000000001
#
# number of rings (size 3 to 8) (size 9 to 14) (size 15 to 20)
#    0.000    1.600    0.000    5.400    0.000    3.200 
#    3.600    0.000    0.000    0.000    0.000    0.000 
#    0.000    0.000    0.000    0.000    0.000    0.000 
#
# Total GULP energy -222751.159656 kJ/mol
# GULP energy per Si atom -5568.778991 kJ/mol
# Density = 1.966783 g / cm^3
# Si number density = 19.712692 Si / 1000 Ang^3
#
#
#
# Elastic Constant Matrix: (Units=GPa)
#
#
# Indices 1 2 3 4 5 6 
#
# 1 82.8604 64.9753 7.6474 0.0000 0.0000 0.0000
# 2 64.9753 82.8616 7.6479 0.0000 0.0000 0.0000
# 3 7.6474 7.6479 120.4503 0.0000 0.0000 0.0000
# 4 0.0000 0.0000 0.0000 23.3769 0.0000 0.0000
# 5 0.0000 0.0000 0.0000 0.0000 23.3750 0.0000
# 6 0.0000 0.0000 0.0000 0.0000 0.0000 10.6967
#
#
#
# Elastic Compliance Matrix: (Units=1/GPa)
#
#
# Indices 1 2 3 4 5 6 
#
# 1 0.031360 -0.024551 -0.000432 0.000000 0.000000 0.000000
# 2 -0.024551 0.031360 -0.000432 0.000000 0.000000 0.000000
# 3 -0.000432 -0.000432 0.008357 0.000000 0.000000 0.000000
# 4 0.000000 0.000000 0.000000 0.042777 0.000000 0.000000
# 5 0.000000 0.000000 0.000000 0.000000 0.042781 0.000000
# 6 0.000000 0.000000 0.000000 0.000000 0.000000 0.093487
#
#
# Mechanical properties :
#
#
# Convention : Reuss Voigt Hill
#
# Bulk Modulus (GPa) = 49.39309 49.63483 49.51396
# Shear Modulus (GPa) = 16.24957 25.21652 20.73305
#
# Velocity S-wave (km/s) = 2.87421 3.58047 3.24661
# Velocity P-wave (km/s) = 6.01046 6.50591 6.26309
#
# Compressibility (1/GPa) = 0.02024574
#
# Stress axis : x y z
#
# Youngs Moduli (GPa) = 31.88780 31.88825 119.65911
#
# Poissons Ratio (x) = 0.78288 0.05172
# Poissons Ratio (y) = 0.78287 0.05174
# Poissons Ratio (z) = 0.01378 0.01379
#
# Static dielectric constant tensor:
#      x y z
#    x 1.746540 0.000000 0.000000 
#    y 0.000000 1.746550 0.000000 
#    z 0.000000 0.000000 1.696870 
# 
# From -- ./inp_files/14049.got.cif
#   From: 2010.05.17/outbox.cif.g08.bks.cpg/sg91_8_cif.got.tgz:14049.got - 2010.06.03 19:20:03.
