data_PCOD9548120
_publ_section_title
;
Structure prediction by ZEFSAII (Michael W. Deem and Ramdas Pophale) SiO2 
 PCOD9548120
Probable space group: P 41 2 2
;
_chemical_formula_sum "Si O2"
_cell_formula_units_Z 48
_cell_length_a 9.592115
_cell_length_b 9.592115
_cell_length_c 26.118442
_cell_angle_alpha 90.000000
_cell_angle_beta 90.000000
_cell_angle_gamma 90.000000
_cell_volume 2403.123115
_symmetry_space_group_name_H-M "P 41 2 2"
_symmetry_group_IT_number 91
_symmetry_cell_setting 'tetragonal'
loop_
_space_group_symop_operation_xyz
x,y,z
-y,x,1/4+z
-x,-y,1/2+z
y,-x,3/4+z
x,-y,1/2-z
-x,y,-z
y,x,3/4-z
-y,-x,1/4-z
loop_
_atom_site_type_symbol
_atom_site_label
_atom_site_fract_x
_atom_site_fract_y
_atom_site_fract_z
Si Si1 0.555838 0.008818 0.909714
Si Si2 0.212390 0.799859 0.459401
Si Si3 0.275427 0.753988 0.069829
Si Si4 0.947515 0.016525 0.692576
Si Si5 0.487996 0.890455 0.203869
Si Si6 0.242662 0.105006 0.923092
O O1 0.657565 0.133215 0.928556
O O2 0.398772 0.050712 0.920522
O O3 0.609530 0.871504 0.940629
O O4 0.558413 0.966825 0.849287
O O5 0.176561 0.640726 0.447457
O O6 0.226792 0.822998 0.520964
O O7 0.083881 0.899020 0.443958
O O8 0.311298 0.688703 0.125000
O O9 0.133129 0.843160 0.076419
O O10 0.230578 0.625807 0.034715
O O11 0.898241 0.000000 0.750000
O O12 0.973648 0.864526 0.670182
O O13 0.492726 0.000000 0.250000
O O14 0.203148 0.203148 0.875000
#
# Coordination Sequence:
#
# PCOD9548120 Si02
#       6
#     8   8   8   8   8   8
#     4  10  22  39  59  87 122 160 196 247 310 364
#     4  10  21  38  58  86 123 158 198 257 308 352
#     4   9  19  34  54  82 117 153 190 242 302 356
#     4   9  17  31  54  83 112 147 197 250 296 347
#     4  11  21  38  64  92 120 157 205 251 301 366
#     4  11  20  34  61  90 117 157 207 251 300 363
#
# _framework density 19.974008999999999
#
# number of rings (size 3 to 8) (size 9 to 14) (size 15 to 20)
#    0.000    2.000    0.000    5.000    0.000    2.667 
#    0.000    4.167    0.000   18.000    0.000    0.000 
#    0.000    0.000    0.000    0.000    0.000    0.000 
#
# Total GULP energy -267509.274581 kJ/mol
# GULP energy per Si atom -5573.109887 kJ/mol
# Density = 1.992855 g / cm^3
# Si number density = 19.974009 Si / 1000 Ang^3
#
#
#
# Elastic Constant Matrix: (Units=GPa)
#
#
# Indices 1 2 3 4 5 6 
#
# 1 105.9180 30.5833 21.3908 0.0000 0.0000 0.0000
# 2 30.5833 105.9182 21.3908 0.0000 0.0000 0.0000
# 3 21.3908 21.3908 114.0632 0.0000 0.0000 0.0000
# 4 0.0000 0.0000 0.0000 51.9777 0.0000 0.0000
# 5 0.0000 0.0000 0.0000 0.0000 51.9779 0.0000
# 6 0.0000 0.0000 0.0000 0.0000 0.0000 -11.4359
#
#
#
# Elastic Compliance Matrix: (Units=1/GPa)
#
#
# Indices 1 2 3 4 5 6 
#
# 1 0.010529 -0.002745 -0.001460 0.000000 0.000000 0.000000
# 2 -0.002745 0.010529 -0.001460 0.000000 0.000000 0.000000
# 3 -0.001460 -0.001460 0.009315 0.000000 0.000000 0.000000
# 4 0.000000 0.000000 0.000000 0.019239 0.000000 0.000000
# 5 0.000000 0.000000 0.000000 0.000000 0.019239 0.000000
# 6 0.000000 0.000000 0.000000 0.000000 0.000000 -0.087444
#
#
# Mechanical properties :
#
#
# Convention : Reuss Voigt Hill
#
# Bulk Modulus (GPa) = 52.51350 52.51437 52.51393
# Shear Modulus (GPa) = -5451.92222 35.33957 -2708.29132
#
# Velocity S-wave (km/s) = -52.30137 4.21084 -36.86260
# Velocity P-wave (km/s) = 60.17389 7.07036 42.25463
#
# Compressibility (1/GPa) = 0.01904272
#
# Stress axis : x y z
#
# Youngs Moduli (GPa) = 94.97800 94.97816 107.35898
#
# Poissons Ratio (x) = 0.26075 0.15671
# Poissons Ratio (y) = 0.26075 0.15671
# Poissons Ratio (z) = 0.13864 0.13864
#
# Static dielectric constant tensor:
#      x y z
#    x 1.666260 0.000000 0.000000 
#    y 0.000000 1.666260 0.000000 
#    z 0.000000 0.000000 1.793070 
# 
# From -- ./inp_files/7938.got.cif
#   From: 2010.05.17/outbox.cif.g08.bks.cpg/sg91_4_cif.got.tgz:7938.got - 2010.06.03 19:20:03.
