data_PCOD9548031
_publ_section_title
;
Structure prediction by ZEFSAII (Michael W. Deem and Ramdas Pophale) SiO2 
 PCOD9548031
Probable space group: P 41 2 2
;
_chemical_formula_sum "Si O2"
_cell_formula_units_Z 48
_cell_length_a 11.641481
_cell_length_b 11.641481
_cell_length_c 16.135740
_cell_angle_alpha 90.000000
_cell_angle_beta 90.000000
_cell_angle_gamma 90.000000
_cell_volume 2186.781317
_symmetry_space_group_name_H-M "P 41 2 2"
_symmetry_group_IT_number 91
_symmetry_cell_setting 'tetragonal'
loop_
_space_group_symop_operation_xyz
x,y,z
-y,x,1/4+z
-x,-y,1/2+z
y,-x,3/4+z
x,-y,1/2-z
-x,y,-z
y,x,3/4-z
-y,-x,1/4-z
loop_
_atom_site_type_symbol
_atom_site_label
_atom_site_fract_x
_atom_site_fract_y
_atom_site_fract_z
Si Si1 0.214778 0.023742 0.566957
Si Si2 0.866261 0.496526 0.483893
Si Si3 0.275762 0.724281 0.990784
Si Si4 0.809744 0.359992 0.172166
Si Si5 0.630434 0.669706 0.186976
Si Si6 0.396362 0.396362 0.375000
Si Si7 0.000000 0.120427 0.000000
O O1 0.234673 0.146737 0.524923
O O2 0.192204 0.030878 0.666713
O O3 0.319245 0.935896 0.551876
O O4 0.105634 0.960404 0.526259
O O5 0.824168 0.369052 0.508999
O O6 0.827896 0.535214 0.391222
O O7 0.796740 0.589366 0.537397
O O8 0.000000 0.507444 0.500000
O O9 0.322944 0.678229 0.904436
O O10 0.373923 0.707037 0.060104
O O11 0.747984 0.252017 0.125000
O O12 0.722428 0.375794 0.247828
O O13 0.510650 0.603064 0.179602
#
# Coordination Sequence:
#
# PCOD9548031 Si02
#       7
#     8   8   8   8   8   4   4
#     4  11  22  38  68 100 142 180 239 288 361 433
#     4  10  23  42  66 100 148 185 222 300 365 425
#     4  11  24  42  67 100 138 191 239 287 364 445
#     4  10  20  40  70 105 133 178 238 300 358 427
#     4  10  22  45  70 100 133 182 244 288 362 430
#     4  10  24  48  68  96 140 190 234 304 368 418
#     4  10  22  38  60 104 136 192 226 302 356 424
#
# _framework density 21.95007
#
# number of rings (size 3 to 8) (size 9 to 14) (size 15 to 20)
#    0.000    1.667    1.667    2.500    4.667    2.000 
#   22.500    0.000    0.000    0.000    0.000    0.000 
#    0.000    0.000    0.000    0.000    0.000    0.000 
#
# Total GULP energy -268183.083000 kJ/mol
# GULP energy per Si atom -5587.147563 kJ/mol
# Density = 2.190011 g / cm^3
# Si number density = 21.950070 Si / 1000 Ang^3
#
#
#
# Elastic Constant Matrix: (Units=GPa)
#
#
# Indices 1 2 3 4 5 6 
#
# 1 137.5837 31.1744 46.0609 0.0000 0.0000 0.0000
# 2 31.1744 137.5843 46.0627 0.0000 0.0000 0.0000
# 3 46.0609 46.0627 125.3953 0.0000 0.0000 0.0000
# 4 0.0000 0.0000 0.0000 29.7072 0.0000 0.0000
# 5 0.0000 0.0000 0.0000 0.0000 29.7071 0.0000
# 6 0.0000 0.0000 0.0000 0.0000 0.0000 -0.8892
#
#
#
# Elastic Compliance Matrix: (Units=1/GPa)
#
#
# Indices 1 2 3 4 5 6 
#
# 1 0.008405 -0.000993 -0.002723 0.000000 0.000000 0.000000
# 2 -0.000993 0.008405 -0.002723 0.000000 0.000000 0.000000
# 3 -0.002723 -0.002723 0.009975 0.000000 0.000000 0.000000
# 4 0.000000 0.000000 0.000000 0.033662 0.000000 0.000000
# 5 0.000000 0.000000 0.000000 0.000000 0.033662 0.000000
# 6 0.000000 0.000000 0.000000 0.000000 0.000000 -1.124611
#
#
# Mechanical properties :
#
#
# Convention : Reuss Voigt Hill
#
# Bulk Modulus (GPa) = 71.89970 71.90658 71.90314
# Shear Modulus (GPa) = -4.93588 30.18940 12.62676
#
# Velocity S-wave (km/s) = -1.50119 3.71262 2.40104
# Velocity P-wave (km/s) = 5.46099 7.15600 6.36517
#
# Compressibility (1/GPa) = 0.01390826
#
# Stress axis : x y z
#
# Youngs Moduli (GPa) = 118.98045 118.97977 100.25062
#
# Poissons Ratio (x) = 0.11813 0.27294
# Poissons Ratio (y) = 0.11813 0.27295
# Poissons Ratio (z) = 0.32393 0.32395
#
# Static dielectric constant tensor:
#      x y z
#    x 1.817150 0.000000 0.000000 
#    y 0.000000 1.817140 0.000000 
#    z 0.000000 0.000000 1.845730 
# 
# From -- ./inp_files/21135.got.cif
#   From: 2010.05.17/outbox.cif.g08.bks.cpg/sg91_11_cif.got.tgz:21135.got - 2010.06.03 19:20:03.
