data_PCOD9548276
_publ_section_title
;
Structure prediction by ZEFSAII (Michael W. Deem and Ramdas Pophale) SiO2 
 PCOD9548276
Probable space group: P 41 2 2
;
_chemical_formula_sum "Si O2"
_cell_formula_units_Z 48
_cell_length_a 22.788047
_cell_length_b 22.788047
_cell_length_c 4.978467
_cell_angle_alpha 90.000000
_cell_angle_beta 90.000000
_cell_angle_gamma 90.000000
_cell_volume 2585.293449
_symmetry_space_group_name_H-M "P 41 2 2"
_symmetry_group_IT_number 91
_symmetry_cell_setting 'tetragonal'
loop_
_space_group_symop_operation_xyz
x,y,z
-y,x,1/4+z
-x,-y,1/2+z
y,-x,3/4+z
x,-y,1/2-z
-x,y,-z
y,x,3/4-z
-y,-x,1/4-z
loop_
_atom_site_type_symbol
_atom_site_label
_atom_site_fract_x
_atom_site_fract_y
_atom_site_fract_z
Si Si1 0.762292 0.179956 0.878266
Si Si2 0.935552 0.874843 0.611460
Si Si3 0.867698 0.540508 0.506764
Si Si4 0.654332 0.847351 0.439305
Si Si5 0.261099 0.917719 0.981706
Si Si6 0.054980 0.379937 0.363203
O O1 0.789869 0.210131 0.625000
O O2 0.695997 0.200222 0.927063
O O3 0.886333 0.246299 0.482680
O O4 0.803214 0.196786 0.125000
O O5 0.891724 0.891724 0.375000
O O6 0.936644 0.803866 0.644753
O O7 0.000000 0.893038 0.500000
O O8 0.909951 0.909951 0.875000
O O9 0.847860 0.500000 0.750000
O O10 0.825096 0.594461 0.437661
O O11 0.921906 0.578944 0.625797
O O12 0.880141 0.500000 0.250000
O O13 0.701516 0.874400 0.220277
O O14 0.632106 0.893996 0.665861
O O15 0.314137 0.963502 0.019354
O O16 0.000000 0.409465 0.500000
#
# Coordination Sequence:
#
# PCOD9548276 Si02
#       6
#     8   8   8   8   8   8
#     4  11  21  35  59  86 118 147 174 225 297 359
#     4  12  30  49  71  93 114 144 184 226 289 375
#     4  11  22  42  59  78 110 157 201 231 270 329
#     4  10  22  39  55  85 118 146 184 234 283 342
#     4  10  24  38  64  90 118 141 180 229 297 365
#     4  10  23  40  60  84 117 148 183 240 289 337
#
# _framework density 18.566558000000001
#
# number of rings (size 3 to 8) (size 9 to 14) (size 15 to 20)
#    0.000    1.333    3.333    1.000    9.333    2.667 
#    3.000    0.000    0.000    0.000    0.000    0.000 
#    0.000    0.000    0.000    0.000    0.000    0.000 
#
# Total GULP energy -267223.294016 kJ/mol
# GULP energy per Si atom -5567.151959 kJ/mol
# Density = 1.852430 g / cm^3
# Si number density = 18.566558 Si / 1000 Ang^3
#
#
#
# Elastic Constant Matrix: (Units=GPa)
#
#
# Indices 1 2 3 4 5 6 
#
# 1 56.4447 10.2062 24.2115 0.0000 0.0000 0.0000
# 2 10.2062 56.4447 24.2115 0.0000 0.0000 0.0000
# 3 24.2115 24.2115 133.4404 0.0000 0.0000 0.0000
# 4 0.0000 0.0000 0.0000 25.5607 0.0000 0.0000
# 5 0.0000 0.0000 0.0000 0.0000 25.5607 0.0000
# 6 0.0000 0.0000 0.0000 0.0000 0.0000 -0.4296
#
#
#
# Elastic Compliance Matrix: (Units=1/GPa)
#
#
# Indices 1 2 3 4 5 6 
#
# 1 0.019454 -0.002173 -0.003136 0.000000 0.000000 0.000000
# 2 -0.002173 0.019454 -0.003136 0.000000 0.000000 0.000000
# 3 -0.003136 -0.003136 0.008632 0.000000 0.000000 0.000000
# 4 0.000000 0.000000 0.000000 0.039123 0.000000 0.000000
# 5 0.000000 0.000000 0.000000 0.000000 0.039123 0.000000
# 6 0.000000 0.000000 0.000000 0.000000 0.000000 -2.327616
#
#
# Mechanical properties :
#
#
# Convention : Reuss Voigt Hill
#
# Bulk Modulus (GPa) = 32.62354 40.39867 36.51111
# Shear Modulus (GPa) = -2.29914 22.65173 10.17629
#
# Velocity S-wave (km/s) = -1.11401 3.49668 2.34369
# Velocity P-wave (km/s) = 3.99432 6.17320 5.19918
#
# Compressibility (1/GPa) = 0.03065272
#
# Stress axis : x y z
#
# Youngs Moduli (GPa) = 51.40251 51.40251 115.85033
#
# Poissons Ratio (x) = 0.11168 0.36326
# Poissons Ratio (y) = 0.11168 0.36326
# Poissons Ratio (z) = 0.16118 0.16118
#
# Static dielectric constant tensor:
#      x y z
#    x 1.807520 0.000000 0.000000 
#    y 0.000000 1.807520 0.000000 
#    z 0.000000 0.000000 2.023210 
# 
# From -- ./inp_files/14358.got.cif
#   From: 2010.05.17/outbox.cif.g08.bks.cpg/sg91_8_cif.got.tgz:14358.got - 2010.06.03 19:20:03.
