data_PCOD9548292
_publ_section_title
;
Structure prediction by ZEFSAII (Michael W. Deem and Ramdas Pophale) SiO2 
 PCOD9548292
Probable space group: P 41 2 2
;
_chemical_formula_sum "Si O2"
_cell_formula_units_Z 40
_cell_length_a 7.683051
_cell_length_b 7.683051
_cell_length_c 27.479374
_cell_angle_alpha 90.000000
_cell_angle_beta 90.000000
_cell_angle_gamma 90.000000
_cell_volume 1622.087461
_symmetry_space_group_name_H-M "P 41 2 2"
_symmetry_group_IT_number 91
_symmetry_cell_setting 'tetragonal'
loop_
_space_group_symop_operation_xyz
x,y,z
-y,x,1/4+z
-x,-y,1/2+z
y,-x,3/4+z
x,-y,1/2-z
-x,y,-z
y,x,3/4-z
-y,-x,1/4-z
loop_
_atom_site_type_symbol
_atom_site_label
_atom_site_fract_x
_atom_site_fract_y
_atom_site_fract_z
Si Si1 0.173522 0.738455 0.200310
Si Si2 0.090294 0.655163 0.309331
Si Si3 0.825826 0.890539 0.160789
Si Si4 0.460663 0.195001 0.729615
Si Si5 0.706113 0.300179 0.071908
O O1 0.138677 0.744319 0.258531
O O2 0.167055 0.536602 0.186069
O O3 0.372168 0.793652 0.195644
O O4 0.024287 0.848720 0.173936
O O5 0.141637 0.772530 0.355270
O O6 0.882895 0.621699 0.308419
O O7 0.709887 0.776965 0.197373
O O8 0.762097 0.089848 0.171158
O O9 0.439874 0.308120 0.778871
O O10 0.461630 0.000000 0.750000
O O11 0.642490 0.357511 0.125000
#
# Coordination Sequence:
#
# PCOD9548292 Si02
#       5
#     8   8   8   8   8
#     4  11  24  43  70 101 149 191 246 312 374 452
#     4  10  23  43  64  99 141 191 238 299 381 449
#     4  10  22  43  71 101 141 187 251 309 372 444
#     4  10  22  39  71 106 140 188 253 311 371 444
#     4   9  19  41  70 100 139 193 246 299 380 451
#
# _framework density 24.659583999999999
#
# number of rings (size 3 to 8) (size 9 to 14) (size 15 to 20)
#    0.000    2.000    2.000    0.000    2.800    5.600 
#   14.400    0.000    0.000    0.000    0.000    0.000 
#    0.000    0.000    0.000    0.000    0.000    0.000 
#
# Total GULP energy -223870.465000 kJ/mol
# GULP energy per Si atom -5596.761625 kJ/mol
# Density = 2.460346 g / cm^3
# Si number density = 24.659584 Si / 1000 Ang^3
#
#
#
# Elastic Constant Matrix: (Units=GPa)
#
#
# Indices 1 2 3 4 5 6 
#
# 1 74.8101 17.9355 59.9138 0.0000 0.0000 0.0000
# 2 17.9355 74.8100 59.9138 0.0000 0.0000 0.0000
# 3 59.9138 59.9138 120.8533 0.0000 0.0000 0.0000
# 4 0.0000 0.0000 0.0000 22.3334 0.0000 0.0000
# 5 0.0000 0.0000 0.0000 0.0000 22.3334 0.0000
# 6 0.0000 0.0000 0.0000 0.0000 0.0000 16.5153
#
#
#
# Elastic Compliance Matrix: (Units=1/GPa)
#
#
# Indices 1 2 3 4 5 6 
#
# 1 0.023788 0.006206 -0.014870 0.000000 0.000000 0.000000
# 2 0.006206 0.023788 -0.014870 0.000000 0.000000 0.000000
# 3 -0.014870 -0.014870 0.023018 0.000000 0.000000 0.000000
# 4 0.000000 0.000000 0.000000 0.044776 0.000000 0.000000
# 5 0.000000 0.000000 0.000000 0.000000 0.044776 0.000000
# 6 0.000000 0.000000 0.000000 0.000000 0.000000 0.060550
#
#
# Mechanical properties :
#
#
# Convention : Reuss Voigt Hill
#
# Bulk Modulus (GPa) = 42.50433 60.66661 51.58547
# Shear Modulus (GPa) = 18.14186 21.08377 19.61282
#
# Velocity S-wave (km/s) = 2.71531 2.92720 2.82324
# Velocity P-wave (km/s) = 5.20619 6.00664 5.62068
#
# Compressibility (1/GPa) = 0.02352702
#
# Stress axis : x y z
#
# Youngs Moduli (GPa) = 42.03779 42.03770 43.44448
#
# Poissons Ratio (x) = -0.26087 0.64600
# Poissons Ratio (y) = -0.26087 0.64600
# Poissons Ratio (z) = 0.62508 0.62508
#
# Static dielectric constant tensor:
#      x y z
#    x 1.985950 0.000000 0.000000 
#    y 0.000000 1.985950 0.000000 
#    z 0.000000 0.000000 1.963020 
# 
# From -- ./inp_files/17789.got.cif
#   From: 2010.05.17/outbox.cif.g08.bks.cpg/sg91_9_cif.got.tgz:17789.got - 2010.06.03 19:20:03.
