data_PCOD9548521
_publ_section_title
;
Structure prediction by ZEFSAII (Michael W. Deem and Ramdas Pophale) SiO2 
 PCOD9548521
Probable space group: P 41 2 2
;
_chemical_formula_sum "Si O2"
_cell_formula_units_Z 48
_cell_length_a 8.693526
_cell_length_b 8.693526
_cell_length_c 28.327169
_cell_angle_alpha 90.000000
_cell_angle_beta 90.000000
_cell_angle_gamma 90.000000
_cell_volume 2140.893621
_symmetry_space_group_name_H-M "P 41 2 2"
_symmetry_group_IT_number 91
_symmetry_cell_setting 'tetragonal'
loop_
_space_group_symop_operation_xyz
x,y,z
-y,x,1/4+z
-x,-y,1/2+z
y,-x,3/4+z
x,-y,1/2-z
-x,y,-z
y,x,3/4-z
-y,-x,1/4-z
loop_
_atom_site_type_symbol
_atom_site_label
_atom_site_fract_x
_atom_site_fract_y
_atom_site_fract_z
Si Si1 0.331874 0.567628 0.868746
Si Si2 0.804097 0.775345 0.539884
Si Si3 0.299464 0.783328 0.282232
Si Si4 0.000000 0.450487 0.000000
Si Si5 0.500000 0.111889 0.500000
Si Si6 0.983495 0.033786 0.427695
Si Si7 0.662500 0.135690 0.058533
O O1 0.505053 0.505053 0.875000
O O2 0.288090 0.697289 0.830848
O O3 0.284920 0.634969 0.919132
O O4 0.237191 0.423168 0.847094
O O5 0.711049 0.777255 0.490290
O O6 0.953584 0.665501 0.541038
O O7 0.881757 0.942942 0.545083
O O8 0.444261 0.854033 0.256327
O O9 0.216318 0.652723 0.251126
O O10 0.188297 0.923901 0.297713
O O11 0.460007 0.996980 0.543215
O O12 0.822115 0.939816 0.424789
O O13 0.048442 0.048442 0.375000
#
# Coordination Sequence:
#
# PCOD9548521 Si02
#       7
#     8   8   8   4   4   8   8
#     4  12  26  43  70 106 146 185 234 294 364 431
#     4  12  24  46  70 105 136 190 241 298 350 421
#     4  11  28  45  68 108 142 186 232 300 363 429
#     4  12  28  42  68  98 146 184 234 286 358 430
#     4  10  24  44  72  98 142 188 236 286 374 426
#     4  11  23  44  72 103 138 181 253 299 344 417
#     4  11  22  43  78 101 133 189 244 294 345 435
#
# _framework density 22.420546000000002
#
# number of rings (size 3 to 8) (size 9 to 14) (size 15 to 20)
#    0.000    0.667    5.000    1.500    9.333    0.000 
#    0.000    0.833    0.000    0.000    0.000    0.000 
#    0.000    0.000    0.000    0.000    0.000    0.000 
#
# Total GULP energy -268045.507182 kJ/mol
# GULP energy per Si atom -5584.281400 kJ/mol
# Density = 2.236952 g / cm^3
# Si number density = 22.420546 Si / 1000 Ang^3
#
#
#
# Elastic Constant Matrix: (Units=GPa)
#
#
# Indices 1 2 3 4 5 6 
#
# 1 93.4089 46.8510 31.7468 0.0000 0.0000 0.0000
# 2 46.8510 93.4089 31.7468 0.0000 0.0000 0.0000
# 3 31.7468 31.7468 59.4936 0.0000 0.0000 0.0000
# 4 0.0000 0.0000 0.0000 21.1852 0.0000 0.0000
# 5 0.0000 0.0000 0.0000 0.0000 21.1852 0.0000
# 6 0.0000 0.0000 0.0000 0.0000 0.0000 58.8360
#
#
#
# Elastic Compliance Matrix: (Units=1/GPa)
#
#
# Indices 1 2 3 4 5 6 
#
# 1 0.015440 -0.006039 -0.005016 0.000000 0.000000 0.000000
# 2 -0.006039 0.015440 -0.005016 0.000000 0.000000 0.000000
# 3 -0.005016 -0.005016 0.022162 0.000000 0.000000 0.000000
# 4 0.000000 0.000000 0.000000 0.047203 0.000000 0.000000
# 5 0.000000 0.000000 0.000000 0.000000 0.047203 0.000000
# 6 0.000000 0.000000 0.000000 0.000000 0.000000 0.016996
#
#
# Mechanical properties :
#
#
# Convention : Reuss Voigt Hill
#
# Bulk Modulus (GPa) = 47.85162 51.88899 49.87031
# Shear Modulus (GPa) = 24.56372 29.30571 26.93472
#
# Velocity S-wave (km/s) = 3.31356 3.61929 3.46980
# Velocity P-wave (km/s) = 6.00239 6.37648 6.19226
#
# Compressibility (1/GPa) = 0.02089793
#
# Stress axis : x y z
#
# Youngs Moduli (GPa) = 64.76892 64.76892 45.12225
#
# Poissons Ratio (x) = 0.39115 0.22634
# Poissons Ratio (y) = 0.39115 0.22634
# Poissons Ratio (z) = 0.32489 0.32489
#
# Static dielectric constant tensor:
#      x y z
#    x 1.874710 0.000000 0.000000 
#    y 0.000000 1.874710 0.000000 
#    z 0.000000 0.000000 1.839150 
# 
# From -- ./inp_files/22299.got.cif
#   From: 2010.05.17/outbox.cif.g08.bks.cpg/sg91_12_cif.got.tgz:22299.got - 2010.06.03 19:20:03.
