data_PCOD9548755
_publ_section_title
;
Structure prediction by ZEFSAII (Michael W. Deem and Ramdas Pophale) SiO2 
 PCOD9548755
Probable space group: P 41 2 2
;
_chemical_formula_sum "Si O2"
_cell_formula_units_Z 36
_cell_length_a 11.577530
_cell_length_b 11.577530
_cell_length_c 11.650318
_cell_angle_alpha 90.000000
_cell_angle_beta 90.000000
_cell_angle_gamma 90.000000
_cell_volume 1561.599315
_symmetry_space_group_name_H-M "P 41 2 2"
_symmetry_group_IT_number 91
_symmetry_cell_setting 'tetragonal'
loop_
_space_group_symop_operation_xyz
x,y,z
-y,x,1/4+z
-x,-y,1/2+z
y,-x,3/4+z
x,-y,1/2-z
-x,y,-z
y,x,3/4-z
-y,-x,1/4-z
loop_
_atom_site_type_symbol
_atom_site_label
_atom_site_fract_x
_atom_site_fract_y
_atom_site_fract_z
Si Si1 0.058152 0.758840 0.666916
Si Si2 0.376524 0.550155 0.371002
Si Si3 0.609148 0.223799 0.783444
Si Si4 0.173815 0.893239 0.330124
Si Si5 0.000000 0.549523 0.500000
O O1 0.174384 0.825617 0.625000
O O2 0.069757 0.756719 0.805160
O O3 0.946881 0.836676 0.636795
O O4 0.024465 0.638195 0.606273
O O5 0.327232 0.500000 0.250000
O O6 0.508596 0.508596 0.375000
O O7 0.370266 0.686846 0.390164
O O8 0.309250 0.469315 0.458761
O O9 0.741252 0.190654 0.759165
O O10 0.537023 0.107365 0.767996
O O11 0.147130 0.000000 0.250000
#
# Coordination Sequence:
#
# PCOD9548755 Si02
#       5
#     8   8   8   8   4
#     4  12  25  47  75 108 151 204 246 316 393 478
#     4   9  21  43  73  97 141 193 245 306 372 442
#     4  11  24  46  67 111 144 193 251 311 379 454
#     4  12  25  45  74 108 146 193 252 309 379 459
#     4  12  26  46  70 108 156 186 256 306 382 466
#
# _framework density 23.053288999999999
#
# number of rings (size 3 to 8) (size 9 to 14) (size 15 to 20)
#    0.000    0.889    3.333    3.333    0.000    8.889 
#    8.000    0.000    0.000    0.000    0.000    0.000 
#    0.000    0.000    0.000    0.000    0.000    0.000 
#
# Total GULP energy -200405.983572 kJ/mol
# GULP energy per Si atom -5566.832877 kJ/mol
# Density = 2.300082 g / cm^3
# Si number density = 23.053289 Si / 1000 Ang^3
#
#
#
# Elastic Constant Matrix: (Units=GPa)
#
#
# Indices 1 2 3 4 5 6 
#
# 1 94.8226 28.1476 -7.7005 0.0000 0.0000 0.0000
# 2 28.1476 94.8219 -7.7007 0.0000 0.0000 0.0000
# 3 -7.7005 -7.7007 71.1280 0.0000 0.0000 0.0000
# 4 0.0000 0.0000 0.0000 22.4971 0.0000 0.0000
# 5 0.0000 0.0000 0.0000 0.0000 22.4966 0.0000
# 6 0.0000 0.0000 0.0000 0.0000 0.0000 8.8972
#
#
#
# Elastic Compliance Matrix: (Units=1/GPa)
#
#
# Indices 1 2 3 4 5 6 
#
# 1 0.011621 -0.003377 0.000892 0.000000 0.000000 0.000000
# 2 -0.003377 0.011621 0.000893 0.000000 0.000000 0.000000
# 3 0.000892 0.000893 0.014252 0.000000 0.000000 0.000000
# 4 0.000000 0.000000 0.000000 0.044450 0.000000 0.000000
# 5 0.000000 0.000000 0.000000 0.000000 0.044451 0.000000
# 6 0.000000 0.000000 0.000000 0.000000 0.000000 0.112395
#
#
# Mechanical properties :
#
#
# Convention : Reuss Voigt Hill
#
# Bulk Modulus (GPa) = 29.14589 31.80728 30.47659
# Shear Modulus (GPa) = 19.73072 27.31324 23.52198
#
# Velocity S-wave (km/s) = 2.92871 3.44581 3.19773
# Velocity P-wave (km/s) = 4.90986 5.44598 5.18485
#
# Compressibility (1/GPa) = 0.03431015
#
# Stress axis : x y z
#
# Youngs Moduli (GPa) = 86.05124 86.05053 70.16360
#
# Poissons Ratio (x) = 0.29061 -0.06262
# Poissons Ratio (y) = 0.29061 -0.06262
# Poissons Ratio (z) = -0.07680 -0.07680
#
# Static dielectric constant tensor:
#      x y z
#    x 2.025160 0.000000 0.000000 
#    y 0.000000 2.025160 0.000000 
#    z 0.000000 0.000000 2.128080 
# 
# From -- ./inp_files/15682.got.cif
#   From: 2010.05.17/outbox.cif.g08.bks.cpg/sg91_8_cif.got.tgz:15682.got - 2010.06.03 19:20:03.
