data_PCOD9548288
_publ_section_title
;
Structure prediction by ZEFSAII (Michael W. Deem and Ramdas Pophale) SiO2 
 PCOD9548288
Probable space group: P 41 2 2
;
_chemical_formula_sum "Si O2"
_cell_formula_units_Z 40
_cell_length_a 11.510076
_cell_length_b 11.510076
_cell_length_c 14.503051
_cell_angle_alpha 90.000000
_cell_angle_beta 90.000000
_cell_angle_gamma 90.000000
_cell_volume 1921.391020
_symmetry_space_group_name_H-M "P 41 2 2"
_symmetry_group_IT_number 91
_symmetry_cell_setting 'tetragonal'
loop_
_space_group_symop_operation_xyz
x,y,z
-y,x,1/4+z
-x,-y,1/2+z
y,-x,3/4+z
x,-y,1/2-z
-x,y,-z
y,x,3/4-z
-y,-x,1/4-z
loop_
_atom_site_type_symbol
_atom_site_label
_atom_site_fract_x
_atom_site_fract_y
_atom_site_fract_z
Si Si1 0.749617 0.214766 0.974886
Si Si2 0.518743 0.278161 0.307347
Si Si3 0.500000 0.624760 0.000000
Si Si4 0.882750 0.355993 0.455304
Si Si5 0.000000 0.261206 0.000000
Si Si6 0.044192 0.425379 0.832603
O O1 0.737715 0.354198 0.986676
O O2 0.727976 0.180515 0.867479
O O3 0.881136 0.189349 0.006269
O O4 0.655052 0.142626 0.033988
O O5 0.461417 0.395491 0.271189
O O6 0.534743 0.295529 0.415157
O O7 0.415659 0.187908 0.287815
O O8 0.906228 0.471362 0.394850
O O9 0.000000 0.306688 0.500000
O O10 0.983664 0.341920 0.908131
O O11 0.983529 0.500000 0.750000
#
# Coordination Sequence:
#
# PCOD9548288 Si02
#       6
#     8   8   4   8   4   8
#     4  11  24  40  69  96 133 178 227 284 339 403
#     4  11  21  39  60  96 137 176 218 269 346 416
#     4  10  24  36  58  94 138 180 204 270 348 426
#     4  11  22  43  65  98 134 173 226 282 342 412
#     4  12  22  44  66 100 138 178 230 286 332 416
#     4  10  22  39  67 101 126 172 225 286 338 399
#
# _framework density 20.818252000000001
#
# number of rings (size 3 to 8) (size 9 to 14) (size 15 to 20)
#    0.000    1.200    5.000    0.600    4.200    0.000 
#   14.400    0.000    8.800    0.000    0.000    0.000 
#    0.000    0.000    0.000    0.000    0.000    0.000 
#
# Total GULP energy -222988.816636 kJ/mol
# GULP energy per Si atom -5574.720416 kJ/mol
# Density = 2.077087 g / cm^3
# Si number density = 20.818252 Si / 1000 Ang^3
#
#
#
# Elastic Constant Matrix: (Units=GPa)
#
#
# Indices 1 2 3 4 5 6 
#
# 1 53.9333 14.6420 12.4278 0.0000 0.0000 0.0000
# 2 14.6420 53.9333 12.4278 0.0000 0.0000 0.0000
# 3 12.4278 12.4278 97.9704 0.0000 0.0000 0.0000
# 4 0.0000 0.0000 0.0000 25.4726 0.0000 0.0000
# 5 0.0000 0.0000 0.0000 0.0000 25.4726 0.0000
# 6 0.0000 0.0000 0.0000 0.0000 0.0000 6.5436
#
#
#
# Elastic Compliance Matrix: (Units=1/GPa)
#
#
# Indices 1 2 3 4 5 6 
#
# 1 0.020368 -0.005083 -0.001939 0.000000 0.000000 0.000000
# 2 -0.005083 0.020368 -0.001939 0.000000 0.000000 0.000000
# 3 -0.001939 -0.001939 0.010699 0.000000 0.000000 0.000000
# 4 0.000000 0.000000 0.000000 0.039258 0.000000 0.000000
# 5 0.000000 0.000000 0.000000 0.000000 0.039258 0.000000
# 6 0.000000 0.000000 0.000000 0.000000 0.000000 0.152822
#
#
# Mechanical properties :
#
#
# Convention : Reuss Voigt Hill
#
# Bulk Modulus (GPa) = 29.83846 31.64802 30.74324
# Shear Modulus (GPa) = 16.03253 22.58703 19.30978
#
# Velocity S-wave (km/s) = 2.77811 3.29745 3.04886
# Velocity P-wave (km/s) = 4.96533 5.45276 5.21475
#
# Compressibility (1/GPa) = 0.03351379
#
# Stress axis : x y z
#
# Youngs Moduli (GPa) = 49.09629 49.09629 93.46588
#
# Poissons Ratio (x) = 0.24955 0.18123
# Poissons Ratio (y) = 0.24955 0.18123
# Poissons Ratio (z) = 0.09520 0.09520
#
# Static dielectric constant tensor:
#      x y z
#    x 1.737530 0.000000 0.000000 
#    y 0.000000 1.737530 0.000000 
#    z 0.000000 0.000000 1.832950 
# 
# From -- ./inp_files/4835.got.cif
#   From: 2010.05.17/outbox.cif.g08.bks.cpg/sg91_3_cif.got.tgz:4835.got - 2010.06.03 19:20:03.
