data_PCOD9548882
_publ_section_title
;
Structure prediction by ZEFSAII (Michael W. Deem and Ramdas Pophale) SiO2 
 PCOD9548882
Probable space group: P 41 21 2
;
_chemical_formula_sum "Si O2"
_cell_formula_units_Z 48
_cell_length_a 22.781012
_cell_length_b 22.781012
_cell_length_c 5.523111
_cell_angle_alpha 90.000000
_cell_angle_beta 90.000000
_cell_angle_gamma 90.000000
_cell_volume 2866.353812
_symmetry_space_group_name_H-M "P 41 21 2"
_symmetry_group_IT_number 92
_symmetry_cell_setting 'tetragonal'
loop_
_space_group_symop_operation_xyz
x,y,z
1/2-y,1/2+x,1/4+z
-x,-y,1/2+z
1/2+y,1/2-x,3/4+z
1/2+x,1/2-y,3/4-z
1/2-x,1/2+y,1/4-z
y,x,-z
-y,-x,1/2-z
loop_
_atom_site_type_symbol
_atom_site_label
_atom_site_fract_x
_atom_site_fract_y
_atom_site_fract_z
Si Si1 0.786324 0.213676 0.750000
Si Si2 0.133293 0.315697 0.463529
Si Si3 0.413563 0.231226 0.006753
Si Si4 0.733702 0.266299 0.250000
Si Si5 0.401327 0.862867 0.291500
Si Si6 0.564422 0.794219 0.002745
Si Si7 0.415787 0.999658 0.780047
O O1 0.769044 0.145577 0.736204
O O2 0.762299 0.242871 0.501657
O O3 0.166589 0.254137 0.480385
O O4 0.096762 0.328287 0.706775
O O5 0.184046 0.367130 0.472441
O O6 0.101299 0.324799 0.207030
O O7 0.396498 0.161434 0.030629
O O8 0.442584 0.244356 0.264313
O O9 0.449465 0.235296 0.759252
O O10 0.456711 0.905393 0.257991
O O11 0.527662 0.853403 0.971426
O O12 0.446296 0.041351 0.587699
#
# Coordination Sequence:
#
# PCOD9548882 Si02
#       7
#     4   8   8   4   8   8   8
#     4  12  16  26  50  68  80 100 116 152 246 302
#     4  10  18  33  45  65  82  98 124 180 229 283
#     4  10  18  33  45  65  82  98 124 180 229 283
#     4  12  16  26  50  68  80 100 116 152 246 302
#     4  10  20  34  43  57  85 101 139 187 218 256
#     4  10  20  34  43  57  85 101 139 187 218 256
#     4  12  26  34  46  62  76 126 168 198 226 262
#
# _framework density 16.746013999999999
#
# number of rings (size 3 to 8) (size 9 to 14) (size 15 to 20)
#    0.000    1.333   10.000    0.000    4.667    1.333 
#    0.000    0.000    0.000    0.000    0.000    0.000 
#    0.000    0.000    0.000    0.000    0.000    0.000 
#
# Total GULP energy -267624.225441 kJ/mol
# GULP energy per Si atom -5575.504697 kJ/mol
# Density = 1.670790 g / cm^3
# Si number density = 16.746014 Si / 1000 Ang^3
#
#
#
# Elastic Constant Matrix: (Units=GPa)
#
#
# Indices 1 2 3 4 5 6 
#
# 1 22.2268 24.2375 13.9097 0.0000 0.0000 0.0000
# 2 24.2375 22.2277 13.9093 0.0000 0.0000 0.0000
# 3 13.9097 13.9093 168.8098 0.0000 0.0000 0.0000
# 4 0.0000 0.0000 0.0000 12.8494 0.0000 0.0000
# 5 0.0000 0.0000 0.0000 0.0000 12.8494 0.0000
# 6 0.0000 0.0000 0.0000 0.0000 0.0000 23.8063
#
#
#
# Elastic Compliance Matrix: (Units=1/GPa)
#
#
# Indices 1 2 3 4 5 6 
#
# 1 -0.237407 0.260040 -0.001864 0.000000 0.000000 0.000000
# 2 0.260040 -0.237396 -0.001866 0.000000 0.000000 0.000000
# 3 -0.001864 -0.001866 0.006231 0.000000 0.000000 0.000000
# 4 0.000000 0.000000 0.000000 0.077825 0.000000 0.000000
# 5 0.000000 0.000000 0.000000 0.000000 0.077824 0.000000
# 6 0.000000 0.000000 0.000000 0.000000 0.000000 0.042006
#
#
# Mechanical properties :
#
#
# Convention : Reuss Voigt Hill
#
# Bulk Modulus (GPa) = 22.70314 35.26415 28.98364
# Shear Modulus (GPa) = -6.50319 20.64821 7.07251
#
# Velocity S-wave (km/s) = -1.97278 3.51525 2.05732
# Velocity P-wave (km/s) = 2.89787 6.13025 4.79466
#
# Compressibility (1/GPa) = 0.04404677
#
# Stress axis : x y z
#
# Youngs Moduli (GPa) = -4.21218 -4.21237 160.48199
#
# Poissons Ratio (x) = 1.09538 0.29921
# Poissons Ratio (y) = 1.09533 0.29950
# Poissons Ratio (z) = -0.00785 -0.00786
#
# Static dielectric constant tensor:
#      x y z
#    x 1.575390 0.000000 0.000000 
#    y 0.000000 1.575390 0.000000 
#    z 0.000000 0.000000 1.689350 
# 
# From -- ./inp_files/825.got.cif
#   From: 2010.05.17/outbox.cif.g08.bks.cpg/sg92_1_cif.got.tgz:825.got - 2010.06.03 19:35:17.
