data_PCOD9548906
_publ_section_title
;
Structure prediction by ZEFSAII (Michael W. Deem and Ramdas Pophale) SiO2 
 PCOD9548906
Probable space group: P 41 21 2
;
_chemical_formula_sum "Si O2"
_cell_formula_units_Z 44
_cell_length_a 8.689494
_cell_length_b 8.689494
_cell_length_c 28.469399
_cell_angle_alpha 90.000000
_cell_angle_beta 90.000000
_cell_angle_gamma 90.000000
_cell_volume 2149.647621
_symmetry_space_group_name_H-M "P 41 21 2"
_symmetry_group_IT_number 92
_symmetry_cell_setting 'tetragonal'
loop_
_space_group_symop_operation_xyz
x,y,z
1/2-y,1/2+x,1/4+z
-x,-y,1/2+z
1/2+y,1/2-x,3/4+z
1/2+x,1/2-y,3/4-z
1/2-x,1/2+y,1/4-z
y,x,-z
-y,-x,1/2-z
loop_
_atom_site_type_symbol
_atom_site_label
_atom_site_fract_x
_atom_site_fract_y
_atom_site_fract_z
Si Si1 0.982890 0.539296 0.733198
Si Si2 0.716135 0.283866 0.250000
Si Si3 0.585107 0.014782 0.666570
Si Si4 0.684401 0.748291 0.338577
Si Si5 0.082051 0.067817 0.595042
Si Si6 0.151853 0.356053 0.652127
O O1 0.107162 0.670063 0.746181
O O2 0.935686 0.458420 0.781295
O O3 0.069819 0.414559 0.699750
O O4 0.849494 0.620949 0.704079
O O5 0.647804 0.360483 0.296909
O O6 0.692288 0.860113 0.667660
O O7 0.436470 0.953894 0.638041
O O8 0.659540 0.150835 0.636345
O O9 0.574822 0.599605 0.342524
O O10 0.129806 0.179748 0.638063
O O11 0.171245 0.907892 0.598144
#
# Coordination Sequence:
#
# PCOD9548906 Si02
#       6
#     8   4   8   8   8   8
#     4  10  20  38  64  87 122 164 203 258 309 371
#     4  10  18  38  62  82 122 160 206 250 296 372
#     4  10  21  43  56  91 131 158 210 262 309 382
#     4  10  22  40  64  89 127 162 200 267 318 360
#     4  10  20  39  59  92 118 160 206 251 301 374
#     4   9  20  36  62  85 122 159 206 252 299 370
#
# _framework density 20.468471000000001
#
# number of rings (size 3 to 8) (size 9 to 14) (size 15 to 20)
#    0.000    2.182    3.636    0.000    0.000    5.818 
#    3.273    7.273    0.000    0.000    0.000    0.000 
#    0.000    0.000    0.000    0.000    0.000    0.000 
#
# Total GULP energy -245705.259626 kJ/mol
# GULP energy per Si atom -5584.210446 kJ/mol
# Density = 2.042188 g / cm^3
# Si number density = 20.468471 Si / 1000 Ang^3
#
#
#
# Elastic Constant Matrix: (Units=GPa)
#
#
# Indices 1 2 3 4 5 6 
#
# 1 44.7828 34.9861 35.2858 0.0000 0.0000 0.0000
# 2 34.9861 44.7826 35.2862 0.0000 0.0000 0.0000
# 3 35.2858 35.2862 132.2119 0.0000 0.0000 0.0000
# 4 0.0000 0.0000 0.0000 20.6194 0.0000 0.0000
# 5 0.0000 0.0000 0.0000 0.0000 20.6197 0.0000
# 6 0.0000 0.0000 0.0000 0.0000 0.0000 23.9458
#
#
#
# Elastic Compliance Matrix: (Units=1/GPa)
#
#
# Indices 1 2 3 4 5 6 
#
# 1 0.059244 -0.042833 -0.004380 0.000000 0.000000 0.000000
# 2 -0.042833 0.059245 -0.004380 0.000000 0.000000 0.000000
# 3 -0.004380 -0.004380 0.009902 0.000000 0.000000 0.000000
# 4 0.000000 0.000000 0.000000 0.048498 0.000000 0.000000
# 5 0.000000 0.000000 0.000000 0.000000 0.048497 0.000000
# 6 0.000000 0.000000 0.000000 0.000000 0.000000 0.041761
#
#
# Mechanical properties :
#
#
# Convention : Reuss Voigt Hill
#
# Bulk Modulus (GPa) = 39.67612 48.09927 43.88769
# Shear Modulus (GPa) = 13.20190 20.78491 16.99340
#
# Velocity S-wave (km/s) = 2.54241 3.19009 2.88449
# Velocity P-wave (km/s) = 5.29571 6.09254 5.70805
#
# Compressibility (1/GPa) = 0.02520408
#
# Stress axis : x y z
#
# Youngs Moduli (GPa) = 16.87941 16.87920 100.99409
#
# Poissons Ratio (x) = 0.72299 0.44232
# Poissons Ratio (y) = 0.72299 0.44238
# Poissons Ratio (z) = 0.07393 0.07394
#
# Static dielectric constant tensor:
#      x y z
#    x 1.735690 0.000000 0.000000 
#    y 0.000000 1.735690 0.000000 
#    z 0.000000 0.000000 1.725550 
# 
# From -- ./inp_files/4394.got.cif
#   From: 2010.05.17/outbox.cif.g08.bks.cpg/sg92_3_cif.got.tgz:4394.got - 2010.06.03 19:35:17.
