data_PCOD9548740
_publ_section_title
;
Structure prediction by ZEFSAII (Michael W. Deem and Ramdas Pophale) SiO2 
 PCOD9548740
Probable space group: P 41 2 2
;
_chemical_formula_sum "Si O2"
_cell_formula_units_Z 24
_cell_length_a 7.805625
_cell_length_b 7.805625
_cell_length_c 14.191647
_cell_angle_alpha 90.000000
_cell_angle_beta 90.000000
_cell_angle_gamma 90.000000
_cell_volume 864.665570
_symmetry_space_group_name_H-M "P 41 2 2"
_symmetry_group_IT_number 91
_symmetry_cell_setting 'tetragonal'
loop_
_space_group_symop_operation_xyz
x,y,z
-y,x,1/4+z
-x,-y,1/2+z
y,-x,3/4+z
x,-y,1/2-z
-x,y,-z
y,x,3/4-z
-y,-x,1/4-z
loop_
_atom_site_type_symbol
_atom_site_label
_atom_site_fract_x
_atom_site_fract_y
_atom_site_fract_z
Si Si1 0.503630 0.883360 0.152989
Si Si2 0.677366 0.704681 0.483008
Si Si3 0.202504 0.056362 0.496131
O O1 0.539207 0.701180 0.202911
O O2 0.330988 0.901788 0.092099
O O3 0.504866 0.000000 0.250000
O O4 0.671115 0.901107 0.084736
O O5 0.500000 0.797105 0.500000
O O6 0.666816 0.666816 0.375000
O O7 0.813481 0.851337 0.501082
O O8 0.000000 0.115950 0.500000
#
# Coordination Sequence:
#
# PCOD9548740 Si02
#       3
#     8   8   8
#     4  11  23  49  81 124 177 228 313 374 460 558
#     4  12  24  48  81 116 170 236 291 380 462 542
#     4  11  25  46  83 130 174 232 311 381 456 553
#
# _framework density 27.756398999999998
#
# number of rings (size 3 to 8) (size 9 to 14) (size 15 to 20)
#    0.000    0.667    6.667    1.000    0.000    1.333 
#    6.000    8.333    0.000    0.000    0.000    0.000 
#    0.000    0.000    0.000    0.000    0.000    0.000 
#
# Total GULP energy -133817.987940 kJ/mol
# GULP energy per Si atom -5575.749497 kJ/mol
# Density = 2.769322 g / cm^3
# Si number density = 27.756399 Si / 1000 Ang^3
#
#
#
# Elastic Constant Matrix: (Units=GPa)
#
#
# Indices 1 2 3 4 5 6 
#
# 1 179.3403 39.9562 97.8038 0.0000 0.0000 0.0000
# 2 39.9562 179.3403 97.8038 0.0000 0.0000 0.0000
# 3 97.8038 97.8038 261.9237 0.0000 0.0000 0.0000
# 4 0.0000 0.0000 0.0000 4.9243 0.0000 0.0000
# 5 0.0000 0.0000 0.0000 0.0000 4.9243 0.0000
# 6 0.0000 0.0000 0.0000 0.0000 0.0000 13.7361
#
#
#
# Elastic Compliance Matrix: (Units=1/GPa)
#
#
# Indices 1 2 3 4 5 6 
#
# 1 0.007006 -0.000169 -0.002553 0.000000 0.000000 0.000000
# 2 -0.000169 0.007006 -0.002553 0.000000 0.000000 0.000000
# 3 -0.002553 -0.002553 0.005725 0.000000 0.000000 0.000000
# 4 0.000000 0.000000 0.000000 0.203075 0.000000 0.000000
# 5 0.000000 0.000000 0.000000 0.000000 0.203075 0.000000
# 6 0.000000 0.000000 0.000000 0.000000 0.000000 0.072801
#
#
# Mechanical properties :
#
#
# Convention : Reuss Voigt Hill
#
# Bulk Modulus (GPa) = 108.85094 121.30351 115.07723
# Shear Modulus (GPa) = 9.75994 30.38631 20.07312
#
# Velocity S-wave (km/s) = 1.87721 3.31229 2.69213
# Velocity P-wave (km/s) = 6.63327 7.64370 7.15634
#
# Compressibility (1/GPa) = 0.00918688
#
# Stress axis : x y z
#
# Youngs Moduli (GPa) = 142.73716 142.73716 174.68497
#
# Poissons Ratio (x) = 0.02406 0.44599
# Poissons Ratio (y) = 0.02406 0.44599
# Poissons Ratio (z) = 0.36442 0.36442
#
# Static dielectric constant tensor:
#      x y z
#    x 2.263810 0.000000 0.000000 
#    y 0.000000 2.263810 0.000000 
#    z 0.000000 0.000000 2.145610 
# 
# From -- ./inp_files/4291.got.cif
#   From: 2010.05.17/outbox.cif.g08.bks.cpg/sg91_3_cif.got.tgz:4291.got - 2010.06.03 19:20:03.
