data_PCOD9548887
_publ_section_title
;
Structure prediction by ZEFSAII (Michael W. Deem and Ramdas Pophale) SiO2 
 PCOD9548887
Probable space group: P 41 21 2
;
_chemical_formula_sum "Si O2"
_cell_formula_units_Z 48
_cell_length_a 12.706529
_cell_length_b 12.706529
_cell_length_c 14.775148
_cell_angle_alpha 90.000000
_cell_angle_beta 90.000000
_cell_angle_gamma 90.000000
_cell_volume 2385.534511
_symmetry_space_group_name_H-M "P 41 21 2"
_symmetry_group_IT_number 92
_symmetry_cell_setting 'tetragonal'
loop_
_space_group_symop_operation_xyz
x,y,z
1/2-y,1/2+x,1/4+z
-x,-y,1/2+z
1/2+y,1/2-x,3/4+z
1/2+x,1/2-y,3/4-z
1/2-x,1/2+y,1/4-z
y,x,-z
-y,-x,1/2-z
loop_
_atom_site_type_symbol
_atom_site_label
_atom_site_fract_x
_atom_site_fract_y
_atom_site_fract_z
Si Si1 0.892791 0.724121 0.082104
Si Si2 0.418572 0.106149 0.945619
Si Si3 0.350848 0.881002 0.387727
Si Si4 0.130209 0.615753 0.506909
Si Si5 0.808460 0.937130 0.110696
Si Si6 0.196767 0.839176 0.551909
O O1 0.893936 0.844672 0.119234
O O2 0.786271 0.678426 0.122244
O O3 0.991920 0.657211 0.112224
O O4 0.899375 0.735594 0.974064
O O5 0.535563 0.151985 0.926877
O O6 0.358940 0.115338 0.850893
O O7 0.357695 0.155177 0.031140
O O8 0.433710 0.982594 0.969847
O O9 0.259672 0.846982 0.456501
O O10 0.229907 0.561367 0.554648
O O11 0.127423 0.735532 0.544058
O O12 0.852797 0.049329 0.079285
#
# Coordination Sequence:
#
# PCOD9548887 Si02
#       6
#     8   8   8   8   8   8
#     4   9  17  31  50  82 103 140 178 226 277 340
#     4  10  21  34  53  83 113 145 189 241 279 331
#     4  10  18  33  58  78 111 144 192 230 284 329
#     4  10  22  34  53  86 114 145 186 233 291 336
#     4   9  19  31  52  78 112 139 180 227 283 340
#     4  10  19  33  55  82 112 145 183 233 288 341
#
# _framework density 20.121276999999999
#
# number of rings (size 3 to 8) (size 9 to 14) (size 15 to 20)
#    0.000    2.333    1.667    1.000    9.333    0.667 
#    0.000    0.000    0.000   16.000   13.000    0.000 
#    0.000    0.000    0.000    0.000    0.000    0.000 
#
# Total GULP energy -267547.890002 kJ/mol
# GULP energy per Si atom -5573.914375 kJ/mol
# Density = 2.007548 g / cm^3
# Si number density = 20.121277 Si / 1000 Ang^3
#
#
#
# Elastic Constant Matrix: (Units=GPa)
#
#
# Indices 1 2 3 4 5 6 
#
# 1 44.4247 -5.8813 5.1860 0.0000 0.0000 0.0000
# 2 -5.8813 44.4247 5.1860 0.0000 0.0000 0.0000
# 3 5.1860 5.1860 57.5052 0.0000 0.0000 0.0000
# 4 0.0000 0.0000 0.0000 13.3838 0.0000 0.0000
# 5 0.0000 0.0000 0.0000 0.0000 13.3838 0.0000
# 6 0.0000 0.0000 0.0000 0.0000 0.0000 16.2463
#
#
#
# Elastic Compliance Matrix: (Units=1/GPa)
#
#
# Indices 1 2 3 4 5 6 
#
# 1 0.023234 0.003356 -0.002398 0.000000 0.000000 0.000000
# 2 0.003356 0.023234 -0.002398 0.000000 0.000000 0.000000
# 3 -0.002398 -0.002398 0.017822 0.000000 0.000000 0.000000
# 4 0.000000 0.000000 0.000000 0.074717 0.000000 0.000000
# 5 0.000000 0.000000 0.000000 0.000000 0.074717 0.000000
# 6 0.000000 0.000000 0.000000 0.000000 0.000000 0.061553
#
#
# Mechanical properties :
#
#
# Convention : Reuss Voigt Hill
#
# Bulk Modulus (GPa) = 16.28385 17.25955 16.77170
# Shear Modulus (GPa) = 16.74325 18.06037 17.40181
#
# Velocity S-wave (km/s) = 2.88777 2.99921 2.94402
# Velocity P-wave (km/s) = 4.38513 4.53763 4.46203
#
# Compressibility (1/GPa) = 0.06141052
#
# Stress axis : x y z
#
# Youngs Moduli (GPa) = 43.03994 43.03994 56.10963
#
# Poissons Ratio (x) = -0.14444 0.13455
# Poissons Ratio (y) = -0.14444 0.13455
# Poissons Ratio (z) = 0.10321 0.10321
#
# Static dielectric constant tensor:
#      x y z
#    x 1.720240 0.000000 0.000000 
#    y 0.000000 1.720240 0.000000 
#    z 0.000000 0.000000 1.759470 
# 
# From -- ./inp_files/2715.got.cif
#   From: 2010.05.17/outbox.cif.g08.bks.cpg/sg92_2_cif.got.tgz:2715.got - 2010.06.03 19:35:17.
