data_PCOD9548047
_publ_section_title
;
Structure prediction by ZEFSAII (Michael W. Deem and Ramdas Pophale) SiO2 
 PCOD9548047
Probable space group: P 41 2 2
;
_chemical_formula_sum "Si O2"
_cell_formula_units_Z 36
_cell_length_a 8.787677
_cell_length_b 8.787677
_cell_length_c 21.494205
_cell_angle_alpha 90.000000
_cell_angle_beta 90.000000
_cell_angle_gamma 90.000000
_cell_volume 1659.852733
_symmetry_space_group_name_H-M "P 41 2 2"
_symmetry_group_IT_number 91
_symmetry_cell_setting 'tetragonal'
loop_
_space_group_symop_operation_xyz
x,y,z
-y,x,1/4+z
-x,-y,1/2+z
y,-x,3/4+z
x,-y,1/2-z
-x,y,-z
y,x,3/4-z
-y,-x,1/4-z
loop_
_atom_site_type_symbol
_atom_site_label
_atom_site_fract_x
_atom_site_fract_y
_atom_site_fract_z
Si Si1 0.345889 0.322251 0.249876
Si Si2 0.691887 0.308114 0.125000
Si Si3 0.656202 0.800047 0.624271
Si Si4 0.194746 0.930437 0.181644
Si Si5 0.819875 0.314969 0.996586
O O1 0.369114 0.500000 0.250000
O O2 0.271996 0.289420 0.182569
O O3 0.244777 0.241062 0.301885
O O4 0.511543 0.243265 0.255142
O O5 0.512843 0.268630 0.118465
O O6 0.752117 0.235503 0.188043
O O7 0.748481 0.774056 0.561471
O O8 0.667121 0.970752 0.651895
O O9 0.074549 0.925452 0.125000
O O10 0.154172 0.000000 0.250000
O O11 0.000000 0.317542 0.000000
#
# Coordination Sequence:
#
# PCOD9548047 Si02
#       5
#     8   4   8   8   8
#     4  10  21  39  66 100 127 171 229 286 338 394
#     4  10  20  42  66  96 130 176 226 288 328 400
#     4  10  21  40  65  97 132 176 221 278 343 403
#     4  10  23  44  67  98 141 181 227 289 344 416
#     4  11  22  39  64  97 135 176 222 279 346 414
#
# _framework density 21.688672
#
# number of rings (size 3 to 8) (size 9 to 14) (size 15 to 20)
#    0.000    1.778    0.000    6.667    3.111    0.889 
#   10.000    0.000    0.000    0.000    0.000    0.000 
#    0.000    0.000    0.000    0.000    0.000    0.000 
#
# Total GULP energy -200779.007447 kJ/mol
# GULP energy per Si atom -5577.194651 kJ/mol
# Density = 2.163931 g / cm^3
# Si number density = 21.688672 Si / 1000 Ang^3
#
#
#
# Elastic Constant Matrix: (Units=GPa)
#
#
# Indices 1 2 3 4 5 6 
#
# 1 98.1768 28.4705 58.7381 0.0000 0.0000 0.0000
# 2 28.4705 98.1772 58.7377 0.0000 0.0000 0.0000
# 3 58.7381 58.7377 212.8886 0.0000 0.0000 0.0000
# 4 0.0000 0.0000 0.0000 27.7294 0.0000 0.0000
# 5 0.0000 0.0000 0.0000 0.0000 27.7299 0.0000
# 6 0.0000 0.0000 0.0000 0.0000 0.0000 13.9327
#
#
#
# Elastic Compliance Matrix: (Units=1/GPa)
#
#
# Indices 1 2 3 4 5 6 
#
# 1 0.012479 -0.001867 -0.002928 0.000000 0.000000 0.000000
# 2 -0.001867 0.012479 -0.002928 0.000000 0.000000 0.000000
# 3 -0.002928 -0.002928 0.006313 0.000000 0.000000 0.000000
# 4 0.000000 0.000000 0.000000 0.036063 0.000000 0.000000
# 5 0.000000 0.000000 0.000000 0.000000 0.036062 0.000000
# 6 0.000000 0.000000 0.000000 0.000000 0.000000 0.071773
#
#
# Mechanical properties :
#
#
# Convention : Reuss Voigt Hill
#
# Bulk Modulus (GPa) = 63.19128 77.90390 70.54759
# Shear Modulus (GPa) = 25.52457 31.43148 28.47803
#
# Velocity S-wave (km/s) = 3.43426 3.81098 3.62752
# Velocity P-wave (km/s) = 6.70257 7.44056 7.08118
#
# Compressibility (1/GPa) = 0.01582497
#
# Stress axis : x y z
#
# Youngs Moduli (GPa) = 80.13547 80.13603 158.40450
#
# Poissons Ratio (x) = 0.14962 0.46379
# Poissons Ratio (y) = 0.14962 0.46379
# Poissons Ratio (z) = 0.23463 0.23463
#
# Static dielectric constant tensor:
#      x y z
#    x 1.833350 0.000000 0.000000 
#    y 0.000000 1.833350 0.000000 
#    z 0.000000 0.000000 1.831510 
# 
# From -- ./inp_files/6126.got.cif
#   From: 2010.05.17/outbox.cif.g08.bks.cpg/sg91_4_cif.got.tgz:6126.got - 2010.06.03 19:20:03.
