data_PCOD9548767
_publ_section_title
;
Structure prediction by ZEFSAII (Michael W. Deem and Ramdas Pophale) SiO2 
 PCOD9548767
Probable space group: P 41 2 2
;
_chemical_formula_sum "Si O2"
_cell_formula_units_Z 40
_cell_length_a 17.498047
_cell_length_b 17.498047
_cell_length_c 5.539930
_cell_angle_alpha 90.000000
_cell_angle_beta 90.000000
_cell_angle_gamma 90.000000
_cell_volume 1696.224902
_symmetry_space_group_name_H-M "P 41 2 2"
_symmetry_group_IT_number 91
_symmetry_cell_setting 'tetragonal'
loop_
_space_group_symop_operation_xyz
x,y,z
-y,x,1/4+z
-x,-y,1/2+z
y,-x,3/4+z
x,-y,1/2-z
-x,y,-z
y,x,3/4-z
-y,-x,1/4-z
loop_
_atom_site_type_symbol
_atom_site_label
_atom_site_fract_x
_atom_site_fract_y
_atom_site_fract_z
Si Si1 0.127560 0.371906 0.168198
Si Si2 0.458987 0.000000 0.750000
Si Si3 0.000000 0.303676 0.500000
Si Si4 0.742248 0.500000 0.750000
Si Si5 0.329952 0.734859 0.375279
Si Si6 0.719785 0.500000 0.250000
Si Si7 0.240949 0.128550 0.942241
O O1 0.197698 0.428033 0.227911
O O2 0.065194 0.355012 0.375091
O O3 0.145031 0.291038 0.047820
O O4 0.077003 0.411922 0.960446
O O5 0.500000 0.015018 0.500000
O O6 0.955280 0.253489 0.300142
O O7 0.687676 0.510411 0.517895
O O8 0.307915 0.692086 0.625000
O O9 0.418073 0.758042 0.437075
O O10 0.278840 0.811022 0.369958
O O11 0.312508 0.687493 0.125000
O O12 0.156450 0.156450 0.875000
#
# Coordination Sequence:
#
# PCOD9548767 Si02
#       7
#     8   4   4   4   8   4   8
#     4  12  25  40  61  99 143 187 240 285 354 437
#     4  12  25  36  58  92 140 189 224 272 337 426
#     4  12  25  44  68  94 146 187 240 300 365 436
#     4  12  26  36  67  98 145 198 236 280 352 442
#     4  11  25  44  71 104 142 193 245 299 361 431
#     4  12  24  44  67 102 143 194 244 298 362 434
#     4  11  26  44  67  99 143 187 245 304 364 438
#
# _framework density 23.581778
#
# number of rings (size 3 to 8) (size 9 to 14) (size 15 to 20)
#    0.000    0.400    5.000    3.000    9.800    0.000 
#    0.000    0.000    0.000    1.200    0.000    0.000 
#   42.000    0.000    0.000    0.000    0.000    0.000 
#
# Total GULP energy -222736.360011 kJ/mol
# GULP energy per Si atom -5568.409000 kJ/mol
# Density = 2.352811 g / cm^3
# Si number density = 23.581778 Si / 1000 Ang^3
#
#
#
# Elastic Constant Matrix: (Units=GPa)
#
#
# Indices 1 2 3 4 5 6 
#
# 1 73.9049 38.7676 30.5046 0.0000 0.0000 0.0000
# 2 38.7676 73.9050 30.5055 0.0000 0.0000 0.0000
# 3 30.5046 30.5055 183.7326 0.0000 0.0000 0.0000
# 4 0.0000 0.0000 0.0000 14.7702 0.0000 0.0000
# 5 0.0000 0.0000 0.0000 0.0000 14.7704 0.0000
# 6 0.0000 0.0000 0.0000 0.0000 0.0000 -6.1430
#
#
#
# Elastic Compliance Matrix: (Units=1/GPa)
#
#
# Indices 1 2 3 4 5 6 
#
# 1 0.019106 -0.009354 -0.001619 0.000000 0.000000 0.000000
# 2 -0.009354 0.019106 -0.001619 0.000000 0.000000 0.000000
# 3 -0.001619 -0.001619 0.005980 0.000000 0.000000 0.000000
# 4 0.000000 0.000000 0.000000 0.067704 0.000000 0.000000
# 5 0.000000 0.000000 0.000000 0.000000 0.067703 0.000000
# 6 0.000000 0.000000 0.000000 0.000000 0.000000 -0.162786
#
#
# Mechanical properties :
#
#
# Convention : Reuss Voigt Hill
#
# Bulk Modulus (GPa) = 52.60982 59.01087 55.81035
# Shear Modulus (GPa) = 103.44740 20.13049 61.78894
#
# Velocity S-wave (km/s) = 6.63044 2.92489 5.12434
# Velocity P-wave (km/s) = 8.99861 6.04027 7.66355
#
# Compressibility (1/GPa) = 0.01900786
#
# Stress axis : x y z
#
# Youngs Moduli (GPa) = 52.33994 52.33979 167.21470
#
# Poissons Ratio (x) = 0.48958 0.27073
# Poissons Ratio (y) = 0.48958 0.27075
# Poissons Ratio (z) = 0.08474 0.08475
#
# Static dielectric constant tensor:
#      x y z
#    x 2.021440 0.000000 0.000000 
#    y 0.000000 2.021440 0.000000 
#    z 0.000000 0.000000 2.141510 
# 
# From -- ./inp_files/18625.got.cif
#   From: 2010.05.17/outbox.cif.g08.bks.cpg/sg91_10_cif.got.tgz:18625.got - 2010.06.03 19:20:03.
