data_PCOD9548914
_publ_section_title
;
Structure prediction by ZEFSAII (Michael W. Deem and Ramdas Pophale) SiO2 
 PCOD9548914
Probable space group: P 41 21 2
;
_chemical_formula_sum "Si O2"
_cell_formula_units_Z 36
_cell_length_a 7.292574
_cell_length_b 7.292574
_cell_length_c 28.392893
_cell_angle_alpha 90.000000
_cell_angle_beta 90.000000
_cell_angle_gamma 90.000000
_cell_volume 1509.980488
_symmetry_space_group_name_H-M "P 41 21 2"
_symmetry_group_IT_number 92
_symmetry_cell_setting 'tetragonal'
loop_
_space_group_symop_operation_xyz
x,y,z
1/2-y,1/2+x,1/4+z
-x,-y,1/2+z
1/2+y,1/2-x,3/4+z
1/2+x,1/2-y,3/4-z
1/2-x,1/2+y,1/4-z
y,x,-z
-y,-x,1/2-z
loop_
_atom_site_type_symbol
_atom_site_label
_atom_site_fract_x
_atom_site_fract_y
_atom_site_fract_z
Si Si1 0.811417 0.594949 0.074123
Si Si2 0.680127 0.319874 0.750000
Si Si3 0.979127 0.344526 0.147016
Si Si4 0.415717 0.956734 0.509438
Si Si5 0.633524 0.622871 0.315800
O O1 0.899198 0.420350 0.098845
O O2 0.610043 0.650238 0.089737
O O3 0.850154 0.576931 0.018870
O O4 0.945194 0.768590 0.087408
O O5 0.643994 0.104773 0.749436
O O6 0.571379 0.393805 0.796111
O O7 0.750984 0.646759 0.266902
O O8 0.197953 0.345332 0.152285
O O9 0.405911 0.009729 0.563615
#
# Coordination Sequence:
#
# PCOD9548914 Si02
#       5
#     8   4   8   8   8
#     4  10  24  40  60  97 126 167 212 265 314 379
#     4  10  18  40  70  90 122 172 206 254 326 384
#     4  11  22  42  66  93 126 175 210 260 328 372
#     4   9  22  43  63  96 125 168 212 261 325 372
#     4   9  22  42  63  91 133 162 204 274 309 375
#
# _framework density 23.841365
#
# number of rings (size 3 to 8) (size 9 to 14) (size 15 to 20)
#    1.333    0.889    0.000    2.000    0.000   10.667 
#   16.000    0.000    0.000    0.000    0.000    0.000 
#    0.000    0.000    0.000    0.000    0.000    0.000 
#
# Total GULP energy -200981.507860 kJ/mol
# GULP energy per Si atom -5582.819663 kJ/mol
# Density = 2.378710 g / cm^3
# Si number density = 23.841365 Si / 1000 Ang^3
#
#
#
# Elastic Constant Matrix: (Units=GPa)
#
#
# Indices 1 2 3 4 5 6 
#
# 1 68.3646 14.1185 -1.6478 0.0000 0.0000 0.0000
# 2 14.1185 68.3641 -1.6477 0.0000 0.0000 0.0000
# 3 -1.6478 -1.6477 35.9435 0.0000 0.0000 0.0000
# 4 0.0000 0.0000 0.0000 25.9643 0.0000 0.0000
# 5 0.0000 0.0000 0.0000 0.0000 25.9642 0.0000
# 6 0.0000 0.0000 0.0000 0.0000 0.0000 30.9174
#
#
#
# Elastic Compliance Matrix: (Units=1/GPa)
#
#
# Indices 1 2 3 4 5 6 
#
# 1 0.015290 -0.003144 0.000557 0.000000 0.000000 0.000000
# 2 -0.003144 0.015290 0.000557 0.000000 0.000000 0.000000
# 3 0.000557 0.000557 0.027872 0.000000 0.000000 0.000000
# 4 0.000000 0.000000 0.000000 0.038514 0.000000 0.000000
# 5 0.000000 0.000000 0.000000 0.000000 0.038515 0.000000
# 6 0.000000 0.000000 0.000000 0.000000 0.000000 0.032344
#
#
# Mechanical properties :
#
#
# Convention : Reuss Voigt Hill
#
# Bulk Modulus (GPa) = 18.38518 21.59092 19.98805
# Shear Modulus (GPa) = 26.31327 27.35913 26.83620
#
# Velocity S-wave (km/s) = 3.32577 3.39122 3.35866
# Velocity P-wave (km/s) = 4.74088 4.94061 4.84177
#
# Compressibility (1/GPa) = 0.05439162
#
# Stress axis : x y z
#
# Youngs Moduli (GPa) = 65.40123 65.40074 35.87770
#
# Poissons Ratio (x) = 0.20564 -0.01998
# Poissons Ratio (y) = 0.20564 -0.01998
# Poissons Ratio (z) = -0.03642 -0.03641
#
# Static dielectric constant tensor:
#      x y z
#    x 1.892070 0.000000 0.000000 
#    y 0.000000 1.892080 0.000000 
#    z 0.000000 0.000000 1.906410 
# 
# From -- ./inp_files/4111.got.cif
#   From: 2010.05.17/outbox.cif.g08.bks.cpg/sg92_3_cif.got.tgz:4111.got - 2010.06.03 19:35:17.
