data_PCOD9548180
_publ_section_title
;
Structure prediction by ZEFSAII (Michael W. Deem and Ramdas Pophale) SiO2 
 PCOD9548180
Probable space group: P 41 2 2
;
_chemical_formula_sum "Si O2"
_cell_formula_units_Z 40
_cell_length_a 8.693283
_cell_length_b 8.693283
_cell_length_c 23.167026
_cell_angle_alpha 90.000000
_cell_angle_beta 90.000000
_cell_angle_gamma 90.000000
_cell_volume 1750.805578
_symmetry_space_group_name_H-M "P 41 2 2"
_symmetry_group_IT_number 91
_symmetry_cell_setting 'tetragonal'
loop_
_space_group_symop_operation_xyz
x,y,z
-y,x,1/4+z
-x,-y,1/2+z
y,-x,3/4+z
x,-y,1/2-z
-x,y,-z
y,x,3/4-z
-y,-x,1/4-z
loop_
_atom_site_type_symbol
_atom_site_label
_atom_site_fract_x
_atom_site_fract_y
_atom_site_fract_z
Si Si1 0.705401 0.805608 0.816213
Si Si2 0.342592 0.560544 0.967859
Si Si3 0.176421 0.032631 0.014380
Si Si4 0.137906 0.317424 0.621691
Si Si5 0.208522 0.602116 0.692634
O O1 0.705075 0.705075 0.875000
O O2 0.568941 0.777613 0.771137
O O3 0.864046 0.764720 0.783149
O O4 0.715355 0.982595 0.836381
O O5 0.285466 0.680738 0.919792
O O6 0.360466 0.390192 0.940978
O O7 0.500000 0.602155 0.000000
O O8 0.212563 0.136385 0.071192
O O9 0.253077 0.105288 0.957863
O O10 0.000000 0.019070 0.000000
O O11 0.138788 0.493993 0.643772
O O12 0.194059 0.500000 0.750000
#
# Coordination Sequence:
#
# PCOD9548180 Si02
#       5
#     8   8   8   8   8
#     4  10  23  41  64  93 126 165 209 259 314 375
#     4  11  23  40  63  93 127 165 210 260 314 374
#     4  10  21  41  65  94 126 164 211 259 313 374
#     4  10  21  42  64  90 130 166 204 259 317 374
#     4   9  21  40  62  88 124 162 201 251 306 367
#
# _framework density 22.846623000000001
#
# number of rings (size 3 to 8) (size 9 to 14) (size 15 to 20)
#    0.000    2.000    0.000    2.400    0.000   10.400 
#    0.000   22.000    0.000    0.000    0.000    0.000 
#    0.000    0.000    0.000    0.000    0.000    0.000 
#
# Total GULP energy -223306.015676 kJ/mol
# GULP energy per Si atom -5582.650392 kJ/mol
# Density = 2.279462 g / cm^3
# Si number density = 22.846623 Si / 1000 Ang^3
#
#
#
# Elastic Constant Matrix: (Units=GPa)
#
#
# Indices 1 2 3 4 5 6 
#
# 1 26.7517 22.6950 27.4723 0.0000 0.0000 0.0000
# 2 22.6950 26.7517 27.4723 0.0000 0.0000 0.0000
# 3 27.4723 27.4723 83.9400 0.0000 0.0000 0.0000
# 4 0.0000 0.0000 0.0000 25.6488 0.0000 0.0000
# 5 0.0000 0.0000 0.0000 0.0000 25.6488 0.0000
# 6 0.0000 0.0000 0.0000 0.0000 0.0000 29.9299
#
#
#
# Elastic Compliance Matrix: (Units=1/GPa)
#
#
# Indices 1 2 3 4 5 6 
#
# 1 0.139144 -0.107362 -0.010402 0.000000 0.000000 0.000000
# 2 -0.107362 0.139144 -0.010402 0.000000 0.000000 0.000000
# 3 -0.010402 -0.010402 0.018722 0.000000 0.000000 0.000000
# 4 0.000000 0.000000 0.000000 0.038988 0.000000 0.000000
# 5 0.000000 0.000000 0.000000 0.000000 0.038988 0.000000
# 6 0.000000 0.000000 0.000000 0.000000 0.000000 0.033411
#
#
# Mechanical properties :
#
#
# Convention : Reuss Voigt Hill
#
# Bulk Modulus (GPa) = 24.58271 32.52473 28.55372
# Shear Modulus (GPa) = 7.37151 20.23240 13.80195
#
# Velocity S-wave (km/s) = 1.79820 2.97909 2.46054
# Velocity P-wave (km/s) = 3.88518 5.10885 4.53844
#
# Compressibility (1/GPa) = 0.04067900
#
# Stress axis : x y z
#
# Youngs Moduli (GPa) = 7.18682 7.18682 53.41313
#
# Poissons Ratio (x) = 0.77159 0.55559
# Poissons Ratio (y) = 0.77159 0.55559
# Poissons Ratio (z) = 0.07476 0.07476
#
# Static dielectric constant tensor:
#      x y z
#    x 1.872110 0.000000 0.000000 
#    y 0.000000 1.872110 0.000000 
#    z 0.000000 0.000000 1.992560 
# 
# From -- ./inp_files/6791.got.cif
#   From: 2010.05.17/outbox.cif.g08.bks.cpg/sg91_4_cif.got.tgz:6791.got - 2010.06.03 19:20:03.
