data_PCOD9548665
_publ_section_title
;
Structure prediction by ZEFSAII (Michael W. Deem and Ramdas Pophale) SiO2 
 PCOD9548665
Probable space group: P 41 2 2
;
_chemical_formula_sum "Si O2"
_cell_formula_units_Z 40
_cell_length_a 14.515199
_cell_length_b 14.515199
_cell_length_c 10.131107
_cell_angle_alpha 90.000000
_cell_angle_beta 90.000000
_cell_angle_gamma 90.000000
_cell_volume 2134.533085
_symmetry_space_group_name_H-M "P 41 2 2"
_symmetry_group_IT_number 91
_symmetry_cell_setting 'tetragonal'
loop_
_space_group_symop_operation_xyz
x,y,z
-y,x,1/4+z
-x,-y,1/2+z
y,-x,3/4+z
x,-y,1/2-z
-x,y,-z
y,x,3/4-z
-y,-x,1/4-z
loop_
_atom_site_type_symbol
_atom_site_label
_atom_site_fract_x
_atom_site_fract_y
_atom_site_fract_z
Si Si1 0.252664 0.803295 0.838198
Si Si2 0.846748 0.382185 0.360672
Si Si3 0.708159 0.000000 0.750000
Si Si4 0.167893 0.057660 0.475054
Si Si5 0.896814 0.582255 0.432860
Si Si6 0.113957 0.886044 0.625000
O O1 0.234863 0.693245 0.845974
O O2 0.348548 0.839029 0.776226
O O3 0.176286 0.847772 0.742621
O O4 0.225851 0.855135 0.973239
O O5 0.908679 0.349296 0.483318
O O6 0.838335 0.489214 0.402042
O O7 0.901174 0.379242 0.218648
O O8 0.767867 0.000918 0.880261
O O9 0.089843 0.089843 0.375000
O O10 0.131681 0.991799 0.589389
O O11 0.000000 0.570367 0.500000
#
# Coordination Sequence:
#
# PCOD9548665 Si02
#       6
#     8   8   4   8   8   4
#     4  12  22  42  59  85 126 162 204 263 320 372
#     4  11  22  38  62  87 124 155 209 259 311 374
#     4  12  20  42  54  82 118 162 202 258 304 364
#     4  12  24  39  56  79 123 171 212 256 307 367
#     4  11  22  38  63  91 120 165 208 259 315 376
#     4  12  22  40  54  78 118 166 214 246 300 376
#
# _framework density 18.739462
#
# number of rings (size 3 to 8) (size 9 to 14) (size 15 to 20)
#    0.000    0.400    7.000    3.000    0.000    0.000 
#   16.200    0.000    0.000    0.000    0.000    0.000 
#   48.000    0.000    0.000    0.000    0.000    0.000 
#
# Total GULP energy -222790.655795 kJ/mol
# GULP energy per Si atom -5569.766395 kJ/mol
# Density = 1.869681 g / cm^3
# Si number density = 18.739462 Si / 1000 Ang^3
#
#
#
# Elastic Constant Matrix: (Units=GPa)
#
#
# Indices 1 2 3 4 5 6 
#
# 1 112.0167 52.4123 29.8557 0.0000 0.0000 0.0000
# 2 52.4123 112.0175 29.8562 0.0000 0.0000 0.0000
# 3 29.8557 29.8562 66.9727 0.0000 0.0000 0.0000
# 4 0.0000 0.0000 0.0000 15.3275 0.0000 0.0000
# 5 0.0000 0.0000 0.0000 0.0000 15.3276 0.0000
# 6 0.0000 0.0000 0.0000 0.0000 0.0000 22.2402
#
#
#
# Elastic Compliance Matrix: (Units=1/GPa)
#
#
# Indices 1 2 3 4 5 6 
#
# 1 0.012017 -0.004760 -0.003235 0.000000 0.000000 0.000000
# 2 -0.004760 0.012017 -0.003235 0.000000 0.000000 0.000000
# 3 -0.003235 -0.003235 0.017816 0.000000 0.000000 0.000000
# 4 0.000000 0.000000 0.000000 0.065242 0.000000 0.000000
# 5 0.000000 0.000000 0.000000 0.000000 0.065242 0.000000
# 6 0.000000 0.000000 0.000000 0.000000 0.000000 0.044964
#
#
# Mechanical properties :
#
#
# Convention : Reuss Voigt Hill
#
# Bulk Modulus (GPa) = 51.57571 57.25059 54.41315
# Shear Modulus (GPa) = 20.30706 22.50457 21.40581
#
# Velocity S-wave (km/s) = 3.29546 3.46919 3.38344
# Velocity P-wave (km/s) = 6.48555 6.83112 6.66057
#
# Compressibility (1/GPa) = 0.01938897
#
# Stress axis : x y z
#
# Youngs Moduli (GPa) = 83.21690 83.21716 56.13059
#
# Poissons Ratio (x) = 0.39615 0.18157
# Poissons Ratio (y) = 0.39615 0.18158
# Poissons Ratio (z) = 0.26919 0.26920
#
# Static dielectric constant tensor:
#      x y z
#    x 1.819590 0.000000 0.000000 
#    y 0.000000 1.819590 0.000000 
#    z 0.000000 0.000000 1.665520 
# 
# From -- ./inp_files/19468.got.cif
#   From: 2010.05.17/outbox.cif.g08.bks.cpg/sg91_10_cif.got.tgz:19468.got - 2010.06.03 19:20:03.
