data_PCOD9548142
_publ_section_title
;
Structure prediction by ZEFSAII (Michael W. Deem and Ramdas Pophale) SiO2 
 PCOD9548142
Probable space group: P 41 2 2
;
_chemical_formula_sum "Si O2"
_cell_formula_units_Z 48
_cell_length_a 12.236394
_cell_length_b 12.236394
_cell_length_c 16.521941
_cell_angle_alpha 90.000000
_cell_angle_beta 90.000000
_cell_angle_gamma 90.000000
_cell_volume 2473.819290
_symmetry_space_group_name_H-M "P 41 2 2"
_symmetry_group_IT_number 91
_symmetry_cell_setting 'tetragonal'
loop_
_space_group_symop_operation_xyz
x,y,z
-y,x,1/4+z
-x,-y,1/2+z
y,-x,3/4+z
x,-y,1/2-z
-x,y,-z
y,x,3/4-z
-y,-x,1/4-z
loop_
_atom_site_type_symbol
_atom_site_label
_atom_site_fract_x
_atom_site_fract_y
_atom_site_fract_z
Si Si1 0.905286 0.548058 0.665204
Si Si2 0.005849 0.108563 0.199655
Si Si3 0.869102 0.620061 0.405582
Si Si4 0.809440 0.747213 0.253925
Si Si5 0.128306 0.410589 0.485314
Si Si6 0.759937 0.773357 0.076238
O O1 0.947265 0.500000 0.750000
O O2 0.862970 0.454131 0.605677
O O3 0.812291 0.636164 0.682265
O O4 0.002964 0.607683 0.615897
O O5 0.116695 0.167311 0.174203
O O6 0.928000 0.194928 0.245310
O O7 0.030968 0.000000 0.250000
O O8 0.933500 0.066501 0.125000
O O9 0.813217 0.649831 0.319678
O O10 0.835402 0.720955 0.463115
O O11 0.840629 0.509755 0.453504
O O12 0.778580 0.716699 0.163239
O O13 0.199408 0.306399 0.506675
O O14 0.000000 0.385377 0.500000
#
# Coordination Sequence:
#
# PCOD9548142 Si02
#       6
#     8   8   8   8   8   8
#     4  11  24  42  65  90 127 178 223 263 323 396
#     4  12  22  34  56  90 134 169 205 248 328 407
#     4  10  21  39  63  95 126 165 223 267 311 377
#     4  11  21  35  67  96 124 168 211 272 323 387
#     4  10  24  41  64  94 131 168 216 273 315 385
#     4  12  24  41  62  93 131 173 216 268 334 387
#
# _framework density 19.403195
#
# number of rings (size 3 to 8) (size 9 to 14) (size 15 to 20)
#    0.000    1.000    6.667    0.500    4.667    0.667 
#    3.000    0.000    0.000    4.000    0.000    0.000 
#    0.000    0.000    0.000    0.000    0.000    0.000 
#
# Total GULP energy -268152.584230 kJ/mol
# GULP energy per Si atom -5586.512171 kJ/mol
# Density = 1.935903 g / cm^3
# Si number density = 19.403195 Si / 1000 Ang^3
#
#
#
# Elastic Constant Matrix: (Units=GPa)
#
#
# Indices 1 2 3 4 5 6 
#
# 1 47.6230 24.4484 15.1397 0.0000 0.0000 0.0000
# 2 24.4484 47.6228 15.1394 0.0000 0.0000 0.0000
# 3 15.1397 15.1394 62.7252 0.0000 0.0000 0.0000
# 4 0.0000 0.0000 0.0000 28.7004 0.0000 0.0000
# 5 0.0000 0.0000 0.0000 0.0000 28.7002 0.0000
# 6 0.0000 0.0000 0.0000 0.0000 0.0000 9.7472
#
#
#
# Elastic Compliance Matrix: (Units=1/GPa)
#
#
# Indices 1 2 3 4 5 6 
#
# 1 0.029296 -0.013855 -0.003727 0.000000 0.000000 0.000000
# 2 -0.013855 0.029296 -0.003727 0.000000 0.000000 0.000000
# 3 -0.003727 -0.003727 0.017742 0.000000 0.000000 0.000000
# 4 0.000000 0.000000 0.000000 0.034843 0.000000 0.000000
# 5 0.000000 0.000000 0.000000 0.000000 0.034843 0.000000
# 6 0.000000 0.000000 0.000000 0.000000 0.000000 0.102593
#
#
# Mechanical properties :
#
#
# Convention : Reuss Voigt Hill
#
# Bulk Modulus (GPa) = 29.65955 29.71401 29.68678
# Shear Modulus (GPa) = 16.53065 20.31247 18.42156
#
# Velocity S-wave (km/s) = 2.92199 3.23903 3.08459
# Velocity P-wave (km/s) = 5.16751 5.41624 5.29334
#
# Compressibility (1/GPa) = 0.03371596
#
# Stress axis : x y z
#
# Youngs Moduli (GPa) = 34.13444 34.13438 56.36471
#
# Poissons Ratio (x) = 0.47293 0.21007
# Poissons Ratio (y) = 0.47293 0.21006
# Poissons Ratio (z) = 0.12722 0.12721
#
# Static dielectric constant tensor:
#      x y z
#    x 1.670120 0.000000 0.000000 
#    y 0.000000 1.670120 0.000000 
#    z 0.000000 0.000000 1.706510 
# 
# From -- ./inp_files/11949.got.cif
#   From: 2010.05.17/outbox.cif.g08.bks.cpg/sg91_6_cif.got.tgz:11949.got - 2010.06.03 19:20:03.
