data_PCOD9548062
_publ_section_title
;
Structure prediction by ZEFSAII (Michael W. Deem and Ramdas Pophale) SiO2 
 PCOD9548062
Probable space group: P 41 2 2
;
_chemical_formula_sum "Si O2"
_cell_formula_units_Z 32
_cell_length_a 7.874963
_cell_length_b 7.874963
_cell_length_c 20.518635
_cell_angle_alpha 90.000000
_cell_angle_beta 90.000000
_cell_angle_gamma 90.000000
_cell_volume 1272.464016
_symmetry_space_group_name_H-M "P 41 2 2"
_symmetry_group_IT_number 91
_symmetry_cell_setting 'tetragonal'
loop_
_space_group_symop_operation_xyz
x,y,z
-y,x,1/4+z
-x,-y,1/2+z
y,-x,3/4+z
x,-y,1/2-z
-x,y,-z
y,x,3/4-z
-y,-x,1/4-z
loop_
_atom_site_type_symbol
_atom_site_label
_atom_site_fract_x
_atom_site_fract_y
_atom_site_fract_z
Si Si1 0.682910 0.246532 0.035524
Si Si2 0.852652 0.147349 0.625000
Si Si3 0.974039 0.000000 0.250000
Si Si4 0.587059 0.605026 0.683727
Si Si5 0.529869 0.064648 0.421626
O O1 0.734643 0.441658 0.045950
O O2 0.624809 0.112340 0.091578
O O3 0.500000 0.273085 0.000000
O O4 0.835467 0.146441 0.003175
O O5 0.962099 0.089206 0.562800
O O6 0.890874 0.347466 0.640010
O O7 0.619004 0.500000 0.750000
O O8 0.502297 0.497704 0.625000
O O9 0.773988 0.651833 0.659447
O O10 0.500000 0.052330 0.500000
#
# Coordination Sequence:
#
# PCOD9548062 Si02
#       5
#     8   4   4   8   8
#     4  10  22  46  69 102 150 190 238 325 366 449
#     4  12  24  46  76 112 152 212 254 328 404 470
#     4  12  26  46  78 114 156 204 264 316 410 470
#     4  10  22  41  70  98 136 188 239 302 375 441
#     4  10  20  45  69  97 146 185 240 310 374 449
#
# _framework density 25.148060000000001
#
# number of rings (size 3 to 8) (size 9 to 14) (size 15 to 20)
#    0.000    1.500    6.250    0.000    1.750    2.000 
#    0.000    1.250    0.000    0.000    0.000    0.000 
#    0.000    0.000    0.000    0.000    0.000    0.000 
#
# Total GULP energy -178311.425491 kJ/mol
# GULP energy per Si atom -5572.232047 kJ/mol
# Density = 2.509082 g / cm^3
# Si number density = 25.148060 Si / 1000 Ang^3
#
#
#
# Elastic Constant Matrix: (Units=GPa)
#
#
# Indices 1 2 3 4 5 6 
#
# 1 141.5199 6.7544 2.4619 0.0000 0.0000 0.0000
# 2 6.7544 141.5213 2.4623 0.0000 0.0000 0.0000
# 3 2.4619 2.4623 102.1606 0.0000 0.0000 0.0000
# 4 0.0000 0.0000 0.0000 28.5348 0.0000 0.0000
# 5 0.0000 0.0000 0.0000 0.0000 28.5348 0.0000
# 6 0.0000 0.0000 0.0000 0.0000 0.0000 -11.7412
#
#
#
# Elastic Compliance Matrix: (Units=1/GPa)
#
#
# Indices 1 2 3 4 5 6 
#
# 1 0.007085 -0.000335 -0.000163 0.000000 0.000000 0.000000
# 2 -0.000335 0.007085 -0.000163 0.000000 0.000000 0.000000
# 3 -0.000163 -0.000163 0.009796 0.000000 0.000000 0.000000
# 4 0.000000 0.000000 0.000000 0.035045 0.000000 0.000000
# 5 0.000000 0.000000 0.000000 0.000000 0.035045 0.000000
# 6 0.000000 0.000000 0.000000 0.000000 0.000000 -0.085170
#
#
# Mechanical properties :
#
#
# Convention : Reuss Voigt Hill
#
# Bulk Modulus (GPa) = 44.15998 45.39544 44.77771
# Shear Modulus (GPa) = 281.60391 33.96722 157.78556
#
# Velocity S-wave (km/s) = 10.59346 3.67916 7.92962
# Velocity P-wave (km/s) = 12.93162 6.01155 10.08379
#
# Compressibility (1/GPa) = 0.02264494
#
# Stress axis : x y z
#
# Youngs Moduli (GPa) = 141.14372 141.14505 102.07879
#
# Poissons Ratio (x) = 0.04733 0.01660
# Poissons Ratio (y) = 0.04733 0.01661
# Poissons Ratio (z) = 0.02296 0.02296
#
# Static dielectric constant tensor:
#      x y z
#    x 2.145310 0.000000 0.000000 
#    y 0.000000 2.145310 0.000000 
#    z 0.000000 0.000000 3.083160 
# 
# From -- ./inp_files/12696.got.cif
#   From: 2010.05.17/outbox.cif.g08.bks.cpg/sg91_7_cif.got.tgz:12696.got - 2010.06.03 19:20:03.
