data_PCOD9548833
_publ_section_title
;
Structure prediction by ZEFSAII (Michael W. Deem and Ramdas Pophale) SiO2 
 PCOD9548833
Probable space group: P 41 2 2
;
_chemical_formula_sum "Si O2"
_cell_formula_units_Z 48
_cell_length_a 9.000000
_cell_length_b 9.000000
_cell_length_c 30.000000
_cell_angle_alpha 90.000000
_cell_angle_beta 90.000000
_cell_angle_gamma 90.000000
_cell_volume 2430.000000
_symmetry_space_group_name_H-M "P 41 2 2"
_symmetry_group_IT_number 91
_symmetry_cell_setting 'tetragonal'
loop_
_space_group_symop_operation_xyz
x,y,z
-y,x,1/4+z
-x,-y,1/2+z
y,-x,3/4+z
x,-y,1/2-z
-x,y,-z
y,x,3/4-z
-y,-x,1/4-z
loop_
_atom_site_type_symbol
_atom_site_label
_atom_site_fract_x
_atom_site_fract_y
_atom_site_fract_z
Si Si1 0.090999 0.401826 0.454453
Si Si2 0.138205 0.269666 0.065409
Si Si3 0.664704 0.710035 0.484304
Si Si4 0.156231 0.790892 0.912793
Si Si5 0.365251 0.666240 0.266169
Si Si6 0.843790 0.878982 0.426948
O O1 0.144137 0.552540 0.431532
O O2 0.229868 0.314619 0.475115
O O3 0.000000 0.436917 0.500000
O O4 0.985069 0.310968 0.422234
O O5 0.184495 0.193474 0.111375
O O6 0.971425 0.224086 0.053422
O O7 0.241230 0.225682 0.024890
O O8 0.500000 0.705095 0.500000
O O9 0.704850 0.538917 0.474998
O O10 0.688540 0.818374 0.443462
O O11 0.293656 0.720757 0.939279
O O12 0.127224 0.949985 0.935314
O O13 0.352839 0.500000 0.250000
O O14 0.854391 0.854391 0.375000
#
# Coordination Sequence:
#
# PCOD9548833 Si02
#       6
#     8   8   8   8   8   8
#     4   9  18  36  58  75 103 146 181 214 267 326
#     4  10  20  36  56  78 106 143 180 217 268 327
#     4  10  21  36  57  82 107 139 181 224 269 320
#     4  10  21  35  55  81 107 142 182 221 269 325
#     4   9  19  37  56  77 106 142 180 220 269 322
#     4  10  21  36  54  79 109 140 176 220 269 318
#
# _framework density 19.753086
#
# number of rings (size 3 to 8) (size 9 to 14) (size 15 to 20)
#    0.000    2.333    0.000    3.500    0.000    8.667 
#    0.000   11.667    0.000    0.000    0.000    0.000 
#    0.000    0.000    0.000    0.000    0.000    0.000 
#
# Total GULP energy -267211.912326 kJ/mol
# GULP energy per Si atom -5566.914840 kJ/mol
# Density = 1.970813 g / cm^3
# Si number density = 19.753086 Si / 1000 Ang^3
#
#
#
# Elastic Constant Matrix: (Units=GPa)
#
#
# Indices 1 2 3 4 5 6 
#
# 1 28.7325 3.2000 24.3066 0.0000 0.0000 0.0000
# 2 3.2000 28.7325 24.3066 0.0000 0.0000 0.0000
# 3 24.3066 24.3066 49.8322 0.0000 0.0000 0.0000
# 4 0.0000 0.0000 0.0000 22.6019 0.0000 0.0000
# 5 0.0000 0.0000 0.0000 0.0000 22.6019 0.0000
# 6 0.0000 0.0000 0.0000 0.0000 0.0000 5.3586
#
#
#
# Elastic Compliance Matrix: (Units=1/GPa)
#
#
# Indices 1 2 3 4 5 6 
#
# 1 0.080406 0.041240 -0.059335 0.000000 0.000000 0.000000
# 2 0.041240 0.080406 -0.059335 0.000000 0.000000 0.000000
# 3 -0.059335 -0.059335 0.077951 0.000000 0.000000 0.000000
# 4 0.000000 0.000000 0.000000 0.044244 0.000000 0.000000
# 5 0.000000 0.000000 0.000000 0.000000 0.044244 0.000000
# 6 0.000000 0.000000 0.000000 0.000000 0.000000 0.186615
#
#
# Mechanical properties :
#
#
# Convention : Reuss Voigt Hill
#
# Bulk Modulus (GPa) = 11.91852 23.43593 17.67723
# Shear Modulus (GPa) = 7.17674 13.81144 10.49409
#
# Velocity S-wave (km/s) = 1.90817 2.64712 2.30742
# Velocity P-wave (km/s) = 3.30177 4.60794 4.00842
#
# Compressibility (1/GPa) = 0.08390301
#
# Stress axis : x y z
#
# Youngs Moduli (GPa) = 12.43685 12.43685 12.82855
#
# Poissons Ratio (x) = -0.51290 0.76119
# Poissons Ratio (y) = -0.51290 0.76119
# Poissons Ratio (z) = 0.73794 0.73794
#
# Static dielectric constant tensor:
#      x y z
#    x 1.748470 0.000000 0.000000 
#    y 0.000000 1.748470 0.000000 
#    z 0.000000 0.000000 1.739860 
# 
# From -- ./inp_files/7930.got.cif
#   From: 2010.05.17/outbox.ucp.g08.bks.cvg/sg91_4_cif.got.tgz:7930.got - 2010.06.11 10:36:11.
