data_PCOD9548908
_publ_section_title
;
Structure prediction by ZEFSAII (Michael W. Deem and Ramdas Pophale) SiO2 
 PCOD9548908
Probable space group: P 41 21 2
;
_chemical_formula_sum "Si O2"
_cell_formula_units_Z 44
_cell_length_a 9.114697
_cell_length_b 9.114697
_cell_length_c 25.899389
_cell_angle_alpha 90.000000
_cell_angle_beta 90.000000
_cell_angle_gamma 90.000000
_cell_volume 2151.661706
_symmetry_space_group_name_H-M "P 41 21 2"
_symmetry_group_IT_number 92
_symmetry_cell_setting 'tetragonal'
loop_
_space_group_symop_operation_xyz
x,y,z
1/2-y,1/2+x,1/4+z
-x,-y,1/2+z
1/2+y,1/2-x,3/4+z
1/2+x,1/2-y,3/4-z
1/2-x,1/2+y,1/4-z
y,x,-z
-y,-x,1/2-z
loop_
_atom_site_type_symbol
_atom_site_label
_atom_site_fract_x
_atom_site_fract_y
_atom_site_fract_z
Si Si1 0.700412 0.149752 0.416875
Si Si2 0.839120 0.400745 0.490108
Si Si3 0.009617 0.880331 0.858445
Si Si4 0.299578 0.058945 0.011458
Si Si5 0.365268 0.463306 0.795923
Si Si6 0.967372 0.032629 0.750000
O O1 0.777971 0.281821 0.449575
O O2 0.553499 0.215631 0.393062
O O3 0.673889 0.019959 0.456732
O O4 0.824492 0.105438 0.376832
O O5 0.698540 0.484914 0.513918
O O6 0.921571 0.539220 0.464930
O O7 0.931609 0.302944 0.530523
O O8 0.904601 0.963698 0.899561
O O9 0.001604 0.940851 0.800888
O O10 0.191100 0.952529 0.042903
O O11 0.205536 0.205536 0.000000
O O12 0.437397 0.562604 0.750000
#
# Coordination Sequence:
#
# PCOD9548908 Si02
#       6
#     8   8   8   8   8   4
#     4  10  23  41  65  93 129 170 214 268 322 393
#     4  10  20  41  65  97 125 167 214 273 327 384
#     4  11  22  46  61  96 136 170 217 272 329 398
#     4  10  18  39  69  89 126 165 215 269 323 382
#     4  10  20  42  69  92 129 174 215 268 325 397
#     4  10  24  42  62  94 144 158 214 284 322 390
#
# _framework density 20.449311000000002
#
# number of rings (size 3 to 8) (size 9 to 14) (size 15 to 20)
#    0.000    1.818    6.364    0.000    2.545    0.000 
#   21.273    0.000    0.000    0.000    0.000    0.000 
#    0.000    0.000    0.000    0.000    0.000    0.000 
#
# Total GULP energy -245295.869785 kJ/mol
# GULP energy per Si atom -5574.906131 kJ/mol
# Density = 2.040277 g / cm^3
# Si number density = 20.449311 Si / 1000 Ang^3
#
#
#
# Elastic Constant Matrix: (Units=GPa)
#
#
# Indices 1 2 3 4 5 6 
#
# 1 81.8174 12.5093 6.8891 0.0000 0.0000 0.0000
# 2 12.5093 81.8182 6.8891 0.0000 0.0000 0.0000
# 3 6.8891 6.8891 70.4267 0.0000 0.0000 0.0000
# 4 0.0000 0.0000 0.0000 12.1350 0.0000 0.0000
# 5 0.0000 0.0000 0.0000 0.0000 12.1351 0.0000
# 6 0.0000 0.0000 0.0000 0.0000 0.0000 28.7405
#
#
#
# Elastic Compliance Matrix: (Units=1/GPa)
#
#
# Indices 1 2 3 4 5 6 
#
# 1 0.012592 -0.001837 -0.001052 0.000000 0.000000 0.000000
# 2 -0.001837 0.012592 -0.001052 0.000000 0.000000 0.000000
# 3 -0.001052 -0.001052 0.014405 0.000000 0.000000 0.000000
# 4 0.000000 0.000000 0.000000 0.082406 0.000000 0.000000
# 5 0.000000 0.000000 0.000000 0.000000 0.082406 0.000000
# 6 0.000000 0.000000 0.000000 0.000000 0.000000 0.034794
#
#
# Mechanical properties :
#
#
# Convention : Reuss Voigt Hill
#
# Bulk Modulus (GPa) = 31.53886 31.84859 31.69372
# Shear Modulus (GPa) = 19.40655 24.45375 21.93015
#
# Velocity S-wave (km/s) = 3.08394 3.46182 3.27833
# Velocity P-wave (km/s) = 5.30446 5.62024 5.46463
#
# Compressibility (1/GPa) = 0.03170692
#
# Stress axis : x y z
#
# Youngs Moduli (GPa) = 79.41724 79.41797 69.42041
#
# Poissons Ratio (x) = 0.14586 0.07303
# Poissons Ratio (y) = 0.14586 0.07303
# Poissons Ratio (z) = 0.08355 0.08355
#
# Static dielectric constant tensor:
#      x y z
#    x 1.780510 0.000000 0.000000 
#    y 0.000000 1.780510 0.000000 
#    z 0.000000 0.000000 1.719110 
# 
# From -- ./inp_files/4391.got.cif
#   From: 2010.05.17/outbox.cif.g08.bks.cpg/sg92_3_cif.got.tgz:4391.got - 2010.06.03 19:35:17.
