data_PCOD9548457
_publ_section_title
;
Structure prediction by ZEFSAII (Michael W. Deem and Ramdas Pophale) SiO2 
 PCOD9548457
Probable space group: P 41 2 2
;
_chemical_formula_sum "Si O2"
_cell_formula_units_Z 40
_cell_length_a 11.657838
_cell_length_b 11.657838
_cell_length_c 13.972571
_cell_angle_alpha 90.000000
_cell_angle_beta 90.000000
_cell_angle_gamma 90.000000
_cell_volume 1898.944872
_symmetry_space_group_name_H-M "P 41 2 2"
_symmetry_group_IT_number 91
_symmetry_cell_setting 'tetragonal'
loop_
_space_group_symop_operation_xyz
x,y,z
-y,x,1/4+z
-x,-y,1/2+z
y,-x,3/4+z
x,-y,1/2-z
-x,y,-z
y,x,3/4-z
-y,-x,1/4-z
loop_
_atom_site_type_symbol
_atom_site_label
_atom_site_fract_x
_atom_site_fract_y
_atom_site_fract_z
Si Si1 0.152634 0.836260 0.826809
Si Si2 0.092766 0.907235 0.625000
Si Si3 0.347366 0.336260 0.673191
Si Si4 0.592765 0.407236 0.125000
Si Si5 0.246074 0.437454 0.353504
Si Si6 0.746074 0.937454 0.853504
O O1 0.167089 0.872765 0.716971
O O2 0.250000 0.750000 0.865677
O O3 0.040308 0.758766 0.823662
O O4 0.117651 0.954424 0.882794
O O5 0.382350 0.454424 0.617205
O O6 0.332911 0.372766 0.783029
O O7 0.459692 0.258765 0.676339
O O8 0.250550 0.500000 0.250000
O O9 0.349858 0.349858 0.375000
O O10 0.132133 0.367867 0.375000
O O11 0.849858 0.849858 0.875000
O O12 0.750550 0.000000 0.750000
#
# Coordination Sequence:
#
# PCOD9548457 Si02
#       6
#     8   4   8   4   8   8
#     4  11  23  42  70  91 136 176 228 281 351 421
#     4  10  23  44  61 100 128 180 229 272 350 432
#     4  11  23  42  70  91 136 176 228 281 351 421
#     4  10  23  44  61 100 128 180 229 272 350 432
#     4  11  25  44  71 105 140 185 242 299 361 436
#     4  11  25  44  71 105 140 185 242 299 361 436
#
# _framework density 21.064328
#
# number of rings (size 3 to 8) (size 9 to 14) (size 15 to 20)
#    0.000    1.200    2.000    3.000   11.200    0.000 
#    7.200    0.000    0.000    0.000    0.000    0.000 
#    0.000    0.000    0.000    0.000    0.000    0.000 
#
# Total GULP energy -222824.467227 kJ/mol
# GULP energy per Si atom -5570.611681 kJ/mol
# Density = 2.101638 g / cm^3
# Si number density = 21.064328 Si / 1000 Ang^3
#
#
#
# Elastic Constant Matrix: (Units=GPa)
#
#
# Indices 1 2 3 4 5 6 
#
# 1 112.4142 65.0588 -0.6162 0.0000 0.0000 0.0000
# 2 65.0588 112.4148 -0.6163 0.0000 0.0000 0.0000
# 3 -0.6162 -0.6163 70.0227 0.0000 0.0000 0.0000
# 4 0.0000 0.0000 0.0000 25.8660 0.0000 0.0000
# 5 0.0000 0.0000 0.0000 0.0000 25.8658 0.0000
# 6 0.0000 0.0000 0.0000 0.0000 0.0000 35.7433
#
#
#
# Elastic Compliance Matrix: (Units=1/GPa)
#
#
# Indices 1 2 3 4 5 6 
#
# 1 0.013376 -0.007741 0.000050 0.000000 0.000000 0.000000
# 2 -0.007741 0.013376 0.000050 0.000000 0.000000 0.000000
# 3 0.000050 0.000050 0.014282 0.000000 0.000000 0.000000
# 4 0.000000 0.000000 0.000000 0.038661 0.000000 0.000000
# 5 0.000000 0.000000 0.000000 0.000000 0.038661 0.000000
# 6 0.000000 0.000000 0.000000 0.000000 0.000000 0.027977
#
#
# Mechanical properties :
#
#
# Convention : Reuss Voigt Hill
#
# Bulk Modulus (GPa) = 38.83445 46.94491 42.88968
# Shear Modulus (GPa) = 29.37724 32.89671 31.13698
#
# Velocity S-wave (km/s) = 3.73854 3.95616 3.84889
# Velocity P-wave (km/s) = 6.09194 6.57290 6.33699
#
# Compressibility (1/GPa) = 0.02575033
#
# Stress axis : x y z
#
# Youngs Moduli (GPa) = 74.76123 74.76163 70.01839
#
# Poissons Ratio (x) = 0.57872 -0.00347
# Poissons Ratio (y) = 0.57872 -0.00347
# Poissons Ratio (z) = -0.00371 -0.00371
#
# Static dielectric constant tensor:
#      x y z
#    x 1.843250 0.000000 0.000000 
#    y 0.000000 1.843240 0.000000 
#    z 0.000000 0.000000 1.976270 
# 
# From -- ./inp_files/4827.got.cif
#   From: 2010.05.17/outbox.cif.g08.bks.cpg/sg91_3_cif.got.tgz:4827.got - 2010.06.03 19:20:03.
