data_PCOD9548661
_publ_section_title
;
Structure prediction by ZEFSAII (Michael W. Deem and Ramdas Pophale) SiO2 
 PCOD9548661
Probable space group: P 41 2 2
;
_chemical_formula_sum "Si O2"
_cell_formula_units_Z 48
_cell_length_a 11.467306
_cell_length_b 11.467306
_cell_length_c 19.179277
_cell_angle_alpha 90.000000
_cell_angle_beta 90.000000
_cell_angle_gamma 90.000000
_cell_volume 2522.057796
_symmetry_space_group_name_H-M "P 41 2 2"
_symmetry_group_IT_number 91
_symmetry_cell_setting 'tetragonal'
loop_
_space_group_symop_operation_xyz
x,y,z
-y,x,1/4+z
-x,-y,1/2+z
y,-x,3/4+z
x,-y,1/2-z
-x,y,-z
y,x,3/4-z
-y,-x,1/4-z
loop_
_atom_site_type_symbol
_atom_site_label
_atom_site_fract_x
_atom_site_fract_y
_atom_site_fract_z
Si Si1 0.213393 0.983096 0.330065
Si Si2 0.472057 0.381161 0.578141
Si Si3 0.587394 0.790373 0.692180
Si Si4 0.025779 0.415636 0.917604
Si Si5 0.012709 0.145825 0.083512
Si Si6 0.405636 0.834923 0.144808
O O1 0.315900 0.888359 0.322149
O O2 0.119960 0.927810 0.383150
O O3 0.167258 0.000000 0.250000
O O4 0.279746 0.100684 0.355963
O O5 0.500000 0.413483 0.500000
O O6 0.513228 0.486773 0.625000
O O7 0.333308 0.368025 0.585426
O O8 0.553962 0.270363 0.596090
O O9 0.466692 0.842987 0.660553
O O10 0.576857 0.787410 0.776284
O O11 0.989990 0.283935 0.901524
O O12 0.937581 0.502395 0.879802
O O13 0.000000 0.431229 0.000000
O O14 0.902993 0.097008 0.125000
O O15 0.000000 0.130272 0.000000
#
# Coordination Sequence:
#
# PCOD9548661 Si02
#       6
#     8   8   8   8   8   8
#     4   9  19  38  64  89 115 158 202 252 304 361
#     4  12  23  36  55  89 125 158 197 248 305 367
#     4   9  18  37  63  84 113 153 202 247 296 356
#     4   8  17  35  61  81 105 151 198 242 296 358
#     4  11  22  37  55  84 119 155 194 243 304 366
#     4   9  18  37  59  86 114 150 202 248 301 352
#
# _framework density 19.032077999999998
#
# number of rings (size 3 to 8) (size 9 to 14) (size 15 to 20)
#    0.000    2.333    1.667    3.500    0.000    1.333 
#    6.000    0.000    0.000    0.000    0.000    0.000 
#    0.000    0.000    0.000    0.000    0.000    0.000 
#
# Total GULP energy -267282.731857 kJ/mol
# GULP energy per Si atom -5568.390247 kJ/mol
# Density = 1.898876 g / cm^3
# Si number density = 19.032078 Si / 1000 Ang^3
#
#
#
# Elastic Constant Matrix: (Units=GPa)
#
#
# Indices 1 2 3 4 5 6 
#
# 1 92.3379 45.6253 40.4412 0.0000 0.0000 0.0000
# 2 45.6253 92.3356 40.4411 0.0000 0.0000 0.0000
# 3 40.4412 40.4411 82.5979 0.0000 0.0000 0.0000
# 4 0.0000 0.0000 0.0000 20.8661 0.0000 0.0000
# 5 0.0000 0.0000 0.0000 0.0000 20.8668 0.0000
# 6 0.0000 0.0000 0.0000 0.0000 0.0000 21.8698
#
#
#
# Elastic Compliance Matrix: (Units=1/GPa)
#
#
# Indices 1 2 3 4 5 6 
#
# 1 0.015787 -0.005621 -0.004978 0.000000 0.000000 0.000000
# 2 -0.005621 0.015788 -0.004978 0.000000 0.000000 0.000000
# 3 -0.004978 -0.004978 0.016981 0.000000 0.000000 0.000000
# 4 0.000000 0.000000 0.000000 0.047925 0.000000 0.000000
# 5 0.000000 0.000000 0.000000 0.000000 0.047923 0.000000
# 6 0.000000 0.000000 0.000000 0.000000 0.000000 0.045725
#
#
# Mechanical properties :
#
#
# Convention : Reuss Voigt Hill
#
# Bulk Modulus (GPa) = 57.45961 57.80961 57.63461
# Shear Modulus (GPa) = 22.01848 22.10481 22.06164
#
# Velocity S-wave (km/s) = 3.40503 3.41170 3.40837
# Velocity P-wave (km/s) = 6.76132 6.77941 6.77037
#
# Compressibility (1/GPa) = 0.01740353
#
# Stress axis : x y z
#
# Youngs Moduli (GPa) = 63.34292 63.34098 58.88864
#
# Poissons Ratio (x) = 0.35602 0.29313
# Poissons Ratio (y) = 0.35603 0.29314
# Poissons Ratio (z) = 0.31530 0.31530
#
# Static dielectric constant tensor:
#      x y z
#    x 1.712460 0.000000 0.000000 
#    y 0.000000 1.712470 0.000000 
#    z 0.000000 0.000000 1.667130 
# 
# From -- ./inp_files/11928.got.cif
#   From: 2010.05.17/outbox.cif.g08.bks.cpg/sg91_6_cif.got.tgz:11928.got - 2010.06.03 19:20:03.
