data_PCOD9548200
_publ_section_title
;
Structure prediction by ZEFSAII (Michael W. Deem and Ramdas Pophale) SiO2 
 PCOD9548200
Probable space group: P 41 2 2
;
_chemical_formula_sum "Si O2"
_cell_formula_units_Z 40
_cell_length_a 18.332879
_cell_length_b 18.332879
_cell_length_c 5.788975
_cell_angle_alpha 90.000000
_cell_angle_beta 90.000000
_cell_angle_gamma 90.000000
_cell_volume 1945.642383
_symmetry_space_group_name_H-M "P 41 2 2"
_symmetry_group_IT_number 91
_symmetry_cell_setting 'tetragonal'
loop_
_space_group_symop_operation_xyz
x,y,z
-y,x,1/4+z
-x,-y,1/2+z
y,-x,3/4+z
x,-y,1/2-z
-x,y,-z
y,x,3/4-z
-y,-x,1/4-z
loop_
_atom_site_type_symbol
_atom_site_label
_atom_site_fract_x
_atom_site_fract_y
_atom_site_fract_z
Si Si1 0.695798 0.426214 0.140682
Si Si2 0.837576 0.000000 0.250000
Si Si3 0.129848 0.772272 0.764439
Si Si4 0.609632 0.844882 0.641569
Si Si5 0.500000 0.040890 0.000000
Si Si6 0.899554 0.899554 0.875000
Si Si7 0.209015 0.500000 0.250000
O O1 0.663446 0.500000 0.250000
O O2 0.635903 0.364098 0.125000
O O3 0.763133 0.399386 0.296524
O O4 0.737236 0.452978 0.911479
O O5 0.785023 0.934792 0.330788
O O6 0.887783 0.030331 0.460143
O O7 0.202328 0.797673 0.625000
O O8 0.136774 0.694452 0.884579
O O9 0.108464 0.830747 0.957146
O O10 0.569355 0.904896 0.485430
O O11 0.559861 0.840763 0.870659
O O12 0.494848 0.000000 0.250000
#
# Coordination Sequence:
#
# PCOD9548200 Si02
#       7
#     8   4   8   8   4   4   4
#     4  10  22  41  65  97 134 177 229 284 346 418
#     4  10  22  42  70  94 138 168 224 286 338 416
#     4  10  23  41  69  98 131 170 226 285 340 411
#     4  11  23  43  66  98 131 182 227 285 343 420
#     4  12  27  44  68 101 142 186 232 286 359 430
#     4  10  22  44  66 100 130 176 218 286 342 416
#     4  10  21  42  68  89 144 172 230 288 341 424
#
# _framework density 20.558762000000002
#
# number of rings (size 3 to 8) (size 9 to 14) (size 15 to 20)
#    0.000    1.600    3.000    1.800    1.400    9.600 
#    1.800    0.000   79.200    0.000    0.000    0.000 
#    0.000    0.000    0.000    0.000    0.000    0.000 
#
# Total GULP energy -223096.042917 kJ/mol
# GULP energy per Si atom -5577.401073 kJ/mol
# Density = 2.051197 g / cm^3
# Si number density = 20.558762 Si / 1000 Ang^3
#
#
#
# Elastic Constant Matrix: (Units=GPa)
#
#
# Indices 1 2 3 4 5 6 
#
# 1 128.2872 55.3541 38.0379 0.0000 0.0000 0.0000
# 2 55.3541 128.2936 38.0384 0.0000 0.0000 0.0000
# 3 38.0379 38.0384 87.6506 0.0000 0.0000 0.0000
# 4 0.0000 0.0000 0.0000 15.6706 0.0000 0.0000
# 5 0.0000 0.0000 0.0000 0.0000 15.6509 0.0000
# 6 0.0000 0.0000 0.0000 0.0000 0.0000 21.6975
#
#
#
# Elastic Compliance Matrix: (Units=1/GPa)
#
#
# Indices 1 2 3 4 5 6 
#
# 1 0.010175 -0.003536 -0.002881 0.000000 0.000000 0.000000
# 2 -0.003536 0.010174 -0.002881 0.000000 0.000000 0.000000
# 3 -0.002881 -0.002881 0.013910 0.000000 0.000000 0.000000
# 4 0.000000 0.000000 0.000000 0.063814 0.000000 0.000000
# 5 0.000000 0.000000 0.000000 0.000000 0.063894 0.000000
# 6 0.000000 0.000000 0.000000 0.000000 0.000000 0.046088
#
#
# Mechanical properties :
#
#
# Convention : Reuss Voigt Hill
#
# Bulk Modulus (GPa) = 63.84521 67.45470 65.64995
# Shear Modulus (GPa) = 21.56359 24.79052 23.17706
#
# Velocity S-wave (km/s) = 3.24215 3.47628 3.36126
# Velocity P-wave (km/s) = 6.71847 6.99962 6.86048
#
# Compressibility (1/GPa) = 0.01566288
#
# Stress axis : x y z
#
# Youngs Moduli (GPa) = 98.28036 98.28551 71.89295
#
# Poissons Ratio (x) = 0.34753 0.20713
# Poissons Ratio (y) = 0.34751 0.20712
# Poissons Ratio (z) = 0.28316 0.28316
#
# Static dielectric constant tensor:
#      x y z
#    x 1.727290 0.000000 0.000000 
#    y 0.000000 1.727290 0.000000 
#    z 0.000000 0.000000 1.826370 
# 
# From -- ./inp_files/8636.got.cif
#   From: 2010.05.17/outbox.cif.g08.bks.cpg/sg91_5_cif.got.tgz:8636.got - 2010.06.03 19:20:03.
