data_PCOD9548620
_publ_section_title
;
Structure prediction by ZEFSAII (Michael W. Deem and Ramdas Pophale) SiO2 
 PCOD9548620
Probable space group: P 41 2 2
;
_chemical_formula_sum "Si O2"
_cell_formula_units_Z 48
_cell_length_a 19.235799
_cell_length_b 19.235799
_cell_length_c 9.864119
_cell_angle_alpha 90.000000
_cell_angle_beta 90.000000
_cell_angle_gamma 90.000000
_cell_volume 3649.881493
_symmetry_space_group_name_H-M "P 41 2 2"
_symmetry_group_IT_number 91
_symmetry_cell_setting 'tetragonal'
loop_
_space_group_symop_operation_xyz
x,y,z
-y,x,1/4+z
-x,-y,1/2+z
y,-x,3/4+z
x,-y,1/2-z
-x,y,-z
y,x,3/4-z
-y,-x,1/4-z
loop_
_atom_site_type_symbol
_atom_site_label
_atom_site_fract_x
_atom_site_fract_y
_atom_site_fract_z
Si Si1 0.565754 0.083356 0.406933
Si Si2 0.154933 0.900242 0.485183
Si Si3 0.434918 0.086064 0.906722
Si Si4 0.920194 0.692831 0.843502
Si Si5 0.149414 0.932960 0.015256
Si Si6 0.911132 0.310755 0.350062
O O1 0.500000 0.104040 0.500000
O O2 0.561211 0.107624 0.250844
O O3 0.637415 0.103947 0.481612
O O4 0.565420 0.998656 0.403671
O O5 0.135974 0.864027 0.625000
O O6 0.101641 0.871686 0.374888
O O7 0.233775 0.886957 0.438403
O O8 0.148421 0.983860 0.494115
O O9 0.500000 0.106722 0.000000
O O10 0.366595 0.110415 0.987567
O O11 0.907687 0.773485 0.808715
O O12 0.004418 0.688142 0.848292
O O13 0.892557 0.674217 0.993408
O O14 0.094666 0.905335 0.125000
#
# Coordination Sequence:
#
# PCOD9548620 Si02
#       6
#     8   8   8   8   8   8
#     4   9  16  25  40  61  79  97 118 140 175 230
#     4  11  23  33  45  60  76  98 132 177 221 262
#     4   9  16  25  40  60  81  98 114 140 179 230
#     4   9  17  29  44  56  74  98 123 154 193 244
#     4  11  21  35  47  58  74 100 134 173 222 261
#     4   9  17  30  42  56  76  98 121 153 198 242
#
# _framework density 13.151113
#
# number of rings (size 3 to 8) (size 9 to 14) (size 15 to 20)
#    0.000    2.333    1.667    2.000    2.333    6.000 
#    0.000    0.000    0.000    0.000    0.000    0.000 
#    0.000    0.000    0.000    0.000    0.000    0.000 
#
# Total GULP energy -267383.188641 kJ/mol
# GULP energy per Si atom -5570.483097 kJ/mol
# Density = 1.312118 g / cm^3
# Si number density = 13.151113 Si / 1000 Ang^3
#
#
#
# Elastic Constant Matrix: (Units=GPa)
#
#
# Indices 1 2 3 4 5 6 
#
# 1 42.8085 8.7198 29.1746 0.0000 0.0000 0.0000
# 2 8.7198 42.8094 29.1754 0.0000 0.0000 0.0000
# 3 29.1746 29.1754 135.9547 0.0000 0.0000 0.0000
# 4 0.0000 0.0000 0.0000 14.1678 0.0000 0.0000
# 5 0.0000 0.0000 0.0000 0.0000 14.1685 0.0000
# 6 0.0000 0.0000 0.0000 0.0000 0.0000 3.4551
#
#
#
# Elastic Compliance Matrix: (Units=1/GPa)
#
#
# Indices 1 2 3 4 5 6 
#
# 1 0.027486 -0.001849 -0.005501 0.000000 0.000000 0.000000
# 2 -0.001849 0.027485 -0.005501 0.000000 0.000000 0.000000
# 3 -0.005501 -0.005501 0.009717 0.000000 0.000000 0.000000
# 4 0.000000 0.000000 0.000000 0.070583 0.000000 0.000000
# 5 0.000000 0.000000 0.000000 0.000000 0.070579 0.000000
# 6 0.000000 0.000000 0.000000 0.000000 0.000000 0.289423
#
#
# Mechanical properties :
#
#
# Convention : Reuss Voigt Hill
#
# Bulk Modulus (GPa) = 25.65186 39.52359 32.58773
# Shear Modulus (GPa) = 9.36381 16.65849 13.01115
#
# Velocity S-wave (km/s) = 2.67126 3.56293 3.14882
# Velocity P-wave (km/s) = 5.39092 6.85891 6.16874
#
# Compressibility (1/GPa) = 0.03898353
#
# Stress axis : x y z
#
# Youngs Moduli (GPa) = 36.38249 36.38305 102.91756
#
# Poissons Ratio (x) = 0.06728 0.56618
# Poissons Ratio (y) = 0.06728 0.56619
# Poissons Ratio (z) = 0.20015 0.20016
#
# Static dielectric constant tensor:
#      x y z
#    x 1.412810 0.000000 0.000000 
#    y 0.000000 1.412820 0.000000 
#    z 0.000000 0.000000 1.433630 
# 
# From -- ./inp_files/15334.got.cif
#   From: 2010.05.17/outbox.cif.g08.bks.cpg/sg91_8_cif.got.tgz:15334.got - 2010.06.03 19:20:03.
