data_PCOD9548441
_publ_section_title
;
Structure prediction by ZEFSAII (Michael W. Deem and Ramdas Pophale) SiO2 
 PCOD9548441
Probable space group: P 41 2 2
;
_chemical_formula_sum "Si O2"
_cell_formula_units_Z 56
_cell_length_a 15.083787
_cell_length_b 15.083787
_cell_length_c 10.414267
_cell_angle_alpha 90.000000
_cell_angle_beta 90.000000
_cell_angle_gamma 90.000000
_cell_volume 2369.460592
_symmetry_space_group_name_H-M "P 41 2 2"
_symmetry_group_IT_number 91
_symmetry_cell_setting 'tetragonal'
loop_
_space_group_symop_operation_xyz
x,y,z
-y,x,1/4+z
-x,-y,1/2+z
y,-x,3/4+z
x,-y,1/2-z
-x,y,-z
y,x,3/4-z
-y,-x,1/4-z
loop_
_atom_site_type_symbol
_atom_site_label
_atom_site_fract_x
_atom_site_fract_y
_atom_site_fract_z
Si Si1 0.432884 0.432884 0.375000
Si Si2 0.765156 0.970777 0.565607
Si Si3 0.212398 0.772519 0.927638
Si Si4 0.052802 0.052802 0.375000
Si Si5 0.547232 0.102793 0.253436
Si Si6 0.120425 0.636821 0.218295
Si Si7 0.578066 0.760006 0.742545
Si Si8 0.137635 0.739965 0.574474
O O1 0.500000 0.443702 0.500000
O O2 0.441132 0.333291 0.313517
O O3 0.761004 0.892727 0.670665
O O4 0.785881 0.925641 0.427735
O O5 0.845493 0.034257 0.597433
O O6 0.674143 0.023500 0.556876
O O7 0.278415 0.813923 0.030003
O O8 0.226717 0.849732 0.819577
O O9 0.246308 0.670395 0.915499
O O10 0.000000 0.024107 0.500000
O O11 0.582483 0.124235 0.399674
O O12 0.502388 0.187326 0.178076
O O13 0.641978 0.101411 0.180291
O O14 0.512212 0.000000 0.250000
O O15 0.161135 0.586037 0.098949
O O16 0.237264 0.762737 0.625000
#
# Coordination Sequence:
#
# PCOD9548441 Si02
#       8
#     4   8   8   4   8   8   8   8
#     4  12  28  57  90 124 159 212 264 348 424 506
#     4  11  24  43  64 102 148 199 261 325 374 464
#     4  10  23  41  69 101 138 201 252 309 392 469
#     4  12  30  45  68 106 147 206 278 338 392 452
#     4  11  23  43  70 109 143 198 250 315 399 493
#     4  11  22  42  70  97 145 194 245 308 398 467
#     4  12  26  46  77 109 154 194 261 327 410 489
#     4   9  21  45  69  98 145 197 248 313 388 463
#
# _framework density 23.634070999999999
#
# number of rings (size 3 to 8) (size 9 to 14) (size 15 to 20)
#    0.000    1.143    2.857    2.143   11.000    0.000 
#    1.286    2.857    0.000    0.000    0.000    0.000 
#    0.000    0.000    0.000    0.000    0.000    0.000 
#
# Total GULP energy -311856.782572 kJ/mol
# GULP energy per Si atom -5568.871117 kJ/mol
# Density = 2.358028 g / cm^3
# Si number density = 23.634071 Si / 1000 Ang^3
#
#
#
# Elastic Constant Matrix: (Units=GPa)
#
#
# Indices 1 2 3 4 5 6 
#
# 1 105.4417 11.0155 0.9940 0.0000 0.0000 0.0000
# 2 11.0155 105.4422 0.9935 0.0000 0.0000 0.0000
# 3 0.9940 0.9935 62.5216 0.0000 0.0000 0.0000
# 4 0.0000 0.0000 0.0000 32.4690 0.0000 0.0000
# 5 0.0000 0.0000 0.0000 0.0000 32.4690 0.0000
# 6 0.0000 0.0000 0.0000 0.0000 0.0000 37.9067
#
#
#
# Elastic Compliance Matrix: (Units=1/GPa)
#
#
# Indices 1 2 3 4 5 6 
#
# 1 0.009590 -0.001001 -0.000137 0.000000 0.000000 0.000000
# 2 -0.001001 0.009590 -0.000136 0.000000 0.000000 0.000000
# 3 -0.000137 -0.000136 0.015999 0.000000 0.000000 0.000000
# 4 0.000000 0.000000 0.000000 0.030799 0.000000 0.000000
# 5 0.000000 0.000000 0.000000 0.000000 0.030799 0.000000
# 6 0.000000 0.000000 0.000000 0.000000 0.000000 0.026381
#
#
# Mechanical properties :
#
#
# Convention : Reuss Voigt Hill
#
# Bulk Modulus (GPa) = 30.64567 33.26796 31.95681
# Shear Modulus (GPa) = 36.60853 37.92911 37.26882
#
# Velocity S-wave (km/s) = 3.93997 4.01040 3.97534
# Velocity P-wave (km/s) = 5.80454 5.96249 5.88404
#
# Compressibility (1/GPa) = 0.03263104
#
# Stress axis : x y z
#
# Youngs Moduli (GPa) = 104.27826 104.27878 62.50462
#
# Poissons Ratio (x) = 0.10434 0.00854
# Poissons Ratio (y) = 0.10434 0.00853
# Poissons Ratio (z) = 0.01424 0.01423
#
# Static dielectric constant tensor:
#      x y z
#    x 1.293710 0.000000 0.000000 
#    y 0.000000 1.293700 0.000000 
#    z 0.000000 0.000000 2.009270 
# 
# From -- ./inp_files/20367.got.cif
#   From: 2010.05.17/outbox.cif.g08.bks.cpg/sg91_11_cif.got.tgz:20367.got - 2010.06.03 19:20:03.
