data_PCOD9548370
_publ_section_title
;
Structure prediction by ZEFSAII (Michael W. Deem and Ramdas Pophale) SiO2 
 PCOD9548370
Probable space group: P 41 2 2
;
_chemical_formula_sum "Si O2"
_cell_formula_units_Z 44
_cell_length_a 9.449299
_cell_length_b 9.449299
_cell_length_c 25.805393
_cell_angle_alpha 90.000000
_cell_angle_beta 90.000000
_cell_angle_gamma 90.000000
_cell_volume 2304.144228
_symmetry_space_group_name_H-M "P 41 2 2"
_symmetry_group_IT_number 91
_symmetry_cell_setting 'tetragonal'
loop_
_space_group_symop_operation_xyz
x,y,z
-y,x,1/4+z
-x,-y,1/2+z
y,-x,3/4+z
x,-y,1/2-z
-x,y,-z
y,x,3/4-z
-y,-x,1/4-z
loop_
_atom_site_type_symbol
_atom_site_label
_atom_site_fract_x
_atom_site_fract_y
_atom_site_fract_z
Si Si1 0.162507 0.781338 0.016423
Si Si2 0.027809 0.375273 0.707695
Si Si3 0.787956 0.517760 0.046807
Si Si4 0.542735 0.913846 0.845481
Si Si5 0.442712 0.557289 0.625000
Si Si6 0.687544 0.359480 0.944954
O O1 0.248030 0.925000 0.024478
O O2 0.157133 0.680091 0.067662
O O3 0.232211 0.679247 0.972741
O O4 0.000000 0.808843 0.000000
O O5 0.021808 0.500000 0.750000
O O6 0.966616 0.424140 0.652507
O O7 0.192331 0.334962 0.699378
O O8 0.706097 0.473922 0.098284
O O9 0.953086 0.506039 0.059128
O O10 0.734518 0.418700 0.000592
O O11 0.409654 0.809805 0.844054
O O12 0.444535 0.447457 0.672592
#
# Coordination Sequence:
#
# PCOD9548370 Si02
#       6
#     8   8   8   8   4   8
#     4   9  22  41  66  92 128 172 215 260 319 390
#     4  12  25  40  64  99 131 158 225 275 314 377
#     4  10  22  43  64  92 132 170 212 258 326 386
#     4  10  23  44  65  90 130 177 207 263 327 390
#     4  12  22  38  66  94 130 158 216 270 322 378
#     4  11  25  40  64  94 126 173 210 263 325 384
#
# _framework density 19.096025000000001
#
# number of rings (size 3 to 8) (size 9 to 14) (size 15 to 20)
#    0.000    1.455    1.818    3.818    7.636    1.455 
#    0.000    0.000    4.000    0.000    0.000    0.000 
#    0.000    0.000    0.000    0.000    0.000    0.000 
#
# Total GULP energy -245553.090355 kJ/mol
# GULP energy per Si atom -5580.752054 kJ/mol
# Density = 1.905256 g / cm^3
# Si number density = 19.096025 Si / 1000 Ang^3
#
#
#
# Elastic Constant Matrix: (Units=GPa)
#
#
# Indices 1 2 3 4 5 6 
#
# 1 99.7971 82.5248 38.4376 0.0000 0.0000 0.0000
# 2 82.5248 99.7970 38.4359 0.0000 0.0000 0.0000
# 3 38.4376 38.4359 60.2707 0.0000 0.0000 0.0000
# 4 0.0000 0.0000 0.0000 21.9076 0.0000 0.0000
# 5 0.0000 0.0000 0.0000 0.0000 21.9060 0.0000
# 6 0.0000 0.0000 0.0000 0.0000 0.0000 21.8137
#
#
#
# Elastic Compliance Matrix: (Units=1/GPa)
#
#
# Indices 1 2 3 4 5 6 
#
# 1 0.032700 -0.025197 -0.004785 0.000000 0.000000 0.000000
# 2 -0.025197 0.032699 -0.004783 0.000000 0.000000 0.000000
# 3 -0.004785 -0.004783 0.022694 0.000000 0.000000 0.000000
# 4 0.000000 0.000000 0.000000 0.045646 0.000000 0.000000
# 5 0.000000 0.000000 0.000000 0.000000 0.045650 0.000000
# 6 0.000000 0.000000 0.000000 0.000000 0.000000 0.045843
#
#
# Mechanical properties :
#
#
# Convention : Reuss Voigt Hill
#
# Bulk Modulus (GPa) = 53.87676 64.29573 59.08625
# Shear Modulus (GPa) = 16.61411 19.82323 18.21867
#
# Velocity S-wave (km/s) = 2.95283 3.22542 3.09213
# Velocity P-wave (km/s) = 6.31668 6.90028 6.61492
#
# Compressibility (1/GPa) = 0.01856088
#
# Stress axis : x y z
#
# Youngs Moduli (GPa) = 30.58150 30.58235 44.06434
#
# Poissons Ratio (x) = 0.77058 0.21087
# Poissons Ratio (y) = 0.77056 0.21077
# Poissons Ratio (z) = 0.14635 0.14628
#
# Static dielectric constant tensor:
#      x y z
#    x 1.674180 0.000000 0.000000 
#    y 0.000000 1.674180 0.000000 
#    z 0.000000 0.000000 1.621990 
# 
# From -- ./inp_files/18064.got.cif
#   From: 2010.05.17/outbox.cif.g08.bks.cpg/sg91_10_cif.got.tgz:18064.got - 2010.06.03 19:20:03.
