data_PCOD9548913
_publ_section_title
;
Structure prediction by ZEFSAII (Michael W. Deem and Ramdas Pophale) SiO2 
 PCOD9548913
Probable space group: P 41 21 2
;
_chemical_formula_sum "Si O2"
_cell_formula_units_Z 44
_cell_length_a 8.931085
_cell_length_b 8.931085
_cell_length_c 27.112298
_cell_angle_alpha 90.000000
_cell_angle_beta 90.000000
_cell_angle_gamma 90.000000
_cell_volume 2162.592910
_symmetry_space_group_name_H-M "P 41 21 2"
_symmetry_group_IT_number 92
_symmetry_cell_setting 'tetragonal'
loop_
_space_group_symop_operation_xyz
x,y,z
1/2-y,1/2+x,1/4+z
-x,-y,1/2+z
1/2+y,1/2-x,3/4+z
1/2+x,1/2-y,3/4-z
1/2-x,1/2+y,1/4-z
y,x,-z
-y,-x,1/2-z
loop_
_atom_site_type_symbol
_atom_site_label
_atom_site_fract_x
_atom_site_fract_y
_atom_site_fract_z
Si Si1 0.859861 0.453272 0.269937
Si Si2 0.148270 0.783876 0.857753
Si Si3 0.439596 0.043308 0.586165
Si Si4 0.838471 0.360228 0.605801
Si Si5 0.517732 0.482269 0.250000
Si Si6 0.562302 0.512658 0.638583
O O1 0.848365 0.312364 0.307109
O O2 0.953901 0.423762 0.221518
O O3 0.909283 0.590371 0.303889
O O4 0.696853 0.498227 0.249809
O O5 0.308355 0.867598 0.861121
O O6 0.099172 0.666359 0.899923
O O7 0.014966 0.903464 0.862610
O O8 0.594879 0.982086 0.606303
O O9 0.665605 0.392780 0.610950
O O10 0.887192 0.187187 0.614342
O O11 0.452274 0.529757 0.196987
#
# Coordination Sequence:
#
# PCOD9548913 Si02
#       6
#     8   8   8   8   4   8
#     4  10  19  39  65  94 122 165 219 262 317 399
#     4  11  20  36  69  92 128 166 222 272 319 398
#     4  11  20  39  61  98 126 169 214 271 325 391
#     4  10  24  41  63  91 134 169 216 274 330 395
#     4  10  18  40  70  84 124 172 216 248 328 402
#     4  11  22  44  63  94 128 175 216 275 333 398
#
# _framework density 20.345948
#
# number of rings (size 3 to 8) (size 9 to 14) (size 15 to 20)
#    0.000    1.455    3.636    3.273    0.000    0.000 
#    9.818   10.909    0.000    0.000    0.000    0.000 
#    0.000    0.000    0.000    0.000    0.000    0.000 
#
# Total GULP energy -245105.565080 kJ/mol
# GULP energy per Si atom -5570.581025 kJ/mol
# Density = 2.029964 g / cm^3
# Si number density = 20.345948 Si / 1000 Ang^3
#
#
#
# Elastic Constant Matrix: (Units=GPa)
#
#
# Indices 1 2 3 4 5 6 
#
# 1 93.4818 -20.1214 11.8229 0.0000 0.0000 0.0000
# 2 -20.1214 93.4818 11.8216 0.0000 0.0000 0.0000
# 3 11.8229 11.8216 47.9024 0.0000 0.0000 0.0000
# 4 0.0000 0.0000 0.0000 4.9789 0.0000 0.0000
# 5 0.0000 0.0000 0.0000 0.0000 4.9789 0.0000
# 6 0.0000 0.0000 0.0000 0.0000 0.0000 43.3019
#
#
#
# Elastic Compliance Matrix: (Units=1/GPa)
#
#
# Indices 1 2 3 4 5 6 
#
# 1 0.011806 0.003003 -0.003655 0.000000 0.000000 0.000000
# 2 0.003003 0.011806 -0.003655 0.000000 0.000000 0.000000
# 3 -0.003655 -0.003655 0.022680 0.000000 0.000000 0.000000
# 4 0.000000 0.000000 0.000000 0.200849 0.000000 0.000000
# 5 0.000000 0.000000 0.000000 0.000000 0.200848 0.000000
# 6 0.000000 0.000000 0.000000 0.000000 0.000000 0.023094
#
#
# Mechanical properties :
#
#
# Convention : Reuss Voigt Hill
#
# Bulk Modulus (GPa) = 26.54012 26.87914 26.70963
# Shear Modulus (GPa) = 10.15733 26.07478 18.11605
#
# Velocity S-wave (km/s) = 2.23677 3.58379 2.98720
# Velocity P-wave (km/s) = 4.44338 5.51039 5.00540
#
# Compressibility (1/GPa) = 0.03767881
#
# Stress axis : x y z
#
# Youngs Moduli (GPa) = 84.70273 84.70329 44.09196
#
# Poissons Ratio (x) = -0.25440 0.16116
# Poissons Ratio (y) = -0.25440 0.16115
# Poissons Ratio (z) = 0.30959 0.30957
#
# Static dielectric constant tensor:
#      x y z
#    x 1.768590 0.000000 0.000000 
#    y 0.000000 1.768600 0.000000 
#    z 0.000000 0.000000 1.760150 
# 
# From -- ./inp_files/4442.got.cif
#   From: 2010.05.17/outbox.cif.g08.bks.cpg/sg92_3_cif.got.tgz:4442.got - 2010.06.03 19:35:17.
