data_PCOD9548462
_publ_section_title
;
Structure prediction by ZEFSAII (Michael W. Deem and Ramdas Pophale) SiO2 
 PCOD9548462
Probable space group: P 41 2 2
;
_chemical_formula_sum "Si O2"
_cell_formula_units_Z 24
_cell_length_a 8.034847
_cell_length_b 8.034847
_cell_length_c 15.178706
_cell_angle_alpha 90.000000
_cell_angle_beta 90.000000
_cell_angle_gamma 90.000000
_cell_volume 979.918534
_symmetry_space_group_name_H-M "P 41 2 2"
_symmetry_group_IT_number 91
_symmetry_cell_setting 'tetragonal'
loop_
_space_group_symop_operation_xyz
x,y,z
-y,x,1/4+z
-x,-y,1/2+z
y,-x,3/4+z
x,-y,1/2-z
-x,y,-z
y,x,3/4-z
-y,-x,1/4-z
loop_
_atom_site_type_symbol
_atom_site_label
_atom_site_fract_x
_atom_site_fract_y
_atom_site_fract_z
Si Si1 0.859193 0.264150 0.211350
Si Si2 0.422596 0.295238 0.114955
Si Si3 0.694273 0.210626 0.527491
O O1 0.849991 0.150010 0.125000
O O2 0.712207 0.286715 0.285225
O O3 0.842857 0.443366 0.163232
O O4 0.027694 0.234085 0.262527
O O5 0.534998 0.465003 0.125000
O O6 0.336793 0.240800 0.204038
O O7 0.500000 0.202438 0.500000
O O8 0.727172 0.272829 0.625000
#
# Coordination Sequence:
#
# PCOD9548462 Si02
#       3
#     8   8   8
#     4  10  24  49  71 106 148 198 244 304 394 446
#     4  10  23  44  73 109 143 198 256 310 372 438
#     4  12  27  45  75 116 145 193 258 320 369 447
#
# _framework density 24.491833
#
# number of rings (size 3 to 8) (size 9 to 14) (size 15 to 20)
#    0.000    1.333    3.333    1.000   23.333    2.667 
#    0.000    5.000    0.000    0.000    0.000    0.000 
#    0.000    0.000    0.000    0.000    0.000    0.000 
#
# Total GULP energy -133961.877527 kJ/mol
# GULP energy per Si atom -5581.744897 kJ/mol
# Density = 2.443609 g / cm^3
# Si number density = 24.491833 Si / 1000 Ang^3
#
#
#
# Elastic Constant Matrix: (Units=GPa)
#
#
# Indices 1 2 3 4 5 6 
#
# 1 83.9987 22.1486 69.2648 0.0000 0.0000 0.0000
# 2 22.1486 83.9992 69.2647 0.0000 0.0000 0.0000
# 3 69.2648 69.2647 273.4958 0.0000 0.0000 0.0000
# 4 0.0000 0.0000 0.0000 32.8468 0.0000 0.0000
# 5 0.0000 0.0000 0.0000 0.0000 32.8476 0.0000
# 6 0.0000 0.0000 0.0000 0.0000 0.0000 6.1225
#
#
#
# Elastic Compliance Matrix: (Units=1/GPa)
#
#
# Indices 1 2 3 4 5 6 
#
# 1 0.015120 -0.001048 -0.003564 0.000000 0.000000 0.000000
# 2 -0.001048 0.015120 -0.003564 0.000000 0.000000 0.000000
# 3 -0.003564 -0.003564 0.005461 0.000000 0.000000 0.000000
# 4 0.000000 0.000000 0.000000 0.030444 0.000000 0.000000
# 5 0.000000 0.000000 0.000000 0.000000 0.030444 0.000000
# 6 0.000000 0.000000 0.000000 0.000000 0.000000 0.163331
#
#
# Mechanical properties :
#
#
# Convention : Reuss Voigt Hill
#
# Bulk Modulus (GPa) = 51.67970 84.76111 68.22040
# Shear Modulus (GPa) = 17.68523 33.08444 25.38483
#
# Velocity S-wave (km/s) = 2.69008 3.67936 3.22290
# Velocity P-wave (km/s) = 5.54935 7.26177 6.46253
#
# Compressibility (1/GPa) = 0.01934996
#
# Stress axis : x y z
#
# Youngs Moduli (GPa) = 66.13754 66.13812 183.10078
#
# Poissons Ratio (x) = 0.06932 0.65254
# Poissons Ratio (y) = 0.06932 0.65253
# Poissons Ratio (z) = 0.23570 0.23570
#
# Static dielectric constant tensor:
#      x y z
#    x 2.056110 0.000000 0.000000 
#    y 0.000000 2.056110 0.000000 
#    z 0.000000 0.000000 2.066050 
# 
# From -- ./inp_files/4292.got.cif
#   From: 2010.05.17/outbox.cif.g08.bks.cpg/sg91_3_cif.got.tgz:4292.got - 2010.06.03 19:20:03.
