data_PCOD9548018
_publ_section_title
;
Structure prediction by ZEFSAII (Michael W. Deem and Ramdas Pophale) SiO2 
 PCOD9548018
Probable space group: P 41 2 2
;
_chemical_formula_sum "Si O2"
_cell_formula_units_Z 32
_cell_length_a 7.629890
_cell_length_b 7.629890
_cell_length_c 25.137213
_cell_angle_alpha 90.000000
_cell_angle_beta 90.000000
_cell_angle_gamma 90.000000
_cell_volume 1463.368420
_symmetry_space_group_name_H-M "P 41 2 2"
_symmetry_group_IT_number 91
_symmetry_cell_setting 'tetragonal'
loop_
_space_group_symop_operation_xyz
x,y,z
-y,x,1/4+z
-x,-y,1/2+z
y,-x,3/4+z
x,-y,1/2-z
-x,y,-z
y,x,3/4-z
-y,-x,1/4-z
loop_
_atom_site_type_symbol
_atom_site_label
_atom_site_fract_x
_atom_site_fract_y
_atom_site_fract_z
Si Si1 0.900857 0.900857 0.875000
Si Si2 0.606503 0.222895 0.706129
Si Si3 0.959383 0.500000 0.250000
Si Si4 0.375589 0.707291 0.937540
Si Si5 0.770649 0.763364 0.574099
O O1 0.870371 0.746003 0.917992
O O2 0.078727 0.892728 0.842140
O O3 0.614638 0.433453 0.691616
O O4 0.649639 0.235744 0.768188
O O5 0.415110 0.147437 0.696916
O O6 0.840886 0.360138 0.280291
O O7 0.091872 0.419880 0.205437
O O8 0.297704 0.683519 0.879596
#
# Coordination Sequence:
#
# PCOD9548018 Si02
#       5
#     4   8   4   8   8
#     4  12  22  40  68  92 132 178 220 276 340 398
#     4  10  20  41  64  98 132 172 228 275 338 413
#     4  10  20  40  66 102 128 174 232 274 336 424
#     4  10  20  40  69  96 132 177 225 277 343 404
#     4  12  21  37  73  95 131 183 218 280 344 396
#
# _framework density 21.867356000000001
#
# number of rings (size 3 to 8) (size 9 to 14) (size 15 to 20)
#    0.000    1.500    7.500    1.500    0.000    1.000 
#    0.000    0.000   44.000    0.000    0.000    0.000 
#    0.000    0.000    0.000    0.000    0.000    0.000 
#
# Total GULP energy -178714.511097 kJ/mol
# GULP energy per Si atom -5584.828472 kJ/mol
# Density = 2.181758 g / cm^3
# Si number density = 21.867356 Si / 1000 Ang^3
#
#
#
# Elastic Constant Matrix: (Units=GPa)
#
#
# Indices 1 2 3 4 5 6 
#
# 1 101.1853 9.4913 8.7709 0.0000 0.0000 0.0000
# 2 9.4913 101.1853 8.7709 0.0000 0.0000 0.0000
# 3 8.7709 8.7709 68.9035 0.0000 0.0000 0.0000
# 4 0.0000 0.0000 0.0000 26.4027 0.0000 0.0000
# 5 0.0000 0.0000 0.0000 0.0000 26.4027 0.0000
# 6 0.0000 0.0000 0.0000 0.0000 0.0000 -10.7971
#
#
#
# Elastic Compliance Matrix: (Units=1/GPa)
#
#
# Indices 1 2 3 4 5 6 
#
# 1 0.010064 -0.000842 -0.001174 0.000000 0.000000 0.000000
# 2 -0.000842 0.010064 -0.001174 0.000000 0.000000 0.000000
# 3 -0.001174 -0.001174 0.014812 0.000000 0.000000 0.000000
# 4 0.000000 0.000000 0.000000 0.037875 0.000000 0.000000
# 5 0.000000 0.000000 0.000000 0.000000 0.037875 0.000000
# 6 0.000000 0.000000 0.000000 0.000000 0.000000 -0.092617
#
#
# Mechanical properties :
#
#
# Convention : Reuss Voigt Hill
#
# Bulk Modulus (GPa) = 35.01474 36.14891 35.58182
# Shear Modulus (GPa) = 147.18409 24.68438 85.93423
#
# Velocity S-wave (km/s) = 8.21303 3.36344 6.27561
# Velocity P-wave (km/s) = 10.29493 5.62588 8.29566
#
# Compressibility (1/GPa) = 0.02855940
#
# Stress axis : x y z
#
# Youngs Moduli (GPa) = 99.36790 99.36790 67.51330
#
# Poissons Ratio (x) = 0.08369 0.07925
# Poissons Ratio (y) = 0.08369 0.07925
# Poissons Ratio (z) = 0.11664 0.11664
#
# Static dielectric constant tensor:
#      x y z
#    x 1.829550 0.000000 0.000000 
#    y 0.000000 1.829550 0.000000 
#    z 0.000000 0.000000 1.662470 
# 
# From -- ./inp_files/13060.got.cif
#   From: 2010.05.17/outbox.cif.g08.bks.cpg/sg91_7_cif.got.tgz:13060.got - 2010.06.03 19:20:03.
