data_PCOD9548392
_publ_section_title
;
Structure prediction by ZEFSAII (Michael W. Deem and Ramdas Pophale) SiO2 
 PCOD9548392
Probable space group: P 41 2 2
;
_chemical_formula_sum "Si O2"
_cell_formula_units_Z 28
_cell_length_a 11.351829
_cell_length_b 11.351829
_cell_length_c 10.944979
_cell_angle_alpha 90.000000
_cell_angle_beta 90.000000
_cell_angle_gamma 90.000000
_cell_volume 1410.414011
_symmetry_space_group_name_H-M "P 41 2 2"
_symmetry_group_IT_number 91
_symmetry_cell_setting 'tetragonal'
loop_
_space_group_symop_operation_xyz
x,y,z
-y,x,1/4+z
-x,-y,1/2+z
y,-x,3/4+z
x,-y,1/2-z
-x,y,-z
y,x,3/4-z
-y,-x,1/4-z
loop_
_atom_site_type_symbol
_atom_site_label
_atom_site_fract_x
_atom_site_fract_y
_atom_site_fract_z
Si Si1 0.783807 0.216194 0.625000
Si Si2 0.876135 0.447521 0.038881
Si Si3 0.500000 0.735080 0.500000
Si Si4 0.000000 0.319234 0.500000
Si Si5 0.608768 0.687346 0.082233
O O1 0.918342 0.243722 0.588854
O O2 0.744897 0.296808 0.739807
O O3 0.813131 0.414315 0.163991
O O4 0.912780 0.584678 0.061773
O O5 0.786714 0.435654 0.927014
O O6 0.000000 0.389461 0.000000
O O7 0.420849 0.659286 0.408785
O O8 0.500000 0.647479 0.000000
#
# Coordination Sequence:
#
# PCOD9548392 Si02
#       5
#     4   8   4   4   8
#     4  12  24  44  72  98 130 182 236 278 350 406
#     4  10  23  40  67  92 129 175 228 277 333 408
#     4  12  24  42  58 106 140 182 222 272 348 418
#     4  10  22  44  68  96 124 180 228 278 334 406
#     4  12  22  43  63 100 139 181 220 279 342 423
#
# _framework density 19.852326999999999
#
# number of rings (size 3 to 8) (size 9 to 14) (size 15 to 20)
#    0.857    0.000    5.714    0.857    6.000    0.000 
#   23.143    0.000    3.143    0.000    0.000    0.000 
#    0.000    0.000    0.000    0.000    0.000    0.000 
#
# Total GULP energy -156243.617601 kJ/mol
# GULP energy per Si atom -5580.129200 kJ/mol
# Density = 1.980714 g / cm^3
# Si number density = 19.852327 Si / 1000 Ang^3
#
#
#
# Elastic Constant Matrix: (Units=GPa)
#
#
# Indices 1 2 3 4 5 6 
#
# 1 82.3940 46.8452 59.1776 0.0000 0.0000 0.0000
# 2 46.8452 82.3936 59.1780 0.0000 0.0000 0.0000
# 3 59.1776 59.1780 158.0408 0.0000 0.0000 0.0000
# 4 0.0000 0.0000 0.0000 37.8881 0.0000 0.0000
# 5 0.0000 0.0000 0.0000 0.0000 37.8882 0.0000
# 6 0.0000 0.0000 0.0000 0.0000 0.0000 -45.8024
#
#
#
# Elastic Compliance Matrix: (Units=1/GPa)
#
#
# Indices 1 2 3 4 5 6 
#
# 1 0.019953 -0.008177 -0.004409 0.000000 0.000000 0.000000
# 2 -0.008177 0.019953 -0.004409 0.000000 0.000000 0.000000
# 3 -0.004409 -0.004409 0.009630 0.000000 0.000000 0.000000
# 4 0.000000 0.000000 0.000000 0.026394 0.000000 0.000000
# 5 0.000000 0.000000 0.000000 0.000000 0.026393 0.000000
# 6 0.000000 0.000000 0.000000 0.000000 0.000000 -0.021833
#
#
# Mechanical properties :
#
#
# Convention : Reuss Voigt Hill
#
# Bulk Modulus (GPa) = 64.33561 72.58113 68.45837
# Shear Modulus (GPa) = 41.78394 16.50328 29.14361
#
# Velocity S-wave (km/s) = 4.59272 2.88636 3.83563
# Velocity P-wave (km/s) = 7.78470 6.90999 7.36035
#
# Compressibility (1/GPa) = 0.01554349
#
# Stress axis : x y z
#
# Youngs Moduli (GPa) = 50.11792 50.11730 103.84636
#
# Poissons Ratio (x) = 0.40983 0.45789
# Poissons Ratio (y) = 0.40984 0.45790
# Poissons Ratio (z) = 0.22098 0.22099
#
# Static dielectric constant tensor:
#      x y z
#    x 1.741950 0.000000 0.000000 
#    y 0.000000 1.741960 0.000000 
#    z 0.000000 0.000000 1.727080 
# 
# From -- ./inp_files/10371.got.cif
#   From: 2010.05.17/outbox.cif.g08.bks.cpg/sg91_6_cif.got.tgz:10371.got - 2010.06.03 19:20:03.
