data_PCOD9548125
_publ_section_title
;
Structure prediction by ZEFSAII (Michael W. Deem and Ramdas Pophale) SiO2 
 PCOD9548125
Probable space group: P 41 2 2
;
_chemical_formula_sum "Si O2"
_cell_formula_units_Z 48
_cell_length_a 8.936956
_cell_length_b 8.936956
_cell_length_c 30.010718
_cell_angle_alpha 90.000000
_cell_angle_beta 90.000000
_cell_angle_gamma 90.000000
_cell_volume 2396.931514
_symmetry_space_group_name_H-M "P 41 2 2"
_symmetry_group_IT_number 91
_symmetry_cell_setting 'tetragonal'
loop_
_space_group_symop_operation_xyz
x,y,z
-y,x,1/4+z
-x,-y,1/2+z
y,-x,3/4+z
x,-y,1/2-z
-x,y,-z
y,x,3/4-z
-y,-x,1/4-z
loop_
_atom_site_type_symbol
_atom_site_label
_atom_site_fract_x
_atom_site_fract_y
_atom_site_fract_z
Si Si1 0.180775 0.328657 0.762253
Si Si2 0.343223 0.180087 0.837430
Si Si3 0.606950 0.854429 0.043057
Si Si4 0.835367 0.722763 0.574170
Si Si5 0.318952 0.854067 0.342698
Si Si6 0.823762 0.578056 0.885441
O O1 0.198524 0.500000 0.750000
O O2 0.310436 0.282432 0.795545
O O3 0.197063 0.226389 0.719069
O O4 0.016839 0.319781 0.784243
O O5 0.229133 0.229133 0.875000
O O6 0.512281 0.197912 0.853793
O O7 0.309283 0.011067 0.823228
O O8 0.745406 0.741762 0.053398
O O9 0.504483 0.864931 0.088135
O O10 0.500000 0.820570 0.000000
O O11 0.791258 0.821316 0.616578
O O12 0.767245 0.557544 0.583254
O O13 0.342658 0.033426 0.340857
O O14 0.697863 0.697863 0.875000
#
# Coordination Sequence:
#
# PCOD9548125 Si02
#       6
#     8   8   8   8   8   8
#     4  11  22  39  62  86 117 155 202 253 301 359
#     4  11  22  38  61  90 121 154 198 246 298 361
#     4  10  22  41  61  88 124 162 209 261 311 371
#     4  10  22  40  60  87 119 155 200 246 298 363
#     4  10  21  38  61  87 120 159 200 246 301 364
#     4  10  22  40  62  90 125 161 203 256 314 378
#
# _framework density 20.025603
#
# number of rings (size 3 to 8) (size 9 to 14) (size 15 to 20)
#    0.000    1.667    0.000    6.500    0.000    9.333 
#    0.000    5.833    0.000    0.000    0.000    0.000 
#    0.000    0.000    0.000    0.000    0.000    0.000 
#
# Total GULP energy -267781.953507 kJ/mol
# GULP energy per Si atom -5578.790698 kJ/mol
# Density = 1.998002 g / cm^3
# Si number density = 20.025603 Si / 1000 Ang^3
#
#
#
# Elastic Constant Matrix: (Units=GPa)
#
#
# Indices 1 2 3 4 5 6 
#
# 1 50.3171 72.6505 9.8878 0.0000 0.0000 0.0000
# 2 72.6505 50.3171 9.8878 0.0000 0.0000 0.0000
# 3 9.8878 9.8878 63.4158 0.0000 0.0000 0.0000
# 4 0.0000 0.0000 0.0000 53.1728 0.0000 0.0000
# 5 0.0000 0.0000 0.0000 0.0000 53.1728 0.0000
# 6 0.0000 0.0000 0.0000 0.0000 0.0000 34.2107
#
#
#
# Elastic Compliance Matrix: (Units=1/GPa)
#
#
# Indices 1 2 3 4 5 6 
#
# 1 -0.018217 0.026559 -0.001301 0.000000 0.000000 0.000000
# 2 0.026559 -0.018217 -0.001301 0.000000 0.000000 0.000000
# 3 -0.001301 -0.001301 0.016175 0.000000 0.000000 0.000000
# 4 0.000000 0.000000 0.000000 0.018807 0.000000 0.000000
# 5 0.000000 0.000000 0.000000 0.000000 0.018807 0.000000
# 6 0.000000 0.000000 0.000000 0.000000 0.000000 0.029231
#
#
# Mechanical properties :
#
#
# Convention : Reuss Voigt Hill
#
# Bulk Modulus (GPa) = 36.15992 38.76690 37.46341
# Shear Modulus (GPa) = 633.96444 32.88619 333.42532
#
# Velocity S-wave (km/s) = 17.81191 4.05681 12.91747
# Velocity P-wave (km/s) = 21.00274 6.42996 15.53157
#
# Compressibility (1/GPa) = 0.02765493
#
# Stress axis : x y z
#
# Youngs Moduli (GPa) = -54.89276 -54.89276 61.82568
#
# Poissons Ratio (x) = 1.45788 0.08041
# Poissons Ratio (y) = 1.45788 0.08041
# Poissons Ratio (z) = -0.07139 -0.07139
#
# Static dielectric constant tensor:
#      x y z
#    x 1.703150 0.000000 0.000000 
#    y 0.000000 1.703150 0.000000 
#    z 0.000000 0.000000 1.779860 
# 
# From -- ./inp_files/13609.got.cif
#   From: 2010.05.17/outbox.cif.g08.bks.cpg/sg91_7_cif.got.tgz:13609.got - 2010.06.03 19:20:03.
