data_PCOD9548749
_publ_section_title
;
Structure prediction by ZEFSAII (Michael W. Deem and Ramdas Pophale) SiO2 
 PCOD9548749
Probable space group: P 41 2 2
;
_chemical_formula_sum "Si O2"
_cell_formula_units_Z 40
_cell_length_a 11.700370
_cell_length_b 11.700370
_cell_length_c 14.218565
_cell_angle_alpha 90.000000
_cell_angle_beta 90.000000
_cell_angle_gamma 90.000000
_cell_volume 1946.502469
_symmetry_space_group_name_H-M "P 41 2 2"
_symmetry_group_IT_number 91
_symmetry_cell_setting 'tetragonal'
loop_
_space_group_symop_operation_xyz
x,y,z
-y,x,1/4+z
-x,-y,1/2+z
y,-x,3/4+z
x,-y,1/2-z
-x,y,-z
y,x,3/4-z
-y,-x,1/4-z
loop_
_atom_site_type_symbol
_atom_site_label
_atom_site_fract_x
_atom_site_fract_y
_atom_site_fract_z
Si Si1 0.577595 0.763973 0.173452
Si Si2 0.133634 0.793011 0.520380
Si Si3 0.703649 0.954975 0.598309
Si Si4 0.077378 0.500000 0.250000
Si Si5 0.800304 0.800304 0.875000
Si Si6 0.643116 0.258392 0.788515
O O1 0.664440 0.830394 0.242307
O O2 0.528677 0.846757 0.091770
O O3 0.652832 0.668124 0.121132
O O4 0.471350 0.717523 0.231896
O O5 0.171057 0.828944 0.625000
O O6 0.203174 0.875778 0.451215
O O7 0.000000 0.806854 0.500000
O O8 0.642222 0.871523 0.672614
O O9 0.608619 0.999987 0.526028
O O10 0.768851 0.067162 0.635520
O O11 0.749351 0.737452 0.783796
#
# Coordination Sequence:
#
# PCOD9548749 Si02
#       6
#     8   8   8   4   4   8
#     4  11  24  45  74 101 141 183 241 295 357 426
#     4  11  27  45  69 106 145 188 230 294 367 437
#     4  11  26  40  70 102 143 186 234 288 352 432
#     4  12  22  44  72 102 136 188 240 290 346 434
#     4  12  22  40  66 102 140 172 244 286 344 424
#     4  11  24  44  71 102 135 186 234 296 353 424
#
# _framework density 20.549679000000001
#
# number of rings (size 3 to 8) (size 9 to 14) (size 15 to 20)
#    0.000    0.800    4.000    1.800    9.800    0.000 
#    0.000    0.000   15.400    0.000    0.000    0.000 
#    0.000    0.000    0.000    0.000    0.000    0.000 
#
# Total GULP energy -223733.291983 kJ/mol
# GULP energy per Si atom -5593.332300 kJ/mol
# Density = 2.050291 g / cm^3
# Si number density = 20.549679 Si / 1000 Ang^3
#
#
#
# Elastic Constant Matrix: (Units=GPa)
#
#
# Indices 1 2 3 4 5 6 
#
# 1 105.6045 38.5390 29.7614 0.0000 0.0000 0.0000
# 2 38.5390 105.6038 29.7610 0.0000 0.0000 0.0000
# 3 29.7614 29.7610 87.6382 0.0000 0.0000 0.0000
# 4 0.0000 0.0000 0.0000 33.2588 0.0000 0.0000
# 5 0.0000 0.0000 0.0000 0.0000 33.2586 0.0000
# 6 0.0000 0.0000 0.0000 0.0000 0.0000 16.7709
#
#
#
# Elastic Compliance Matrix: (Units=1/GPa)
#
#
# Indices 1 2 3 4 5 6 
#
# 1 0.011490 -0.003421 -0.002740 0.000000 0.000000 0.000000
# 2 -0.003421 0.011490 -0.002740 0.000000 0.000000 0.000000
# 3 -0.002740 -0.002740 0.013272 0.000000 0.000000 0.000000
# 4 0.000000 0.000000 0.000000 0.030067 0.000000 0.000000
# 5 0.000000 0.000000 0.000000 0.000000 0.030067 0.000000
# 6 0.000000 0.000000 0.000000 0.000000 0.000000 0.059627
#
#
# Mechanical properties :
#
#
# Convention : Reuss Voigt Hill
#
# Bulk Modulus (GPa) = 54.20337 54.99658 54.59997
# Shear Modulus (GPa) = 27.78307 30.04332 28.91320
#
# Velocity S-wave (km/s) = 3.68094 3.82774 3.75506
# Velocity P-wave (km/s) = 6.67081 6.80855 6.74003
#
# Compressibility (1/GPa) = 0.01844904
#
# Stress axis : x y z
#
# Youngs Moduli (GPa) = 87.03261 87.03213 75.34867
#
# Poissons Ratio (x) = 0.29773 0.20647
# Poissons Ratio (y) = 0.29773 0.20647
# Poissons Ratio (z) = 0.23849 0.23848
#
# Static dielectric constant tensor:
#      x y z
#    x 1.711960 0.000000 0.000000 
#    y 0.000000 1.711960 0.000000 
#    z 0.000000 0.000000 1.771100 
# 
# From -- ./inp_files/16413.got.cif
#   From: 2010.05.17/outbox.cif.g08.bks.cpg/sg91_9_cif.got.tgz:16413.got - 2010.06.03 19:20:03.
