data_PCOD9548321
_publ_section_title
;
Structure prediction by ZEFSAII (Michael W. Deem and Ramdas Pophale) SiO2 
 PCOD9548321
Probable space group: P 41 2 2
;
_chemical_formula_sum "Si O2"
_cell_formula_units_Z 60
_cell_length_a 19.082101
_cell_length_b 19.082101
_cell_length_c 8.552729
_cell_angle_alpha 90.000000
_cell_angle_beta 90.000000
_cell_angle_gamma 90.000000
_cell_volume 3114.275948
_symmetry_space_group_name_H-M "P 41 2 2"
_symmetry_group_IT_number 91
_symmetry_cell_setting 'tetragonal'
loop_
_space_group_symop_operation_xyz
x,y,z
-y,x,1/4+z
-x,-y,1/2+z
y,-x,3/4+z
x,-y,1/2-z
-x,y,-z
y,x,3/4-z
-y,-x,1/4-z
loop_
_atom_site_type_symbol
_atom_site_label
_atom_site_fract_x
_atom_site_fract_y
_atom_site_fract_z
Si Si1 0.165683 0.550989 0.546949
Si Si2 0.070479 0.813651 0.588137
Si Si3 0.559458 0.310562 0.377725
Si Si4 0.768439 0.334019 0.668345
Si Si5 0.434897 0.565104 0.625000
Si Si6 0.400667 0.838021 0.371282
Si Si7 0.033921 0.296054 0.668493
Si Si8 0.675238 0.904810 0.131761
O O1 0.233093 0.540982 0.437451
O O2 0.130984 0.475290 0.567024
O O3 0.194706 0.580927 0.711070
O O4 0.110675 0.607787 0.487103
O O5 0.127936 0.872065 0.625000
O O6 0.051538 0.777734 0.752569
O O7 0.096174 0.747201 0.481786
O O8 0.000000 0.839668 0.500000
O O9 0.500000 0.334211 0.500000
O O10 0.629237 0.291987 0.477307
O O11 0.565095 0.365845 0.236667
O O12 0.742287 0.257714 0.625000
O O13 0.784318 0.375989 0.510139
O O14 0.840323 0.327481 0.762051
O O15 0.436572 0.500000 0.750000
O O16 0.343296 0.897509 0.397713
O O17 0.000000 0.287851 0.500000
O O18 0.977143 0.329101 0.787636
#
# Coordination Sequence:
#
# PCOD9548321 Si02
#       8
#     8   8   8   8   4   8   8   8
#     4  10  23  41  62  95 132 177 218 265 326 389
#     4  10  23  44  69  94 131 170 213 269 331 394
#     4  11  25  44  69  89 131 171 208 285 335 396
#     4  11  25  39  64  97 127 169 226 267 326 396
#     4  12  30  48  70  96 122 166 230 286 356 416
#     4  11  22  41  63  92 132 174 222 268 316 398
#     4  11  22  42  64  94 134 175 216 265 325 381
#     4  10  22  41  61  94 136 172 216 271 323 387
#
# _framework density 19.266117000000001
#
# number of rings (size 3 to 8) (size 9 to 14) (size 15 to 20)
#    0.000    1.333    4.000    0.400    7.467    0.000 
#    7.200    2.667    0.000    0.000    0.000    0.000 
#    0.000    0.000    0.000    0.000    0.000    0.000 
#
# Total GULP energy -334789.568526 kJ/mol
# GULP energy per Si atom -5579.826142 kJ/mol
# Density = 1.922227 g / cm^3
# Si number density = 19.266117 Si / 1000 Ang^3
#
#
#
# Elastic Constant Matrix: (Units=GPa)
#
#
# Indices 1 2 3 4 5 6 
#
# 1 66.0406 44.1571 31.3882 0.0000 0.0000 0.0000
# 2 44.1571 66.0505 31.3893 0.0000 0.0000 0.0000
# 3 31.3882 31.3893 107.7233 0.0000 0.0000 0.0000
# 4 0.0000 0.0000 0.0000 27.6680 0.0000 0.0000
# 5 0.0000 0.0000 0.0000 0.0000 27.6633 0.0000
# 6 0.0000 0.0000 0.0000 0.0000 0.0000 23.0603
#
#
#
# Elastic Compliance Matrix: (Units=1/GPa)
#
#
# Indices 1 2 3 4 5 6 
#
# 1 0.028285 -0.017403 -0.003171 0.000000 0.000000 0.000000
# 2 -0.017403 0.028281 -0.003170 0.000000 0.000000 0.000000
# 3 -0.003171 -0.003170 0.011131 0.000000 0.000000 0.000000
# 4 0.000000 0.000000 0.000000 0.036143 0.000000 0.000000
# 5 0.000000 0.000000 0.000000 0.000000 0.036149 0.000000
# 6 0.000000 0.000000 0.000000 0.000000 0.000000 0.043365
#
#
# Mechanical properties :
#
#
# Convention : Reuss Voigt Hill
#
# Bulk Modulus (GPa) = 49.48112 50.40929 49.94520
# Shear Modulus (GPa) = 21.04580 24.53699 22.79140
#
# Velocity S-wave (km/s) = 3.30869 3.57260 3.44318
# Velocity P-wave (km/s) = 6.35101 6.57568 6.46432
#
# Compressibility (1/GPa) = 0.02020973
#
# Stress axis : x y z
#
# Youngs Moduli (GPa) = 35.35381 35.35954 89.84257
#
# Poissons Ratio (x) = 0.61536 0.28487
# Poissons Ratio (y) = 0.61526 0.28479
# Poissons Ratio (z) = 0.11210 0.11209
#
# Static dielectric constant tensor:
#      x y z
#    x 1.656970 0.000000 0.000000 
#    y 0.000000 1.656970 0.000000 
#    z 0.000000 0.000000 1.716600 
# 
# From -- ./inp_files/10045.got.cif
#   From: 2010.05.17/outbox.cif.g08.bks.cpg/sg91_6_cif.got.tgz:10045.got - 2010.06.03 19:20:03.
