data_PCOD9548092
_publ_section_title
;
Structure prediction by ZEFSAII (Michael W. Deem and Ramdas Pophale) SiO2 
 PCOD9548092
Probable space group: P 41 2 2
;
_chemical_formula_sum "Si O2"
_cell_formula_units_Z 48
_cell_length_a 15.396771
_cell_length_b 15.396771
_cell_length_c 10.466799
_cell_angle_alpha 90.000000
_cell_angle_beta 90.000000
_cell_angle_gamma 90.000000
_cell_volume 2481.265203
_symmetry_space_group_name_H-M "P 41 2 2"
_symmetry_group_IT_number 91
_symmetry_cell_setting 'tetragonal'
loop_
_space_group_symop_operation_xyz
x,y,z
-y,x,1/4+z
-x,-y,1/2+z
y,-x,3/4+z
x,-y,1/2-z
-x,y,-z
y,x,3/4-z
-y,-x,1/4-z
loop_
_atom_site_type_symbol
_atom_site_label
_atom_site_fract_x
_atom_site_fract_y
_atom_site_fract_z
Si Si1 0.606680 0.852339 0.803548
Si Si2 0.294371 0.294371 0.375000
Si Si3 0.583318 0.102170 0.245057
Si Si4 0.867754 0.332617 0.262037
Si Si5 0.049697 0.950304 0.125000
Si Si6 0.195392 0.745010 0.386035
Si Si7 0.758973 0.951899 0.964474
O O1 0.612532 0.751093 0.850069
O O2 0.509463 0.887385 0.813185
O O3 0.627175 0.864990 0.653590
O O4 0.681173 0.904420 0.883290
O O5 0.262754 0.249119 0.504893
O O6 0.652640 0.162061 0.316913
O O7 0.605220 0.000000 0.250000
O O8 0.595027 0.133978 0.098366
O O9 0.793893 0.257975 0.266107
O O10 0.957352 0.281047 0.244755
O O11 0.036359 0.846497 0.135527
O O12 0.017384 0.000000 0.250000
O O13 0.106796 0.788292 0.335427
#
# Coordination Sequence:
#
# PCOD9548092 Si02
#       7
#     8   4   8   8   4   8   8
#     4  10  21  36  64  89 120 158 198 258 322 383
#     4   8  19  38  58  82 112 154 202 237 300 380
#     4  12  23  37  54  93 129 156 204 261 327 378
#     4  11  21  38  56  81 128 167 203 253 327 384
#     4  12  25  44  64  90 118 170 238 275 310 372
#     4  10  21  38  57  83 117 166 207 256 317 379
#     4  11  20  39  62  83 112 162 219 273 309 371
#
# _framework density 19.34497
#
# number of rings (size 3 to 8) (size 9 to 14) (size 15 to 20)
#    0.000    1.333    1.667    7.500    0.000    2.667 
#    6.000    0.000    0.000    0.000    0.000    0.000 
#   65.000    0.000    0.000    0.000    0.000    0.000 
#
# Total GULP energy -267333.316055 kJ/mol
# GULP energy per Si atom -5569.444084 kJ/mol
# Density = 1.930094 g / cm^3
# Si number density = 19.344970 Si / 1000 Ang^3
#
#
#
# Elastic Constant Matrix: (Units=GPa)
#
#
# Indices 1 2 3 4 5 6 
#
# 1 50.0268 63.0096 28.7700 0.0000 0.0000 0.0000
# 2 63.0096 50.0256 28.7701 0.0000 0.0000 0.0000
# 3 28.7700 28.7701 61.0200 0.0000 0.0000 0.0000
# 4 0.0000 0.0000 0.0000 26.0471 0.0000 0.0000
# 5 0.0000 0.0000 0.0000 0.0000 26.0473 0.0000
# 6 0.0000 0.0000 0.0000 0.0000 0.0000 -104.1065
#
#
#
# Elastic Compliance Matrix: (Units=1/GPa)
#
#
# Indices 1 2 3 4 5 6 
#
# 1 -0.032690 0.044331 -0.005489 0.000000 0.000000 0.000000
# 2 0.044331 -0.032691 -0.005488 0.000000 0.000000 0.000000
# 3 -0.005489 -0.005488 0.021563 0.000000 0.000000 0.000000
# 4 0.000000 0.000000 0.000000 0.038392 0.000000 0.000000
# 5 0.000000 0.000000 0.000000 0.000000 0.038392 0.000000
# 6 0.000000 0.000000 0.000000 0.000000 0.000000 -0.009606
#
#
# Mechanical properties :
#
#
# Convention : Reuss Voigt Hill
#
# Bulk Modulus (GPa) = 43.68505 44.68576 44.18540
# Shear Modulus (GPa) = -139.98597 -7.70091 -73.84344
#
# Velocity S-wave (km/s) = -8.51587 -1.99737 -6.18504
# Velocity P-wave (km/s) = 8.60594 4.22259 5.30245
#
# Compressibility (1/GPa) = 0.02289113
#
# Stress axis : x y z
#
# Youngs Moduli (GPa) = -30.59045 -30.58935 46.37482
#
# Poissons Ratio (x) = 1.35606 0.25454
# Poissons Ratio (y) = 1.35611 0.25450
# Poissons Ratio (z) = -0.16790 -0.16787
#
# Static dielectric constant tensor:
#      x y z
#    x 1.716880 0.000000 0.000000 
#    y 0.000000 1.716880 0.000000 
#    z 0.000000 0.000000 1.756440 
# 
# From -- ./inp_files/10796.got.cif
#   From: 2010.05.17/outbox.cif.g08.bks.cpg/sg91_6_cif.got.tgz:10796.got - 2010.06.03 19:20:03.
