data_PCOD9548301
_publ_section_title
;
Structure prediction by ZEFSAII (Michael W. Deem and Ramdas Pophale) SiO2 
 PCOD9548301
Probable space group: P 41 2 2
;
_chemical_formula_sum "Si O2"
_cell_formula_units_Z 48
_cell_length_a 9.369078
_cell_length_b 9.369078
_cell_length_c 24.497849
_cell_angle_alpha 90.000000
_cell_angle_beta 90.000000
_cell_angle_gamma 90.000000
_cell_volume 2150.411939
_symmetry_space_group_name_H-M "P 41 2 2"
_symmetry_group_IT_number 91
_symmetry_cell_setting 'tetragonal'
loop_
_space_group_symop_operation_xyz
x,y,z
-y,x,1/4+z
-x,-y,1/2+z
y,-x,3/4+z
x,-y,1/2-z
-x,y,-z
y,x,3/4-z
-y,-x,1/4-z
loop_
_atom_site_type_symbol
_atom_site_label
_atom_site_fract_x
_atom_site_fract_y
_atom_site_fract_z
Si Si1 0.324129 0.550067 0.861086
Si Si2 0.764984 0.759948 0.534052
Si Si3 0.308450 0.773571 0.281396
Si Si4 0.000000 0.449654 0.000000
Si Si5 0.500000 0.154818 0.500000
Si Si6 0.116903 0.895608 0.363046
Si Si7 0.650751 0.077439 0.072731
O O1 0.460068 0.460068 0.875000
O O2 0.334382 0.631766 0.803833
O O3 0.306156 0.654861 0.911949
O O4 0.189836 0.443321 0.855935
O O5 0.905714 0.663422 0.534059
O O6 0.783184 0.868112 0.584637
O O7 0.726293 0.838937 0.477943
O O8 0.248958 0.645897 0.242983
O O9 0.189610 0.883901 0.303703
O O10 0.443609 0.871681 0.267340
O O11 0.452492 0.045682 0.548170
O O12 0.997457 0.772084 0.358182
O O13 0.043668 0.043668 0.375000
#
# Coordination Sequence:
#
# PCOD9548301 Si02
#       7
#     8   8   8   4   4   8   8
#     4  11  22  39  63  98 126 168 223 285 341 399
#     4  11  23  39  65  97 127 172 223 279 344 409
#     4  10  25  40  62  93 133 174 220 275 338 421
#     4  12  24  42  60  96 130 172 218 272 344 408
#     4  10  22  42  66  90 130 176 226 268 344 420
#     4  10  22  40  62  96 128 171 222 279 337 411
#     4  11  20  41  70  95 130 177 224 288 344 416
#
# _framework density 22.321306
#
# number of rings (size 3 to 8) (size 9 to 14) (size 15 to 20)
#    0.000    1.333    1.667    3.500    2.333    2.667 
#    0.000    0.833    0.000    0.000    0.000    0.000 
#    0.000    0.000    0.000    0.000    0.000    0.000 
#
# Total GULP energy -267604.808579 kJ/mol
# GULP energy per Si atom -5575.100179 kJ/mol
# Density = 2.227050 g / cm^3
# Si number density = 22.321306 Si / 1000 Ang^3
#
#
#
# Elastic Constant Matrix: (Units=GPa)
#
#
# Indices 1 2 3 4 5 6 
#
# 1 45.8785 41.1138 32.8456 0.0000 0.0000 0.0000
# 2 41.1138 45.8785 32.8456 0.0000 0.0000 0.0000
# 3 32.8456 32.8456 56.8958 0.0000 0.0000 0.0000
# 4 0.0000 0.0000 0.0000 19.3911 0.0000 0.0000
# 5 0.0000 0.0000 0.0000 0.0000 19.3911 0.0000
# 6 0.0000 0.0000 0.0000 0.0000 0.0000 59.4832
#
#
#
# Elastic Compliance Matrix: (Units=1/GPa)
#
#
# Indices 1 2 3 4 5 6 
#
# 1 0.115128 -0.094748 -0.011765 0.000000 0.000000 0.000000
# 2 -0.094748 0.115128 -0.011765 0.000000 0.000000 0.000000
# 3 -0.011765 -0.011765 0.031160 0.000000 0.000000 0.000000
# 4 0.000000 0.000000 0.000000 0.051570 0.000000 0.000000
# 5 0.000000 0.000000 0.000000 0.000000 0.051570 0.000000
# 6 0.000000 0.000000 0.000000 0.000000 0.000000 0.016811
#
#
# Mechanical properties :
#
#
# Convention : Reuss Voigt Hill
#
# Bulk Modulus (GPa) = 40.22722 40.25142 40.23932
# Shear Modulus (GPa) = 7.98455 22.44291 15.21373
#
# Velocity S-wave (km/s) = 1.89337 3.17432 2.61354
# Velocity P-wave (km/s) = 4.77921 5.61311 5.21286
#
# Compressibility (1/GPa) = 0.02485879
#
# Stress axis : x y z
#
# Youngs Moduli (GPa) = 8.68601 8.68601 32.09286
#
# Poissons Ratio (x) = 0.82298 0.37757
# Poissons Ratio (y) = 0.82298 0.37757
# Poissons Ratio (z) = 0.10219 0.10219
#
# Static dielectric constant tensor:
#      x y z
#    x 1.912270 0.000000 0.000000 
#    y 0.000000 1.912270 0.000000 
#    z 0.000000 0.000000 1.794470 
# 
# From -- ./inp_files/22297.got.cif
#   From: 2010.05.17/outbox.cif.g08.bks.cpg/sg91_12_cif.got.tgz:22297.got - 2010.06.03 19:20:03.
