data_PCOD9548989
_publ_section_title
;
Structure prediction by ZEFSAII (Michael W. Deem and Ramdas Pophale) SiO2 
 PCOD9548989
Probable space group: P 41 21 2
;
_chemical_formula_sum "Si O2"
_cell_formula_units_Z 48
_cell_length_a 18.544217
_cell_length_b 18.544217
_cell_length_c 5.294573
_cell_angle_alpha 90.000000
_cell_angle_beta 90.000000
_cell_angle_gamma 90.000000
_cell_volume 1820.740036
_symmetry_space_group_name_H-M "P 41 21 2"
_symmetry_group_IT_number 92
_symmetry_cell_setting 'tetragonal'
loop_
_space_group_symop_operation_xyz
x,y,z
1/2-y,1/2+x,1/4+z
-x,-y,1/2+z
1/2+y,1/2-x,3/4+z
1/2+x,1/2-y,3/4-z
1/2-x,1/2+y,1/4-z
y,x,-z
-y,-x,1/2-z
loop_
_atom_site_type_symbol
_atom_site_label
_atom_site_fract_x
_atom_site_fract_y
_atom_site_fract_z
Si Si1 0.406829 0.957222 0.003814
Si Si2 0.815306 0.438170 0.473871
Si Si3 0.869953 0.780741 0.817843
Si Si4 0.190501 0.348758 0.062646
Si Si5 0.039329 0.811563 0.369153
Si Si6 0.610259 0.490488 0.111321
O O1 0.377634 0.002548 0.246583
O O2 0.481531 0.918245 0.052435
O O3 0.347685 0.896814 0.969439
O O4 0.772954 0.423595 0.217581
O O5 0.851312 0.364244 0.574525
O O6 0.750870 0.475990 0.646281
O O7 0.807995 0.807995 0.000000
O O8 0.825425 0.733305 0.625416
O O9 0.915283 0.852909 0.766871
O O10 0.268167 0.385842 0.067074
O O11 0.036829 0.867815 0.606893
O O12 0.022072 0.849273 0.104181
O O13 0.534774 0.465227 0.250000
#
# Coordination Sequence:
#
# PCOD9548989 Si02
#       6
#     8   8   8   8   8   8
#     4   9  19  31  45  72  99 148 193 231 271 323
#     4   9  19  35  47  73 106 144 190 231 272 323
#     4  10  21  34  55  75 103 151 194 234 282 331
#     4  10  20  34  49  73 109 144 184 232 277 327
#     4  10  20  34  54  78 107 143 183 226 277 323
#     4  10  20  36  56  78 105 143 188 228 273 332
#
# _framework density 26.362904
#
# number of rings (size 3 to 8) (size 9 to 14) (size 15 to 20)
#    0.000    2.333    1.667    0.500    4.667    0.667 
#    0.000    0.000    0.000    0.000    0.000    0.000 
#    0.000    2.667    0.000    0.000    0.000    0.000 
#
# Total GULP energy -267342.401664 kJ/mol
# GULP energy per Si atom -5569.633368 kJ/mol
# Density = 2.630290 g / cm^3
# Si number density = 26.362904 Si / 1000 Ang^3
#
#
#
# Elastic Constant Matrix: (Units=GPa)
#
#
# Indices 1 2 3 4 5 6 
#
# 1 57.5875 70.9192 42.9863 0.0000 0.0000 0.0000
# 2 70.9192 57.5873 42.9864 0.0000 0.0000 0.0000
# 3 42.9863 42.9864 135.3484 0.0000 0.0000 0.0000
# 4 0.0000 0.0000 0.0000 29.1349 0.0000 0.0000
# 5 0.0000 0.0000 0.0000 0.0000 29.1352 0.0000
# 6 0.0000 0.0000 0.0000 0.0000 0.0000 62.4662
#
#
#
# Elastic Compliance Matrix: (Units=1/GPa)
#
#
# Indices 1 2 3 4 5 6 
#
# 1 -0.032564 0.042445 -0.003138 0.000000 0.000000 0.000000
# 2 0.042445 -0.032564 -0.003138 0.000000 0.000000 0.000000
# 3 -0.003138 -0.003138 0.009382 0.000000 0.000000 0.000000
# 4 0.000000 0.000000 0.000000 0.034323 0.000000 0.000000
# 5 0.000000 0.000000 0.000000 0.000000 0.034323 0.000000
# 6 0.000000 0.000000 0.000000 0.000000 0.000000 0.016009
#
#
# Mechanical properties :
#
#
# Convention : Reuss Voigt Hill
#
# Bulk Modulus (GPa) = 60.27296 62.70078 61.48687
# Shear Modulus (GPa) = -131.93551 30.38936 -50.77307
#
# Velocity S-wave (km/s) = -7.08199 3.39887 -4.39330
# Velocity P-wave (km/s) = 6.63026 6.26406 1.53653
#
# Compressibility (1/GPa) = 0.01659119
#
# Stress axis : x y z
#
# Youngs Moduli (GPa) = -30.70920 -30.70903 106.59001
#
# Poissons Ratio (x) = 1.30344 0.33451
# Poissons Ratio (y) = 1.30345 0.33450
# Poissons Ratio (z) = -0.09638 -0.09637
#
# Static dielectric constant tensor:
#      x y z
#    x 2.151530 0.000000 0.000000 
#    y 0.000000 2.151530 0.000000 
#    z 0.000000 0.000000 2.240030 
# 
# From -- ./inp_files/661.got.cif
#   From: 2010.05.17/outbox.cif.g08.bks.cpg/sg92_1_cif.got.tgz:661.got - 2010.06.03 19:35:17.
