data_PCOD9548850
_publ_section_title
;
Structure prediction by ZEFSAII (Michael W. Deem and Ramdas Pophale) SiO2 
 PCOD9548850
Probable space group: P 41 21 2
;
_chemical_formula_sum "Si O2"
_cell_formula_units_Z 48
_cell_length_a 13.696868
_cell_length_b 13.696868
_cell_length_c 9.451610
_cell_angle_alpha 90.000000
_cell_angle_beta 90.000000
_cell_angle_gamma 90.000000
_cell_volume 1773.161667
_symmetry_space_group_name_H-M "P 41 21 2"
_symmetry_group_IT_number 92
_symmetry_cell_setting 'tetragonal'
loop_
_space_group_symop_operation_xyz
x,y,z
1/2-y,1/2+x,1/4+z
-x,-y,1/2+z
1/2+y,1/2-x,3/4+z
1/2+x,1/2-y,3/4-z
1/2-x,1/2+y,1/4-z
y,x,-z
-y,-x,1/2-z
loop_
_atom_site_type_symbol
_atom_site_label
_atom_site_fract_x
_atom_site_fract_y
_atom_site_fract_z
Si Si1 0.448116 0.448116 0.000000
Si Si2 0.561556 0.933972 0.348933
Si Si3 0.169517 0.245322 0.183131
Si Si4 0.388002 0.288707 0.170271
Si Si5 0.987397 0.140642 0.100206
Si Si6 0.802062 0.802062 0.000000
Si Si7 0.077599 0.698476 0.812666
O O1 0.334014 0.453356 0.953636
O O2 0.533985 0.472390 0.890527
O O3 0.636923 0.847499 0.311310
O O4 0.568864 0.959001 0.515452
O O5 0.613735 0.022034 0.265386
O O6 0.283712 0.238368 0.143878
O O7 0.085379 0.205711 0.078067
O O8 0.149792 0.195421 0.340080
O O9 0.366108 0.392663 0.250132
O O10 0.445626 0.217860 0.274175
O O11 0.946676 0.200889 0.234091
O O12 0.818168 0.691100 0.044858
#
# Coordination Sequence:
#
# PCOD9548850 Si02
#       7
#     4   8   8   8   8   4   8
#     4  12  25  40  62  98 127 168 212 278 336 377
#     4  11  22  40  64  97 130 173 222 263 323 397
#     4  10  21  38  67  93 123 179 209 261 331 393
#     4  11  22  44  61  91 137 159 215 275 321 394
#     4  11  20  37  67  96 121 163 220 270 325 373
#     4  10  15  36  62  92 117 154 226 258 302 373
#     4  10  18  37  67  86 121 166 213 270 313 370
#
# _framework density 27.070292999999999
#
# number of rings (size 3 to 8) (size 9 to 14) (size 15 to 20)
#    0.000    1.333    6.667    1.500    0.000    2.667 
#    6.000    0.000    0.000    0.000    0.000    0.000 
#    0.000    0.000    0.000    0.000    0.000    0.000 
#
# Total GULP energy -267851.602107 kJ/mol
# GULP energy per Si atom -5580.241711 kJ/mol
# Density = 2.700868 g / cm^3
# Si number density = 27.070293 Si / 1000 Ang^3
#
#
#
# Elastic Constant Matrix: (Units=GPa)
#
#
# Indices 1 2 3 4 5 6 
#
# 1 75.0097 11.5867 5.3658 0.0000 0.0000 0.0000
# 2 11.5867 75.0097 5.3658 0.0000 0.0000 0.0000
# 3 5.3658 5.3658 93.9096 0.0000 0.0000 0.0000
# 4 0.0000 0.0000 0.0000 35.7432 0.0000 0.0000
# 5 0.0000 0.0000 0.0000 0.0000 35.7432 0.0000
# 6 0.0000 0.0000 0.0000 0.0000 0.0000 52.6984
#
#
#
# Elastic Compliance Matrix: (Units=1/GPa)
#
#
# Indices 1 2 3 4 5 6 
#
# 1 0.013699 -0.002068 -0.000665 0.000000 0.000000 0.000000
# 2 -0.002068 0.013699 -0.000665 0.000000 0.000000 0.000000
# 3 -0.000665 -0.000665 0.010724 0.000000 0.000000 0.000000
# 4 0.000000 0.000000 0.000000 0.027977 0.000000 0.000000
# 5 0.000000 0.000000 0.000000 0.000000 0.027977 0.000000
# 6 0.000000 0.000000 0.000000 0.000000 0.000000 0.018976
#
#
# Mechanical properties :
#
#
# Convention : Reuss Voigt Hill
#
# Bulk Modulus (GPa) = 31.92161 32.06283 31.99222
# Shear Modulus (GPa) = 38.37602 39.61102 38.99352
#
# Velocity S-wave (km/s) = 3.76925 3.82941 3.79945
# Velocity P-wave (km/s) = 5.54623 5.60558 5.57599
#
# Compressibility (1/GPa) = 0.03132674
#
# Stress axis : x y z
#
# Youngs Moduli (GPa) = 72.99986 72.99986 93.24462
#
# Poissons Ratio (x) = 0.15100 0.06196
# Poissons Ratio (y) = 0.15100 0.06196
# Poissons Ratio (z) = 0.04851 0.04851
#
# Static dielectric constant tensor:
#      x y z
#    x 2.123180 0.000000 0.000000 
#    y 0.000000 2.123180 0.000000 
#    z 0.000000 0.000000 2.470070 
# 
# From -- ./inp_files/2239.got.cif
#   From: 2010.05.17/outbox.cif.g08.bks.cpg/sg92_2_cif.got.tgz:2239.got - 2010.06.03 19:35:17.
