data_PCOD9548491
_publ_section_title
;
Structure prediction by ZEFSAII (Michael W. Deem and Ramdas Pophale) SiO2 
 PCOD9548491
Probable space group: P 41 2 2
;
_chemical_formula_sum "Si O2"
_cell_formula_units_Z 56
_cell_length_a 14.313229
_cell_length_b 14.313229
_cell_length_c 12.841843
_cell_angle_alpha 90.000000
_cell_angle_beta 90.000000
_cell_angle_gamma 90.000000
_cell_volume 2630.889426
_symmetry_space_group_name_H-M "P 41 2 2"
_symmetry_group_IT_number 91
_symmetry_cell_setting 'tetragonal'
loop_
_space_group_symop_operation_xyz
x,y,z
-y,x,1/4+z
-x,-y,1/2+z
y,-x,3/4+z
x,-y,1/2-z
-x,y,-z
y,x,3/4-z
-y,-x,1/4-z
loop_
_atom_site_type_symbol
_atom_site_label
_atom_site_fract_x
_atom_site_fract_y
_atom_site_fract_z
Si Si1 0.730707 0.872601 0.485001
Si Si2 0.335695 0.509955 0.627934
Si Si3 0.727313 0.831295 0.135949
Si Si4 0.132972 0.009050 0.628730
Si Si5 0.699631 0.334883 0.507792
Si Si6 0.378210 0.092524 0.193916
Si Si7 0.412162 0.855855 0.700402
O O1 0.767572 0.771438 0.521259
O O2 0.674420 0.906143 0.584785
O O3 0.660040 0.875467 0.390598
O O4 0.817709 0.934790 0.447950
O O5 0.306746 0.500000 0.750000
O O6 0.428829 0.571172 0.625000
O O7 0.345418 0.410479 0.570713
O O8 0.253975 0.561827 0.563284
O O9 0.815859 0.893908 0.100102
O O10 0.639784 0.880324 0.191665
O O11 0.690553 0.766868 0.043660
O O12 0.161402 0.000000 0.750000
O O13 0.023633 0.976368 0.625000
O O14 0.662247 0.337754 0.625000
O O15 0.811224 0.354637 0.503689
O O16 0.489956 0.093021 0.182971
O O17 0.346272 0.000000 0.250000
#
# Coordination Sequence:
#
# PCOD9548491 Si02
#       7
#     8   8   8   8   8   8   8
#     4  11  21  39  64  90 130 172 222 285 349 418
#     4  11  22  40  68 102 136 180 238 291 348 425
#     4  11  23  41  69  92 131 183 223 290 361 420
#     4  12  23  41  64 102 133 168 235 295 352 424
#     4  10  24  46  67  96 142 191 236 286 369 437
#     4  10  24  40  60  95 136 178 229 282 343 438
#     4  11  20  38  65  97 128 168 228 284 350 416
#
# _framework density 21.285577
#
# number of rings (size 3 to 8) (size 9 to 14) (size 15 to 20)
#    0.000    1.143    2.857    5.143    4.000    0.571 
#    0.000    9.286    0.000    0.000    0.000    0.000 
#    0.000    0.000    0.000    0.000    0.000    0.000 
#
# Total GULP energy -312613.091568 kJ/mol
# GULP energy per Si atom -5582.376635 kJ/mol
# Density = 2.123713 g / cm^3
# Si number density = 21.285577 Si / 1000 Ang^3
#
#
#
# Elastic Constant Matrix: (Units=GPa)
#
#
# Indices 1 2 3 4 5 6 
#
# 1 77.9526 15.9111 32.2016 0.0000 0.0000 0.0000
# 2 15.9111 77.9511 32.2005 0.0000 0.0000 0.0000
# 3 32.2016 32.2005 103.7772 0.0000 0.0000 0.0000
# 4 0.0000 0.0000 0.0000 23.9939 0.0000 0.0000
# 5 0.0000 0.0000 0.0000 0.0000 23.9942 0.0000
# 6 0.0000 0.0000 0.0000 0.0000 0.0000 30.3618
#
#
#
# Elastic Compliance Matrix: (Units=1/GPa)
#
#
# Indices 1 2 3 4 5 6 
#
# 1 0.014827 -0.001291 -0.004200 0.000000 0.000000 0.000000
# 2 -0.001291 0.014827 -0.004200 0.000000 0.000000 0.000000
# 3 -0.004200 -0.004200 0.012242 0.000000 0.000000 0.000000
# 4 0.000000 0.000000 0.000000 0.041677 0.000000 0.000000
# 5 0.000000 0.000000 0.000000 0.000000 0.041677 0.000000
# 6 0.000000 0.000000 0.000000 0.000000 0.000000 0.032936
#
#
# Mechanical properties :
#
#
# Convention : Reuss Voigt Hill
#
# Bulk Modulus (GPa) = 44.41734 46.70081 45.55907
# Shear Modulus (GPa) = 27.01625 27.62783 27.32204
#
# Velocity S-wave (km/s) = 3.56649 3.60663 3.58661
# Velocity P-wave (km/s) = 6.15406 6.27148 6.21305
#
# Compressibility (1/GPa) = 0.02251373
#
# Stress axis : x y z
#
# Youngs Moduli (GPa) = 67.44503 67.44419 81.68316
#
# Poissons Ratio (x) = 0.08710 0.34307
# Poissons Ratio (y) = 0.08710 0.34306
# Poissons Ratio (z) = 0.28327 0.28326
#
# Static dielectric constant tensor:
#      x y z
#    x 1.826400 0.000000 0.000000 
#    y 0.000000 1.826400 0.000000 
#    z 0.000000 0.000000 1.746120 
# 
# From -- ./inp_files/3910.got.cif
#   From: 2010.05.17/outbox.cif.g08.bks.cpg/sg91_2_cif.got.tgz:3910.got - 2010.06.03 19:20:03.
