data_PCOD9548109
_publ_section_title
;
Structure prediction by ZEFSAII (Michael W. Deem and Ramdas Pophale) SiO2 
 PCOD9548109
Probable space group: P 41 2 2
;
_chemical_formula_sum "Si O2"
_cell_formula_units_Z 60
_cell_length_a 18.600496
_cell_length_b 18.600496
_cell_length_c 8.789633
_cell_angle_alpha 90.000000
_cell_angle_beta 90.000000
_cell_angle_gamma 90.000000
_cell_volume 3041.023614
_symmetry_space_group_name_H-M "P 41 2 2"
_symmetry_group_IT_number 91
_symmetry_cell_setting 'tetragonal'
loop_
_space_group_symop_operation_xyz
x,y,z
-y,x,1/4+z
-x,-y,1/2+z
y,-x,3/4+z
x,-y,1/2-z
-x,y,-z
y,x,3/4-z
-y,-x,1/4-z
loop_
_atom_site_type_symbol
_atom_site_label
_atom_site_fract_x
_atom_site_fract_y
_atom_site_fract_z
Si Si1 0.806713 0.350153 0.039167
Si Si2 0.583039 0.326773 0.026341
Si Si3 0.248771 0.155750 0.052481
Si Si4 0.998857 0.302504 0.674956
Si Si5 0.824387 0.103488 0.477183
Si Si6 0.436715 0.053642 0.879635
Si Si7 0.288916 0.300258 0.551925
Si Si8 0.909832 0.000000 0.250000
O O1 0.741426 0.387604 0.129115
O O2 0.827699 0.278822 0.134663
O O3 0.875433 0.402126 0.050783
O O4 0.769224 0.325366 0.883260
O O5 0.604231 0.395770 0.125000
O O6 0.500000 0.320231 0.000000
O O7 0.629782 0.325592 0.873376
O O8 0.173863 0.179824 0.123059
O O9 0.302581 0.204246 0.154232
O O10 0.253308 0.070319 0.065560
O O11 0.931524 0.251211 0.717703
O O12 0.000000 0.327408 0.500000
O O13 0.013368 0.370296 0.784430
O O14 0.872160 0.127841 0.625000
O O15 0.861775 0.048263 0.361869
O O16 0.464647 0.000000 0.750000
O O17 0.500000 0.071053 0.000000
O O18 0.296057 0.296057 0.375000
O O19 0.956329 0.956329 0.375000
#
# Coordination Sequence:
#
# PCOD9548109 Si02
#       8
#     8   8   8   8   8   8   8   4
#     4   9  21  40  66  90 125 173 217 259 324 398
#     4   9  18  38  63  91 128 172 210 248 313 387
#     4  10  21  39  62  87 124 165 211 265 328 387
#     4  11  24  41  65  95 127 167 210 269 338 403
#     4  12  25  42  64  92 123 164 219 275 328 390
#     4  11  25  44  66  96 131 171 216 271 336 408
#     4  10  21  37  63  97 128 163 218 278 315 378
#     4  12  28  42  60  82 126 170 216 266 330 398
#
# _framework density 19.730198999999999
#
# number of rings (size 3 to 8) (size 9 to 14) (size 15 to 20)
#    0.000    1.600    1.333    3.600    2.800    3.200 
#    0.000    6.000    0.000    0.000    0.000    0.000 
#    0.000    0.000    0.000    0.000    0.000    0.000 
#
# Total GULP energy -334684.171392 kJ/mol
# GULP energy per Si atom -5578.069523 kJ/mol
# Density = 1.968529 g / cm^3
# Si number density = 19.730199 Si / 1000 Ang^3
#
#
#
# Elastic Constant Matrix: (Units=GPa)
#
#
# Indices 1 2 3 4 5 6 
#
# 1 86.2406 18.7164 39.3525 0.0000 0.0000 0.0000
# 2 18.7164 86.2370 39.3528 0.0000 0.0000 0.0000
# 3 39.3525 39.3528 149.2313 0.0000 0.0000 0.0000
# 4 0.0000 0.0000 0.0000 22.5619 0.0000 0.0000
# 5 0.0000 0.0000 0.0000 0.0000 22.5619 0.0000
# 6 0.0000 0.0000 0.0000 0.0000 0.0000 1639.2422
#
#
#
# Elastic Compliance Matrix: (Units=1/GPa)
#
#
# Indices 1 2 3 4 5 6 
#
# 1 0.013343 -0.001467 -0.003132 0.000000 0.000000 0.000000
# 2 -0.001467 0.013343 -0.003132 0.000000 0.000000 0.000000
# 3 -0.003132 -0.003132 0.008353 0.000000 0.000000 0.000000
# 4 0.000000 0.000000 0.000000 0.044322 0.000000 0.000000
# 5 0.000000 0.000000 0.000000 0.000000 0.044323 0.000000
# 6 0.000000 0.000000 0.000000 0.000000 0.000000 0.000610
#
#
# Mechanical properties :
#
#
# Convention : Reuss Voigt Hill
#
# Bulk Modulus (GPa) = 51.07711 57.39469 54.23590
# Shear Modulus (GPa) = 34.18078 351.82568 193.00323
#
# Velocity S-wave (km/s) = 4.16674 13.36808 9.90119
# Velocity P-wave (km/s) = 7.00663 16.35319 12.58014
#
# Compressibility (1/GPa) = 0.01957824
#
# Stress axis : x y z
#
# Youngs Moduli (GPa) = 74.94663 74.94295 119.72097
#
# Poissons Ratio (x) = 0.10992 0.37494
# Poissons Ratio (y) = 0.10993 0.37496
# Poissons Ratio (z) = 0.23471 0.23472
#
# Static dielectric constant tensor:
#      x y z
#    x 1.741200 0.000000 0.000000 
#    y 0.000000 1.741200 0.000000 
#    z 0.000000 0.000000 1.589090 
# 
# From -- ./inp_files/10064.got.cif
#   From: 2010.05.17/outbox.cif.g08.bks.cpg/sg91_6_cif.got.tgz:10064.got - 2010.06.03 19:20:03.
