data_PCOD9548508
_publ_section_title
;
Structure prediction by ZEFSAII (Michael W. Deem and Ramdas Pophale) SiO2 
 PCOD9548508
Probable space group: P 41 2 2
;
_chemical_formula_sum "Si O2"
_cell_formula_units_Z 40
_cell_length_a 9.445888
_cell_length_b 9.445888
_cell_length_c 21.926571
_cell_angle_alpha 90.000000
_cell_angle_beta 90.000000
_cell_angle_gamma 90.000000
_cell_volume 1956.393915
_symmetry_space_group_name_H-M "P 41 2 2"
_symmetry_group_IT_number 91
_symmetry_cell_setting 'tetragonal'
loop_
_space_group_symop_operation_xyz
x,y,z
-y,x,1/4+z
-x,-y,1/2+z
y,-x,3/4+z
x,-y,1/2-z
-x,y,-z
y,x,3/4-z
-y,-x,1/4-z
loop_
_atom_site_type_symbol
_atom_site_label
_atom_site_fract_x
_atom_site_fract_y
_atom_site_fract_z
Si Si1 0.132531 0.676490 0.398594
Si Si2 0.660156 0.163375 0.494712
Si Si3 0.822200 0.391947 0.092617
Si Si4 0.612055 0.143842 0.949741
Si Si5 0.573084 0.162286 0.728742
O O1 0.144951 0.698505 0.326491
O O2 0.246642 0.770368 0.434299
O O3 0.168284 0.514704 0.416589
O O4 0.968494 0.693896 0.418571
O O5 0.500000 0.219104 0.500000
O O6 0.763466 0.277199 0.523712
O O7 0.657067 0.010284 0.526205
O O8 0.707546 0.292455 0.125000
O O9 0.862923 0.517502 0.139104
O O10 0.772735 0.470356 0.031262
O O11 0.500000 0.202439 0.000000
O O12 0.590266 0.000000 0.750000
#
# Coordination Sequence:
#
# PCOD9548508 Si02
#       5
#     8   8   8   8   8
#     4  11  23  45  67  98 135 176 226 282 342 405
#     4  11  23  44  67  97 136 173 223 282 340 410
#     4  11  22  43  68  97 137 179 226 287 341 412
#     4  11  22  43  71  97 134 180 226 283 344 415
#     4  10  24  43  63  97 135 172 223 280 339 406
#
# _framework density 20.445782000000001
#
# number of rings (size 3 to 8) (size 9 to 14) (size 15 to 20)
#    0.000    1.200    6.000    1.200    0.000    3.200 
#    3.600    0.000    0.000    0.000    0.000    0.000 
#    0.000    0.000    0.000    0.000    0.000    0.000 
#
# Total GULP energy -223450.554841 kJ/mol
# GULP energy per Si atom -5586.263871 kJ/mol
# Density = 2.039925 g / cm^3
# Si number density = 20.445782 Si / 1000 Ang^3
#
#
#
# Elastic Constant Matrix: (Units=GPa)
#
#
# Indices 1 2 3 4 5 6 
#
# 1 80.5785 58.5807 12.1434 0.0000 0.0000 0.0000
# 2 58.5807 80.5777 12.1433 0.0000 0.0000 0.0000
# 3 12.1434 12.1433 64.3656 0.0000 0.0000 0.0000
# 4 0.0000 0.0000 0.0000 24.7468 0.0000 0.0000
# 5 0.0000 0.0000 0.0000 0.0000 24.7472 0.0000
# 6 0.0000 0.0000 0.0000 0.0000 0.0000 49.1357
#
#
#
# Elastic Compliance Matrix: (Units=1/GPa)
#
#
# Indices 1 2 3 4 5 6 
#
# 1 0.026445 -0.019015 -0.001402 0.000000 0.000000 0.000000
# 2 -0.019015 0.026445 -0.001402 0.000000 0.000000 0.000000
# 3 -0.001402 -0.001402 0.016065 0.000000 0.000000 0.000000
# 4 0.000000 0.000000 0.000000 0.040409 0.000000 0.000000
# 5 0.000000 0.000000 0.000000 0.000000 0.040409 0.000000
# 6 0.000000 0.000000 0.000000 0.000000 0.000000 0.020352
#
#
# Mechanical properties :
#
#
# Convention : Reuss Voigt Hill
#
# Bulk Modulus (GPa) = 39.49597 43.47298 41.48447
# Shear Modulus (GPa) = 22.50206 29.23624 25.86915
#
# Velocity S-wave (km/s) = 3.32109 3.78556 3.56090
# Velocity P-wave (km/s) = 5.83657 6.35736 6.10252
#
# Compressibility (1/GPa) = 0.02531904
#
# Stress axis : x y z
#
# Youngs Moduli (GPa) = 37.81409 37.81371 62.24622
#
# Poissons Ratio (x) = 0.71901 0.08726
# Poissons Ratio (y) = 0.71902 0.08726
# Poissons Ratio (z) = 0.05301 0.05301
#
# Static dielectric constant tensor:
#      x y z
#    x 1.726090 0.000000 0.000000 
#    y 0.000000 1.726090 0.000000 
#    z 0.000000 0.000000 1.767820 
# 
# From -- ./inp_files/12731.got.cif
#   From: 2010.05.17/outbox.cif.g08.bks.cpg/sg91_7_cif.got.tgz:12731.got - 2010.06.03 19:20:03.
