data_PCOD9548974
_publ_section_title
;
Structure prediction by ZEFSAII (Michael W. Deem and Ramdas Pophale) SiO2 
 PCOD9548974
Probable space group: P 41 21 2
;
_chemical_formula_sum "Si O2"
_cell_formula_units_Z 56
_cell_length_a 14.394545
_cell_length_b 14.394545
_cell_length_c 12.957412
_cell_angle_alpha 90.000000
_cell_angle_beta 90.000000
_cell_angle_gamma 90.000000
_cell_volume 2684.813677
_symmetry_space_group_name_H-M "P 41 21 2"
_symmetry_group_IT_number 92
_symmetry_cell_setting 'tetragonal'
loop_
_space_group_symop_operation_xyz
x,y,z
1/2-y,1/2+x,1/4+z
-x,-y,1/2+z
1/2+y,1/2-x,3/4+z
1/2+x,1/2-y,3/4-z
1/2-x,1/2+y,1/4-z
y,x,-z
-y,-x,1/2-z
loop_
_atom_site_type_symbol
_atom_site_label
_atom_site_fract_x
_atom_site_fract_y
_atom_site_fract_z
Si Si1 0.204713 0.092681 0.704569
Si Si2 0.662248 0.604380 0.116233
Si Si3 0.609200 0.075655 0.487087
Si Si4 0.338300 0.792030 0.545862
Si Si5 0.393183 0.975605 0.223102
Si Si6 0.285667 0.169018 0.064480
Si Si7 0.511907 0.294630 0.678210
O O1 0.317240 0.098808 0.708878
O O2 0.158256 0.186965 0.662906
O O3 0.173930 0.005516 0.637054
O O4 0.179475 0.066732 0.823828
O O5 0.760488 0.649466 0.146306
O O6 0.576595 0.638253 0.187589
O O7 0.637283 0.637283 0.000000
O O8 0.635941 0.058419 0.607815
O O9 0.692018 0.033698 0.417347
O O10 0.522370 0.005826 0.470515
O O11 0.434016 0.845320 0.520979
O O12 0.302230 0.772343 0.430691
O O13 0.364356 0.889950 0.295629
O O14 0.221531 0.084398 0.021354
O O15 0.258403 0.258403 0.000000
#
# Coordination Sequence:
#
# PCOD9548974 Si02
#       7
#     8   8   8   8   8   8   8
#     4  11  22  40  66  89 132 184 230 276 339 420
#     4  10  25  42  64  95 133 187 232 266 336 429
#     4  11  19  37  61  94 126 172 222 276 343 402
#     4  12  23  41  65  98 137 173 219 294 345 401
#     4  11  23  36  59 100 132 158 218 282 352 389
#     4  11  21  38  68  97 123 167 225 286 338 397
#     4  10  19  39  65  91 124 170 231 270 333 418
#
# _framework density 20.858058
#
# number of rings (size 3 to 8) (size 9 to 14) (size 15 to 20)
#    0.000    1.143    8.571    0.000    2.000    0.000 
#    2.571    2.143    3.143    0.000    0.000    0.000 
#    0.000    0.000    0.000    0.000    0.000    0.000 
#
# Total GULP energy -312294.816430 kJ/mol
# GULP energy per Si atom -5576.693151 kJ/mol
# Density = 2.081058 g / cm^3
# Si number density = 20.858058 Si / 1000 Ang^3
#
#
#
# Elastic Constant Matrix: (Units=GPa)
#
#
# Indices 1 2 3 4 5 6 
#
# 1 105.3186 41.3674 -0.4946 0.0000 0.0000 0.0000
# 2 41.3674 105.3186 -0.4946 0.0000 0.0000 0.0000
# 3 -0.4946 -0.4946 19.5028 0.0000 0.0000 0.0000
# 4 0.0000 0.0000 0.0000 23.7447 0.0000 0.0000
# 5 0.0000 0.0000 0.0000 0.0000 23.7447 0.0000
# 6 0.0000 0.0000 0.0000 0.0000 0.0000 43.3272
#
#
#
# Elastic Compliance Matrix: (Units=1/GPa)
#
#
# Indices 1 2 3 4 5 6 
#
# 1 0.011228 -0.004409 0.000173 0.000000 0.000000 0.000000
# 2 -0.004409 0.011228 0.000173 0.000000 0.000000 0.000000
# 3 0.000173 0.000173 0.051284 0.000000 0.000000 0.000000
# 4 0.000000 0.000000 0.000000 0.042115 0.000000 0.000000
# 5 0.000000 0.000000 0.000000 0.000000 0.042115 0.000000
# 6 0.000000 0.000000 0.000000 0.000000 0.000000 0.023080
#
#
# Mechanical properties :
#
#
# Convention : Reuss Voigt Hill
#
# Bulk Modulus (GPa) = 15.24110 34.54406 24.89258
# Shear Modulus (GPa) = 23.69152 30.81411 27.25281
#
# Velocity S-wave (km/s) = 3.37389 3.84777 3.61859
# Velocity P-wave (km/s) = 4.74346 6.02809 5.42394
#
# Compressibility (1/GPa) = 0.06561207
#
# Stress axis : x y z
#
# Youngs Moduli (GPa) = 89.06554 89.06554 19.49944
#
# Poissons Ratio (x) = 0.39271 -0.00337
# Poissons Ratio (y) = 0.39271 -0.00337
# Poissons Ratio (z) = -0.01540 -0.01540
#
# Static dielectric constant tensor:
#      x y z
#    x 1.797060 0.000000 0.000000 
#    y 0.000000 1.797060 0.000000 
#    z 0.000000 0.000000 1.801850 
# 
# From -- ./inp_files/2750.got.cif
#   From: 2010.05.17/outbox.cif.g08.bks.cpg/sg92_2_cif.got.tgz:2750.got - 2010.06.03 19:35:17.
