data_PCOD9548349
_publ_section_title
;
Structure prediction by ZEFSAII (Michael W. Deem and Ramdas Pophale) SiO2 
 PCOD9548349
Probable space group: P 41 2 2
;
_chemical_formula_sum "Si O2"
_cell_formula_units_Z 40
_cell_length_a 15.376868
_cell_length_b 15.376868
_cell_length_c 8.292118
_cell_angle_alpha 90.000000
_cell_angle_beta 90.000000
_cell_angle_gamma 90.000000
_cell_volume 1960.655293
_symmetry_space_group_name_H-M "P 41 2 2"
_symmetry_group_IT_number 91
_symmetry_cell_setting 'tetragonal'
loop_
_space_group_symop_operation_xyz
x,y,z
-y,x,1/4+z
-x,-y,1/2+z
y,-x,3/4+z
x,-y,1/2-z
-x,y,-z
y,x,3/4-z
-y,-x,1/4-z
loop_
_atom_site_type_symbol
_atom_site_label
_atom_site_fract_x
_atom_site_fract_y
_atom_site_fract_z
Si Si1 0.273944 0.726057 0.625000
Si Si2 0.000000 0.113442 0.500000
Si Si3 0.882546 0.731351 0.122399
Si Si4 0.417124 0.036754 0.916788
Si Si5 0.368791 0.223546 0.382972
Si Si6 0.791102 0.445637 0.983244
O O1 0.256207 0.796549 0.483646
O O2 0.263592 0.627075 0.572811
O O3 0.067446 0.179281 0.588355
O O4 0.946573 0.053428 0.625000
O O5 0.942817 0.660850 0.213054
O O6 0.850757 0.685385 0.958329
O O7 0.458346 0.124605 0.843181
O O8 0.379677 0.000000 0.750000
O O9 0.500000 0.989668 0.000000
O O10 0.306992 0.306992 0.375000
O O11 0.399430 0.193051 0.559798
O O12 0.459007 0.245744 0.294367
#
# Coordination Sequence:
#
# PCOD9548349 Si02
#       6
#     4   4   8   8   8   8
#     4  10  22  42  68 100 138 184 232 286 348 424
#     4  12  32  52  76  98 138 184 234 304 352 434
#     4  11  25  45  72  99 134 180 238 284 359 419
#     4  11  25  39  64 105 143 176 223 292 363 432
#     4  11  21  41  69  97 138 183 240 278 343 415
#     4  10  23  39  66  98 139 189 225 291 345 409
#
# _framework density 20.401343000000001
#
# number of rings (size 3 to 8) (size 9 to 14) (size 15 to 20)
#    0.000    1.200    4.000    0.600    8.400    1.600 
#    0.000    0.000    8.800    0.000    0.000    0.000 
#    0.000    0.000    0.000    0.000    0.000    0.000 
#
# Total GULP energy -223358.982340 kJ/mol
# GULP energy per Si atom -5583.974559 kJ/mol
# Density = 2.035491 g / cm^3
# Si number density = 20.401343 Si / 1000 Ang^3
#
#
#
# Elastic Constant Matrix: (Units=GPa)
#
#
# Indices 1 2 3 4 5 6 
#
# 1 102.6269 62.0488 52.5065 0.0000 0.0000 0.0000
# 2 62.0488 102.6275 52.5067 0.0000 0.0000 0.0000
# 3 52.5065 52.5067 87.1745 0.0000 0.0000 0.0000
# 4 0.0000 0.0000 0.0000 33.9727 0.0000 0.0000
# 5 0.0000 0.0000 0.0000 0.0000 33.9728 0.0000
# 6 0.0000 0.0000 0.0000 0.0000 0.0000 22.8827
#
#
#
# Elastic Compliance Matrix: (Units=1/GPa)
#
#
# Indices 1 2 3 4 5 6 
#
# 1 0.017252 -0.007392 -0.005939 0.000000 0.000000 0.000000
# 2 -0.007392 0.017252 -0.005939 0.000000 0.000000 0.000000
# 3 -0.005939 -0.005939 0.018625 0.000000 0.000000 0.000000
# 4 0.000000 0.000000 0.000000 0.029435 0.000000 0.000000
# 5 0.000000 0.000000 0.000000 0.000000 0.029435 0.000000
# 6 0.000000 0.000000 0.000000 0.000000 0.000000 0.043701
#
#
# Mechanical properties :
#
#
# Convention : Reuss Voigt Hill
#
# Bulk Modulus (GPa) = 68.54077 69.61699 69.07888
# Shear Modulus (GPa) = 25.11280 26.52342 25.81811
#
# Velocity S-wave (km/s) = 3.51228 3.60958 3.56126
# Velocity P-wave (km/s) = 7.07936 7.18122 7.13047
#
# Compressibility (1/GPa) = 0.01458986
#
# Stress axis : x y z
#
# Youngs Moduli (GPa) = 57.96551 57.96590 53.69127
#
# Poissons Ratio (x) = 0.42849 0.31885
# Poissons Ratio (y) = 0.42848 0.31885
# Poissons Ratio (z) = 0.34423 0.34423
#
# Static dielectric constant tensor:
#      x y z
#    x 1.725920 0.000000 0.000000 
#    y 0.000000 1.725920 0.000000 
#    z 0.000000 0.000000 1.866110 
# 
# From -- ./inp_files/19460.got.cif
#   From: 2010.05.17/outbox.cif.g08.bks.cpg/sg91_10_cif.got.tgz:19460.got - 2010.06.03 19:20:03.
