data_PCOD9548835
_publ_section_title
;
Structure prediction by ZEFSAII (Michael W. Deem and Ramdas Pophale) SiO2 
 PCOD9548835
Probable space group: P 41 2 2
;
_chemical_formula_sum "Si O2"
_cell_formula_units_Z 36
_cell_length_a 12.000000
_cell_length_b 12.000000
_cell_length_c 12.000000
_cell_angle_alpha 90.000000
_cell_angle_beta 90.000000
_cell_angle_gamma 90.000000
_cell_volume 1728.000000
_symmetry_space_group_name_H-M "P 41 2 2"
_symmetry_group_IT_number 91
_symmetry_cell_setting 'tetragonal'
loop_
_space_group_symop_operation_xyz
x,y,z
-y,x,1/4+z
-x,-y,1/2+z
y,-x,3/4+z
x,-y,1/2-z
-x,y,-z
y,x,3/4-z
-y,-x,1/4-z
loop_
_atom_site_type_symbol
_atom_site_label
_atom_site_fract_x
_atom_site_fract_y
_atom_site_fract_z
Si Si1 0.880972 0.372688 0.895286
Si Si2 0.396143 0.184929 0.082484
Si Si3 0.000000 0.425822 0.500000
Si Si4 0.102508 0.737572 0.637960
Si Si5 0.373471 0.345806 0.504853
O O1 0.930828 0.495463 0.914778
O O2 0.772176 0.375532 0.820065
O O3 0.975412 0.295124 0.840005
O O4 0.871540 0.329900 0.023553
O O5 0.414527 0.291851 0.162339
O O6 0.367307 0.088600 0.171258
O O7 0.500000 0.163015 0.000000
O O8 0.300948 0.180711 0.989472
O O9 0.133301 0.866700 0.625000
O O10 0.500000 0.389928 0.500000
O O11 0.336681 0.336681 0.375000
#
# Coordination Sequence:
#
# PCOD9548835 Si02
#       5
#     8   8   4   8   8
#     4  10  21  40  67  93 132 168 228 304 340 397
#     4  12  23  40  72  99 132 185 236 287 349 433
#     4  10  22  38  68 106 120 168 242 306 332 394
#     4  10  20  38  66  97 125 163 224 287 343 416
#     4  12  29  44  62  99 148 187 228 293 362 424
#
# _framework density 20.833333
#
# number of rings (size 3 to 8) (size 9 to 14) (size 15 to 20)
#    0.000    1.333    6.667    1.333    6.222    0.889 
#    0.000    0.000    0.000    8.000    0.000    0.000 
#    0.000    0.000    0.000    0.000    0.000    0.000 
#
# Total GULP energy -200511.275245 kJ/mol
# GULP energy per Si atom -5569.757646 kJ/mol
# Density = 2.078592 g / cm^3
# Si number density = 20.833333 Si / 1000 Ang^3
#
#
#
# Elastic Constant Matrix: (Units=GPa)
#
#
# Indices 1 2 3 4 5 6 
#
# 1 35.9391 -0.2415 16.4443 0.0000 0.0000 0.0000
# 2 -0.2415 35.9363 16.4435 0.0000 0.0000 0.0000
# 3 16.4443 16.4435 126.6886 0.0000 0.0000 0.0000
# 4 0.0000 0.0000 0.0000 21.5228 0.0000 0.0000
# 5 0.0000 0.0000 0.0000 0.0000 21.5240 0.0000
# 6 0.0000 0.0000 0.0000 0.0000 0.0000 13.1911
#
#
#
# Elastic Compliance Matrix: (Units=1/GPa)
#
#
# Indices 1 2 3 4 5 6 
#
# 1 0.029729 0.002090 -0.004130 0.000000 0.000000 0.000000
# 2 0.002090 0.029731 -0.004130 0.000000 0.000000 0.000000
# 3 -0.004130 -0.004130 0.008966 0.000000 0.000000 0.000000
# 4 0.000000 0.000000 0.000000 0.046462 0.000000 0.000000
# 5 0.000000 0.000000 0.000000 0.000000 0.046460 0.000000
# 6 0.000000 0.000000 0.000000 0.000000 0.000000 0.075809
#
#
# Mechanical properties :
#
#
# Convention : Reuss Voigt Hill
#
# Bulk Modulus (GPa) = 17.83045 29.31741 23.57393
# Shear Modulus (GPa) = 18.64336 22.30874 20.47605
#
# Velocity S-wave (km/s) = 2.99470 3.27589 3.13845
# Velocity P-wave (km/s) = 4.53154 5.33024 4.94704
#
# Compressibility (1/GPa) = 0.05608383
#
# Stress axis : x y z
#
# Youngs Moduli (GPa) = 33.63765 33.63505 111.53841
#
# Poissons Ratio (x) = -0.07028 0.46066
# Poissons Ratio (y) = -0.07029 0.46067
# Poissons Ratio (z) = 0.13892 0.13892
#
# Static dielectric constant tensor:
#      x y z
#    x 1.847630 0.000000 0.000000 
#    y 0.000000 1.847630 0.000000 
#    z 0.000000 0.000000 1.718920 
# 
# From -- ./inp_files/10520.got.cif
#   From: 2010.05.17/outbox.ucp.g08.bks.cvg/sg91_6_cif.got.tgz:10520.got - 2010.06.11 10:36:11.
