data_PCOD9548940
_publ_section_title
;
Structure prediction by ZEFSAII (Michael W. Deem and Ramdas Pophale) SiO2 
 PCOD9548940
Probable space group: P 41 21 2
;
_chemical_formula_sum "Si O2"
_cell_formula_units_Z 48
_cell_length_a 12.641715
_cell_length_b 12.641715
_cell_length_c 11.988594
_cell_angle_alpha 90.000000
_cell_angle_beta 90.000000
_cell_angle_gamma 90.000000
_cell_volume 1915.932671
_symmetry_space_group_name_H-M "P 41 21 2"
_symmetry_group_IT_number 92
_symmetry_cell_setting 'tetragonal'
loop_
_space_group_symop_operation_xyz
x,y,z
1/2-y,1/2+x,1/4+z
-x,-y,1/2+z
1/2+y,1/2-x,3/4+z
1/2+x,1/2-y,3/4-z
1/2-x,1/2+y,1/4-z
y,x,-z
-y,-x,1/2-z
loop_
_atom_site_type_symbol
_atom_site_label
_atom_site_fract_x
_atom_site_fract_y
_atom_site_fract_z
Si Si1 0.962412 0.684951 0.415262
Si Si2 0.659868 0.818317 0.978885
Si Si3 0.056922 0.695153 0.012499
Si Si4 0.646875 0.192225 0.595312
Si Si5 0.133936 0.898289 0.066017
Si Si6 0.487970 0.355749 0.575950
O O1 0.893376 0.620407 0.329967
O O2 0.892642 0.699117 0.526521
O O3 0.071838 0.621738 0.443239
O O4 0.008689 0.799079 0.370606
O O5 0.613607 0.792130 0.856897
O O6 0.651100 0.939919 0.005548
O O7 0.778151 0.778151 0.000000
O O8 0.592040 0.742839 0.058931
O O9 0.043414 0.809861 0.075446
O O10 0.771122 0.189335 0.573853
O O11 0.595755 0.296973 0.544768
O O12 0.112632 0.961027 0.951788
O O13 0.453081 0.453081 0.500000
#
# Coordination Sequence:
#
# PCOD9548940 Si02
#       6
#     8   8   8   8   8   8
#     4   9  21  37  60  98 118 171 218 262 335 377
#     4  11  26  40  64 102 131 170 226 272 338 391
#     4  12  23  42  68  94 136 175 218 283 332 393
#     4   9  20  36  58  87 129 151 221 264 316 392
#     4   9  21  38  58  88 130 162 210 276 319 389
#     4  10  19  35  56  89 121 163 206 266 328 380
#
# _framework density 25.053070999999999
#
# number of rings (size 3 to 8) (size 9 to 14) (size 15 to 20)
#    1.000    1.000    3.333    1.000    7.000    0.667 
#    0.000    0.000    7.333    0.000    0.000    0.000 
#    0.000    0.000    0.000    0.000    0.000    0.000 
#
# Total GULP energy -267307.755124 kJ/mol
# GULP energy per Si atom -5568.911565 kJ/mol
# Density = 2.499605 g / cm^3
# Si number density = 25.053071 Si / 1000 Ang^3
#
#
#
# Elastic Constant Matrix: (Units=GPa)
#
#
# Indices 1 2 3 4 5 6 
#
# 1 31.1455 54.3099 30.2680 0.0000 0.0000 0.0000
# 2 54.3099 31.1455 30.2680 0.0000 0.0000 0.0000
# 3 30.2680 30.2680 50.8600 0.0000 0.0000 0.0000
# 4 0.0000 0.0000 0.0000 16.0890 0.0000 0.0000
# 5 0.0000 0.0000 0.0000 0.0000 16.0890 0.0000
# 6 0.0000 0.0000 0.0000 0.0000 0.0000 18.2301
#
#
#
# Elastic Compliance Matrix: (Units=1/GPa)
#
#
# Indices 1 2 3 4 5 6 
#
# 1 -0.011469 0.031700 -0.012040 0.000000 0.000000 0.000000
# 2 0.031700 -0.011469 -0.012040 0.000000 0.000000 0.000000
# 3 -0.012040 -0.012040 0.033992 0.000000 0.000000 0.000000
# 4 0.000000 0.000000 0.000000 0.062154 0.000000 0.000000
# 5 0.000000 0.000000 0.000000 0.000000 0.062154 0.000000
# 6 0.000000 0.000000 0.000000 0.000000 0.000000 0.054854
#
#
# Mechanical properties :
#
#
# Convention : Reuss Voigt Hill
#
# Bulk Modulus (GPa) = 38.03071 38.09366 38.06219
# Shear Modulus (GPa) = 27.21222 9.96861 18.59042
#
# Velocity S-wave (km/s) = 3.29930 1.99691 2.72700
# Velocity P-wave (km/s) = 5.45224 4.53377 5.01408
#
# Compressibility (1/GPa) = 0.02629454
#
# Stress axis : x y z
#
# Youngs Moduli (GPa) = -87.18908 -87.18908 29.41834
#
# Poissons Ratio (x) = 2.76393 0.35420
# Poissons Ratio (y) = 2.76393 0.35420
# Poissons Ratio (z) = -1.04976 -1.04976
#
# Static dielectric constant tensor:
#      x y z
#    x 2.060660 0.000000 0.000000 
#    y 0.000000 2.060660 0.000000 
#    z 0.000000 0.000000 2.026400 
# 
# From -- ./inp_files/2199.got.cif
#   From: 2010.05.17/outbox.cif.g08.bks.cpg/sg92_2_cif.got.tgz:2199.got - 2010.06.03 19:35:17.
