data_PCOD9548009
_publ_section_title
;
Structure prediction by ZEFSAII (Michael W. Deem and Ramdas Pophale) SiO2 
 PCOD9548009
Probable space group: P 41 2 2
;
_chemical_formula_sum "Si O2"
_cell_formula_units_Z 56
_cell_length_a 14.300627
_cell_length_b 14.300627
_cell_length_c 13.864608
_cell_angle_alpha 90.000000
_cell_angle_beta 90.000000
_cell_angle_gamma 90.000000
_cell_volume 2835.422318
_symmetry_space_group_name_H-M "P 41 2 2"
_symmetry_group_IT_number 91
_symmetry_cell_setting 'tetragonal'
loop_
_space_group_symop_operation_xyz
x,y,z
-y,x,1/4+z
-x,-y,1/2+z
y,-x,3/4+z
x,-y,1/2-z
-x,y,-z
y,x,3/4-z
-y,-x,1/4-z
loop_
_atom_site_type_symbol
_atom_site_label
_atom_site_fract_x
_atom_site_fract_y
_atom_site_fract_z
Si Si1 0.664970 0.011513 0.646694
Si Si2 0.325408 0.195091 0.679765
Si Si3 0.819519 0.574431 0.381702
Si Si4 0.939195 0.168538 0.710190
Si Si5 0.092958 0.140551 0.062886
Si Si6 0.798554 0.637049 0.170528
Si Si7 0.962944 0.463737 0.859424
O O1 0.656057 0.906276 0.607504
O O2 0.714200 0.000000 0.750000
O O3 0.725178 0.074200 0.574472
O O4 0.562275 0.054972 0.663288
O O5 0.386384 0.223650 0.771279
O O6 0.237102 0.137523 0.719976
O O7 0.274650 0.285403 0.632844
O O8 0.389925 0.120444 0.622428
O O9 0.795158 0.633384 0.286717
O O10 0.784862 0.468793 0.364851
O O11 0.934179 0.573751 0.389726
O O12 0.894457 0.105544 0.625000
O O13 0.912780 0.148368 0.820419
O O14 0.049923 0.153301 0.707667
O O15 0.000000 0.126663 0.000000
O O16 0.973156 0.500000 0.750000
#
# Coordination Sequence:
#
# PCOD9548009 Si02
#       7
#     8   8   8   8   8   8   8
#     4  11  21  38  60  82 123 173 213 263 321 388
#     4  12  24  35  64  99 121 160 222 269 329 393
#     4  10  20  40  63  92 131 168 199 273 335 395
#     4  12  25  42  57  83 126 183 227 258 320 400
#     4  12  25  38  60  88 131 171 216 273 325 381
#     4  10  21  39  62  93 127 159 214 266 331 392
#     4  11  20  38  60  88 128 163 210 274 330 375
#
# _framework density 19.750145
#
# number of rings (size 3 to 8) (size 9 to 14) (size 15 to 20)
#    0.000    0.857    4.286    6.857    2.000    1.143 
#    0.000    0.000    0.000    0.000   11.143    0.000 
#    0.000    0.000    0.000    0.000    0.000    0.000 
#
# Total GULP energy -312558.609391 kJ/mol
# GULP energy per Si atom -5581.403739 kJ/mol
# Density = 1.970519 g / cm^3
# Si number density = 19.750145 Si / 1000 Ang^3
#
#
#
# Elastic Constant Matrix: (Units=GPa)
#
#
# Indices 1 2 3 4 5 6 
#
# 1 76.0520 35.1229 -6.7745 0.0000 0.0000 0.0000
# 2 35.1229 76.0552 -6.7725 0.0000 0.0000 0.0000
# 3 -6.7745 -6.7725 43.4722 0.0000 0.0000 0.0000
# 4 0.0000 0.0000 0.0000 18.7809 0.0000 0.0000
# 5 0.0000 0.0000 0.0000 0.0000 18.7807 0.0000
# 6 0.0000 0.0000 0.0000 0.0000 0.0000 33.5466
#
#
#
# Elastic Compliance Matrix: (Units=1/GPa)
#
#
# Indices 1 2 3 4 5 6 
#
# 1 0.016801 -0.007631 0.001429 0.000000 0.000000 0.000000
# 2 -0.007631 0.016800 0.001428 0.000000 0.000000 0.000000
# 3 0.001429 0.001428 0.023448 0.000000 0.000000 0.000000
# 4 0.000000 0.000000 0.000000 0.053246 0.000000 0.000000
# 5 0.000000 0.000000 0.000000 0.000000 0.053246 0.000000
# 6 0.000000 0.000000 0.000000 0.000000 0.000000 0.029809
#
#
# Mechanical properties :
#
#
# Convention : Reuss Voigt Hill
#
# Bulk Modulus (GPa) = 21.05244 26.52567 23.78906
# Shear Modulus (GPa) = 22.85907 25.82187 24.34047
#
# Velocity S-wave (km/s) = 3.40577 3.61976 3.51439
# Velocity P-wave (km/s) = 5.11353 5.56147 5.34220
#
# Compressibility (1/GPa) = 0.04750043
#
# Stress axis : x y z
#
# Youngs Moduli (GPa) = 59.52169 59.52473 42.64681
#
# Poissons Ratio (x) = 0.45426 -0.06095
# Poissons Ratio (y) = 0.45423 -0.06090
# Poissons Ratio (z) = -0.08507 -0.08500
#
# Static dielectric constant tensor:
#      x y z
#    x 1.721150 0.000000 0.000000 
#    y 0.000000 1.721150 0.000000 
#    z 0.000000 0.000000 1.785890 
# 
# From -- ./inp_files/20818.got.cif
#   From: 2010.05.17/outbox.cif.g08.bks.cpg/sg91_11_cif.got.tgz:20818.got - 2010.06.03 19:20:03.
