data_PCOD9548572
_publ_section_title
;
Structure prediction by ZEFSAII (Michael W. Deem and Ramdas Pophale) SiO2 
 PCOD9548572
Probable space group: P 41 2 2
;
_chemical_formula_sum "Si O2"
_cell_formula_units_Z 52
_cell_length_a 20.093224
_cell_length_b 20.093224
_cell_length_c 5.892291
_cell_angle_alpha 90.000000
_cell_angle_beta 90.000000
_cell_angle_gamma 90.000000
_cell_volume 2378.939726
_symmetry_space_group_name_H-M "P 41 2 2"
_symmetry_group_IT_number 91
_symmetry_cell_setting 'tetragonal'
loop_
_space_group_symop_operation_xyz
x,y,z
-y,x,1/4+z
-x,-y,1/2+z
y,-x,3/4+z
x,-y,1/2-z
-x,y,-z
y,x,3/4-z
-y,-x,1/4-z
loop_
_atom_site_type_symbol
_atom_site_label
_atom_site_fract_x
_atom_site_fract_y
_atom_site_fract_z
Si Si1 0.809108 0.716500 0.748380
Si Si2 0.841829 0.000000 0.750000
Si Si3 0.949406 0.737492 0.680831
Si Si4 0.595805 0.020570 0.998967
Si Si5 0.830611 0.401124 0.401729
Si Si6 0.500000 0.231741 0.500000
Si Si7 0.620899 0.717605 0.281228
Si Si8 0.068584 0.068584 0.875000
O O1 0.780130 0.780130 0.875000
O O2 0.874278 0.728484 0.597102
O O3 0.749988 0.682080 0.608693
O O4 0.833090 0.662929 0.934918
O O5 0.791191 0.049912 0.625093
O O6 0.881290 0.948227 0.585971
O O7 0.000000 0.766356 0.500000
O O8 0.983547 0.667713 0.748465
O O9 0.595637 0.100599 0.985325
O O10 0.567949 0.000000 0.750000
O O11 0.569485 0.000000 0.250000
O O12 0.815123 0.463921 0.564288
O O13 0.767890 0.394055 0.236484
O O14 0.443367 0.276752 0.619099
O O15 0.647135 0.647135 0.375000
O O16 0.075007 0.000000 0.750000
#
# Coordination Sequence:
#
# PCOD9548572 Si02
#       8
#     8   4   8   8   8   4   8   4
#     4  11  22  39  66 103 137 181 236 296 365 437
#     4  12  24  42  62  84 112 158 208 286 362 444
#     4  11  23  40  62  97 134 177 226 285 360 434
#     4  11  22  41  70  97 139 201 241 294 360 431
#     4  11  22  43  68 101 148 187 238 299 362 428
#     4  10  26  40  72 108 146 186 240 296 360 442
#     4  11  22  42  71 102 147 186 230 290 364 422
#     4  12  24  44  64  72  98 152 206 276 364 442
#
# _framework density 21.858476
#
# number of rings (size 3 to 8) (size 9 to 14) (size 15 to 20)
#    0.000    0.923    4.615    2.769    2.154    2.462 
#    0.000    0.000    5.077    0.000    0.000    0.000 
#   32.308    0.000    0.000    0.000    0.000    0.000 
#
# Total GULP energy -290106.700641 kJ/mol
# GULP energy per Si atom -5578.975012 kJ/mol
# Density = 2.180873 g / cm^3
# Si number density = 21.858476 Si / 1000 Ang^3
#
#
#
# Elastic Constant Matrix: (Units=GPa)
#
#
# Indices 1 2 3 4 5 6 
#
# 1 124.3059 45.1244 37.0713 0.0000 0.0000 0.0000
# 2 45.1244 124.3059 37.0713 0.0000 0.0000 0.0000
# 3 37.0713 37.0713 118.1963 0.0000 0.0000 0.0000
# 4 0.0000 0.0000 0.0000 -855.0838 0.0000 0.0000
# 5 0.0000 0.0000 0.0000 0.0000 -855.0838 0.0000
# 6 0.0000 0.0000 0.0000 0.0000 0.0000 -9.6267
#
#
#
# Elastic Compliance Matrix: (Units=1/GPa)
#
#
# Indices 1 2 3 4 5 6 
#
# 1 0.009735 -0.002894 -0.002146 0.000000 0.000000 0.000000
# 2 -0.002894 0.009735 -0.002146 0.000000 0.000000 0.000000
# 3 -0.002146 -0.002146 0.009806 0.000000 0.000000 0.000000
# 4 0.000000 0.000000 0.000000 -0.001169 0.000000 0.000000
# 5 0.000000 0.000000 0.000000 0.000000 -0.001169 0.000000
# 6 0.000000 0.000000 0.000000 0.000000 0.000000 -0.103877
#
#
# Mechanical properties :
#
#
# Convention : Reuss Voigt Hill
#
# Bulk Modulus (GPa) = 67.08718 67.26026 67.17372
# Shear Modulus (GPa) = -86.80541 -327.45613 -207.13077
#
# Velocity S-wave (km/s) = -6.30862 -12.25286 -9.74503
# Velocity P-wave (km/s) = 4.72299 13.01304 9.78892
#
# Compressibility (1/GPa) = 0.01490598
#
# Stress axis : x y z
#
# Youngs Moduli (GPa) = 102.72066 102.72066 101.97396
#
# Poissons Ratio (x) = 0.29728 0.21880
# Poissons Ratio (y) = 0.29728 0.21880
# Poissons Ratio (z) = 0.22040 0.22040
#
# Static dielectric constant tensor:
#      x y z
#    x 2.207700 0.000000 0.000000 
#    y 0.000000 2.207700 0.000000 
#    z 0.000000 0.000000 1.889870 
# 
# From -- ./inp_files/9066.got.cif
#   From: 2010.05.17/outbox.cif.g08.bks.cpg/sg91_5_cif.got.tgz:9066.got - 2010.06.03 19:20:03.
