data_PCOD9548525
_publ_section_title
;
Structure prediction by ZEFSAII (Michael W. Deem and Ramdas Pophale) SiO2 
 PCOD9548525
Probable space group: P 41 2 2
;
_chemical_formula_sum "Si O2"
_cell_formula_units_Z 36
_cell_length_a 7.903741
_cell_length_b 7.903741
_cell_length_c 21.941096
_cell_angle_alpha 90.000000
_cell_angle_beta 90.000000
_cell_angle_gamma 90.000000
_cell_volume 1370.640998
_symmetry_space_group_name_H-M "P 41 2 2"
_symmetry_group_IT_number 91
_symmetry_cell_setting 'tetragonal'
loop_
_space_group_symop_operation_xyz
x,y,z
-y,x,1/4+z
-x,-y,1/2+z
y,-x,3/4+z
x,-y,1/2-z
-x,y,-z
y,x,3/4-z
-y,-x,1/4-z
loop_
_atom_site_type_symbol
_atom_site_label
_atom_site_fract_x
_atom_site_fract_y
_atom_site_fract_z
Si Si1 0.872475 0.362339 0.379340
Si Si2 0.781322 0.681156 0.244761
Si Si3 0.513288 0.513288 0.875000
Si Si4 0.546072 0.000000 0.250000
Si Si5 0.829344 0.921550 0.041743
Si Si6 0.500000 0.294330 0.500000
O O1 0.919913 0.357638 0.308462
O O2 0.686653 0.446263 0.374877
O O3 0.963567 0.444207 0.437439
O O4 0.873069 0.164669 0.394991
O O5 0.695198 0.500000 0.250000
O O6 0.894428 0.748796 0.299682
O O7 0.655157 0.834087 0.234297
O O8 0.610212 0.561457 0.812515
O O9 0.673098 0.802192 0.019480
O O10 0.000000 0.927849 0.000000
#
# Coordination Sequence:
#
# PCOD9548525 Si02
#       6
#     8   8   4   4   8   4
#     4  11  27  47  78 110 157 201 265 328 397 485
#     4  12  28  49  80 114 158 211 261 331 407 491
#     4  10  24  46  76 114 148 212 256 328 398 488
#     4  12  28  54  78 118 160 208 272 334 398 494
#     4  11  24  49  69 116 151 196 263 323 402 473
#     4  10  24  44  78 106 160 204 272 320 406 492
#
# _framework density 26.265083000000001
#
# number of rings (size 3 to 8) (size 9 to 14) (size 15 to 20)
#    0.000    0.889    3.333    1.333   10.889    2.667 
#    0.000    0.000    0.000    0.000    0.000    0.000 
#    0.000    0.000    0.000    0.000    0.000    0.000 
#
# Total GULP energy -200919.807000 kJ/mol
# GULP energy per Si atom -5581.105750 kJ/mol
# Density = 2.620530 g / cm^3
# Si number density = 26.265083 Si / 1000 Ang^3
#
#
#
# Elastic Constant Matrix: (Units=GPa)
#
#
# Indices 1 2 3 4 5 6 
#
# 1 116.8240 33.2693 9.9886 0.0000 0.0000 0.0000
# 2 33.2693 116.8240 9.9886 0.0000 0.0000 0.0000
# 3 9.9886 9.9886 98.3679 0.0000 0.0000 0.0000
# 4 0.0000 0.0000 0.0000 29.6701 0.0000 0.0000
# 5 0.0000 0.0000 0.0000 0.0000 29.6701 0.0000
# 6 0.0000 0.0000 0.0000 0.0000 0.0000 38.3465
#
#
#
# Elastic Compliance Matrix: (Units=1/GPa)
#
#
# Indices 1 2 3 4 5 6 
#
# 1 0.009361 -0.002607 -0.000686 0.000000 0.000000 0.000000
# 2 -0.002607 0.009361 -0.000686 0.000000 0.000000 0.000000
# 3 -0.000686 -0.000686 0.010305 0.000000 0.000000 0.000000
# 4 0.000000 0.000000 0.000000 0.033704 0.000000 0.000000
# 5 0.000000 0.000000 0.000000 0.000000 0.033704 0.000000
# 6 0.000000 0.000000 0.000000 0.000000 0.000000 0.026078
#
#
# Mechanical properties :
#
#
# Convention : Reuss Voigt Hill
#
# Bulk Modulus (GPa) = 47.46178 48.72322 48.09250
# Shear Modulus (GPa) = 36.36524 38.12196 37.24360
#
# Velocity S-wave (km/s) = 3.72499 3.81390 3.76970
# Velocity P-wave (km/s) = 6.05064 6.16322 6.10719
#
# Compressibility (1/GPa) = 0.02106958
#
# Stress axis : x y z
#
# Youngs Moduli (GPa) = 106.82609 106.82609 97.03838
#
# Poissons Ratio (x) = 0.27852 0.06655
# Poissons Ratio (y) = 0.27852 0.06655
# Poissons Ratio (z) = 0.07326 0.07326
#
# Static dielectric constant tensor:
#      x y z
#    x 2.125750 0.000000 0.000000 
#    y 0.000000 2.125750 0.000000 
#    z 0.000000 0.000000 2.168540 
# 
# From -- ./inp_files/12329.got.cif
#   From: 2010.05.17/outbox.cif.g08.bks.cpg/sg91_7_cif.got.tgz:12329.got - 2010.06.03 19:20:03.
