data_PCOD9548151
_publ_section_title
;
Structure prediction by ZEFSAII (Michael W. Deem and Ramdas Pophale) SiO2 
 PCOD9548151
Probable space group: P 41 2 2
;
_chemical_formula_sum "Si O2"
_cell_formula_units_Z 60
_cell_length_a 18.116587
_cell_length_b 18.116587
_cell_length_c 9.667712
_cell_angle_alpha 90.000000
_cell_angle_beta 90.000000
_cell_angle_gamma 90.000000
_cell_volume 3173.046760
_symmetry_space_group_name_H-M "P 41 2 2"
_symmetry_group_IT_number 91
_symmetry_cell_setting 'tetragonal'
loop_
_space_group_symop_operation_xyz
x,y,z
-y,x,1/4+z
-x,-y,1/2+z
y,-x,3/4+z
x,-y,1/2-z
-x,y,-z
y,x,3/4-z
-y,-x,1/4-z
loop_
_atom_site_type_symbol
_atom_site_label
_atom_site_fract_x
_atom_site_fract_y
_atom_site_fract_z
Si Si1 0.553496 0.950573 0.614848
Si Si2 0.007404 0.698251 0.722719
Si Si3 0.159331 0.811316 0.963248
Si Si4 0.726074 0.112265 0.262421
Si Si5 0.738384 0.679631 0.020100
Si Si6 0.485161 0.782047 0.340094
Si Si7 0.643982 0.735419 0.265388
Si Si8 0.218571 0.000000 0.250000
O O1 0.500000 0.985430 0.500000
O O2 0.629847 0.946212 0.531325
O O3 0.521550 0.871139 0.658442
O O4 0.562322 0.000000 0.750000
O O5 0.062191 0.743643 0.621458
O O6 0.939112 0.679781 0.620261
O O7 0.977569 0.735600 0.862856
O O8 0.205562 0.860504 0.855915
O O9 0.188237 0.727214 0.940931
O O10 0.173915 0.826086 0.125000
O O11 0.072492 0.822347 0.947722
O O12 0.682378 0.184565 0.213194
O O13 0.753464 0.593020 0.033646
O O14 0.674580 0.704396 0.123290
O O15 0.709645 0.709645 0.875000
O O16 0.500000 0.761060 0.500000
O O17 0.557009 0.750163 0.265046
O O18 0.677195 0.677195 0.375000
#
# Coordination Sequence:
#
# PCOD9548151 Si02
#       8
#     8   8   8   8   8   8   8   4
#     4  11  25  38  58  92 137 178 209 255 330 408
#     4  11  23  39  60  92 127 172 215 269 323 396
#     4  10  21  40  61  93 125 164 217 278 327 393
#     4  10  23  39  62  90 129 165 226 266 318 394
#     4  10  23  41  65  94 126 161 216 268 320 385
#     4  11  22  41  64  92 131 166 217 265 318 390
#     4  11  23  40  67  91 123 175 215 265 318 380
#     4  12  22  36  64  86 120 164 214 268 346 370
#
# _framework density 18.909269999999999
#
# number of rings (size 3 to 8) (size 9 to 14) (size 15 to 20)
#    0.000    1.333    3.333    2.400    7.467    0.533 
#    0.000    0.000    0.000    4.000    0.000    0.000 
#    0.000    0.000    0.000    0.000    0.000    0.000 
#
# Total GULP energy -334539.775066 kJ/mol
# GULP energy per Si atom -5575.662918 kJ/mol
# Density = 1.886623 g / cm^3
# Si number density = 18.909270 Si / 1000 Ang^3
#
#
#
# Elastic Constant Matrix: (Units=GPa)
#
#
# Indices 1 2 3 4 5 6 
#
# 1 105.0770 33.0921 26.3137 0.0000 0.0000 0.0000
# 2 33.0921 105.0767 26.3136 0.0000 0.0000 0.0000
# 3 26.3137 26.3136 103.0230 0.0000 0.0000 0.0000
# 4 0.0000 0.0000 0.0000 23.4465 0.0000 0.0000
# 5 0.0000 0.0000 0.0000 0.0000 23.4467 0.0000
# 6 0.0000 0.0000 0.0000 0.0000 0.0000 15.6363
#
#
#
# Elastic Compliance Matrix: (Units=1/GPa)
#
#
# Indices 1 2 3 4 5 6 
#
# 1 0.010955 -0.002937 -0.002048 0.000000 0.000000 0.000000
# 2 -0.002937 0.010955 -0.002048 0.000000 0.000000 0.000000
# 3 -0.002048 -0.002048 0.010753 0.000000 0.000000 0.000000
# 4 0.000000 0.000000 0.000000 0.042650 0.000000 0.000000
# 5 0.000000 0.000000 0.000000 0.000000 0.042650 0.000000
# 6 0.000000 0.000000 0.000000 0.000000 0.000000 0.063954
#
#
# Mechanical properties :
#
#
# Convention : Reuss Voigt Hill
#
# Bulk Modulus (GPa) = 53.77363 53.84617 53.80990
# Shear Modulus (GPa) = 24.73043 27.66973 26.20008
#
# Velocity S-wave (km/s) = 3.62034 3.82945 3.72636
# Velocity P-wave (km/s) = 6.78051 6.93475 6.85806
#
# Compressibility (1/GPa) = 0.01859648
#
# Stress axis : x y z
#
# Youngs Moduli (GPa) = 91.28540 91.28521 93.00032
#
# Poissons Ratio (x) = 0.26812 0.19045
# Poissons Ratio (y) = 0.26812 0.19045
# Poissons Ratio (z) = 0.18693 0.18693
#
# Static dielectric constant tensor:
#      x y z
#    x 1.678260 0.000000 0.000000 
#    y 0.000000 1.678260 0.000000 
#    z 0.000000 0.000000 1.650590 
# 
# From -- ./inp_files/19703.got.cif
#   From: 2010.05.17/outbox.cif.g08.bks.cpg/sg91_10_cif.got.tgz:19703.got - 2010.06.03 19:20:03.
