data_PCOD9548752
_publ_section_title
;
Structure prediction by ZEFSAII (Michael W. Deem and Ramdas Pophale) SiO2 
 PCOD9548752
Probable space group: P 41 2 2
;
_chemical_formula_sum "Si O2"
_cell_formula_units_Z 56
_cell_length_a 13.641922
_cell_length_b 13.641922
_cell_length_c 12.129663
_cell_angle_alpha 90.000000
_cell_angle_beta 90.000000
_cell_angle_gamma 90.000000
_cell_volume 2257.354979
_symmetry_space_group_name_H-M "P 41 2 2"
_symmetry_group_IT_number 91
_symmetry_cell_setting 'tetragonal'
loop_
_space_group_symop_operation_xyz
x,y,z
-y,x,1/4+z
-x,-y,1/2+z
y,-x,3/4+z
x,-y,1/2-z
-x,y,-z
y,x,3/4-z
-y,-x,1/4-z
loop_
_atom_site_type_symbol
_atom_site_label
_atom_site_fract_x
_atom_site_fract_y
_atom_site_fract_z
Si Si1 0.908917 0.444130 0.079242
Si Si2 0.769340 0.868078 0.647839
Si Si3 0.358092 0.507055 0.374727
Si Si4 0.014322 0.153805 0.121391
Si Si5 0.656255 0.020704 0.526750
Si Si6 0.317183 0.269258 0.753638
Si Si7 0.383684 0.182913 0.299981
O O1 0.952676 0.411931 0.197655
O O2 0.835740 0.364620 0.028077
O O3 0.854751 0.546677 0.051584
O O4 0.000000 0.449555 0.000000
O O5 0.881791 0.899909 0.637802
O O6 0.702150 0.961201 0.627463
O O7 0.747521 0.788116 0.551838
O O8 0.728264 0.819439 0.758804
O O9 0.324017 0.500000 0.250000
O O10 0.470096 0.470096 0.375000
O O11 0.333204 0.611411 0.427109
O O12 0.291079 0.426274 0.434598
O O13 0.030561 0.246657 0.200927
O O14 0.923985 0.076016 0.125000
O O15 0.000000 0.196476 0.000000
O O16 0.609427 0.115739 0.588110
O O17 0.314055 0.314055 0.875000
#
# Coordination Sequence:
#
# PCOD9548752 Si02
#       7
#     8   8   8   8   8   8   8
#     4  11  24  45  72 107 151 188 256 321 385 458
#     4  12  25  48  74 105 158 195 265 318 383 474
#     4  11  27  51  78 111 157 199 258 326 404 489
#     4  12  27  48  74 111 152 210 260 313 385 466
#     4  12  25  45  76 103 154 199 251 326 385 467
#     4  11  24  48  79 114 145 204 260 326 397 469
#     4  11  29  46  71 115 144 203 255 314 404 464
#
# _framework density 24.807797999999998
#
# number of rings (size 3 to 8) (size 9 to 14) (size 15 to 20)
#    0.000    0.571    2.857    4.286    8.000    3.429 
#    0.000    1.429    0.000    0.000    0.000    0.000 
#    0.000    0.000    0.000    0.000    0.000    0.000 
#
# Total GULP energy -312881.740880 kJ/mol
# GULP energy per Si atom -5587.173944 kJ/mol
# Density = 2.475133 g / cm^3
# Si number density = 24.807798 Si / 1000 Ang^3
#
#
#
# Elastic Constant Matrix: (Units=GPa)
#
#
# Indices 1 2 3 4 5 6 
#
# 1 86.0572 -17.3413 1.9214 0.0000 0.0000 0.0000
# 2 -17.3413 86.0534 1.9211 0.0000 0.0000 0.0000
# 3 1.9214 1.9211 94.7587 0.0000 0.0000 0.0000
# 4 0.0000 0.0000 0.0000 37.0913 0.0000 0.0000
# 5 0.0000 0.0000 0.0000 0.0000 37.0909 0.0000
# 6 0.0000 0.0000 0.0000 0.0000 0.0000 -7.5439
#
#
#
# Elastic Compliance Matrix: (Units=1/GPa)
#
#
# Indices 1 2 3 4 5 6 
#
# 1 0.012120 0.002449 -0.000295 0.000000 0.000000 0.000000
# 2 0.002449 0.012121 -0.000295 0.000000 0.000000 0.000000
# 3 -0.000295 -0.000295 0.010565 0.000000 0.000000 0.000000
# 4 0.000000 0.000000 0.000000 0.026961 0.000000 0.000000
# 5 0.000000 0.000000 0.000000 0.000000 0.026961 0.000000
# 6 0.000000 0.000000 0.000000 0.000000 0.000000 -0.132557
#
#
# Mechanical properties :
#
#
# Convention : Reuss Voigt Hill
#
# Bulk Modulus (GPa) = 25.95873 26.65241 26.30557
# Shear Modulus (GPa) = -144.07182 32.01884 -56.02649
#
# Velocity S-wave (km/s) = -7.62898 3.59650 -4.75744
# Velocity P-wave (km/s) = 8.19238 5.29276 4.42164
#
# Compressibility (1/GPa) = 0.03852269
#
# Stress axis : x y z
#
# Youngs Moduli (GPa) = 82.50632 82.50268 94.65126
#
# Poissons Ratio (x) = -0.20205 0.02796
# Poissons Ratio (y) = -0.20206 0.02796
# Poissons Ratio (z) = 0.02437 0.02437
#
# Static dielectric constant tensor:
#      x y z
#    x 1.956690 0.000000 0.000000 
#    y 0.000000 1.956690 0.000000 
#    z 0.000000 0.000000 2.077310 
# 
# From -- ./inp_files/15982.got.cif
#   From: 2010.05.17/outbox.cif.g08.bks.cpg/sg91_8_cif.got.tgz:15982.got - 2010.06.03 19:20:03.
