data_PCOD9548265
_publ_section_title
;
Structure prediction by ZEFSAII (Michael W. Deem and Ramdas Pophale) SiO2 
 PCOD9548265
Probable space group: P 41 2 2
;
_chemical_formula_sum "Si O2"
_cell_formula_units_Z 28
_cell_length_a 17.692928
_cell_length_b 17.692928
_cell_length_c 4.996110
_cell_angle_alpha 90.000000
_cell_angle_beta 90.000000
_cell_angle_gamma 90.000000
_cell_volume 1563.980782
_symmetry_space_group_name_H-M "P 41 2 2"
_symmetry_group_IT_number 91
_symmetry_cell_setting 'tetragonal'
loop_
_space_group_symop_operation_xyz
x,y,z
-y,x,1/4+z
-x,-y,1/2+z
y,-x,3/4+z
x,-y,1/2-z
-x,y,-z
y,x,3/4-z
-y,-x,1/4-z
loop_
_atom_site_type_symbol
_atom_site_label
_atom_site_fract_x
_atom_site_fract_y
_atom_site_fract_z
Si Si1 0.243714 0.655571 0.773790
Si Si2 0.167248 0.412163 0.246559
Si Si3 0.279587 0.946786 0.006153
Si Si4 0.200839 0.200839 0.375000
O O1 0.321825 0.678176 0.625000
O O2 0.193564 0.618096 0.542562
O O3 0.233965 0.603249 0.035659
O O4 0.214521 0.735106 0.898248
O O5 0.148755 0.500000 0.250000
O O6 0.096133 0.358860 0.314989
O O7 0.218198 0.879579 0.994082
O O8 0.259447 0.000000 0.250000
O O9 0.285385 0.000000 0.750000
#
# Coordination Sequence:
#
# PCOD9548265 Si02
#       4
#     8   8   8   4
#     4  11  18  36  61  80 108 161 201 243 275 323
#     4  11  23  36  55  88 127 155 186 237 294 358
#     4  11  23  36  59  86 114 159 197 236 301 348
#     4  10  22  38  62  82 112 152 218 258 272 352
#
# _framework density 17.903034999999999
#
# number of rings (size 3 to 8) (size 9 to 14) (size 15 to 20)
#    0.000    1.143    5.714    4.286    0.000    1.143 
#    0.000    0.000    0.000    1.714    0.000    0.000 
#    0.000   32.000    0.000    0.000    0.000    0.000 
#
# Total GULP energy -156014.151880 kJ/mol
# GULP energy per Si atom -5571.933996 kJ/mol
# Density = 1.786229 g / cm^3
# Si number density = 17.903035 Si / 1000 Ang^3
#
#
#
# Elastic Constant Matrix: (Units=GPa)
#
#
# Indices 1 2 3 4 5 6 
#
# 1 56.0261 76.8853 12.9625 0.0000 0.0000 0.0000
# 2 76.8853 56.0298 12.9646 0.0000 0.0000 0.0000
# 3 12.9625 12.9646 97.7771 0.0000 0.0000 0.0000
# 4 0.0000 0.0000 0.0000 22.4160 0.0000 0.0000
# 5 0.0000 0.0000 0.0000 0.0000 22.4154 0.0000
# 6 0.0000 0.0000 0.0000 0.0000 0.0000 25.3801
#
#
#
# Elastic Compliance Matrix: (Units=1/GPa)
#
#
# Indices 1 2 3 4 5 6 
#
# 1 -0.020111 0.027834 -0.001024 0.000000 0.000000 0.000000
# 2 0.027834 -0.020110 -0.001024 0.000000 0.000000 0.000000
# 3 -0.001024 -0.001024 0.010499 0.000000 0.000000 0.000000
# 4 0.000000 0.000000 0.000000 0.044611 0.000000 0.000000
# 5 0.000000 0.000000 0.000000 0.000000 0.044612 0.000000
# 6 0.000000 0.000000 0.000000 0.000000 0.000000 0.039401
#
#
# Mechanical properties :
#
#
# Convention : Reuss Voigt Hill
#
# Bulk Modulus (GPa) = 45.76702 46.16197 45.96450
# Shear Modulus (GPa) = 91.55394 21.17702 56.36548
#
# Velocity S-wave (km/s) = 7.15890 3.44302 5.61713
# Velocity P-wave (km/s) = 9.69290 6.45339 8.23404
#
# Compressibility (1/GPa) = 0.02184979
#
# Stress axis : x y z
#
# Youngs Moduli (GPa) = -49.72347 -49.72631 95.24836
#
# Poissons Ratio (x) = 1.38409 0.09757
# Poissons Ratio (y) = 1.38401 0.09749
# Poissons Ratio (z) = -0.05094 -0.05090
#
# Static dielectric constant tensor:
#      x y z
#    x 1.611450 0.000000 0.000000 
#    y 0.000000 1.611450 0.000000 
#    z 0.000000 0.000000 1.656550 
# 
# From -- ./inp_files/13911.got.cif
#   From: 2010.05.17/outbox.cif.g08.bks.cpg/sg91_7_cif.got.tgz:13911.got - 2010.06.03 19:20:03.
