data_PCOD9548999
_publ_section_title
;
Structure prediction by ZEFSAII (Michael W. Deem and Ramdas Pophale) SiO2 
 PCOD9548999
Probable space group: P 41 21 2
;
_chemical_formula_sum "Si O2"
_cell_formula_units_Z 36
_cell_length_a 14.897937
_cell_length_b 14.897937
_cell_length_c 7.303767
_cell_angle_alpha 90.000000
_cell_angle_beta 90.000000
_cell_angle_gamma 90.000000
_cell_volume 1621.060326
_symmetry_space_group_name_H-M "P 41 21 2"
_symmetry_group_IT_number 92
_symmetry_cell_setting 'tetragonal'
loop_
_space_group_symop_operation_xyz
x,y,z
1/2-y,1/2+x,1/4+z
-x,-y,1/2+z
1/2+y,1/2-x,3/4+z
1/2+x,1/2-y,3/4-z
1/2-x,1/2+y,1/4-z
y,x,-z
-y,-x,1/2-z
loop_
_atom_site_type_symbol
_atom_site_label
_atom_site_fract_x
_atom_site_fract_y
_atom_site_fract_z
Si Si1 0.547247 0.547247 0.500000
Si Si2 0.764872 0.432712 0.632217
Si Si3 0.532048 0.708332 0.713930
Si Si4 0.099806 0.160443 0.238764
Si Si5 0.397080 0.940509 0.549027
O O1 0.572555 0.610486 0.673577
O O2 0.442197 0.564612 0.465523
O O3 0.742800 0.513184 0.492016
O O4 0.725600 0.440263 0.834018
O O5 0.705988 0.349805 0.547976
O O6 0.870263 0.420550 0.612743
O O7 0.574559 0.790439 0.823880
O O8 0.438353 0.692246 0.818728
O O9 0.459921 0.916689 0.721071
#
# Coordination Sequence:
#
# PCOD9548999 Si02
#       5
#     4   8   8   8   8
#     4  10  20  34  62  92 128 162 198 260 322 404
#     4   9  20  38  59  90 117 163 212 258 315 385
#     4  10  22  37  60  93 123 166 208 257 329 383
#     4  10  21  35  64  87 128 163 201 261 337 383
#     4  10  23  42  65  87 123 173 223 274 317 384
#
# _framework density 22.207687
#
# number of rings (size 3 to 8) (size 9 to 14) (size 15 to 20)
#    0.000    2.222    0.000    2.667   15.556    1.778 
#    0.000    0.000    9.778    0.000    0.000    0.000 
#    0.000    0.000    0.000    0.000    0.000    0.000 
#
# Total GULP energy -200411.204128 kJ/mol
# GULP energy per Si atom -5566.977892 kJ/mol
# Density = 2.215714 g / cm^3
# Si number density = 22.207687 Si / 1000 Ang^3
#
#
#
# Elastic Constant Matrix: (Units=GPa)
#
#
# Indices 1 2 3 4 5 6 
#
# 1 52.5184 0.9674 -2.7245 0.0000 0.0000 0.0000
# 2 0.9674 52.5184 -2.7245 0.0000 0.0000 0.0000
# 3 -2.7245 -2.7245 65.0104 0.0000 0.0000 0.0000
# 4 0.0000 0.0000 0.0000 23.2709 0.0000 0.0000
# 5 0.0000 0.0000 0.0000 0.0000 23.2709 0.0000
# 6 0.0000 0.0000 0.0000 0.0000 0.0000 22.4539
#
#
#
# Elastic Compliance Matrix: (Units=1/GPa)
#
#
# Indices 1 2 3 4 5 6 
#
# 1 0.019087 -0.000311 0.000787 0.000000 0.000000 0.000000
# 2 -0.000311 0.019087 0.000787 0.000000 0.000000 0.000000
# 3 0.000787 0.000787 0.015448 0.000000 0.000000 0.000000
# 4 0.000000 0.000000 0.000000 0.042972 0.000000 0.000000
# 5 0.000000 0.000000 0.000000 0.000000 0.042972 0.000000
# 6 0.000000 0.000000 0.000000 0.000000 0.000000 0.044536
#
#
# Mechanical properties :
#
#
# Convention : Reuss Voigt Hill
#
# Bulk Modulus (GPa) = 17.80972 17.89824 17.85398
# Shear Modulus (GPa) = 24.96339 25.43439 25.19889
#
# Velocity S-wave (km/s) = 3.35638 3.38789 3.37217
# Velocity P-wave (km/s) = 4.80181 4.83536 4.81862
#
# Compressibility (1/GPa) = 0.05614911
#
# Stress axis : x y z
#
# Youngs Moduli (GPa) = 52.39037 52.39037 64.73282
#
# Poissons Ratio (x) = 0.01628 -0.05094
# Poissons Ratio (y) = 0.01628 -0.05094
# Poissons Ratio (z) = -0.04123 -0.04123
#
# Static dielectric constant tensor:
#      x y z
#    x 1.890210 0.000000 0.000000 
#    y 0.000000 1.890210 0.000000 
#    z 0.000000 0.000000 1.819640 
# 
# From -- ./inp_files/1228.got.cif
#   From: 2010.05.17/outbox.cif.g08.bks.cpg/sg92_1_cif.got.tgz:1228.got - 2010.06.03 19:35:17.
