data_PCOD9548759
_publ_section_title
;
Structure prediction by ZEFSAII (Michael W. Deem and Ramdas Pophale) SiO2 
 PCOD9548759
Probable space group: P 41 2 2
;
_chemical_formula_sum "Si O2"
_cell_formula_units_Z 16
_cell_length_a 5.047729
_cell_length_b 5.047729
_cell_length_c 26.149225
_cell_angle_alpha 90.000000
_cell_angle_beta 90.000000
_cell_angle_gamma 90.000000
_cell_volume 666.270958
_symmetry_space_group_name_H-M "P 41 2 2"
_symmetry_group_IT_number 91
_symmetry_cell_setting 'tetragonal'
loop_
_space_group_symop_operation_xyz
x,y,z
-y,x,1/4+z
-x,-y,1/2+z
y,-x,3/4+z
x,-y,1/2-z
-x,y,-z
y,x,3/4-z
-y,-x,1/4-z
loop_
_atom_site_type_symbol
_atom_site_label
_atom_site_fract_x
_atom_site_fract_y
_atom_site_fract_z
Si Si1 0.766436 0.619944 0.646478
Si Si2 0.886088 0.245883 0.056395
O O1 0.662466 0.337535 0.625000
O O2 0.512377 0.742866 0.674538
O O3 0.868269 0.772551 0.595840
O O4 0.007798 0.679075 0.684956
O O5 0.000000 0.259610 0.000000
#
# Coordination Sequence:
#
# PCOD9548759 Si02
#       2
#     8   8
#     4  11  24  49  71 111 152 193 254 323 376 472
#     4  11  26  49  78 112 153 207 258 321 401 468
#
# _framework density 24.014256
#
# number of rings (size 3 to 8) (size 9 to 14) (size 15 to 20)
#    0.000    1.000    5.000    1.500    7.000    2.000 
#    9.000    0.000    0.000    0.000    0.000    0.000 
#    0.000    0.000    0.000    0.000    0.000    0.000 
#
# Total GULP energy -89387.883602 kJ/mol
# GULP energy per Si atom -5586.742725 kJ/mol
# Density = 2.395960 g / cm^3
# Si number density = 24.014256 Si / 1000 Ang^3
#
#
#
# Elastic Constant Matrix: (Units=GPa)
#
#
# Indices 1 2 3 4 5 6 
#
# 1 147.6579 34.8152 -12.4338 0.0000 0.0000 0.0000
# 2 34.8152 147.6576 -12.4341 0.0000 0.0000 0.0000
# 3 -12.4338 -12.4341 95.9112 0.0000 0.0000 0.0000
# 4 0.0000 0.0000 0.0000 26.9586 0.0000 0.0000
# 5 0.0000 0.0000 0.0000 0.0000 26.9586 0.0000
# 6 0.0000 0.0000 0.0000 0.0000 0.0000 36.6254
#
#
#
# Elastic Compliance Matrix: (Units=1/GPa)
#
#
# Indices 1 2 3 4 5 6 
#
# 1 0.007220 -0.001642 0.000723 0.000000 0.000000 0.000000
# 2 -0.001642 0.007220 0.000723 0.000000 0.000000 0.000000
# 3 0.000723 0.000723 0.010614 0.000000 0.000000 0.000000
# 4 0.000000 0.000000 0.000000 0.037094 0.000000 0.000000
# 5 0.000000 0.000000 0.000000 0.000000 0.037094 0.000000
# 6 0.000000 0.000000 0.000000 0.000000 0.000000 0.027303
#
#
# Mechanical properties :
#
#
# Convention : Reuss Voigt Hill
#
# Bulk Modulus (GPa) = 40.54418 45.68014 43.11216
# Shear Modulus (GPa) = 36.99389 43.52715 40.26052
#
# Velocity S-wave (km/s) = 3.92917 4.26203 4.09898
# Velocity P-wave (km/s) = 6.12410 6.57900 6.35562
#
# Compressibility (1/GPa) = 0.02466445
#
# Stress axis : x y z
#
# Youngs Moduli (GPa) = 138.49726 138.49696 94.21668
#
# Poissons Ratio (x) = 0.22735 -0.06814
# Poissons Ratio (y) = 0.22735 -0.06814
# Poissons Ratio (z) = -0.10016 -0.10017
#
# Static dielectric constant tensor:
#      x y z
#    x 1.984880 0.000000 0.000000 
#    y 0.000000 1.984880 0.000000 
#    z 0.000000 0.000000 1.868140 
# 
# From -- ./inp_files/6476.got.cif
#   From: 2010.05.17/outbox.cif.g08.bks.cpg/sg91_4_cif.got.tgz:6476.got - 2010.06.03 19:20:03.
