data_PCOD9548997
_publ_section_title
;
Structure prediction by ZEFSAII (Michael W. Deem and Ramdas Pophale) SiO2 
 PCOD9548997
Probable space group: P 41 21 2
;
_chemical_formula_sum "Si O2"
_cell_formula_units_Z 40
_cell_length_a 17.928037
_cell_length_b 17.928037
_cell_length_c 4.981243
_cell_angle_alpha 90.000000
_cell_angle_beta 90.000000
_cell_angle_gamma 90.000000
_cell_volume 1601.043781
_symmetry_space_group_name_H-M "P 41 21 2"
_symmetry_group_IT_number 92
_symmetry_cell_setting 'tetragonal'
loop_
_space_group_symop_operation_xyz
x,y,z
1/2-y,1/2+x,1/4+z
-x,-y,1/2+z
1/2+y,1/2-x,3/4+z
1/2+x,1/2-y,3/4-z
1/2-x,1/2+y,1/4-z
y,x,-z
-y,-x,1/2-z
loop_
_atom_site_type_symbol
_atom_site_label
_atom_site_fract_x
_atom_site_fract_y
_atom_site_fract_z
Si Si1 0.878009 0.278115 0.403434
Si Si2 0.496088 0.888330 0.876512
Si Si3 0.641453 0.182999 0.611904
Si Si4 0.848967 0.041123 0.850167
Si Si5 0.556510 0.332568 0.612819
O O1 0.850847 0.301319 0.107983
O O2 0.890227 0.195069 0.507747
O O3 0.960961 0.313504 0.452878
O O4 0.822423 0.320348 0.602177
O O5 0.435443 0.865521 0.102208
O O6 0.443435 0.935952 0.686730
O O7 0.613844 0.265786 0.553848
O O8 0.927071 0.072930 0.750000
O O9 0.809424 0.005191 0.587662
O O10 0.855205 0.981796 0.087063
O O11 0.600661 0.399340 0.750000
#
# Coordination Sequence:
#
# PCOD9548997 Si02
#       5
#     8   8   8   8   8
#     4  11  24  42  71 106 150 197 244 299 368 452
#     4  10  20  34  62 102 146 192 244 282 356 430
#     4  11  24  42  71 106 150 197 244 299 368 452
#     4  12  27  50  78 111 148 195 253 319 386 446
#     4  12  27  50  78 111 148 195 253 319 386 446
#
# _framework density 24.983701
#
# number of rings (size 3 to 8) (size 9 to 14) (size 15 to 20)
#    0.000    0.800    2.000    4.800    5.600    2.400 
#    0.000    2.000    0.000    0.000    0.000    0.000 
#    0.000    0.000    0.000    0.000    0.000    0.000 
#
# Total GULP energy -223891.459161 kJ/mol
# GULP energy per Si atom -5597.286479 kJ/mol
# Density = 2.492684 g / cm^3
# Si number density = 24.983701 Si / 1000 Ang^3
#
#
#
# Elastic Constant Matrix: (Units=GPa)
#
#
# Indices 1 2 3 4 5 6 
#
# 1 55.2947 39.2010 24.2728 0.0000 0.0000 0.0000
# 2 39.2010 55.2951 24.2734 0.0000 0.0000 0.0000
# 3 24.2728 24.2734 100.5699 0.0000 0.0000 0.0000
# 4 0.0000 0.0000 0.0000 35.6324 0.0000 0.0000
# 5 0.0000 0.0000 0.0000 0.0000 35.6323 0.0000
# 6 0.0000 0.0000 0.0000 0.0000 0.0000 28.5041
#
#
#
# Elastic Compliance Matrix: (Units=1/GPa)
#
#
# Indices 1 2 3 4 5 6 
#
# 1 0.037108 -0.025027 -0.002916 0.000000 0.000000 0.000000
# 2 -0.025027 0.037108 -0.002916 0.000000 0.000000 0.000000
# 3 -0.002916 -0.002916 0.011351 0.000000 0.000000 0.000000
# 4 0.000000 0.000000 0.000000 0.028064 0.000000 0.000000
# 5 0.000000 0.000000 0.000000 0.000000 0.028064 0.000000
# 6 0.000000 0.000000 0.000000 0.000000 0.000000 0.035083
#
#
# Mechanical properties :
#
#
# Convention : Reuss Voigt Hill
#
# Bulk Modulus (GPa) = 41.93076 42.96155 42.44616
# Shear Modulus (GPa) = 20.28851 28.18127 24.23489
#
# Velocity S-wave (km/s) = 2.85278 3.36219 3.11791
# Velocity P-wave (km/s) = 5.26030 5.68380 5.47615
#
# Compressibility (1/GPa) = 0.02384884
#
# Stress axis : x y z
#
# Youngs Moduli (GPa) = 26.94847 26.94857 88.09982
#
# Poissons Ratio (x) = 0.67445 0.25686
# Poissons Ratio (y) = 0.67445 0.25688
# Poissons Ratio (z) = 0.07857 0.07858
#
# Static dielectric constant tensor:
#      x y z
#    x 2.025750 0.000000 0.000000 
#    y 0.000000 2.025750 0.000000 
#    z 0.000000 0.000000 1.959750 
# 
# From -- ./inp_files/418.got.cif
#   From: 2010.05.17/outbox.cif.g08.bks.cpg/sg92_1_cif.got.tgz:418.got - 2010.06.03 19:35:17.
