data_PCOD9548091
_publ_section_title
;
Structure prediction by ZEFSAII (Michael W. Deem and Ramdas Pophale) SiO2 
 PCOD9548091
Probable space group: P 41 2 2
;
_chemical_formula_sum "Si O2"
_cell_formula_units_Z 40
_cell_length_a 11.873913
_cell_length_b 11.873913
_cell_length_c 14.413190
_cell_angle_alpha 90.000000
_cell_angle_beta 90.000000
_cell_angle_gamma 90.000000
_cell_volume 2032.112919
_symmetry_space_group_name_H-M "P 41 2 2"
_symmetry_group_IT_number 91
_symmetry_cell_setting 'tetragonal'
loop_
_space_group_symop_operation_xyz
x,y,z
-y,x,1/4+z
-x,-y,1/2+z
y,-x,3/4+z
x,-y,1/2-z
-x,y,-z
y,x,3/4-z
-y,-x,1/4-z
loop_
_atom_site_type_symbol
_atom_site_label
_atom_site_fract_x
_atom_site_fract_y
_atom_site_fract_z
Si Si1 0.668577 0.700637 0.081731
Si Si2 0.658128 0.878058 0.296692
Si Si3 0.461422 0.242824 0.316700
Si Si4 0.080691 0.372671 0.280148
Si Si5 0.844281 0.710470 0.242119
O O1 0.541902 0.685615 0.116862
O O2 0.759446 0.668152 0.161214
O O3 0.690120 0.626276 0.992986
O O4 0.673824 0.831957 0.047767
O O5 0.554468 0.812253 0.250842
O O6 0.778946 0.825171 0.268160
O O7 0.649642 0.860626 0.407693
O O8 0.652489 0.000000 0.250000
O O9 0.394772 0.150447 0.376419
O O10 0.046112 0.500000 0.250000
O O11 0.972031 0.294887 0.294209
#
# Coordination Sequence:
#
# PCOD9548091 Si02
#       5
#     8   8   8   8   8
#     4  10  22  39  65  92 125 167 211 261 316 373
#     4  10  21  39  64  94 126 168 201 258 326 369
#     4  10  22  39  65  88 128 168 213 257 316 381
#     4  10  21  39  64  89 120 166 208 253 318 376
#     4  10  21  36  63  94 125 154 212 261 302 383
#
# _framework density 19.683947
#
# number of rings (size 3 to 8) (size 9 to 14) (size 15 to 20)
#    0.000    2.000    0.000    4.200    5.600    0.000 
#    0.000    0.000   96.800    0.000    0.000    0.000 
#    0.000    0.000    0.000    0.000    0.000    0.000 
#
# Total GULP energy -222900.890150 kJ/mol
# GULP energy per Si atom -5572.522254 kJ/mol
# Density = 1.963915 g / cm^3
# Si number density = 19.683947 Si / 1000 Ang^3
#
#
#
# Elastic Constant Matrix: (Units=GPa)
#
#
# Indices 1 2 3 4 5 6 
#
# 1 79.9914 58.2901 43.6941 0.0000 0.0000 0.0000
# 2 58.2901 79.9914 43.6941 0.0000 0.0000 0.0000
# 3 43.6941 43.6941 109.7050 0.0000 0.0000 0.0000
# 4 0.0000 0.0000 0.0000 27.9931 0.0000 0.0000
# 5 0.0000 0.0000 0.0000 0.0000 27.9931 0.0000
# 6 0.0000 0.0000 0.0000 0.0000 0.0000 0.7316
#
#
#
# Elastic Compliance Matrix: (Units=1/GPa)
#
#
# Indices 1 2 3 4 5 6 
#
# 1 0.027872 -0.018208 -0.003849 0.000000 0.000000 0.000000
# 2 -0.018208 0.027872 -0.003849 0.000000 0.000000 0.000000
# 3 -0.003849 -0.003849 0.012181 0.000000 0.000000 0.000000
# 4 0.000000 0.000000 0.000000 0.035723 0.000000 0.000000
# 5 0.000000 0.000000 0.000000 0.000000 0.035723 0.000000
# 6 0.000000 0.000000 0.000000 0.000000 0.000000 1.366928
#
#
# Mechanical properties :
#
#
# Convention : Reuss Voigt Hill
#
# Bulk Modulus (GPa) = 62.06063 62.33829 62.19946
# Shear Modulus (GPa) = 3.19799 19.61087 11.40443
#
# Velocity S-wave (km/s) = 1.27601 3.15983 2.40964
# Velocity P-wave (km/s) = 5.81102 6.71201 6.27770
#
# Compressibility (1/GPa) = 0.01611328
#
# Stress axis : x y z
#
# Youngs Moduli (GPa) = 35.87818 35.87818 82.09208
#
# Poissons Ratio (x) = 0.65327 0.31598
# Poissons Ratio (y) = 0.65327 0.31598
# Poissons Ratio (z) = 0.13810 0.13810
#
# Static dielectric constant tensor:
#      x y z
#    x 1.685790 0.000000 0.000000 
#    y 0.000000 1.685790 0.000000 
#    z 0.000000 0.000000 1.768060 
# 
# From -- ./inp_files/4722.got.cif
#   From: 2010.05.17/outbox.cif.g08.bks.cpg/sg91_3_cif.got.tgz:4722.got - 2010.06.03 19:20:03.
