data_PCOD9548122
_publ_section_title
;
Structure prediction by ZEFSAII (Michael W. Deem and Ramdas Pophale) SiO2 
 PCOD9548122
Probable space group: P 41 2 2
;
_chemical_formula_sum "Si O2"
_cell_formula_units_Z 48
_cell_length_a 14.157383
_cell_length_b 14.157383
_cell_length_c 12.319581
_cell_angle_alpha 90.000000
_cell_angle_beta 90.000000
_cell_angle_gamma 90.000000
_cell_volume 2469.232018
_symmetry_space_group_name_H-M "P 41 2 2"
_symmetry_group_IT_number 91
_symmetry_cell_setting 'tetragonal'
loop_
_space_group_symop_operation_xyz
x,y,z
-y,x,1/4+z
-x,-y,1/2+z
y,-x,3/4+z
x,-y,1/2-z
-x,y,-z
y,x,3/4-z
-y,-x,1/4-z
loop_
_atom_site_type_symbol
_atom_site_label
_atom_site_fract_x
_atom_site_fract_y
_atom_site_fract_z
Si Si1 0.384956 0.066567 0.513269
Si Si2 0.403076 0.860807 0.569832
Si Si3 0.233925 0.093845 0.320383
Si Si4 0.792879 0.432625 0.940069
Si Si5 0.634792 0.252865 0.715487
Si Si6 0.604075 0.324872 0.952734
O O1 0.500000 0.060817 0.500000
O O2 0.314387 0.077079 0.412043
O O3 0.373766 0.152825 0.597962
O O4 0.357356 0.962791 0.557695
O O5 0.500000 0.862708 0.500000
O O6 0.422629 0.845084 0.695728
O O7 0.357558 0.766440 0.519288
O O8 0.141717 0.141717 0.375000
O O9 0.285797 0.176548 0.251982
O O10 0.217354 0.000000 0.250000
O O11 0.793738 0.542958 0.911447
O O12 0.684770 0.402937 0.957673
O O13 0.679470 0.320531 0.625000
O O14 0.598203 0.299756 0.825752
O O15 0.500000 0.348999 0.000000
#
# Coordination Sequence:
#
# PCOD9548122 Si02
#       6
#     8   8   8   8   8   8
#     4  11  23  36  64  99 128 168 222 283 348 400
#     4  10  21  38  59  88 120 170 221 278 344 411
#     4  11  24  43  71 101 137 179 224 281 349 417
#     4  12  22  39  61  89 133 170 232 287 332 408
#     4  11  23  39  59  91 129 173 224 288 343 401
#     4  11  23  40  60  85 128 184 231 270 342 418
#
# _framework density 19.439243000000001
#
# number of rings (size 3 to 8) (size 9 to 14) (size 15 to 20)
#    0.000    1.000    5.000    4.000    2.333    0.000 
#    3.000    0.000    0.000    6.000    0.000    0.000 
#    0.000    0.000    0.000    0.000    0.000    0.000 
#
# Total GULP energy -267668.525032 kJ/mol
# GULP energy per Si atom -5576.427605 kJ/mol
# Density = 1.939500 g / cm^3
# Si number density = 19.439243 Si / 1000 Ang^3
#
#
#
# Elastic Constant Matrix: (Units=GPa)
#
#
# Indices 1 2 3 4 5 6 
#
# 1 103.8245 52.1489 45.7349 0.0000 0.0000 0.0000
# 2 52.1489 103.8229 45.7357 0.0000 0.0000 0.0000
# 3 45.7349 45.7357 102.3345 0.0000 0.0000 0.0000
# 4 0.0000 0.0000 0.0000 27.6130 0.0000 0.0000
# 5 0.0000 0.0000 0.0000 0.0000 27.6125 0.0000
# 6 0.0000 0.0000 0.0000 0.0000 0.0000 10.9767
#
#
#
# Elastic Compliance Matrix: (Units=1/GPa)
#
#
# Indices 1 2 3 4 5 6 
#
# 1 0.014020 -0.005332 -0.003883 0.000000 0.000000 0.000000
# 2 -0.005332 0.014020 -0.003883 0.000000 0.000000 0.000000
# 3 -0.003883 -0.003883 0.013243 0.000000 0.000000 0.000000
# 4 0.000000 0.000000 0.000000 0.036215 0.000000 0.000000
# 5 0.000000 0.000000 0.000000 0.000000 0.036216 0.000000
# 6 0.000000 0.000000 0.000000 0.000000 0.000000 0.091102
#
#
# Mechanical properties :
#
#
# Convention : Reuss Voigt Hill
#
# Bulk Modulus (GPa) = 66.27977 66.35787 66.31882
# Shear Modulus (GPa) = 21.18283 24.33127 22.75705
#
# Velocity S-wave (km/s) = 3.30463 3.54172 3.42523
# Velocity P-wave (km/s) = 6.98074 7.13689 7.05924
#
# Compressibility (1/GPa) = 0.01508756
#
# Stress axis : x y z
#
# Youngs Moduli (GPa) = 71.32652 71.32452 75.51286
#
# Poissons Ratio (x) = 0.38027 0.29321
# Poissons Ratio (y) = 0.38028 0.29324
# Poissons Ratio (z) = 0.27696 0.27697
#
# Static dielectric constant tensor:
#      x y z
#    x 1.720500 0.000000 0.000000 
#    y 0.000000 1.720500 0.000000 
#    z 0.000000 0.000000 1.707480 
# 
# From -- ./inp_files/3814.got.cif
#   From: 2010.05.17/outbox.cif.g08.bks.cpg/sg91_2_cif.got.tgz:3814.got - 2010.06.03 19:20:03.
