data_PCOD9548866
_publ_section_title
;
Structure prediction by ZEFSAII (Michael W. Deem and Ramdas Pophale) SiO2 
 PCOD9548866
Probable space group: P 41 21 2
;
_chemical_formula_sum "Si O2"
_cell_formula_units_Z 64
_cell_length_a 13.796155
_cell_length_b 13.796155
_cell_length_c 18.883561
_cell_angle_alpha 90.000000
_cell_angle_beta 90.000000
_cell_angle_gamma 90.000000
_cell_volume 3594.181675
_symmetry_space_group_name_H-M "P 41 21 2"
_symmetry_group_IT_number 92
_symmetry_cell_setting 'tetragonal'
loop_
_space_group_symop_operation_xyz
x,y,z
1/2-y,1/2+x,1/4+z
-x,-y,1/2+z
1/2+y,1/2-x,3/4+z
1/2+x,1/2-y,3/4-z
1/2-x,1/2+y,1/4-z
y,x,-z
-y,-x,1/2-z
loop_
_atom_site_type_symbol
_atom_site_label
_atom_site_fract_x
_atom_site_fract_y
_atom_site_fract_z
Si Si1 0.792666 0.577745 0.494772
Si Si2 0.031938 0.106696 0.704778
Si Si3 0.550906 0.095649 0.555959
Si Si4 0.908398 0.820428 0.677727
Si Si5 0.818666 0.304637 0.603464
Si Si6 0.531760 0.971266 0.695473
Si Si7 0.094932 0.766423 0.408880
Si Si8 0.460942 0.512695 0.169061
O O1 0.717690 0.499537 0.462783
O O2 0.798246 0.662593 0.437696
O O3 0.896588 0.530597 0.503286
O O4 0.761750 0.602022 0.575255
O O5 0.130826 0.082896 0.744897
O O6 0.949616 0.050385 0.750000
O O7 0.020660 0.065068 0.626793
O O8 0.556119 0.210336 0.572158
O O9 0.519578 0.033395 0.624179
O O10 0.667633 0.074302 0.548475
O O11 0.480612 0.066995 0.490818
O O12 0.793304 0.831808 0.660574
O O13 0.967320 0.884841 0.621371
O O14 0.903659 0.375251 0.573385
O O15 0.819232 0.195811 0.572354
O O16 0.014514 0.847481 0.415614
O O17 0.488507 0.511493 0.250000
#
# Coordination Sequence:
#
# PCOD9548866 Si02
#       8
#     8   8   8   8   8   8   8   8
#     4  11  17  32  56  84 118 145 176 235 296 358
#     4  10  17  35  56  78 111 148 185 226 293 350
#     4  10  23  35  52  79 120 157 190 232 283 355
#     4  10  21  36  55  83 115 157 191 231 304 357
#     4  11  19  32  58  88 111 150 189 230 297 357
#     4  11  21  35  53  83 118 155 193 230 287 355
#     4  10  20  34  54  88 120 144 184 240 303 350
#     4  11  22  33  56  89 111 141 189 249 294 340
#
# _framework density 17.806557000000002
#
# number of rings (size 3 to 8) (size 9 to 14) (size 15 to 20)
#    0.000    1.500    6.250    1.125    1.750    2.000 
#    0.000    1.250    0.000    0.000    0.000    0.000 
#    0.000    0.000    0.000    0.000    0.000    0.000 
#
# Total GULP energy -356415.838578 kJ/mol
# GULP energy per Si atom -5568.997478 kJ/mol
# Density = 1.776603 g / cm^3
# Si number density = 17.806557 Si / 1000 Ang^3
#
#
#
# Elastic Constant Matrix: (Units=GPa)
#
#
# Indices 1 2 3 4 5 6 
#
# 1 40.6469 -1.6267 21.3378 0.0000 0.0000 0.0000
# 2 -1.6267 40.6456 21.3376 0.0000 0.0000 0.0000
# 3 21.3378 21.3376 92.8832 0.0000 0.0000 0.0000
# 4 0.0000 0.0000 0.0000 22.6311 0.0000 0.0000
# 5 0.0000 0.0000 0.0000 0.0000 22.6314 0.0000
# 6 0.0000 0.0000 0.0000 0.0000 0.0000 7.9502
#
#
#
# Elastic Compliance Matrix: (Units=1/GPa)
#
#
# Indices 1 2 3 4 5 6 
#
# 1 0.028941 0.005286 -0.007863 0.000000 0.000000 0.000000
# 2 0.005286 0.028942 -0.007863 0.000000 0.000000 0.000000
# 3 -0.007863 -0.007863 0.014379 0.000000 0.000000 0.000000
# 4 0.000000 0.000000 0.000000 0.044187 0.000000 0.000000
# 5 0.000000 0.000000 0.000000 0.000000 0.044186 0.000000
# 6 0.000000 0.000000 0.000000 0.000000 0.000000 0.125783
#
#
# Mechanical properties :
#
#
# Convention : Reuss Voigt Hill
#
# Bulk Modulus (GPa) = 19.46187 28.47480 23.96834
# Shear Modulus (GPa) = 15.41181 19.51767 17.46474
#
# Velocity S-wave (km/s) = 2.94515 3.31432 3.13518
# Velocity P-wave (km/s) = 4.74537 5.53825 5.15707
#
# Compressibility (1/GPa) = 0.05138253
#
# Stress axis : x y z
#
# Youngs Moduli (GPa) = 34.55264 34.55143 69.54627
#
# Poissons Ratio (x) = -0.18264 0.54684
# Poissons Ratio (y) = -0.18265 0.54685
# Poissons Ratio (z) = 0.27169 0.27168
#
# Static dielectric constant tensor:
#      x y z
#    x 1.655840 0.000000 0.000000 
#    y 0.000000 1.655840 0.000000 
#    z 0.000000 0.000000 1.627790 
# 
# From -- ./inp_files/3236.got.cif
#   From: 2010.05.17/outbox.cif.g08.bks.cpg/sg92_2_cif.got.tgz:3236.got - 2010.06.03 19:35:17.
