data_PCOD9548944
_publ_section_title
;
Structure prediction by ZEFSAII (Michael W. Deem and Ramdas Pophale) SiO2 
 PCOD9548944
Probable space group: P 41 21 2
;
_chemical_formula_sum "Si O2"
_cell_formula_units_Z 48
_cell_length_a 10.892895
_cell_length_b 10.892895
_cell_length_c 20.265613
_cell_angle_alpha 90.000000
_cell_angle_beta 90.000000
_cell_angle_gamma 90.000000
_cell_volume 2404.619583
_symmetry_space_group_name_H-M "P 41 21 2"
_symmetry_group_IT_number 92
_symmetry_cell_setting 'tetragonal'
loop_
_space_group_symop_operation_xyz
x,y,z
1/2-y,1/2+x,1/4+z
-x,-y,1/2+z
1/2+y,1/2-x,3/4+z
1/2+x,1/2-y,3/4-z
1/2-x,1/2+y,1/4-z
y,x,-z
-y,-x,1/2-z
loop_
_atom_site_type_symbol
_atom_site_label
_atom_site_fract_x
_atom_site_fract_y
_atom_site_fract_z
Si Si1 0.940394 0.564264 0.773040
Si Si2 0.331512 0.779926 0.184606
Si Si3 0.062584 0.011162 0.921701
Si Si4 0.891480 0.185215 0.608995
Si Si5 0.797708 0.218813 0.463595
Si Si6 0.909706 0.459234 0.403985
O O1 0.858354 0.447381 0.793808
O O2 0.842630 0.676346 0.772991
O O3 0.002967 0.519886 0.704324
O O4 0.036310 0.578811 0.832788
O O5 0.260913 0.739088 0.250000
O O6 0.382596 0.656759 0.149723
O O7 0.238705 0.853626 0.139224
O O8 0.931113 0.018196 0.886993
O O9 0.135083 0.883873 0.918452
O O10 0.039057 0.039057 0.000000
O O11 0.868079 0.213712 0.532962
O O12 0.933062 0.310794 0.643060
O O13 0.827329 0.349769 0.433255
#
# Coordination Sequence:
#
# PCOD9548944 Si02
#       6
#     8   8   8   8   8   8
#     4  11  24  43  64  95 133 166 216 271 320 386
#     4  10  19  35  61  90 123 158 198 263 325 367
#     4   8  19  36  58  82 116 163 202 242 312 383
#     4  11  21  36  64  90 119 160 214 261 312 385
#     4  10  23  43  61  86 127 172 208 260 325 383
#     4  12  24  40  65  98 124 167 217 267 319 380
#
# _framework density 19.961579
#
# number of rings (size 3 to 8) (size 9 to 14) (size 15 to 20)
#    0.000    1.667    3.333    2.000    4.667    0.000 
#    0.000    0.833    0.000    0.000    0.000    0.000 
#    0.000    0.000    0.000    0.000    0.000    0.000 
#
# Total GULP energy -267694.609529 kJ/mol
# GULP energy per Si atom -5576.971032 kJ/mol
# Density = 1.991615 g / cm^3
# Si number density = 19.961579 Si / 1000 Ang^3
#
#
#
# Elastic Constant Matrix: (Units=GPa)
#
#
# Indices 1 2 3 4 5 6 
#
# 1 60.5646 10.7986 19.4434 0.0000 0.0000 0.0000
# 2 10.7986 60.5642 19.4434 0.0000 0.0000 0.0000
# 3 19.4434 19.4434 58.6965 0.0000 0.0000 0.0000
# 4 0.0000 0.0000 0.0000 23.1708 0.0000 0.0000
# 5 0.0000 0.0000 0.0000 0.0000 23.1709 0.0000
# 6 0.0000 0.0000 0.0000 0.0000 0.0000 30.7455
#
#
#
# Elastic Compliance Matrix: (Units=1/GPa)
#
#
# Indices 1 2 3 4 5 6 
#
# 1 0.018597 -0.001497 -0.005664 0.000000 0.000000 0.000000
# 2 -0.001497 0.018597 -0.005664 0.000000 0.000000 0.000000
# 3 -0.005664 -0.005664 0.020789 0.000000 0.000000 0.000000
# 4 0.000000 0.000000 0.000000 0.043158 0.000000 0.000000
# 5 0.000000 0.000000 0.000000 0.000000 0.043158 0.000000
# 6 0.000000 0.000000 0.000000 0.000000 0.000000 0.032525
#
#
# Mechanical properties :
#
#
# Convention : Reuss Voigt Hill
#
# Bulk Modulus (GPa) = 30.92982 31.02178 30.97580
# Shear Modulus (GPa) = 23.44642 24.09341 23.76992
#
# Velocity S-wave (km/s) = 3.43093 3.47794 3.45452
# Velocity P-wave (km/s) = 5.58779 5.63051 5.60919
#
# Compressibility (1/GPa) = 0.03233126
#
# Stress axis : x y z
#
# Youngs Moduli (GPa) = 53.77297 53.77260 48.10148
#
# Poissons Ratio (x) = 0.08052 0.27246
# Poissons Ratio (y) = 0.08052 0.27246
# Poissons Ratio (z) = 0.30458 0.30458
#
# Static dielectric constant tensor:
#      x y z
#    x 1.733500 0.000000 0.000000 
#    y 0.000000 1.733500 0.000000 
#    z 0.000000 0.000000 1.731200 
# 
# From -- ./inp_files/3099.got.cif
#   From: 2010.05.17/outbox.cif.g08.bks.cpg/sg92_2_cif.got.tgz:3099.got - 2010.06.03 19:35:17.
