data_PCOD9548105
_publ_section_title
;
Structure prediction by ZEFSAII (Michael W. Deem and Ramdas Pophale) SiO2 
 PCOD9548105
Probable space group: P 41 2 2
;
_chemical_formula_sum "Si O2"
_cell_formula_units_Z 32
_cell_length_a 8.457374
_cell_length_b 8.457374
_cell_length_c 15.792443
_cell_angle_alpha 90.000000
_cell_angle_beta 90.000000
_cell_angle_gamma 90.000000
_cell_volume 1129.588834
_symmetry_space_group_name_H-M "P 41 2 2"
_symmetry_group_IT_number 91
_symmetry_cell_setting 'tetragonal'
loop_
_space_group_symop_operation_xyz
x,y,z
-y,x,1/4+z
-x,-y,1/2+z
y,-x,3/4+z
x,-y,1/2-z
-x,y,-z
y,x,3/4-z
-y,-x,1/4-z
loop_
_atom_site_type_symbol
_atom_site_label
_atom_site_fract_x
_atom_site_fract_y
_atom_site_fract_z
Si Si1 0.066902 0.657246 0.086981
Si Si2 0.823725 0.008344 0.509920
Si Si3 0.655185 0.786026 0.119251
Si Si4 0.672555 0.564395 0.458569
O O1 0.140346 0.814720 0.046924
O O2 0.689430 0.618742 0.071722
O O3 0.656038 0.773299 0.221263
O O4 0.947431 0.719450 0.160555
O O5 0.732424 0.059019 0.425110
O O6 0.000000 0.940586 0.500000
O O7 0.564968 0.500000 0.250000
O O8 0.463987 0.819852 0.114529
O O9 0.668945 0.668945 0.375000
O O10 0.000000 0.419908 0.500000
#
# Coordination Sequence:
#
# PCOD9548105 Si02
#       4
#     8   8   8   8
#     4  10  21  37  62  93 131 174 242 300 344 426
#     4  10  21  37  63  94 129 178 232 286 357 441
#     4  11  18  35  63  93 131 168 235 289 359 429
#     4   9  18  28  54  92 126 164 208 280 363 425
#
# _framework density 28.328893000000001
#
# number of rings (size 3 to 8) (size 9 to 14) (size 15 to 20)
#    0.000    2.000    2.500    2.250    7.000    0.000 
#    0.000    1.250   27.500    1.500    0.000    0.000 
#    0.000    0.000    0.000    0.000    0.000    0.000 
#
# Total GULP energy -178492.631373 kJ/mol
# GULP energy per Si atom -5577.894730 kJ/mol
# Density = 2.826442 g / cm^3
# Si number density = 28.328893 Si / 1000 Ang^3
#
#
#
# Elastic Constant Matrix: (Units=GPa)
#
#
# Indices 1 2 3 4 5 6 
#
# 1 73.6218 49.8017 57.0759 0.0000 0.0000 0.0000
# 2 49.8017 73.6218 57.0759 0.0000 0.0000 0.0000
# 3 57.0759 57.0759 238.9253 0.0000 0.0000 0.0000
# 4 0.0000 0.0000 0.0000 45.5341 0.0000 0.0000
# 5 0.0000 0.0000 0.0000 0.0000 45.5341 0.0000
# 6 0.0000 0.0000 0.0000 0.0000 0.0000 18.7536
#
#
#
# Elastic Compliance Matrix: (Units=1/GPa)
#
#
# Indices 1 2 3 4 5 6 
#
# 1 0.026191 -0.015791 -0.002484 0.000000 0.000000 0.000000
# 2 -0.015791 0.026191 -0.002484 0.000000 0.000000 0.000000
# 3 -0.002484 -0.002484 0.005372 0.000000 0.000000 0.000000
# 4 0.000000 0.000000 0.000000 0.021962 0.000000 0.000000
# 5 0.000000 0.000000 0.000000 0.000000 0.021962 0.000000
# 6 0.000000 0.000000 0.000000 0.000000 0.000000 0.053323
#
#
# Mechanical properties :
#
#
# Convention : Reuss Voigt Hill
#
# Bulk Modulus (GPa) = 61.59653 79.34178 70.46916
# Shear Modulus (GPa) = 24.76098 36.77870 30.76984
#
# Velocity S-wave (km/s) = 2.95965 3.60707 3.29928
# Velocity P-wave (km/s) = 5.78532 6.73915 6.28037
#
# Compressibility (1/GPa) = 0.01623468
#
# Stress axis : x y z
#
# Youngs Moduli (GPa) = 38.18155 38.18155 186.13694
#
# Poissons Ratio (x) = 0.60291 0.46244
# Poissons Ratio (y) = 0.60291 0.46244
# Poissons Ratio (z) = 0.09486 0.09486
#
# Static dielectric constant tensor:
#      x y z
#    x 2.496150 0.000000 0.000000 
#    y 0.000000 2.496150 0.000000 
#    z 0.000000 0.000000 2.414560 
# 
# From -- ./inp_files/6000.got.cif
#   From: 2010.05.17/outbox.cif.g08.bks.cpg/sg91_3_cif.got.tgz:6000.got - 2010.06.03 19:20:03.
