data_PCOD9548430
_publ_section_title
;
Structure prediction by ZEFSAII (Michael W. Deem and Ramdas Pophale) SiO2 
 PCOD9548430
Probable space group: P 41 2 2
;
_chemical_formula_sum "Si O2"
_cell_formula_units_Z 48
_cell_length_a 8.133625
_cell_length_b 8.133625
_cell_length_c 30.075274
_cell_angle_alpha 90.000000
_cell_angle_beta 90.000000
_cell_angle_gamma 90.000000
_cell_volume 1989.655485
_symmetry_space_group_name_H-M "P 41 2 2"
_symmetry_group_IT_number 91
_symmetry_cell_setting 'tetragonal'
loop_
_space_group_symop_operation_xyz
x,y,z
-y,x,1/4+z
-x,-y,1/2+z
y,-x,3/4+z
x,-y,1/2-z
-x,y,-z
y,x,3/4-z
-y,-x,1/4-z
loop_
_atom_site_type_symbol
_atom_site_label
_atom_site_fract_x
_atom_site_fract_y
_atom_site_fract_z
Si Si1 0.638627 0.132988 0.710499
Si Si2 0.958981 0.194122 0.747895
Si Si3 0.440904 0.921516 0.549894
Si Si4 0.765403 0.655416 0.422425
Si Si5 0.337965 0.884266 0.365865
Si Si6 0.140348 0.276707 0.060985
O O1 0.788453 0.249641 0.725053
O O2 0.458958 0.206855 0.699987
O O3 0.607176 0.000000 0.750000
O O4 0.700748 0.033197 0.666997
O O5 0.980109 0.269537 0.796792
O O6 0.131042 0.204517 0.720783
O O7 0.935490 0.000000 0.750000
O O8 0.500000 0.965262 0.500000
O O9 0.386754 0.730276 0.550964
O O10 0.549431 0.952646 0.592930
O O11 0.744553 0.744553 0.375000
O O12 0.768834 0.462298 0.412295
O O13 0.943470 0.702570 0.441659
O O14 0.196653 0.784319 0.390527
#
# Coordination Sequence:
#
# PCOD9548430 Si02
#       6
#     8   8   8   8   8   8
#     4  10  25  40  64 108 136 166 238 297 331 421
#     4  11  22  39  72  99 131 177 232 284 345 417
#     4  11  21  40  67  96 132 178 226 279 343 425
#     4   9  21  37  64  98 126 174 231 267 335 424
#     4  10  23  39  67  99 135 175 227 286 338 422
#     4  11  21  40  71  95 134 183 217 288 352 399
#
# _framework density 24.124782
#
# number of rings (size 3 to 8) (size 9 to 14) (size 15 to 20)
#    0.000    1.667    3.333    0.500    4.667    4.000 
#    0.000    0.000   25.667    0.000    0.000    0.000 
#    0.000    0.000    0.000    0.000    0.000    0.000 
#
# Total GULP energy -267730.322012 kJ/mol
# GULP energy per Si atom -5577.715042 kJ/mol
# Density = 2.406987 g / cm^3
# Si number density = 24.124782 Si / 1000 Ang^3
#
#
#
# Elastic Constant Matrix: (Units=GPa)
#
#
# Indices 1 2 3 4 5 6 
#
# 1 65.4551 10.9958 27.4061 0.0000 0.0000 0.0000
# 2 10.9958 65.4551 27.4061 0.0000 0.0000 0.0000
# 3 27.4061 27.4061 110.4514 0.0000 0.0000 0.0000
# 4 0.0000 0.0000 0.0000 39.0549 0.0000 0.0000
# 5 0.0000 0.0000 0.0000 0.0000 39.0549 0.0000
# 6 0.0000 0.0000 0.0000 0.0000 0.0000 9.4437
#
#
#
# Elastic Compliance Matrix: (Units=1/GPa)
#
#
# Indices 1 2 3 4 5 6 
#
# 1 0.017137 -0.001226 -0.003948 0.000000 0.000000 0.000000
# 2 -0.001226 0.017137 -0.003948 0.000000 0.000000 0.000000
# 3 -0.003948 -0.003948 0.011013 0.000000 0.000000 0.000000
# 4 0.000000 0.000000 0.000000 0.025605 0.000000 0.000000
# 5 0.000000 0.000000 0.000000 0.000000 0.025605 0.000000
# 6 0.000000 0.000000 0.000000 0.000000 0.000000 0.105890
#
#
# Mechanical properties :
#
#
# Convention : Reuss Voigt Hill
#
# Bulk Modulus (GPa) = 36.97836 41.44195 39.21016
# Shear Modulus (GPa) = 21.77283 29.21427 25.49355
#
# Velocity S-wave (km/s) = 3.00744 3.48367 3.25428
# Velocity P-wave (km/s) = 5.23649 5.77899 5.51441
#
# Compressibility (1/GPa) = 0.02704284
#
# Stress axis : x y z
#
# Youngs Moduli (GPa) = 58.35474 58.35474 90.80235
#
# Poissons Ratio (x) = 0.07153 0.35848
# Poissons Ratio (y) = 0.07153 0.35848
# Poissons Ratio (z) = 0.23038 0.23038
#
# Static dielectric constant tensor:
#      x y z
#    x 2.147750 0.000000 0.000000 
#    y 0.000000 2.147750 0.000000 
#    z 0.000000 0.000000 2.003310 
# 
# From -- ./inp_files/18159.got.cif
#   From: 2010.05.17/outbox.cif.g08.bks.cpg/sg91_10_cif.got.tgz:18159.got - 2010.06.03 19:20:03.
