data_PCOD9548101
_publ_section_title
;
Structure prediction by ZEFSAII (Michael W. Deem and Ramdas Pophale) SiO2 
 PCOD9548101
Probable space group: P 41 2 2
;
_chemical_formula_sum "Si O2"
_cell_formula_units_Z 32
_cell_length_a 11.709317
_cell_length_b 11.709317
_cell_length_c 9.642797
_cell_angle_alpha 90.000000
_cell_angle_beta 90.000000
_cell_angle_gamma 90.000000
_cell_volume 1322.105620
_symmetry_space_group_name_H-M "P 41 2 2"
_symmetry_group_IT_number 91
_symmetry_cell_setting 'tetragonal'
loop_
_space_group_symop_operation_xyz
x,y,z
-y,x,1/4+z
-x,-y,1/2+z
y,-x,3/4+z
x,-y,1/2-z
-x,y,-z
y,x,3/4-z
-y,-x,1/4-z
loop_
_atom_site_type_symbol
_atom_site_label
_atom_site_fract_x
_atom_site_fract_y
_atom_site_fract_z
Si Si1 0.788288 0.517722 0.938191
Si Si2 0.264050 0.127723 0.488107
Si Si3 0.393854 0.080872 0.898927
Si Si4 0.318669 0.713711 0.434088
O O1 0.824404 0.613667 0.825414
O O2 0.690105 0.423290 0.920160
O O3 0.895525 0.441355 0.991666
O O4 0.751289 0.592832 0.067035
O O5 0.167479 0.167479 0.375000
O O6 0.238141 0.199411 0.625451
O O7 0.292740 0.000390 0.541588
O O8 0.356220 0.211724 0.935208
O O9 0.500000 0.054557 0.000000
#
# Coordination Sequence:
#
# PCOD9548101 Si02
#       4
#     8   8   8   8
#     4  10  21  39  58  88 125 160 210 259 320 386
#     4  10  22  39  62  90 121 160 207 265 324 381
#     4  10  21  37  61  88 118 160 208 258 308 376
#     4  10  21  37  59  88 123 165 206 257 319 383
#
# _framework density 24.203816
#
# number of rings (size 3 to 8) (size 9 to 14) (size 15 to 20)
#    0.000    2.000    0.000    3.000    0.000   14.000 
#    0.000   35.000    0.000    9.000    0.000    0.000 
#    0.000    0.000    0.000    0.000    0.000    0.000 
#
# Total GULP energy -178136.227092 kJ/mol
# GULP energy per Si atom -5566.757097 kJ/mol
# Density = 2.414873 g / cm^3
# Si number density = 24.203816 Si / 1000 Ang^3
#
#
#
# Elastic Constant Matrix: (Units=GPa)
#
#
# Indices 1 2 3 4 5 6 
#
# 1 91.9161 21.5748 -3.9716 0.0000 0.0000 0.0000
# 2 21.5748 91.9161 -3.9716 0.0000 0.0000 0.0000
# 3 -3.9716 -3.9716 53.0675 0.0000 0.0000 0.0000
# 4 0.0000 0.0000 0.0000 21.6937 0.0000 0.0000
# 5 0.0000 0.0000 0.0000 0.0000 21.6937 0.0000
# 6 0.0000 0.0000 0.0000 0.0000 0.0000 42.5268
#
#
#
# Elastic Compliance Matrix: (Units=1/GPa)
#
#
# Indices 1 2 3 4 5 6 
#
# 1 0.011537 -0.002679 0.000663 0.000000 0.000000 0.000000
# 2 -0.002679 0.011537 0.000663 0.000000 0.000000 0.000000
# 3 0.000663 0.000663 0.018943 0.000000 0.000000 0.000000
# 4 0.000000 0.000000 0.000000 0.046096 0.000000 0.000000
# 5 0.000000 0.000000 0.000000 0.000000 0.046096 0.000000
# 6 0.000000 0.000000 0.000000 0.000000 0.000000 0.023515
#
#
# Mechanical properties :
#
#
# Convention : Reuss Voigt Hill
#
# Bulk Modulus (GPa) = 25.43873 29.35145 27.39509
# Shear Modulus (GPa) = 28.81264 32.06739 30.44002
#
# Velocity S-wave (km/s) = 3.45399 3.64385 3.55019
# Velocity P-wave (km/s) = 5.14196 5.46412 5.30549
#
# Compressibility (1/GPa) = 0.03931013
#
# Stress axis : x y z
#
# Youngs Moduli (GPa) = 86.67739 86.67739 52.78956
#
# Poissons Ratio (x) = 0.23224 -0.03499
# Poissons Ratio (y) = 0.23224 -0.03499
# Poissons Ratio (z) = -0.05746 -0.05746
#
# Static dielectric constant tensor:
#      x y z
#    x 1.991890 0.000000 0.000000 
#    y 0.000000 1.991890 0.000000 
#    z 0.000000 0.000000 2.041140 
# 
# From -- ./inp_files/19971.got.cif
#   From: 2010.05.17/outbox.cif.g08.bks.cpg/sg91_10_cif.got.tgz:19971.got - 2010.06.03 19:20:03.
