data_PCOD9548201
_publ_section_title
;
Structure prediction by ZEFSAII (Michael W. Deem and Ramdas Pophale) SiO2 
 PCOD9548201
Probable space group: P 41 2 2
;
_chemical_formula_sum "Si O2"
_cell_formula_units_Z 40
_cell_length_a 19.123146
_cell_length_b 19.123146
_cell_length_c 5.392525
_cell_angle_alpha 90.000000
_cell_angle_beta 90.000000
_cell_angle_gamma 90.000000
_cell_volume 1972.017882
_symmetry_space_group_name_H-M "P 41 2 2"
_symmetry_group_IT_number 91
_symmetry_cell_setting 'tetragonal'
loop_
_space_group_symop_operation_xyz
x,y,z
-y,x,1/4+z
-x,-y,1/2+z
y,-x,3/4+z
x,-y,1/2-z
-x,y,-z
y,x,3/4-z
-y,-x,1/4-z
loop_
_atom_site_type_symbol
_atom_site_label
_atom_site_fract_x
_atom_site_fract_y
_atom_site_fract_z
Si Si1 0.459673 0.357452 0.759924
Si Si2 0.809515 0.926922 0.363241
Si Si3 0.339751 0.103541 0.622222
Si Si4 0.325223 0.264520 0.630653
Si Si5 0.453631 0.000000 0.750000
Si Si6 0.283221 0.000000 0.250000
O O1 0.500000 0.368079 0.500000
O O2 0.393475 0.310499 0.685405
O O3 0.500000 0.325487 0.000000
O O4 0.428200 0.428200 0.875000
O O5 0.867807 0.867807 0.375000
O O6 0.740574 0.904035 0.213426
O O7 0.837456 0.000000 0.250000
O O8 0.771547 0.948852 0.614809
O O9 0.349860 0.185189 0.595179
O O10 0.400802 0.066573 0.779490
O O11 0.334718 0.053023 0.387500
O O12 0.289404 0.289404 0.375000
O O13 0.276086 0.276086 0.875000
O O14 0.500000 0.007750 0.500000
#
# Coordination Sequence:
#
# PCOD9548201 Si02
#       6
#     8   8   8   8   4   4
#     4  11  23  44  68  97 136 174 222 279 339 413
#     4  10  22  40  65  99 136 182 231 285 345 413
#     4  11  24  42  67  96 133 178 233 281 350 411
#     4  11  26  43  68 103 137 176 225 284 342 409
#     4  12  27  44  68  97 134 180 236 292 349 418
#     4  10  21  42  68  93 144 172 230 290 329 412
#
# _framework density 20.283792999999999
#
# number of rings (size 3 to 8) (size 9 to 14) (size 15 to 20)
#    0.000    1.200    3.000    4.200    5.600    4.800 
#    1.800    1.000    0.000    0.000    0.000    0.000 
#    0.000    0.000    0.000    0.000    0.000    0.000 
#
# Total GULP energy -222885.996338 kJ/mol
# GULP energy per Si atom -5572.149908 kJ/mol
# Density = 2.023763 g / cm^3
# Si number density = 20.283793 Si / 1000 Ang^3
#
#
#
# Elastic Constant Matrix: (Units=GPa)
#
#
# Indices 1 2 3 4 5 6 
#
# 1 -11.4828 183.0656 47.6095 0.0000 0.0000 0.0000
# 2 183.0656 -11.4828 47.6095 0.0000 0.0000 0.0000
# 3 47.6095 47.6095 132.6060 0.0000 0.0000 0.0000
# 4 0.0000 0.0000 0.0000 4.3311 0.0000 0.0000
# 5 0.0000 0.0000 0.0000 0.0000 4.3311 0.0000
# 6 0.0000 0.0000 0.0000 0.0000 0.0000 -20.8352
#
#
#
# Elastic Compliance Matrix: (Units=1/GPa)
#
#
# Indices 1 2 3 4 5 6 
#
# 1 0.001069 0.006209 -0.002613 0.000000 0.000000 0.000000
# 2 0.006209 0.001069 -0.002613 0.000000 0.000000 0.000000
# 3 -0.002613 -0.002613 0.009417 0.000000 0.000000 0.000000
# 4 0.000000 0.000000 0.000000 0.230888 0.000000 0.000000
# 5 0.000000 0.000000 0.000000 0.000000 0.230888 0.000000
# 6 0.000000 0.000000 0.000000 0.000000 0.000000 -0.047996
#
#
# Mechanical properties :
#
#
# Convention : Reuss Voigt Hill
#
# Bulk Modulus (GPa) = 73.95606 74.02329 73.98967
# Shear Modulus (GPa) = 11.68562 -13.67755 -0.99597
#
# Velocity S-wave (km/s) = 2.40283 -2.59956 -0.70149
# Velocity P-wave (km/s) = 6.65116 5.25002 5.99169
#
# Compressibility (1/GPa) = 0.01352154
#
# Stress axis : x y z
#
# Youngs Moduli (GPa) = 935.40636 935.40636 106.18535
#
# Poissons Ratio (x) = -5.80809 0.27747
# Poissons Ratio (y) = -5.80809 0.27747
# Poissons Ratio (z) = 2.44431 2.44431
#
# Static dielectric constant tensor:
#      x y z
#    x 1.681320 0.000000 0.000000 
#    y 0.000000 1.681320 0.000000 
#    z 0.000000 0.000000 1.779600 
# 
# From -- ./inp_files/8593.got.cif
#   From: 2010.05.17/outbox.cif.g08.bks.cpg/sg91_5_cif.got.tgz:8593.got - 2010.06.03 19:20:03.
