data_PCOD9548429
_publ_section_title
;
Structure prediction by ZEFSAII (Michael W. Deem and Ramdas Pophale) SiO2 
 PCOD9548429
Probable space group: P 41 2 2
;
_chemical_formula_sum "Si O2"
_cell_formula_units_Z 40
_cell_length_a 11.481548
_cell_length_b 11.481548
_cell_length_c 15.167095
_cell_angle_alpha 90.000000
_cell_angle_beta 90.000000
_cell_angle_gamma 90.000000
_cell_volume 1999.416623
_symmetry_space_group_name_H-M "P 41 2 2"
_symmetry_group_IT_number 91
_symmetry_cell_setting 'tetragonal'
loop_
_space_group_symop_operation_xyz
x,y,z
-y,x,1/4+z
-x,-y,1/2+z
y,-x,3/4+z
x,-y,1/2-z
-x,y,-z
y,x,3/4-z
-y,-x,1/4-z
loop_
_atom_site_type_symbol
_atom_site_label
_atom_site_fract_x
_atom_site_fract_y
_atom_site_fract_z
Si Si1 0.324117 0.704313 0.311697
Si Si2 0.527441 0.611925 0.199183
Si Si3 0.950489 0.222470 0.403406
Si Si4 0.080124 0.637967 0.246139
Si Si5 0.189550 0.002516 0.851204
O O1 0.447315 0.683316 0.265532
O O2 0.319416 0.627871 0.400291
O O3 0.301499 0.837193 0.332268
O O4 0.219069 0.656384 0.252023
O O5 0.577590 0.500000 0.250000
O O6 0.442033 0.557968 0.125000
O O7 0.904151 0.102789 0.361085
O O8 0.000000 0.195783 0.500000
O O9 0.036052 0.293772 0.340249
O O10 0.053866 0.500000 0.250000
O O11 0.025118 0.707800 0.329374
O O12 0.230047 0.000000 0.750000
O O13 0.121256 0.121256 0.875000
#
# Coordination Sequence:
#
# PCOD9548429 Si02
#       5
#     8   8   8   8   8
#     4  10  23  39  66  94 130 168 222 269 343 390
#     4   9  18  37  66  94 120 165 215 270 323 403
#     4  11  26  40  64  98 132 175 221 277 330 392
#     4  11  25  43  64 100 139 171 219 277 339 401
#     4  11  22  44  73  95 129 178 227 272 327 396
#
# _framework density 20.005837
#
# number of rings (size 3 to 8) (size 9 to 14) (size 15 to 20)
#    0.000    1.600    2.000    2.400    8.400    1.600 
#    3.600    0.000    0.000    0.000    0.000    0.000 
#    0.000    0.000    0.000    0.000    0.000    0.000 
#
# Total GULP energy -223549.611918 kJ/mol
# GULP energy per Si atom -5588.740298 kJ/mol
# Density = 1.996030 g / cm^3
# Si number density = 20.005837 Si / 1000 Ang^3
#
#
#
# Elastic Constant Matrix: (Units=GPa)
#
#
# Indices 1 2 3 4 5 6 
#
# 1 59.8818 29.6993 21.3884 0.0000 0.0000 0.0000
# 2 29.6993 59.8831 21.3896 0.0000 0.0000 0.0000
# 3 21.3884 21.3896 103.8755 0.0000 0.0000 0.0000
# 4 0.0000 0.0000 0.0000 29.1625 0.0000 0.0000
# 5 0.0000 0.0000 0.0000 0.0000 29.1615 0.0000
# 6 0.0000 0.0000 0.0000 0.0000 0.0000 -17.1652
#
#
#
# Elastic Compliance Matrix: (Units=1/GPa)
#
#
# Indices 1 2 3 4 5 6 
#
# 1 0.022756 -0.010375 -0.002549 0.000000 0.000000 0.000000
# 2 -0.010375 0.022756 -0.002549 0.000000 0.000000 0.000000
# 3 -0.002549 -0.002549 0.010677 0.000000 0.000000 0.000000
# 4 0.000000 0.000000 0.000000 0.034291 0.000000 0.000000
# 5 0.000000 0.000000 0.000000 0.000000 0.034292 0.000000
# 6 0.000000 0.000000 0.000000 0.000000 0.000000 -0.058258
#
#
# Mechanical properties :
#
#
# Convention : Reuss Voigt Hill
#
# Bulk Modulus (GPa) = 39.61893 40.95498 40.28695
# Shear Modulus (GPa) = 47.22585 18.30931 32.76758
#
# Velocity S-wave (km/s) = 4.86388 3.02851 4.05149
# Velocity P-wave (km/s) = 7.16866 5.72233 6.48594
#
# Compressibility (1/GPa) = 0.02524046
#
# Stress axis : x y z
#
# Youngs Moduli (GPa) = 43.94464 43.94529 93.66163
#
# Poissons Ratio (x) = 0.45595 0.23875
# Poissons Ratio (y) = 0.45594 0.23878
# Poissons Ratio (z) = 0.11202 0.11203
#
# Static dielectric constant tensor:
#      x y z
#    x 1.690830 0.000000 0.000000 
#    y 0.000000 1.690830 0.000000 
#    z 0.000000 0.000000 1.679240 
# 
# From -- ./inp_files/4719.got.cif
#   From: 2010.05.17/outbox.cif.g08.bks.cpg/sg91_3_cif.got.tgz:4719.got - 2010.06.03 19:20:03.
