data_PCOD9548499
_publ_section_title
;
Structure prediction by ZEFSAII (Michael W. Deem and Ramdas Pophale) SiO2 
 PCOD9548499
Probable space group: P 41 2 2
;
_chemical_formula_sum "Si O2"
_cell_formula_units_Z 20
_cell_length_a 10.201164
_cell_length_b 10.201164
_cell_length_c 8.097956
_cell_angle_alpha 90.000000
_cell_angle_beta 90.000000
_cell_angle_gamma 90.000000
_cell_volume 842.703644
_symmetry_space_group_name_H-M "P 41 2 2"
_symmetry_group_IT_number 91
_symmetry_cell_setting 'tetragonal'
loop_
_space_group_symop_operation_xyz
x,y,z
-y,x,1/4+z
-x,-y,1/2+z
y,-x,3/4+z
x,-y,1/2-z
-x,y,-z
y,x,3/4-z
-y,-x,1/4-z
loop_
_atom_site_type_symbol
_atom_site_label
_atom_site_fract_x
_atom_site_fract_y
_atom_site_fract_z
Si Si1 0.432720 0.880122 0.335927
Si Si2 0.621610 0.621610 0.875000
Si Si3 0.836099 0.939853 0.521967
O O1 0.500000 0.825327 0.500000
O O2 0.392298 0.760493 0.219354
O O3 0.305262 0.955015 0.405796
O O4 0.511813 0.000000 0.250000
O O5 0.614073 0.500000 0.750000
O O6 0.833679 0.833679 0.375000
O O7 0.932349 0.885813 0.667680
#
# Coordination Sequence:
#
# PCOD9548499 Si02
#       3
#     8   4   8
#     4  12  28  45  74 106 147 183 242 306 366 421
#     4  12  28  52  76 102 144 196 252 294 368 452
#     4  10  24  41  70 100 143 184 232 278 357 426
#
# _framework density 23.733135000000001
#
# number of rings (size 3 to 8) (size 9 to 14) (size 15 to 20)
#    0.000    0.800    0.000    4.800   22.400    0.000 
#    0.000    0.000    0.000    0.000    0.000    0.000 
#    0.000    0.000    0.000    0.000    0.000    0.000 
#
# Total GULP energy -111683.905093 kJ/mol
# GULP energy per Si atom -5584.195255 kJ/mol
# Density = 2.367912 g / cm^3
# Si number density = 23.733135 Si / 1000 Ang^3
#
#
#
# Elastic Constant Matrix: (Units=GPa)
#
#
# Indices 1 2 3 4 5 6 
#
# 1 106.1372 9.9930 66.6378 0.0000 0.0000 0.0000
# 2 9.9930 106.1372 66.6378 0.0000 0.0000 0.0000
# 3 66.6378 66.6378 172.8517 0.0000 0.0000 0.0000
# 4 0.0000 0.0000 0.0000 41.3616 0.0000 0.0000
# 5 0.0000 0.0000 0.0000 0.0000 41.3616 0.0000
# 6 0.0000 0.0000 0.0000 0.0000 0.0000 19.1441
#
#
#
# Elastic Compliance Matrix: (Units=1/GPa)
#
#
# Indices 1 2 3 4 5 6 
#
# 1 0.012923 0.002522 -0.005954 0.000000 0.000000 0.000000
# 2 0.002522 0.012923 -0.005954 0.000000 0.000000 0.000000
# 3 -0.005954 -0.005954 0.010376 0.000000 0.000000 0.000000
# 4 0.000000 0.000000 0.000000 0.024177 0.000000 0.000000
# 5 0.000000 0.000000 0.000000 0.000000 0.024177 0.000000
# 6 0.000000 0.000000 0.000000 0.000000 0.000000 0.052235
#
#
# Mechanical properties :
#
#
# Convention : Reuss Voigt Hill
#
# Bulk Modulus (GPa) = 57.31244 74.62924 65.97084
# Shear Modulus (GPa) = 30.97900 36.49729 33.73814
#
# Velocity S-wave (km/s) = 3.61682 3.92576 3.77445
# Velocity P-wave (km/s) = 6.45314 7.21541 6.84490
#
# Compressibility (1/GPa) = 0.01744822
#
# Stress axis : x y z
#
# Youngs Moduli (GPa) = 77.38415 77.38415 96.37566
#
# Poissons Ratio (x) = -0.19512 0.57382
# Poissons Ratio (y) = -0.19512 0.57382
# Poissons Ratio (z) = 0.46074 0.46074
#
# Static dielectric constant tensor:
#      x y z
#    x 1.953050 0.000000 0.000000 
#    y 0.000000 1.953050 0.000000 
#    z 0.000000 0.000000 2.179680 
# 
# From -- ./inp_files/19104.got.cif
#   From: 2010.05.17/outbox.cif.g08.bks.cpg/sg91_10_cif.got.tgz:19104.got - 2010.06.03 19:20:03.
