data_PCOD9548188
_publ_section_title
;
Structure prediction by ZEFSAII (Michael W. Deem and Ramdas Pophale) SiO2 
 PCOD9548188
Probable space group: P 41 2 2
;
_chemical_formula_sum "Si O2"
_cell_formula_units_Z 48
_cell_length_a 9.043553
_cell_length_b 9.043553
_cell_length_c 29.182014
_cell_angle_alpha 90.000000
_cell_angle_beta 90.000000
_cell_angle_gamma 90.000000
_cell_volume 2386.675845
_symmetry_space_group_name_H-M "P 41 2 2"
_symmetry_group_IT_number 91
_symmetry_cell_setting 'tetragonal'
loop_
_space_group_symop_operation_xyz
x,y,z
-y,x,1/4+z
-x,-y,1/2+z
y,-x,3/4+z
x,-y,1/2-z
-x,y,-z
y,x,3/4-z
-y,-x,1/4-z
loop_
_atom_site_type_symbol
_atom_site_label
_atom_site_fract_x
_atom_site_fract_y
_atom_site_fract_z
Si Si1 0.000000 0.449173 0.000000
Si Si2 0.500000 0.955662 0.500000
Si Si3 0.057727 0.073883 0.322182
Si Si4 0.901929 0.327677 0.423825
Si Si5 0.115705 0.391072 0.338853
Si Si6 0.763671 0.227800 0.965387
Si Si7 0.394484 0.635955 0.874329
O O1 0.966048 0.551232 0.042811
O O2 0.141021 0.348400 0.009063
O O3 0.356559 0.851634 0.497266
O O4 0.516429 0.052948 0.545948
O O5 0.030496 0.030496 0.375000
O O6 0.155148 0.225964 0.321151
O O7 0.902720 0.122694 0.300491
O O8 0.165757 0.943443 0.305936
O O9 0.730750 0.350717 0.413220
O O10 0.987339 0.353587 0.375547
O O11 0.243178 0.480857 0.363629
O O12 0.681645 0.310362 0.922807
O O13 0.478244 0.478244 0.875000
#
# Coordination Sequence:
#
# PCOD9548188 Si02
#       7
#     4   4   8   8   8   8   8
#     4  12  28  40  62 100 140 168 222 280 346 396
#     4  10  22  44  68  94 132 176 232 272 340 402
#     4   9  18  41  69  87 122 174 226 270 319 390
#     4  11  23  42  65  98 129 172 222 277 328 399
#     4  10  21  41  69  92 127 175 222 276 324 399
#     4  11  24  44  66  98 134 176 222 287 334 399
#     4  12  24  42  68  98 134 177 218 273 348 397
#
# _framework density 20.111656
#
# number of rings (size 3 to 8) (size 9 to 14) (size 15 to 20)
#    0.000    1.333    6.667    1.500    2.333    4.667 
#    0.000    0.833    0.000    0.000    0.000    0.000 
#    0.000    0.000    0.000    0.000    0.000    0.000 
#
# Total GULP energy -267831.418827 kJ/mol
# GULP energy per Si atom -5579.821226 kJ/mol
# Density = 2.006588 g / cm^3
# Si number density = 20.111656 Si / 1000 Ang^3
#
#
#
# Elastic Constant Matrix: (Units=GPa)
#
#
# Indices 1 2 3 4 5 6 
#
# 1 86.1318 41.5487 14.1185 0.0000 0.0000 0.0000
# 2 41.5487 86.1318 14.1185 0.0000 0.0000 0.0000
# 3 14.1185 14.1185 58.8619 0.0000 0.0000 0.0000
# 4 0.0000 0.0000 0.0000 15.6004 0.0000 0.0000
# 5 0.0000 0.0000 0.0000 0.0000 15.6004 0.0000
# 6 0.0000 0.0000 0.0000 0.0000 0.0000 107.8282
#
#
#
# Elastic Compliance Matrix: (Units=1/GPa)
#
#
# Indices 1 2 3 4 5 6 
#
# 1 0.015350 -0.007080 -0.001984 0.000000 0.000000 0.000000
# 2 -0.007080 0.015350 -0.001984 0.000000 0.000000 0.000000
# 3 -0.001984 -0.001984 0.017941 0.000000 0.000000 0.000000
# 4 0.000000 0.000000 0.000000 0.064101 0.000000 0.000000
# 5 0.000000 0.000000 0.000000 0.000000 0.064101 0.000000
# 6 0.000000 0.000000 0.000000 0.000000 0.000000 0.009274
#
#
# Mechanical properties :
#
#
# Convention : Reuss Voigt Hill
#
# Bulk Modulus (GPa) = 37.66921 41.18855 39.42888
# Shear Modulus (GPa) = 23.03501 38.56177 30.79839
#
# Velocity S-wave (km/s) = 3.38798 4.38354 3.91752
# Velocity P-wave (km/s) = 5.83740 6.79301 6.33326
#
# Compressibility (1/GPa) = 0.02654688
#
# Stress axis : x y z
#
# Youngs Moduli (GPa) = 65.14487 65.14487 55.73951
#
# Poissons Ratio (x) = 0.46120 0.11058
# Poissons Ratio (y) = 0.46120 0.11058
# Poissons Ratio (z) = 0.12924 0.12924
#
# Static dielectric constant tensor:
#      x y z
#    x 1.750620 0.000000 0.000000 
#    y 0.000000 1.750620 0.000000 
#    z 0.000000 0.000000 1.713780 
# 
# From -- ./inp_files/22287.got.cif
#   From: 2010.05.17/outbox.cif.g08.bks.cpg/sg91_12_cif.got.tgz:22287.got - 2010.06.03 19:20:03.
