data_PCOD9548925
_publ_section_title
;
Structure prediction by ZEFSAII (Michael W. Deem and Ramdas Pophale) SiO2 
 PCOD9548925
Probable space group: P 41 21 2
;
_chemical_formula_sum "Si O2"
_cell_formula_units_Z 40
_cell_length_a 15.760290
_cell_length_b 15.760290
_cell_length_c 8.379889
_cell_angle_alpha 90.000000
_cell_angle_beta 90.000000
_cell_angle_gamma 90.000000
_cell_volume 2081.453318
_symmetry_space_group_name_H-M "P 41 21 2"
_symmetry_group_IT_number 92
_symmetry_cell_setting 'tetragonal'
loop_
_space_group_symop_operation_xyz
x,y,z
1/2-y,1/2+x,1/4+z
-x,-y,1/2+z
1/2+y,1/2-x,3/4+z
1/2+x,1/2-y,3/4-z
1/2-x,1/2+y,1/4-z
y,x,-z
-y,-x,1/2-z
loop_
_atom_site_type_symbol
_atom_site_label
_atom_site_fract_x
_atom_site_fract_y
_atom_site_fract_z
Si Si1 0.526351 0.823794 0.998935
Si Si2 0.179476 0.820525 0.250000
Si Si3 0.409912 0.012516 0.297446
Si Si4 0.169484 0.169484 0.500000
Si Si5 0.828367 0.673823 0.753963
Si Si6 0.014056 0.775349 0.071514
O O1 0.590301 0.807573 0.142382
O O2 0.559793 0.909054 0.910056
O O3 0.427571 0.831721 0.043423
O O4 0.530919 0.752623 0.861111
O O5 0.180377 0.736473 0.358898
O O6 0.095747 0.820907 0.141297
O O7 0.434246 0.037539 0.119499
O O8 0.311907 0.997624 0.329379
O O9 0.179642 0.244329 0.370049
O O10 0.076267 0.178450 0.575817
#
# Coordination Sequence:
#
# PCOD9548925 Si02
#       6
#     8   4   8   4   8   8
#     4  10  19  39  62  92 119 161 202 246 323 383
#     4  12  28  38  56  96 132 162 208 260 308 366
#     4  10  19  32  58  93 124 154 191 251 319 372
#     4  10  20  44  68  80 120 176 216 248 308 370
#     4  11  23  39  64  94 129 161 201 259 320 383
#     4  10  23  39  60  90 121 170 211 254 304 367
#
# _framework density 19.217341000000001
#
# number of rings (size 3 to 8) (size 9 to 14) (size 15 to 20)
#    0.000    1.600    6.000    1.200    5.600    1.600 
#    0.000    4.000    0.000    0.000    0.000    0.000 
#    0.000    0.000    0.000    0.000    0.000    0.000 
#
# Total GULP energy -223603.144877 kJ/mol
# GULP energy per Si atom -5590.078622 kJ/mol
# Density = 1.917360 g / cm^3
# Si number density = 19.217341 Si / 1000 Ang^3
#
#
#
# Elastic Constant Matrix: (Units=GPa)
#
#
# Indices 1 2 3 4 5 6 
#
# 1 116.5656 66.3337 57.5774 0.0000 0.0000 0.0000
# 2 66.3337 116.5657 57.5774 0.0000 0.0000 0.0000
# 3 57.5774 57.5774 83.0985 0.0000 0.0000 0.0000
# 4 0.0000 0.0000 0.0000 27.3019 0.0000 0.0000
# 5 0.0000 0.0000 0.0000 0.0000 27.3020 0.0000
# 6 0.0000 0.0000 0.0000 0.0000 0.0000 26.0356
#
#
#
# Elastic Compliance Matrix: (Units=1/GPa)
#
#
# Indices 1 2 3 4 5 6 
#
# 1 0.014803 -0.005105 -0.006720 0.000000 0.000000 0.000000
# 2 -0.005105 0.014803 -0.006720 0.000000 0.000000 0.000000
# 3 -0.006720 -0.006720 0.021346 0.000000 0.000000 0.000000
# 4 0.000000 0.000000 0.000000 0.036627 0.000000 0.000000
# 5 0.000000 0.000000 0.000000 0.000000 0.036627 0.000000
# 6 0.000000 0.000000 0.000000 0.000000 0.000000 0.038409
#
#
# Mechanical properties :
#
#
# Convention : Reuss Voigt Hill
#
# Bulk Modulus (GPa) = 72.13220 75.46745 73.79983
# Shear Modulus (GPa) = 24.47078 25.11065 24.79072
#
# Velocity S-wave (km/s) = 3.57230 3.61871 3.59558
# Velocity P-wave (km/s) = 7.39132 7.53762 7.46483
#
# Compressibility (1/GPa) = 0.01386343
#
# Stress axis : x y z
#
# Youngs Moduli (GPa) = 67.55391 67.55400 46.84733
#
# Poissons Ratio (x) = 0.34484 0.31480
# Poissons Ratio (y) = 0.34484 0.31480
# Poissons Ratio (z) = 0.45395 0.45395
#
# Static dielectric constant tensor:
#      x y z
#    x 1.670650 0.000000 0.000000 
#    y 0.000000 1.670650 0.000000 
#    z 0.000000 0.000000 1.696020 
# 
# From -- ./inp_files/1360.got.cif
#   From: 2010.05.17/outbox.cif.g08.bks.cpg/sg92_1_cif.got.tgz:1360.got - 2010.06.03 19:35:17.
