data_PCOD9548933
_publ_section_title
;
Structure prediction by ZEFSAII (Michael W. Deem and Ramdas Pophale) SiO2 
 PCOD9548933
Probable space group: P 41 21 2
;
_chemical_formula_sum "Si O2"
_cell_formula_units_Z 48
_cell_length_a 12.347319
_cell_length_b 12.347319
_cell_length_c 17.138601
_cell_angle_alpha 90.000000
_cell_angle_beta 90.000000
_cell_angle_gamma 90.000000
_cell_volume 2612.887464
_symmetry_space_group_name_H-M "P 41 21 2"
_symmetry_group_IT_number 92
_symmetry_cell_setting 'tetragonal'
loop_
_space_group_symop_operation_xyz
x,y,z
1/2-y,1/2+x,1/4+z
-x,-y,1/2+z
1/2+y,1/2-x,3/4+z
1/2+x,1/2-y,3/4-z
1/2-x,1/2+y,1/4-z
y,x,-z
-y,-x,1/2-z
loop_
_atom_site_type_symbol
_atom_site_label
_atom_site_fract_x
_atom_site_fract_y
_atom_site_fract_z
Si Si1 0.430617 0.867460 0.950814
Si Si2 0.017717 0.540217 0.177059
Si Si3 0.002715 0.878073 0.821081
Si Si4 0.299421 0.600269 0.826904
Si Si5 0.843479 0.609661 0.297698
Si Si6 0.297172 0.299176 0.669636
O O1 0.502806 0.931278 0.887935
O O2 0.468461 0.743137 0.956220
O O3 0.307457 0.869489 0.921469
O O4 0.440339 0.933358 0.030365
O O5 0.947392 0.605771 0.240434
O O6 0.112772 0.607656 0.134770
O O7 0.894074 0.926889 0.860605
O O8 0.095307 0.857505 0.886779
O O9 0.053036 0.946965 0.750000
O O10 0.358005 0.641996 0.750000
O O11 0.221380 0.503668 0.802004
O O12 0.229147 0.698532 0.861494
O O13 0.757662 0.686725 0.255004
#
# Coordination Sequence:
#
# PCOD9548933 Si02
#       6
#     8   8   8   8   8   8
#     4  10  20  34  56  83 111 145 184 232 282 330
#     4  10  19  34  56  84 110 140 189 236 270 335
#     4  11  21  34  55  86 117 141 180 238 287 339
#     4  11  20  34  56  82 110 146 182 228 284 332
#     4  11  18  34  56  81 109 144 186 230 282 331
#     4  11  19  33  55  83 113 144 183 230 282 332
#
# _framework density 18.370481000000002
#
# number of rings (size 3 to 8) (size 9 to 14) (size 15 to 20)
#    0.000    1.333    5.000    3.500    0.000    0.000 
#    0.000    3.333    0.000    0.000    0.000    0.000 
#    0.000    0.000    0.000    0.000    0.000    0.000 
#
# Total GULP energy -267581.406011 kJ/mol
# GULP energy per Si atom -5574.612625 kJ/mol
# Density = 1.832867 g / cm^3
# Si number density = 18.370481 Si / 1000 Ang^3
#
#
#
# Elastic Constant Matrix: (Units=GPa)
#
#
# Indices 1 2 3 4 5 6 
#
# 1 33.6688 -3.3957 5.7970 0.0000 0.0000 0.0000
# 2 -3.3957 33.6678 5.7963 0.0000 0.0000 0.0000
# 3 5.7970 5.7963 51.8220 0.0000 0.0000 0.0000
# 4 0.0000 0.0000 0.0000 20.5555 0.0000 0.0000
# 5 0.0000 0.0000 0.0000 0.0000 20.5547 0.0000
# 6 0.0000 0.0000 0.0000 0.0000 0.0000 21.5047
#
#
#
# Elastic Compliance Matrix: (Units=1/GPa)
#
#
# Indices 1 2 3 4 5 6 
#
# 1 0.030746 0.003766 -0.003860 0.000000 0.000000 0.000000
# 2 0.003766 0.030746 -0.003860 0.000000 0.000000 0.000000
# 3 -0.003860 -0.003860 0.020160 0.000000 0.000000 0.000000
# 4 0.000000 0.000000 0.000000 0.048649 0.000000 0.000000
# 5 0.000000 0.000000 0.000000 0.000000 0.048651 0.000000
# 6 0.000000 0.000000 0.000000 0.000000 0.000000 0.046501
#
#
# Mechanical properties :
#
#
# Convention : Reuss Voigt Hill
#
# Bulk Modulus (GPa) = 13.56076 15.06153 14.31114
# Shear Modulus (GPa) = 19.38404 19.92038 19.65221
#
# Velocity S-wave (km/s) = 3.25187 3.29655 3.27428
# Velocity P-wave (km/s) = 4.63652 4.76510 4.70125
#
# Compressibility (1/GPa) = 0.07374218
#
# Stress axis : x y z
#
# Youngs Moduli (GPa) = 32.52499 32.52418 49.60215
#
# Poissons Ratio (x) = -0.12247 0.19149
# Poissons Ratio (y) = -0.12248 0.19148
# Poissons Ratio (z) = 0.12556 0.12555
#
# Static dielectric constant tensor:
#      x y z
#    x 1.637360 0.000000 0.000000 
#    y 0.000000 1.637360 0.000000 
#    z 0.000000 0.000000 1.676300 
# 
# From -- ./inp_files/3109.got.cif
#   From: 2010.05.17/outbox.cif.g08.bks.cpg/sg92_2_cif.got.tgz:3109.got - 2010.06.03 19:35:17.
