data_PCOD9548096
_publ_section_title
;
Structure prediction by ZEFSAII (Michael W. Deem and Ramdas Pophale) SiO2 
 PCOD9548096
Probable space group: P 41 2 2
;
_chemical_formula_sum "Si O2"
_cell_formula_units_Z 48
_cell_length_a 9.137507
_cell_length_b 9.137507
_cell_length_c 31.622290
_cell_angle_alpha 90.000000
_cell_angle_beta 90.000000
_cell_angle_gamma 90.000000
_cell_volume 2640.272562
_symmetry_space_group_name_H-M "P 41 2 2"
_symmetry_group_IT_number 91
_symmetry_cell_setting 'tetragonal'
loop_
_space_group_symop_operation_xyz
x,y,z
-y,x,1/4+z
-x,-y,1/2+z
y,-x,3/4+z
x,-y,1/2-z
-x,y,-z
y,x,3/4-z
-y,-x,1/4-z
loop_
_atom_site_type_symbol
_atom_site_label
_atom_site_fract_x
_atom_site_fract_y
_atom_site_fract_z
Si Si1 0.150569 0.166342 0.167821
Si Si2 0.675265 0.661991 0.499289
Si Si3 0.679038 0.162728 0.085952
Si Si4 0.349835 0.175232 0.248239
Si Si5 0.154917 0.327910 0.667615
Si Si6 0.843472 0.185133 0.671773
O O1 0.244341 0.210027 0.208837
O O2 0.245132 0.193806 0.125702
O O3 0.998371 0.250950 0.164547
O O4 0.124679 0.990352 0.171543
O O5 0.500000 0.645238 0.500000
O O6 0.714942 0.760415 0.458765
O O7 0.749493 0.505598 0.494600
O O8 0.285857 0.740363 0.456543
O O9 0.747044 0.252957 0.125000
O O10 0.502674 0.156895 0.089073
O O11 0.270205 0.218769 0.291550
O O12 0.369391 0.000000 0.250000
O O13 0.991737 0.274045 0.678667
O O14 0.782828 0.217173 0.625000
#
# Coordination Sequence:
#
# PCOD9548096 Si02
#       6
#     8   8   8   8   8   8
#     4  10  21  37  59  85 113 145 185 234 283 330
#     4  10  23  39  55  81 116 150 186 229 277 332
#     4  11  22  38  59  83 113 149 188 231 280 335
#     4  10  21  37  59  86 114 147 191 236 276 330
#     4  10  21  37  56  81 113 149 188 229 279 336
#     4   9  19  36  55  82 114 144 185 233 279 331
#
# _framework density 18.179940999999999
#
# number of rings (size 3 to 8) (size 9 to 14) (size 15 to 20)
#    0.000    2.000    0.000    3.500    0.000    8.000 
#    0.000    3.333    0.000    0.000    0.000    0.000 
#    0.000    0.000    0.000    0.000    0.000    0.000 
#
# Total GULP energy -268093.301731 kJ/mol
# GULP energy per Si atom -5585.277119 kJ/mol
# Density = 1.813856 g / cm^3
# Si number density = 18.179941 Si / 1000 Ang^3
#
#
#
# Elastic Constant Matrix: (Units=GPa)
#
#
# Indices 1 2 3 4 5 6 
#
# 1 86.4407 69.3005 79.5101 0.0000 0.0000 0.0000
# 2 69.3005 86.4386 79.5100 0.0000 0.0000 0.0000
# 3 79.5101 79.5100 155.9227 0.0000 0.0000 0.0000
# 4 0.0000 0.0000 0.0000 23.8081 0.0000 0.0000
# 5 0.0000 0.0000 0.0000 0.0000 23.8078 0.0000
# 6 0.0000 0.0000 0.0000 0.0000 0.0000 32.9537
#
#
#
# Elastic Compliance Matrix: (Units=1/GPa)
#
#
# Indices 1 2 3 4 5 6 
#
# 1 0.035870 -0.022475 -0.006831 0.000000 0.000000 0.000000
# 2 -0.022475 0.035872 -0.006831 0.000000 0.000000 0.000000
# 3 -0.006831 -0.006831 0.013380 0.000000 0.000000 0.000000
# 4 0.000000 0.000000 0.000000 0.042002 0.000000 0.000000
# 5 0.000000 0.000000 0.000000 0.000000 0.042003 0.000000
# 6 0.000000 0.000000 0.000000 0.000000 0.000000 0.030346
#
#
# Mechanical properties :
#
#
# Convention : Reuss Voigt Hill
#
# Bulk Modulus (GPa) = 77.83413 87.27147 82.55280
# Shear Modulus (GPa) = 18.11402 22.81270 20.46336
#
# Velocity S-wave (km/s) = 3.15996 3.54620 3.35864
# Velocity P-wave (km/s) = 7.49800 8.05455 7.78125
#
# Compressibility (1/GPa) = 0.01284783
#
# Stress axis : x y z
#
# Youngs Moduli (GPa) = 27.87840 27.87718 74.73813
#
# Poissons Ratio (x) = 0.62654 0.51050
# Poissons Ratio (y) = 0.62657 0.51056
# Poissons Ratio (z) = 0.19042 0.19044
#
# Static dielectric constant tensor:
#      x y z
#    x 1.595470 0.000000 0.000000 
#    y 0.000000 1.595470 0.000000 
#    z 0.000000 0.000000 1.626220 
# 
# From -- ./inp_files/22250.got.cif
#   From: 2010.05.17/outbox.cif.g08.bks.cpg/sg91_12_cif.got.tgz:22250.got - 2010.06.03 19:20:03.
