data_PCOD9548564
_publ_section_title
;
Structure prediction by ZEFSAII (Michael W. Deem and Ramdas Pophale) SiO2 
 PCOD9548564
Probable space group: P 41 2 2
;
_chemical_formula_sum "Si O2"
_cell_formula_units_Z 28
_cell_length_a 7.229723
_cell_length_b 7.229723
_cell_length_c 22.424674
_cell_angle_alpha 90.000000
_cell_angle_beta 90.000000
_cell_angle_gamma 90.000000
_cell_volume 1172.112923
_symmetry_space_group_name_H-M "P 41 2 2"
_symmetry_group_IT_number 91
_symmetry_cell_setting 'tetragonal'
loop_
_space_group_symop_operation_xyz
x,y,z
-y,x,1/4+z
-x,-y,1/2+z
y,-x,3/4+z
x,-y,1/2-z
-x,y,-z
y,x,3/4-z
-y,-x,1/4-z
loop_
_atom_site_type_symbol
_atom_site_label
_atom_site_fract_x
_atom_site_fract_y
_atom_site_fract_z
Si Si1 0.273322 0.072075 0.929863
Si Si2 0.558387 0.143215 0.648295
Si Si3 0.480131 0.593063 0.441854
Si Si4 0.000000 0.184656 0.500000
O O1 0.450341 0.968127 0.901591
O O2 0.370456 0.250984 0.958038
O O3 0.165233 0.949249 0.977970
O O4 0.139226 0.139226 0.875000
O O5 0.709466 0.290535 0.625000
O O6 0.398204 0.261834 0.680627
O O7 0.676818 0.026397 0.694554
O O8 0.500000 0.459270 0.500000
O O9 0.546213 0.546213 0.375000
#
# Coordination Sequence:
#
# PCOD9548564 Si02
#       4
#     8   8   8   4
#     4  11  27  47  71 107 145 186 244 309 371 433
#     4  11  27  46  72 102 144 191 248 296 363 448
#     4  10  25  45  74 100 146 193 247 296 371 448
#     4  12  28  44  76 104 148 188 236 312 376 426
#
# _framework density 23.888483000000001
#
# number of rings (size 3 to 8) (size 9 to 14) (size 15 to 20)
#    0.000    1.143    0.000    2.571   24.000    0.000 
#    0.000    0.000    0.000    0.000    0.000    0.000 
#    0.000    0.000    0.000    0.000    0.000    0.000 
#
# Total GULP energy -155976.504664 kJ/mol
# GULP energy per Si atom -5570.589452 kJ/mol
# Density = 2.383411 g / cm^3
# Si number density = 23.888483 Si / 1000 Ang^3
#
#
#
# Elastic Constant Matrix: (Units=GPa)
#
#
# Indices 1 2 3 4 5 6 
#
# 1 66.3378 21.9745 6.6773 0.0000 0.0000 0.0000
# 2 21.9745 66.3381 6.6767 0.0000 0.0000 0.0000
# 3 6.6773 6.6767 88.7166 0.0000 0.0000 0.0000
# 4 0.0000 0.0000 0.0000 46.0822 0.0000 0.0000
# 5 0.0000 0.0000 0.0000 0.0000 46.0825 0.0000
# 6 0.0000 0.0000 0.0000 0.0000 0.0000 68.9015
#
#
#
# Elastic Compliance Matrix: (Units=1/GPa)
#
#
# Indices 1 2 3 4 5 6 
#
# 1 0.016997 -0.005544 -0.000862 0.000000 0.000000 0.000000
# 2 -0.005544 0.016997 -0.000862 0.000000 0.000000 0.000000
# 3 -0.000862 -0.000862 0.011402 0.000000 0.000000 0.000000
# 4 0.000000 0.000000 0.000000 0.021700 0.000000 0.000000
# 5 0.000000 0.000000 0.000000 0.000000 0.021700 0.000000
# 6 0.000000 0.000000 0.000000 0.000000 0.000000 0.014513
#
#
# Mechanical properties :
#
#
# Convention : Reuss Voigt Hill
#
# Bulk Modulus (GPa) = 32.40333 32.44994 32.42664
# Shear Modulus (GPa) = 39.02198 44.61751 41.81974
#
# Velocity S-wave (km/s) = 4.04605 4.32643 4.18858
# Velocity P-wave (km/s) = 5.95157 6.21053 6.08243
#
# Compressibility (1/GPa) = 0.03086103
#
# Stress axis : x y z
#
# Youngs Moduli (GPa) = 58.83228 58.83262 87.70693
#
# Poissons Ratio (x) = 0.32615 0.07561
# Poissons Ratio (y) = 0.32614 0.07560
# Poissons Ratio (z) = 0.05072 0.05071
#
# Static dielectric constant tensor:
#      x y z
#    x 2.010960 0.000000 0.000000 
#    y 0.000000 2.010950 0.000000 
#    z 0.000000 0.000000 1.835990 
# 
# From -- ./inp_files/16647.got.cif
#   From: 2010.05.17/outbox.cif.g08.bks.cpg/sg91_9_cif.got.tgz:16647.got - 2010.06.03 19:20:03.
