data_PCOD9548024
_publ_section_title
;
Structure prediction by ZEFSAII (Michael W. Deem and Ramdas Pophale) SiO2 
 PCOD9548024
Probable space group: P 41 2 2
;
_chemical_formula_sum "Si O2"
_cell_formula_units_Z 36
_cell_length_a 12.574748
_cell_length_b 12.574748
_cell_length_c 10.185022
_cell_angle_alpha 90.000000
_cell_angle_beta 90.000000
_cell_angle_gamma 90.000000
_cell_volume 1610.499345
_symmetry_space_group_name_H-M "P 41 2 2"
_symmetry_group_IT_number 91
_symmetry_cell_setting 'tetragonal'
loop_
_space_group_symop_operation_xyz
x,y,z
-y,x,1/4+z
-x,-y,1/2+z
y,-x,3/4+z
x,-y,1/2-z
-x,y,-z
y,x,3/4-z
-y,-x,1/4-z
loop_
_atom_site_type_symbol
_atom_site_label
_atom_site_fract_x
_atom_site_fract_y
_atom_site_fract_z
Si Si1 0.225182 0.534960 0.463945
Si Si2 0.816724 0.232837 0.845638
Si Si3 0.680902 0.680902 0.875000
Si Si4 0.987713 0.765879 0.153457
Si Si5 0.565082 0.000000 0.750000
Si Si6 0.572089 0.572089 0.375000
O O1 0.197094 0.650516 0.405452
O O2 0.286241 0.443854 0.374897
O O3 0.109816 0.494995 0.502804
O O4 0.307209 0.551896 0.582463
O O5 0.720775 0.241844 0.741379
O O6 0.797611 0.132227 0.939014
O O7 0.923801 0.210990 0.761885
O O8 0.000160 0.640702 0.127527
O O9 0.000000 0.807793 0.000000
O O10 0.500000 0.545722 0.500000
#
# Coordination Sequence:
#
# PCOD9548024 Si02
#       6
#     8   8   4   8   4   4
#     4  12  26  43  71 107 149 202 254 323 395 476
#     4  12  22  41  76 107 147 197 259 327 393 473
#     4  12  19  40  66 108 143 190 256 310 381 472
#     4  10  20  40  67 108 139 193 255 315 387 467
#     4  10  22  42  66 100 144 194 254 318 380 472
#     4  12  29  52  74 114 165 216 258 334 399 488
#
# _framework density 22.353314000000001
#
# number of rings (size 3 to 8) (size 9 to 14) (size 15 to 20)
#    0.667    0.000    6.667    2.667    0.000    1.778 
#    0.000    0.000    7.333    0.000    0.000    0.000 
#    0.000    0.000    0.000    0.000    0.000    0.000 
#
# Total GULP energy -200585.500174 kJ/mol
# GULP energy per Si atom -5571.819449 kJ/mol
# Density = 2.230244 g / cm^3
# Si number density = 22.353314 Si / 1000 Ang^3
#
#
#
# Elastic Constant Matrix: (Units=GPa)
#
#
# Indices 1 2 3 4 5 6 
#
# 1 165.4281 76.3122 47.2582 0.0000 0.0000 0.0000
# 2 76.3122 165.4281 47.2582 0.0000 0.0000 0.0000
# 3 47.2582 47.2582 60.4187 0.0000 0.0000 0.0000
# 4 0.0000 0.0000 0.0000 21.2989 0.0000 0.0000
# 5 0.0000 0.0000 0.0000 0.0000 21.2989 0.0000
# 6 0.0000 0.0000 0.0000 0.0000 0.0000 26.5370
#
#
#
# Elastic Compliance Matrix: (Units=1/GPa)
#
#
# Indices 1 2 3 4 5 6 
#
# 1 0.008590 -0.002631 -0.004661 0.000000 0.000000 0.000000
# 2 -0.002631 0.008590 -0.004661 0.000000 0.000000 0.000000
# 3 -0.004661 -0.004661 0.023843 0.000000 0.000000 0.000000
# 4 0.000000 0.000000 0.000000 0.046951 0.000000 0.000000
# 5 0.000000 0.000000 0.000000 0.000000 0.046951 0.000000
# 6 0.000000 0.000000 0.000000 0.000000 0.000000 0.037683
#
#
# Mechanical properties :
#
#
# Convention : Reuss Voigt Hill
#
# Bulk Modulus (GPa) = 58.42267 81.43689 69.92978
# Shear Modulus (GPa) = 24.72557 28.52338 26.62448
#
# Velocity S-wave (km/s) = 3.32945 3.57602 3.45494
# Velocity P-wave (km/s) = 6.40102 7.31856 6.87512
#
# Compressibility (1/GPa) = 0.01711664
#
# Stress axis : x y z
#
# Youngs Moduli (GPa) = 116.41165 116.41165 41.94152
#
# Poissons Ratio (x) = 0.30630 0.19549
# Poissons Ratio (y) = 0.30630 0.19549
# Poissons Ratio (z) = 0.54260 0.54260
#
# Static dielectric constant tensor:
#      x y z
#    x 1.862590 0.000000 0.000000 
#    y 0.000000 1.862590 0.000000 
#    z 0.000000 0.000000 1.719690 
# 
# From -- ./inp_files/10542.got.cif
#   From: 2010.05.17/outbox.cif.g08.bks.cpg/sg91_6_cif.got.tgz:10542.got - 2010.06.03 19:20:03.
