data_PCOD9548992
_publ_section_title
;
Structure prediction by ZEFSAII (Michael W. Deem and Ramdas Pophale) SiO2 
 PCOD9548992
Probable space group: P 41 21 2
;
_chemical_formula_sum "Si O2"
_cell_formula_units_Z 48
_cell_length_a 9.384669
_cell_length_b 9.384669
_cell_length_c 31.374387
_cell_angle_alpha 90.000000
_cell_angle_beta 90.000000
_cell_angle_gamma 90.000000
_cell_volume 2763.205396
_symmetry_space_group_name_H-M "P 41 21 2"
_symmetry_group_IT_number 92
_symmetry_cell_setting 'tetragonal'
loop_
_space_group_symop_operation_xyz
x,y,z
1/2-y,1/2+x,1/4+z
-x,-y,1/2+z
1/2+y,1/2-x,3/4+z
1/2+x,1/2-y,3/4-z
1/2-x,1/2+y,1/4-z
y,x,-z
-y,-x,1/2-z
loop_
_atom_site_type_symbol
_atom_site_label
_atom_site_fract_x
_atom_site_fract_y
_atom_site_fract_z
Si Si1 0.429432 0.092106 0.001755
Si Si2 0.101470 0.571715 0.578390
Si Si3 0.911417 0.098796 0.323835
Si Si4 0.906097 0.906097 0.500000
Si Si5 0.600201 0.926477 0.073958
Si Si6 0.930669 0.069332 0.750000
Si Si7 0.590199 0.604351 0.828648
O O1 0.260808 0.072091 0.008026
O O2 0.509355 0.011141 0.039458
O O3 0.457705 0.260955 0.001608
O O4 0.464245 0.017342 0.956629
O O5 0.242564 0.477942 0.570979
O O6 0.050243 0.551449 0.627072
O O7 0.139330 0.740525 0.574553
O O8 0.742363 0.101429 0.314859
O O9 0.930639 0.051126 0.373000
O O10 0.993113 0.998353 0.291041
O O11 0.993211 0.946813 0.541923
O O12 0.757699 0.992938 0.072831
#
# Coordination Sequence:
#
# PCOD9548992 Si02
#       7
#     8   8   8   4   8   4   8
#     4  10  21  36  53  75 105 139 174 212 257 308
#     4   9  19  37  56  76 105 137 172 215 260 308
#     4  10  20  35  55  79 106 136 173 215 261 311
#     4   9  20  37  54  74 104 139 174 213 256 308
#     4  10  20  34  55  80 104 134 172 215 261 308
#     4  11  22  35  52  76 106 139 174 213 256 306
#     4   9  19  36  56  78 105 137 173 216 261 307
#
# _framework density 17.371130999999998
#
# number of rings (size 3 to 8) (size 9 to 14) (size 15 to 20)
#    0.000    2.333    0.000    2.000    0.000    6.000 
#    0.000    0.000    0.000    0.000    0.000    0.000 
#    0.000    0.000    0.000    0.000    0.000    0.000 
#
# Total GULP energy -267780.026337 kJ/mol
# GULP energy per Si atom -5578.750549 kJ/mol
# Density = 1.733159 g / cm^3
# Si number density = 17.371131 Si / 1000 Ang^3
#
#
#
# Elastic Constant Matrix: (Units=GPa)
#
#
# Indices 1 2 3 4 5 6 
#
# 1 89.0385 71.1680 101.8077 0.0000 0.0000 0.0000
# 2 71.1680 89.0390 101.8079 0.0000 0.0000 0.0000
# 3 101.8077 101.8079 171.6686 0.0000 0.0000 0.0000
# 4 0.0000 0.0000 0.0000 34.4051 0.0000 0.0000
# 5 0.0000 0.0000 0.0000 0.0000 34.4052 0.0000
# 6 0.0000 0.0000 0.0000 0.0000 0.0000 28.0420
#
#
#
# Elastic Compliance Matrix: (Units=1/GPa)
#
#
# Indices 1 2 3 4 5 6 
#
# 1 0.040652 -0.015305 -0.015032 0.000000 0.000000 0.000000
# 2 -0.015305 0.040652 -0.015032 0.000000 0.000000 0.000000
# 3 -0.015032 -0.015032 0.023654 0.000000 0.000000 0.000000
# 4 0.000000 0.000000 0.000000 0.029066 0.000000 0.000000
# 5 0.000000 0.000000 0.000000 0.000000 0.029065 0.000000
# 6 0.000000 0.000000 0.000000 0.000000 0.000000 0.035661
#
#
# Mechanical properties :
#
#
# Convention : Reuss Voigt Hill
#
# Bulk Modulus (GPa) = 70.32106 99.92371 85.12238
# Shear Modulus (GPa) = 16.99364 24.36796 20.68080
#
# Velocity S-wave (km/s) = 3.13112 3.74944 3.45414
# Velocity P-wave (km/s) = 7.32403 8.74026 8.06330
#
# Compressibility (1/GPa) = 0.01422049
#
# Stress axis : x y z
#
# Youngs Moduli (GPa) = 24.59898 24.59917 42.27551
#
# Poissons Ratio (x) = 0.37650 0.63548
# Poissons Ratio (y) = 0.37649 0.63548
# Poissons Ratio (z) = 0.36977 0.36977
#
# Static dielectric constant tensor:
#      x y z
#    x 1.571630 0.000000 0.000000 
#    y 0.000000 1.571630 0.000000 
#    z 0.000000 0.000000 1.590470 
# 
# From -- ./inp_files/4550.got.cif
#   From: 2010.05.17/outbox.cif.g08.bks.cpg/sg92_3_cif.got.tgz:4550.got - 2010.06.03 19:35:17.
