data_PCOD9548826
_publ_section_title
;
Structure prediction by ZEFSAII (Michael W. Deem and Ramdas Pophale) SiO2 
 PCOD9548826
Probable space group: P 41 2 2
;
_chemical_formula_sum "Si O2"
_cell_formula_units_Z 20
_cell_length_a 7.994685
_cell_length_b 7.994685
_cell_length_c 12.306040
_cell_angle_alpha 90.000000
_cell_angle_beta 90.000000
_cell_angle_gamma 90.000000
_cell_volume 786.540402
_symmetry_space_group_name_H-M "P 41 2 2"
_symmetry_group_IT_number 91
_symmetry_cell_setting 'tetragonal'
loop_
_space_group_symop_operation_xyz
x,y,z
-y,x,1/4+z
-x,-y,1/2+z
y,-x,3/4+z
x,-y,1/2-z
-x,y,-z
y,x,3/4-z
-y,-x,1/4-z
loop_
_atom_site_type_symbol
_atom_site_label
_atom_site_fract_x
_atom_site_fract_y
_atom_site_fract_z
Si Si1 0.500000 0.543633 0.000000
Si Si2 0.191503 0.231060 0.532049
Si Si3 0.701679 0.857113 0.484040
O O1 0.528563 0.471438 0.125000
O O2 0.672411 0.643526 0.986100
O O3 0.234316 0.229315 0.660266
O O4 0.000000 0.275581 0.500000
O O5 0.229025 0.043117 0.497944
O O6 0.500000 0.858621 0.500000
O O7 0.778477 0.778477 0.375000
#
# Coordination Sequence:
#
# PCOD9548826 Si02
#       3
#     4   8   8
#     4  12  30  52  84 128 174 224 290 362 432 522
#     4  12  27  53  85 119 168 226 291 358 432 515
#     4  12  28  49  80 121 165 226 292 359 435 520
#
# _framework density 25.427813
#
# number of rings (size 3 to 8) (size 9 to 14) (size 15 to 20)
#    0.000    0.000    2.000    7.200    8.400    0.000 
#    0.000    0.000    0.000    0.000    0.000    0.000 
#    0.000    0.000    0.000    0.000    0.000    0.000 
#
# Total GULP energy -111716.191001 kJ/mol
# GULP energy per Si atom -5585.809550 kJ/mol
# Density = 2.536994 g / cm^3
# Si number density = 25.427813 Si / 1000 Ang^3
#
#
#
# Elastic Constant Matrix: (Units=GPa)
#
#
# Indices 1 2 3 4 5 6 
#
# 1 116.5048 56.7078 4.5432 0.0000 0.0000 0.0000
# 2 56.7078 116.5053 4.5436 0.0000 0.0000 0.0000
# 3 4.5432 4.5436 223.0111 0.0000 0.0000 0.0000
# 4 0.0000 0.0000 0.0000 27.5506 0.0000 0.0000
# 5 0.0000 0.0000 0.0000 0.0000 27.5503 0.0000
# 6 0.0000 0.0000 0.0000 0.0000 0.0000 82.6631
#
#
#
# Elastic Compliance Matrix: (Units=1/GPa)
#
#
# Indices 1 2 3 4 5 6 
#
# 1 0.011251 -0.005472 -0.000118 0.000000 0.000000 0.000000
# 2 -0.005472 0.011251 -0.000118 0.000000 0.000000 0.000000
# 3 -0.000118 -0.000118 0.004489 0.000000 0.000000 0.000000
# 4 0.000000 0.000000 0.000000 0.036297 0.000000 0.000000
# 5 0.000000 0.000000 0.000000 0.000000 0.036297 0.000000
# 6 0.000000 0.000000 0.000000 0.000000 0.000000 0.012097
#
#
# Mechanical properties :
#
#
# Convention : Reuss Voigt Hill
#
# Bulk Modulus (GPa) = 64.19825 65.29003 64.74414
# Shear Modulus (GPa) = 38.97426 53.56792 46.27109
#
# Velocity S-wave (km/s) = 3.91927 4.59482 4.27043
# Velocity P-wave (km/s) = 6.76631 7.34045 7.05922
#
# Compressibility (1/GPa) = 0.01557675
#
# Stress axis : x y z
#
# Youngs Moduli (GPa) = 88.87845 88.87887 222.77271
#
# Poissons Ratio (x) = 0.48633 0.02623
# Poissons Ratio (y) = 0.48633 0.02623
# Poissons Ratio (z) = 0.01046 0.01047
#
# Static dielectric constant tensor:
#      x y z
#    x 2.076980 0.000000 0.000000 
#    y 0.000000 2.076980 0.000000 
#    z 0.000000 0.000000 2.008060 
# 
# From -- ./inp_files/3057.got.cif
#   From: 2010.05.17/outbox.cif.g08.bks.cpg/sg91_2_cif.got.tgz:3057.got - 2010.06.03 19:20:03.
