data_PCOD9548605
_publ_section_title
;
Structure prediction by ZEFSAII (Michael W. Deem and Ramdas Pophale) SiO2 
 PCOD9548605
Probable space group: P 41 2 2
;
_chemical_formula_sum "Si O2"
_cell_formula_units_Z 60
_cell_length_a 11.808874
_cell_length_b 11.808874
_cell_length_c 20.411989
_cell_angle_alpha 90.000000
_cell_angle_beta 90.000000
_cell_angle_gamma 90.000000
_cell_volume 2846.441765
_symmetry_space_group_name_H-M "P 41 2 2"
_symmetry_group_IT_number 91
_symmetry_cell_setting 'tetragonal'
loop_
_space_group_symop_operation_xyz
x,y,z
-y,x,1/4+z
-x,-y,1/2+z
y,-x,3/4+z
x,-y,1/2-z
-x,y,-z
y,x,3/4-z
-y,-x,1/4-z
loop_
_atom_site_type_symbol
_atom_site_label
_atom_site_fract_x
_atom_site_fract_y
_atom_site_fract_z
Si Si1 0.570681 0.400147 0.870705
Si Si2 0.520478 0.821847 0.690921
Si Si3 0.227782 0.515249 0.174501
Si Si4 0.263642 0.303334 0.018903
Si Si5 0.894033 0.596206 0.305780
Si Si6 0.762352 0.123154 0.761712
Si Si7 0.714299 0.885809 0.113867
Si Si8 0.760401 0.760401 0.875000
O O1 0.442216 0.442216 0.875000
O O2 0.576841 0.299866 0.819574
O O3 0.638805 0.499957 0.835817
O O4 0.634481 0.357891 0.936105
O O5 0.406891 0.798792 0.731929
O O6 0.479040 0.861384 0.619332
O O7 0.627850 0.887250 0.720594
O O8 0.198858 0.500000 0.250000
O O9 0.169888 0.410307 0.139664
O O10 0.203343 0.631746 0.140193
O O11 0.162541 0.250072 0.064154
O O12 0.327941 0.209475 0.973983
O O13 0.926060 0.500000 0.250000
O O14 0.989758 0.683174 0.334704
O O15 0.825537 0.196746 0.816236
O O16 0.784400 0.182409 0.693162
O O17 0.810879 0.000000 0.750000
#
# Coordination Sequence:
#
# PCOD9548605 Si02
#       8
#     8   8   8   8   8   8   8   4
#     4  11  21  34  61  98 146 183 220 274 343 437
#     4  12  25  43  69 105 145 188 233 291 359 443
#     4  11  20  36  59  99 135 175 220 271 356 424
#     4  11  25  46  64 107 146 188 242 289 363 445
#     4  12  25  45  75 104 144 194 241 297 366 432
#     4  12  27  46  71 106 140 188 247 303 371 429
#     4  11  25  46  71 101 140 186 241 308 354 436
#     4  12  24  42  68 100 146 188 230 300 362 438
#
# _framework density 21.078949000000001
#
# number of rings (size 3 to 8) (size 9 to 14) (size 15 to 20)
#    0.000    0.533    6.000    3.200    5.600    1.067 
#    0.000    0.000    8.800    0.000    0.000    0.000 
#    0.000    0.000    0.000    0.000    0.000    0.000 
#
# Total GULP energy -334206.392890 kJ/mol
# GULP energy per Si atom -5570.106548 kJ/mol
# Density = 2.103097 g / cm^3
# Si number density = 21.078949 Si / 1000 Ang^3
#
#
#
# Elastic Constant Matrix: (Units=GPa)
#
#
# Indices 1 2 3 4 5 6 
#
# 1 133.2804 -55.8088 20.0877 0.0000 0.0000 0.0000
# 2 -55.8088 133.2804 20.0877 0.0000 0.0000 0.0000
# 3 20.0877 20.0877 102.2886 0.0000 0.0000 0.0000
# 4 0.0000 0.0000 0.0000 -102.7513 0.0000 0.0000
# 5 0.0000 0.0000 0.0000 0.0000 -102.7513 0.0000
# 6 0.0000 0.0000 0.0000 0.0000 0.0000 -2.9085
#
#
#
# Elastic Compliance Matrix: (Units=1/GPa)
#
#
# Indices 1 2 3 4 5 6 
#
# 1 0.009830 0.004542 -0.002822 0.000000 0.000000 0.000000
# 2 0.004542 0.009830 -0.002822 0.000000 0.000000 0.000000
# 3 -0.002822 -0.002822 0.010885 0.000000 0.000000 0.000000
# 4 0.000000 0.000000 0.000000 -0.009732 0.000000 0.000000
# 5 0.000000 0.000000 0.000000 0.000000 -0.009732 0.000000
# 6 0.000000 0.000000 0.000000 0.000000 0.000000 -0.343817
#
#
# Mechanical properties :
#
#
# Convention : Reuss Voigt Hill
#
# Bulk Modulus (GPa) = 35.28755 37.50918 36.39836
# Shear Modulus (GPa) = -15.57222 -16.05006 -15.81114
#
# Velocity S-wave (km/s) = -2.72096 -2.76239 -2.74175
# Velocity P-wave (km/s) = 2.62784 2.76746 2.69855
#
# Compressibility (1/GPa) = 0.02833861
#
# Stress axis : x y z
#
# Youngs Moduli (GPa) = 101.72892 101.72892 91.87139
#
# Poissons Ratio (x) = -0.46201 0.25929
# Poissons Ratio (y) = -0.46201 0.25929
# Poissons Ratio (z) = 0.28711 0.28711
#
# Static dielectric constant tensor:
#      x y z
#    x 1.836990 0.000000 0.000000 
#    y 0.000000 1.836990 0.000000 
#    z 0.000000 0.000000 1.538300 
# 
# From -- ./inp_files/12542.got.cif
#   From: 2010.05.17/outbox.cif.g08.bks.cpg/sg91_7_cif.got.tgz:12542.got - 2010.06.03 19:20:03.
