data_PCOD9548480
_publ_section_title
;
Structure prediction by ZEFSAII (Michael W. Deem and Ramdas Pophale) SiO2 
 PCOD9548480
Probable space group: P 41 2 2
;
_chemical_formula_sum "Si O2"
_cell_formula_units_Z 40
_cell_length_a 7.897384
_cell_length_b 7.897384
_cell_length_c 25.884662
_cell_angle_alpha 90.000000
_cell_angle_beta 90.000000
_cell_angle_gamma 90.000000
_cell_volume 1614.392047
_symmetry_space_group_name_H-M "P 41 2 2"
_symmetry_group_IT_number 91
_symmetry_cell_setting 'tetragonal'
loop_
_space_group_symop_operation_xyz
x,y,z
-y,x,1/4+z
-x,-y,1/2+z
y,-x,3/4+z
x,-y,1/2-z
-x,y,-z
y,x,3/4-z
-y,-x,1/4-z
loop_
_atom_site_type_symbol
_atom_site_label
_atom_site_fract_x
_atom_site_fract_y
_atom_site_fract_z
Si Si1 0.792414 0.727097 0.492930
Si Si2 0.342709 0.578468 0.843669
Si Si3 0.364956 0.832119 0.301571
Si Si4 0.626364 0.955562 0.047291
Si Si5 0.846540 0.607740 0.894289
O O1 0.660242 0.744098 0.541554
O O2 0.762223 0.538098 0.471750
O O3 0.724168 0.865834 0.452057
O O4 0.000000 0.747831 0.500000
O O5 0.408374 0.408374 0.875000
O O6 0.221686 0.648803 0.888109
O O7 0.520482 0.675118 0.836452
O O8 0.190866 0.758524 0.281801
O O9 0.381438 0.032011 0.306921
O O10 0.519124 0.915894 0.099506
O O11 0.500000 0.952679 0.000000
O O12 0.792433 0.792433 0.875000
#
# Coordination Sequence:
#
# PCOD9548480 Si02
#       5
#     8   8   8   8   8
#     4  12  27  49  76 114 157 203 267 338 398 481
#     4  10  24  45  72 105 152 200 251 317 389 478
#     4  11  26  45  77 109 149 204 253 317 407 459
#     4  11  28  45  74 115 148 201 265 321 390 484
#     4  10  23  48  72 105 151 197 252 316 396 469
#
# _framework density 24.777127
#
# number of rings (size 3 to 8) (size 9 to 14) (size 15 to 20)
#    0.000    1.200    2.000    1.200   14.000    4.000 
#    0.000    0.000    0.000    0.000    0.000    0.000 
#    0.000    0.000    0.000    0.000    0.000    0.000 
#
# Total GULP energy -222711.843136 kJ/mol
# GULP energy per Si atom -5567.796078 kJ/mol
# Density = 2.472073 g / cm^3
# Si number density = 24.777127 Si / 1000 Ang^3
#
#
#
# Elastic Constant Matrix: (Units=GPa)
#
#
# Indices 1 2 3 4 5 6 
#
# 1 95.4077 41.9441 39.3214 0.0000 0.0000 0.0000
# 2 41.9441 95.4077 39.3214 0.0000 0.0000 0.0000
# 3 39.3214 39.3214 93.8278 0.0000 0.0000 0.0000
# 4 0.0000 0.0000 0.0000 31.6010 0.0000 0.0000
# 5 0.0000 0.0000 0.0000 0.0000 31.6010 0.0000
# 6 0.0000 0.0000 0.0000 0.0000 0.0000 42.8755
#
#
#
# Elastic Compliance Matrix: (Units=1/GPa)
#
#
# Indices 1 2 3 4 5 6 
#
# 1 0.014142 -0.004563 -0.004014 0.000000 0.000000 0.000000
# 2 -0.004563 0.014142 -0.004014 0.000000 0.000000 0.000000
# 3 -0.004014 -0.004014 0.014023 0.000000 0.000000 0.000000
# 4 0.000000 0.000000 0.000000 0.031645 0.000000 0.000000
# 5 0.000000 0.000000 0.000000 0.000000 0.031645 0.000000
# 6 0.000000 0.000000 0.000000 0.000000 0.000000 0.023323
#
#
# Mechanical properties :
#
#
# Convention : Reuss Voigt Hill
#
# Bulk Modulus (GPa) = 58.40072 58.42412 58.41242
# Shear Modulus (GPa) = 31.28735 32.15258 31.71996
#
# Velocity S-wave (km/s) = 3.55738 3.60623 3.58189
# Velocity P-wave (km/s) = 6.36355 6.40085 6.38223
#
# Compressibility (1/GPa) = 0.01712308
#
# Stress axis : x y z
#
# Youngs Moduli (GPa) = 70.71282 70.71282 71.31377
#
# Poissons Ratio (x) = 0.32264 0.28628
# Poissons Ratio (y) = 0.32264 0.28628
# Poissons Ratio (z) = 0.28387 0.28387
#
# Static dielectric constant tensor:
#      x y z
#    x 2.152220 0.000000 0.000000 
#    y 0.000000 2.152220 0.000000 
#    z 0.000000 0.000000 2.146520 
# 
# From -- ./inp_files/17502.got.cif
#   From: 2010.05.17/outbox.cif.g08.bks.cpg/sg91_9_cif.got.tgz:17502.got - 2010.06.03 19:20:03.
