data_PCOD9548103
_publ_section_title
;
Structure prediction by ZEFSAII (Michael W. Deem and Ramdas Pophale) SiO2 
 PCOD9548103
Probable space group: P 41 2 2
;
_chemical_formula_sum "Si O2"
_cell_formula_units_Z 40
_cell_length_a 7.189382
_cell_length_b 7.189382
_cell_length_c 28.285053
_cell_angle_alpha 90.000000
_cell_angle_beta 90.000000
_cell_angle_gamma 90.000000
_cell_volume 1461.975574
_symmetry_space_group_name_H-M "P 41 2 2"
_symmetry_group_IT_number 91
_symmetry_cell_setting 'tetragonal'
loop_
_space_group_symop_operation_xyz
x,y,z
-y,x,1/4+z
-x,-y,1/2+z
y,-x,3/4+z
x,-y,1/2-z
-x,y,-z
y,x,3/4-z
-y,-x,1/4-z
loop_
_atom_site_type_symbol
_atom_site_label
_atom_site_fract_x
_atom_site_fract_y
_atom_site_fract_z
Si Si1 0.652137 0.000000 0.750000
Si Si2 0.813694 0.168215 0.069989
Si Si3 0.738076 0.279981 0.818932
Si Si4 0.247416 0.757675 0.822394
Si Si5 0.695706 0.811682 0.929082
Si Si6 0.325753 0.500000 0.750000
O O1 0.593015 0.848641 0.709181
O O2 0.239371 0.976451 0.810493
O O3 0.778543 0.221458 0.125000
O O4 0.813010 0.943103 0.066318
O O5 0.650406 0.225551 0.034667
O O6 0.708135 0.296470 0.874498
O O7 0.753671 0.146338 0.715670
O O8 0.748660 0.492695 0.803886
O O9 0.389740 0.648968 0.789081
O O10 0.035389 0.690886 0.818457
O O11 0.749047 0.749047 0.875000
#
# Coordination Sequence:
#
# PCOD9548103 Si02
#       6
#     4   8   8   8   8   4
#     4  12  22  40  72 120 146 192 266 300 374 448
#     4  10  21  37  62 108 148 185 247 303 357 442
#     4  11  23  39  68 106 152 196 243 309 371 441
#     4  11  22  40  66 108 147 194 248 308 362 441
#     4  12  23  41  71 106 152 202 247 311 374 445
#     4  12  22  38  76 106 142 206 246 294 386 432
#
# _framework density 27.360242
#
# number of rings (size 3 to 8) (size 9 to 14) (size 15 to 20)
#    0.000    0.800    6.000    3.000    0.000    0.000 
#    0.000    1.000   17.600    0.000    0.000    0.000 
#    0.000    0.000    0.000    0.000    0.000    0.000 
#
# Total GULP energy -223696.069914 kJ/mol
# GULP energy per Si atom -5592.401748 kJ/mol
# Density = 2.729797 g / cm^3
# Si number density = 27.360242 Si / 1000 Ang^3
#
#
#
# Elastic Constant Matrix: (Units=GPa)
#
#
# Indices 1 2 3 4 5 6 
#
# 1 165.4452 55.2037 63.1558 0.0000 0.0000 0.0000
# 2 55.2037 165.4451 63.1558 0.0000 0.0000 0.0000
# 3 63.1558 63.1558 203.9773 0.0000 0.0000 0.0000
# 4 0.0000 0.0000 0.0000 29.0735 0.0000 0.0000
# 5 0.0000 0.0000 0.0000 0.0000 29.0734 0.0000
# 6 0.0000 0.0000 0.0000 0.0000 0.0000 -205.1438
#
#
#
# Elastic Compliance Matrix: (Units=1/GPa)
#
#
# Indices 1 2 3 4 5 6 
#
# 1 0.007290 -0.001781 -0.001706 0.000000 0.000000 0.000000
# 2 -0.001781 0.007290 -0.001706 0.000000 0.000000 0.000000
# 3 -0.001706 -0.001706 0.005959 0.000000 0.000000 0.000000
# 4 0.000000 0.000000 0.000000 0.034396 0.000000 0.000000
# 5 0.000000 0.000000 0.000000 0.000000 0.034396 0.000000
# 6 0.000000 0.000000 0.000000 0.000000 0.000000 -0.004875
#
#
# Mechanical properties :
#
#
# Convention : Reuss Voigt Hill
#
# Bulk Modulus (GPa) = 98.48936 99.76649 99.12792
# Shear Modulus (GPa) = 50.90412 -5.84257 22.53078
#
# Velocity S-wave (km/s) = 4.31805 -1.46289 2.87276
# Velocity P-wave (km/s) = 7.80616 5.80429 6.87844
#
# Compressibility (1/GPa) = 0.01015338
#
# Stress axis : x y z
#
# Youngs Moduli (GPa) = 137.17969 137.17953 167.82340
#
# Poissons Ratio (x) = 0.24436 0.28623
# Poissons Ratio (y) = 0.24436 0.28623
# Poissons Ratio (z) = 0.23396 0.23396
#
# Static dielectric constant tensor:
#      x y z
#    x 2.137040 0.000000 0.000000 
#    y 0.000000 2.137040 0.000000 
#    z 0.000000 0.000000 2.166880 
# 
# From -- ./inp_files/17536.got.cif
#   From: 2010.05.17/outbox.cif.g08.bks.cpg/sg91_9_cif.got.tgz:17536.got - 2010.06.03 19:20:03.
