data_PCOD9548538
_publ_section_title
;
Structure prediction by ZEFSAII (Michael W. Deem and Ramdas Pophale) SiO2 
 PCOD9548538
Probable space group: P 41 2 2
;
_chemical_formula_sum "Si O2"
_cell_formula_units_Z 24
_cell_length_a 7.578644
_cell_length_b 7.578644
_cell_length_c 17.032676
_cell_angle_alpha 90.000000
_cell_angle_beta 90.000000
_cell_angle_gamma 90.000000
_cell_volume 978.286137
_symmetry_space_group_name_H-M "P 41 2 2"
_symmetry_group_IT_number 91
_symmetry_cell_setting 'tetragonal'
loop_
_space_group_symop_operation_xyz
x,y,z
-y,x,1/4+z
-x,-y,1/2+z
y,-x,3/4+z
x,-y,1/2-z
-x,y,-z
y,x,3/4-z
-y,-x,1/4-z
loop_
_atom_site_type_symbol
_atom_site_label
_atom_site_fract_x
_atom_site_fract_y
_atom_site_fract_z
Si Si1 0.427624 0.672943 0.826382
Si Si2 0.182235 0.169138 0.968097
Si Si3 0.780930 0.708820 0.736289
O O1 0.509907 0.509907 0.875000
O O2 0.301975 0.673313 0.751393
O O3 0.611873 0.760426 0.790638
O O4 0.294229 0.749184 0.892775
O O5 0.174856 0.174856 0.875000
O O6 0.203093 0.969561 0.000214
O O7 0.000000 0.245073 0.000000
O O8 0.804633 0.500000 0.750000
#
# Coordination Sequence:
#
# PCOD9548538 Si02
#       3
#     8   8   8
#     4  10  24  48  74 108 155 205 255 326 394 463
#     4  12  26  48  78 116 155 205 269 325 398 480
#     4  10  24  46  75 108 151 202 258 319 399 461
#
# _framework density 24.532696999999999
#
# number of rings (size 3 to 8) (size 9 to 14) (size 15 to 20)
#    0.000    1.333    3.333    0.000    0.000   18.667 
#    0.000    0.000    0.000    0.000    0.000    0.000 
#    0.000    0.000    0.000    0.000    0.000    0.000 
#
# Total GULP energy -133668.427546 kJ/mol
# GULP energy per Si atom -5569.517814 kJ/mol
# Density = 2.447686 g / cm^3
# Si number density = 24.532697 Si / 1000 Ang^3
#
#
#
# Elastic Constant Matrix: (Units=GPa)
#
#
# Indices 1 2 3 4 5 6 
#
# 1 113.0091 41.7886 27.4067 0.0000 0.0000 0.0000
# 2 41.7886 113.0091 27.4067 0.0000 0.0000 0.0000
# 3 27.4067 27.4067 152.0700 0.0000 0.0000 0.0000
# 4 0.0000 0.0000 0.0000 28.9721 0.0000 0.0000
# 5 0.0000 0.0000 0.0000 0.0000 28.9721 0.0000
# 6 0.0000 0.0000 0.0000 0.0000 0.0000 17.8018
#
#
#
# Elastic Compliance Matrix: (Units=1/GPa)
#
#
# Indices 1 2 3 4 5 6 
#
# 1 0.010471 -0.003570 -0.001244 0.000000 0.000000 0.000000
# 2 -0.003570 0.010471 -0.001244 0.000000 0.000000 0.000000
# 3 -0.001244 -0.001244 0.007024 0.000000 0.000000 0.000000
# 4 0.000000 0.000000 0.000000 0.034516 0.000000 0.000000
# 5 0.000000 0.000000 0.000000 0.000000 0.034516 0.000000
# 6 0.000000 0.000000 0.000000 0.000000 0.000000 0.056174
#
#
# Mechanical properties :
#
#
# Convention : Reuss Voigt Hill
#
# Bulk Modulus (GPa) = 63.08945 63.47691 63.28318
# Shear Modulus (GPa) = 29.31343 33.91490 31.61416
#
# Velocity S-wave (km/s) = 3.46044 3.72215 3.59368
# Velocity P-wave (km/s) = 6.46054 6.66356 6.56283
#
# Compressibility (1/GPa) = 0.01585051
#
# Stress axis : x y z
#
# Youngs Moduli (GPa) = 95.50494 95.50494 142.36530
#
# Poissons Ratio (x) = 0.34098 0.17705
# Poissons Ratio (y) = 0.34098 0.17705
# Poissons Ratio (z) = 0.11877 0.11877
#
# Static dielectric constant tensor:
#      x y z
#    x 1.974750 0.000000 0.000000 
#    y 0.000000 1.974750 0.000000 
#    z 0.000000 0.000000 2.000690 
# 
# From -- ./inp_files/20897.got.cif
#   From: 2010.05.17/outbox.cif.g08.bks.cpg/sg91_11_cif.got.tgz:20897.got - 2010.06.03 19:20:03.
