data_PCOD9548987
_publ_section_title
;
Structure prediction by ZEFSAII (Michael W. Deem and Ramdas Pophale) SiO2 
 PCOD9548987
Probable space group: P 41 21 2
;
_chemical_formula_sum "Si O2"
_cell_formula_units_Z 56
_cell_length_a 15.305367
_cell_length_b 15.305367
_cell_length_c 11.363573
_cell_angle_alpha 90.000000
_cell_angle_beta 90.000000
_cell_angle_gamma 90.000000
_cell_volume 2661.965373
_symmetry_space_group_name_H-M "P 41 21 2"
_symmetry_group_IT_number 92
_symmetry_cell_setting 'tetragonal'
loop_
_space_group_symop_operation_xyz
x,y,z
1/2-y,1/2+x,1/4+z
-x,-y,1/2+z
1/2+y,1/2-x,3/4+z
1/2+x,1/2-y,3/4-z
1/2-x,1/2+y,1/4-z
y,x,-z
-y,-x,1/2-z
loop_
_atom_site_type_symbol
_atom_site_label
_atom_site_fract_x
_atom_site_fract_y
_atom_site_fract_z
Si Si1 0.292679 0.591512 0.839592
Si Si2 0.878283 0.014321 0.449775
Si Si3 0.170446 0.384005 0.526914
Si Si4 0.315893 0.463135 0.657158
Si Si5 0.801207 0.879307 0.272603
Si Si6 0.781218 0.626326 0.763202
Si Si7 0.036852 0.536820 0.472221
O O1 0.340234 0.659766 0.750000
O O2 0.190717 0.604248 0.816554
O O3 0.319865 0.497554 0.790449
O O4 0.324374 0.617786 0.968953
O O5 0.926719 0.089802 0.375505
O O6 0.807796 0.075374 0.519547
O O7 0.822527 0.939924 0.383251
O O8 0.958160 0.958160 0.500000
O O9 0.240677 0.394824 0.629732
O O10 0.218950 0.360433 0.405253
O O11 0.118536 0.472501 0.498067
O O12 0.287796 0.545880 0.577318
O O13 0.719973 0.813415 0.286697
O O14 0.863075 0.563905 0.736588
O O15 0.012387 0.523393 0.335081
#
# Coordination Sequence:
#
# PCOD9548987 Si02
#       7
#     8   8   8   8   8   8   8
#     4  10  20  33  56  92 133 154 198 265 333 386
#     4  12  26  40  61  91 129 178 225 262 324 414
#     4  11  18  35  63  98 124 157 212 276 348 388
#     4  11  20  34  60  97 129 157 203 273 333 386
#     4  11  20  37  61  89 124 165 209 267 332 392
#     4  11  20  39  64  90 117 162 223 280 324 393
#     4  10  20  37  61  94 129 166 223 284 336 401
#
# _framework density 21.037089999999999
#
# number of rings (size 3 to 8) (size 9 to 14) (size 15 to 20)
#    0.000    1.143    5.714    4.286    0.000    0.000 
#    2.571    0.000    0.000    1.714    0.000    0.000 
#    0.000    0.000    0.000    0.000    0.000    0.000 
#
# Total GULP energy -311875.256926 kJ/mol
# GULP energy per Si atom -5569.201017 kJ/mol
# Density = 2.098921 g / cm^3
# Si number density = 21.037090 Si / 1000 Ang^3
#
#
#
# Elastic Constant Matrix: (Units=GPa)
#
#
# Indices 1 2 3 4 5 6 
#
# 1 85.9442 36.8848 7.9807 0.0000 0.0000 0.0000
# 2 36.8848 85.9442 7.9807 0.0000 0.0000 0.0000
# 3 7.9807 7.9807 23.9538 0.0000 0.0000 0.0000
# 4 0.0000 0.0000 0.0000 21.0131 0.0000 0.0000
# 5 0.0000 0.0000 0.0000 0.0000 21.0131 0.0000
# 6 0.0000 0.0000 0.0000 0.0000 0.0000 44.0530
#
#
#
# Elastic Compliance Matrix: (Units=1/GPa)
#
#
# Indices 1 2 3 4 5 6 
#
# 1 0.014447 -0.005937 -0.002835 0.000000 0.000000 0.000000
# 2 -0.005937 0.014447 -0.002835 0.000000 0.000000 0.000000
# 3 -0.002835 -0.002835 0.043636 0.000000 0.000000 0.000000
# 4 0.000000 0.000000 0.000000 0.047589 0.000000 0.000000
# 5 0.000000 0.000000 0.000000 0.000000 0.047589 0.000000
# 6 0.000000 0.000000 0.000000 0.000000 0.000000 0.022700
#
#
# Mechanical properties :
#
#
# Convention : Reuss Voigt Hill
#
# Bulk Modulus (GPa) = 20.27782 33.50385 26.89084
# Shear Modulus (GPa) = 21.73336 26.74890 24.24113
#
# Velocity S-wave (km/s) = 3.21767 3.56969 3.39824
# Velocity P-wave (km/s) = 4.84402 5.74029 5.31110
#
# Compressibility (1/GPa) = 0.04931496
#
# Stress axis : x y z
#
# Youngs Moduli (GPa) = 69.22024 69.22024 22.91674
#
# Poissons Ratio (x) = 0.41095 0.06497
# Poissons Ratio (y) = 0.41095 0.06497
# Poissons Ratio (z) = 0.19626 0.19626
#
# Static dielectric constant tensor:
#      x y z
#    x 1.789920 0.000000 0.000000 
#    y 0.000000 1.789920 0.000000 
#    z 0.000000 0.000000 1.812610 
# 
# From -- ./inp_files/2259.got.cif
#   From: 2010.05.17/outbox.cif.g08.bks.cpg/sg92_2_cif.got.tgz:2259.got - 2010.06.03 19:35:17.
