data_PCOD9548133
_publ_section_title
;
Structure prediction by ZEFSAII (Michael W. Deem and Ramdas Pophale) SiO2 
 PCOD9548133
Probable space group: P 41 2 2
;
_chemical_formula_sum "Si O2"
_cell_formula_units_Z 56
_cell_length_a 14.807015
_cell_length_b 14.807015
_cell_length_c 11.578135
_cell_angle_alpha 90.000000
_cell_angle_beta 90.000000
_cell_angle_gamma 90.000000
_cell_volume 2538.479390
_symmetry_space_group_name_H-M "P 41 2 2"
_symmetry_group_IT_number 91
_symmetry_cell_setting 'tetragonal'
loop_
_space_group_symop_operation_xyz
x,y,z
-y,x,1/4+z
-x,-y,1/2+z
y,-x,3/4+z
x,-y,1/2-z
-x,y,-z
y,x,3/4-z
-y,-x,1/4-z
loop_
_atom_site_type_symbol
_atom_site_label
_atom_site_fract_x
_atom_site_fract_y
_atom_site_fract_z
Si Si1 0.782496 0.306123 0.391917
Si Si2 0.230317 0.380362 0.014496
Si Si3 0.304848 0.566111 0.078447
Si Si4 0.401274 0.890558 0.544716
Si Si5 0.012989 0.244055 0.222614
Si Si6 0.136445 0.399679 0.251619
Si Si7 0.848966 0.907223 0.674492
O O1 0.718277 0.270374 0.288173
O O2 0.723524 0.370272 0.472267
O O3 0.857551 0.361870 0.326644
O O4 0.836006 0.229215 0.463084
O O5 0.298460 0.461711 0.045307
O O6 0.157584 0.382440 0.117791
O O7 0.186220 0.404073 0.892581
O O8 0.400239 0.599762 0.125000
O O9 0.227873 0.588246 0.174524
O O10 0.500000 0.917444 0.500000
O O11 0.323532 0.958435 0.592913
O O12 0.080175 0.312644 0.292710
O O13 0.067675 0.162491 0.162692
O O14 0.945569 0.188863 0.304770
O O15 0.095475 0.500000 0.250000
O O16 0.864097 0.000000 0.750000
#
# Coordination Sequence:
#
# PCOD9548133 Si02
#       7
#     8   8   8   8   8   8   8
#     4  11  22  42  68  98 136 189 228 285 359 419
#     4  11  22  40  67  96 140 182 233 287 359 426
#     4  11  20  36  68  99 137 176 227 284 349 428
#     4  11  24  43  68  97 136 188 242 290 355 435
#     4  11  23  43  66  98 138 177 241 296 362 434
#     4  10  21  38  66 102 134 177 225 296 359 421
#     4  11  23  42  70  99 136 185 235 299 361 434
#
# _framework density 22.060449999999999
#
# number of rings (size 3 to 8) (size 9 to 14) (size 15 to 20)
#    0.000    1.143    4.286    2.143    0.000    0.571 
#    0.000    7.143    3.143    0.000    0.000    0.000 
#    0.000    0.000    0.000    0.000    0.000    0.000 
#
# Total GULP energy -311756.176418 kJ/mol
# GULP energy per Si atom -5567.074579 kJ/mol
# Density = 2.201024 g / cm^3
# Si number density = 22.060450 Si / 1000 Ang^3
#
#
#
# Elastic Constant Matrix: (Units=GPa)
#
#
# Indices 1 2 3 4 5 6 
#
# 1 116.7037 74.6038 10.7293 0.0000 0.0000 0.0000
# 2 74.6038 116.7047 10.7295 0.0000 0.0000 0.0000
# 3 10.7293 10.7295 52.2410 0.0000 0.0000 0.0000
# 4 0.0000 0.0000 0.0000 5050.1369 0.0000 0.0000
# 5 0.0000 0.0000 0.0000 0.0000 5363.9416 0.0000
# 6 0.0000 0.0000 0.0000 0.0000 0.0000 554.0578
#
#
#
# Elastic Compliance Matrix: (Units=1/GPa)
#
#
# Indices 1 2 3 4 5 6 
#
# 1 0.014552 -0.009201 -0.001099 0.000000 0.000000 0.000000
# 2 -0.009201 0.014552 -0.001099 0.000000 0.000000 0.000000
# 3 -0.001099 -0.001099 0.019593 0.000000 0.000000 0.000000
# 4 0.000000 0.000000 0.000000 0.000198 0.000000 0.000000
# 5 0.000000 0.000000 0.000000 0.000000 0.000186 0.000000
# 6 0.000000 0.000000 0.000000 0.000000 0.000000 0.001805
#
#
# Mechanical properties :
#
#
# Convention : Reuss Voigt Hill
#
# Bulk Modulus (GPa) = 38.61189 53.08608 45.84899
# Shear Modulus (GPa) = 60.74097 2206.26636 1133.50366
#
# Velocity S-wave (km/s) = 5.25297 31.65867 22.69213
# Velocity P-wave (km/s) = 7.37104 36.88466 26.59709
#
# Compressibility (1/GPa) = 0.02589876
#
# Stress axis : x y z
#
# Youngs Moduli (GPa) = 68.72072 68.72125 51.03746
#
# Poissons Ratio (x) = 0.63232 0.05608
# Poissons Ratio (y) = 0.63231 0.05609
# Poissons Ratio (z) = 0.07551 0.07552
#
# Static dielectric constant tensor:
#      x y z
#    x -23.980730 0.000000 0.000000 
#    y 0.000000 -25.589060 0.000000 
#    z 0.000000 0.000000 1.815740 
# 
# From -- ./inp_files/15964.got.cif
#   From: 2010.05.17/outbox.cif.g08.bks.cpg/sg91_8_cif.got.tgz:15964.got - 2010.06.03 19:20:03.
