data_PCOD9548761
_publ_section_title
;
Structure prediction by ZEFSAII (Michael W. Deem and Ramdas Pophale) SiO2 
 PCOD9548761
Probable space group: P 41 2 2
;
_chemical_formula_sum "Si O2"
_cell_formula_units_Z 36
_cell_length_a 8.832837
_cell_length_b 8.832837
_cell_length_c 21.072282
_cell_angle_alpha 90.000000
_cell_angle_beta 90.000000
_cell_angle_gamma 90.000000
_cell_volume 1644.038569
_symmetry_space_group_name_H-M "P 41 2 2"
_symmetry_group_IT_number 91
_symmetry_cell_setting 'tetragonal'
loop_
_space_group_symop_operation_xyz
x,y,z
-y,x,1/4+z
-x,-y,1/2+z
y,-x,3/4+z
x,-y,1/2-z
-x,y,-z
y,x,3/4-z
-y,-x,1/4-z
loop_
_atom_site_type_symbol
_atom_site_label
_atom_site_fract_x
_atom_site_fract_y
_atom_site_fract_z
Si Si1 0.641074 0.069297 0.856248
Si Si2 0.322229 0.775798 0.220713
Si Si3 0.500000 0.486937 0.000000
Si Si4 0.640270 0.208375 0.071224
Si Si5 0.032111 0.167552 0.718868
O O1 0.642933 0.166671 0.792080
O O2 0.501342 0.119026 0.899706
O O3 0.623555 0.898467 0.830683
O O4 0.796570 0.086988 0.896877
O O5 0.406316 0.617909 0.213748
O O6 0.141611 0.779111 0.217081
O O7 0.585114 0.372416 0.047267
O O8 0.764201 0.235800 0.125000
O O9 0.719661 0.124225 0.013627
O O10 0.040981 0.000000 0.750000
#
# Coordination Sequence:
#
# PCOD9548761 Si02
#       5
#     8   8   4   8   8
#     4  11  24  50  70 109 145 189 246 296 366 443
#     4  11  27  45  77 103 148 192 240 301 368 443
#     4  12  26  50  68 114 142 198 240 306 372 434
#     4  12  27  46  74 108 149 193 246 305 371 438
#     4  12  27  47  73 109 145 194 246 302 367 433
#
# _framework density 21.897296000000001
#
# number of rings (size 3 to 8) (size 9 to 14) (size 15 to 20)
#    0.000    0.444    6.667    0.667    6.222    5.333 
#    0.000    0.000    0.000    0.000    0.000    0.000 
#    0.000    0.000    0.000    0.000    0.000    0.000 
#
# Total GULP energy -201388.973758 kJ/mol
# GULP energy per Si atom -5594.138160 kJ/mol
# Density = 2.184746 g / cm^3
# Si number density = 21.897296 Si / 1000 Ang^3
#
#
#
# Elastic Constant Matrix: (Units=GPa)
#
#
# Indices 1 2 3 4 5 6 
#
# 1 77.9504 71.5781 34.5249 0.0000 0.0000 0.0000
# 2 71.5781 77.9514 34.5252 0.0000 0.0000 0.0000
# 3 34.5249 34.5252 113.8732 0.0000 0.0000 0.0000
# 4 0.0000 0.0000 0.0000 28.4570 0.0000 0.0000
# 5 0.0000 0.0000 0.0000 0.0000 28.4565 0.0000
# 6 0.0000 0.0000 0.0000 0.0000 0.0000 32.9909
#
#
#
# Elastic Compliance Matrix: (Units=1/GPa)
#
#
# Indices 1 2 3 4 5 6 
#
# 1 0.082347 -0.074570 -0.002358 0.000000 0.000000 0.000000
# 2 -0.074570 0.082346 -0.002358 0.000000 0.000000 0.000000
# 3 -0.002358 -0.002358 0.010211 0.000000 0.000000 0.000000
# 4 0.000000 0.000000 0.000000 0.035141 0.000000 0.000000
# 5 0.000000 0.000000 0.000000 0.000000 0.035141 0.000000
# 6 0.000000 0.000000 0.000000 0.000000 0.000000 0.030311
#
#
# Mechanical properties :
#
#
# Convention : Reuss Voigt Hill
#
# Bulk Modulus (GPa) = 61.22453 61.22572 61.22513
# Shear Modulus (GPa) = 11.37625 26.59069 18.98347
#
# Velocity S-wave (km/s) = 2.28179 3.48851 2.94757
# Velocity P-wave (km/s) = 5.91292 6.65187 6.29325
#
# Compressibility (1/GPa) = 0.01633332
#
# Stress axis : x y z
#
# Youngs Moduli (GPa) = 12.14378 12.14392 97.93007
#
# Poissons Ratio (x) = 0.90557 0.23089
# Poissons Ratio (y) = 0.90556 0.23090
# Poissons Ratio (z) = 0.02863 0.02863
#
# Static dielectric constant tensor:
#      x y z
#    x 1.786000 0.000000 0.000000 
#    y 0.000000 1.786000 0.000000 
#    z 0.000000 0.000000 1.813370 
# 
# From -- ./inp_files/12284.got.cif
#   From: 2010.05.17/outbox.cif.g08.bks.cpg/sg91_7_cif.got.tgz:12284.got - 2010.06.03 19:20:03.
