data_PCOD9548235
_publ_section_title
;
Structure prediction by ZEFSAII (Michael W. Deem and Ramdas Pophale) SiO2 
 PCOD9548235
Probable space group: P 41 2 2
;
_chemical_formula_sum "Si O2"
_cell_formula_units_Z 32
_cell_length_a 18.768019
_cell_length_b 18.768019
_cell_length_c 5.447699
_cell_angle_alpha 90.000000
_cell_angle_beta 90.000000
_cell_angle_gamma 90.000000
_cell_volume 1918.889527
_symmetry_space_group_name_H-M "P 41 2 2"
_symmetry_group_IT_number 91
_symmetry_cell_setting 'tetragonal'
loop_
_space_group_symop_operation_xyz
x,y,z
-y,x,1/4+z
-x,-y,1/2+z
y,-x,3/4+z
x,-y,1/2-z
-x,y,-z
y,x,3/4-z
-y,-x,1/4-z
loop_
_atom_site_type_symbol
_atom_site_label
_atom_site_fract_x
_atom_site_fract_y
_atom_site_fract_z
Si Si1 0.347312 0.078989 0.871573
Si Si2 0.137388 0.940444 0.931715
Si Si3 0.500000 0.047217 0.000000
Si Si4 0.000000 0.262221 0.500000
Si Si5 0.239527 0.186846 0.634187
O O1 0.429671 0.092286 0.934907
O O2 0.306858 0.134847 0.695994
O O3 0.347009 0.000000 0.750000
O O4 0.306366 0.064260 0.128835
O O5 0.169382 0.864148 0.855599
O O6 0.110745 0.000000 0.750000
O O7 0.077799 0.922202 0.125000
O O8 0.208214 0.974938 0.043601
O O9 0.514545 0.000000 0.750000
O O10 0.229031 0.229031 0.375000
O O11 0.236070 0.236070 0.875000
#
# Coordination Sequence:
#
# PCOD9548235 Si02
#       5
#     8   8   4   4   8
#     4  11  20  34  50  78 103 131 166 209 268 325
#     4  11  23  33  51  69  82 117 155 210 271 327
#     4  10  22  32  52  76 108 136 162 200 268 336
#     4  12  18  36  54  66  96 120 152 214 262 320
#     4  11  22  34  54  75  92 123 166 211 259 313
#
# _framework density 16.676310999999998
#
# number of rings (size 3 to 8) (size 9 to 14) (size 15 to 20)
#    0.000    1.000    6.250    3.000    0.000    0.000 
#    0.000    0.000    2.750    1.500    0.000    0.000 
#    0.000    0.000    0.000    0.000    0.000    0.000 
#
# Total GULP energy -178289.505770 kJ/mol
# GULP energy per Si atom -5571.547055 kJ/mol
# Density = 1.663835 g / cm^3
# Si number density = 16.676311 Si / 1000 Ang^3
#
#
#
# Elastic Constant Matrix: (Units=GPa)
#
#
# Indices 1 2 3 4 5 6 
#
# 1 82.8452 30.3433 43.9589 0.0000 0.0000 0.0000
# 2 30.3433 82.8443 43.9594 0.0000 0.0000 0.0000
# 3 43.9589 43.9594 114.7446 0.0000 0.0000 0.0000
# 4 0.0000 0.0000 0.0000 21.1757 0.0000 0.0000
# 5 0.0000 0.0000 0.0000 0.0000 21.1754 0.0000
# 6 0.0000 0.0000 0.0000 0.0000 0.0000 7.7250
#
#
#
# Elastic Compliance Matrix: (Units=1/GPa)
#
#
# Indices 1 2 3 4 5 6 
#
# 1 0.015812 -0.003235 -0.004818 0.000000 0.000000 0.000000
# 2 -0.003235 0.015813 -0.004819 0.000000 0.000000 0.000000
# 3 -0.004818 -0.004819 0.012407 0.000000 0.000000 0.000000
# 4 0.000000 0.000000 0.000000 0.047224 0.000000 0.000000
# 5 0.000000 0.000000 0.000000 0.000000 0.047225 0.000000
# 6 0.000000 0.000000 0.000000 0.000000 0.000000 0.129449
#
#
# Mechanical properties :
#
#
# Convention : Reuss Voigt Hill
#
# Bulk Modulus (GPa) = 54.68033 57.43970 56.06002
# Shear Modulus (GPa) = 16.67949 20.82673 18.75311
#
# Velocity S-wave (km/s) = 3.16601 3.53779 3.35705
# Velocity P-wave (km/s) = 6.79891 7.15588 6.97968
#
# Compressibility (1/GPa) = 0.01828811
#
# Stress axis : x y z
#
# Youngs Moduli (GPa) = 63.24226 63.24102 80.59945
#
# Poissons Ratio (x) = 0.20457 0.38837
# Poissons Ratio (y) = 0.20457 0.38838
# Poissons Ratio (z) = 0.30473 0.30474
#
# Static dielectric constant tensor:
#      x y z
#    x 1.586060 0.000000 0.000000 
#    y 0.000000 1.586060 0.000000 
#    z 0.000000 0.000000 1.746520 
# 
# From -- ./inp_files/722.got.cif
#   From: 2010.05.17/outbox.cif.g08.bks.cpg/sg91_1_cif.got.tgz:722.got - 2010.06.03 19:20:03.
