data_PCOD9548972
_publ_section_title
;
Structure prediction by ZEFSAII (Michael W. Deem and Ramdas Pophale) SiO2 
 PCOD9548972
Probable space group: P 41 21 2
;
_chemical_formula_sum "Si O2"
_cell_formula_units_Z 44
_cell_length_a 11.314211
_cell_length_b 11.314211
_cell_length_c 16.884735
_cell_angle_alpha 90.000000
_cell_angle_beta 90.000000
_cell_angle_gamma 90.000000
_cell_volume 2161.438069
_symmetry_space_group_name_H-M "P 41 21 2"
_symmetry_group_IT_number 92
_symmetry_cell_setting 'tetragonal'
loop_
_space_group_symop_operation_xyz
x,y,z
1/2-y,1/2+x,1/4+z
-x,-y,1/2+z
1/2+y,1/2-x,3/4+z
1/2+x,1/2-y,3/4-z
1/2-x,1/2+y,1/4-z
y,x,-z
-y,-x,1/2-z
loop_
_atom_site_type_symbol
_atom_site_label
_atom_site_fract_x
_atom_site_fract_y
_atom_site_fract_z
Si Si1 0.912904 0.637821 0.266288
Si Si2 0.378544 0.608126 0.945337
Si Si3 0.677139 0.322862 0.750000
Si Si4 0.510006 0.404692 0.615021
Si Si5 0.621501 0.973250 0.549917
Si Si6 0.177210 0.757888 0.538813
O O1 0.955840 0.758767 0.223038
O O2 0.947252 0.633807 0.357681
O O3 0.771394 0.653930 0.253986
O O4 0.984000 0.532416 0.224360
O O5 0.460315 0.533262 0.888314
O O6 0.334793 0.736112 0.917411
O O7 0.451126 0.628935 0.026674
O O8 0.618743 0.383641 0.673349
O O9 0.633271 0.188903 0.752853
O O10 0.404707 0.326826 0.650245
O O11 0.687621 0.092254 0.521704
#
# Coordination Sequence:
#
# PCOD9548972 Si02
#       6
#     8   8   4   8   8   8
#     4  10  24  41  62 103 126 175 223 272 332 405
#     4   9  21  42  60  90 131 170 221 263 328 402
#     4  10  20  36  62 100 120 162 218 258 348 378
#     4  10  19  39  63  84 131 176 201 285 326 383
#     4  11  23  39  71  92 138 167 212 291 327 390
#     4   9  23  41  59  99 130 161 235 257 336 407
#
# _framework density 20.356818000000001
#
# number of rings (size 3 to 8) (size 9 to 14) (size 15 to 20)
#    1.091    1.091    1.818    0.000    7.636    5.818 
#    0.000    1.818    0.000    0.000    0.000    0.000 
#    0.000    0.000    0.000    0.000    0.000    0.000 
#
# Total GULP energy -245047.181655 kJ/mol
# GULP energy per Si atom -5569.254129 kJ/mol
# Density = 2.031049 g / cm^3
# Si number density = 20.356818 Si / 1000 Ang^3
#
#
#
# Elastic Constant Matrix: (Units=GPa)
#
#
# Indices 1 2 3 4 5 6 
#
# 1 74.2901 23.7037 8.3631 0.0000 0.0000 0.0000
# 2 23.7037 74.2900 8.3637 0.0000 0.0000 0.0000
# 3 8.3631 8.3637 25.3377 0.0000 0.0000 0.0000
# 4 0.0000 0.0000 0.0000 12.5260 0.0000 0.0000
# 5 0.0000 0.0000 0.0000 0.0000 12.5262 0.0000
# 6 0.0000 0.0000 0.0000 0.0000 0.0000 31.4324
#
#
#
# Elastic Compliance Matrix: (Units=1/GPa)
#
#
# Indices 1 2 3 4 5 6 
#
# 1 0.015291 -0.004477 -0.003569 0.000000 0.000000 0.000000
# 2 -0.004477 0.015291 -0.003570 0.000000 0.000000 0.000000
# 3 -0.003569 -0.003570 0.041823 0.000000 0.000000 0.000000
# 4 0.000000 0.000000 0.000000 0.079834 0.000000 0.000000
# 5 0.000000 0.000000 0.000000 0.000000 0.079833 0.000000
# 6 0.000000 0.000000 0.000000 0.000000 0.000000 0.031814
#
#
# Mechanical properties :
#
#
# Convention : Reuss Voigt Hill
#
# Bulk Modulus (GPa) = 20.33618 28.30874 24.32246
# Shear Modulus (GPa) = 16.47394 20.19608 18.33501
#
# Velocity S-wave (km/s) = 2.84783 3.15319 3.00439
# Velocity P-wave (km/s) = 4.56345 5.21471 4.89991
#
# Compressibility (1/GPa) = 0.04917344
#
# Stress axis : x y z
#
# Youngs Moduli (GPa) = 65.39779 65.39730 23.91018
#
# Poissons Ratio (x) = 0.29279 0.08534
# Poissons Ratio (y) = 0.29279 0.08535
# Poissons Ratio (z) = 0.23342 0.23345
#
# Static dielectric constant tensor:
#      x y z
#    x 1.776840 0.000000 0.000000 
#    y 0.000000 1.776840 0.000000 
#    z 0.000000 0.000000 1.719650 
# 
# From -- ./inp_files/3063.got.cif
#   From: 2010.05.17/outbox.cif.g08.bks.cpg/sg92_2_cif.got.tgz:3063.got - 2010.06.03 19:35:17.
