data_PCOD9548939
_publ_section_title
;
Structure prediction by ZEFSAII (Michael W. Deem and Ramdas Pophale) SiO2 
 PCOD9548939
Probable space group: P 41 21 2
;
_chemical_formula_sum "Si O2"
_cell_formula_units_Z 64
_cell_length_a 20.390711
_cell_length_b 20.390711
_cell_length_c 7.478267
_cell_angle_alpha 90.000000
_cell_angle_beta 90.000000
_cell_angle_gamma 90.000000
_cell_volume 3109.322043
_symmetry_space_group_name_H-M "P 41 21 2"
_symmetry_group_IT_number 92
_symmetry_cell_setting 'tetragonal'
loop_
_space_group_symop_operation_xyz
x,y,z
1/2-y,1/2+x,1/4+z
-x,-y,1/2+z
1/2+y,1/2-x,3/4+z
1/2+x,1/2-y,3/4-z
1/2-x,1/2+y,1/4-z
y,x,-z
-y,-x,1/2-z
loop_
_atom_site_type_symbol
_atom_site_label
_atom_site_fract_x
_atom_site_fract_y
_atom_site_fract_z
Si Si1 0.652401 0.969524 0.935887
Si Si2 0.891715 0.279950 0.554803
Si Si3 0.782287 0.573351 0.909867
Si Si4 0.108191 0.304172 0.877875
Si Si5 0.698090 0.306216 0.534648
Si Si6 0.930473 0.536008 0.821225
Si Si7 0.934471 0.748164 0.758745
Si Si8 0.294707 0.314653 0.294430
O O1 0.582496 0.969582 0.034867
O O2 0.695428 0.930405 0.083545
O O3 0.694253 0.035899 0.905568
O O4 0.649944 0.936039 0.744219
O O5 0.885467 0.296806 0.341304
O O6 0.842586 0.325252 0.663143
O O7 0.858894 0.208041 0.566149
O O8 0.853333 0.550778 0.840392
O O9 0.738713 0.512203 0.983496
O O10 0.742563 0.616759 0.768518
O O11 0.128295 0.240810 0.757262
O O12 0.080377 0.283288 0.065934
O O13 0.695529 0.304472 0.750000
O O14 0.623721 0.300712 0.465057
O O15 0.740478 0.243437 0.471978
O O16 0.961976 0.555013 0.632696
O O17 0.317968 0.317968 0.500000
#
# Coordination Sequence:
#
# PCOD9548939 Si02
#       8
#     8   8   8   8   8   8   8   8
#     4  11  20  38  54  72 114 137 182 229 262 322
#     4   9  18  35  53  78 106 136 179 238 265 314
#     4  10  19  35  52  75 107 141 181 222 272 326
#     4  10  20  36  54  79 104 147 177 219 285 312
#     4   9  19  33  51  78 109 129 181 230 265 324
#     4  12  23  36  48  70 107 152 189 225 260 313
#     4  10  21  35  53  79 105 139 177 221 268 325
#     4   9  18  31  57  77  98 137 180 222 287 321
#
# _framework density 20.583265000000001
#
# number of rings (size 3 to 8) (size 9 to 14) (size 15 to 20)
#    0.000    2.000    3.750    0.750    3.500    2.000 
#    9.000    0.000    0.000    0.000    0.000    0.000 
#   56.250    0.000    0.000    0.000    0.000    0.000 
#
# Total GULP energy -356781.369642 kJ/mol
# GULP energy per Si atom -5574.708901 kJ/mol
# Density = 2.053642 g / cm^3
# Si number density = 20.583265 Si / 1000 Ang^3
#
#
#
# Elastic Constant Matrix: (Units=GPa)
#
#
# Indices 1 2 3 4 5 6 
#
# 1 63.9336 29.7681 2.2075 0.0000 0.0000 0.0000
# 2 29.7681 63.9335 2.2074 0.0000 0.0000 0.0000
# 3 2.2075 2.2074 37.5782 0.0000 0.0000 0.0000
# 4 0.0000 0.0000 0.0000 22.9022 0.0000 0.0000
# 5 0.0000 0.0000 0.0000 0.0000 22.9023 0.0000
# 6 0.0000 0.0000 0.0000 0.0000 0.0000 26.0770
#
#
#
# Elastic Compliance Matrix: (Units=1/GPa)
#
#
# Indices 1 2 3 4 5 6 
#
# 1 0.019986 -0.009284 -0.000629 0.000000 0.000000 0.000000
# 2 -0.009284 0.019986 -0.000629 0.000000 0.000000 0.000000
# 3 -0.000629 -0.000629 0.026685 0.000000 0.000000 0.000000
# 4 0.000000 0.000000 0.000000 0.043664 0.000000 0.000000
# 5 0.000000 0.000000 0.000000 0.000000 0.043664 0.000000
# 6 0.000000 0.000000 0.000000 0.000000 0.000000 0.038348
#
#
# Mechanical properties :
#
#
# Convention : Reuss Voigt Hill
#
# Bulk Modulus (GPa) = 21.94232 25.97902 23.96067
# Shear Modulus (GPa) = 21.87177 23.12713 22.49945
#
# Velocity S-wave (km/s) = 3.26329 3.35563 3.30978
# Velocity P-wave (km/s) = 4.98820 5.25952 5.12566
#
# Compressibility (1/GPa) = 0.04557402
#
# Stress axis : x y z
#
# Youngs Moduli (GPa) = 50.03621 50.03611 37.47418
#
# Poissons Ratio (x) = 0.46452 0.02356
# Poissons Ratio (y) = 0.46452 0.02356
# Poissons Ratio (z) = 0.03146 0.03145
#
# Static dielectric constant tensor:
#      x y z
#    x 1.847980 0.000000 0.000000 
#    y 0.000000 1.847990 0.000000 
#    z 0.000000 0.000000 1.768550 
# 
# From -- ./inp_files/1730.got.cif
#   From: 2010.05.17/outbox.cif.g08.bks.cpg/sg92_1_cif.got.tgz:1730.got - 2010.06.03 19:35:17.
