data_PCOD9548902
_publ_section_title
;
Structure prediction by ZEFSAII (Michael W. Deem and Ramdas Pophale) SiO2 
 PCOD9548902
Probable space group: P 41 21 2
;
_chemical_formula_sum "Si O2"
_cell_formula_units_Z 24
_cell_length_a 13.041310
_cell_length_b 13.041310
_cell_length_c 5.711096
_cell_angle_alpha 90.000000
_cell_angle_beta 90.000000
_cell_angle_gamma 90.000000
_cell_volume 971.319030
_symmetry_space_group_name_H-M "P 41 21 2"
_symmetry_group_IT_number 92
_symmetry_cell_setting 'tetragonal'
loop_
_space_group_symop_operation_xyz
x,y,z
1/2-y,1/2+x,1/4+z
-x,-y,1/2+z
1/2+y,1/2-x,3/4+z
1/2+x,1/2-y,3/4-z
1/2-x,1/2+y,1/4-z
y,x,-z
-y,-x,1/2-z
loop_
_atom_site_type_symbol
_atom_site_label
_atom_site_fract_x
_atom_site_fract_y
_atom_site_fract_z
Si Si1 0.251201 0.748800 0.750000
Si Si2 0.896693 0.391570 0.003295
Si Si3 0.455945 0.544056 0.750000
Si Si4 0.771075 0.076053 0.881755
O O1 0.213401 0.660012 0.567668
O O2 0.254351 0.850916 0.594324
O O3 0.884489 0.510064 0.937082
O O4 0.938817 0.325995 0.782060
O O5 0.485282 0.485282 0.500000
O O6 0.476899 0.662752 0.695708
O O7 0.856928 0.143073 0.750000
#
# Coordination Sequence:
#
# PCOD9548902 Si02
#       4
#     4   8   4   8
#     4  10  22  48  77 112 146 199 272 326 386 491
#     4  11  27  48  80 109 154 207 264 327 413 494
#     4  10  18  36  73 108 154 205 252 328 406 471
#     4   9  20  41  71 106 150 192 253 321 396 476
#
# _framework density 24.708670999999999
#
# number of rings (size 3 to 8) (size 9 to 14) (size 15 to 20)
#    0.000    2.000    1.667    0.000    4.667    0.000 
#    0.000   13.333   14.667    0.000    0.000    0.000 
#    0.000    0.000    0.000    0.000    0.000    0.000 
#
# Total GULP energy -133756.595493 kJ/mol
# GULP energy per Si atom -5573.191479 kJ/mol
# Density = 2.465243 g / cm^3
# Si number density = 24.708671 Si / 1000 Ang^3
#
#
#
# Elastic Constant Matrix: (Units=GPa)
#
#
# Indices 1 2 3 4 5 6 
#
# 1 95.7181 86.8382 38.8236 0.0000 0.0000 0.0000
# 2 86.8382 95.7189 38.8256 0.0000 0.0000 0.0000
# 3 38.8236 38.8256 92.1617 0.0000 0.0000 0.0000
# 4 0.0000 0.0000 0.0000 43.8482 0.0000 0.0000
# 5 0.0000 0.0000 0.0000 0.0000 43.8494 0.0000
# 6 0.0000 0.0000 0.0000 0.0000 0.0000 35.8039
#
#
#
# Elastic Compliance Matrix: (Units=1/GPa)
#
#
# Indices 1 2 3 4 5 6 
#
# 1 0.059641 -0.052968 -0.002810 0.000000 0.000000 0.000000
# 2 -0.052968 0.059642 -0.002813 0.000000 0.000000 0.000000
# 3 -0.002810 -0.002813 0.013219 0.000000 0.000000 0.000000
# 4 0.000000 0.000000 0.000000 0.022806 0.000000 0.000000
# 5 0.000000 0.000000 0.000000 0.000000 0.022805 0.000000
# 6 0.000000 0.000000 0.000000 0.000000 0.000000 0.027930
#
#
# Mechanical properties :
#
#
# Convention : Reuss Voigt Hill
#
# Bulk Modulus (GPa) = 65.27045 68.06371 66.66708
# Shear Modulus (GPa) = 15.22852 32.64104 23.93478
#
# Velocity S-wave (km/s) = 2.48528 3.63855 3.11574
# Velocity P-wave (km/s) = 5.89142 6.72743 6.32326
#
# Compressibility (1/GPa) = 0.01532087
#
# Stress axis : x y z
#
# Youngs Moduli (GPa) = 16.76696 16.76678 75.64796
#
# Poissons Ratio (x) = 0.88810 0.21257
# Poissons Ratio (y) = 0.88811 0.21277
# Poissons Ratio (z) = 0.04711 0.04716
#
# Static dielectric constant tensor:
#      x y z
#    x 2.227410 0.000000 0.000000 
#    y 0.000000 2.227340 0.000000 
#    z 0.000000 0.000000 2.270070 
# 
# From -- ./inp_files/178.got.cif
#   From: 2010.05.17/outbox.cif.g08.bks.cpg/sg92_1_cif.got.tgz:178.got - 2010.06.03 19:35:17.
