data_PCOD9548853
_publ_section_title
;
Structure prediction by ZEFSAII (Michael W. Deem and Ramdas Pophale) SiO2 
 PCOD9548853
Probable space group: P 41 21 2
;
_chemical_formula_sum "Si O2"
_cell_formula_units_Z 36
_cell_length_a 11.943644
_cell_length_b 11.943644
_cell_length_c 8.946955
_cell_angle_alpha 90.000000
_cell_angle_beta 90.000000
_cell_angle_gamma 90.000000
_cell_volume 1276.288785
_symmetry_space_group_name_H-M "P 41 21 2"
_symmetry_group_IT_number 92
_symmetry_cell_setting 'tetragonal'
loop_
_space_group_symop_operation_xyz
x,y,z
1/2-y,1/2+x,1/4+z
-x,-y,1/2+z
1/2+y,1/2-x,3/4+z
1/2+x,1/2-y,3/4-z
1/2-x,1/2+y,1/4-z
y,x,-z
-y,-x,1/2-z
loop_
_atom_site_type_symbol
_atom_site_label
_atom_site_fract_x
_atom_site_fract_y
_atom_site_fract_z
Si Si1 0.725757 0.612036 0.228894
Si Si2 0.961901 0.038100 0.250000
Si Si3 0.324386 0.105228 0.525618
Si Si4 0.191670 0.155054 0.812645
Si Si5 0.540253 0.107254 0.730867
O O1 0.609195 0.581733 0.146724
O O2 0.776855 0.502897 0.306337
O O3 0.758768 0.718275 0.328882
O O4 0.802172 0.631519 0.083455
O O5 0.088763 0.072405 0.200303
O O6 0.229057 0.138175 0.640968
O O7 0.425969 0.085266 0.638618
O O8 0.271748 0.086309 0.927426
O O9 0.495147 0.109300 0.901828
#
# Coordination Sequence:
#
# PCOD9548853 Si02
#       5
#     8   4   8   8   8
#     4  11  18  31  52  83 105 137 184 236 290 327
#     4  10  16  28  48  78 104 136 174 236 278 330
#     4  10  17  29  54  80 104 134 183 240 276 324
#     4  10  18  28  50  79 112 134 180 234 285 327
#     4  10  17  31  53  84 106 142 186 239 281 322
#
# _framework density 28.206779999999998
#
# number of rings (size 3 to 8) (size 9 to 14) (size 15 to 20)
#    0.000    1.778    8.889    1.333    0.000    0.000 
#    0.000    0.000    4.889    1.333    5.778    0.000 
#    0.000    0.000    0.000    0.000    0.000    0.000 
#
# Total GULP energy -200762.178360 kJ/mol
# GULP energy per Si atom -5576.727177 kJ/mol
# Density = 2.814258 g / cm^3
# Si number density = 28.206780 Si / 1000 Ang^3
#
#
#
# Elastic Constant Matrix: (Units=GPa)
#
#
# Indices 1 2 3 4 5 6 
#
# 1 78.2402 -21.4594 -3.2417 0.0000 0.0000 0.0000
# 2 -21.4594 78.2401 -3.2416 0.0000 0.0000 0.0000
# 3 -3.2417 -3.2416 146.5219 0.0000 0.0000 0.0000
# 4 0.0000 0.0000 0.0000 24.8685 0.0000 0.0000
# 5 0.0000 0.0000 0.0000 0.0000 24.8684 0.0000
# 6 0.0000 0.0000 0.0000 0.0000 0.0000 23.8367
#
#
#
# Elastic Compliance Matrix: (Units=1/GPa)
#
#
# Indices 1 2 3 4 5 6 
#
# 1 0.013843 0.003813 0.000391 0.000000 0.000000 0.000000
# 2 0.003813 0.013843 0.000391 0.000000 0.000000 0.000000
# 3 0.000391 0.000391 0.006842 0.000000 0.000000 0.000000
# 4 0.000000 0.000000 0.000000 0.040211 0.000000 0.000000
# 5 0.000000 0.000000 0.000000 0.000000 0.040212 0.000000
# 6 0.000000 0.000000 0.000000 0.000000 0.000000 0.041952
#
#
# Mechanical properties :
#
#
# Convention : Reuss Voigt Hill
#
# Bulk Modulus (GPa) = 22.87434 27.45743 25.16588
# Shear Modulus (GPa) = 30.80951 36.77773 33.79362
#
# Velocity S-wave (km/s) = 3.30854 3.61482 3.46507
# Velocity P-wave (km/s) = 4.76680 5.21325 4.99502
#
# Compressibility (1/GPa) = 0.04371711
#
# Stress axis : x y z
#
# Youngs Moduli (GPa) = 72.23784 72.23774 146.15180
#
# Poissons Ratio (x) = -0.27544 -0.05709
# Poissons Ratio (y) = -0.27544 -0.05709
# Poissons Ratio (z) = -0.02822 -0.02822
#
# Static dielectric constant tensor:
#      x y z
#    x 2.440310 0.000000 0.000000 
#    y 0.000000 2.440320 0.000000 
#    z 0.000000 0.000000 2.161210 
# 
# From -- ./inp_files/1997.got.cif
#   From: 2010.05.17/outbox.cif.g08.bks.cpg/sg92_1_cif.got.tgz:1997.got - 2010.06.03 19:35:17.
