data_PCOD9548054
_publ_section_title
;
Structure prediction by ZEFSAII (Michael W. Deem and Ramdas Pophale) SiO2 
 PCOD9548054
Probable space group: P 41 2 2
;
_chemical_formula_sum "Si O2"
_cell_formula_units_Z 40
_cell_length_a 8.703461
_cell_length_b 8.703461
_cell_length_c 22.228758
_cell_angle_alpha 90.000000
_cell_angle_beta 90.000000
_cell_angle_gamma 90.000000
_cell_volume 1683.833606
_symmetry_space_group_name_H-M "P 41 2 2"
_symmetry_group_IT_number 91
_symmetry_cell_setting 'tetragonal'
loop_
_space_group_symop_operation_xyz
x,y,z
-y,x,1/4+z
-x,-y,1/2+z
y,-x,3/4+z
x,-y,1/2-z
-x,y,-z
y,x,3/4-z
-y,-x,1/4-z
loop_
_atom_site_type_symbol
_atom_site_label
_atom_site_fract_x
_atom_site_fract_y
_atom_site_fract_z
Si Si1 0.185160 0.680264 0.750420
Si Si2 0.434475 0.824148 0.310583
Si Si3 0.171415 0.873277 0.003415
Si Si4 0.681197 0.318804 0.125000
Si Si5 0.283600 0.283600 0.375000
Si Si6 0.826926 0.437669 0.932409
O O1 0.227338 0.500000 0.750000
O O2 0.235786 0.739508 0.684682
O O3 0.262283 0.780375 0.804115
O O4 0.003660 0.702122 0.750785
O O5 0.253255 0.828059 0.299848
O O6 0.504486 0.719632 0.362331
O O7 0.493531 0.763853 0.245881
O O8 0.511990 0.993311 0.319146
O O9 0.202648 0.788667 0.066633
O O10 0.000000 0.942185 0.000000
O O11 0.249276 0.465094 0.379169
#
# Coordination Sequence:
#
# PCOD9548054 Si02
#       6
#     8   8   8   4   4   8
#     4  11  27  45  64 110 147 184 247 307 361 452
#     4   9  18  43  69 101 134 183 242 298 360 442
#     4  11  23  43  73 107 145 186 254 309 358 452
#     4  10  24  44  72  96 140 198 224 304 390 416
#     4  10  20  42  76 102 132 200 242 298 384 418
#     4   9  19  41  71  96 140 183 240 292 363 438
#
# _framework density 23.755319
#
# number of rings (size 3 to 8) (size 9 to 14) (size 15 to 20)
#    0.000    2.000    4.000    0.000    8.400    1.600 
#    3.600    9.000    0.000    0.000    0.000    0.000 
#    0.000    0.000    0.000    0.000    0.000    0.000 
#
# Total GULP energy -223147.955310 kJ/mol
# GULP energy per Si atom -5578.698883 kJ/mol
# Density = 2.370125 g / cm^3
# Si number density = 23.755319 Si / 1000 Ang^3
#
#
#
# Elastic Constant Matrix: (Units=GPa)
#
#
# Indices 1 2 3 4 5 6 
#
# 1 78.6299 71.5008 29.4246 0.0000 0.0000 0.0000
# 2 71.5008 78.6312 29.4250 0.0000 0.0000 0.0000
# 3 29.4246 29.4250 91.8460 0.0000 0.0000 0.0000
# 4 0.0000 0.0000 0.0000 23.2976 0.0000 0.0000
# 5 0.0000 0.0000 0.0000 0.0000 23.2974 0.0000
# 6 0.0000 0.0000 0.0000 0.0000 0.0000 37.5428
#
#
#
# Elastic Compliance Matrix: (Units=1/GPa)
#
#
# Indices 1 2 3 4 5 6 
#
# 1 0.073938 -0.066320 -0.002440 0.000000 0.000000 0.000000
# 2 -0.066320 0.073937 -0.002441 0.000000 0.000000 0.000000
# 3 -0.002440 -0.002441 0.012451 0.000000 0.000000 0.000000
# 4 0.000000 0.000000 0.000000 0.042923 0.000000 0.000000
# 5 0.000000 0.000000 0.000000 0.000000 0.042923 0.000000
# 6 0.000000 0.000000 0.000000 0.000000 0.000000 0.026636
#
#
# Mechanical properties :
#
#
# Convention : Reuss Voigt Hill
#
# Bulk Modulus (GPa) = 55.78889 56.64532 56.21710
# Shear Modulus (GPa) = 11.87129 24.74468 18.30799
#
# Velocity S-wave (km/s) = 2.23789 3.23096 2.77914
# Velocity P-wave (km/s) = 5.49667 6.14946 5.83220
#
# Compressibility (1/GPa) = 0.01792472
#
# Stress axis : x y z
#
# Youngs Moduli (GPa) = 13.52490 13.52509 80.31179
#
# Poissons Ratio (x) = 0.89698 0.19598
# Poissons Ratio (y) = 0.89697 0.19601
# Poissons Ratio (z) = 0.03300 0.03301
#
# Static dielectric constant tensor:
#      x y z
#    x 2.030510 0.000000 0.000000 
#    y 0.000000 2.030510 0.000000 
#    z 0.000000 0.000000 1.908420 
# 
# From -- ./inp_files/17533.got.cif
#   From: 2010.05.17/outbox.cif.g08.bks.cpg/sg91_9_cif.got.tgz:17533.got - 2010.06.03 19:20:03.
