data_PCOD9548001
_publ_section_title
;
Structure prediction by ZEFSAII (Michael W. Deem and Ramdas Pophale) SiO2 
 PCOD9548001
Probable space group: P 41 2 2
;
_chemical_formula_sum "Si O2"
_cell_formula_units_Z 56
_cell_length_a 15.657163
_cell_length_b 15.657163
_cell_length_c 11.487777
_cell_angle_alpha 90.000000
_cell_angle_beta 90.000000
_cell_angle_gamma 90.000000
_cell_volume 2816.191233
_symmetry_space_group_name_H-M "P 41 2 2"
_symmetry_group_IT_number 91
_symmetry_cell_setting 'tetragonal'
loop_
_space_group_symop_operation_xyz
x,y,z
-y,x,1/4+z
-x,-y,1/2+z
y,-x,3/4+z
x,-y,1/2-z
-x,y,-z
y,x,3/4-z
-y,-x,1/4-z
loop_
_atom_site_type_symbol
_atom_site_label
_atom_site_fract_x
_atom_site_fract_y
_atom_site_fract_z
Si Si1 0.183968 0.615601 0.564889
Si Si2 0.302557 0.842603 0.130018
Si Si3 0.104780 0.802377 0.910468
Si Si4 0.439225 0.261377 0.261950
Si Si5 0.249097 0.692143 0.800601
Si Si6 0.957526 0.209579 0.773909
Si Si7 0.000000 0.307418 0.000000
Si Si8 0.552963 0.447038 0.625000
O O1 0.213319 0.519417 0.542574
O O2 0.199173 0.639955 0.700358
O O3 0.256635 0.670987 0.499389
O O4 0.088217 0.638802 0.519926
O O5 0.237029 0.762972 0.125000
O O6 0.267507 0.899566 0.236860
O O7 0.394150 0.804106 0.149897
O O8 0.288186 0.898040 0.017215
O O9 0.185481 0.766829 0.839983
O O10 0.130146 0.893911 0.961603
O O11 0.026423 0.808209 0.824416
O O12 0.369319 0.274158 0.158102
O O13 0.458706 0.349334 0.329762
O O14 0.997620 0.242975 0.891322
O O15 0.537257 0.500000 0.750000
#
# Coordination Sequence:
#
# PCOD9548001 Si02
#       8
#     8   8   8   8   8   8   4   4
#     4  11  23  41  65  98 138 176 226 284 343 420
#     4   9  20  40  68  92 124 172 220 269 340 408
#     4  10  20  39  69  91 126 172 224 278 340 411
#     4  11  23  43  69 100 131 176 230 286 341 416
#     4  10  21  41  68  92 132 186 224 268 351 422
#     4  11  22  39  68  92 129 175 229 277 339 420
#     4  12  24  40  64  94 134 176 226 276 342 408
#     4  12  28  46  74 108 148 182 240 294 362 424
#
# _framework density 19.885013000000001
#
# number of rings (size 3 to 8) (size 9 to 14) (size 15 to 20)
#    0.000    1.429    3.571    1.714    0.000    4.000 
#    5.143    0.000   18.857    0.000    0.000    0.000 
#    0.000    0.000    0.000    0.000    0.000    0.000 
#
# Total GULP energy -312322.030124 kJ/mol
# GULP energy per Si atom -5577.179109 kJ/mol
# Density = 1.983975 g / cm^3
# Si number density = 19.885013 Si / 1000 Ang^3
#
#
#
# Elastic Constant Matrix: (Units=GPa)
#
#
# Indices 1 2 3 4 5 6 
#
# 1 86.3580 24.5852 31.9348 0.0000 0.0000 0.0000
# 2 24.5852 86.3575 31.9345 0.0000 0.0000 0.0000
# 3 31.9348 31.9345 77.6640 0.0000 0.0000 0.0000
# 4 0.0000 0.0000 0.0000 35.3413 0.0000 0.0000
# 5 0.0000 0.0000 0.0000 0.0000 35.3417 0.0000
# 6 0.0000 0.0000 0.0000 0.0000 0.0000 13.8822
#
#
#
# Elastic Compliance Matrix: (Units=1/GPa)
#
#
# Indices 1 2 3 4 5 6 
#
# 1 0.013999 -0.002190 -0.004856 0.000000 0.000000 0.000000
# 2 -0.002190 0.013999 -0.004856 0.000000 0.000000 0.000000
# 3 -0.004856 -0.004856 0.016869 0.000000 0.000000 0.000000
# 4 0.000000 0.000000 0.000000 0.028295 0.000000 0.000000
# 5 0.000000 0.000000 0.000000 0.000000 0.028295 0.000000
# 6 0.000000 0.000000 0.000000 0.000000 0.000000 0.072034
#
#
# Mechanical properties :
#
#
# Convention : Reuss Voigt Hill
#
# Bulk Modulus (GPa) = 47.47361 47.47651 47.47506
# Shear Modulus (GPa) = 24.47191 27.70804 26.08998
#
# Velocity S-wave (km/s) = 3.51190 3.73689 3.62614
# Velocity P-wave (km/s) = 6.35378 6.52277 6.43883
#
# Compressibility (1/GPa) = 0.02106433
#
# Stress axis : x y z
#
# Youngs Moduli (GPa) = 71.43508 71.43479 59.27933
#
# Poissons Ratio (x) = 0.15642 0.28785
# Poissons Ratio (y) = 0.15642 0.28785
# Poissons Ratio (z) = 0.34688 0.34687
#
# Static dielectric constant tensor:
#      x y z
#    x 1.715680 0.000000 0.000000 
#    y 0.000000 1.715680 0.000000 
#    z 0.000000 0.000000 1.774710 
# 
# From -- ./inp_files/16017.got.cif
#   From: 2010.05.17/outbox.cif.g08.bks.cpg/sg91_9_cif.got.tgz:16017.got - 2010.06.03 19:20:03.
