data_PCOD9548239
_publ_section_title
;
Structure prediction by ZEFSAII (Michael W. Deem and Ramdas Pophale) SiO2 
 PCOD9548239
Probable space group: P 41 2 2
;
_chemical_formula_sum "Si O2"
_cell_formula_units_Z 52
_cell_length_a 21.011630
_cell_length_b 21.011630
_cell_length_c 6.102029
_cell_angle_alpha 90.000000
_cell_angle_beta 90.000000
_cell_angle_gamma 90.000000
_cell_volume 2693.976211
_symmetry_space_group_name_H-M "P 41 2 2"
_symmetry_group_IT_number 91
_symmetry_cell_setting 'tetragonal'
loop_
_space_group_symop_operation_xyz
x,y,z
-y,x,1/4+z
-x,-y,1/2+z
y,-x,3/4+z
x,-y,1/2-z
-x,y,-z
y,x,3/4-z
-y,-x,1/4-z
loop_
_atom_site_type_symbol
_atom_site_label
_atom_site_fract_x
_atom_site_fract_y
_atom_site_fract_z
Si Si1 0.283675 0.784788 0.324087
Si Si2 0.400155 0.848232 0.144702
Si Si3 0.272234 0.559361 0.384474
Si Si4 0.887367 0.204579 0.196099
Si Si5 0.681665 0.064350 0.373004
Si Si6 0.000000 0.238216 0.500000
Si Si7 0.500000 0.180750 0.000000
Si Si8 0.326968 0.326968 0.875000
O O1 0.334009 0.838698 0.266394
O O2 0.226198 0.823911 0.425419
O O3 0.320643 0.736508 0.480561
O O4 0.256239 0.743762 0.125000
O O5 0.455131 0.858223 0.327799
O O6 0.413117 0.779813 0.034315
O O7 0.380624 0.895945 0.948457
O O8 0.300989 0.500000 0.250000
O O9 0.228766 0.538342 0.590876
O O10 0.321147 0.611624 0.471667
O O11 0.865881 0.134120 0.125000
O O12 0.949642 0.201677 0.348131
O O13 0.900629 0.263014 0.022414
O O14 0.661770 0.000000 0.250000
O O15 0.717778 0.040783 0.588952
#
# Coordination Sequence:
#
# PCOD9548239 Si02
#       8
#     8   8   8   8   8   4   4   4
#     4  12  21  31  57  93 120 153 191 244 324 373
#     4  11  20  36  55  84 122 159 197 254 306 369
#     4  10  22  37  54  87 121 162 201 245 312 371
#     4  11  22  35  56  88 129 155 201 253 314 379
#     4  10  22  37  57  89 117 161 206 250 314 367
#     4  10  22  38  56  86 122 160 200 242 312 372
#     4  10  22  34  56  84 116 158 204 240 310 352
#     4  12  20  34  56  86 128 158 198 256 308 374
#
# _framework density 19.302323000000001
#
# number of rings (size 3 to 8) (size 9 to 14) (size 15 to 20)
#    0.000    1.231    5.385    1.846    0.000    0.000 
#    0.000    0.000    0.000    0.000   34.000    0.000 
#   85.385    0.308    0.000    0.000    0.000    0.000 
#
# Total GULP energy -289711.658340 kJ/mol
# GULP energy per Si atom -5571.378045 kJ/mol
# Density = 1.925839 g / cm^3
# Si number density = 19.302323 Si / 1000 Ang^3
#
#
#
# Elastic Constant Matrix: (Units=GPa)
#
#
# Indices 1 2 3 4 5 6 
#
# 1 92.2725 38.1758 35.9273 0.0000 0.0000 0.0000
# 2 38.1758 92.2751 35.9280 0.0000 0.0000 0.0000
# 3 35.9273 35.9280 85.1184 0.0000 0.0000 0.0000
# 4 0.0000 0.0000 0.0000 16.5155 0.0000 0.0000
# 5 0.0000 0.0000 0.0000 0.0000 16.5129 0.0000
# 6 0.0000 0.0000 0.0000 0.0000 0.0000 20.2916
#
#
#
# Elastic Compliance Matrix: (Units=1/GPa)
#
#
# Indices 1 2 3 4 5 6 
#
# 1 0.014237 -0.004248 -0.004216 0.000000 0.000000 0.000000
# 2 -0.004248 0.014236 -0.004216 0.000000 0.000000 0.000000
# 3 -0.004216 -0.004216 0.015307 0.000000 0.000000 0.000000
# 4 0.000000 0.000000 0.000000 0.060549 0.000000 0.000000
# 5 0.000000 0.000000 0.000000 0.000000 0.060559 0.000000
# 6 0.000000 0.000000 0.000000 0.000000 0.000000 0.049282
#
#
# Mechanical properties :
#
#
# Convention : Reuss Voigt Hill
#
# Bulk Modulus (GPa) = 54.28905 54.41424 54.35165
# Shear Modulus (GPa) = 20.35250 21.30632 20.82941
#
# Velocity S-wave (km/s) = 3.25069 3.32599 3.28855
# Velocity P-wave (km/s) = 6.50200 6.55754 6.52983
#
# Compressibility (1/GPa) = 0.01841992
#
# Stress axis : x y z
#
# Youngs Moduli (GPa) = 70.24111 70.24308 65.32840
#
# Poissons Ratio (x) = 0.29843 0.27542
# Poissons Ratio (y) = 0.29842 0.27541
# Poissons Ratio (z) = 0.29613 0.29613
#
# Static dielectric constant tensor:
#      x y z
#    x 1.741080 0.000000 0.000000 
#    y 0.000000 1.741080 0.000000 
#    z 0.000000 0.000000 1.747850 
# 
# From -- ./inp_files/1379.got.cif
#   From: 2010.05.17/outbox.cif.g08.bks.cpg/sg91_1_cif.got.tgz:1379.got - 2010.06.03 19:20:03.
