data_PCOD9548336
_publ_section_title
;
Structure prediction by ZEFSAII (Michael W. Deem and Ramdas Pophale) SiO2 
 PCOD9548336
Probable space group: P 41 2 2
;
_chemical_formula_sum "Si O2"
_cell_formula_units_Z 48
_cell_length_a 8.735185
_cell_length_b 8.735185
_cell_length_c 30.072363
_cell_angle_alpha 90.000000
_cell_angle_beta 90.000000
_cell_angle_gamma 90.000000
_cell_volume 2294.625257
_symmetry_space_group_name_H-M "P 41 2 2"
_symmetry_group_IT_number 91
_symmetry_cell_setting 'tetragonal'
loop_
_space_group_symop_operation_xyz
x,y,z
-y,x,1/4+z
-x,-y,1/2+z
y,-x,3/4+z
x,-y,1/2-z
-x,y,-z
y,x,3/4-z
-y,-x,1/4-z
loop_
_atom_site_type_symbol
_atom_site_label
_atom_site_fract_x
_atom_site_fract_y
_atom_site_fract_z
Si Si1 0.862461 0.211938 0.531336
Si Si2 0.672102 0.484358 0.838232
Si Si3 0.017977 0.416067 0.292679
Si Si4 0.064073 0.935928 0.125000
Si Si5 0.500000 0.464321 0.000000
Si Si6 0.575579 0.836196 0.228273
Si Si7 0.241069 0.223583 0.102771
O O1 0.716454 0.114986 0.518196
O O2 0.839709 0.391765 0.525452
O O3 0.000000 0.163352 0.500000
O O4 0.889611 0.164316 0.582258
O O5 0.602985 0.602985 0.875000
O O6 0.848089 0.510777 0.823269
O O7 0.567843 0.498642 0.794536
O O8 0.670077 0.314249 0.858942
O O9 0.950089 0.500000 0.250000
O O10 0.887122 0.352369 0.324724
O O11 0.887906 0.894607 0.132083
O O12 0.330609 0.385066 0.000003
O O13 0.649541 0.826687 0.179896
O O14 0.622023 0.000000 0.250000
#
# Coordination Sequence:
#
# PCOD9548336 Si02
#       7
#     8   8   8   4   4   8   8
#     4  10  22  41  71  99 126 177 234 290 348 428
#     4  12  24  44  74 103 137 185 249 309 363 449
#     4  11  24  43  70 102 136 187 235 299 367 447
#     4  10  26  42  66  96 136 178 230 288 348 436
#     4  12  24  44  74 108 136 188 248 304 374 448
#     4  11  25  45  72 101 144 187 236 305 370 441
#     4  11  27  41  68 102 143 183 233 305 368 444
#
# _framework density 20.918448999999999
#
# number of rings (size 3 to 8) (size 9 to 14) (size 15 to 20)
#    0.000    1.000    4.167    0.000   17.500    2.667 
#    0.000    0.000    3.667    0.000    0.000    0.000 
#    0.000    0.000    0.000    0.000    0.000    0.000 
#
# Total GULP energy -267899.595343 kJ/mol
# GULP energy per Si atom -5581.241570 kJ/mol
# Density = 2.087084 g / cm^3
# Si number density = 20.918449 Si / 1000 Ang^3
#
#
#
# Elastic Constant Matrix: (Units=GPa)
#
#
# Indices 1 2 3 4 5 6 
#
# 1 68.0569 42.6381 26.2694 0.0000 0.0000 0.0000
# 2 42.6381 68.0579 26.2705 0.0000 0.0000 0.0000
# 3 26.2694 26.2705 99.9897 0.0000 0.0000 0.0000
# 4 0.0000 0.0000 0.0000 13.5529 0.0000 0.0000
# 5 0.0000 0.0000 0.0000 0.0000 13.5526 0.0000
# 6 0.0000 0.0000 0.0000 0.0000 0.0000 25.1967
#
#
#
# Elastic Compliance Matrix: (Units=1/GPa)
#
#
# Indices 1 2 3 4 5 6 
#
# 1 0.024831 -0.014510 -0.002711 0.000000 0.000000 0.000000
# 2 -0.014510 0.024830 -0.002712 0.000000 0.000000 0.000000
# 3 -0.002711 -0.002712 0.011426 0.000000 0.000000 0.000000
# 4 0.000000 0.000000 0.000000 0.073785 0.000000 0.000000
# 5 0.000000 0.000000 0.000000 0.000000 0.073787 0.000000
# 6 0.000000 0.000000 0.000000 0.000000 0.000000 0.039688
#
#
# Mechanical properties :
#
#
# Convention : Reuss Voigt Hill
#
# Bulk Modulus (GPa) = 47.12268 47.38451 47.25359
# Shear Modulus (GPa) = 16.93274 19.85551 18.39412
#
# Velocity S-wave (km/s) = 2.84820 3.08423 2.96856
# Velocity P-wave (km/s) = 5.77858 5.94849 5.86415
#
# Compressibility (1/GPa) = 0.02122121
#
# Stress axis : x y z
#
# Youngs Moduli (GPa) = 40.27288 40.27315 87.52105
#
# Poissons Ratio (x) = 0.58435 0.23730
# Poissons Ratio (y) = 0.58435 0.23733
# Poissons Ratio (z) = 0.10919 0.10921
#
# Static dielectric constant tensor:
#      x y z
#    x 1.793410 0.000000 0.000000 
#    y 0.000000 1.793410 0.000000 
#    z 0.000000 0.000000 1.776790 
# 
# From -- ./inp_files/8000.got.cif
#   From: 2010.05.17/outbox.cif.g08.bks.cpg/sg91_4_cif.got.tgz:8000.got - 2010.06.03 19:20:03.
