data_PCOD9548548
_publ_section_title
;
Structure prediction by ZEFSAII (Michael W. Deem and Ramdas Pophale) SiO2 
 PCOD9548548
Probable space group: P 41 2 2
;
_chemical_formula_sum "Si O2"
_cell_formula_units_Z 28
_cell_length_a 11.232274
_cell_length_b 11.232274
_cell_length_c 11.426537
_cell_angle_alpha 90.000000
_cell_angle_beta 90.000000
_cell_angle_gamma 90.000000
_cell_volume 1441.617377
_symmetry_space_group_name_H-M "P 41 2 2"
_symmetry_group_IT_number 91
_symmetry_cell_setting 'tetragonal'
loop_
_space_group_symop_operation_xyz
x,y,z
-y,x,1/4+z
-x,-y,1/2+z
y,-x,3/4+z
x,-y,1/2-z
-x,y,-z
y,x,3/4-z
-y,-x,1/4-z
loop_
_atom_site_type_symbol
_atom_site_label
_atom_site_fract_x
_atom_site_fract_y
_atom_site_fract_z
Si Si1 0.020423 0.792518 0.129569
Si Si2 0.500000 0.578537 0.000000
Si Si3 0.628581 0.189020 0.464729
Si Si4 0.855584 0.222393 0.999846
O O1 0.075444 0.924557 0.125000
O O2 0.115103 0.721788 0.208297
O O3 0.891741 0.803686 0.183919
O O4 0.000000 0.742921 0.000000
O O5 0.511254 0.511254 0.875000
O O6 0.387922 0.670681 0.991856
O O7 0.500000 0.137789 0.500000
O O8 0.663508 0.174891 0.329332
O O9 0.792467 0.207534 0.125000
O O10 0.000000 0.214053 0.000000
#
# Coordination Sequence:
#
# PCOD9548548 Si02
#       4
#     8   4   8   8
#     4  12  21  37  68  94 131 182 219 272 357 427
#     4  10  24  48  74  90 124 174 244 296 338 404
#     4  10  25  42  62  95 137 174 223 286 335 409
#     4  12  22  38  66 104 140 175 220 281 353 440
#
# _framework density 19.422628
#
# number of rings (size 3 to 8) (size 9 to 14) (size 15 to 20)
#    0.857    0.000    5.714    2.571    0.000    2.286 
#    0.000    0.000    3.143    0.000    0.000    0.000 
#    0.000    0.000    0.000    0.000    0.000    0.000 
#
# Total GULP energy -155967.372137 kJ/mol
# GULP energy per Si atom -5570.263291 kJ/mol
# Density = 1.937842 g / cm^3
# Si number density = 19.422628 Si / 1000 Ang^3
#
#
#
# Elastic Constant Matrix: (Units=GPa)
#
#
# Indices 1 2 3 4 5 6 
#
# 1 59.1067 13.7080 46.1441 0.0000 0.0000 0.0000
# 2 13.7080 59.1050 46.1446 0.0000 0.0000 0.0000
# 3 46.1441 46.1446 183.9301 0.0000 0.0000 0.0000
# 4 0.0000 0.0000 0.0000 20.8223 0.0000 0.0000
# 5 0.0000 0.0000 0.0000 0.0000 20.8203 0.0000
# 6 0.0000 0.0000 0.0000 0.0000 0.0000 22.3573
#
#
#
# Elastic Compliance Matrix: (Units=1/GPa)
#
#
# Indices 1 2 3 4 5 6 
#
# 1 0.021082 -0.000945 -0.005052 0.000000 0.000000 0.000000
# 2 -0.000945 0.021083 -0.005052 0.000000 0.000000 0.000000
# 3 -0.005052 -0.005052 0.007972 0.000000 0.000000 0.000000
# 4 0.000000 0.000000 0.000000 0.048026 0.000000 0.000000
# 5 0.000000 0.000000 0.000000 0.000000 0.048030 0.000000
# 6 0.000000 0.000000 0.000000 0.000000 0.000000 0.044728
#
#
# Mechanical properties :
#
#
# Convention : Reuss Voigt Hill
#
# Bulk Modulus (GPa) = 35.66648 57.12616 46.39632
# Shear Modulus (GPa) = 22.48566 25.87630 24.18098
#
# Velocity S-wave (km/s) = 3.40620 3.65400 3.53227
# Velocity P-wave (km/s) = 5.82003 6.87592 6.36989
#
# Compressibility (1/GPa) = 0.02803753
#
# Stress axis : x y z
#
# Youngs Moduli (GPa) = 47.43459 47.43265 125.44401
#
# Poissons Ratio (x) = 0.04484 0.63371
# Poissons Ratio (y) = 0.04484 0.63375
# Poissons Ratio (z) = 0.23963 0.23963
#
# Static dielectric constant tensor:
#      x y z
#    x 1.745960 0.000000 0.000000 
#    y 0.000000 1.745970 0.000000 
#    z 0.000000 0.000000 1.801540 
# 
# From -- ./inp_files/3270.got.cif
#   From: 2010.05.17/outbox.cif.g08.bks.cpg/sg91_2_cif.got.tgz:3270.got - 2010.06.03 19:20:03.
