data_PCOD9548233
_publ_section_title
;
Structure prediction by ZEFSAII (Michael W. Deem and Ramdas Pophale) SiO2 
 PCOD9548233
Probable space group: P 41 2 2
;
_chemical_formula_sum "Si O2"
_cell_formula_units_Z 36
_cell_length_a 12.078959
_cell_length_b 12.078959
_cell_length_c 11.710611
_cell_angle_alpha 90.000000
_cell_angle_beta 90.000000
_cell_angle_gamma 90.000000
_cell_volume 1708.592789
_symmetry_space_group_name_H-M "P 41 2 2"
_symmetry_group_IT_number 91
_symmetry_cell_setting 'tetragonal'
loop_
_space_group_symop_operation_xyz
x,y,z
-y,x,1/4+z
-x,-y,1/2+z
y,-x,3/4+z
x,-y,1/2-z
-x,y,-z
y,x,3/4-z
-y,-x,1/4-z
loop_
_atom_site_type_symbol
_atom_site_label
_atom_site_fract_x
_atom_site_fract_y
_atom_site_fract_z
Si Si1 0.743056 0.901480 0.549301
Si Si2 0.404206 0.000000 0.250000
Si Si3 0.300078 0.300078 0.875000
Si Si4 0.552378 0.447623 0.625000
Si Si5 0.458519 0.217664 0.689285
Si Si6 0.079443 0.744805 0.391539
O O1 0.667299 0.937855 0.653806
O O2 0.705580 0.798823 0.468353
O O3 0.862697 0.861698 0.589372
O O4 0.747010 0.005124 0.467739
O O5 0.475903 0.102558 0.298235
O O6 0.412500 0.272314 0.807442
O O7 0.514848 0.500000 0.750000
O O8 0.525522 0.317033 0.632573
O O9 0.346361 0.175951 0.628163
O O10 0.000000 0.718414 0.500000
#
# Coordination Sequence:
#
# PCOD9548233 Si02
#       6
#     8   4   4   4   8   8
#     4  11  24  42  72 104 144 189 244 313 369 461
#     4  12  28  44  70 112 152 192 244 320 404 440
#     4  10  21  48  76 101 140 200 272 293 366 486
#     4  12  31  52  76 115 160 206 260 335 398 466
#     4  11  25  46  76 109 144 199 252 316 381 460
#     4  11  21  48  72 102 135 193 251 298 368 457
#
# _framework density 21.069972
#
# number of rings (size 3 to 8) (size 9 to 14) (size 15 to 20)
#    0.000    0.889    5.556    0.667    9.333    3.556 
#    6.000    0.000    0.000    0.000    0.000    0.000 
#    0.000    0.000    0.000    0.000    0.000    0.000 
#
# Total GULP energy -200770.962357 kJ/mol
# GULP energy per Si atom -5576.971177 kJ/mol
# Density = 2.102202 g / cm^3
# Si number density = 21.069972 Si / 1000 Ang^3
#
#
#
# Elastic Constant Matrix: (Units=GPa)
#
#
# Indices 1 2 3 4 5 6 
#
# 1 93.7015 62.9290 37.3071 0.0000 0.0000 0.0000
# 2 62.9290 93.7004 37.3072 0.0000 0.0000 0.0000
# 3 37.3071 37.3072 92.7098 0.0000 0.0000 0.0000
# 4 0.0000 0.0000 0.0000 11.5009 0.0000 0.0000
# 5 0.0000 0.0000 0.0000 0.0000 11.5013 0.0000
# 6 0.0000 0.0000 0.0000 0.0000 0.0000 57.1351
#
#
#
# Elastic Compliance Matrix: (Units=1/GPa)
#
#
# Indices 1 2 3 4 5 6 
#
# 1 0.020198 -0.012299 -0.003178 0.000000 0.000000 0.000000
# 2 -0.012299 0.020198 -0.003179 0.000000 0.000000 0.000000
# 3 -0.003178 -0.003179 0.013344 0.000000 0.000000 0.000000
# 4 0.000000 0.000000 0.000000 0.086950 0.000000 0.000000
# 5 0.000000 0.000000 0.000000 0.000000 0.086946 0.000000
# 6 0.000000 0.000000 0.000000 0.000000 0.000000 0.017502
#
#
# Mechanical properties :
#
#
# Convention : Reuss Voigt Hill
#
# Bulk Modulus (GPa) = 60.87245 61.68870 61.28057
# Shear Modulus (GPa) = 17.36550 25.53202 21.44876
#
# Velocity S-wave (km/s) = 2.87397 3.48483 3.19404
# Velocity P-wave (km/s) = 6.32189 6.74786 6.53835
#
# Compressibility (1/GPa) = 0.01642779
#
# Stress axis : x y z
#
# Youngs Moduli (GPa) = 49.51052 49.50980 74.93763
#
# Poissons Ratio (x) = 0.60893 0.23818
# Poissons Ratio (y) = 0.60894 0.23819
# Poissons Ratio (z) = 0.15736 0.15737
#
# Static dielectric constant tensor:
#      x y z
#    x 1.775140 0.000000 0.000000 
#    y 0.000000 1.775140 0.000000 
#    z 0.000000 0.000000 1.678160 
# 
# From -- ./inp_files/3603.got.cif
#   From: 2010.05.17/outbox.cif.g08.bks.cpg/sg91_2_cif.got.tgz:3603.got - 2010.06.03 19:20:03.
