data_PCOD9548008
_publ_section_title
;
Structure prediction by ZEFSAII (Michael W. Deem and Ramdas Pophale) SiO2 
 PCOD9548008
Probable space group: P 41 2 2
;
_chemical_formula_sum "Si O2"
_cell_formula_units_Z 48
_cell_length_a 11.458300
_cell_length_b 11.458300
_cell_length_c 15.382033
_cell_angle_alpha 90.000000
_cell_angle_beta 90.000000
_cell_angle_gamma 90.000000
_cell_volume 2019.547704
_symmetry_space_group_name_H-M "P 41 2 2"
_symmetry_group_IT_number 91
_symmetry_cell_setting 'tetragonal'
loop_
_space_group_symop_operation_xyz
x,y,z
-y,x,1/4+z
-x,-y,1/2+z
y,-x,3/4+z
x,-y,1/2-z
-x,y,-z
y,x,3/4-z
-y,-x,1/4-z
loop_
_atom_site_type_symbol
_atom_site_label
_atom_site_fract_x
_atom_site_fract_y
_atom_site_fract_z
Si Si1 0.233778 0.340856 0.057194
Si Si2 0.248810 0.000000 0.250000
Si Si3 0.930347 0.069654 0.625000
Si Si4 0.364953 0.423891 0.466668
Si Si5 0.172771 0.611684 0.881335
Si Si6 0.797715 0.035710 0.351656
Si Si7 0.351625 0.168426 0.879313
O O1 0.321605 0.447614 0.062674
O O2 0.312275 0.224373 0.052004
O O3 0.136443 0.296253 0.124319
O O4 0.153884 0.369947 0.975237
O O5 0.160926 0.909277 0.202162
O O6 0.330500 0.936701 0.320831
O O7 0.070632 0.079063 0.634853
O O8 0.500000 0.424693 0.500000
O O9 0.354801 0.354801 0.375000
O O10 0.277513 0.389610 0.545484
O O11 0.152103 0.483576 0.843933
O O12 0.802939 0.000000 0.250000
O O13 0.749192 0.923392 0.402917
O O14 0.299489 0.299489 0.875000
#
# Coordination Sequence:
#
# PCOD9548008 Si02
#       7
#     8   4   4   8   8   8   8
#     4  10  22  38  62  92 131 165 213 270 324 384
#     4  12  28  44  64  96 130 178 210 270 332 400
#     4  12  22  42  68  88 126 170 228 258 322 396
#     4  11  23  40  66  91 127 175 220 262 316 391
#     4  11  25  41  61  94 136 167 211 264 333 392
#     4  10  20  40  62  94 120 164 219 276 323 379
#     4  10  23  38  68  95 127 168 220 277 330 376
#
# _framework density 23.767699
#
# number of rings (size 3 to 8) (size 9 to 14) (size 15 to 20)
#    0.000    1.333    5.000    0.000   11.667    0.000 
#    0.000    0.000    0.000    2.000    0.000    0.000 
#    0.000    0.000    0.000    0.000    0.000    0.000 
#
# Total GULP energy -267216.098603 kJ/mol
# GULP energy per Si atom -5567.002054 kJ/mol
# Density = 2.371360 g / cm^3
# Si number density = 23.767699 Si / 1000 Ang^3
#
#
#
# Elastic Constant Matrix: (Units=GPa)
#
#
# Indices 1 2 3 4 5 6 
#
# 1 91.5732 18.9635 17.6766 0.0000 0.0000 0.0000
# 2 18.9635 91.5727 17.6766 0.0000 0.0000 0.0000
# 3 17.6766 17.6766 57.0668 0.0000 0.0000 0.0000
# 4 0.0000 0.0000 0.0000 34.7371 0.0000 0.0000
# 5 0.0000 0.0000 0.0000 0.0000 34.7371 0.0000
# 6 0.0000 0.0000 0.0000 0.0000 0.0000 6.0767
#
#
#
# Elastic Compliance Matrix: (Units=1/GPa)
#
#
# Indices 1 2 3 4 5 6 
#
# 1 0.011907 -0.001865 -0.003110 0.000000 0.000000 0.000000
# 2 -0.001865 0.011907 -0.003110 0.000000 0.000000 0.000000
# 3 -0.003110 -0.003110 0.019450 0.000000 0.000000 0.000000
# 4 0.000000 0.000000 0.000000 0.028788 0.000000 0.000000
# 5 0.000000 0.000000 0.000000 0.000000 0.028788 0.000000
# 6 0.000000 0.000000 0.000000 0.000000 0.000000 0.164562
#
#
# Mechanical properties :
#
#
# Convention : Reuss Voigt Hill
#
# Bulk Modulus (GPa) = 36.91155 38.76068 37.83612
# Shear Modulus (GPa) = 17.20551 27.50326 22.35439
#
# Velocity S-wave (km/s) = 2.69346 3.40541 3.07014
# Velocity P-wave (km/s) = 5.02363 5.63968 5.34054
#
# Compressibility (1/GPa) = 0.02709179
#
# Stress axis : x y z
#
# Youngs Moduli (GPa) = 83.98477 83.98431 51.41325
#
# Poissons Ratio (x) = 0.15666 0.15992
# Poissons Ratio (y) = 0.15666 0.15992
# Poissons Ratio (z) = 0.26123 0.26123
#
# Static dielectric constant tensor:
#      x y z
#    x 1.962160 0.000000 0.000000 
#    y 0.000000 1.962160 0.000000 
#    z 0.000000 0.000000 2.110980 
# 
# From -- ./inp_files/5662.got.cif
#   From: 2010.05.17/outbox.cif.g08.bks.cpg/sg91_3_cif.got.tgz:5662.got - 2010.06.03 19:20:03.
