data_PCOD9548443
_publ_section_title
;
Structure prediction by ZEFSAII (Michael W. Deem and Ramdas Pophale) SiO2 
 PCOD9548443
Probable space group: P 41 2 2
;
_chemical_formula_sum "Si O2"
_cell_formula_units_Z 20
_cell_length_a 4.949929
_cell_length_b 4.949929
_cell_length_c 30.022430
_cell_angle_alpha 90.000000
_cell_angle_beta 90.000000
_cell_angle_gamma 90.000000
_cell_volume 735.603488
_symmetry_space_group_name_H-M "P 41 2 2"
_symmetry_group_IT_number 91
_symmetry_cell_setting 'tetragonal'
loop_
_space_group_symop_operation_xyz
x,y,z
-y,x,1/4+z
-x,-y,1/2+z
y,-x,3/4+z
x,-y,1/2-z
-x,y,-z
y,x,3/4-z
-y,-x,1/4-z
loop_
_atom_site_type_symbol
_atom_site_label
_atom_site_fract_x
_atom_site_fract_y
_atom_site_fract_z
Si Si1 0.094608 0.435788 0.201426
Si Si2 0.622719 0.377282 0.625000
Si Si3 0.969598 0.776296 0.580152
O O1 0.206089 0.500000 0.250000
O O2 0.332527 0.405185 0.164686
O O3 0.132063 0.523337 0.092756
O O4 0.880439 0.191507 0.204859
O O5 0.692998 0.931426 0.567889
O O6 0.103679 0.896322 0.625000
#
# Coordination Sequence:
#
# PCOD9548443 Si02
#       3
#     8   4   8
#     4  11  23  43  69 108 147 198 261 320 391 473
#     4  10  24  42  70 100 152 202 256 322 398 464
#     4  10  23  41  71 104 146 199 250 313 387 460
#
# _framework density 27.188555999999998
#
# number of rings (size 3 to 8) (size 9 to 14) (size 15 to 20)
#    0.000    1.600    2.000    1.200    8.400    1.600 
#    0.000    4.000    0.000    0.000    0.000    0.000 
#    0.000    0.000    0.000    0.000    0.000    0.000 
#
# Total GULP energy -111356.416800 kJ/mol
# GULP energy per Si atom -5567.820840 kJ/mol
# Density = 2.712667 g / cm^3
# Si number density = 27.188556 Si / 1000 Ang^3
#
#
#
# Elastic Constant Matrix: (Units=GPa)
#
#
# Indices 1 2 3 4 5 6 
#
# 1 166.6431 55.6216 12.3726 0.0000 0.0000 0.0000
# 2 55.6216 166.6426 12.3727 0.0000 0.0000 0.0000
# 3 12.3726 12.3727 143.8305 0.0000 0.0000 0.0000
# 4 0.0000 0.0000 0.0000 25.2721 0.0000 0.0000
# 5 0.0000 0.0000 0.0000 0.0000 25.2722 0.0000
# 6 0.0000 0.0000 0.0000 0.0000 0.0000 54.2326
#
#
#
# Elastic Compliance Matrix: (Units=1/GPa)
#
#
# Indices 1 2 3 4 5 6 
#
# 1 0.006775 -0.002232 -0.000391 0.000000 0.000000 0.000000
# 2 -0.002232 0.006775 -0.000391 0.000000 0.000000 0.000000
# 3 -0.000391 -0.000391 0.007020 0.000000 0.000000 0.000000
# 4 0.000000 0.000000 0.000000 0.039569 0.000000 0.000000
# 5 0.000000 0.000000 0.000000 0.000000 0.039569 0.000000
# 6 0.000000 0.000000 0.000000 0.000000 0.000000 0.018439
#
#
# Mechanical properties :
#
#
# Convention : Reuss Voigt Hill
#
# Bulk Modulus (GPa) = 68.76596 70.87223 69.81910
# Shear Modulus (GPa) = 38.75294 47.40533 43.07914
#
# Velocity S-wave (km/s) = 3.77946 4.18015 3.98484
# Velocity P-wave (km/s) = 6.66280 7.03006 6.84889
#
# Compressibility (1/GPa) = 0.01454208
#
# Stress axis : x y z
#
# Youngs Moduli (GPa) = 147.60238 147.60189 142.45305
#
# Poissons Ratio (x) = 0.32949 0.05567
# Poissons Ratio (y) = 0.32950 0.05567
# Poissons Ratio (z) = 0.05768 0.05768
#
# Static dielectric constant tensor:
#      x y z
#    x 2.270290 0.000000 0.000000 
#    y 0.000000 2.270290 0.000000 
#    z 0.000000 0.000000 2.150970 
# 
# From -- ./inp_files/12988.got.cif
#   From: 2010.05.17/outbox.cif.g08.bks.cpg/sg91_7_cif.got.tgz:12988.got - 2010.06.03 19:20:03.
