data_PCOD9548589
_publ_section_title
;
Structure prediction by ZEFSAII (Michael W. Deem and Ramdas Pophale) SiO2 
 PCOD9548589
Probable space group: P 41 2 2
;
_chemical_formula_sum "Si O2"
_cell_formula_units_Z 28
_cell_length_a 8.009553
_cell_length_b 8.009553
_cell_length_c 17.972277
_cell_angle_alpha 90.000000
_cell_angle_beta 90.000000
_cell_angle_gamma 90.000000
_cell_volume 1152.974395
_symmetry_space_group_name_H-M "P 41 2 2"
_symmetry_group_IT_number 91
_symmetry_cell_setting 'tetragonal'
loop_
_space_group_symop_operation_xyz
x,y,z
-y,x,1/4+z
-x,-y,1/2+z
y,-x,3/4+z
x,-y,1/2-z
-x,y,-z
y,x,3/4-z
-y,-x,1/4-z
loop_
_atom_site_type_symbol
_atom_site_label
_atom_site_fract_x
_atom_site_fract_y
_atom_site_fract_z
Si Si1 0.432584 0.432584 0.375000
Si Si2 0.098996 0.276171 0.805618
Si Si3 0.052600 0.534122 0.081181
Si Si4 0.371597 0.500000 0.750000
Si Si5 0.143533 0.000000 0.250000
O O1 0.462475 0.250161 0.344688
O O2 0.494363 0.555108 0.311487
O O3 0.168990 0.168990 0.875000
O O4 0.243528 0.345231 0.751624
O O5 0.022665 0.435814 0.849238
O O6 0.968789 0.163482 0.760562
O O7 0.002748 0.728131 0.069719
O O8 0.000000 0.459699 0.000000
#
# Coordination Sequence:
#
# PCOD9548589 Si02
#       5
#     4   8   8   4   4
#     4  12  28  50  82 116 164 218 272 336 402 522
#     4  12  28  49  79 113 165 208 273 342 407 489
#     4  10  28  51  80 115 159 218 270 341 407 499
#     4  12  30  48  80 118 160 226 264 342 410 506
#     4  10  30  48  78 116 154 214 266 346 402 482
#
# _framework density 24.285011999999998
#
# number of rings (size 3 to 8) (size 9 to 14) (size 15 to 20)
#    0.857    0.000    1.429    1.714   20.000    0.000 
#    0.000    0.000    0.000    0.000    0.000    0.000 
#    0.000    0.000    0.000    0.000    0.000    0.000 
#
# Total GULP energy -156208.140657 kJ/mol
# GULP energy per Si atom -5578.862166 kJ/mol
# Density = 2.422974 g / cm^3
# Si number density = 24.285012 Si / 1000 Ang^3
#
#
#
# Elastic Constant Matrix: (Units=GPa)
#
#
# Indices 1 2 3 4 5 6 
#
# 1 111.2849 82.1881 34.5910 0.0000 0.0000 0.0000
# 2 82.1881 111.2849 34.5910 0.0000 0.0000 0.0000
# 3 34.5910 34.5910 87.3612 0.0000 0.0000 0.0000
# 4 0.0000 0.0000 0.0000 43.0305 0.0000 0.0000
# 5 0.0000 0.0000 0.0000 0.0000 43.0305 0.0000
# 6 0.0000 0.0000 0.0000 0.0000 0.0000 21.9965
#
#
#
# Elastic Compliance Matrix: (Units=1/GPa)
#
#
# Indices 1 2 3 4 5 6 
#
# 1 0.020195 -0.014173 -0.002384 0.000000 0.000000 0.000000
# 2 -0.014173 0.020195 -0.002384 0.000000 0.000000 0.000000
# 3 -0.002384 -0.002384 0.013335 0.000000 0.000000 0.000000
# 4 0.000000 0.000000 0.000000 0.023239 0.000000 0.000000
# 5 0.000000 0.000000 0.000000 0.000000 0.023239 0.000000
# 6 0.000000 0.000000 0.000000 0.000000 0.000000 0.045462
#
#
# Mechanical properties :
#
#
# Convention : Reuss Voigt Hill
#
# Bulk Modulus (GPa) = 63.12870 68.07457 65.60163
# Shear Modulus (GPa) = 26.47915 32.18223 29.33069
#
# Velocity S-wave (km/s) = 3.30563 3.64426 3.47907
# Velocity P-wave (km/s) = 6.37345 6.76756 6.57346
#
# Compressibility (1/GPa) = 0.01584066
#
# Stress axis : x y z
#
# Youngs Moduli (GPa) = 49.51817 49.51817 74.99219
#
# Poissons Ratio (x) = 0.70184 0.17879
# Poissons Ratio (y) = 0.70184 0.17879
# Poissons Ratio (z) = 0.11806 0.11806
#
# Static dielectric constant tensor:
#      x y z
#    x 1.942650 0.000000 0.000000 
#    y 0.000000 1.942650 0.000000 
#    z 0.000000 0.000000 1.994960 
# 
# From -- ./inp_files/20960.got.cif
#   From: 2010.05.17/outbox.cif.g08.bks.cpg/sg91_11_cif.got.tgz:20960.got - 2010.06.03 19:20:03.
