data_PCOD9548783
_publ_section_title
;
Structure prediction by ZEFSAII (Michael W. Deem and Ramdas Pophale) SiO2 
 PCOD9548783
Probable space group: P 41 2 2
;
_chemical_formula_sum "Si O2"
_cell_formula_units_Z 36
_cell_length_a 8.478891
_cell_length_b 8.478891
_cell_length_c 20.478367
_cell_angle_alpha 90.000000
_cell_angle_beta 90.000000
_cell_angle_gamma 90.000000
_cell_volume 1472.222417
_symmetry_space_group_name_H-M "P 41 2 2"
_symmetry_group_IT_number 91
_symmetry_cell_setting 'tetragonal'
loop_
_space_group_symop_operation_xyz
x,y,z
-y,x,1/4+z
-x,-y,1/2+z
y,-x,3/4+z
x,-y,1/2-z
-x,y,-z
y,x,3/4-z
-y,-x,1/4-z
loop_
_atom_site_type_symbol
_atom_site_label
_atom_site_fract_x
_atom_site_fract_y
_atom_site_fract_z
Si Si1 0.009768 0.645289 0.290900
Si Si2 0.831325 0.048101 0.920422
Si Si3 0.649283 0.480654 0.825696
Si Si4 0.162108 0.495401 0.607627
Si Si5 0.323634 0.000000 0.750000
O O1 0.940590 0.500000 0.250000
O O2 0.172395 0.581398 0.319744
O O3 0.036175 0.783455 0.239277
O O4 0.883633 0.645689 0.347671
O O5 0.667709 0.073875 0.880140
O O6 0.907319 0.209797 0.948954
O O7 0.952424 0.952424 0.875000
O O8 0.598115 0.500000 0.750000
O O9 0.627383 0.627383 0.875000
O O10 0.556568 0.340225 0.859595
O O11 0.117752 0.558329 0.536616
#
# Coordination Sequence:
#
# PCOD9548783 Si02
#       5
#     8   8   8   8   4
#     4   9  23  47  72 108 145 192 252 314 372 464
#     4  11  28  50  81 109 155 200 261 319 396 469
#     4  11  27  44  74 106 150 198 256 309 390 462
#     4  11  27  47  73 107 151 196 249 316 393 455
#     4  12  30  44  78 112 150 194 262 320 390 466
#
# _framework density 24.452829000000001
#
# number of rings (size 3 to 8) (size 9 to 14) (size 15 to 20)
#    0.000    1.333    0.000    1.333   18.667    7.111 
#    0.000    0.000    0.000    0.000    0.000    0.000 
#    0.000    0.000    0.000    0.000    0.000    0.000 
#
# Total GULP energy -200937.078426 kJ/mol
# GULP energy per Si atom -5581.585512 kJ/mol
# Density = 2.439717 g / cm^3
# Si number density = 24.452829 Si / 1000 Ang^3
#
#
#
# Elastic Constant Matrix: (Units=GPa)
#
#
# Indices 1 2 3 4 5 6 
#
# 1 88.7651 40.0064 44.1606 0.0000 0.0000 0.0000
# 2 40.0064 88.7651 44.1606 0.0000 0.0000 0.0000
# 3 44.1606 44.1606 101.1310 0.0000 0.0000 0.0000
# 4 0.0000 0.0000 0.0000 56.7035 0.0000 0.0000
# 5 0.0000 0.0000 0.0000 0.0000 56.7035 0.0000
# 6 0.0000 0.0000 0.0000 0.0000 0.0000 -29.3890
#
#
#
# Elastic Compliance Matrix: (Units=1/GPa)
#
#
# Indices 1 2 3 4 5 6 
#
# 1 0.015798 -0.004712 -0.004841 0.000000 0.000000 0.000000
# 2 -0.004712 0.015798 -0.004841 0.000000 0.000000 0.000000
# 3 -0.004841 -0.004841 0.014116 0.000000 0.000000 0.000000
# 4 0.000000 0.000000 0.000000 0.017636 0.000000 0.000000
# 5 0.000000 0.000000 0.000000 0.000000 0.017636 0.000000
# 6 0.000000 0.000000 0.000000 0.000000 0.000000 -0.034026
#
#
# Mechanical properties :
#
#
# Convention : Reuss Voigt Hill
#
# Bulk Modulus (GPa) = 59.08677 59.47958 59.28318
# Shear Modulus (GPa) = 61.43733 26.82586 44.13160
#
# Velocity S-wave (km/s) = 5.01791 3.31576 4.25286
# Velocity P-wave (km/s) = 7.60188 6.24788 6.95789
#
# Compressibility (1/GPa) = 0.01692426
#
# Stress axis : x y z
#
# Youngs Moduli (GPa) = 63.30108 63.30108 70.84235
#
# Poissons Ratio (x) = 0.29825 0.34294
# Poissons Ratio (y) = 0.29825 0.34294
# Poissons Ratio (z) = 0.30643 0.30643
#
# Static dielectric constant tensor:
#      x y z
#    x 1.987790 0.000000 0.000000 
#    y 0.000000 1.987790 0.000000 
#    z 0.000000 0.000000 2.440970 
# 
# From -- ./inp_files/6182.got.cif
#   From: 2010.05.17/outbox.cif.g08.bks.cpg/sg91_4_cif.got.tgz:6182.got - 2010.06.03 19:20:03.
