data_PCOD9548167
_publ_section_title
;
Structure prediction by ZEFSAII (Michael W. Deem and Ramdas Pophale) SiO2 
 PCOD9548167
Probable space group: P 41 2 2
;
_chemical_formula_sum "Si O2"
_cell_formula_units_Z 32
_cell_length_a 7.912805
_cell_length_b 7.912805
_cell_length_c 21.046127
_cell_angle_alpha 90.000000
_cell_angle_beta 90.000000
_cell_angle_gamma 90.000000
_cell_volume 1317.750268
_symmetry_space_group_name_H-M "P 41 2 2"
_symmetry_group_IT_number 91
_symmetry_cell_setting 'tetragonal'
loop_
_space_group_symop_operation_xyz
x,y,z
-y,x,1/4+z
-x,-y,1/2+z
y,-x,3/4+z
x,-y,1/2-z
-x,y,-z
y,x,3/4-z
-y,-x,1/4-z
loop_
_atom_site_type_symbol
_atom_site_label
_atom_site_fract_x
_atom_site_fract_y
_atom_site_fract_z
Si Si1 0.646543 0.597560 0.153845
Si Si2 0.980274 0.000000 0.750000
Si Si3 0.241250 0.728029 0.531737
Si Si4 0.957310 0.574904 0.073273
Si Si5 0.827403 0.827403 0.875000
O O1 0.470942 0.529059 0.125000
O O2 0.641435 0.724633 0.212830
O O3 0.720489 0.422845 0.184844
O O4 0.782001 0.655725 0.100997
O O5 0.092221 0.841071 0.727276
O O6 0.895479 0.076762 0.687029
O O7 0.101385 0.619104 0.568745
O O8 0.106497 0.634146 0.120473
O O9 0.000000 0.616696 0.000000
#
# Coordination Sequence:
#
# PCOD9548167 Si02
#       5
#     8   4   8   8   4
#     4   9  20  40  67  96 132 177 231 279 340 411
#     4  12  24  40  68  98 134 178 228 278 350 418
#     4  10  21  40  68  95 130 181 231 278 340 417
#     4  11  22  41  63  97 138 177 221 285 345 408
#     4  12  26  42  62  98 140 180 222 284 354 412
#
# _framework density 24.283814
#
# number of rings (size 3 to 8) (size 9 to 14) (size 15 to 20)
#    0.000    1.500    5.000    0.000    5.250    0.000 
#    2.250    0.000    5.500    3.000    0.000    0.000 
#    0.000    0.000    0.000    0.000    0.000    0.000 
#
# Total GULP energy -178447.180140 kJ/mol
# GULP energy per Si atom -5576.474379 kJ/mol
# Density = 2.422854 g / cm^3
# Si number density = 24.283814 Si / 1000 Ang^3
#
#
#
# Elastic Constant Matrix: (Units=GPa)
#
#
# Indices 1 2 3 4 5 6 
#
# 1 79.6674 18.7335 28.1643 0.0000 0.0000 0.0000
# 2 18.7335 79.6675 28.1646 0.0000 0.0000 0.0000
# 3 28.1643 28.1646 128.8214 0.0000 0.0000 0.0000
# 4 0.0000 0.0000 0.0000 37.8460 0.0000 0.0000
# 5 0.0000 0.0000 0.0000 0.0000 37.8462 0.0000
# 6 0.0000 0.0000 0.0000 0.0000 0.0000 23.6005
#
#
#
# Elastic Compliance Matrix: (Units=1/GPa)
#
#
# Indices 1 2 3 4 5 6 
#
# 1 0.014014 -0.002397 -0.002540 0.000000 0.000000 0.000000
# 2 -0.002397 0.014014 -0.002540 0.000000 0.000000 0.000000
# 3 -0.002540 -0.002540 0.008873 0.000000 0.000000 0.000000
# 4 0.000000 0.000000 0.000000 0.026423 0.000000 0.000000
# 5 0.000000 0.000000 0.000000 0.000000 0.026423 0.000000
# 6 0.000000 0.000000 0.000000 0.000000 0.000000 0.042372
#
#
# Mechanical properties :
#
#
# Convention : Reuss Voigt Hill
#
# Bulk Modulus (GPa) = 45.56414 48.69790 47.13102
# Shear Modulus (GPa) = 32.38600 34.06480 33.22540
#
# Velocity S-wave (km/s) = 3.65587 3.74943 3.70295
# Velocity P-wave (km/s) = 6.05181 6.23229 6.14272
#
# Compressibility (1/GPa) = 0.02194708
#
# Stress axis : x y z
#
# Youngs Moduli (GPa) = 71.35836 71.35834 112.69885
#
# Poissons Ratio (x) = 0.17108 0.28622
# Poissons Ratio (y) = 0.17108 0.28622
# Poissons Ratio (z) = 0.18123 0.18123
#
# Static dielectric constant tensor:
#      x y z
#    x 2.019100 0.000000 0.000000 
#    y 0.000000 2.019100 0.000000 
#    z 0.000000 0.000000 1.973910 
# 
# From -- ./inp_files/21345.got.cif
#   From: 2010.05.17/outbox.cif.g08.bks.cpg/sg91_11_cif.got.tgz:21345.got - 2010.06.03 19:20:03.
