data_PCOD9548482
_publ_section_title
;
Structure prediction by ZEFSAII (Michael W. Deem and Ramdas Pophale) SiO2 
 PCOD9548482
Probable space group: P 41 2 2
;
_chemical_formula_sum "Si O2"
_cell_formula_units_Z 40
_cell_length_a 6.810734
_cell_length_b 6.810734
_cell_length_c 34.208834
_cell_angle_alpha 90.000000
_cell_angle_beta 90.000000
_cell_angle_gamma 90.000000
_cell_volume 1586.814313
_symmetry_space_group_name_H-M "P 41 2 2"
_symmetry_group_IT_number 91
_symmetry_cell_setting 'tetragonal'
loop_
_space_group_symop_operation_xyz
x,y,z
-y,x,1/4+z
-x,-y,1/2+z
y,-x,3/4+z
x,-y,1/2-z
-x,y,-z
y,x,3/4-z
-y,-x,1/4-z
loop_
_atom_site_type_symbol
_atom_site_label
_atom_site_fract_x
_atom_site_fract_y
_atom_site_fract_z
Si Si1 0.134839 0.194659 0.771004
Si Si2 0.541560 0.467214 0.044527
Si Si3 0.219029 0.476885 0.639710
Si Si4 0.883545 0.625817 0.801644
Si Si5 0.148302 0.958884 0.337746
O O1 0.321311 0.272205 0.795736
O O2 0.018826 0.312030 0.735832
O O3 0.971405 0.137891 0.802724
O O4 0.208838 0.000000 0.750000
O O5 0.832110 0.670414 0.104417
O O6 0.402690 0.381792 0.078783
O O7 0.500000 0.413168 0.000000
O O8 0.325289 0.674712 0.625000
O O9 0.023180 0.472441 0.665769
O O10 0.485125 0.699422 0.955514
O O11 0.798312 0.827443 0.819967
O O12 0.010358 0.010358 0.375000
#
# Coordination Sequence:
#
# PCOD9548482 Si02
#       5
#     8   8   8   8   8
#     4  10  23  49  80 115 161 215 270 323 398 485
#     4  12  27  45  79 119 156 208 265 329 398 477
#     4  11  26  48  78 122 161 211 272 330 412 476
#     4  10  24  49  80 114 164 214 267 325 403 485
#     4   9  22  47  80 114 162 216 262 334 398 480
#
# _framework density 25.207742
#
# number of rings (size 3 to 8) (size 9 to 14) (size 15 to 20)
#    0.000    1.600    2.000    0.000    5.600    4.800 
#    3.600    4.000    0.000    2.400    0.000    5.600 
#    0.000    0.000    0.000    0.000    0.000    0.000 
#
# Total GULP energy -223060.426982 kJ/mol
# GULP energy per Si atom -5576.510675 kJ/mol
# Density = 2.515037 g / cm^3
# Si number density = 25.207742 Si / 1000 Ang^3
#
#
#
# Elastic Constant Matrix: (Units=GPa)
#
#
# Indices 1 2 3 4 5 6 
#
# 1 152.2629 75.7507 70.7648 0.0000 0.0000 0.0000
# 2 75.7507 152.2627 70.7642 0.0000 0.0000 0.0000
# 3 70.7648 70.7642 189.1435 0.0000 0.0000 0.0000
# 4 0.0000 0.0000 0.0000 30.4856 0.0000 0.0000
# 5 0.0000 0.0000 0.0000 0.0000 30.4846 0.0000
# 6 0.0000 0.0000 0.0000 0.0000 0.0000 28.1064
#
#
#
# Elastic Compliance Matrix: (Units=1/GPa)
#
#
# Indices 1 2 3 4 5 6 
#
# 1 0.009391 -0.003679 -0.002137 0.000000 0.000000 0.000000
# 2 -0.003679 0.009391 -0.002137 0.000000 0.000000 0.000000
# 3 -0.002137 -0.002137 0.006886 0.000000 0.000000 0.000000
# 4 0.000000 0.000000 0.000000 0.032802 0.000000 0.000000
# 5 0.000000 0.000000 0.000000 0.000000 0.032803 0.000000
# 6 0.000000 0.000000 0.000000 0.000000 0.000000 0.035579
#
#
# Mechanical properties :
#
#
# Convention : Reuss Voigt Hill
#
# Bulk Modulus (GPa) = 102.43717 103.13651 102.78684
# Shear Modulus (GPa) = 34.24348 36.24128 35.24238
#
# Velocity S-wave (km/s) = 3.68972 3.79582 3.74314
# Velocity P-wave (km/s) = 7.67316 7.75980 7.71660
#
# Compressibility (1/GPa) = 0.00976208
#
# Stress axis : x y z
#
# Youngs Moduli (GPa) = 106.48452 106.48477 145.21970
#
# Poissons Ratio (x) = 0.39174 0.31036
# Poissons Ratio (y) = 0.39174 0.31035
# Poissons Ratio (z) = 0.22757 0.22757
#
# Static dielectric constant tensor:
#      x y z
#    x 2.030190 0.000000 0.000000 
#    y 0.000000 2.030190 0.000000 
#    z 0.000000 0.000000 2.096480 
# 
# From -- ./inp_files/13444.got.cif
#   From: 2010.05.17/outbox.cif.g08.bks.cpg/sg91_7_cif.got.tgz:13444.got - 2010.06.03 19:20:03.
