data_PCOD9548825
_publ_section_title
;
Structure prediction by ZEFSAII (Michael W. Deem and Ramdas Pophale) SiO2 
 PCOD9548825
Probable space group: P 41 2 2
;
_chemical_formula_sum "Si O2"
_cell_formula_units_Z 16
_cell_length_a 11.197914
_cell_length_b 11.197914
_cell_length_c 4.992173
_cell_angle_alpha 90.000000
_cell_angle_beta 90.000000
_cell_angle_gamma 90.000000
_cell_volume 625.984937
_symmetry_space_group_name_H-M "P 41 2 2"
_symmetry_group_IT_number 91
_symmetry_cell_setting 'tetragonal'
loop_
_space_group_symop_operation_xyz
x,y,z
-y,x,1/4+z
-x,-y,1/2+z
y,-x,3/4+z
x,-y,1/2-z
-x,y,-z
y,x,3/4-z
-y,-x,1/4-z
loop_
_atom_site_type_symbol
_atom_site_label
_atom_site_fract_x
_atom_site_fract_y
_atom_site_fract_z
Si Si1 0.870347 0.870347 0.875000
Si Si2 0.701143 0.000000 0.250000
Si Si3 0.500000 0.312695 0.500000
Si Si4 0.500000 0.860374 0.500000
O O1 0.889701 0.775179 0.635084
O O2 0.861624 0.000000 0.750000
O O3 0.615273 0.054888 0.021702
O O4 0.602025 0.397976 0.625000
O O5 0.521013 0.224606 0.252789
#
# Coordination Sequence:
#
# PCOD9548825 Si02
#       4
#     4   4   4   4
#     4  12  26  52  86 124 180 236 290 362 446 534
#     4  12  30  54  82 132 180 224 296 362 444 540
#     4  12  28  54  86 122 164 224 292 358 430 518
#     4  12  30  52  86 128 172 230 286 364 440 522
#
# _framework density 25.559719999999999
#
# number of rings (size 3 to 8) (size 9 to 14) (size 15 to 20)
#    0.000    0.000    2.500    4.500   14.000    4.000 
#    0.000    0.000    0.000    0.000    0.000    0.000 
#    0.000    0.000    0.000    0.000    0.000    0.000 
#
# Total GULP energy -89374.367582 kJ/mol
# GULP energy per Si atom -5585.897974 kJ/mol
# Density = 2.550155 g / cm^3
# Si number density = 25.559720 Si / 1000 Ang^3
#
#
#
# Elastic Constant Matrix: (Units=GPa)
#
#
# Indices 1 2 3 4 5 6 
#
# 1 123.2848 126.0943 83.8676 0.0000 0.0000 0.0000
# 2 126.0943 123.2853 83.8682 0.0000 0.0000 0.0000
# 3 83.8676 83.8682 209.9900 0.0000 0.0000 0.0000
# 4 0.0000 0.0000 0.0000 61.2780 0.0000 0.0000
# 5 0.0000 0.0000 0.0000 0.0000 61.2775 0.0000
# 6 0.0000 0.0000 0.0000 0.0000 0.0000 3.9054
#
#
#
# Elastic Compliance Matrix: (Units=1/GPa)
#
#
# Indices 1 2 3 4 5 6 
#
# 1 -0.175241 0.180723 -0.002190 0.000000 0.000000 0.000000
# 2 0.180723 -0.175240 -0.002189 0.000000 0.000000 0.000000
# 3 -0.002190 -0.002189 0.006511 0.000000 0.000000 0.000000
# 4 0.000000 0.000000 0.000000 0.016319 0.000000 0.000000
# 5 0.000000 0.000000 0.000000 0.000000 0.016319 0.000000
# 6 0.000000 0.000000 0.000000 0.000000 0.000000 0.256056
#
#
# Mechanical properties :
#
#
# Convention : Reuss Voigt Hill
#
# Bulk Modulus (GPa) = 114.70777 116.02447 115.36612
# Shear Modulus (GPa) = -12.34395 36.14085 11.89845
#
# Velocity S-wave (km/s) = -2.19999 3.76437 2.15992
# Velocity P-wave (km/s) = 6.20665 8.02409 7.17316
#
# Compressibility (1/GPa) = 0.00871781
#
# Stress axis : x y z
#
# Youngs Moduli (GPa) = -5.70644 -5.70645 153.57939
#
# Poissons Ratio (x) = 1.03129 0.33637
# Poissons Ratio (y) = 1.03129 0.33625
# Poissons Ratio (z) = -0.01250 -0.01249
#
# Static dielectric constant tensor:
#      x y z
#    x 1.988260 0.000000 0.000000 
#    y 0.000000 1.988250 0.000000 
#    z 0.000000 0.000000 1.957910 
# 
# From -- ./inp_files/159.got.cif
#   From: 2010.05.17/outbox.cif.g08.bks.cpg/sg91_1_cif.got.tgz:159.got - 2010.06.03 19:20:03.
