data_PCOD9548323
_publ_section_title
;
Structure prediction by ZEFSAII (Michael W. Deem and Ramdas Pophale) SiO2 
 PCOD9548323
Probable space group: P 41 2 2
;
_chemical_formula_sum "Si O2"
_cell_formula_units_Z 40
_cell_length_a 14.267585
_cell_length_b 14.267585
_cell_length_c 8.064096
_cell_angle_alpha 90.000000
_cell_angle_beta 90.000000
_cell_angle_gamma 90.000000
_cell_volume 1641.559491
_symmetry_space_group_name_H-M "P 41 2 2"
_symmetry_group_IT_number 91
_symmetry_cell_setting 'tetragonal'
loop_
_space_group_symop_operation_xyz
x,y,z
-y,x,1/4+z
-x,-y,1/2+z
y,-x,3/4+z
x,-y,1/2-z
-x,y,-z
y,x,3/4-z
-y,-x,1/4-z
loop_
_atom_site_type_symbol
_atom_site_label
_atom_site_fract_x
_atom_site_fract_y
_atom_site_fract_z
Si Si1 0.390188 0.645661 0.951555
Si Si2 0.480381 0.744794 0.681764
Si Si3 0.780022 0.150679 0.951808
Si Si4 0.387726 0.107626 0.294377
Si Si5 0.740891 0.951932 0.079983
O O1 0.389933 0.709891 0.786763
O O2 0.347526 0.545068 0.910849
O O3 0.500000 0.640083 0.000000
O O4 0.334318 0.665683 0.125000
O O5 0.500000 0.789109 0.500000
O O6 0.525387 0.823572 0.798339
O O7 0.685705 0.152995 0.840545
O O8 0.871207 0.184300 0.857006
O O9 0.790783 0.209218 0.125000
O O10 0.786174 0.040633 0.989832
O O11 0.338041 0.095749 0.469985
O O12 0.411803 0.000000 0.250000
O O13 0.704773 0.000000 0.250000
#
# Coordination Sequence:
#
# PCOD9548323 Si02
#       5
#     8   8   8   8   8
#     4   9  21  40  62  96 135 167 209 268 340 404
#     4  11  23  41  69  99 129 171 219 276 344 409
#     4   9  18  33  56  88 127 174 221 272 333 392
#     4  10  22  41  62  92 134 176 221 274 330 399
#     4   9  18  35  57  89 130 172 220 274 329 388
#
# _framework density 24.367073999999999
#
# number of rings (size 3 to 8) (size 9 to 14) (size 15 to 20)
#    0.000    2.400    0.000    1.200    0.000   12.800 
#    0.000   40.000    0.000    3.600    0.000    0.000 
#    0.000    0.000    0.000    0.000    0.000    0.000 
#
# Total GULP energy -223022.004408 kJ/mol
# GULP energy per Si atom -5575.550110 kJ/mol
# Density = 2.431161 g / cm^3
# Si number density = 24.367074 Si / 1000 Ang^3
#
#
#
# Elastic Constant Matrix: (Units=GPa)
#
#
# Indices 1 2 3 4 5 6 
#
# 1 67.0981 57.3745 51.8006 0.0000 0.0000 0.0000
# 2 57.3745 67.0983 51.8009 0.0000 0.0000 0.0000
# 3 51.8006 51.8009 121.0545 0.0000 0.0000 0.0000
# 4 0.0000 0.0000 0.0000 33.6178 0.0000 0.0000
# 5 0.0000 0.0000 0.0000 0.0000 33.6177 0.0000
# 6 0.0000 0.0000 0.0000 0.0000 0.0000 29.8045
#
#
#
# Elastic Compliance Matrix: (Units=1/GPa)
#
#
# Indices 1 2 3 4 5 6 
#
# 1 0.057660 -0.045182 -0.005339 0.000000 0.000000 0.000000
# 2 -0.045182 0.057660 -0.005340 0.000000 0.000000 0.000000
# 3 -0.005339 -0.005340 0.012830 0.000000 0.000000 0.000000
# 4 0.000000 0.000000 0.000000 0.029746 0.000000 0.000000
# 5 0.000000 0.000000 0.000000 0.000000 0.029746 0.000000
# 6 0.000000 0.000000 0.000000 0.000000 0.000000 0.033552
#
#
# Mechanical properties :
#
#
# Convention : Reuss Voigt Hill
#
# Bulk Modulus (GPa) = 60.86975 64.13364 62.50170
# Shear Modulus (GPa) = 14.77576 25.69300 20.23438
#
# Velocity S-wave (km/s) = 2.46515 3.25070 2.88479
# Velocity P-wave (km/s) = 5.75649 6.36131 6.06645
#
# Compressibility (1/GPa) = 0.01642852
#
# Stress axis : x y z
#
# Youngs Moduli (GPa) = 17.34312 17.34309 77.93957
#
# Poissons Ratio (x) = 0.78359 0.41615
# Poissons Ratio (y) = 0.78359 0.41617
# Poissons Ratio (z) = 0.09260 0.09261
#
# Static dielectric constant tensor:
#      x y z
#    x 1.899260 0.000000 0.000000 
#    y 0.000000 1.899260 0.000000 
#    z 0.000000 0.000000 2.212050 
# 
# From -- ./inp_files/19397.got.cif
#   From: 2010.05.17/outbox.cif.g08.bks.cpg/sg91_10_cif.got.tgz:19397.got - 2010.06.03 19:20:03.
