data_PCOD9548713
_publ_section_title
;
Structure prediction by ZEFSAII (Michael W. Deem and Ramdas Pophale) SiO2 
 PCOD9548713
Probable space group: P 41 2 2
;
_chemical_formula_sum "Si O2"
_cell_formula_units_Z 24
_cell_length_a 15.449247
_cell_length_b 15.449247
_cell_length_c 5.004492
_cell_angle_alpha 90.000000
_cell_angle_beta 90.000000
_cell_angle_gamma 90.000000
_cell_volume 1194.468311
_symmetry_space_group_name_H-M "P 41 2 2"
_symmetry_group_IT_number 91
_symmetry_cell_setting 'tetragonal'
loop_
_space_group_symop_operation_xyz
x,y,z
-y,x,1/4+z
-x,-y,1/2+z
y,-x,3/4+z
x,-y,1/2-z
-x,y,-z
y,x,3/4-z
-y,-x,1/4-z
loop_
_atom_site_type_symbol
_atom_site_label
_atom_site_fract_x
_atom_site_fract_y
_atom_site_fract_z
Si Si1 0.557530 0.691410 0.752597
Si Si2 0.281239 0.191298 0.126342
Si Si3 0.133674 0.000000 0.750000
Si Si4 0.000000 0.247474 0.500000
O O1 0.500000 0.664563 0.500000
O O2 0.626106 0.761685 0.645376
O O3 0.500000 0.725392 0.000000
O O4 0.612458 0.612458 0.875000
O O5 0.227008 0.227008 0.375000
O O6 0.292286 0.087612 0.143342
O O7 0.227248 0.227248 0.875000
O O8 0.190322 0.030830 0.501553
O O9 0.073754 0.926247 0.625000
#
# Coordination Sequence:
#
# PCOD9548713 Si02
#       4
#     8   8   4   4
#     4  11  23  42  66  94 126 157 195 250 315 382
#     4  11  23  41  62  88 125 165 206 256 308 361
#     4  12  23  34  52  83 120 154 204 272 320 353
#     4  12  23  38  60  85 116 168 216 248 302 375
#
# _framework density 20.092623
#
# number of rings (size 3 to 8) (size 9 to 14) (size 15 to 20)
#    0.000    0.667    0.000   12.000    0.000    1.333 
#    0.000    3.333    0.000    0.000    0.000    0.000 
#    0.000    0.000    0.000    0.000    0.000    0.000 
#
# Total GULP energy -134163.430088 kJ/mol
# GULP energy per Si atom -5590.142920 kJ/mol
# Density = 2.004689 g / cm^3
# Si number density = 20.092623 Si / 1000 Ang^3
#
#
#
# Elastic Constant Matrix: (Units=GPa)
#
#
# Indices 1 2 3 4 5 6 
#
# 1 125.8100 65.6249 49.6205 0.0000 0.0000 0.0000
# 2 65.6249 125.8103 49.6206 0.0000 0.0000 0.0000
# 3 49.6205 49.6206 166.3544 0.0000 0.0000 0.0000
# 4 0.0000 0.0000 0.0000 28.3285 0.0000 0.0000
# 5 0.0000 0.0000 0.0000 0.0000 28.3276 0.0000
# 6 0.0000 0.0000 0.0000 0.0000 0.0000 7.3401
#
#
#
# Elastic Compliance Matrix: (Units=1/GPa)
#
#
# Indices 1 2 3 4 5 6 
#
# 1 0.011397 -0.005218 -0.001843 0.000000 0.000000 0.000000
# 2 -0.005218 0.011397 -0.001843 0.000000 0.000000 0.000000
# 3 -0.001843 -0.001843 0.007111 0.000000 0.000000 0.000000
# 4 0.000000 0.000000 0.000000 0.035300 0.000000 0.000000
# 5 0.000000 0.000000 0.000000 0.000000 0.035301 0.000000
# 6 0.000000 0.000000 0.000000 0.000000 0.000000 0.136239
#
#
# Mechanical properties :
#
#
# Convention : Reuss Voigt Hill
#
# Bulk Modulus (GPa) = 82.66758 83.07851 82.87304
# Shear Modulus (GPa) = 19.33591 29.67316 24.50453
#
# Velocity S-wave (km/s) = 3.10552 3.84711 3.49604
# Velocity P-wave (km/s) = 7.35470 7.82120 7.59153
#
# Compressibility (1/GPa) = 0.01209664
#
# Stress axis : x y z
#
# Youngs Moduli (GPa) = 87.74016 87.74034 140.63086
#
# Poissons Ratio (x) = 0.45784 0.25920
# Poissons Ratio (y) = 0.45783 0.25920
# Poissons Ratio (z) = 0.16172 0.16172
#
# Static dielectric constant tensor:
#      x y z
#    x 1.757680 0.000000 0.000000 
#    y 0.000000 1.757690 0.000000 
#    z 0.000000 0.000000 1.751870 
# 
# From -- ./inp_files/8281.got.cif
#   From: 2010.05.17/outbox.cif.g08.bks.cpg/sg91_5_cif.got.tgz:8281.got - 2010.06.03 19:20:03.
