data_PCOD9548616
_publ_section_title
;
Structure prediction by ZEFSAII (Michael W. Deem and Ramdas Pophale) SiO2 
 PCOD9548616
Probable space group: P 41 2 2
;
_chemical_formula_sum "Si O2"
_cell_formula_units_Z 40
_cell_length_a 8.119137
_cell_length_b 8.119137
_cell_length_c 27.080941
_cell_angle_alpha 90.000000
_cell_angle_beta 90.000000
_cell_angle_gamma 90.000000
_cell_volume 1785.186074
_symmetry_space_group_name_H-M "P 41 2 2"
_symmetry_group_IT_number 91
_symmetry_cell_setting 'tetragonal'
loop_
_space_group_symop_operation_xyz
x,y,z
-y,x,1/4+z
-x,-y,1/2+z
y,-x,3/4+z
x,-y,1/2-z
-x,y,-z
y,x,3/4-z
-y,-x,1/4-z
loop_
_atom_site_type_symbol
_atom_site_label
_atom_site_fract_x
_atom_site_fract_y
_atom_site_fract_z
Si Si1 0.228189 0.603008 0.669655
Si Si2 0.284513 0.046062 0.121108
Si Si3 0.257979 0.886841 0.941484
Si Si4 0.185742 0.757525 0.044703
Si Si5 0.579012 0.497137 0.682254
O O1 0.274871 0.725130 0.625000
O O2 0.423941 0.596516 0.553726
O O3 0.164444 0.428905 0.647521
O O4 0.069334 0.671202 0.698009
O O5 0.241840 0.910644 0.079920
O O6 0.333372 0.950168 0.171598
O O7 0.130516 0.150730 0.141666
O O8 0.393450 0.743419 0.935155
O O9 0.162884 0.834580 0.990874
O O10 0.332873 0.626947 0.039094
O O11 0.553183 0.446818 0.625000
#
# Coordination Sequence:
#
# PCOD9548616 Si02
#       5
#     8   8   8   8   8
#     4  11  24  43  72 104 143 195 240 304 367 436
#     4  11  23  44  70  95 142 195 237 298 375 433
#     4  12  24  45  68 105 144 184 253 299 366 450
#     4  11  24  44  71  99 135 195 240 305 372 436
#     4  11  20  44  69 100 135 186 233 293 367 432
#
# _framework density 22.406625999999999
#
# number of rings (size 3 to 8) (size 9 to 14) (size 15 to 20)
#    0.000    0.800    8.000    1.200    2.800    0.000 
#    7.200    0.000    0.000    0.000    0.000    0.000 
#    0.000    0.000    0.000    0.000    0.000    0.000 
#
# Total GULP energy -223213.153415 kJ/mol
# GULP energy per Si atom -5580.328835 kJ/mol
# Density = 2.235563 g / cm^3
# Si number density = 22.406626 Si / 1000 Ang^3
#
#
#
# Elastic Constant Matrix: (Units=GPa)
#
#
# Indices 1 2 3 4 5 6 
#
# 1 106.8475 33.8472 7.1848 0.0000 0.0000 0.0000
# 2 33.8472 106.8467 7.1846 0.0000 0.0000 0.0000
# 3 7.1848 7.1846 92.5487 0.0000 0.0000 0.0000
# 4 0.0000 0.0000 0.0000 16.8837 0.0000 0.0000
# 5 0.0000 0.0000 0.0000 0.0000 16.8842 0.0000
# 6 0.0000 0.0000 0.0000 0.0000 0.0000 30.5151
#
#
#
# Elastic Compliance Matrix: (Units=1/GPa)
#
#
# Indices 1 2 3 4 5 6 
#
# 1 0.010431 -0.003267 -0.000556 0.000000 0.000000 0.000000
# 2 -0.003267 0.010432 -0.000556 0.000000 0.000000 0.000000
# 3 -0.000556 -0.000556 0.010891 0.000000 0.000000 0.000000
# 4 0.000000 0.000000 0.000000 0.059229 0.000000 0.000000
# 5 0.000000 0.000000 0.000000 0.000000 0.059227 0.000000
# 6 0.000000 0.000000 0.000000 0.000000 0.000000 0.032771
#
#
# Mechanical properties :
#
#
# Convention : Reuss Voigt Hill
#
# Bulk Modulus (GPa) = 43.48664 44.74178 44.11421
# Shear Modulus (GPa) = 25.07458 30.05834 27.56646
#
# Velocity S-wave (km/s) = 3.34888 3.66661 3.51134
# Velocity P-wave (km/s) = 5.86544 6.15929 6.01416
#
# Compressibility (1/GPa) = 0.02299557
#
# Stress axis : x y z
#
# Youngs Moduli (GPa) = 95.86352 95.86280 91.81490
#
# Poissons Ratio (x) = 0.31320 0.05107
# Poissons Ratio (y) = 0.31320 0.05107
# Poissons Ratio (z) = 0.05332 0.05332
#
# Static dielectric constant tensor:
#      x y z
#    x 1.891100 0.000000 0.000000 
#    y 0.000000 1.891100 0.000000 
#    z 0.000000 0.000000 1.834650 
# 
# From -- ./inp_files/17795.got.cif
#   From: 2010.05.17/outbox.cif.g08.bks.cpg/sg91_9_cif.got.tgz:17795.got - 2010.06.03 19:20:03.
