data_PCOD9548921
_publ_section_title
;
Structure prediction by ZEFSAII (Michael W. Deem and Ramdas Pophale) SiO2 
 PCOD9548921
Probable space group: P 41 21 2
;
_chemical_formula_sum "Si O2"
_cell_formula_units_Z 48
_cell_length_a 8.906034
_cell_length_b 8.906034
_cell_length_c 34.697515
_cell_angle_alpha 90.000000
_cell_angle_beta 90.000000
_cell_angle_gamma 90.000000
_cell_volume 2752.118120
_symmetry_space_group_name_H-M "P 41 21 2"
_symmetry_group_IT_number 92
_symmetry_cell_setting 'tetragonal'
loop_
_space_group_symop_operation_xyz
x,y,z
1/2-y,1/2+x,1/4+z
-x,-y,1/2+z
1/2+y,1/2-x,3/4+z
1/2+x,1/2-y,3/4-z
1/2-x,1/2+y,1/4-z
y,x,-z
-y,-x,1/2-z
loop_
_atom_site_type_symbol
_atom_site_label
_atom_site_fract_x
_atom_site_fract_y
_atom_site_fract_z
Si Si1 0.820742 0.982715 0.224761
Si Si2 0.853338 0.944789 0.095927
Si Si3 0.628041 0.570891 0.278927
Si Si4 0.379191 0.304750 0.594051
Si Si5 0.599532 0.916145 0.293151
Si Si6 0.151177 0.362358 0.712153
O O1 0.681867 0.971858 0.254038
O O2 0.845387 0.816186 0.208735
O O3 0.803523 0.109188 0.192275
O O4 0.962930 0.037070 0.250000
O O5 0.740628 0.814972 0.110864
O O6 0.971733 0.867170 0.067352
O O7 0.920063 0.058855 0.127465
O O8 0.755376 0.054390 0.068788
O O9 0.507993 0.492008 0.250000
O O10 0.587166 0.738661 0.291394
O O11 0.779027 0.590237 0.253628
O O12 0.516486 0.205723 0.577050
O O13 0.436758 0.990519 0.294038
#
# Coordination Sequence:
#
# PCOD9548921 Si02
#       6
#     8   8   8   8   8   8
#     4   9  17  30  49  71  95 123 159 199 240 284
#     4  10  19  32  50  70  96 128 165 199 240 288
#     4   9  18  33  53  75  99 128 163 205 246 291
#     4  10  19  32  49  70  96 128 164 201 238 288
#     4   9  18  32  50  73  99 125 158 201 246 287
#     4   9  17  31  51  73  96 126 163 201 241 288
#
# _framework density 17.441110999999999
#
# number of rings (size 3 to 8) (size 9 to 14) (size 15 to 20)
#    0.000    2.667    0.000    2.000    0.000    4.667 
#    0.000    5.000    0.000    4.000    0.000    0.000 
#    0.000    0.000    0.000    0.000    0.000    0.000 
#
# Total GULP energy -267265.570312 kJ/mol
# GULP energy per Si atom -5568.032715 kJ/mol
# Density = 1.740141 g / cm^3
# Si number density = 17.441111 Si / 1000 Ang^3
#
#
#
# Elastic Constant Matrix: (Units=GPa)
#
#
# Indices 1 2 3 4 5 6 
#
# 1 63.1724 22.1190 5.2328 0.0000 0.0000 0.0000
# 2 22.1190 63.1737 5.2332 0.0000 0.0000 0.0000
# 3 5.2328 5.2332 45.4630 0.0000 0.0000 0.0000
# 4 0.0000 0.0000 0.0000 16.0999 0.0000 0.0000
# 5 0.0000 0.0000 0.0000 0.0000 16.0999 0.0000
# 6 0.0000 0.0000 0.0000 0.0000 0.0000 14.6745
#
#
#
# Elastic Compliance Matrix: (Units=1/GPa)
#
#
# Indices 1 2 3 4 5 6 
#
# 1 0.018125 -0.006233 -0.001369 0.000000 0.000000 0.000000
# 2 -0.006233 0.018125 -0.001369 0.000000 0.000000 0.000000
# 3 -0.001369 -0.001369 0.022311 0.000000 0.000000 0.000000
# 4 0.000000 0.000000 0.000000 0.062112 0.000000 0.000000
# 5 0.000000 0.000000 0.000000 0.000000 0.062112 0.000000
# 6 0.000000 0.000000 0.000000 0.000000 0.000000 0.068146
#
#
# Mechanical properties :
#
#
# Convention : Reuss Voigt Hill
#
# Bulk Modulus (GPa) = 24.61820 26.33101 25.47460
# Shear Modulus (GPa) = 17.70458 18.65646 18.18052
#
# Velocity S-wave (km/s) = 3.18953 3.27415 3.23212
# Velocity P-wave (km/s) = 5.26401 5.42432 5.34477
#
# Compressibility (1/GPa) = 0.04062036
#
# Stress axis : x y z
#
# Youngs Moduli (GPa) = 55.17109 55.17217 44.82089
#
# Poissons Ratio (x) = 0.34388 0.06135
# Poissons Ratio (y) = 0.34387 0.06136
# Poissons Ratio (z) = 0.07552 0.07553
#
# Static dielectric constant tensor:
#      x y z
#    x 1.578510 0.000000 0.000000 
#    y 0.000000 1.578510 0.000000 
#    z 0.000000 0.000000 1.626590 
# 
# From -- ./inp_files/4455.got.cif
#   From: 2010.05.17/outbox.cif.g08.bks.cpg/sg92_3_cif.got.tgz:4455.got - 2010.06.03 19:35:17.
