data_PCOD9548714
_publ_section_title
;
Structure prediction by ZEFSAII (Michael W. Deem and Ramdas Pophale) SiO2 
 PCOD9548714
Probable space group: P 41 2 2
;
_chemical_formula_sum "Si O2"
_cell_formula_units_Z 56
_cell_length_a 15.274309
_cell_length_b 15.274309
_cell_length_c 12.062327
_cell_angle_alpha 90.000000
_cell_angle_beta 90.000000
_cell_angle_gamma 90.000000
_cell_volume 2814.195356
_symmetry_space_group_name_H-M "P 41 2 2"
_symmetry_group_IT_number 91
_symmetry_cell_setting 'tetragonal'
loop_
_space_group_symop_operation_xyz
x,y,z
-y,x,1/4+z
-x,-y,1/2+z
y,-x,3/4+z
x,-y,1/2-z
-x,y,-z
y,x,3/4-z
-y,-x,1/4-z
loop_
_atom_site_type_symbol
_atom_site_label
_atom_site_fract_x
_atom_site_fract_y
_atom_site_fract_z
Si Si1 0.664496 0.481345 0.622141
Si Si2 0.247507 0.218162 0.002970
Si Si3 0.762494 0.018577 0.943178
Si Si4 0.630003 0.000000 0.750000
Si Si5 0.075147 0.305428 0.090221
Si Si6 0.398898 0.346294 0.999712
Si Si7 0.043377 0.043377 0.375000
Si Si8 0.498404 0.863471 0.134833
O O1 0.677833 0.500000 0.750000
O O2 0.606243 0.393758 0.625000
O O3 0.614242 0.563886 0.568716
O O4 0.763592 0.480122 0.576172
O O5 0.242505 0.242505 0.875000
O O6 0.335772 0.268084 0.042544
O O7 0.233714 0.114875 0.006061
O O8 0.164889 0.256192 0.066730
O O9 0.694310 0.032704 0.844840
O O10 0.854714 0.980820 0.897809
O O11 0.722192 0.957290 0.038373
O O12 0.571604 0.074011 0.692509
O O13 0.100581 0.406943 0.080424
O O14 0.000000 0.284065 0.000000
O O15 0.372053 0.372053 0.875000
O O16 0.500000 0.319527 0.000000
O O17 0.000000 0.020681 0.500000
O O18 0.500000 0.868390 0.000000
#
# Coordination Sequence:
#
# PCOD9548714 Si02
#       8
#     8   8   8   4   8   8   4   8
#     4  11  23  41  65  98 135 183 237 281 346 417
#     4  11  25  45  68 107 137 180 242 289 354 433
#     4  12  27  47  71 105 144 184 237 299 375 437
#     4  12  26  46  68 100 144 184 240 296 370 442
#     4  12  23  45  78 101 144 188 236 306 358 434
#     4  11  23  41  65  95 141 179 226 287 347 410
#     4  12  28  50  78 112 148 194 242 306 382 450
#     4  11  24  45  68  99 140 189 243 294 354 431
#
# _framework density 19.899118000000001
#
# number of rings (size 3 to 8) (size 9 to 14) (size 15 to 20)
#    0.000    0.571    5.714    2.571    1.000    3.429 
#    3.857    0.000    0.000    0.000    0.000    0.000 
#    0.000    0.000    0.000    0.000    0.000    0.000 
#
# Total GULP energy -312437.435621 kJ/mol
# GULP energy per Si atom -5579.239922 kJ/mol
# Density = 1.985383 g / cm^3
# Si number density = 19.899118 Si / 1000 Ang^3
#
#
#
# Elastic Constant Matrix: (Units=GPa)
#
#
# Indices 1 2 3 4 5 6 
#
# 1 146.0849 45.9138 18.7921 0.0000 0.0000 0.0000
# 2 45.9138 146.0855 18.7914 0.0000 0.0000 0.0000
# 3 18.7921 18.7914 72.5253 0.0000 0.0000 0.0000
# 4 0.0000 0.0000 0.0000 40.4886 0.0000 0.0000
# 5 0.0000 0.0000 0.0000 0.0000 40.4892 0.0000
# 6 0.0000 0.0000 0.0000 0.0000 0.0000 15.7566
#
#
#
# Elastic Compliance Matrix: (Units=1/GPa)
#
#
# Indices 1 2 3 4 5 6 
#
# 1 0.007735 -0.002248 -0.001422 0.000000 0.000000 0.000000
# 2 -0.002248 0.007735 -0.001422 0.000000 0.000000 0.000000
# 3 -0.001422 -0.001422 0.014525 0.000000 0.000000 0.000000
# 4 0.000000 0.000000 0.000000 0.024698 0.000000 0.000000
# 5 0.000000 0.000000 0.000000 0.000000 0.024698 0.000000
# 6 0.000000 0.000000 0.000000 0.000000 0.000000 0.063465
#
#
# Mechanical properties :
#
#
# Convention : Reuss Voigt Hill
#
# Bulk Modulus (GPa) = 50.47502 59.07670 54.77586
# Shear Modulus (GPa) = 31.31989 38.09343 34.70666
#
# Velocity S-wave (km/s) = 3.97159 4.38005 4.18081
# Velocity P-wave (km/s) = 6.81556 7.43857 7.13387
#
# Compressibility (1/GPa) = 0.01981178
#
# Stress axis : x y z
#
# Youngs Moduli (GPa) = 129.28601 129.28691 68.84688
#
# Poissons Ratio (x) = 0.29065 0.09788
# Poissons Ratio (y) = 0.29065 0.09787
# Poissons Ratio (z) = 0.18380 0.18379
#
# Static dielectric constant tensor:
#      x y z
#    x 1.727570 0.000000 0.000000 
#    y 0.000000 1.727580 0.000000 
#    z 0.000000 0.000000 6.820570 
# 
# From -- ./inp_files/10867.got.cif
#   From: 2010.05.17/outbox.cif.g08.bks.cpg/sg91_6_cif.got.tgz:10867.got - 2010.06.03 19:20:03.
