data_PCOD9548185
_publ_section_title
;
Structure prediction by ZEFSAII (Michael W. Deem and Ramdas Pophale) SiO2 
 PCOD9548185
Probable space group: P 41 2 2
;
_chemical_formula_sum "Si O2"
_cell_formula_units_Z 56
_cell_length_a 15.240929
_cell_length_b 15.240929
_cell_length_c 12.774092
_cell_angle_alpha 90.000000
_cell_angle_beta 90.000000
_cell_angle_gamma 90.000000
_cell_volume 2967.241671
_symmetry_space_group_name_H-M "P 41 2 2"
_symmetry_group_IT_number 91
_symmetry_cell_setting 'tetragonal'
loop_
_space_group_symop_operation_xyz
x,y,z
-y,x,1/4+z
-x,-y,1/2+z
y,-x,3/4+z
x,-y,1/2-z
-x,y,-z
y,x,3/4-z
-y,-x,1/4-z
loop_
_atom_site_type_symbol
_atom_site_label
_atom_site_fract_x
_atom_site_fract_y
_atom_site_fract_z
Si Si1 0.087325 0.534352 0.944743
Si Si2 0.520972 0.367063 0.704115
Si Si3 0.662936 0.063116 0.119523
Si Si4 0.826931 0.701007 0.171304
Si Si5 0.464597 0.809323 0.892963
Si Si6 0.670394 0.583478 0.188562
Si Si7 0.718337 0.137457 0.338623
O O1 0.065325 0.445295 0.876212
O O2 0.139186 0.618685 0.900304
O O3 0.139557 0.492513 0.040393
O O4 0.000000 0.568833 0.000000
O O5 0.564401 0.435600 0.625000
O O6 0.506334 0.284568 0.628236
O O7 0.424936 0.399443 0.735793
O O8 0.568701 0.342695 0.813171
O O9 0.699458 0.123294 0.214761
O O10 0.701651 0.964176 0.126626
O O11 0.698031 0.104235 0.014043
O O12 0.733481 0.664295 0.209956
O O13 0.803938 0.801884 0.139437
O O14 0.360304 0.809904 0.894415
O O15 0.500000 0.848787 0.000000
O O16 0.709259 0.500000 0.250000
#
# Coordination Sequence:
#
# PCOD9548185 Si02
#       7
#     8   8   8   8   8   8   8
#     4  11  22  39  60  94 130 163 217 262 328 391
#     4  12  24  40  53  79 122 182 223 254 311 388
#     4  10  21  41  67  91 134 167 206 268 337 395
#     4  12  24  37  66  98 123 160 214 277 323 386
#     4  11  22  37  60  80 123 173 215 260 310 381
#     4  12  24  37  56  84 124 165 219 269 314 366
#     4  10  22  41  61  98 124 160 218 264 330 397
#
# _framework density 18.872747
#
# number of rings (size 3 to 8) (size 9 to 14) (size 15 to 20)
#    0.000    0.857    5.714    4.286    4.000    1.143 
#    0.000    0.000    0.000    0.000   11.143    0.000 
#    0.000    0.000    0.000    0.000    0.000    0.000 
#
# Total GULP energy -311889.559184 kJ/mol
# GULP energy per Si atom -5569.456414 kJ/mol
# Density = 1.882979 g / cm^3
# Si number density = 18.872747 Si / 1000 Ang^3
#
#
#
# Elastic Constant Matrix: (Units=GPa)
#
#
# Indices 1 2 3 4 5 6 
#
# 1 74.9098 40.7553 14.2622 0.0000 0.0000 0.0000
# 2 40.7553 74.9087 14.2626 0.0000 0.0000 0.0000
# 3 14.2622 14.2626 56.0952 0.0000 0.0000 0.0000
# 4 0.0000 0.0000 0.0000 9.9012 0.0000 0.0000
# 5 0.0000 0.0000 0.0000 0.0000 9.9033 0.0000
# 6 0.0000 0.0000 0.0000 0.0000 0.0000 42.9642
#
#
#
# Elastic Compliance Matrix: (Units=1/GPa)
#
#
# Indices 1 2 3 4 5 6 
#
# 1 0.019251 -0.010028 -0.002345 0.000000 0.000000 0.000000
# 2 -0.010028 0.019252 -0.002345 0.000000 0.000000 0.000000
# 3 -0.002345 -0.002345 0.019019 0.000000 0.000000 0.000000
# 4 0.000000 0.000000 0.000000 0.100998 0.000000 0.000000
# 5 0.000000 0.000000 0.000000 0.000000 0.100976 0.000000
# 6 0.000000 0.000000 0.000000 0.000000 0.000000 0.023275
#
#
# Mechanical properties :
#
#
# Convention : Reuss Voigt Hill
#
# Bulk Modulus (GPa) = 35.60423 38.27487 36.93955
# Shear Modulus (GPa) = 15.54868 21.66265 18.60567
#
# Velocity S-wave (km/s) = 2.87343 3.39164 3.14323
# Velocity P-wave (km/s) = 5.46947 5.97178 5.72614
#
# Compressibility (1/GPa) = 0.02808655
#
# Stress axis : x y z
#
# Youngs Moduli (GPa) = 51.94416 51.94324 52.57787
#
# Poissons Ratio (x) = 0.52086 0.12330
# Poissons Ratio (y) = 0.52087 0.12332
# Poissons Ratio (z) = 0.12181 0.12183
#
# Static dielectric constant tensor:
#      x y z
#    x 1.776480 0.000000 0.000000 
#    y 0.000000 1.776480 0.000000 
#    z 0.000000 0.000000 1.625120 
# 
# From -- ./inp_files/15960.got.cif
#   From: 2010.05.17/outbox.cif.g08.bks.cpg/sg91_8_cif.got.tgz:15960.got - 2010.06.03 19:20:03.
