data_PCOD9548315
_publ_section_title
;
Structure prediction by ZEFSAII (Michael W. Deem and Ramdas Pophale) SiO2 
 PCOD9548315
Probable space group: P 41 2 2
;
_chemical_formula_sum "Si O2"
_cell_formula_units_Z 32
_cell_length_a 9.621838
_cell_length_b 9.621838
_cell_length_c 17.022221
_cell_angle_alpha 90.000000
_cell_angle_beta 90.000000
_cell_angle_gamma 90.000000
_cell_volume 1575.913245
_symmetry_space_group_name_H-M "P 41 2 2"
_symmetry_group_IT_number 91
_symmetry_cell_setting 'tetragonal'
loop_
_space_group_symop_operation_xyz
x,y,z
-y,x,1/4+z
-x,-y,1/2+z
y,-x,3/4+z
x,-y,1/2-z
-x,y,-z
y,x,3/4-z
-y,-x,1/4-z
loop_
_atom_site_type_symbol
_atom_site_label
_atom_site_fract_x
_atom_site_fract_y
_atom_site_fract_z
Si Si1 0.500000 0.862876 0.500000
Si Si2 0.910925 0.700648 0.677378
Si Si3 0.849541 0.150460 0.125000
Si Si4 0.246853 0.659792 0.483942
Si Si5 0.649905 0.657235 0.780560
O O1 0.383491 0.755835 0.468235
O O2 0.583355 0.972845 0.446272
O O3 0.842343 0.667457 0.594450
O O4 0.790056 0.715917 0.741394
O O5 0.004081 0.836211 0.667359
O O6 0.730905 0.174097 0.191067
O O7 0.279445 0.497358 0.496872
O O8 0.647432 0.500000 0.750000
O O9 0.658971 0.658971 0.875000
#
# Coordination Sequence:
#
# PCOD9548315 Si02
#       5
#     4   8   4   8   8
#     4  10  22  40  68 102 136 180 232 302 356 430
#     4  11  23  44  69  97 145 181 238 297 367 431
#     4  10  26  44  70  94 136 196 234 296 352 450
#     4  11  23  40  73 102 136 185 246 292 364 431
#     4  12  23  39  69 114 144 177 232 312 367 418
#
# _framework density 20.305686000000001
#
# number of rings (size 3 to 8) (size 9 to 14) (size 15 to 20)
#    0.000    1.000    5.000    0.750    8.750    0.000 
#    0.000    0.000   57.750    0.000    0.000    0.000 
#    0.000    0.000    0.000    0.000    0.000    0.000 
#
# Total GULP energy -178575.814869 kJ/mol
# GULP energy per Si atom -5580.494215 kJ/mol
# Density = 2.025947 g / cm^3
# Si number density = 20.305686 Si / 1000 Ang^3
#
#
#
# Elastic Constant Matrix: (Units=GPa)
#
#
# Indices 1 2 3 4 5 6 
#
# 1 184.7563 13.8662 50.3058 0.0000 0.0000 0.0000
# 2 13.8662 184.7600 50.3044 0.0000 0.0000 0.0000
# 3 50.3058 50.3044 117.9081 0.0000 0.0000 0.0000
# 4 0.0000 0.0000 0.0000 20.8366 0.0000 0.0000
# 5 0.0000 0.0000 0.0000 0.0000 20.8369 0.0000
# 6 0.0000 0.0000 0.0000 0.0000 0.0000 5.5039
#
#
#
# Elastic Compliance Matrix: (Units=1/GPa)
#
#
# Indices 1 2 3 4 5 6 
#
# 1 0.006137 0.000285 -0.002740 0.000000 0.000000 0.000000
# 2 0.000285 0.006137 -0.002740 0.000000 0.000000 0.000000
# 3 -0.002740 -0.002740 0.010819 0.000000 0.000000 0.000000
# 4 0.000000 0.000000 0.000000 0.047993 0.000000 0.000000
# 5 0.000000 0.000000 0.000000 0.000000 0.047992 0.000000
# 6 0.000000 0.000000 0.000000 0.000000 0.000000 0.181691
#
#
# Mechanical properties :
#
#
# Convention : Reuss Voigt Hill
#
# Bulk Modulus (GPa) = 78.71625 79.59747 79.15686
# Shear Modulus (GPa) = 15.85324 34.29867 25.07595
#
# Velocity S-wave (km/s) = 2.79718 4.11434 3.51796
# Velocity P-wave (km/s) = 7.02012 7.86480 7.45444
#
# Compressibility (1/GPa) = 0.01270386
#
# Stress axis : x y z
#
# Youngs Moduli (GPa) = 162.93982 162.94471 92.42680
#
# Poissons Ratio (x) = -0.04652 0.25327
# Poissons Ratio (y) = -0.04652 0.25326
# Poissons Ratio (z) = 0.44650 0.44649
#
# Static dielectric constant tensor:
#      x y z
#    x 1.926630 0.000000 0.000000 
#    y 0.000000 1.926630 0.000000 
#    z 0.000000 0.000000 1.743040 
# 
# From -- ./inp_files/17154.got.cif
#   From: 2010.05.17/outbox.cif.g08.bks.cpg/sg91_9_cif.got.tgz:17154.got - 2010.06.03 19:20:03.
