data_PCOD9548153
_publ_section_title
;
Structure prediction by ZEFSAII (Michael W. Deem and Ramdas Pophale) SiO2 
 PCOD9548153
Probable space group: P 41 2 2
;
_chemical_formula_sum "Si O2"
_cell_formula_units_Z 40
_cell_length_a 11.547416
_cell_length_b 11.547416
_cell_length_c 14.099406
_cell_angle_alpha 90.000000
_cell_angle_beta 90.000000
_cell_angle_gamma 90.000000
_cell_volume 1880.054504
_symmetry_space_group_name_H-M "P 41 2 2"
_symmetry_group_IT_number 91
_symmetry_cell_setting 'tetragonal'
loop_
_space_group_symop_operation_xyz
x,y,z
-y,x,1/4+z
-x,-y,1/2+z
y,-x,3/4+z
x,-y,1/2-z
-x,y,-z
y,x,3/4-z
-y,-x,1/4-z
loop_
_atom_site_type_symbol
_atom_site_label
_atom_site_fract_x
_atom_site_fract_y
_atom_site_fract_z
Si Si1 0.307043 0.693900 0.323744
Si Si2 0.653184 0.116381 0.201560
Si Si3 0.697950 0.151499 0.992282
Si Si4 0.892904 0.258061 0.694067
Si Si5 0.221231 0.534676 0.084154
O O1 0.358375 0.778549 0.404524
O O2 0.180918 0.743072 0.291659
O O3 0.289626 0.564000 0.359496
O O4 0.383293 0.698292 0.229343
O O5 0.752277 0.209840 0.224242
O O6 0.538037 0.146311 0.259370
O O7 0.697379 0.000000 0.250000
O O8 0.631326 0.116461 0.088816
O O9 0.749390 0.029681 0.956775
O O10 0.839335 0.160666 0.625000
O O11 0.858362 0.382253 0.647772
#
# Coordination Sequence:
#
# PCOD9548153 Si02
#       5
#     8   8   8   8   8
#     4  10  22  41  66  94 127 166 214 263 320 380
#     4  10  22  40  63  93 130 172 208 258 322 380
#     4  10  21  40  62  94 131 162 212 260 314 389
#     4  10  22  41  66  94 127 166 212 263 322 385
#     4  10  22  40  67  90 129 165 215 265 319 385
#
# _framework density 21.275979
#
# number of rings (size 3 to 8) (size 9 to 14) (size 15 to 20)
#    0.000    2.000    0.000    3.000    2.800    3.200 
#    7.200    0.000   83.600    0.000    0.000    0.000 
#    0.000    0.000    0.000    0.000    0.000    0.000 
#
# Total GULP energy -223273.237423 kJ/mol
# GULP energy per Si atom -5581.830936 kJ/mol
# Density = 2.122755 g / cm^3
# Si number density = 21.275979 Si / 1000 Ang^3
#
#
#
# Elastic Constant Matrix: (Units=GPa)
#
#
# Indices 1 2 3 4 5 6 
#
# 1 60.5458 -7.5052 17.5385 0.0000 0.0000 0.0000
# 2 -7.5052 60.5452 17.5377 0.0000 0.0000 0.0000
# 3 17.5385 17.5377 121.3969 0.0000 0.0000 0.0000
# 4 0.0000 0.0000 0.0000 18.9908 0.0000 0.0000
# 5 0.0000 0.0000 0.0000 0.0000 18.9904 0.0000
# 6 0.0000 0.0000 0.0000 0.0000 0.0000 1.2711
#
#
#
# Elastic Compliance Matrix: (Units=1/GPa)
#
#
# Indices 1 2 3 4 5 6 
#
# 1 0.017770 0.003075 -0.003012 0.000000 0.000000 0.000000
# 2 0.003075 0.017770 -0.003011 0.000000 0.000000 0.000000
# 3 -0.003012 -0.003011 0.009108 0.000000 0.000000 0.000000
# 4 0.000000 0.000000 0.000000 0.052657 0.000000 0.000000
# 5 0.000000 0.000000 0.000000 0.000000 0.052658 0.000000
# 6 0.000000 0.000000 0.000000 0.000000 0.000000 0.786738
#
#
# Mechanical properties :
#
#
# Convention : Reuss Voigt Hill
#
# Bulk Modulus (GPa) = 25.80518 33.06998 29.43758
# Shear Modulus (GPa) = 5.23279 22.17826 13.70552
#
# Velocity S-wave (km/s) = 1.56997 3.23214 2.54082
# Velocity P-wave (km/s) = 3.92957 5.43195 4.74065
#
# Compressibility (1/GPa) = 0.03875190
#
# Stress axis : x y z
#
# Youngs Moduli (GPa) = 56.27473 56.27438 109.79876
#
# Poissons Ratio (x) = -0.17305 0.33066
# Poissons Ratio (y) = -0.17305 0.33065
# Poissons Ratio (z) = 0.16947 0.16947
#
# Static dielectric constant tensor:
#      x y z
#    x 1.769960 0.000000 0.000000 
#    y 0.000000 1.769960 0.000000 
#    z 0.000000 0.000000 1.867780 
# 
# From -- ./inp_files/4723.got.cif
#   From: 2010.05.17/outbox.cif.g08.bks.cpg/sg91_3_cif.got.tgz:4723.got - 2010.06.03 19:20:03.
