data_PCOD9548432
_publ_section_title
;
Structure prediction by ZEFSAII (Michael W. Deem and Ramdas Pophale) SiO2 
 PCOD9548432
Probable space group: P 41 2 2
;
_chemical_formula_sum "Si O2"
_cell_formula_units_Z 36
_cell_length_a 8.737845
_cell_length_b 8.737845
_cell_length_c 19.739762
_cell_angle_alpha 90.000000
_cell_angle_beta 90.000000
_cell_angle_gamma 90.000000
_cell_volume 1507.129550
_symmetry_space_group_name_H-M "P 41 2 2"
_symmetry_group_IT_number 91
_symmetry_cell_setting 'tetragonal'
loop_
_space_group_symop_operation_xyz
x,y,z
-y,x,1/4+z
-x,-y,1/2+z
y,-x,3/4+z
x,-y,1/2-z
-x,y,-z
y,x,3/4-z
-y,-x,1/4-z
loop_
_atom_site_type_symbol
_atom_site_label
_atom_site_fract_x
_atom_site_fract_y
_atom_site_fract_z
Si Si1 0.391447 0.366049 0.122290
Si Si2 0.692376 0.982526 0.593653
Si Si3 0.500000 0.194699 0.500000
Si Si4 0.499567 0.120493 0.689994
Si Si5 0.002165 0.807146 0.418546
O O1 0.557738 0.442263 0.125000
O O2 0.388844 0.183261 0.110478
O O3 0.301343 0.423897 0.190740
O O4 0.295377 0.444422 0.059397
O O5 0.864310 0.928566 0.591507
O O6 0.626944 0.077458 0.530447
O O7 0.659361 0.100448 0.653934
O O8 0.360895 0.051142 0.644928
O O9 0.508868 0.000000 0.750000
O O10 0.000000 0.797628 0.500000
O O11 0.859222 0.859222 0.375000
#
# Coordination Sequence:
#
# PCOD9548432 Si02
#       5
#     8   8   4   8   8
#     4  10  23  41  65  99 125 173 221 266 333 391
#     4  10  23  40  65  92 125 173 207 268 331 383
#     4  10  24  44  66  92 140 162 216 282 320 406
#     4   9  21  42  61  90 130 165 212 266 328 388
#     4  10  23  40  64  94 125 168 216 267 322 393
#
# _framework density 23.886464
#
# number of rings (size 3 to 8) (size 9 to 14) (size 15 to 20)
#    0.000    2.222    0.000    0.000   12.444    6.222 
#    4.000    0.000    0.000    0.000    0.000    0.000 
#    0.000    0.000    0.000    0.000    0.000    0.000 
#
# Total GULP energy -200505.698023 kJ/mol
# GULP energy per Si atom -5569.602723 kJ/mol
# Density = 2.383210 g / cm^3
# Si number density = 23.886464 Si / 1000 Ang^3
#
#
#
# Elastic Constant Matrix: (Units=GPa)
#
#
# Indices 1 2 3 4 5 6 
#
# 1 58.8828 48.5266 18.3323 0.0000 0.0000 0.0000
# 2 48.5266 58.8854 18.3326 0.0000 0.0000 0.0000
# 3 18.3323 18.3326 71.6476 0.0000 0.0000 0.0000
# 4 0.0000 0.0000 0.0000 24.8839 0.0000 0.0000
# 5 0.0000 0.0000 0.0000 0.0000 24.8837 0.0000
# 6 0.0000 0.0000 0.0000 0.0000 0.0000 46.3518
#
#
#
# Elastic Compliance Matrix: (Units=1/GPa)
#
#
# Indices 1 2 3 4 5 6 
#
# 1 0.053376 -0.043173 -0.002610 0.000000 0.000000 0.000000
# 2 -0.043173 0.053373 -0.002610 0.000000 0.000000 0.000000
# 3 -0.002610 -0.002610 0.015293 0.000000 0.000000 0.000000
# 4 0.000000 0.000000 0.000000 0.040187 0.000000 0.000000
# 5 0.000000 0.000000 0.000000 0.000000 0.040187 0.000000
# 6 0.000000 0.000000 0.000000 0.000000 0.000000 0.021574
#
#
# Mechanical properties :
#
#
# Convention : Reuss Voigt Hill
#
# Bulk Modulus (GPa) = 39.59699 39.97764 39.78732
# Shear Modulus (GPa) = 15.18857 26.17219 20.68038
#
# Velocity S-wave (km/s) = 2.52437 3.31371 2.94560
# Velocity P-wave (km/s) = 5.01096 5.60480 5.31618
#
# Compressibility (1/GPa) = 0.02525444
#
# Stress axis : x y z
#
# Youngs Moduli (GPa) = 18.73514 18.73598 65.38979
#
# Poissons Ratio (x) = 0.80890 0.17068
# Poissons Ratio (y) = 0.80886 0.17067
# Poissons Ratio (z) = 0.04890 0.04890
#
# Static dielectric constant tensor:
#      x y z
#    x 1.917290 0.000000 0.000000 
#    y 0.000000 1.917290 0.000000 
#    z 0.000000 0.000000 2.095980 
# 
# From -- ./inp_files/6141.got.cif
#   From: 2010.05.17/outbox.cif.g08.bks.cpg/sg91_4_cif.got.tgz:6141.got - 2010.06.03 19:20:03.
