data_PCOD9548222
_publ_section_title
;
Structure prediction by ZEFSAII (Michael W. Deem and Ramdas Pophale) SiO2 
 PCOD9548222
Probable space group: P 41 2 2
;
_chemical_formula_sum "Si O2"
_cell_formula_units_Z 40
_cell_length_a 8.140497
_cell_length_b 8.140497
_cell_length_c 23.526608
_cell_angle_alpha 90.000000
_cell_angle_beta 90.000000
_cell_angle_gamma 90.000000
_cell_volume 1559.053999
_symmetry_space_group_name_H-M "P 41 2 2"
_symmetry_group_IT_number 91
_symmetry_cell_setting 'tetragonal'
loop_
_space_group_symop_operation_xyz
x,y,z
-y,x,1/4+z
-x,-y,1/2+z
y,-x,3/4+z
x,-y,1/2-z
-x,y,-z
y,x,3/4-z
-y,-x,1/4-z
loop_
_atom_site_type_symbol
_atom_site_label
_atom_site_fract_x
_atom_site_fract_y
_atom_site_fract_z
Si Si1 0.152981 0.069830 0.606779
Si Si2 0.226475 0.568132 0.039201
Si Si3 0.572813 0.899696 0.330193
Si Si4 0.307775 0.942744 0.012472
Si Si5 0.737629 0.372636 0.336685
O O1 0.196698 0.026617 0.542701
O O2 0.234557 0.248273 0.611212
O O3 0.247959 0.971175 0.657051
O O4 0.965633 0.034368 0.625000
O O5 0.257181 0.761820 0.035873
O O6 0.365351 0.446784 0.064252
O O7 0.065590 0.538179 0.078158
O O8 0.185913 0.478637 0.978576
O O9 0.541014 0.793775 0.386362
O O10 0.309699 0.117032 0.045544
O O11 0.500000 0.919027 0.000000
#
# Coordination Sequence:
#
# PCOD9548222 Si02
#       5
#     8   8   8   8   8
#     4  11  24  43  71 103 135 188 243 297 375 445
#     4  10  24  43  72 104 146 190 247 301 373 449
#     4  10  21  45  66 100 146 183 237 309 357 441
#     4  12  25  44  71 107 144 189 251 305 374 459
#     4  11  24  44  73 104 143 190 237 308 370 435
#
# _framework density 25.656582
#
# number of rings (size 3 to 8) (size 9 to 14) (size 15 to 20)
#    0.000    1.200    4.000    1.200    2.800    3.200 
#    3.600    0.000    0.000    0.000    0.000    0.000 
#    0.000    0.000    0.000    0.000    0.000    0.000 
#
# Total GULP energy -223282.586412 kJ/mol
# GULP energy per Si atom -5582.064660 kJ/mol
# Density = 2.559819 g / cm^3
# Si number density = 25.656582 Si / 1000 Ang^3
#
#
#
# Elastic Constant Matrix: (Units=GPa)
#
#
# Indices 1 2 3 4 5 6 
#
# 1 100.4206 42.2627 28.6151 0.0000 0.0000 0.0000
# 2 42.2627 100.4192 28.6152 0.0000 0.0000 0.0000
# 3 28.6151 28.6152 65.1235 0.0000 0.0000 0.0000
# 4 0.0000 0.0000 0.0000 4.9808 0.0000 0.0000
# 5 0.0000 0.0000 0.0000 0.0000 4.9826 0.0000
# 6 0.0000 0.0000 0.0000 0.0000 0.0000 38.3621
#
#
#
# Elastic Compliance Matrix: (Units=1/GPa)
#
#
# Indices 1 2 3 4 5 6 
#
# 1 0.012851 -0.004343 -0.003738 0.000000 0.000000 0.000000
# 2 -0.004343 0.012852 -0.003738 0.000000 0.000000 0.000000
# 3 -0.003738 -0.003738 0.018641 0.000000 0.000000 0.000000
# 4 0.000000 0.000000 0.000000 0.200772 0.000000 0.000000
# 5 0.000000 0.000000 0.000000 0.000000 0.200699 0.000000
# 6 0.000000 0.000000 0.000000 0.000000 0.000000 0.026067
#
#
# Mechanical properties :
#
#
# Convention : Reuss Voigt Hill
#
# Bulk Modulus (GPa) = 48.30179 51.66102 49.98140
# Shear Modulus (GPa) = 9.95176 20.76312 15.35744
#
# Velocity S-wave (km/s) = 1.97161 2.84785 2.44924
# Velocity P-wave (km/s) = 4.90409 5.56714 5.24610
#
# Compressibility (1/GPa) = 0.02070317
#
# Stress axis : x y z
#
# Youngs Moduli (GPa) = 77.81310 77.81183 53.64595
#
# Poissons Ratio (x) = 0.33796 0.20055
# Poissons Ratio (y) = 0.33797 0.20055
# Poissons Ratio (z) = 0.29089 0.29090
#
# Static dielectric constant tensor:
#      x y z
#    x 2.165130 0.000000 0.000000 
#    y 0.000000 2.165120 0.000000 
#    z 0.000000 0.000000 2.111620 
# 
# From -- ./inp_files/6729.got.cif
#   From: 2010.05.17/outbox.cif.g08.bks.cpg/sg91_4_cif.got.tgz:6729.got - 2010.06.03 19:20:03.
