data_PCOD9548221
_publ_section_title
;
Structure prediction by ZEFSAII (Michael W. Deem and Ramdas Pophale) SiO2 
 PCOD9548221
Probable space group: P 41 2 2
;
_chemical_formula_sum "Si O2"
_cell_formula_units_Z 40
_cell_length_a 18.816632
_cell_length_b 18.816632
_cell_length_c 5.259287
_cell_angle_alpha 90.000000
_cell_angle_beta 90.000000
_cell_angle_gamma 90.000000
_cell_volume 1862.132817
_symmetry_space_group_name_H-M "P 41 2 2"
_symmetry_group_IT_number 91
_symmetry_cell_setting 'tetragonal'
loop_
_space_group_symop_operation_xyz
x,y,z
-y,x,1/4+z
-x,-y,1/2+z
y,-x,3/4+z
x,-y,1/2-z
-x,y,-z
y,x,3/4-z
-y,-x,1/4-z
loop_
_atom_site_type_symbol
_atom_site_label
_atom_site_fract_x
_atom_site_fract_y
_atom_site_fract_z
Si Si1 0.358957 0.863549 0.121943
Si Si2 0.711829 0.711829 0.875000
Si Si3 0.351299 0.351299 0.875000
Si Si4 0.500000 0.707657 0.500000
Si Si5 0.448702 0.000000 0.250000
Si Si6 0.077417 0.077417 0.375000
Si Si7 0.953012 0.772575 0.741463
Si Si8 0.799401 0.500000 0.750000
O O1 0.317889 0.790692 0.213128
O O2 0.397737 0.929210 0.277573
O O3 0.292332 0.899805 0.990525
O O4 0.426717 0.841047 0.953659
O O5 0.695519 0.666708 0.622352
O O6 0.338315 0.431558 0.800872
O O7 0.514379 0.755265 0.746734
O O8 0.500000 0.004740 0.500000
O O9 0.081018 0.149064 0.211656
O O10 0.000000 0.079614 0.500000
O O11 0.000000 0.762112 0.500000
O O12 0.000000 0.771137 0.000000
#
# Coordination Sequence:
#
# PCOD9548221 Si02
#       8
#     8   4   4   4   4   4   8   4
#     4  12  26  49  72 111 149 199 254 308 381 457
#     4  12  27  44  75 106 146 206 243 311 366 460
#     4  12  24  46  73 107 147 182 247 296 376 434
#     4  12  24  48  70 114 138 192 232 316 350 458
#     4  12  30  46  78 112 152 200 250 318 384 458
#     4  10  21  44  74 103 139 194 252 311 372 446
#     4  11  26  43  68 102 145 186 237 311 369 436
#     4  12  26  42  80  98 152 188 254 294 384 440
#
# _framework density 21.480743
#
# number of rings (size 3 to 8) (size 9 to 14) (size 15 to 20)
#    0.000    0.400    6.000    1.200    2.800    7.200 
#    0.000    2.000    0.000    0.000    0.000    0.000 
#    0.000    0.000    0.000    0.000    0.000    0.000 
#
# Total GULP energy -222853.249496 kJ/mol
# GULP energy per Si atom -5571.331237 kJ/mol
# Density = 2.143185 g / cm^3
# Si number density = 21.480743 Si / 1000 Ang^3
#
#
#
# Elastic Constant Matrix: (Units=GPa)
#
#
# Indices 1 2 3 4 5 6 
#
# 1 157.9517 79.5606 33.4032 0.0000 0.0000 0.0000
# 2 79.5606 157.9517 33.4032 0.0000 0.0000 0.0000
# 3 33.4032 33.4032 110.9381 0.0000 0.0000 0.0000
# 4 0.0000 0.0000 0.0000 25.0028 0.0000 0.0000
# 5 0.0000 0.0000 0.0000 0.0000 25.0028 0.0000
# 6 0.0000 0.0000 0.0000 0.0000 0.0000 -157.2003
#
#
#
# Elastic Compliance Matrix: (Units=1/GPa)
#
#
# Indices 1 2 3 4 5 6 
#
# 1 0.008678 -0.004078 -0.001385 0.000000 0.000000 0.000000
# 2 -0.004078 0.008678 -0.001385 0.000000 0.000000 0.000000
# 3 -0.001385 -0.001385 0.009848 0.000000 0.000000 0.000000
# 4 0.000000 0.000000 0.000000 0.039996 0.000000 0.000000
# 5 0.000000 0.000000 0.000000 0.000000 0.039996 0.000000
# 6 0.000000 0.000000 0.000000 0.000000 0.000000 -0.006361
#
#
# Mechanical properties :
#
#
# Convention : Reuss Voigt Hill
#
# Bulk Modulus (GPa) = 74.03134 79.95282 76.99208
# Shear Modulus (GPa) = 42.00494 -2.74064 19.63215
#
# Velocity S-wave (km/s) = 4.42687 -1.13076 3.02643
# Velocity P-wave (km/s) = 7.78899 5.96629 6.93776
#
# Compressibility (1/GPa) = 0.01350779
#
# Stress axis : x y z
#
# Youngs Moduli (GPa) = 115.23103 115.23103 101.54266
#
# Poissons Ratio (x) = 0.46995 0.14064
# Poissons Ratio (y) = 0.46995 0.14064
# Poissons Ratio (z) = 0.15960 0.15960
#
# Static dielectric constant tensor:
#      x y z
#    x 1.830260 0.000000 0.000000 
#    y 0.000000 1.830260 0.000000 
#    z 0.000000 0.000000 1.718790 
# 
# From -- ./inp_files/8676.got.cif
#   From: 2010.05.17/outbox.cif.g08.bks.cpg/sg91_5_cif.got.tgz:8676.got - 2010.06.03 19:20:03.
