data_PCOD9548453
_publ_section_title
;
Structure prediction by ZEFSAII (Michael W. Deem and Ramdas Pophale) SiO2 
 PCOD9548453
Probable space group: P 41 2 2
;
_chemical_formula_sum "Si O2"
_cell_formula_units_Z 36
_cell_length_a 12.716992
_cell_length_b 12.716992
_cell_length_c 10.636166
_cell_angle_alpha 90.000000
_cell_angle_beta 90.000000
_cell_angle_gamma 90.000000
_cell_volume 1720.100820
_symmetry_space_group_name_H-M "P 41 2 2"
_symmetry_group_IT_number 91
_symmetry_cell_setting 'tetragonal'
loop_
_space_group_symop_operation_xyz
x,y,z
-y,x,1/4+z
-x,-y,1/2+z
y,-x,3/4+z
x,-y,1/2-z
-x,y,-z
y,x,3/4-z
-y,-x,1/4-z
loop_
_atom_site_type_symbol
_atom_site_label
_atom_site_fract_x
_atom_site_fract_y
_atom_site_fract_z
Si Si1 0.941315 0.384766 0.372591
Si Si2 0.434384 0.565617 0.625000
Si Si3 0.791347 0.543754 0.499109
Si Si4 0.091366 0.000000 0.750000
Si Si5 0.209261 0.782302 0.476198
Si Si6 0.500000 0.881317 0.000000
O O1 0.883082 0.494540 0.411972
O O2 0.851574 0.302941 0.331530
O O3 0.000000 0.348290 0.500000
O O4 0.032301 0.405633 0.269473
O O5 0.458974 0.500000 0.750000
O O6 0.457094 0.685305 0.668209
O O7 0.799136 0.660715 0.557144
O O8 0.806949 0.482016 0.629547
O O9 0.161057 0.098938 0.709744
O O10 0.027981 0.027981 0.875000
O O11 0.225040 0.774961 0.625000
#
# Coordination Sequence:
#
# PCOD9548453 Si02
#       6
#     8   4   8   4   8   4
#     4  10  23  43  68 102 139 184 237 295 357 419
#     4  12  28  48  74 100 144 184 232 296 370 450
#     4  11  24  44  71 104 137 184 237 299 355 435
#     4  10  26  42  64  96 138 182 232 284 352 424
#     4  11  23  40  68  97 133 179 230 286 359 422
#     4  10  24  40  72  98 142 176 246 292 350 428
#
# _framework density 20.929006999999999
#
# number of rings (size 3 to 8) (size 9 to 14) (size 15 to 20)
#    0.000    1.333    1.111    2.667   15.556    0.000 
#    0.000    3.333    0.000    0.000    0.000    0.000 
#    0.000    0.000    0.000    0.000    0.000    0.000 
#
# Total GULP energy -200529.520535 kJ/mol
# GULP energy per Si atom -5570.264459 kJ/mol
# Density = 2.088137 g / cm^3
# Si number density = 20.929007 Si / 1000 Ang^3
#
#
#
# Elastic Constant Matrix: (Units=GPa)
#
#
# Indices 1 2 3 4 5 6 
#
# 1 69.2982 59.9725 39.5222 0.0000 0.0000 0.0000
# 2 59.9725 69.2992 39.5199 0.0000 0.0000 0.0000
# 3 39.5222 39.5199 91.2610 0.0000 0.0000 0.0000
# 4 0.0000 0.0000 0.0000 28.6867 0.0000 0.0000
# 5 0.0000 0.0000 0.0000 0.0000 28.6870 0.0000
# 6 0.0000 0.0000 0.0000 0.0000 0.0000 40.0302
#
#
#
# Elastic Compliance Matrix: (Units=1/GPa)
#
#
# Indices 1 2 3 4 5 6 
#
# 1 0.058875 -0.048351 -0.004559 0.000000 0.000000 0.000000
# 2 -0.048351 0.058871 -0.004554 0.000000 0.000000 0.000000
# 3 -0.004559 -0.004554 0.014904 0.000000 0.000000 0.000000
# 4 0.000000 0.000000 0.000000 0.034859 0.000000 0.000000
# 5 0.000000 0.000000 0.000000 0.000000 0.034859 0.000000
# 6 0.000000 0.000000 0.000000 0.000000 0.000000 0.024981
#
#
# Mechanical properties :
#
#
# Convention : Reuss Voigt Hill
#
# Bulk Modulus (GPa) = 56.42864 56.43194 56.43029
# Shear Modulus (GPa) = 14.36018 25.53704 19.94861
#
# Velocity S-wave (km/s) = 2.62226 3.49689 3.09067
# Velocity P-wave (km/s) = 6.01571 6.58228 6.30536
#
# Compressibility (1/GPa) = 0.01772150
#
# Stress axis : x y z
#
# Youngs Moduli (GPa) = 16.98524 16.98619 67.09605
#
# Poissons Ratio (x) = 0.82130 0.30586
# Poissons Ratio (y) = 0.82126 0.30558
# Poissons Ratio (z) = 0.07743 0.07736
#
# Static dielectric constant tensor:
#      x y z
#    x 1.762450 0.000000 0.000000 
#    y 0.000000 1.762450 0.000000 
#    z 0.000000 0.000000 2.055740 
# 
# From -- ./inp_files/3579.got.cif
#   From: 2010.05.17/outbox.cif.g08.bks.cpg/sg91_2_cif.got.tgz:3579.got - 2010.06.03 19:20:03.
