data_PCOD9548764
_publ_section_title
;
Structure prediction by ZEFSAII (Michael W. Deem and Ramdas Pophale) SiO2 
 PCOD9548764
Probable space group: P 41 2 2
;
_chemical_formula_sum "Si O2"
_cell_formula_units_Z 24
_cell_length_a 7.678731
_cell_length_b 7.678731
_cell_length_c 16.593598
_cell_angle_alpha 90.000000
_cell_angle_beta 90.000000
_cell_angle_gamma 90.000000
_cell_volume 978.406822
_symmetry_space_group_name_H-M "P 41 2 2"
_symmetry_group_IT_number 91
_symmetry_cell_setting 'tetragonal'
loop_
_space_group_symop_operation_xyz
x,y,z
-y,x,1/4+z
-x,-y,1/2+z
y,-x,3/4+z
x,-y,1/2-z
-x,y,-z
y,x,3/4-z
-y,-x,1/4-z
loop_
_atom_site_type_symbol
_atom_site_label
_atom_site_fract_x
_atom_site_fract_y
_atom_site_fract_z
Si Si1 0.916056 0.849144 0.663201
Si Si2 0.743010 0.708243 0.245300
Si Si3 0.308357 0.657375 0.028763
O O1 0.811922 0.761218 0.589020
O O2 0.787530 0.823060 0.736921
O O3 0.103467 0.780316 0.697246
O O4 0.967081 0.032920 0.625000
O O5 0.769296 0.500000 0.250000
O O6 0.535061 0.728940 0.258679
O O7 0.324863 0.675138 0.125000
O O8 0.500000 0.710163 0.000000
#
# Coordination Sequence:
#
# PCOD9548764 Si02
#       3
#     8   8   8
#     4  12  28  52  76 130 168 220 285 357 432 513
#     4  11  28  52  87 122 172 227 288 353 437 517
#     4  11  24  52  90 122 169 230 288 356 434 525
#
# _framework density 24.529675000000001
#
# number of rings (size 3 to 8) (size 9 to 14) (size 15 to 20)
#    0.000    0.667    3.333    2.000    4.667    4.000 
#    0.000    0.000    0.000    0.000    0.000    0.000 
#    0.000    0.000    0.000    0.000    0.000    0.000 
#
# Total GULP energy -133933.964730 kJ/mol
# GULP energy per Si atom -5580.581864 kJ/mol
# Density = 2.447384 g / cm^3
# Si number density = 24.529675 Si / 1000 Ang^3
#
#
#
# Elastic Constant Matrix: (Units=GPa)
#
#
# Indices 1 2 3 4 5 6 
#
# 1 113.1119 113.5623 94.8873 0.0000 0.0000 0.0000
# 2 113.5623 113.1096 94.8869 0.0000 0.0000 0.0000
# 3 94.8873 94.8869 182.5138 0.0000 0.0000 0.0000
# 4 0.0000 0.0000 0.0000 51.3444 0.0000 0.0000
# 5 0.0000 0.0000 0.0000 0.0000 51.3432 0.0000
# 6 0.0000 0.0000 0.0000 0.0000 0.0000 32.5184
#
#
#
# Elastic Compliance Matrix: (Units=1/GPa)
#
#
# Indices 1 2 3 4 5 6 
#
# 1 -1.103552 1.111380 -0.004067 0.000000 0.000000 0.000000
# 2 1.111380 -1.103584 -0.004056 0.000000 0.000000 0.000000
# 3 -0.004067 -0.004056 0.009702 0.000000 0.000000 0.000000
# 4 0.000000 0.000000 0.000000 0.019476 0.000000 0.000000
# 5 0.000000 0.000000 0.000000 0.000000 0.019477 0.000000
# 6 0.000000 0.000000 0.000000 0.000000 0.000000 0.030752
#
#
# Mechanical properties :
#
#
# Convention : Reuss Voigt Hill
#
# Bulk Modulus (GPa) = 110.12768 112.82314 111.47541
# Shear Modulus (GPa) = -1.15441 34.06780 16.45669
#
# Velocity S-wave (km/s) = -0.68676 3.73076 2.59296
# Velocity P-wave (km/s) = 6.66065 8.04068 7.38298
#
# Compressibility (1/GPa) = 0.00908037
#
# Stress axis : x y z
#
# Youngs Moduli (GPa) = -0.90616 -0.90614 103.07283
#
# Poissons Ratio (x) = 1.00706 0.41919
# Poissons Ratio (y) = 1.00709 0.41803
# Poissons Ratio (z) = -0.00369 -0.00367
#
# Static dielectric constant tensor:
#      x y z
#    x 1.593720 0.000000 0.000000 
#    y 0.000000 1.593670 0.000000 
#    z 0.000000 0.000000 1.984060 
# 
# From -- ./inp_files/5172.got.cif
#   From: 2010.05.17/outbox.cif.g08.bks.cpg/sg91_3_cif.got.tgz:5172.got - 2010.06.03 19:20:03.
