data_PCOD9548561
_publ_section_title
;
Structure prediction by ZEFSAII (Michael W. Deem and Ramdas Pophale) SiO2 
 PCOD9548561
Probable space group: P 41 2 2
;
_chemical_formula_sum "Si O2"
_cell_formula_units_Z 48
_cell_length_a 9.161831
_cell_length_b 9.161831
_cell_length_c 24.414497
_cell_angle_alpha 90.000000
_cell_angle_beta 90.000000
_cell_angle_gamma 90.000000
_cell_volume 2049.332059
_symmetry_space_group_name_H-M "P 41 2 2"
_symmetry_group_IT_number 91
_symmetry_cell_setting 'tetragonal'
loop_
_space_group_symop_operation_xyz
x,y,z
-y,x,1/4+z
-x,-y,1/2+z
y,-x,3/4+z
x,-y,1/2-z
-x,y,-z
y,x,3/4-z
-y,-x,1/4-z
loop_
_atom_site_type_symbol
_atom_site_label
_atom_site_fract_x
_atom_site_fract_y
_atom_site_fract_z
Si Si1 0.710090 0.899775 0.202400
Si Si2 0.496086 0.666941 0.738443
Si Si3 0.299688 0.174089 0.524620
Si Si4 0.601677 0.172227 0.135822
Si Si5 0.178231 0.059497 0.136706
Si Si6 0.566922 0.030535 0.575215
O O1 0.606085 0.779656 0.229436
O O2 0.820480 0.824297 0.161233
O O3 0.782151 0.000000 0.250000
O O4 0.621247 0.021353 0.168291
O O5 0.457065 0.500000 0.750000
O O6 0.666292 0.689127 0.751585
O O7 0.479839 0.712519 0.674434
O O8 0.148824 0.164366 0.557191
O O9 0.436799 0.147289 0.565876
O O10 0.329830 0.056136 0.477314
O O11 0.759181 0.240820 0.125000
O O12 0.516820 0.124067 0.081471
O O13 0.326259 0.967875 0.127551
O O14 0.043773 0.956228 0.125000
#
# Coordination Sequence:
#
# PCOD9548561 Si02
#       6
#     8   8   8   8   8   8
#     4  10  25  44  71 105 150 198 255 312 393 477
#     4  11  24  46  73 110 151 201 259 331 394 470
#     4  11  25  48  73 108 150 197 264 318 392 471
#     4  11  24  46  74 111 152 199 255 324 396 482
#     4  12  27  47  73 110 149 201 252 314 397 463
#     4  11  25  45  73 108 146 202 254 324 383 479
#
# _framework density 23.422267999999999
#
# number of rings (size 3 to 8) (size 9 to 14) (size 15 to 20)
#    0.000    1.000    5.000    0.500    4.667    5.333 
#    3.000    0.000    0.000    0.000    0.000    0.000 
#    0.000    0.000    0.000    0.000    0.000    0.000 
#
# Total GULP energy -268297.481249 kJ/mol
# GULP energy per Si atom -5589.530859 kJ/mol
# Density = 2.336896 g / cm^3
# Si number density = 23.422268 Si / 1000 Ang^3
#
#
#
# Elastic Constant Matrix: (Units=GPa)
#
#
# Indices 1 2 3 4 5 6 
#
# 1 117.4299 41.5272 34.1154 0.0000 0.0000 0.0000
# 2 41.5272 117.4289 34.1159 0.0000 0.0000 0.0000
# 3 34.1154 34.1159 60.2479 0.0000 0.0000 0.0000
# 4 0.0000 0.0000 0.0000 38.9563 0.0000 0.0000
# 5 0.0000 0.0000 0.0000 0.0000 38.9561 0.0000
# 6 0.0000 0.0000 0.0000 0.0000 0.0000 38.2100
#
#
#
# Elastic Compliance Matrix: (Units=1/GPa)
#
#
# Indices 1 2 3 4 5 6 
#
# 1 0.010743 -0.002432 -0.004706 0.000000 0.000000 0.000000
# 2 -0.002432 0.010743 -0.004706 0.000000 0.000000 0.000000
# 3 -0.004706 -0.004706 0.021928 0.000000 0.000000 0.000000
# 4 0.000000 0.000000 0.000000 0.025670 0.000000 0.000000
# 5 0.000000 0.000000 0.000000 0.000000 0.025670 0.000000
# 6 0.000000 0.000000 0.000000 0.000000 0.000000 0.026171
#
#
# Mechanical properties :
#
#
# Convention : Reuss Voigt Hill
#
# Bulk Modulus (GPa) = 50.69627 57.18043 53.93835
# Shear Modulus (GPa) = 33.07130 35.58102 34.32616
#
# Velocity S-wave (km/s) = 3.76168 3.90181 3.83238
# Velocity P-wave (km/s) = 6.36855 6.69064 6.53158
#
# Compressibility (1/GPa) = 0.01972532
#
# Stress axis : x y z
#
# Youngs Moduli (GPa) = 93.08458 93.08317 45.60397
#
# Poissons Ratio (x) = 0.22636 0.21462
# Poissons Ratio (y) = 0.22637 0.21463
# Poissons Ratio (z) = 0.43807 0.43808
#
# Static dielectric constant tensor:
#      x y z
#    x 1.901050 0.000000 0.000000 
#    y 0.000000 1.901050 0.000000 
#    z 0.000000 0.000000 1.977800 
# 
# From -- ./inp_files/22263.got.cif
#   From: 2010.05.17/outbox.cif.g08.bks.cpg/sg91_12_cif.got.tgz:22263.got - 2010.06.03 19:20:03.
