data_PCOD9548785
_publ_section_title
;
Structure prediction by ZEFSAII (Michael W. Deem and Ramdas Pophale) SiO2 
 PCOD9548785
Probable space group: P 41 2 2
;
_chemical_formula_sum "Si O2"
_cell_formula_units_Z 40
_cell_length_a 10.400493
_cell_length_b 10.400493
_cell_length_c 18.936585
_cell_angle_alpha 90.000000
_cell_angle_beta 90.000000
_cell_angle_gamma 90.000000
_cell_volume 2048.375222
_symmetry_space_group_name_H-M "P 41 2 2"
_symmetry_group_IT_number 91
_symmetry_cell_setting 'tetragonal'
loop_
_space_group_symop_operation_xyz
x,y,z
-y,x,1/4+z
-x,-y,1/2+z
y,-x,3/4+z
x,-y,1/2-z
-x,y,-z
y,x,3/4-z
-y,-x,1/4-z
loop_
_atom_site_type_symbol
_atom_site_label
_atom_site_fract_x
_atom_site_fract_y
_atom_site_fract_z
Si Si1 0.426473 0.754149 0.283867
Si Si2 0.685611 0.500000 0.750000
Si Si3 0.056540 0.783886 0.922205
Si Si4 0.076612 0.076612 0.875000
Si Si5 0.574763 0.128106 0.624517
Si Si6 0.633218 0.937597 0.326346
O O1 0.404182 0.604784 0.285461
O O2 0.304293 0.817212 0.324007
O O3 0.426890 0.801809 0.201458
O O4 0.554422 0.805418 0.321326
O O5 0.774957 0.564765 0.809710
O O6 0.956342 0.706258 0.872440
O O7 0.077423 0.933958 0.909157
O O8 0.000000 0.771808 0.000000
O O9 0.215308 0.076847 0.837053
O O10 0.450378 0.032419 0.623391
O O11 0.615174 0.000000 0.250000
#
# Coordination Sequence:
#
# PCOD9548785 Si02
#       6
#     8   4   8   4   8   8
#     4   9  20  39  57  80 121 161 186 239 309 346
#     4  12  20  32  66  94 108 152 218 244 274 374
#     4   9  20  35  57  88 120 147 187 252 302 346
#     4  12  20  32  64  92 110 152 214 240 286 368
#     4   9  20  38  58  85 122 148 190 245 310 342
#     4   9  20  41  56  77 122 163 180 240 312 356
#
# _framework density 19.527671000000002
#
# number of rings (size 3 to 8) (size 9 to 14) (size 15 to 20)
#    0.000    2.400    0.000    4.800    5.600    0.000 
#    7.200    0.000    0.000    1.200    0.000    0.000 
#    0.000    0.000    0.000    0.000    0.000    0.000 
#
# Total GULP energy -222784.176787 kJ/mol
# GULP energy per Si atom -5569.604420 kJ/mol
# Density = 1.948323 g / cm^3
# Si number density = 19.527671 Si / 1000 Ang^3
#
#
#
# Elastic Constant Matrix: (Units=GPa)
#
#
# Indices 1 2 3 4 5 6 
#
# 1 113.4362 38.9892 1.7780 0.0000 0.0000 0.0000
# 2 38.9892 113.4362 1.7780 0.0000 0.0000 0.0000
# 3 1.7780 1.7780 16.1214 0.0000 0.0000 0.0000
# 4 0.0000 0.0000 0.0000 16.4542 0.0000 0.0000
# 5 0.0000 0.0000 0.0000 0.0000 16.4542 0.0000
# 6 0.0000 0.0000 0.0000 0.0000 0.0000 -148.1726
#
#
#
# Elastic Compliance Matrix: (Units=1/GPa)
#
#
# Indices 1 2 3 4 5 6 
#
# 1 0.010005 -0.003427 -0.000725 0.000000 0.000000 0.000000
# 2 -0.003427 0.010005 -0.000725 0.000000 0.000000 0.000000
# 3 -0.000725 -0.000725 0.062189 0.000000 0.000000 0.000000
# 4 0.000000 0.000000 0.000000 0.060775 0.000000 0.000000
# 5 0.000000 0.000000 0.000000 0.000000 0.060775 0.000000
# 6 0.000000 0.000000 0.000000 0.000000 0.000000 -0.006749
#
#
# Mechanical properties :
#
#
# Convention : Reuss Voigt Hill
#
# Bulk Modulus (GPa) = 13.80402 36.45379 25.12891
# Shear Modulus (GPa) = 21.65405 -9.68959 5.98223
#
# Velocity S-wave (km/s) = 3.33361 -2.22997 1.75217
# Velocity P-wave (km/s) = 4.67991 3.47533 4.12187
#
# Compressibility (1/GPa) = 0.07244266
#
# Stress axis : x y z
#
# Youngs Moduli (GPa) = 99.95061 99.95061 16.07994
#
# Poissons Ratio (x) = 0.34257 0.01166
# Poissons Ratio (y) = 0.34257 0.01166
# Poissons Ratio (z) = 0.07251 0.07251
#
# Static dielectric constant tensor:
#      x y z
#    x 1.754610 0.000000 0.000000 
#    y 0.000000 1.754610 0.000000 
#    z 0.000000 0.000000 1.600330 
# 
# From -- ./inp_files/12763.got.cif
#   From: 2010.05.17/outbox.cif.g08.bks.cpg/sg91_7_cif.got.tgz:12763.got - 2010.06.03 19:20:03.
