data_PCOD9548832
_publ_section_title
;
Structure prediction by ZEFSAII (Michael W. Deem and Ramdas Pophale) SiO2 
 PCOD9548832
Probable space group: P 41 2 2
;
_chemical_formula_sum "Si O2"
_cell_formula_units_Z 52
_cell_length_a 18.000000
_cell_length_b 18.000000
_cell_length_c 9.000000
_cell_angle_alpha 90.000000
_cell_angle_beta 90.000000
_cell_angle_gamma 90.000000
_cell_volume 2916.000000
_symmetry_space_group_name_H-M "P 41 2 2"
_symmetry_group_IT_number 91
_symmetry_cell_setting 'tetragonal'
loop_
_space_group_symop_operation_xyz
x,y,z
-y,x,1/4+z
-x,-y,1/2+z
y,-x,3/4+z
x,-y,1/2-z
-x,y,-z
y,x,3/4-z
-y,-x,1/4-z
loop_
_atom_site_type_symbol
_atom_site_label
_atom_site_fract_x
_atom_site_fract_y
_atom_site_fract_z
Si Si1 0.379687 0.839188 0.226061
Si Si2 0.247871 0.752130 0.125000
Si Si3 0.192750 0.116767 0.576581
Si Si4 0.656183 0.127115 0.047747
Si Si5 0.935802 0.064199 0.625000
Si Si6 0.336740 0.043928 0.493494
Si Si7 0.820191 0.179810 0.125000
Si Si8 0.466924 0.916233 0.789990
O O1 0.333990 0.772430 0.148997
O O2 0.371231 0.830460 0.401689
O O3 0.465443 0.858994 0.194874
O O4 0.335314 0.911137 0.160223
O O5 0.197387 0.784347 0.259515
O O6 0.141729 0.069240 0.466307
O O7 0.269893 0.073851 0.594516
O O8 0.153910 0.134666 0.730962
O O9 0.732351 0.163252 0.106235
O O10 0.590092 0.115383 0.166289
O O11 0.670959 0.043470 0.990523
O O12 0.000000 0.060422 0.500000
O O13 0.414247 0.067226 0.569886
O O14 0.496256 0.000000 0.750000
#
# Coordination Sequence:
#
# PCOD9548832 Si02
#       8
#     8   4   8   8   4   8   4   8
#     4  11  20  34  57  76 114 151 189 235 286 350
#     4   9  20  36  52  81 102 150 201 230 276 343
#     4  10  22  40  61  77 108 147 194 244 301 363
#     4  11  22  35  54  82 111 149 193 242 294 357
#     4  11  28  49  62  84 108 142 205 274 322 355
#     4  10  21  36  56  82 110 146 192 242 297 360
#     4  12  22  37  56  83 112 152 198 244 292 354
#     4  10  20  35  52  85 116 146 187 237 299 359
#
# _framework density 17.832647000000001
#
# number of rings (size 3 to 8) (size 9 to 14) (size 15 to 20)
#    0.000    1.538    3.077    2.308    2.154    3.077 
#    0.000    0.000    0.000    0.000    0.000    0.000 
#    0.000    0.000    0.000   48.462    0.000    2.462 
#
# Total GULP energy -290039.643291 kJ/mol
# GULP energy per Si atom -5577.685448 kJ/mol
# Density = 1.779206 g / cm^3
# Si number density = 17.832647 Si / 1000 Ang^3
#
#
#
# Elastic Constant Matrix: (Units=GPa)
#
#
# Indices 1 2 3 4 5 6 
#
# 1 78.2419 53.2961 20.6366 0.0000 0.0000 0.0000
# 2 53.2961 78.2422 20.6367 0.0000 0.0000 0.0000
# 3 20.6366 20.6367 88.6466 0.0000 0.0000 0.0000
# 4 0.0000 0.0000 0.0000 18.3425 0.0000 0.0000
# 5 0.0000 0.0000 0.0000 0.0000 18.3427 0.0000
# 6 0.0000 0.0000 0.0000 0.0000 0.0000 33.9437
#
#
#
# Elastic Compliance Matrix: (Units=1/GPa)
#
#
# Indices 1 2 3 4 5 6 
#
# 1 0.024144 -0.015943 -0.001909 0.000000 0.000000 0.000000
# 2 -0.015943 0.024144 -0.001909 0.000000 0.000000 0.000000
# 3 -0.001909 -0.001909 0.012170 0.000000 0.000000 0.000000
# 4 0.000000 0.000000 0.000000 0.054518 0.000000 0.000000
# 5 0.000000 0.000000 0.000000 0.000000 0.054518 0.000000
# 6 0.000000 0.000000 0.000000 0.000000 0.000000 0.029461
#
#
# Mechanical properties :
#
#
# Convention : Reuss Voigt Hill
#
# Bulk Modulus (GPa) = 47.76577 48.25216 48.00896
# Shear Modulus (GPa) = 20.37035 24.16321 22.26678
#
# Velocity S-wave (km/s) = 3.38347 3.68502 3.53746
# Velocity P-wave (km/s) = 6.48903 6.72480 6.60797
#
# Compressibility (1/GPa) = 0.02093550
#
# Stress axis : x y z
#
# Youngs Moduli (GPa) = 41.41811 41.41825 82.17133
#
# Poissons Ratio (x) = 0.66031 0.15689
# Poissons Ratio (y) = 0.66031 0.15689
# Poissons Ratio (z) = 0.07908 0.07908
#
# Static dielectric constant tensor:
#      x y z
#    x 1.607050 0.000000 0.000000 
#    y 0.000000 1.607050 0.000000 
#    z 0.000000 0.000000 1.714790 
# 
# From -- ./inp_files/19691.got.cif
#   From: 2010.05.17/outbox.ucp.g08.bks.cvg/sg91_10_cif.got.tgz:19691.got - 2010.06.11 10:36:11.
