data_PCOD9548615
_publ_section_title
;
Structure prediction by ZEFSAII (Michael W. Deem and Ramdas Pophale) SiO2 
 PCOD9548615
Probable space group: P 41 2 2
;
_chemical_formula_sum "Si O2"
_cell_formula_units_Z 40
_cell_length_a 8.134120
_cell_length_b 8.134120
_cell_length_c 27.279514
_cell_angle_alpha 90.000000
_cell_angle_beta 90.000000
_cell_angle_gamma 90.000000
_cell_volume 1804.919259
_symmetry_space_group_name_H-M "P 41 2 2"
_symmetry_group_IT_number 91
_symmetry_cell_setting 'tetragonal'
loop_
_space_group_symop_operation_xyz
x,y,z
-y,x,1/4+z
-x,-y,1/2+z
y,-x,3/4+z
x,-y,1/2-z
-x,y,-z
y,x,3/4-z
-y,-x,1/4-z
loop_
_atom_site_type_symbol
_atom_site_label
_atom_site_fract_x
_atom_site_fract_y
_atom_site_fract_z
Si Si1 0.040413 0.905439 0.702000
Si Si2 0.346853 0.731930 0.681819
Si Si3 0.037629 0.407888 0.445392
Si Si4 0.551822 0.379233 0.331207
Si Si5 0.193498 0.138728 0.124188
O O1 0.189575 0.783549 0.713208
O O2 0.905891 0.801295 0.672340
O O3 0.988819 0.000000 0.750000
O O4 0.099193 0.053677 0.665729
O O5 0.289103 0.710898 0.625000
O O6 0.420812 0.554792 0.695051
O O7 0.463512 0.889698 0.685799
O O8 0.219457 0.483830 0.446091
O O9 0.000000 0.345121 0.500000
O O10 0.015967 0.285964 0.399084
O O11 0.428027 0.428027 0.375000
O O12 0.725992 0.318159 0.353836
#
# Coordination Sequence:
#
# PCOD9548615 Si02
#       5
#     8   8   8   8   8
#     4  11  23  43  71 101 138 191 249 297 366 444
#     4  11  20  43  69  98 135 181 235 300 356 423
#     4  12  25  44  67 101 144 188 238 301 368 444
#     4  11  24  43  72 101 138 188 239 295 367 425
#     4  11  23  43  68  97 144 189 232 305 369 425
#
# _framework density 22.161653999999999
#
# number of rings (size 3 to 8) (size 9 to 14) (size 15 to 20)
#    0.000    0.800    8.000    1.200    2.800    0.800 
#    0.000    0.000    0.000    0.000    0.000    0.000 
#    0.000    0.000    0.000    0.000    0.000    0.000 
#
# Total GULP energy -223156.656997 kJ/mol
# GULP energy per Si atom -5578.916425 kJ/mol
# Density = 2.211121 g / cm^3
# Si number density = 22.161654 Si / 1000 Ang^3
#
#
#
# Elastic Constant Matrix: (Units=GPa)
#
#
# Indices 1 2 3 4 5 6 
#
# 1 131.3183 53.0361 21.5777 0.0000 0.0000 0.0000
# 2 53.0361 131.3183 21.5778 0.0000 0.0000 0.0000
# 3 21.5777 21.5778 92.0215 0.0000 0.0000 0.0000
# 4 0.0000 0.0000 0.0000 6.4089 0.0000 0.0000
# 5 0.0000 0.0000 0.0000 0.0000 6.4088 0.0000
# 6 0.0000 0.0000 0.0000 0.0000 0.0000 18.5769
#
#
#
# Elastic Compliance Matrix: (Units=1/GPa)
#
#
# Indices 1 2 3 4 5 6 
#
# 1 0.009257 -0.003517 -0.001346 0.000000 0.000000 0.000000
# 2 -0.003517 0.009257 -0.001346 0.000000 0.000000 0.000000
# 3 -0.001346 -0.001346 0.011498 0.000000 0.000000 0.000000
# 4 0.000000 0.000000 0.000000 0.156032 0.000000 0.000000
# 5 0.000000 0.000000 0.000000 0.000000 0.156036 0.000000
# 6 0.000000 0.000000 0.000000 0.000000 0.000000 0.053830
#
#
# Mechanical properties :
#
#
# Convention : Reuss Voigt Hill
#
# Bulk Modulus (GPa) = 56.83850 60.78237 58.81043
# Shear Modulus (GPa) = 12.07168 23.51003 17.79086
#
# Velocity S-wave (km/s) = 2.33643 3.26059 2.83640
# Velocity P-wave (km/s) = 5.74295 6.45458 6.10914
#
# Compressibility (1/GPa) = 0.01759371
#
# Stress axis : x y z
#
# Youngs Moduli (GPa) = 108.02832 108.02833 86.97038
#
# Poissons Ratio (x) = 0.37999 0.11704
# Poissons Ratio (y) = 0.37999 0.11705
# Poissons Ratio (z) = 0.14538 0.14539
#
# Static dielectric constant tensor:
#      x y z
#    x 1.883800 0.000000 0.000000 
#    y 0.000000 1.883800 0.000000 
#    z 0.000000 0.000000 1.827480 
# 
# From -- ./inp_files/22150.got.cif
#   From: 2010.05.17/outbox.cif.g08.bks.cpg/sg91_12_cif.got.tgz:22150.got - 2010.06.03 19:20:03.
