data_PCOD9548797
_publ_section_title
;
Structure prediction by ZEFSAII (Michael W. Deem and Ramdas Pophale) SiO2 
 PCOD9548797
Probable space group: P 41 2 2
;
_chemical_formula_sum "Si O2"
_cell_formula_units_Z 36
_cell_length_a 11.746865
_cell_length_b 11.746865
_cell_length_c 11.933593
_cell_angle_alpha 90.000000
_cell_angle_beta 90.000000
_cell_angle_gamma 90.000000
_cell_volume 1646.702623
_symmetry_space_group_name_H-M "P 41 2 2"
_symmetry_group_IT_number 91
_symmetry_cell_setting 'tetragonal'
loop_
_space_group_symop_operation_xyz
x,y,z
-y,x,1/4+z
-x,-y,1/2+z
y,-x,3/4+z
x,-y,1/2-z
-x,y,-z
y,x,3/4-z
-y,-x,1/4-z
loop_
_atom_site_type_symbol
_atom_site_label
_atom_site_fract_x
_atom_site_fract_y
_atom_site_fract_z
Si Si1 0.355032 0.625733 0.254725
Si Si2 0.076506 0.000000 0.250000
Si Si3 0.796769 0.816307 0.631390
Si Si4 0.618844 0.860048 0.454394
Si Si5 0.701366 0.000000 0.250000
Si Si6 0.604200 0.395801 0.125000
O O1 0.304005 0.500000 0.250000
O O2 0.283836 0.714472 0.326770
O O3 0.486033 0.612663 0.303151
O O4 0.344700 0.655300 0.125000
O O5 0.158766 0.107264 0.232098
O O6 0.015073 0.015073 0.375000
O O7 0.722730 0.883764 0.538500
O O8 0.909740 0.771925 0.571292
O O9 0.500000 0.902784 0.500000
O O10 0.635229 0.919595 0.335827
O O11 0.610451 0.722915 0.441975
#
# Coordination Sequence:
#
# PCOD9548797 Si02
#       6
#     8   4   8   8   4   4
#     4  12  25  41  74 110 147 186 236 297 367 454
#     4  12  27  51  82 108 148 201 261 326 382 456
#     4  12  26  48  73 107 145 192 253 309 377 446
#     4  12  25  46  76 104 147 196 246 309 377 456
#     4  12  27  45  70 106 144 195 247 310 380 452
#     4  12  22  50  74 110 144 198 248 292 378 464
#
# _framework density 21.861872999999999
#
# number of rings (size 3 to 8) (size 9 to 14) (size 15 to 20)
#    0.000    0.000    5.556    4.667    0.000    1.778 
#    0.000    0.000    0.000    0.000    0.000    0.000 
#    0.000    0.000    0.000    0.000    0.000    0.000 
#
# Total GULP energy -201016.324091 kJ/mol
# GULP energy per Si atom -5583.786780 kJ/mol
# Density = 2.181211 g / cm^3
# Si number density = 21.861873 Si / 1000 Ang^3
#
#
#
# Elastic Constant Matrix: (Units=GPa)
#
#
# Indices 1 2 3 4 5 6 
#
# 1 108.1697 51.0684 59.3269 0.0000 0.0000 0.0000
# 2 51.0684 108.1697 59.3268 0.0000 0.0000 0.0000
# 3 59.3269 59.3268 145.5602 0.0000 0.0000 0.0000
# 4 0.0000 0.0000 0.0000 82.0336 0.0000 0.0000
# 5 0.0000 0.0000 0.0000 0.0000 82.0313 0.0000
# 6 0.0000 0.0000 0.0000 0.0000 0.0000 1014.9797
#
#
#
# Elastic Compliance Matrix: (Units=1/GPa)
#
#
# Indices 1 2 3 4 5 6 
#
# 1 0.013266 -0.004247 -0.003676 0.000000 0.000000 0.000000
# 2 -0.004247 0.013266 -0.003676 0.000000 0.000000 0.000000
# 3 -0.003676 -0.003676 0.009866 0.000000 0.000000 0.000000
# 4 0.000000 0.000000 0.000000 0.012190 0.000000 0.000000
# 5 0.000000 0.000000 0.000000 0.000000 0.012190 0.000000
# 6 0.000000 0.000000 0.000000 0.000000 0.000000 0.000985
#
#
# Mechanical properties :
#
#
# Convention : Reuss Voigt Hill
#
# Bulk Modulus (GPa) = 75.75355 77.92708 76.84032
# Shear Modulus (GPa) = 55.95245 248.62076 152.28661
#
# Velocity S-wave (km/s) = 5.06450 10.67569 8.35522
# Velocity P-wave (km/s) = 8.30212 13.69975 11.32714
#
# Compressibility (1/GPa) = 0.01320070
#
# Stress axis : x y z
#
# Youngs Moduli (GPa) = 75.38153 75.38162 101.35380
#
# Poissons Ratio (x) = 0.32014 0.37257
# Poissons Ratio (y) = 0.32014 0.37257
# Poissons Ratio (z) = 0.27710 0.27710
#
# Static dielectric constant tensor:
#      x y z
#    x 1.827630 0.000000 0.000000 
#    y 0.000000 1.827630 0.000000 
#    z 0.000000 0.000000 1.717540 
# 
# From -- ./inp_files/3576.got.cif
#   From: 2010.05.17/outbox.cif.g08.bks.cpg/sg91_2_cif.got.tgz:3576.got - 2010.06.03 19:20:03.
