data_PCOD9548174
_publ_section_title
;
Structure prediction by ZEFSAII (Michael W. Deem and Ramdas Pophale) SiO2 
 PCOD9548174
Probable space group: P 41 2 2
;
_chemical_formula_sum "Si O2"
_cell_formula_units_Z 64
_cell_length_a 11.606121
_cell_length_b 11.606121
_cell_length_c 23.901109
_cell_angle_alpha 90.000000
_cell_angle_beta 90.000000
_cell_angle_gamma 90.000000
_cell_volume 3219.528252
_symmetry_space_group_name_H-M "P 41 2 2"
_symmetry_group_IT_number 91
_symmetry_cell_setting 'tetragonal'
loop_
_space_group_symop_operation_xyz
x,y,z
-y,x,1/4+z
-x,-y,1/2+z
y,-x,3/4+z
x,-y,1/2-z
-x,y,-z
y,x,3/4-z
-y,-x,1/4-z
loop_
_atom_site_type_symbol
_atom_site_label
_atom_site_fract_x
_atom_site_fract_y
_atom_site_fract_z
Si Si1 0.768114 0.353288 0.573331
Si Si2 0.863843 0.289413 0.160771
Si Si3 0.775450 0.516441 0.422683
Si Si4 0.836521 0.376556 0.278586
Si Si5 0.621654 0.673021 0.032095
Si Si6 0.988856 0.609152 0.115050
Si Si7 0.742066 0.381880 0.958437
Si Si8 0.108356 0.633323 0.362028
O O1 0.700296 0.299705 0.625000
O O2 0.717195 0.305901 0.515743
O O3 0.735395 0.489480 0.567540
O O4 0.904056 0.330245 0.584237
O O5 0.812994 0.187007 0.125000
O O6 0.801977 0.403188 0.131346
O O7 0.840665 0.290252 0.226477
O O8 0.000831 0.291714 0.155743
O O9 0.662210 0.437351 0.430967
O O10 0.884420 0.429723 0.425002
O O11 0.773202 0.596578 0.477214
O O12 0.863501 0.500000 0.250000
O O13 0.923290 0.346991 0.329087
O O14 0.703356 0.366180 0.298279
O O15 0.623216 0.784619 0.070779
O O16 0.500000 0.655375 0.000000
O O17 0.052259 0.492603 0.134164
O O18 0.844412 0.327633 0.922147
#
# Coordination Sequence:
#
# PCOD9548174 Si02
#       8
#     8   8   8   8   8   8   8   8
#     4  10  23  40  60  94 133 167 215 262 323 392
#     4  11  23  41  59  94 123 161 212 264 316 375
#     4  10  21  41  60  89 130 162 208 262 315 388
#     4  12  22  37  64  92 127 160 212 263 318 387
#     4  11  23  38  63  95 129 169 210 258 327 390
#     4  10  22  39  63  90 121 178 219 259 309 384
#     4  10  22  38  59  92 122 167 202 256 328 379
#     4  10  22  37  63  88 123 164 216 255 303 385
#
# _framework density 19.878686999999999
#
# number of rings (size 3 to 8) (size 9 to 14) (size 15 to 20)
#    0.000    1.500    3.750    2.250    3.500   10.000 
#    0.000    0.000    0.000    3.000    6.500    0.000 
#    0.000    0.000    0.000    0.000    0.000    0.000 
#
# Total GULP energy -356610.990905 kJ/mol
# GULP energy per Si atom -5572.046733 kJ/mol
# Density = 1.983344 g / cm^3
# Si number density = 19.878687 Si / 1000 Ang^3
#
#
#
# Elastic Constant Matrix: (Units=GPa)
#
#
# Indices 1 2 3 4 5 6 
#
# 1 57.8800 35.6002 30.3523 0.0000 0.0000 0.0000
# 2 35.6002 57.8767 30.3534 0.0000 0.0000 0.0000
# 3 30.3523 30.3534 88.1575 0.0000 0.0000 0.0000
# 4 0.0000 0.0000 0.0000 25.2609 0.0000 0.0000
# 5 0.0000 0.0000 0.0000 0.0000 25.2608 0.0000
# 6 0.0000 0.0000 0.0000 0.0000 0.0000 -5.4099
#
#
#
# Elastic Compliance Matrix: (Units=1/GPa)
#
#
# Indices 1 2 3 4 5 6 
#
# 1 0.029331 -0.015554 -0.004743 0.000000 0.000000 0.000000
# 2 -0.015554 0.029334 -0.004745 0.000000 0.000000 0.000000
# 3 -0.004743 -0.004745 0.014610 0.000000 0.000000 0.000000
# 4 0.000000 0.000000 0.000000 0.039587 0.000000 0.000000
# 5 0.000000 0.000000 0.000000 0.000000 0.039587 0.000000
# 6 0.000000 0.000000 0.000000 0.000000 0.000000 -0.184847
#
#
# Mechanical properties :
#
#
# Convention : Reuss Voigt Hill
#
# Bulk Modulus (GPa) = 43.12004 44.05845 43.58924
# Shear Modulus (GPa) = 196.72085 16.19626 106.45855
#
# Velocity S-wave (km/s) = 9.95869 2.85749 7.32601
# Velocity P-wave (km/s) = 12.40857 5.75315 9.67139
#
# Compressibility (1/GPa) = 0.02319107
#
# Stress axis : x y z
#
# Youngs Moduli (GPa) = 34.09309 34.09018 68.44615
#
# Poissons Ratio (x) = 0.53025 0.32465
# Poissons Ratio (y) = 0.53029 0.32475
# Poissons Ratio (z) = 0.16171 0.16175
#
# Static dielectric constant tensor:
#      x y z
#    x 1.745630 0.000000 0.000000 
#    y 0.000000 1.745630 0.000000 
#    z 0.000000 0.000000 1.767410 
# 
# From -- ./inp_files/7039.got.cif
#   From: 2010.05.17/outbox.cif.g08.bks.cpg/sg91_4_cif.got.tgz:7039.got - 2010.06.03 19:20:03.
