data_PCOD9548633
_publ_section_title
;
Structure prediction by ZEFSAII (Michael W. Deem and Ramdas Pophale) SiO2 
 PCOD9548633
Probable space group: P 41 2 2
;
_chemical_formula_sum "Si O2"
_cell_formula_units_Z 56
_cell_length_a 14.007465
_cell_length_b 14.007465
_cell_length_c 14.339768
_cell_angle_alpha 90.000000
_cell_angle_beta 90.000000
_cell_angle_gamma 90.000000
_cell_volume 2813.592625
_symmetry_space_group_name_H-M "P 41 2 2"
_symmetry_group_IT_number 91
_symmetry_cell_setting 'tetragonal'
loop_
_space_group_symop_operation_xyz
x,y,z
-y,x,1/4+z
-x,-y,1/2+z
y,-x,3/4+z
x,-y,1/2-z
-x,y,-z
y,x,3/4-z
-y,-x,1/4-z
loop_
_atom_site_type_symbol
_atom_site_label
_atom_site_fract_x
_atom_site_fract_y
_atom_site_fract_z
Si Si1 0.705818 0.989484 0.973445
Si Si2 0.147916 0.504815 0.459385
Si Si3 0.154010 0.068678 0.167877
Si Si4 0.811273 0.028975 0.144906
Si Si5 0.520669 0.948346 0.608502
Si Si6 0.394027 0.207079 0.544483
Si Si7 0.711933 0.215128 0.720681
O O1 0.803588 0.003477 0.915778
O O2 0.634062 0.037644 0.899918
O O3 0.723883 0.039995 0.072682
O O4 0.659260 0.888529 0.004765
O O5 0.130623 0.514125 0.569361
O O6 0.207577 0.584162 0.404864
O O7 0.182760 0.395517 0.448071
O O8 0.047650 0.512992 0.403676
O O9 0.065710 0.130947 0.134487
O O10 0.231404 0.141172 0.214004
O O11 0.121964 0.000000 0.250000
O O12 0.781383 0.000000 0.250000
O O13 0.881681 0.118320 0.125000
O O14 0.500000 0.935717 0.500000
O O15 0.500000 0.212336 0.500000
O O16 0.319811 0.288682 0.517120
O O17 0.770199 0.229802 0.625000
#
# Coordination Sequence:
#
# PCOD9548633 Si02
#       7
#     8   8   8   8   8   8   8
#     4  12  22  39  60  84 123 163 209 267 310 385
#     4  11  22  37  63  93 129 160 205 265 332 393
#     4  12  25  37  61  86 121 167 218 264 314 376
#     4  12  26  41  54  79 122 176 227 264 307 374
#     4  11  21  38  61  90 123 162 206 261 319 377
#     4  12  22  39  61  94 129 155 208 270 332 388
#     4  12  23  37  63  93 125 163 203 264 334 386
#
# _framework density 19.903378
#
# number of rings (size 3 to 8) (size 9 to 14) (size 15 to 20)
#    0.000    0.286    8.571    2.143    0.000    1.143 
#    0.000    0.000    0.000    0.000    0.000    3.000 
#    0.000    0.000    0.000    0.000    0.000    0.000 
#
# Total GULP energy -312365.362685 kJ/mol
# GULP energy per Si atom -5577.952905 kJ/mol
# Density = 1.985808 g / cm^3
# Si number density = 19.903378 Si / 1000 Ang^3
#
#
#
# Elastic Constant Matrix: (Units=GPa)
#
#
# Indices 1 2 3 4 5 6 
#
# 1 42.9511 18.6996 13.9120 0.0000 0.0000 0.0000
# 2 18.6996 42.9509 13.9121 0.0000 0.0000 0.0000
# 3 13.9120 13.9121 137.8746 0.0000 0.0000 0.0000
# 4 0.0000 0.0000 0.0000 35.4384 0.0000 0.0000
# 5 0.0000 0.0000 0.0000 0.0000 35.4385 0.0000
# 6 0.0000 0.0000 0.0000 0.0000 0.0000 13.4008
#
#
#
# Elastic Compliance Matrix: (Units=1/GPa)
#
#
# Indices 1 2 3 4 5 6 
#
# 1 0.029114 -0.012120 -0.001715 0.000000 0.000000 0.000000
# 2 -0.012120 0.029115 -0.001715 0.000000 0.000000 0.000000
# 3 -0.001715 -0.001715 0.007599 0.000000 0.000000 0.000000
# 4 0.000000 0.000000 0.000000 0.028218 0.000000 0.000000
# 5 0.000000 0.000000 0.000000 0.000000 0.028218 0.000000
# 6 0.000000 0.000000 0.000000 0.000000 0.000000 0.074623
#
#
# Mechanical properties :
#
#
# Convention : Reuss Voigt Hill
#
# Bulk Modulus (GPa) = 28.79472 35.20266 31.99869
# Shear Modulus (GPa) = 20.87141 28.67240 24.77191
#
# Velocity S-wave (km/s) = 3.24178 3.79961 3.53173
# Velocity P-wave (km/s) = 5.33955 6.08067 5.72213
#
# Compressibility (1/GPa) = 0.03472858
#
# Stress axis : x y z
#
# Youngs Moduli (GPa) = 34.34720 34.34707 131.59586
#
# Poissons Ratio (x) = 0.41629 0.22566
# Poissons Ratio (y) = 0.41629 0.22566
# Poissons Ratio (z) = 0.05890 0.05890
#
# Static dielectric constant tensor:
#      x y z
#    x 1.766340 0.000000 0.000000 
#    y 0.000000 1.766340 0.000000 
#    z 0.000000 0.000000 1.794040 
# 
# From -- ./inp_files/20824.got.cif
#   From: 2010.05.17/outbox.cif.g08.bks.cpg/sg91_11_cif.got.tgz:20824.got - 2010.06.03 19:20:03.
