data_PCOD9548747
_publ_section_title
;
Structure prediction by ZEFSAII (Michael W. Deem and Ramdas Pophale) SiO2 
 PCOD9548747
Probable space group: P 41 2 2
;
_chemical_formula_sum "Si O2"
_cell_formula_units_Z 28
_cell_length_a 7.449937
_cell_length_b 7.449937
_cell_length_c 21.302367
_cell_angle_alpha 90.000000
_cell_angle_beta 90.000000
_cell_angle_gamma 90.000000
_cell_volume 1182.314628
_symmetry_space_group_name_H-M "P 41 2 2"
_symmetry_group_IT_number 91
_symmetry_cell_setting 'tetragonal'
loop_
_space_group_symop_operation_xyz
x,y,z
-y,x,1/4+z
-x,-y,1/2+z
y,-x,3/4+z
x,-y,1/2-z
-x,y,-z
y,x,3/4-z
-y,-x,1/4-z
loop_
_atom_site_type_symbol
_atom_site_label
_atom_site_fract_x
_atom_site_fract_y
_atom_site_fract_z
Si Si1 0.862028 0.862028 0.875000
Si Si2 0.000000 0.211856 0.500000
Si Si3 0.099848 0.538380 0.326067
Si Si4 0.325937 0.549698 0.959283
Si Si5 0.773982 0.773982 0.375000
O O1 0.906088 0.967267 0.811545
O O2 0.910580 0.654039 0.860321
O O3 0.828542 0.341869 0.495499
O O4 0.085930 0.500000 0.250000
O O5 0.960342 0.689532 0.348227
O O6 0.299978 0.610830 0.340544
O O7 0.259539 0.367598 0.930640
O O8 0.500000 0.512548 0.000000
#
# Coordination Sequence:
#
# PCOD9548747 Si02
#       5
#     4   4   8   8   4
#     4  12  23  49  78 104 152 206 254 312 392 460
#     4  12  24  46  80 106 146 206 254 306 396 452
#     4  11  24  47  70 105 147 187 247 309 368 453
#     4  11  24  43  71 103 145 196 240 313 374 452
#     4  12  25  43  70 110 144 186 250 306 378 444
#
# _framework density 23.682361
#
# number of rings (size 3 to 8) (size 9 to 14) (size 15 to 20)
#    0.000    0.571    8.571    1.714    0.000    1.143 
#    0.000    1.429    0.000    0.000    0.000    0.000 
#    0.000    0.000    0.000    0.000    0.000    0.000 
#
# Total GULP energy -156391.665283 kJ/mol
# GULP energy per Si atom -5585.416617 kJ/mol
# Density = 2.362846 g / cm^3
# Si number density = 23.682361 Si / 1000 Ang^3
#
#
#
# Elastic Constant Matrix: (Units=GPa)
#
#
# Indices 1 2 3 4 5 6 
#
# 1 -173.4651 285.2808 13.6678 0.0000 0.0000 0.0000
# 2 285.2808 -173.4651 13.6678 0.0000 0.0000 0.0000
# 3 13.6678 13.6678 101.2751 0.0000 0.0000 0.0000
# 4 0.0000 0.0000 0.0000 5.4180 0.0000 0.0000
# 5 0.0000 0.0000 0.0000 0.0000 5.4180 0.0000
# 6 0.0000 0.0000 0.0000 0.0000 0.0000 29.8361
#
#
#
# Elastic Compliance Matrix: (Units=1/GPa)
#
#
# Indices 1 2 3 4 5 6 
#
# 1 0.003534 0.005714 -0.001248 0.000000 0.000000 0.000000
# 2 0.005714 0.003534 -0.001248 0.000000 0.000000 0.000000
# 3 -0.001248 -0.001248 0.010211 0.000000 0.000000 0.000000
# 4 0.000000 0.000000 0.000000 0.184569 0.000000 0.000000
# 5 0.000000 0.000000 0.000000 0.000000 0.184569 0.000000
# 6 0.000000 0.000000 0.000000 0.000000 0.000000 0.033516
#
#
# Mechanical properties :
#
#
# Convention : Reuss Voigt Hill
#
# Bulk Modulus (GPa) = 42.16693 42.17530 42.17112
# Shear Modulus (GPa) = 11.86509 -29.08368 -8.60930
#
# Velocity S-wave (km/s) = 2.24075 -3.50819 -1.90872
# Velocity P-wave (km/s) = 4.95363 1.19898 3.60389
#
# Compressibility (1/GPa) = 0.02371526
#
# Stress axis : x y z
#
# Youngs Moduli (GPa) = 282.94291 282.94291 97.93377
#
# Poissons Ratio (x) = -1.61677 0.12223
# Poissons Ratio (y) = -1.61677 0.12223
# Poissons Ratio (z) = 0.35315 0.35315
#
# Static dielectric constant tensor:
#      x y z
#    x 1.953790 0.000000 0.000000 
#    y 0.000000 1.953790 0.000000 
#    z 0.000000 0.000000 1.889180 
# 
# From -- ./inp_files/6588.got.cif
#   From: 2010.05.17/outbox.cif.g08.bks.cpg/sg91_4_cif.got.tgz:6588.got - 2010.06.03 19:20:03.
