data_PCOD9548622
_publ_section_title
;
Structure prediction by ZEFSAII (Michael W. Deem and Ramdas Pophale) SiO2 
 PCOD9548622
Probable space group: P 41 2 2
;
_chemical_formula_sum "Si O2"
_cell_formula_units_Z 56
_cell_length_a 15.366482
_cell_length_b 15.366482
_cell_length_c 11.502886
_cell_angle_alpha 90.000000
_cell_angle_beta 90.000000
_cell_angle_gamma 90.000000
_cell_volume 2716.162312
_symmetry_space_group_name_H-M "P 41 2 2"
_symmetry_group_IT_number 91
_symmetry_cell_setting 'tetragonal'
loop_
_space_group_symop_operation_xyz
x,y,z
-y,x,1/4+z
-x,-y,1/2+z
y,-x,3/4+z
x,-y,1/2-z
-x,y,-z
y,x,3/4-z
-y,-x,1/4-z
loop_
_atom_site_type_symbol
_atom_site_label
_atom_site_fract_x
_atom_site_fract_y
_atom_site_fract_z
Si Si1 0.817660 0.734695 0.570213
Si Si2 0.354749 0.054079 0.532842
Si Si3 0.084621 0.531213 0.072069
Si Si4 0.572633 0.299318 0.414945
Si Si5 0.385886 0.483752 0.558416
Si Si6 0.791574 0.480781 0.133648
Si Si7 0.143090 0.303415 0.812640
O O1 0.894910 0.727813 0.664371
O O2 0.759715 0.652288 0.619182
O O3 0.865895 0.734149 0.443663
O O4 0.751286 0.813137 0.541328
O O5 0.392223 0.095596 0.414804
O O6 0.437735 0.064529 0.619181
O O7 0.335168 0.951750 0.524471
O O8 0.161610 0.513120 0.981648
O O9 0.000000 0.555404 0.000000
O O10 0.500000 0.254922 0.500000
O O11 0.596037 0.386817 0.485152
O O12 0.537324 0.345922 0.298266
O O13 0.463043 0.536958 0.625000
O O14 0.301376 0.474678 0.639142
O O15 0.846238 0.500000 0.250000
O O16 0.787248 0.377685 0.148472
#
# Coordination Sequence:
#
# PCOD9548622 Si02
#       7
#     8   8   8   8   8   8   8
#     4  11  23  38  63  93 126 171 215 274 332 390
#     4  11  22  39  63  91 131 165 212 271 334 404
#     4  11  21  35  59  92 124 171 214 265 337 392
#     4  12  25  39  56  82 125 170 223 271 313 369
#     4  12  23  40  58  80 117 173 231 266 309 356
#     4  12  22  35  60  88 120 164 217 269 317 383
#     4  11  21  39  61  91 128 163 212 271 330 401
#
# _framework density 20.617324
#
# number of rings (size 3 to 8) (size 9 to 14) (size 15 to 20)
#    0.000    0.571    4.286    5.571    4.000    0.000 
#    0.000    0.000    0.000    0.000    0.000    0.000 
#    0.000   43.429    0.000    0.000    0.000    0.000 
#
# Total GULP energy -311901.561333 kJ/mol
# GULP energy per Si atom -5569.670738 kJ/mol
# Density = 2.057040 g / cm^3
# Si number density = 20.617324 Si / 1000 Ang^3
#
#
#
# Elastic Constant Matrix: (Units=GPa)
#
#
# Indices 1 2 3 4 5 6 
#
# 1 98.3205 39.3563 28.0290 0.0000 0.0000 0.0000
# 2 39.3563 98.3209 28.0293 0.0000 0.0000 0.0000
# 3 28.0290 28.0293 110.5791 0.0000 0.0000 0.0000
# 4 0.0000 0.0000 0.0000 24.6822 0.0000 0.0000
# 5 0.0000 0.0000 0.0000 0.0000 24.6820 0.0000
# 6 0.0000 0.0000 0.0000 0.0000 0.0000 18.7226
#
#
#
# Elastic Compliance Matrix: (Units=1/GPa)
#
#
# Indices 1 2 3 4 5 6 
#
# 1 0.012529 -0.004430 -0.002053 0.000000 0.000000 0.000000
# 2 -0.004430 0.012529 -0.002053 0.000000 0.000000 0.000000
# 3 -0.002053 -0.002053 0.010084 0.000000 0.000000 0.000000
# 4 0.000000 0.000000 0.000000 0.040515 0.000000 0.000000
# 5 0.000000 0.000000 0.000000 0.000000 0.040515 0.000000
# 6 0.000000 0.000000 0.000000 0.000000 0.000000 0.053411
#
#
# Mechanical properties :
#
#
# Convention : Reuss Voigt Hill
#
# Bulk Modulus (GPa) = 55.33808 55.33887 55.33847
# Shear Modulus (GPa) = 25.94974 27.73775 26.84375
#
# Velocity S-wave (km/s) = 3.55158 3.67190 3.61224
# Velocity P-wave (km/s) = 6.61189 6.69898 6.65558
#
# Compressibility (1/GPa) = 0.01807074
#
# Stress axis : x y z
#
# Youngs Moduli (GPa) = 79.81253 79.81271 99.16645
#
# Poissons Ratio (x) = 0.35357 0.20358
# Poissons Ratio (y) = 0.35357 0.20359
# Poissons Ratio (z) = 0.16385 0.16385
#
# Static dielectric constant tensor:
#      x y z
#    x 1.849530 0.000000 0.000000 
#    y 0.000000 1.849530 0.000000 
#    z 0.000000 0.000000 1.943680 
# 
# From -- ./inp_files/3934.got.cif
#   From: 2010.05.17/outbox.cif.g08.bks.cpg/sg91_2_cif.got.tgz:3934.got - 2010.06.03 19:20:03.
