data_PCOD9548427
_publ_section_title
;
Structure prediction by ZEFSAII (Michael W. Deem and Ramdas Pophale) SiO2 
 PCOD9548427
Probable space group: P 41 2 2
;
_chemical_formula_sum "Si O2"
_cell_formula_units_Z 48
_cell_length_a 11.568689
_cell_length_b 11.568689
_cell_length_c 13.863867
_cell_angle_alpha 90.000000
_cell_angle_beta 90.000000
_cell_angle_gamma 90.000000
_cell_volume 1855.464612
_symmetry_space_group_name_H-M "P 41 2 2"
_symmetry_group_IT_number 91
_symmetry_cell_setting 'tetragonal'
loop_
_space_group_symop_operation_xyz
x,y,z
-y,x,1/4+z
-x,-y,1/2+z
y,-x,3/4+z
x,-y,1/2-z
-x,y,-z
y,x,3/4-z
-y,-x,1/4-z
loop_
_atom_site_type_symbol
_atom_site_label
_atom_site_fract_x
_atom_site_fract_y
_atom_site_fract_z
Si Si1 0.868100 0.823792 0.527376
Si Si2 0.788780 0.687618 0.707302
Si Si3 0.388118 0.557466 0.854532
Si Si4 0.367308 0.879920 0.273643
Si Si5 0.823146 0.409750 0.073517
Si Si6 0.035915 0.658726 0.762765
O O1 0.854062 0.774412 0.634135
O O2 0.812226 0.718797 0.465997
O O3 0.795544 0.938456 0.510213
O O4 0.000000 0.835390 0.500000
O O5 0.689821 0.623716 0.641421
O O6 0.704866 0.773745 0.765796
O O7 0.898452 0.632035 0.762468
O O8 0.362262 0.500000 0.750000
O O9 0.518275 0.518275 0.875000
O O10 0.297666 0.477633 0.914483
O O11 0.502270 0.880168 0.245966
O O12 0.373164 0.889125 0.391373
O O13 0.308527 0.000000 0.250000
O O14 0.901711 0.394895 0.169220
#
# Coordination Sequence:
#
# PCOD9548427 Si02
#       6
#     8   8   8   8   8   8
#     4  11  21  36  64 103 135 167 218 276 340 399
#     4  10  23  39  61  99 134 170 225 270 343 408
#     4  11  22  42  70  94 130 176 225 286 340 402
#     4  10  23  40  59  88 129 185 228 264 334 410
#     4  11  20  38  67  99 124 168 225 282 339 390
#     4  11  22  38  62  97 136 168 220 286 333 407
#
# _framework density 25.869530999999998
#
# number of rings (size 3 to 8) (size 9 to 14) (size 15 to 20)
#    0.000    1.333    1.667    6.500    0.000    1.333 
#    0.000    5.000    0.000    0.000    0.000    0.000 
#    0.000    0.000    0.000    0.000    0.000    0.000 
#
# Total GULP energy -267652.402509 kJ/mol
# GULP energy per Si atom -5576.091719 kJ/mol
# Density = 2.581065 g / cm^3
# Si number density = 25.869531 Si / 1000 Ang^3
#
#
#
# Elastic Constant Matrix: (Units=GPa)
#
#
# Indices 1 2 3 4 5 6 
#
# 1 133.1036 39.1488 -2.9911 0.0000 0.0000 0.0000
# 2 39.1488 133.1036 -2.9911 0.0000 0.0000 0.0000
# 3 -2.9911 -2.9911 33.1858 0.0000 0.0000 0.0000
# 4 0.0000 0.0000 0.0000 13.5362 0.0000 0.0000
# 5 0.0000 0.0000 0.0000 0.0000 13.5362 0.0000
# 6 0.0000 0.0000 0.0000 0.0000 0.0000 13.3061
#
#
#
# Elastic Compliance Matrix: (Units=1/GPa)
#
#
# Indices 1 2 3 4 5 6 
#
# 1 0.008234 -0.002410 0.000525 0.000000 0.000000 0.000000
# 2 -0.002410 0.008234 0.000525 0.000000 0.000000 0.000000
# 3 0.000525 0.000525 0.030228 0.000000 0.000000 0.000000
# 4 0.000000 0.000000 0.000000 0.073876 0.000000 0.000000
# 5 0.000000 0.000000 0.000000 0.000000 0.073876 0.000000
# 6 0.000000 0.000000 0.000000 0.000000 0.000000 0.075154
#
#
# Mechanical properties :
#
#
# Convention : Reuss Voigt Hill
#
# Bulk Modulus (GPa) = 22.74024 40.63626 31.68825
# Shear Modulus (GPa) = 17.42289 25.82414 21.62352
#
# Velocity S-wave (km/s) = 2.59799 3.16293 2.89427
# Velocity P-wave (km/s) = 4.22005 5.39269 4.84200
#
# Compressibility (1/GPa) = 0.04397491
#
# Stress axis : x y z
#
# Youngs Moduli (GPa) = 121.45452 121.45452 33.08190
#
# Poissons Ratio (x) = 0.29269 -0.01736
# Poissons Ratio (y) = 0.29269 -0.01736
# Poissons Ratio (z) = -0.06375 -0.06375
#
# Static dielectric constant tensor:
#      x y z
#    x 2.090720 0.000000 0.000000 
#    y 0.000000 2.090720 0.000000 
#    z 0.000000 0.000000 2.166120 
# 
# From -- ./inp_files/21117.got.cif
#   From: 2010.05.17/outbox.cif.g08.bks.cpg/sg91_11_cif.got.tgz:21117.got - 2010.06.03 19:20:03.
