data_PCOD9548554
_publ_section_title
;
Structure prediction by ZEFSAII (Michael W. Deem and Ramdas Pophale) SiO2 
 PCOD9548554
Probable space group: P 41 2 2
;
_chemical_formula_sum "Si O2"
_cell_formula_units_Z 56
_cell_length_a 15.119629
_cell_length_b 15.119629
_cell_length_c 11.686888
_cell_angle_alpha 90.000000
_cell_angle_beta 90.000000
_cell_angle_gamma 90.000000
_cell_volume 2671.659774
_symmetry_space_group_name_H-M "P 41 2 2"
_symmetry_group_IT_number 91
_symmetry_cell_setting 'tetragonal'
loop_
_space_group_symop_operation_xyz
x,y,z
-y,x,1/4+z
-x,-y,1/2+z
y,-x,3/4+z
x,-y,1/2-z
-x,y,-z
y,x,3/4-z
-y,-x,1/4-z
loop_
_atom_site_type_symbol
_atom_site_label
_atom_site_fract_x
_atom_site_fract_y
_atom_site_fract_z
Si Si1 0.735789 0.132705 0.577487
Si Si2 0.515193 0.903259 0.692862
Si Si3 0.237144 0.556115 0.135803
Si Si4 0.194049 0.846900 0.835238
Si Si5 0.552424 0.447577 0.625000
Si Si6 0.699395 0.934790 0.587392
Si Si7 0.935756 0.000000 0.250000
Si Si8 0.912859 0.683789 0.418879
O O1 0.825607 0.174394 0.625000
O O2 0.656261 0.202494 0.594031
O O3 0.751554 0.118784 0.443397
O O4 0.712266 0.036064 0.626617
O O5 0.523846 0.825955 0.784970
O O6 0.599967 0.904995 0.611978
O O7 0.418000 0.893704 0.643095
O O8 0.516294 0.000000 0.750000
O O9 0.218405 0.500000 0.250000
O O10 0.341028 0.543193 0.108075
O O11 0.139076 0.764938 0.885144
O O12 0.125719 0.916402 0.780387
O O13 0.266797 0.834902 0.736417
O O14 0.531662 0.500000 0.750000
O O15 0.724972 0.930069 0.453789
O O16 0.983664 0.016337 0.125000
O O17 0.000000 0.688867 0.500000
#
# Coordination Sequence:
#
# PCOD9548554 Si02
#       8
#     8   8   8   8   4   8   4   8
#     4  12  24  40  63  98 139 183 231 301 358 427
#     4  11  24  40  66 101 140 172 227 291 363 429
#     4  11  23  42  71 105 140 187 239 293 366 442
#     4  12  24  42  66  92 133 183 241 285 362 432
#     4  10  24  50  84 114 150 200 252 318 386 462
#     4  12  25  40  64  96 135 178 234 297 347 428
#     4  12  26  46  64  94 132 184 248 302 358 438
#     4  11  22  43  65  91 127 184 227 283 362 428
#
# _framework density 20.960751999999999
#
# number of rings (size 3 to 8) (size 9 to 14) (size 15 to 20)
#    0.000    0.571    4.286    4.286    2.000    2.286 
#    0.000    1.429    0.000    0.000    0.000    0.000 
#    0.000    0.000    0.000    0.000    0.000    0.000 
#
# Total GULP energy -312382.538738 kJ/mol
# GULP energy per Si atom -5578.259620 kJ/mol
# Density = 2.091304 g / cm^3
# Si number density = 20.960752 Si / 1000 Ang^3
#
#
#
# Elastic Constant Matrix: (Units=GPa)
#
#
# Indices 1 2 3 4 5 6 
#
# 1 95.7828 33.2860 19.1975 0.0000 0.0000 0.0000
# 2 33.2860 95.7822 19.1958 0.0000 0.0000 0.0000
# 3 19.1975 19.1958 89.7026 0.0000 0.0000 0.0000
# 4 0.0000 0.0000 0.0000 30.5743 0.0000 0.0000
# 5 0.0000 0.0000 0.0000 0.0000 30.5749 0.0000
# 6 0.0000 0.0000 0.0000 0.0000 0.0000 23.7757
#
#
#
# Elastic Compliance Matrix: (Units=1/GPa)
#
#
# Indices 1 2 3 4 5 6 
#
# 1 0.012138 -0.003863 -0.001771 0.000000 0.000000 0.000000
# 2 -0.003863 0.012138 -0.001771 0.000000 0.000000 0.000000
# 3 -0.001771 -0.001771 0.011906 0.000000 0.000000 0.000000
# 4 0.000000 0.000000 0.000000 0.032707 0.000000 0.000000
# 5 0.000000 0.000000 0.000000 0.000000 0.032707 0.000000
# 6 0.000000 0.000000 0.000000 0.000000 0.000000 0.042060
#
#
# Mechanical properties :
#
#
# Convention : Reuss Voigt Hill
#
# Bulk Modulus (GPa) = 46.79050 47.18068 46.98559
# Shear Modulus (GPa) = 30.19539 30.95755 30.57647
#
# Velocity S-wave (km/s) = 3.79960 3.84725 3.82350
# Velocity P-wave (km/s) = 6.45141 6.50331 6.47741
#
# Compressibility (1/GPa) = 0.02137186
#
# Stress axis : x y z
#
# Youngs Moduli (GPa) = 82.38772 82.38784 83.99231
#
# Poissons Ratio (x) = 0.31828 0.14875
# Poissons Ratio (y) = 0.31828 0.14872
# Poissons Ratio (z) = 0.14590 0.14588
#
# Static dielectric constant tensor:
#      x y z
#    x 1.778010 0.000000 0.000000 
#    y 0.000000 1.778000 0.000000 
#    z 0.000000 0.000000 1.773640 
# 
# From -- ./inp_files/3948.got.cif
#   From: 2010.05.17/outbox.cif.g08.bks.cpg/sg91_2_cif.got.tgz:3948.got - 2010.06.03 19:20:03.
