data_PCOD9548241
_publ_section_title
;
Structure prediction by ZEFSAII (Michael W. Deem and Ramdas Pophale) SiO2 
 PCOD9548241
Probable space group: P 41 2 2
;
_chemical_formula_sum "Si O2"
_cell_formula_units_Z 40
_cell_length_a 10.758399
_cell_length_b 10.758399
_cell_length_c 17.618762
_cell_angle_alpha 90.000000
_cell_angle_beta 90.000000
_cell_angle_gamma 90.000000
_cell_volume 2039.250996
_symmetry_space_group_name_H-M "P 41 2 2"
_symmetry_group_IT_number 91
_symmetry_cell_setting 'tetragonal'
loop_
_space_group_symop_operation_xyz
x,y,z
-y,x,1/4+z
-x,-y,1/2+z
y,-x,3/4+z
x,-y,1/2-z
-x,y,-z
y,x,3/4-z
-y,-x,1/4-z
loop_
_atom_site_type_symbol
_atom_site_label
_atom_site_fract_x
_atom_site_fract_y
_atom_site_fract_z
Si Si1 0.816864 0.743173 0.584042
Si Si2 0.070456 0.000000 0.750000
Si Si3 0.039926 0.314506 0.587347
Si Si4 0.927502 0.072498 0.625000
Si Si5 0.432876 0.994894 0.577346
Si Si6 0.288097 0.370308 0.792763
O O1 0.727977 0.821416 0.639904
O O2 0.735849 0.677408 0.518416
O O3 0.897431 0.842301 0.535666
O O4 0.908260 0.659062 0.633427
O O5 0.969717 0.969408 0.686276
O O6 0.027443 0.454853 0.614395
O O7 0.000000 0.302634 0.500000
O O8 0.952212 0.218005 0.634786
O O9 0.500000 0.039109 0.500000
O O10 0.368824 0.862092 0.557584
O O11 0.314019 0.500000 0.750000
O O12 0.350595 0.350595 0.875000
#
# Coordination Sequence:
#
# PCOD9548241 Si02
#       6
#     8   4   8   4   8   8
#     4  11  24  40  67  98 133 178 221 277 342 409
#     4  10  22  34  60 100 130 164 214 260 348 422
#     4  11  24  39  65  94 134 168 216 268 342 406
#     4  10  22  38  58  98 136 168 198 268 338 414
#     4  11  25  45  67  97 132 176 224 278 338 410
#     4  11  24  44  69  97 133 174 230 286 334 403
#
# _framework density 19.615043
#
# number of rings (size 3 to 8) (size 9 to 14) (size 15 to 20)
#    0.000    1.200    5.000    1.200   14.000    0.000 
#    0.000    1.000    2.200    0.000    0.000    0.000 
#    0.000    0.000    0.000    0.000    0.000    0.000 
#
# Total GULP energy -222850.725502 kJ/mol
# GULP energy per Si atom -5571.268138 kJ/mol
# Density = 1.957040 g / cm^3
# Si number density = 19.615043 Si / 1000 Ang^3
#
#
#
# Elastic Constant Matrix: (Units=GPa)
#
#
# Indices 1 2 3 4 5 6 
#
# 1 59.8066 31.2320 29.7756 0.0000 0.0000 0.0000
# 2 31.2320 59.8069 29.7755 0.0000 0.0000 0.0000
# 3 29.7756 29.7755 134.0187 0.0000 0.0000 0.0000
# 4 0.0000 0.0000 0.0000 33.0056 0.0000 0.0000
# 5 0.0000 0.0000 0.0000 0.0000 33.0056 0.0000
# 6 0.0000 0.0000 0.0000 0.0000 0.0000 27.8578
#
#
#
# Elastic Compliance Matrix: (Units=1/GPa)
#
#
# Indices 1 2 3 4 5 6 
#
# 1 0.023924 -0.011072 -0.002855 0.000000 0.000000 0.000000
# 2 -0.011072 0.023924 -0.002855 0.000000 0.000000 0.000000
# 3 -0.002855 -0.002855 0.008730 0.000000 0.000000 0.000000
# 4 0.000000 0.000000 0.000000 0.030298 0.000000 0.000000
# 5 0.000000 0.000000 0.000000 0.000000 0.030298 0.000000
# 6 0.000000 0.000000 0.000000 0.000000 0.000000 0.035897
#
#
# Mechanical properties :
#
#
# Convention : Reuss Voigt Hill
#
# Bulk Modulus (GPa) = 43.45356 48.35536 45.90446
# Shear Modulus (GPa) = 25.73242 29.63040 27.68141
#
# Velocity S-wave (km/s) = 3.62591 3.89085 3.76071
# Velocity P-wave (km/s) = 6.30324 6.70005 6.50467
#
# Compressibility (1/GPa) = 0.02301308
#
# Stress axis : x y z
#
# Youngs Moduli (GPa) = 41.79881 41.79908 114.54156
#
# Poissons Ratio (x) = 0.46279 0.32707
# Poissons Ratio (y) = 0.46279 0.32706
# Poissons Ratio (z) = 0.11935 0.11935
#
# Static dielectric constant tensor:
#      x y z
#    x 1.698770 0.000000 0.000000 
#    y 0.000000 1.698770 0.000000 
#    z 0.000000 0.000000 1.943100 
# 
# From -- ./inp_files/16815.got.cif
#   From: 2010.05.17/outbox.cif.g08.bks.cpg/sg91_9_cif.got.tgz:16815.got - 2010.06.03 19:20:03.
