data_PCOD9548518
_publ_section_title
;
Structure prediction by ZEFSAII (Michael W. Deem and Ramdas Pophale) SiO2 
 PCOD9548518
Probable space group: P 41 2 2
;
_chemical_formula_sum "Si O2"
_cell_formula_units_Z 40
_cell_length_a 11.890208
_cell_length_b 11.890208
_cell_length_c 13.669244
_cell_angle_alpha 90.000000
_cell_angle_beta 90.000000
_cell_angle_gamma 90.000000
_cell_volume 1932.517342
_symmetry_space_group_name_H-M "P 41 2 2"
_symmetry_group_IT_number 91
_symmetry_cell_setting 'tetragonal'
loop_
_space_group_symop_operation_xyz
x,y,z
-y,x,1/4+z
-x,-y,1/2+z
y,-x,3/4+z
x,-y,1/2-z
-x,y,-z
y,x,3/4-z
-y,-x,1/4-z
loop_
_atom_site_type_symbol
_atom_site_label
_atom_site_fract_x
_atom_site_fract_y
_atom_site_fract_z
Si Si1 0.097713 0.734960 0.066047
Si Si2 0.540101 0.245895 0.782759
Si Si3 0.630638 0.062764 0.483808
Si Si4 0.342153 0.718891 0.866293
Si Si5 0.188673 0.343548 0.816339
O O1 0.183922 0.816079 0.125000
O O2 0.041248 0.675416 0.158104
O O3 0.156799 0.636201 0.001517
O O4 0.000000 0.790163 0.000000
O O5 0.454522 0.260735 0.694183
O O6 0.616503 0.352805 0.808434
O O7 0.456773 0.224524 0.875157
O O8 0.500000 0.089788 0.500000
O O9 0.684709 0.166534 0.424670
O O10 0.649519 0.945007 0.431012
O O11 0.245722 0.677030 0.789899
O O12 0.238320 0.238320 0.875000
#
# Coordination Sequence:
#
# PCOD9548518 Si02
#       5
#     8   8   8   8   8
#     4  12  25  43  70  97 137 181 229 291 349 421
#     4  11  23  44  67 100 140 178 231 283 350 420
#     4  12  23  41  70 100 132 181 238 292 339 424
#     4  11  23  42  68 102 137 188 233 284 363 413
#     4  10  24  44  69  97 137 184 231 297 354 420
#
# _framework density 20.698391000000001
#
# number of rings (size 3 to 8) (size 9 to 14) (size 15 to 20)
#    0.000    0.800    4.000    4.200    0.000    2.400 
#    0.000   18.000    0.000    0.000    0.000    0.000 
#    0.000    0.000    0.000    0.000    0.000    0.000 
#
# Total GULP energy -222961.012891 kJ/mol
# GULP energy per Si atom -5574.025322 kJ/mol
# Density = 2.065128 g / cm^3
# Si number density = 20.698391 Si / 1000 Ang^3
#
#
#
# Elastic Constant Matrix: (Units=GPa)
#
#
# Indices 1 2 3 4 5 6 
#
# 1 85.0678 56.0564 45.2567 0.0000 0.0000 0.0000
# 2 56.0564 85.0691 45.2577 0.0000 0.0000 0.0000
# 3 45.2567 45.2577 102.1731 0.0000 0.0000 0.0000
# 4 0.0000 0.0000 0.0000 28.3116 0.0000 0.0000
# 5 0.0000 0.0000 0.0000 0.0000 28.3115 0.0000
# 6 0.0000 0.0000 0.0000 0.0000 0.0000 6.2334
#
#
#
# Elastic Compliance Matrix: (Units=1/GPa)
#
#
# Indices 1 2 3 4 5 6 
#
# 1 0.022183 -0.012285 -0.004384 0.000000 0.000000 0.000000
# 2 -0.012285 0.022183 -0.004384 0.000000 0.000000 0.000000
# 3 -0.004384 -0.004384 0.013671 0.000000 0.000000 0.000000
# 4 0.000000 0.000000 0.000000 0.035321 0.000000 0.000000
# 5 0.000000 0.000000 0.000000 0.000000 0.035321 0.000000
# 6 0.000000 0.000000 0.000000 0.000000 0.000000 0.160427
#
#
# Mechanical properties :
#
#
# Convention : Reuss Voigt Hill
#
# Bulk Modulus (GPa) = 62.77421 62.82794 62.80107
# Shear Modulus (GPa) = 14.85775 20.95390 17.90583
#
# Velocity S-wave (km/s) = 2.68213 3.18519 2.94442
# Velocity P-wave (km/s) = 6.32342 6.62926 6.47815
#
# Compressibility (1/GPa) = 0.01593011
#
# Stress axis : x y z
#
# Youngs Moduli (GPa) = 45.07911 45.07945 73.14606
#
# Poissons Ratio (x) = 0.55381 0.32068
# Poissons Ratio (y) = 0.55381 0.32070
# Poissons Ratio (z) = 0.19763 0.19764
#
# Static dielectric constant tensor:
#      x y z
#    x 1.761140 0.000000 0.000000 
#    y 0.000000 1.761130 0.000000 
#    z 0.000000 0.000000 1.843010 
# 
# From -- ./inp_files/4756.got.cif
#   From: 2010.05.17/outbox.cif.g08.bks.cpg/sg91_3_cif.got.tgz:4756.got - 2010.06.03 19:20:03.
