data_PCOD9548675
_publ_section_title
;
Structure prediction by ZEFSAII (Michael W. Deem and Ramdas Pophale) SiO2 
 PCOD9548675
Probable space group: P 41 2 2
;
_chemical_formula_sum "Si O2"
_cell_formula_units_Z 36
_cell_length_a 11.795758
_cell_length_b 11.795758
_cell_length_c 12.420873
_cell_angle_alpha 90.000000
_cell_angle_beta 90.000000
_cell_angle_gamma 90.000000
_cell_volume 1728.239112
_symmetry_space_group_name_H-M "P 41 2 2"
_symmetry_group_IT_number 91
_symmetry_cell_setting 'tetragonal'
loop_
_space_group_symop_operation_xyz
x,y,z
-y,x,1/4+z
-x,-y,1/2+z
y,-x,3/4+z
x,-y,1/2-z
-x,y,-z
y,x,3/4-z
-y,-x,1/4-z
loop_
_atom_site_type_symbol
_atom_site_label
_atom_site_fract_x
_atom_site_fract_y
_atom_site_fract_z
Si Si1 0.492182 0.212881 0.833589
Si Si2 0.989154 0.619856 0.188783
Si Si3 0.739427 0.925067 0.358939
Si Si4 0.423667 0.767051 0.107164
Si Si5 0.469901 0.530100 0.625000
O O1 0.592485 0.126314 0.872137
O O2 0.372193 0.154456 0.856487
O O3 0.492269 0.235095 0.707034
O O4 0.498712 0.336755 0.883434
O O5 0.002616 0.500000 0.250000
O O6 0.988167 0.716990 0.278579
O O7 0.108699 0.632848 0.130210
O O8 0.849747 0.849747 0.375000
O O9 0.741156 0.000000 0.250000
O O10 0.330721 0.669280 0.125000
O O11 0.500000 0.757867 0.000000
O O12 0.512640 0.500000 0.750000
#
# Coordination Sequence:
#
# PCOD9548675 Si02
#       5
#     8   8   8   8   4
#     4  11  23  42  67  93 134 182 235 283 343 426
#     4   9  20  42  65  92 122 172 232 278 337 407
#     4  11  22  40  66  94 125 171 229 293 348 419
#     4  11  25  41  64  97 137 184 225 287 354 422
#     4  12  28  42  64 106 148 186 230 286 362 442
#
# _framework density 20.830452000000001
#
# number of rings (size 3 to 8) (size 9 to 14) (size 15 to 20)
#    0.000    1.333    1.111    6.667    4.667    1.778 
#    0.000    1.111    0.000    0.000    0.000    0.000 
#    0.000    0.000    0.000    0.000    0.000    0.000 
#
# Total GULP energy -200428.060454 kJ/mol
# GULP energy per Si atom -5567.446124 kJ/mol
# Density = 2.078304 g / cm^3
# Si number density = 20.830452 Si / 1000 Ang^3
#
#
#
# Elastic Constant Matrix: (Units=GPa)
#
#
# Indices 1 2 3 4 5 6 
#
# 1 82.7942 34.5460 32.0994 0.0000 0.0000 0.0000
# 2 34.5460 82.7949 32.0983 0.0000 0.0000 0.0000
# 3 32.0994 32.0983 148.5105 0.0000 0.0000 0.0000
# 4 0.0000 0.0000 0.0000 22.8504 0.0000 0.0000
# 5 0.0000 0.0000 0.0000 0.0000 22.8504 0.0000
# 6 0.0000 0.0000 0.0000 0.0000 0.0000 1.1453
#
#
#
# Elastic Compliance Matrix: (Units=1/GPa)
#
#
# Indices 1 2 3 4 5 6 
#
# 1 0.015196 -0.005530 -0.002089 0.000000 0.000000 0.000000
# 2 -0.005530 0.015195 -0.002089 0.000000 0.000000 0.000000
# 3 -0.002089 -0.002089 0.007637 0.000000 0.000000 0.000000
# 4 0.000000 0.000000 0.000000 0.043763 0.000000 0.000000
# 5 0.000000 0.000000 0.000000 0.000000 0.043763 0.000000
# 6 0.000000 0.000000 0.000000 0.000000 0.000000 0.873114
#
#
# Mechanical properties :
#
#
# Convention : Reuss Voigt Hill
#
# Bulk Modulus (GPa) = 53.73232 56.84298 55.28765
# Shear Modulus (GPa) = 4.88144 23.72629 14.30387
#
# Velocity S-wave (km/s) = 1.53248 3.37860 2.62330
# Velocity P-wave (km/s) = 5.38353 6.52438 5.98122
#
# Compressibility (1/GPa) = 0.01861077
#
# Stress axis : x y z
#
# Youngs Moduli (GPa) = 65.80818 65.80920 130.94899
#
# Poissons Ratio (x) = 0.36395 0.27357
# Poissons Ratio (y) = 0.36395 0.27354
# Poissons Ratio (z) = 0.13748 0.13747
#
# Static dielectric constant tensor:
#      x y z
#    x 1.841580 0.000000 0.000000 
#    y 0.000000 1.841570 0.000000 
#    z 0.000000 0.000000 1.897490 
# 
# From -- ./inp_files/3530.got.cif
#   From: 2010.05.17/outbox.cif.g08.bks.cpg/sg91_2_cif.got.tgz:3530.got - 2010.06.03 19:20:03.
