data_PCOD9548628
_publ_section_title
;
Structure prediction by ZEFSAII (Michael W. Deem and Ramdas Pophale) SiO2 
 PCOD9548628
Probable space group: P 41 2 2
;
_chemical_formula_sum "Si O2"
_cell_formula_units_Z 48
_cell_length_a 11.454729
_cell_length_b 11.454729
_cell_length_c 16.886126
_cell_angle_alpha 90.000000
_cell_angle_beta 90.000000
_cell_angle_gamma 90.000000
_cell_volume 2215.642379
_symmetry_space_group_name_H-M "P 41 2 2"
_symmetry_group_IT_number 91
_symmetry_cell_setting 'tetragonal'
loop_
_space_group_symop_operation_xyz
x,y,z
-y,x,1/4+z
-x,-y,1/2+z
y,-x,3/4+z
x,-y,1/2-z
-x,y,-z
y,x,3/4-z
-y,-x,1/4-z
loop_
_atom_site_type_symbol
_atom_site_label
_atom_site_fract_x
_atom_site_fract_y
_atom_site_fract_z
Si Si1 0.183161 0.007717 0.835044
Si Si2 0.726703 0.620010 0.259353
Si Si3 0.277684 0.533298 0.155301
Si Si4 0.593814 0.159812 0.169230
Si Si5 0.756651 0.738360 0.639119
Si Si6 0.871213 0.362650 0.520766
O O1 0.105077 0.105077 0.875000
O O2 0.309892 0.062064 0.822276
O O3 0.124581 0.000000 0.750000
O O4 0.206924 0.883358 0.874350
O O5 0.655244 0.500000 0.250000
O O6 0.820283 0.583036 0.325550
O O7 0.647892 0.721185 0.296021
O O8 0.784627 0.671456 0.180366
O O9 0.277763 0.500000 0.250000
O O10 0.394318 0.605683 0.125000
O O11 0.258804 0.400370 0.124622
O O12 0.172477 0.605654 0.109950
O O13 0.480651 0.131281 0.218855
O O14 0.716213 0.774404 0.726662
O O15 0.000000 0.312501 0.500000
#
# Coordination Sequence:
#
# PCOD9548628 Si02
#       6
#     8   8   8   8   8   8
#     4  12  23  45  73 101 141 193 253 318 382 448
#     4  11  21  37  65 109 136 168 232 310 376 457
#     4  12  26  50  77 109 159 213 254 320 412 489
#     4  11  21  41  70  99 140 182 234 308 390 455
#     4  12  25  44  71 107 148 193 261 314 387 480
#     4  12  26  48  71 102 150 198 257 324 393 478
#
# _framework density 21.664145000000001
#
# number of rings (size 3 to 8) (size 9 to 14) (size 15 to 20)
#    0.000    0.333    8.333    1.500    0.000    2.667 
#    9.000    0.833    0.000    0.000    0.000    0.000 
#    0.000    0.000    0.000    0.000    0.000    0.000 
#
# Total GULP energy -267405.925761 kJ/mol
# GULP energy per Si atom -5570.956787 kJ/mol
# Density = 2.161484 g / cm^3
# Si number density = 21.664145 Si / 1000 Ang^3
#
#
#
# Elastic Constant Matrix: (Units=GPa)
#
#
# Indices 1 2 3 4 5 6 
#
# 1 103.4926 6.1399 19.4000 0.0000 0.0000 0.0000
# 2 6.1399 103.4930 19.4002 0.0000 0.0000 0.0000
# 3 19.4000 19.4002 134.2438 0.0000 0.0000 0.0000
# 4 0.0000 0.0000 0.0000 44.9970 0.0000 0.0000
# 5 0.0000 0.0000 0.0000 0.0000 44.9983 0.0000
# 6 0.0000 0.0000 0.0000 0.0000 0.0000 74.8816
#
#
#
# Elastic Compliance Matrix: (Units=1/GPa)
#
#
# Indices 1 2 3 4 5 6 
#
# 1 0.009942 -0.000329 -0.001389 0.000000 0.000000 0.000000
# 2 -0.000329 0.009942 -0.001389 0.000000 0.000000 0.000000
# 3 -0.001389 -0.001389 0.007851 0.000000 0.000000 0.000000
# 4 0.000000 0.000000 0.000000 0.022224 0.000000 0.000000
# 5 0.000000 0.000000 0.000000 0.000000 0.022223 0.000000
# 6 0.000000 0.000000 0.000000 0.000000 0.000000 0.013354
#
#
# Mechanical properties :
#
#
# Convention : Reuss Voigt Hill
#
# Bulk Modulus (GPa) = 46.46877 47.90109 47.18493
# Shear Modulus (GPa) = 50.54292 52.72799 51.63545
#
# Velocity S-wave (km/s) = 4.83538 4.93879 4.88736
# Velocity P-wave (km/s) = 7.25746 7.39466 7.32638
#
# Compressibility (1/GPa) = 0.02151983
#
# Stress axis : x y z
#
# Youngs Moduli (GPa) = 100.57848 100.57889 127.37790
#
# Poissons Ratio (x) = 0.03314 0.17696
# Poissons Ratio (y) = 0.03314 0.17696
# Poissons Ratio (z) = 0.13973 0.13973
#
# Static dielectric constant tensor:
#      x y z
#    x 1.773130 0.000000 0.000000 
#    y 0.000000 1.773130 0.000000 
#    z 0.000000 0.000000 1.886540 
# 
# From -- ./inp_files/16924.got.cif
#   From: 2010.05.17/outbox.cif.g08.bks.cpg/sg91_9_cif.got.tgz:16924.got - 2010.06.03 19:20:03.
