data_PCOD9548016
_publ_section_title
;
Structure prediction by ZEFSAII (Michael W. Deem and Ramdas Pophale) SiO2 
 PCOD9548016
Probable space group: P 41 2 2
;
_chemical_formula_sum "Si O2"
_cell_formula_units_Z 48
_cell_length_a 8.466580
_cell_length_b 8.466580
_cell_length_c 31.120529
_cell_angle_alpha 90.000000
_cell_angle_beta 90.000000
_cell_angle_gamma 90.000000
_cell_volume 2230.812161
_symmetry_space_group_name_H-M "P 41 2 2"
_symmetry_group_IT_number 91
_symmetry_cell_setting 'tetragonal'
loop_
_space_group_symop_operation_xyz
x,y,z
-y,x,1/4+z
-x,-y,1/2+z
y,-x,3/4+z
x,-y,1/2-z
-x,y,-z
y,x,3/4-z
-y,-x,1/4-z
loop_
_atom_site_type_symbol
_atom_site_label
_atom_site_fract_x
_atom_site_fract_y
_atom_site_fract_z
Si Si1 0.846834 0.363172 0.414400
Si Si2 0.697374 0.709090 0.329167
Si Si3 0.564979 0.181296 0.631163
Si Si4 0.662179 0.722630 0.576702
Si Si5 0.176972 0.121211 0.995635
Si Si6 0.160295 0.612815 0.288089
O O1 0.728400 0.511596 0.414784
O O2 0.823604 0.283921 0.367943
O O3 0.772421 0.257303 0.451228
O O4 0.025784 0.419751 0.410740
O O5 0.764049 0.764049 0.375000
O O6 0.737577 0.526476 0.319719
O O7 0.752662 0.825112 0.292583
O O8 0.732044 0.267957 0.625000
O O9 0.454222 0.299309 0.658321
O O10 0.483604 0.147728 0.583859
O O11 0.759185 0.787392 0.536968
O O12 0.312468 0.999255 0.981035
O O13 0.000000 0.054471 0.000000
O O14 0.225787 0.500000 0.250000
#
# Coordination Sequence:
#
# PCOD9548016 Si02
#       6
#     8   8   8   8   8   8
#     4  10  22  39  63  93 126 165 214 272 330 393
#     4  10  20  40  65  90 122 167 214 259 315 390
#     4  11  23  43  69  99 134 177 230 286 348 421
#     4  10  21  41  65  91 127 176 222 262 329 413
#     4  12  25  40  63  95 128 165 216 276 334 398
#     4  11  24  43  65  94 134 178 219 273 346 417
#
# _framework density 21.516825999999998
#
# number of rings (size 3 to 8) (size 9 to 14) (size 15 to 20)
#    0.000    1.333    0.000    8.000    0.000    6.667 
#    0.000    2.500    0.000    0.000    0.000    0.000 
#    0.000    0.000    0.000    0.000    0.000    0.000 
#
# Total GULP energy -267711.349029 kJ/mol
# GULP energy per Si atom -5577.319771 kJ/mol
# Density = 2.146785 g / cm^3
# Si number density = 21.516826 Si / 1000 Ang^3
#
#
#
# Elastic Constant Matrix: (Units=GPa)
#
#
# Indices 1 2 3 4 5 6 
#
# 1 68.4031 23.5205 30.9937 0.0000 0.0000 0.0000
# 2 23.5205 68.4050 30.9940 0.0000 0.0000 0.0000
# 3 30.9937 30.9940 106.2319 0.0000 0.0000 0.0000
# 4 0.0000 0.0000 0.0000 -3.7033 0.0000 0.0000
# 5 0.0000 0.0000 0.0000 0.0000 -3.7047 0.0000
# 6 0.0000 0.0000 0.0000 0.0000 0.0000 31.0146
#
#
#
# Elastic Compliance Matrix: (Units=1/GPa)
#
#
# Indices 1 2 3 4 5 6 
#
# 1 0.017912 -0.004368 -0.003951 0.000000 0.000000 0.000000
# 2 -0.004368 0.017911 -0.003951 0.000000 0.000000 0.000000
# 3 -0.003951 -0.003951 0.011719 0.000000 0.000000 0.000000
# 4 0.000000 0.000000 0.000000 -0.270030 0.000000 0.000000
# 5 0.000000 0.000000 0.000000 0.000000 -0.269924 0.000000
# 6 0.000000 0.000000 0.000000 0.000000 0.000000 0.032243
#
#
# Mechanical properties :
#
#
# Convention : Reuss Voigt Hill
#
# Bulk Modulus (GPa) = 43.47850 46.00627 44.74238
# Shear Modulus (GPa) = -11.68330 15.22345 1.77007
#
# Velocity S-wave (km/s) = -2.33273 2.66280 0.90798
# Velocity P-wave (km/s) = 3.60487 5.55715 4.68386
#
# Compressibility (1/GPa) = 0.02299988
#
# Stress axis : x y z
#
# Youngs Moduli (GPa) = 55.82956 55.83119 85.33171
#
# Poissons Ratio (x) = 0.24390 0.33717
# Poissons Ratio (y) = 0.24389 0.33716
# Poissons Ratio (z) = 0.22060 0.22060
#
# Static dielectric constant tensor:
#      x y z
#    x 1.864760 0.000000 0.000000 
#    y 0.000000 1.864760 0.000000 
#    z 0.000000 0.000000 1.838560 
# 
# From -- ./inp_files/7958.got.cif
#   From: 2010.05.17/outbox.cif.g08.bks.cpg/sg91_4_cif.got.tgz:7958.got - 2010.06.03 19:20:03.
