data_PCOD9548716
_publ_section_title
;
Structure prediction by ZEFSAII (Michael W. Deem and Ramdas Pophale) SiO2 
 PCOD9548716
Probable space group: P 41 2 2
;
_chemical_formula_sum "Si O2"
_cell_formula_units_Z 36
_cell_length_a 9.218783
_cell_length_b 9.218783
_cell_length_c 18.936977
_cell_angle_alpha 90.000000
_cell_angle_beta 90.000000
_cell_angle_gamma 90.000000
_cell_volume 1609.377170
_symmetry_space_group_name_H-M "P 41 2 2"
_symmetry_group_IT_number 91
_symmetry_cell_setting 'tetragonal'
loop_
_space_group_symop_operation_xyz
x,y,z
-y,x,1/4+z
-x,-y,1/2+z
y,-x,3/4+z
x,-y,1/2-z
-x,y,-z
y,x,3/4-z
-y,-x,1/4-z
loop_
_atom_site_type_symbol
_atom_site_label
_atom_site_fract_x
_atom_site_fract_y
_atom_site_fract_z
Si Si1 0.698984 0.150782 0.884242
Si Si2 0.229707 0.143906 0.766807
Si Si3 0.750287 0.660647 0.736759
Si Si4 0.384729 0.951747 0.598080
Si Si5 0.841854 0.158147 0.625000
O O1 0.657292 0.237806 0.814106
O O2 0.549844 0.090802 0.915392
O O3 0.802845 0.012682 0.867390
O O4 0.776406 0.252684 0.942315
O O5 0.147368 0.265649 0.810469
O O6 0.350564 0.074166 0.818526
O O7 0.134142 0.000000 0.750000
O O8 0.689155 0.500000 0.750000
O O9 0.788265 0.748887 0.807381
O O10 0.893597 0.637535 0.688716
#
# Coordination Sequence:
#
# PCOD9548716 Si02
#       5
#     8   8   8   8   4
#     4  12  26  45  75 109 151 192 248 309 372 449
#     4  11  23  41  78 107 137 185 253 297 363 438
#     4  12  25  46  71 104 154 191 241 306 379 448
#     4  11  24  47  71 105 154 193 231 311 381 431
#     4  12  26  44  76 110 140 188 254 302 376 430
#
# _framework density 22.368904000000001
#
# number of rings (size 3 to 8) (size 9 to 14) (size 15 to 20)
#    0.000    0.444    6.667    1.333    3.111    3.556 
#    0.000    6.667    0.000    0.000    0.000    0.000 
#    0.000    0.000    0.000    0.000    0.000    0.000 
#
# Total GULP energy -200919.546232 kJ/mol
# GULP energy per Si atom -5581.098506 kJ/mol
# Density = 2.231799 g / cm^3
# Si number density = 22.368904 Si / 1000 Ang^3
#
#
#
# Elastic Constant Matrix: (Units=GPa)
#
#
# Indices 1 2 3 4 5 6 
#
# 1 14.8306 83.6534 31.3883 0.0000 0.0000 0.0000
# 2 83.6534 14.8310 31.3886 0.0000 0.0000 0.0000
# 3 31.3883 31.3886 164.5674 0.0000 0.0000 0.0000
# 4 0.0000 0.0000 0.0000 37.6775 0.0000 0.0000
# 5 0.0000 0.0000 0.0000 0.0000 37.6763 0.0000
# 6 0.0000 0.0000 0.0000 0.0000 0.0000 20.9149
#
#
#
# Elastic Compliance Matrix: (Units=1/GPa)
#
#
# Indices 1 2 3 4 5 6 
#
# 1 -0.001485 0.013045 -0.002205 0.000000 0.000000 0.000000
# 2 0.013045 -0.001485 -0.002205 0.000000 0.000000 0.000000
# 3 -0.002205 -0.002205 0.006918 0.000000 0.000000 0.000000
# 4 0.000000 0.000000 0.000000 0.026541 0.000000 0.000000
# 5 0.000000 0.000000 0.000000 0.000000 0.026542 0.000000
# 6 0.000000 0.000000 0.000000 0.000000 0.000000 0.047813
#
#
# Mechanical properties :
#
#
# Convention : Reuss Voigt Hill
#
# Bulk Modulus (GPa) = 47.13161 54.12107 50.62634
# Shear Modulus (GPa) = 52.82931 22.44033 37.63482
#
# Velocity S-wave (km/s) = 4.86504 3.17076 4.10623
# Velocity P-wave (km/s) = 7.25768 6.13614 6.72035
#
# Compressibility (1/GPa) = 0.02121718
#
# Stress axis : x y z
#
# Youngs Moduli (GPa) = -673.19896 -673.22060 144.55938
#
# Poissons Ratio (x) = 8.78196 0.31872
# Poissons Ratio (y) = 8.78168 0.31871
# Poissons Ratio (z) = -1.48423 -1.48427
#
# Static dielectric constant tensor:
#      x y z
#    x 1.800110 0.000000 0.000000 
#    y 0.000000 1.800120 0.000000 
#    z 0.000000 0.000000 1.921170 
# 
# From -- ./inp_files/12294.got.cif
#   From: 2010.05.17/outbox.cif.g08.bks.cpg/sg91_7_cif.got.tgz:12294.got - 2010.06.03 19:20:03.
