data_PCOD9548983
_publ_section_title
;
Structure prediction by ZEFSAII (Michael W. Deem and Ramdas Pophale) SiO2 
 PCOD9548983
Probable space group: P 41 21 2
;
_chemical_formula_sum "Si O2"
_cell_formula_units_Z 48
_cell_length_a 7.890397
_cell_length_b 7.890397
_cell_length_c 30.857865
_cell_angle_alpha 90.000000
_cell_angle_beta 90.000000
_cell_angle_gamma 90.000000
_cell_volume 1921.160217
_symmetry_space_group_name_H-M "P 41 21 2"
_symmetry_group_IT_number 92
_symmetry_cell_setting 'tetragonal'
loop_
_space_group_symop_operation_xyz
x,y,z
1/2-y,1/2+x,1/4+z
-x,-y,1/2+z
1/2+y,1/2-x,3/4+z
1/2+x,1/2-y,3/4-z
1/2-x,1/2+y,1/4-z
y,x,-z
-y,-x,1/2-z
loop_
_atom_site_type_symbol
_atom_site_label
_atom_site_fract_x
_atom_site_fract_y
_atom_site_fract_z
Si Si1 0.189067 0.919616 0.792556
Si Si2 0.044154 0.450680 0.928927
Si Si3 0.421722 0.422361 0.791291
Si Si4 0.860029 0.600659 0.596016
Si Si5 0.467256 0.501318 0.376471
Si Si6 0.706583 0.933419 0.737947
O O1 0.378610 0.943643 0.808332
O O2 0.070226 0.876051 0.833681
O O3 0.117900 0.102607 0.775465
O O4 0.191891 0.808110 0.750000
O O5 0.993963 0.258678 0.942275
O O6 0.043682 0.447462 0.876477
O O7 0.187114 0.515439 0.961969
O O8 0.525099 0.474902 0.750000
O O9 0.446776 0.550075 0.831607
O O10 0.231327 0.397948 0.775894
O O11 0.928888 0.779765 0.612854
O O12 0.660362 0.576695 0.606149
O O13 0.868505 0.575822 0.544566
#
# Coordination Sequence:
#
# PCOD9548983 Si02
#       6
#     8   8   8   8   8   8
#     4   9  19  33  51  76 103 132 168 208 251 305
#     4   9  19  34  51  74 104 133 165 209 255 302
#     4  10  20  34  52  76 104 134 172 215 257 305
#     4   9  17  31  51  76 104 134 169 212 257 304
#     4   9  17  31  51  76 105 134 170 213 257 305
#     4  10  20  33  52  78 103 133 175 213 254 309
#
# _framework density 24.9849
#
# number of rings (size 3 to 8) (size 9 to 14) (size 15 to 20)
#    0.000    2.667    0.000    4.000    0.000    8.000 
#    0.000    1.667    0.000    0.000    0.000    0.000 
#    0.000    0.000    0.000    0.000    0.000    0.000 
#
# Total GULP energy -268137.001052 kJ/mol
# GULP energy per Si atom -5586.187522 kJ/mol
# Density = 2.492803 g / cm^3
# Si number density = 24.984900 Si / 1000 Ang^3
#
#
#
# Elastic Constant Matrix: (Units=GPa)
#
#
# Indices 1 2 3 4 5 6 
#
# 1 55.0656 6.8853 13.1579 0.0000 0.0000 0.0000
# 2 6.8853 55.0668 13.1579 0.0000 0.0000 0.0000
# 3 13.1579 13.1579 95.8109 0.0000 0.0000 0.0000
# 4 0.0000 0.0000 0.0000 24.8511 0.0000 0.0000
# 5 0.0000 0.0000 0.0000 0.0000 24.8512 0.0000
# 6 0.0000 0.0000 0.0000 0.0000 0.0000 5.5255
#
#
#
# Elastic Compliance Matrix: (Units=1/GPa)
#
#
# Indices 1 2 3 4 5 6 
#
# 1 0.018949 -0.001807 -0.002354 0.000000 0.000000 0.000000
# 2 -0.001807 0.018948 -0.002354 0.000000 0.000000 0.000000
# 3 -0.002354 -0.002354 0.011084 0.000000 0.000000 0.000000
# 4 0.000000 0.000000 0.000000 0.040240 0.000000 0.000000
# 5 0.000000 0.000000 0.000000 0.000000 0.040239 0.000000
# 6 0.000000 0.000000 0.000000 0.000000 0.000000 0.180979
#
#
# Mechanical properties :
#
#
# Convention : Reuss Voigt Hill
#
# Bulk Modulus (GPa) = 27.81587 30.26061 29.03824
# Shear Modulus (GPa) = 14.90526 22.56171 18.73348
#
# Velocity S-wave (km/s) = 2.44513 3.00828 2.74120
# Velocity P-wave (km/s) = 4.37365 4.91977 4.65473
#
# Compressibility (1/GPa) = 0.03595070
#
# Stress axis : x y z
#
# Youngs Moduli (GPa) = 52.77434 52.77555 90.22169
#
# Poissons Ratio (x) = 0.09535 0.21239
# Poissons Ratio (y) = 0.09535 0.21239
# Poissons Ratio (z) = 0.12424 0.12424
#
# Static dielectric constant tensor:
#      x y z
#    x 2.014620 0.000000 0.000000 
#    y 0.000000 2.014620 0.000000 
#    z 0.000000 0.000000 2.036940 
# 
# From -- ./inp_files/4503.got.cif
#   From: 2010.05.17/outbox.cif.g08.bks.cpg/sg92_3_cif.got.tgz:4503.got - 2010.06.03 19:35:17.
