data_PCOD9548253
_publ_section_title
;
Structure prediction by ZEFSAII (Michael W. Deem and Ramdas Pophale) SiO2 
 PCOD9548253
Probable space group: P 41 2 2
;
_chemical_formula_sum "Si O2"
_cell_formula_units_Z 64
_cell_length_a 12.104856
_cell_length_b 12.104856
_cell_length_c 23.249817
_cell_angle_alpha 90.000000
_cell_angle_beta 90.000000
_cell_angle_gamma 90.000000
_cell_volume 3406.738462
_symmetry_space_group_name_H-M "P 41 2 2"
_symmetry_group_IT_number 91
_symmetry_cell_setting 'tetragonal'
loop_
_space_group_symop_operation_xyz
x,y,z
-y,x,1/4+z
-x,-y,1/2+z
y,-x,3/4+z
x,-y,1/2-z
-x,y,-z
y,x,3/4-z
-y,-x,1/4-z
loop_
_atom_site_type_symbol
_atom_site_label
_atom_site_fract_x
_atom_site_fract_y
_atom_site_fract_z
Si Si1 0.706518 0.864110 0.520792
Si Si2 0.283108 0.103081 0.895869
Si Si3 0.369137 0.375903 0.739938
Si Si4 0.478078 0.149421 0.325486
Si Si5 0.574401 0.270317 0.787179
Si Si6 0.461382 0.647581 0.886050
Si Si7 0.919153 0.731648 0.554196
Si Si8 0.084800 0.451841 0.627676
O O1 0.738534 0.925198 0.462554
O O2 0.643494 0.756541 0.496005
O O3 0.815993 0.814151 0.550231
O O4 0.621048 0.918141 0.564689
O O5 0.209721 0.209721 0.875000
O O6 0.417117 0.109091 0.887422
O O7 0.248914 0.997601 0.858211
O O8 0.403857 0.500000 0.750000
O O9 0.445670 0.302830 0.780578
O O10 0.387425 0.356947 0.672114
O O11 0.409711 0.212251 0.275124
O O12 0.483863 0.232393 0.379696
O O13 0.604844 0.125153 0.304890
O O14 0.437298 0.030136 0.344226
O O15 0.631932 0.383712 0.808423
O O16 0.591547 0.182080 0.836831
O O17 0.552297 0.552297 0.875000
O O18 0.000000 0.743280 0.500000
#
# Coordination Sequence:
#
# PCOD9548253 Si02
#       8
#     8   8   8   8   8   8   8   8
#     4  12  22  37  59  92 124 158 200 255 311 361
#     4  11  22  35  60  94 125 160 196 246 318 374
#     4  11  20  32  52  90 131 152 188 244 313 378
#     4  10  22  37  57  86 126 168 212 239 302 377
#     4  11  19  33  57  87 123 163 198 247 301 371
#     4  11  21  34  57  88 126 161 198 252 310 373
#     4  11  20  38  60  90 124 156 200 253 309 373
#     4  11  22  37  60  89 129 160 202 257 303 372
#
# _framework density 18.786297000000001
#
# number of rings (size 3 to 8) (size 9 to 14) (size 15 to 20)
#    0.000    1.000    6.250    3.750    0.000    0.500 
#    0.000    0.000   27.500    0.750    9.750    0.000 
#    0.000    0.000    0.000    0.000    0.000    0.000 
#
# Total GULP energy -356725.569455 kJ/mol
# GULP energy per Si atom -5573.837023 kJ/mol
# Density = 1.874354 g / cm^3
# Si number density = 18.786297 Si / 1000 Ang^3
#
#
#
# Elastic Constant Matrix: (Units=GPa)
#
#
# Indices 1 2 3 4 5 6 
#
# 1 73.7930 23.3363 30.9729 0.0000 0.0000 0.0000
# 2 23.3363 73.7930 30.9729 0.0000 0.0000 0.0000
# 3 30.9729 30.9729 82.0338 0.0000 0.0000 0.0000
# 4 0.0000 0.0000 0.0000 26.8027 0.0000 0.0000
# 5 0.0000 0.0000 0.0000 0.0000 26.8027 0.0000
# 6 0.0000 0.0000 0.0000 0.0000 0.0000 14.1358
#
#
#
# Elastic Compliance Matrix: (Units=1/GPa)
#
#
# Indices 1 2 3 4 5 6 
#
# 1 0.016690 -0.003129 -0.005120 0.000000 0.000000 0.000000
# 2 -0.003129 0.016690 -0.005120 0.000000 0.000000 0.000000
# 3 -0.005120 -0.005120 0.016056 0.000000 0.000000 0.000000
# 4 0.000000 0.000000 0.000000 0.037310 0.000000 0.000000
# 5 0.000000 0.000000 0.000000 0.000000 0.037310 0.000000
# 6 0.000000 0.000000 0.000000 0.000000 0.000000 0.070743
#
#
# Mechanical properties :
#
#
# Convention : Reuss Voigt Hill
#
# Bulk Modulus (GPa) = 44.05687 44.46487 44.26087
# Shear Modulus (GPa) = 21.82426 23.17073 22.49750
#
# Velocity S-wave (km/s) = 3.41209 3.51577 3.46432
# Velocity P-wave (km/s) = 6.24705 6.34043 6.29391
#
# Compressibility (1/GPa) = 0.02269793
#
# Stress axis : x y z
#
# Youngs Moduli (GPa) = 59.91622 59.91622 62.28035
#
# Poissons Ratio (x) = 0.18748 0.31888
# Poissons Ratio (y) = 0.18748 0.31888
# Poissons Ratio (z) = 0.30678 0.30678
#
# Static dielectric constant tensor:
#      x y z
#    x 1.674900 0.000000 0.000000 
#    y 0.000000 1.674900 0.000000 
#    z 0.000000 0.000000 1.705990 
# 
# From -- ./inp_files/21853.got.cif
#   From: 2010.05.17/outbox.cif.g08.bks.cpg/sg91_11_cif.got.tgz:21853.got - 2010.06.03 19:20:03.
