data_PCOD9548699
_publ_section_title
;
Structure prediction by ZEFSAII (Michael W. Deem and Ramdas Pophale) SiO2 
 PCOD9548699
Probable space group: P 41 2 2
;
_chemical_formula_sum "Si O2"
_cell_formula_units_Z 28
_cell_length_a 7.935532
_cell_length_b 7.935532
_cell_length_c 18.930137
_cell_angle_alpha 90.000000
_cell_angle_beta 90.000000
_cell_angle_gamma 90.000000
_cell_volume 1192.081235
_symmetry_space_group_name_H-M "P 41 2 2"
_symmetry_group_IT_number 91
_symmetry_cell_setting 'tetragonal'
loop_
_space_group_symop_operation_xyz
x,y,z
-y,x,1/4+z
-x,-y,1/2+z
y,-x,3/4+z
x,-y,1/2-z
-x,y,-z
y,x,3/4-z
-y,-x,1/4-z
loop_
_atom_site_type_symbol
_atom_site_label
_atom_site_fract_x
_atom_site_fract_y
_atom_site_fract_z
Si Si1 0.417078 0.915254 0.922520
Si Si2 0.545757 0.663848 0.714009
Si Si3 0.226971 0.226971 0.875000
Si Si4 0.093292 0.717680 0.070130
O O1 0.369189 0.714765 0.916021
O O2 0.563681 0.970752 0.867895
O O3 0.262515 0.044498 0.910232
O O4 0.500000 0.933164 0.000000
O O5 0.471175 0.500000 0.750000
O O6 0.384471 0.749444 0.678782
O O7 0.630729 0.750093 0.781716
O O8 0.139621 0.860380 0.125000
O O9 0.000000 0.777884 0.000000
#
# Coordination Sequence:
#
# PCOD9548699 Si02
#       4
#     8   8   4   8
#     4  11  24  44  71 108 143 190 258 311 378 471
#     4  11  22  43  75  98 144 193 240 305 387 455
#     4  12  24  44  72 110 144 190 246 316 382 462
#     4  12  23  47  73 104 151 207 253 317 404 474
#
# _framework density 23.488333999999998
#
# number of rings (size 3 to 8) (size 9 to 14) (size 15 to 20)
#    0.000    0.571    8.571    2.571    0.000    0.000 
#    2.571    0.000    0.000    0.000    0.000    0.000 
#    0.000    0.000    0.000    0.000    0.000    0.000 
#
# Total GULP energy -155994.986790 kJ/mol
# GULP energy per Si atom -5571.249528 kJ/mol
# Density = 2.343487 g / cm^3
# Si number density = 23.488334 Si / 1000 Ang^3
#
#
#
# Elastic Constant Matrix: (Units=GPa)
#
#
# Indices 1 2 3 4 5 6 
#
# 1 267.2667 -205.4165 26.0997 0.0000 0.0000 0.0000
# 2 -205.4165 267.2620 26.0976 0.0000 0.0000 0.0000
# 3 26.0997 26.0976 134.6252 0.0000 0.0000 0.0000
# 4 0.0000 0.0000 0.0000 29.5376 0.0000 0.0000
# 5 0.0000 0.0000 0.0000 0.0000 29.5341 0.0000
# 6 0.0000 0.0000 0.0000 0.0000 0.0000 43.9520
#
#
#
# Elastic Compliance Matrix: (Units=1/GPa)
#
#
# Indices 1 2 3 4 5 6 
#
# 1 0.010724 0.008608 -0.003748 0.000000 0.000000 0.000000
# 2 0.008608 0.010724 -0.003748 0.000000 0.000000 0.000000
# 3 -0.003748 -0.003748 0.008881 0.000000 0.000000 0.000000
# 4 0.000000 0.000000 0.000000 0.033855 0.000000 0.000000
# 5 0.000000 0.000000 0.000000 0.000000 0.033859 0.000000
# 6 0.000000 0.000000 0.000000 0.000000 0.000000 0.022752
#
#
# Mechanical properties :
#
#
# Convention : Reuss Voigt Hill
#
# Bulk Modulus (GPa) = 30.71851 40.30171 35.51011
# Shear Modulus (GPa) = 38.63374 75.42961 57.03168
#
# Velocity S-wave (km/s) = 4.06002 5.67304 4.93291
# Velocity P-wave (km/s) = 5.92325 7.75284 6.89897
#
# Compressibility (1/GPa) = 0.03255367
#
# Stress axis : x y z
#
# Youngs Moduli (GPa) = 93.25303 93.25166 112.59896
#
# Poissons Ratio (x) = -0.80271 0.42198
# Poissons Ratio (y) = -0.80272 0.42198
# Poissons Ratio (z) = 0.34948 0.34947
#
# Static dielectric constant tensor:
#      x y z
#    x 2.031830 0.000000 0.000000 
#    y 0.000000 2.031820 0.000000 
#    z 0.000000 0.000000 1.885180 
# 
# From -- ./inp_files/5259.got.cif
#   From: 2010.05.17/outbox.cif.g08.bks.cpg/sg91_3_cif.got.tgz:5259.got - 2010.06.03 19:20:03.
