data_PCOD9548720
_publ_section_title
;
Structure prediction by ZEFSAII (Michael W. Deem and Ramdas Pophale) SiO2 
 PCOD9548720
Probable space group: P 41 2 2
;
_chemical_formula_sum "Si O2"
_cell_formula_units_Z 48
_cell_length_a 9.344093
_cell_length_b 9.344093
_cell_length_c 24.884091
_cell_angle_alpha 90.000000
_cell_angle_beta 90.000000
_cell_angle_gamma 90.000000
_cell_volume 2172.681595
_symmetry_space_group_name_H-M "P 41 2 2"
_symmetry_group_IT_number 91
_symmetry_cell_setting 'tetragonal'
loop_
_space_group_symop_operation_xyz
x,y,z
-y,x,1/4+z
-x,-y,1/2+z
y,-x,3/4+z
x,-y,1/2-z
-x,y,-z
y,x,3/4-z
-y,-x,1/4-z
loop_
_atom_site_type_symbol
_atom_site_label
_atom_site_fract_x
_atom_site_fract_y
_atom_site_fract_z
Si Si1 0.029715 0.793687 0.369392
Si Si2 0.856479 0.494439 0.113021
Si Si3 0.842178 0.926330 0.998544
Si Si4 0.100751 0.381094 0.451253
Si Si5 0.187585 0.707658 0.799575
Si Si6 0.540197 0.667228 0.258559
O O1 0.940226 0.940226 0.375000
O O2 0.919037 0.663483 0.377932
O O3 0.098714 0.795441 0.309880
O O4 0.155731 0.781695 0.412672
O O5 0.791802 0.565045 0.165927
O O6 0.998627 0.589193 0.098710
O O7 0.740172 0.503945 0.064965
O O8 0.728001 0.028120 0.971444
O O9 0.000000 0.999164 0.000000
O O10 0.867321 0.783360 0.964395
O O11 0.247529 0.464315 0.459411
O O12 0.000000 0.436380 0.500000
O O13 0.293307 0.702486 0.749543
O O14 0.511840 0.500000 0.250000
#
# Coordination Sequence:
#
# PCOD9548720 Si02
#       6
#     8   8   8   8   8   8
#     4  12  24  42  72 101 135 180 234 290 346 422
#     4  11  26  45  69 104 139 182 236 288 357 417
#     4  11  23  42  72 103 136 176 234 293 347 416
#     4   9  20  45  70  92 135 181 222 285 343 411
#     4  12  26  44  71 104 138 185 230 289 359 412
#     4  11  25  46  69  97 139 191 235 280 349 430
#
# _framework density 22.092517000000001
#
# number of rings (size 3 to 8) (size 9 to 14) (size 15 to 20)
#    0.000    1.000    3.333    4.000    4.667    0.000 
#    6.000    1.667    0.000    0.000    0.000    0.000 
#    0.000    0.000    0.000    0.000    0.000    0.000 
#
# Total GULP energy -268348.566004 kJ/mol
# GULP energy per Si atom -5590.595125 kJ/mol
# Density = 2.204223 g / cm^3
# Si number density = 22.092517 Si / 1000 Ang^3
#
#
#
# Elastic Constant Matrix: (Units=GPa)
#
#
# Indices 1 2 3 4 5 6 
#
# 1 94.0875 25.5709 25.4043 0.0000 0.0000 0.0000
# 2 25.5709 94.0875 25.4043 0.0000 0.0000 0.0000
# 3 25.4043 25.4043 64.9368 0.0000 0.0000 0.0000
# 4 0.0000 0.0000 0.0000 29.4887 0.0000 0.0000
# 5 0.0000 0.0000 0.0000 0.0000 29.4887 0.0000
# 6 0.0000 0.0000 0.0000 0.0000 0.0000 24.3085
#
#
#
# Elastic Compliance Matrix: (Units=1/GPa)
#
#
# Indices 1 2 3 4 5 6 
#
# 1 0.012308 -0.002287 -0.003921 0.000000 0.000000 0.000000
# 2 -0.002287 0.012308 -0.003921 0.000000 0.000000 0.000000
# 3 -0.003921 -0.003921 0.018467 0.000000 0.000000 0.000000
# 4 0.000000 0.000000 0.000000 0.033911 0.000000 0.000000
# 5 0.000000 0.000000 0.000000 0.000000 0.033911 0.000000
# 6 0.000000 0.000000 0.000000 0.000000 0.000000 0.041138
#
#
# Mechanical properties :
#
#
# Convention : Reuss Voigt Hill
#
# Bulk Modulus (GPa) = 43.80546 45.09675 44.45111
# Shear Modulus (GPa) = 27.79167 28.43935 28.11551
#
# Velocity S-wave (km/s) = 3.55063 3.59177 3.57126
# Velocity P-wave (km/s) = 6.05645 6.13662 6.09666
#
# Compressibility (1/GPa) = 0.02282820
#
# Stress axis : x y z
#
# Youngs Moduli (GPa) = 81.24497 81.24497 54.14979
#
# Poissons Ratio (x) = 0.18577 0.21231
# Poissons Ratio (y) = 0.18577 0.21231
# Poissons Ratio (z) = 0.31854 0.31854
#
# Static dielectric constant tensor:
#      x y z
#    x 1.824590 0.000000 0.000000 
#    y 0.000000 1.824590 0.000000 
#    z 0.000000 0.000000 1.820840 
# 
# From -- ./inp_files/18190.got.cif
#   From: 2010.05.17/outbox.cif.g08.bks.cpg/sg91_10_cif.got.tgz:18190.got - 2010.06.03 19:20:03.
