data_PCOD9548560
_publ_section_title
;
Structure prediction by ZEFSAII (Michael W. Deem and Ramdas Pophale) SiO2 
 PCOD9548560
Probable space group: P 41 2 2
;
_chemical_formula_sum "Si O2"
_cell_formula_units_Z 36
_cell_length_a 9.022246
_cell_length_b 9.022246
_cell_length_c 18.117170
_cell_angle_alpha 90.000000
_cell_angle_beta 90.000000
_cell_angle_gamma 90.000000
_cell_volume 1474.754358
_symmetry_space_group_name_H-M "P 41 2 2"
_symmetry_group_IT_number 91
_symmetry_cell_setting 'tetragonal'
loop_
_space_group_symop_operation_xyz
x,y,z
-y,x,1/4+z
-x,-y,1/2+z
y,-x,3/4+z
x,-y,1/2-z
-x,y,-z
y,x,3/4-z
-y,-x,1/4-z
loop_
_atom_site_type_symbol
_atom_site_label
_atom_site_fract_x
_atom_site_fract_y
_atom_site_fract_z
Si Si1 0.528813 0.220874 0.897348
Si Si2 0.326428 0.077144 0.365499
Si Si3 0.000000 0.897585 0.000000
Si Si4 0.137037 0.799453 0.704020
Si Si5 0.758631 0.572353 0.520595
O O1 0.366475 0.184297 0.930105
O O2 0.615515 0.358684 0.935705
O O3 0.508813 0.258900 0.809679
O O4 0.606796 0.061124 0.911732
O O5 0.227642 0.227642 0.375000
O O6 0.467492 0.143845 0.322113
O O7 0.210779 0.984688 0.317495
O O8 0.852794 0.996070 0.999907
O O9 0.120046 0.879955 0.625000
O O10 0.278873 0.845785 0.750548
#
# Coordination Sequence:
#
# PCOD9548560 Si02
#       5
#     8   8   4   8   8
#     4  11  25  49  77 113 156 211 266 328 408 487
#     4  12  27  45  74 114 158 203 263 337 396 466
#     4  12  24  46  72 114 148 206 272 328 396 468
#     4  10  25  43  77 106 149 210 264 323 395 485
#     4  11  25  48  75 109 157 203 266 324 399 485
#
# _framework density 24.410843
#
# number of rings (size 3 to 8) (size 9 to 14) (size 15 to 20)
#    0.000    0.889    2.222    2.667    9.333    4.444 
#    0.000    2.222    0.000    0.000    0.000    0.000 
#    0.000    0.000    0.000    0.000    0.000    0.000 
#
# Total GULP energy -200571.833952 kJ/mol
# GULP energy per Si atom -5571.439832 kJ/mol
# Density = 2.435528 g / cm^3
# Si number density = 24.410843 Si / 1000 Ang^3
#
#
#
# Elastic Constant Matrix: (Units=GPa)
#
#
# Indices 1 2 3 4 5 6 
#
# 1 135.6735 72.7481 23.3413 0.0000 0.0000 0.0000
# 2 72.7481 135.6738 23.3418 0.0000 0.0000 0.0000
# 3 23.3413 23.3418 43.5450 0.0000 0.0000 0.0000
# 4 0.0000 0.0000 0.0000 -10.6415 0.0000 0.0000
# 5 0.0000 0.0000 0.0000 0.0000 -10.6426 0.0000
# 6 0.0000 0.0000 0.0000 0.0000 0.0000 32.9844
#
#
#
# Elastic Compliance Matrix: (Units=1/GPa)
#
#
# Indices 1 2 3 4 5 6 
#
# 1 0.010672 -0.005220 -0.002923 0.000000 0.000000 0.000000
# 2 -0.005220 0.010672 -0.002923 0.000000 0.000000 0.000000
# 3 -0.002923 -0.002923 0.026098 0.000000 0.000000 0.000000
# 4 0.000000 0.000000 0.000000 -0.093972 0.000000 0.000000
# 5 0.000000 0.000000 0.000000 0.000000 -0.093962 0.000000
# 6 0.000000 0.000000 0.000000 0.000000 0.000000 0.030317
#
#
# Mechanical properties :
#
#
# Convention : Reuss Voigt Hill
#
# Bulk Modulus (GPa) = 39.50653 61.52829 50.51741
# Shear Modulus (GPa) = -62.80889 15.37082 -23.71903
#
# Velocity S-wave (km/s) = -5.07797 2.51205 -3.12053
# Velocity P-wave (km/s) = 4.26168 5.80292 2.78496
#
# Compressibility (1/GPa) = 0.02531227
#
# Stress axis : x y z
#
# Youngs Moduli (GPa) = 93.70142 93.70126 38.31689
#
# Poissons Ratio (x) = 0.48908 0.11199
# Poissons Ratio (y) = 0.48908 0.11200
# Poissons Ratio (z) = 0.27386 0.27388
#
# Static dielectric constant tensor:
#      x y z
#    x 1.949660 0.000000 0.000000 
#    y 0.000000 1.949660 0.000000 
#    z 0.000000 0.000000 2.030070 
# 
# From -- ./inp_files/21380.got.cif
#   From: 2010.05.17/outbox.cif.g08.bks.cpg/sg91_11_cif.got.tgz:21380.got - 2010.06.03 19:20:03.
