data_PCOD9548642
_publ_section_title
;
Structure prediction by ZEFSAII (Michael W. Deem and Ramdas Pophale) SiO2 
 PCOD9548642
Probable space group: P 41 2 2
;
_chemical_formula_sum "Si O2"
_cell_formula_units_Z 32
_cell_length_a 7.801182
_cell_length_b 7.801182
_cell_length_c 25.838575
_cell_angle_alpha 90.000000
_cell_angle_beta 90.000000
_cell_angle_gamma 90.000000
_cell_volume 1572.495382
_symmetry_space_group_name_H-M "P 41 2 2"
_symmetry_group_IT_number 91
_symmetry_cell_setting 'tetragonal'
loop_
_space_group_symop_operation_xyz
x,y,z
-y,x,1/4+z
-x,-y,1/2+z
y,-x,3/4+z
x,-y,1/2-z
-x,y,-z
y,x,3/4-z
-y,-x,1/4-z
loop_
_atom_site_type_symbol
_atom_site_label
_atom_site_fract_x
_atom_site_fract_y
_atom_site_fract_z
Si Si1 0.677001 0.821961 0.532204
Si Si2 0.633394 0.647847 0.109590
Si Si3 0.682668 0.185940 0.572915
Si Si4 0.468836 0.195605 0.245388
O O1 0.500000 0.819079 0.500000
O O2 0.669011 0.755388 0.591391
O O3 0.786302 0.672098 0.505005
O O4 0.728037 0.020677 0.538757
O O5 0.497283 0.502718 0.125000
O O6 0.515059 0.810412 0.093064
O O7 0.734647 0.583405 0.060069
O O8 0.795013 0.204988 0.625000
O O9 0.703719 0.356937 0.538196
O O10 0.417502 0.000000 0.250000
#
# Coordination Sequence:
#
# PCOD9548642 Si02
#       4
#     8   8   8   8
#     4  12  23  41  70  98 126 176 231 272 339 410
#     4  11  21  40  67  91 125 173 220 272 329 400
#     4  11  23  44  68  96 132 176 223 279 341 402
#     4  12  24  42  63  97 138 171 220 278 337 402
#
# _framework density 20.349820000000001
#
# number of rings (size 3 to 8) (size 9 to 14) (size 15 to 20)
#    0.000    0.500    7.500    3.750    0.000    1.000 
#    0.000    3.750    0.000    0.000    0.000    0.000 
#    0.000    0.000    0.000    0.000    0.000    0.000 
#
# Total GULP energy -178660.788867 kJ/mol
# GULP energy per Si atom -5583.149652 kJ/mol
# Density = 2.030350 g / cm^3
# Si number density = 20.349820 Si / 1000 Ang^3
#
#
#
# Elastic Constant Matrix: (Units=GPa)
#
#
# Indices 1 2 3 4 5 6 
#
# 1 73.7027 3.8252 6.8941 0.0000 0.0000 0.0000
# 2 3.8252 73.7031 6.8944 0.0000 0.0000 0.0000
# 3 6.8941 6.8944 90.4260 0.0000 0.0000 0.0000
# 4 0.0000 0.0000 0.0000 23.9549 0.0000 0.0000
# 5 0.0000 0.0000 0.0000 0.0000 23.9549 0.0000
# 6 0.0000 0.0000 0.0000 0.0000 0.0000 14.0232
#
#
#
# Elastic Compliance Matrix: (Units=1/GPa)
#
#
# Indices 1 2 3 4 5 6 
#
# 1 0.013693 -0.000617 -0.000997 0.000000 0.000000 0.000000
# 2 -0.000617 0.013693 -0.000997 0.000000 0.000000 0.000000
# 3 -0.000997 -0.000997 0.011211 0.000000 0.000000 0.000000
# 4 0.000000 0.000000 0.000000 0.041745 0.000000 0.000000
# 5 0.000000 0.000000 0.000000 0.000000 0.041745 0.000000
# 6 0.000000 0.000000 0.000000 0.000000 0.000000 0.071311
#
#
# Mechanical properties :
#
#
# Convention : Reuss Voigt Hill
#
# Bulk Modulus (GPa) = 29.96274 30.33991 30.15132
# Shear Modulus (GPa) = 23.83839 27.06779 25.45309
#
# Velocity S-wave (km/s) = 3.42633 3.65104 3.54047
# Velocity P-wave (km/s) = 5.51442 5.71971 5.61800
#
# Compressibility (1/GPa) = 0.03337478
#
# Stress axis : x y z
#
# Youngs Moduli (GPa) = 73.02832 73.02867 89.19980
#
# Poissons Ratio (x) = 0.04509 0.08892
# Poissons Ratio (y) = 0.04509 0.08893
# Poissons Ratio (z) = 0.07280 0.07281
#
# Static dielectric constant tensor:
#      x y z
#    x 1.760880 0.000000 0.000000 
#    y 0.000000 1.760880 0.000000 
#    z 0.000000 0.000000 2.156910 
# 
# From -- ./inp_files/6615.got.cif
#   From: 2010.05.17/outbox.cif.g08.bks.cpg/sg91_4_cif.got.tgz:6615.got - 2010.06.03 19:20:03.
