data_PCOD9548475
_publ_section_title
;
Structure prediction by ZEFSAII (Michael W. Deem and Ramdas Pophale) SiO2 
 PCOD9548475
Probable space group: P 41 2 2
;
_chemical_formula_sum "Si O2"
_cell_formula_units_Z 40
_cell_length_a 14.755731
_cell_length_b 14.755731
_cell_length_c 8.537333
_cell_angle_alpha 90.000000
_cell_angle_beta 90.000000
_cell_angle_gamma 90.000000
_cell_volume 1858.847151
_symmetry_space_group_name_H-M "P 41 2 2"
_symmetry_group_IT_number 91
_symmetry_cell_setting 'tetragonal'
loop_
_space_group_symop_operation_xyz
x,y,z
-y,x,1/4+z
-x,-y,1/2+z
y,-x,3/4+z
x,-y,1/2-z
-x,y,-z
y,x,3/4-z
-y,-x,1/4-z
loop_
_atom_site_type_symbol
_atom_site_label
_atom_site_fract_x
_atom_site_fract_y
_atom_site_fract_z
Si Si1 0.752835 0.500000 0.750000
Si Si2 0.582352 0.417649 0.125000
Si Si3 0.227746 0.836080 0.283347
Si Si4 0.500000 0.943514 0.500000
Si Si5 0.365570 0.000000 0.250000
Si Si6 0.403636 0.203798 0.788609
Si Si7 0.803678 0.803678 0.375000
Si Si8 0.321859 0.678142 0.125000
O O1 0.809062 0.564954 0.638487
O O2 0.694990 0.426941 0.653285
O O3 0.571298 0.500000 0.250000
O O4 0.689182 0.422903 0.073061
O O5 0.302224 0.912758 0.261604
O O6 0.180372 0.847829 0.452830
O O7 0.283899 0.740357 0.268630
O O8 0.167096 0.832904 0.125000
O O9 0.427192 0.000744 0.404387
O O10 0.541396 0.872263 0.378686
O O11 0.301551 0.183293 0.835890
#
# Coordination Sequence:
#
# PCOD9548475 Si02
#       8
#     4   4   8   4   4   8   4   4
#     4  12  24  37  63  88 132 192 236 299 351 428
#     4  11  26  39  60  92 138 193 263 304 344 429
#     4  10  23  46  72 104 136 185 235 304 371 445
#     4  12  26  43  69 104 146 190 254 305 379 454
#     4  12  26  46  74 106 148 198 252 316 388 466
#     4  11  24  41  63  91 136 190 246 301 356 427
#     4  11  20  44  69  96 133 192 239 292 358 441
#     4  10  24  41  61  88 135 179 240 288 364 424
#
# _framework density 21.518712000000001
#
# number of rings (size 3 to 8) (size 9 to 14) (size 15 to 20)
#    0.600    0.400    5.000    1.200    4.200    4.800 
#    0.000    0.000    0.000    0.000    2.600    0.000 
#    0.000    0.000    0.000    0.000    0.000    0.000 
#
# Total GULP energy -223102.480182 kJ/mol
# GULP energy per Si atom -5577.562005 kJ/mol
# Density = 2.146973 g / cm^3
# Si number density = 21.518712 Si / 1000 Ang^3
#
#
#
# Elastic Constant Matrix: (Units=GPa)
#
#
# Indices 1 2 3 4 5 6 
#
# 1 60.5243 11.8199 29.6721 0.0000 0.0000 0.0000
# 2 11.8199 60.5222 29.6721 0.0000 0.0000 0.0000
# 3 29.6721 29.6721 150.8372 0.0000 0.0000 0.0000
# 4 0.0000 0.0000 0.0000 10.7592 0.0000 0.0000
# 5 0.0000 0.0000 0.0000 0.0000 10.7642 0.0000
# 6 0.0000 0.0000 0.0000 0.0000 0.0000 22.7010
#
#
#
# Elastic Compliance Matrix: (Units=1/GPa)
#
#
# Indices 1 2 3 4 5 6 
#
# 1 0.018507 -0.002025 -0.003242 0.000000 0.000000 0.000000
# 2 -0.002025 0.018508 -0.003243 0.000000 0.000000 0.000000
# 3 -0.003242 -0.003243 0.007905 0.000000 0.000000 0.000000
# 4 0.000000 0.000000 0.000000 0.092943 0.000000 0.000000
# 5 0.000000 0.000000 0.000000 0.000000 0.092901 0.000000
# 6 0.000000 0.000000 0.000000 0.000000 0.000000 0.044051
#
#
# Mechanical properties :
#
#
# Convention : Reuss Voigt Hill
#
# Bulk Modulus (GPa) = 35.84069 46.02355 40.93212
# Shear Modulus (GPa) = 16.60383 22.22620 19.41502
#
# Velocity S-wave (km/s) = 2.78078 3.21733 3.00699
# Velocity P-wave (km/s) = 5.19635 5.93597 5.57843
#
# Compressibility (1/GPa) = 0.02790125
#
# Stress axis : x y z
#
# Youngs Moduli (GPa) = 54.03277 54.03070 126.49674
#
# Poissons Ratio (x) = 0.10940 0.41015
# Poissons Ratio (y) = 0.10941 0.41017
# Poissons Ratio (z) = 0.17519 0.17520
#
# Static dielectric constant tensor:
#      x y z
#    x 2.097810 0.000000 0.000000 
#    y 0.000000 2.097520 0.000000 
#    z 0.000000 0.000000 1.830830 
# 
# From -- ./inp_files/15109.got.cif
#   From: 2010.05.17/outbox.cif.g08.bks.cpg/sg91_8_cif.got.tgz:15109.got - 2010.06.03 19:20:03.
