data_PCOD9548919
_publ_section_title
;
Structure prediction by ZEFSAII (Michael W. Deem and Ramdas Pophale) SiO2 
 PCOD9548919
Probable space group: P 41 21 2
;
_chemical_formula_sum "Si O2"
_cell_formula_units_Z 48
_cell_length_a 18.177991
_cell_length_b 18.177991
_cell_length_c 5.247447
_cell_angle_alpha 90.000000
_cell_angle_beta 90.000000
_cell_angle_gamma 90.000000
_cell_volume 1733.963012
_symmetry_space_group_name_H-M "P 41 21 2"
_symmetry_group_IT_number 92
_symmetry_cell_setting 'tetragonal'
loop_
_space_group_symop_operation_xyz
x,y,z
1/2-y,1/2+x,1/4+z
-x,-y,1/2+z
1/2+y,1/2-x,3/4+z
1/2+x,1/2-y,3/4-z
1/2-x,1/2+y,1/4-z
y,x,-z
-y,-x,1/2-z
loop_
_atom_site_type_symbol
_atom_site_label
_atom_site_fract_x
_atom_site_fract_y
_atom_site_fract_z
Si Si1 0.617480 0.502852 0.477738
Si Si2 0.423634 0.311780 0.517674
Si Si3 0.398390 0.016415 0.745229
Si Si4 0.949224 0.307305 0.626678
Si Si5 0.150170 0.305612 0.155252
Si Si6 0.228874 0.109603 0.331073
O O1 0.533966 0.533966 0.500000
O O2 0.662801 0.541991 0.712032
O O3 0.645104 0.418572 0.471609
O O4 0.642803 0.532820 0.201872
O O5 0.340875 0.340875 0.500000
O O6 0.423943 0.231928 0.389469
O O7 0.386511 0.970343 0.486460
O O8 0.330289 0.064772 0.827153
O O9 0.459934 0.076207 0.699591
O O10 0.881258 0.305226 0.826993
O O11 0.029272 0.271074 0.679197
O O12 0.150931 0.256384 0.412167
O O13 0.155817 0.258004 0.903276
#
# Coordination Sequence:
#
# PCOD9548919 Si02
#       6
#     8   8   8   8   8   8
#     4   9  16  29  46  63  81 103 132 179 233 274
#     4   9  18  30  47  66  81 101 138 186 237 287
#     4  11  20  30  42  58  81 113 153 189 222 267
#     4  10  19  31  45  59  82 112 142 184 235 275
#     4  11  21  31  42  59  81 112 144 182 228 270
#     4  10  20  31  43  61  82 105 143 182 219 273
#
# _framework density 27.682251999999998
#
# number of rings (size 3 to 8) (size 9 to 14) (size 15 to 20)
#    0.000    2.000    0.000    7.000    0.000    5.333 
#    0.000    0.000    0.000    0.000    0.000    0.000 
#    0.000    0.000    0.000    0.000    0.000    0.000 
#
# Total GULP energy -267823.192357 kJ/mol
# GULP energy per Si atom -5579.649841 kJ/mol
# Density = 2.761925 g / cm^3
# Si number density = 27.682252 Si / 1000 Ang^3
#
#
#
# Elastic Constant Matrix: (Units=GPa)
#
#
# Indices 1 2 3 4 5 6 
#
# 1 52.6573 61.4056 59.1661 0.0000 0.0000 0.0000
# 2 61.4056 52.6573 59.1661 0.0000 0.0000 0.0000
# 3 59.1661 59.1661 223.0828 0.0000 0.0000 0.0000
# 4 0.0000 0.0000 0.0000 48.2209 0.0000 0.0000
# 5 0.0000 0.0000 0.0000 0.0000 48.2209 0.0000
# 6 0.0000 0.0000 0.0000 0.0000 0.0000 52.3126
#
#
#
# Elastic Compliance Matrix: (Units=1/GPa)
#
#
# Indices 1 2 3 4 5 6 
#
# 1 -0.051106 0.063201 -0.003208 0.000000 0.000000 0.000000
# 2 0.063201 -0.051106 -0.003208 0.000000 0.000000 0.000000
# 3 -0.003208 -0.003208 0.006184 0.000000 0.000000 0.000000
# 4 0.000000 0.000000 0.000000 0.020738 0.000000 0.000000
# 5 0.000000 0.000000 0.000000 0.000000 0.020738 0.000000
# 6 0.000000 0.000000 0.000000 0.000000 0.000000 0.019116
#
#
# Mechanical properties :
#
#
# Convention : Reuss Voigt Hill
#
# Bulk Modulus (GPa) = 57.00327 76.43031 66.71679
# Shear Modulus (GPa) = -34.92568 39.66152 2.36792
#
# Velocity S-wave (km/s) = -3.55584 3.78926 0.92588
# Velocity P-wave (km/s) = 1.94371 6.84211 5.02954
#
# Compressibility (1/GPa) = 0.01754285
#
# Stress axis : x y z
#
# Youngs Moduli (GPa) = -19.56698 -19.56698 161.70226
#
# Poissons Ratio (x) = 1.23666 0.51871
# Poissons Ratio (y) = 1.23666 0.51871
# Poissons Ratio (z) = -0.06277 -0.06277
#
# Static dielectric constant tensor:
#      x y z
#    x 2.267340 0.000000 0.000000 
#    y 0.000000 2.267340 0.000000 
#    z 0.000000 0.000000 1.791170 
# 
# From -- ./inp_files/807.got.cif
#   From: 2010.05.17/outbox.cif.g08.bks.cpg/sg92_1_cif.got.tgz:807.got - 2010.06.03 19:35:17.
