data_PCOD9548198
_publ_section_title
;
Structure prediction by ZEFSAII (Michael W. Deem and Ramdas Pophale) SiO2 
 PCOD9548198
Probable space group: P 41 2 2
;
_chemical_formula_sum "Si O2"
_cell_formula_units_Z 20
_cell_length_a 9.141259
_cell_length_b 9.141259
_cell_length_c 9.129431
_cell_angle_alpha 90.000000
_cell_angle_beta 90.000000
_cell_angle_gamma 90.000000
_cell_volume 762.879138
_symmetry_space_group_name_H-M "P 41 2 2"
_symmetry_group_IT_number 91
_symmetry_cell_setting 'tetragonal'
loop_
_space_group_symop_operation_xyz
x,y,z
-y,x,1/4+z
-x,-y,1/2+z
y,-x,3/4+z
x,-y,1/2-z
-x,y,-z
y,x,3/4-z
-y,-x,1/4-z
loop_
_atom_site_type_symbol
_atom_site_label
_atom_site_fract_x
_atom_site_fract_y
_atom_site_fract_z
Si Si1 0.259427 0.283614 0.203268
Si Si2 0.703687 0.500000 0.250000
Si Si3 0.925475 0.722381 0.296037
O O1 0.284285 0.284285 0.375000
O O2 0.090159 0.324233 0.180071
O O3 0.383876 0.368078 0.109762
O O4 0.265759 0.123623 0.123713
O O5 0.814268 0.596407 0.349210
O O6 0.870604 0.870604 0.375000
#
# Coordination Sequence:
#
# PCOD9548198 Si02
#       3
#     8   4   8
#     4  10  21  42  67 106 154 191 241 312 386 446
#     4   8  24  40  62 112 144 190 248 308 382 458
#     4  10  21  42  70 105 150 190 245 324 382 453
#
# _framework density 26.216476
#
# number of rings (size 3 to 8) (size 9 to 14) (size 15 to 20)
#    2.400    0.000    0.000    2.400    0.000    4.800 
#   14.400    0.000    0.000    4.800    0.000    0.000 
#    0.000    0.000    0.000    0.000    0.000    0.000 
#
# Total GULP energy -111429.526533 kJ/mol
# GULP energy per Si atom -5571.476327 kJ/mol
# Density = 2.615681 g / cm^3
# Si number density = 26.216476 Si / 1000 Ang^3
#
#
#
# Elastic Constant Matrix: (Units=GPa)
#
#
# Indices 1 2 3 4 5 6 
#
# 1 137.4389 35.3670 68.4791 0.0000 0.0000 0.0000
# 2 35.3670 137.4389 68.4791 0.0000 0.0000 0.0000
# 3 68.4791 68.4791 216.0789 0.0000 0.0000 0.0000
# 4 0.0000 0.0000 0.0000 43.4723 0.0000 0.0000
# 5 0.0000 0.0000 0.0000 0.0000 43.4723 0.0000
# 6 0.0000 0.0000 0.0000 0.0000 0.0000 2.1906
#
#
#
# Elastic Compliance Matrix: (Units=1/GPa)
#
#
# Indices 1 2 3 4 5 6 
#
# 1 0.008762 -0.001035 -0.002449 0.000000 0.000000 0.000000
# 2 -0.001035 0.008762 -0.002449 0.000000 0.000000 0.000000
# 3 -0.002449 -0.002449 0.006180 0.000000 0.000000 0.000000
# 4 0.000000 0.000000 0.000000 0.023003 0.000000 0.000000
# 5 0.000000 0.000000 0.000000 0.000000 0.023003 0.000000
# 6 0.000000 0.000000 0.000000 0.000000 0.000000 0.456495
#
#
# Mechanical properties :
#
#
# Convention : Reuss Voigt Hill
#
# Bulk Modulus (GPa) = 84.46207 92.84526 88.65366
# Shear Modulus (GPa) = 9.22478 39.06914 24.14696
#
# Velocity S-wave (km/s) = 1.87785 3.86457 3.03819
# Velocity P-wave (km/s) = 6.08185 7.44345 6.79683
#
# Compressibility (1/GPa) = 0.01183963
#
# Stress axis : x y z
#
# Youngs Moduli (GPa) = 114.12332 114.12332 161.80537
#
# Poissons Ratio (x) = 0.11807 0.39628
# Poissons Ratio (y) = 0.11807 0.39628
# Poissons Ratio (z) = 0.27950 0.27950
#
# Static dielectric constant tensor:
#      x y z
#    x 2.096630 0.000000 0.000000 
#    y 0.000000 2.096630 0.000000 
#    z 0.000000 0.000000 2.130620 
# 
# From -- ./inp_files/9236.got.cif
#   From: 2010.05.17/outbox.cif.g08.bks.cpg/sg91_5_cif.got.tgz:9236.got - 2010.06.03 19:20:03.
