data_PCOD9548439
_publ_section_title
;
Structure prediction by ZEFSAII (Michael W. Deem and Ramdas Pophale) SiO2 
 PCOD9548439
Probable space group: P 41 2 2
;
_chemical_formula_sum "Si O2"
_cell_formula_units_Z 64
_cell_length_a 11.795958
_cell_length_b 11.795958
_cell_length_c 22.676225
_cell_angle_alpha 90.000000
_cell_angle_beta 90.000000
_cell_angle_gamma 90.000000
_cell_volume 3155.274827
_symmetry_space_group_name_H-M "P 41 2 2"
_symmetry_group_IT_number 91
_symmetry_cell_setting 'tetragonal'
loop_
_space_group_symop_operation_xyz
x,y,z
-y,x,1/4+z
-x,-y,1/2+z
y,-x,3/4+z
x,-y,1/2-z
-x,y,-z
y,x,3/4-z
-y,-x,1/4-z
loop_
_atom_site_type_symbol
_atom_site_label
_atom_site_fract_x
_atom_site_fract_y
_atom_site_fract_z
Si Si1 0.799856 0.730079 0.043157
Si Si2 0.994083 0.639867 0.563188
Si Si3 0.754744 0.617404 0.615284
Si Si4 0.035524 0.064480 0.186606
Si Si5 0.761350 0.614484 0.218773
Si Si6 0.355593 0.190078 0.341477
Si Si7 0.807304 0.809107 0.438579
Si Si8 0.058096 0.423583 0.626520
O O1 0.673260 0.751744 0.069489
O O2 0.877006 0.840742 0.058637
O O3 0.854828 0.628846 0.080218
O O4 0.806791 0.687828 0.976014
O O5 0.072814 0.747093 0.552799
O O6 0.041891 0.555622 0.612440
O O7 0.000000 0.575802 0.500000
O O8 0.867903 0.666646 0.583594
O O9 0.650324 0.669915 0.579844
O O10 0.763016 0.482740 0.604900
O O11 0.941837 0.164299 0.185674
O O12 0.020198 0.000000 0.250000
O O13 0.007857 0.992144 0.125000
O O14 0.725953 0.500000 0.250000
O O15 0.775208 0.717011 0.263734
O O16 0.883803 0.595885 0.188829
O O17 0.265162 0.265162 0.375000
O O18 0.363014 0.061811 0.365625
O O19 0.767248 0.767248 0.375000
#
# Coordination Sequence:
#
# PCOD9548439 Si02
#       8
#     8   8   8   8   8   8   8   8
#     4  11  24  42  68  98 135 175 228 282 342 417
#     4  11  19  39  69  91 124 174 229 272 333 415
#     4  10  23  45  68  97 130 175 238 285 339 407
#     4  11  25  39  64 102 143 181 225 286 363 429
#     4  11  24  42  63  97 137 173 220 290 342 402
#     4  11  25  46  69  98 134 187 232 284 349 414
#     4  11  23  37  62  95 131 172 220 274 346 414
#     4  10  23  41  67  95 128 174 228 271 332 409
#
# _framework density 20.283494999999998
#
# number of rings (size 3 to 8) (size 9 to 14) (size 15 to 20)
#    0.000    1.250    1.250    5.250    5.250    2.500 
#    2.250    0.000    0.000    0.000    0.000    0.000 
#    0.000    0.000    0.000    0.000    0.000    0.000 
#
# Total GULP energy -357157.602161 kJ/mol
# GULP energy per Si atom -5580.587534 kJ/mol
# Density = 2.023733 g / cm^3
# Si number density = 20.283495 Si / 1000 Ang^3
#
#
#
# Elastic Constant Matrix: (Units=GPa)
#
#
# Indices 1 2 3 4 5 6 
#
# 1 57.5681 22.3860 7.4112 0.0000 0.0000 0.0000
# 2 22.3860 57.5679 7.4110 0.0000 0.0000 0.0000
# 3 7.4112 7.4110 45.5591 0.0000 0.0000 0.0000
# 4 0.0000 0.0000 0.0000 30.2591 0.0000 0.0000
# 5 0.0000 0.0000 0.0000 0.0000 30.2591 0.0000
# 6 0.0000 0.0000 0.0000 0.0000 0.0000 15.4443
#
#
#
# Elastic Compliance Matrix: (Units=1/GPa)
#
#
# Indices 1 2 3 4 5 6 
#
# 1 0.020660 -0.007764 -0.002098 0.000000 0.000000 0.000000
# 2 -0.007764 0.020660 -0.002098 0.000000 0.000000 0.000000
# 3 -0.002098 -0.002098 0.022632 0.000000 0.000000 0.000000
# 4 0.000000 0.000000 0.000000 0.033048 0.000000 0.000000
# 5 0.000000 0.000000 0.000000 0.000000 0.033048 0.000000
# 6 0.000000 0.000000 0.000000 0.000000 0.000000 0.064749
#
#
# Mechanical properties :
#
#
# Convention : Reuss Voigt Hill
#
# Bulk Modulus (GPa) = 24.97941 26.12350 25.55145
# Shear Modulus (GPa) = 21.54620 23.42496 22.48558
#
# Velocity S-wave (km/s) = 3.26276 3.40204 3.33312
# Velocity P-wave (km/s) = 5.15131 5.32343 5.23808
#
# Compressibility (1/GPa) = 0.04003297
#
# Stress axis : x y z
#
# Youngs Moduli (GPa) = 48.40308 48.40298 44.18524
#
# Poissons Ratio (x) = 0.37579 0.09269
# Poissons Ratio (y) = 0.37579 0.09269
# Poissons Ratio (z) = 0.10154 0.10154
#
# Static dielectric constant tensor:
#      x y z
#    x 1.726850 0.000000 0.000000 
#    y 0.000000 1.726850 0.000000 
#    z 0.000000 0.000000 1.809290 
# 
# From -- ./inp_files/12939.got.cif
#   From: 2010.05.17/outbox.cif.g08.bks.cpg/sg91_7_cif.got.tgz:12939.got - 2010.06.03 19:20:03.
