data_PCOD9548619
_publ_section_title
;
Structure prediction by ZEFSAII (Michael W. Deem and Ramdas Pophale) SiO2 
 PCOD9548619
Probable space group: P 41 2 2
;
_chemical_formula_sum "Si O2"
_cell_formula_units_Z 24
_cell_length_a 8.169943
_cell_length_b 8.169943
_cell_length_c 16.023145
_cell_angle_alpha 90.000000
_cell_angle_beta 90.000000
_cell_angle_gamma 90.000000
_cell_volume 1069.512380
_symmetry_space_group_name_H-M "P 41 2 2"
_symmetry_group_IT_number 91
_symmetry_cell_setting 'tetragonal'
loop_
_space_group_symop_operation_xyz
x,y,z
-y,x,1/4+z
-x,-y,1/2+z
y,-x,3/4+z
x,-y,1/2-z
-x,y,-z
y,x,3/4-z
-y,-x,1/4-z
loop_
_atom_site_type_symbol
_atom_site_label
_atom_site_fract_x
_atom_site_fract_y
_atom_site_fract_z
Si Si1 0.179742 0.502429 0.041264
Si Si2 0.164748 0.189441 0.776828
Si Si3 0.305468 0.840085 0.051218
O O1 0.277474 0.662957 0.009952
O O2 0.164340 0.534415 0.140495
O O3 0.253218 0.327479 0.019348
O O4 0.000000 0.507893 0.000000
O O5 0.194746 0.194746 0.875000
O O6 0.001068 0.282217 0.750986
O O7 0.143618 0.000000 0.750000
O O8 0.164750 0.835251 0.125000
#
# Coordination Sequence:
#
# PCOD9548619 Si02
#       3
#     8   8   8
#     4   8  18  36  59  95 129 164 234 270 324 412
#     4  11  21  34  65 103 133 172 231 278 338 409
#     4   8  19  36  66  87 128 180 219 269 336 404
#
# _framework density 22.440134
#
# number of rings (size 3 to 8) (size 9 to 14) (size 15 to 20)
#    2.000    0.667    0.000    2.000    4.667    0.000 
#    0.000    6.667    7.333    8.000    8.667    0.000 
#    0.000    0.000    0.000    0.000    0.000    0.000 
#
# Total GULP energy -133814.685623 kJ/mol
# GULP energy per Si atom -5575.611901 kJ/mol
# Density = 2.238906 g / cm^3
# Si number density = 22.440134 Si / 1000 Ang^3
#
#
#
# Elastic Constant Matrix: (Units=GPa)
#
#
# Indices 1 2 3 4 5 6 
#
# 1 131.3268 63.7625 52.3062 0.0000 0.0000 0.0000
# 2 63.7625 131.3259 52.3062 0.0000 0.0000 0.0000
# 3 52.3062 52.3062 65.7030 0.0000 0.0000 0.0000
# 4 0.0000 0.0000 0.0000 421.6976 0.0000 0.0000
# 5 0.0000 0.0000 0.0000 0.0000 420.8333 0.0000
# 6 0.0000 0.0000 0.0000 0.0000 0.0000 0.4682
#
#
#
# Elastic Compliance Matrix: (Units=1/GPa)
#
#
# Indices 1 2 3 4 5 6 
#
# 1 0.011872 -0.002928 -0.007120 0.000000 0.000000 0.000000
# 2 -0.002928 0.011872 -0.007120 0.000000 0.000000 0.000000
# 3 -0.007120 -0.007120 0.026557 0.000000 0.000000 0.000000
# 4 0.000000 0.000000 0.000000 0.002371 0.000000 0.000000
# 5 0.000000 0.000000 0.000000 0.000000 0.002376 0.000000
# 6 0.000000 0.000000 0.000000 0.000000 0.000000 2.135712
#
#
# Mechanical properties :
#
#
# Convention : Reuss Voigt Hill
#
# Bulk Modulus (GPa) = 62.64213 73.90061 68.27137
# Shear Modulus (GPa) = 2.24173 179.26522 90.75347
#
# Velocity S-wave (km/s) = 1.00058 8.94759 6.36634
# Velocity P-wave (km/s) = 5.41393 11.82158 9.19403
#
# Compressibility (1/GPa) = 0.01596370
#
# Stress axis : x y z
#
# Youngs Moduli (GPa) = 84.22936 84.22854 37.65488
#
# Poissons Ratio (x) = 0.24666 0.26811
# Poissons Ratio (y) = 0.24666 0.26812
# Poissons Ratio (z) = 0.59974 0.59974
#
# Static dielectric constant tensor:
#      x y z
#    x 1.532160 0.000000 0.000000 
#    y 0.000000 1.532780 0.000000 
#    z 0.000000 0.000000 1.931770 
# 
# From -- ./inp_files/20900.got.cif
#   From: 2010.05.17/outbox.cif.g08.bks.cpg/sg91_11_cif.got.tgz:20900.got - 2010.06.03 19:20:03.
