data_PCOD9548867
_publ_section_title
;
Structure prediction by ZEFSAII (Michael W. Deem and Ramdas Pophale) SiO2 
 PCOD9548867
Probable space group: P 41 21 2
;
_chemical_formula_sum "Si O2"
_cell_formula_units_Z 48
_cell_length_a 13.564364
_cell_length_b 13.564364
_cell_length_c 10.122076
_cell_angle_alpha 90.000000
_cell_angle_beta 90.000000
_cell_angle_gamma 90.000000
_cell_volume 1862.380711
_symmetry_space_group_name_H-M "P 41 21 2"
_symmetry_group_IT_number 92
_symmetry_cell_setting 'tetragonal'
loop_
_space_group_symop_operation_xyz
x,y,z
1/2-y,1/2+x,1/4+z
-x,-y,1/2+z
1/2+y,1/2-x,3/4+z
1/2+x,1/2-y,3/4-z
1/2-x,1/2+y,1/4-z
y,x,-z
-y,-x,1/2-z
loop_
_atom_site_type_symbol
_atom_site_label
_atom_site_fract_x
_atom_site_fract_y
_atom_site_fract_z
Si Si1 0.209821 0.228887 0.158145
Si Si2 0.464430 0.635737 0.543369
Si Si3 0.500317 0.327026 0.773140
Si Si4 0.502623 0.293974 0.492179
Si Si5 0.094141 0.531627 0.171146
Si Si6 0.261881 0.912497 0.486278
O O1 0.207294 0.121638 0.229143
O O2 0.101334 0.263223 0.203650
O O3 0.303080 0.281653 0.219786
O O4 0.229785 0.229785 0.000000
O O5 0.599993 0.400007 0.750000
O O6 0.531317 0.624952 0.411165
O O7 0.394991 0.543195 0.574126
O O8 0.509883 0.692369 0.663856
O O9 0.453664 0.329631 0.627874
O O10 0.504548 0.208836 0.801936
O O11 0.442594 0.230640 0.388637
O O12 0.040073 0.543914 0.312548
O O13 0.087932 0.637996 0.098307
#
# Coordination Sequence:
#
# PCOD9548867 Si02
#       6
#     8   8   8   8   8   8
#     4  10  18  38  59  84 131 169 219 268 327 413
#     4   9  17  35  56  84 118 159 220 269 311 394
#     4  10  17  40  62  75 117 174 222 257 310 397
#     4   9  19  33  59  86 119 159 213 282 316 385
#     4  12  25  38  52  87 138 170 206 264 337 422
#     4  12  19  33  62  87 121 172 221 263 335 400
#
# _framework density 25.773463
#
# number of rings (size 3 to 8) (size 9 to 14) (size 15 to 20)
#    1.000    0.667    5.000    0.500    2.333    0.000 
#    0.000    0.000    3.667    0.000    0.000    9.333 
#   10.000    0.000    0.000    0.000    0.000    0.000 
#
# Total GULP energy -267556.005123 kJ/mol
# GULP energy per Si atom -5574.083440 kJ/mol
# Density = 2.571480 g / cm^3
# Si number density = 25.773463 Si / 1000 Ang^3
#
#
#
# Elastic Constant Matrix: (Units=GPa)
#
#
# Indices 1 2 3 4 5 6 
#
# 1 86.5426 25.3633 55.2663 0.0000 0.0000 0.0000
# 2 25.3633 86.5426 55.2663 0.0000 0.0000 0.0000
# 3 55.2663 55.2663 188.9432 0.0000 0.0000 0.0000
# 4 0.0000 0.0000 0.0000 38.8146 0.0000 0.0000
# 5 0.0000 0.0000 0.0000 0.0000 38.8146 0.0000
# 6 0.0000 0.0000 0.0000 0.0000 0.0000 15.5949
#
#
#
# Elastic Compliance Matrix: (Units=1/GPa)
#
#
# Indices 1 2 3 4 5 6 
#
# 1 0.014456 -0.001889 -0.003676 0.000000 0.000000 0.000000
# 2 -0.001889 0.014456 -0.003676 0.000000 0.000000 0.000000
# 3 -0.003676 -0.003676 0.007443 0.000000 0.000000 0.000000
# 4 0.000000 0.000000 0.000000 0.025764 0.000000 0.000000
# 5 0.000000 0.000000 0.000000 0.000000 0.025764 0.000000
# 6 0.000000 0.000000 0.000000 0.000000 0.000000 0.064123
#
#
# Mechanical properties :
#
#
# Convention : Reuss Voigt Hill
#
# Bulk Modulus (GPa) = 55.94947 70.42449 63.18698
# Shear Modulus (GPa) = 28.33740 33.72031 31.02885
#
# Velocity S-wave (km/s) = 3.31944 3.62101 3.47350
# Velocity P-wave (km/s) = 6.03712 6.69821 6.37624
#
# Compressibility (1/GPa) = 0.01787327
#
# Stress axis : x y z
#
# Youngs Moduli (GPa) = 69.17499 69.17499 134.35508
#
# Poissons Ratio (x) = 0.13069 0.49386
# Poissons Ratio (y) = 0.13069 0.49386
# Poissons Ratio (z) = 0.25427 0.25427
#
# Static dielectric constant tensor:
#      x y z
#    x 2.237350 0.000000 0.000000 
#    y 0.000000 2.237350 0.000000 
#    z 0.000000 0.000000 2.087520 
# 
# From -- ./inp_files/1484.got.cif
#   From: 2010.05.17/outbox.cif.g08.bks.cpg/sg92_1_cif.got.tgz:1484.got - 2010.06.03 19:35:17.
