data_PCOD9548579
_publ_section_title
;
Structure prediction by ZEFSAII (Michael W. Deem and Ramdas Pophale) SiO2 
 PCOD9548579
Probable space group: P 41 2 2
;
_chemical_formula_sum "Si O2"
_cell_formula_units_Z 48
_cell_length_a 8.045786
_cell_length_b 8.045786
_cell_length_c 27.727915
_cell_angle_alpha 90.000000
_cell_angle_beta 90.000000
_cell_angle_gamma 90.000000
_cell_volume 1794.957493
_symmetry_space_group_name_H-M "P 41 2 2"
_symmetry_group_IT_number 91
_symmetry_cell_setting 'tetragonal'
loop_
_space_group_symop_operation_xyz
x,y,z
-y,x,1/4+z
-x,-y,1/2+z
y,-x,3/4+z
x,-y,1/2-z
-x,y,-z
y,x,3/4-z
-y,-x,1/4-z
loop_
_atom_site_type_symbol
_atom_site_label
_atom_site_fract_x
_atom_site_fract_y
_atom_site_fract_z
Si Si1 0.168162 0.199267 0.061147
Si Si2 0.907241 0.849610 0.931904
Si Si3 0.361877 0.439275 0.194697
Si Si4 0.042654 0.725541 0.339996
Si Si5 0.516830 0.734116 0.441250
Si Si6 0.446213 0.176945 0.262029
O O1 0.353096 0.188715 0.082975
O O2 0.037300 0.234367 0.103189
O O3 0.167110 0.363906 0.028703
O O4 0.148798 0.016571 0.039665
O O5 0.870805 0.870805 0.875000
O O6 0.790078 0.692291 0.946873
O O7 0.107958 0.877907 0.933207
O O8 0.328993 0.500000 0.250000
O O9 0.539084 0.509309 0.176879
O O10 0.440310 0.262378 0.210601
O O11 0.187783 0.413904 0.168344
O O12 0.862486 0.663209 0.321983
O O13 0.500000 0.737579 0.500000
O O14 0.374714 0.000000 0.250000
#
# Coordination Sequence:
#
# PCOD9548579 Si02
#       6
#     8   8   8   8   8   8
#     4  11  27  46  68 104 139 184 237 288 358 427
#     4  10  26  46  66 102 140 183 239 289 355 424
#     4  11  24  45  66 107 136 182 242 280 356 424
#     4  11  26  45  71 100 140 189 228 294 359 417
#     4  11  25  46  70 102 143 186 236 295 352 425
#     4  12  25  43  72 100 140 182 232 292 346 424
#
# _framework density 26.741579000000002
#
# number of rings (size 3 to 8) (size 9 to 14) (size 15 to 20)
#    0.000    1.000    5.000    0.500   11.667    1.333 
#    6.000    0.000    0.000    0.000    0.000    0.000 
#    0.000    0.000    0.000    0.000    0.000    0.000 
#
# Total GULP energy -267294.279427 kJ/mol
# GULP energy per Si atom -5568.630821 kJ/mol
# Density = 2.668071 g / cm^3
# Si number density = 26.741579 Si / 1000 Ang^3
#
#
#
# Elastic Constant Matrix: (Units=GPa)
#
#
# Indices 1 2 3 4 5 6 
#
# 1 120.1395 17.5799 7.9553 0.0000 0.0000 0.0000
# 2 17.5799 120.1395 7.9553 0.0000 0.0000 0.0000
# 3 7.9553 7.9553 60.1625 0.0000 0.0000 0.0000
# 4 0.0000 0.0000 0.0000 32.1503 0.0000 0.0000
# 5 0.0000 0.0000 0.0000 0.0000 32.1503 0.0000
# 6 0.0000 0.0000 0.0000 0.0000 0.0000 53.6468
#
#
#
# Elastic Compliance Matrix: (Units=1/GPa)
#
#
# Indices 1 2 3 4 5 6 
#
# 1 0.008562 -0.001188 -0.000975 0.000000 0.000000 0.000000
# 2 -0.001188 0.008562 -0.000975 0.000000 0.000000 0.000000
# 3 -0.000975 -0.000975 0.016880 0.000000 0.000000 0.000000
# 4 0.000000 0.000000 0.000000 0.031104 0.000000 0.000000
# 5 0.000000 0.000000 0.000000 0.000000 0.031104 0.000000
# 6 0.000000 0.000000 0.000000 0.000000 0.000000 0.018640
#
#
# Mechanical properties :
#
#
# Convention : Reuss Voigt Hill
#
# Bulk Modulus (GPa) = 36.06601 40.82472 38.44536
# Shear Modulus (GPa) = 38.35207 41.38622 39.86915
#
# Velocity S-wave (km/s) = 3.79116 3.93827 3.86541
# Velocity P-wave (km/s) = 5.71664 5.99829 5.85916
#
# Compressibility (1/GPa) = 0.02772694
#
# Stress axis : x y z
#
# Youngs Moduli (GPa) = 116.79369 116.79369 59.24341
#
# Poissons Ratio (x) = 0.13879 0.05776
# Poissons Ratio (y) = 0.13879 0.05776
# Poissons Ratio (z) = 0.11388 0.11388
#
# Static dielectric constant tensor:
#      x y z
#    x 2.362950 0.000000 0.000000 
#    y 0.000000 2.362950 0.000000 
#    z 0.000000 0.000000 2.070490 
# 
# From -- ./inp_files/13600.got.cif
#   From: 2010.05.17/outbox.cif.g08.bks.cpg/sg91_7_cif.got.tgz:13600.got - 2010.06.03 19:20:03.
