data_PCOD9548942
_publ_section_title
;
Structure prediction by ZEFSAII (Michael W. Deem and Ramdas Pophale) SiO2 
 PCOD9548942
Probable space group: P 41 21 2
;
_chemical_formula_sum "Si O2"
_cell_formula_units_Z 64
_cell_length_a 17.733668
_cell_length_b 17.733668
_cell_length_c 7.973560
_cell_angle_alpha 90.000000
_cell_angle_beta 90.000000
_cell_angle_gamma 90.000000
_cell_volume 2507.548916
_symmetry_space_group_name_H-M "P 41 21 2"
_symmetry_group_IT_number 92
_symmetry_cell_setting 'tetragonal'
loop_
_space_group_symop_operation_xyz
x,y,z
1/2-y,1/2+x,1/4+z
-x,-y,1/2+z
1/2+y,1/2-x,3/4+z
1/2+x,1/2-y,3/4-z
1/2-x,1/2+y,1/4-z
y,x,-z
-y,-x,1/2-z
loop_
_atom_site_type_symbol
_atom_site_label
_atom_site_fract_x
_atom_site_fract_y
_atom_site_fract_z
Si Si1 0.554070 0.699046 0.616206
Si Si2 0.429986 0.952616 0.628834
Si Si3 0.214365 0.348750 0.642102
Si Si4 0.890159 0.950663 0.647331
Si Si5 0.086576 0.183475 0.395295
Si Si6 0.767270 0.368824 0.685115
Si Si7 0.323486 0.167027 0.725178
Si Si8 0.343295 0.981964 0.139664
O O1 0.624602 0.714303 0.742578
O O2 0.530027 0.637443 0.473180
O O3 0.485028 0.687114 0.739767
O O4 0.541507 0.776391 0.516424
O O5 0.463390 0.936272 0.810891
O O6 0.347154 0.917378 0.611880
O O7 0.489713 0.909985 0.507366
O O8 0.170181 0.288266 0.758731
O O9 0.219365 0.327545 0.443282
O O10 0.951697 0.951697 0.500000
O O11 0.922140 0.888071 0.774435
O O12 0.813686 0.909041 0.580591
O O13 0.160382 0.160382 0.500000
O O14 0.100157 0.266527 0.325380
O O15 0.821026 0.441850 0.708062
O O16 0.783400 0.314762 0.844010
O O17 0.408550 0.151054 0.777525
#
# Coordination Sequence:
#
# PCOD9548942 Si02
#       8
#     8   8   8   8   8   8   8   8
#     4  10  20  36  51  69 108 129 179 241 277 340
#     4  11  22  32  42  59  92 129 181 228 266 310
#     4  11  23  36  48  71 101 141 172 226 292 323
#     4  10  19  35  58  76 100 136 188 243 288 328
#     4  10  21  36  53  78  98 140 192 239 287 335
#     4  10  21  38  52  77 109 129 183 238 263 344
#     4  12  22  32  59  71  98 144 186 229 286 336
#     4  10  20  36  47  70  99 136 176 231 283 317
#
# _framework density 25.522929000000001
#
# number of rings (size 3 to 8) (size 9 to 14) (size 15 to 20)
#    0.000    1.500    3.750    3.750    3.500    0.000 
#    0.000    0.000    0.000    0.000    0.000    0.000 
#    0.000    0.000    0.000    0.000    0.000  537.500 
#
# Total GULP energy -357188.962634 kJ/mol
# GULP energy per Si atom -5581.077541 kJ/mol
# Density = 2.546484 g / cm^3
# Si number density = 25.522929 Si / 1000 Ang^3
#
#
#
# Elastic Constant Matrix: (Units=GPa)
#
#
# Indices 1 2 3 4 5 6 
#
# 1 29.2460 64.3583 32.7241 0.0000 0.0000 0.0000
# 2 64.3583 29.2460 32.7241 0.0000 0.0000 0.0000
# 3 32.7241 32.7241 151.4465 0.0000 0.0000 0.0000
# 4 0.0000 0.0000 0.0000 27.7822 0.0000 0.0000
# 5 0.0000 0.0000 0.0000 0.0000 27.7822 0.0000
# 6 0.0000 0.0000 0.0000 0.0000 0.0000 -16.1901
#
#
#
# Elastic Compliance Matrix: (Units=1/GPa)
#
#
# Indices 1 2 3 4 5 6 
#
# 1 -0.007948 0.020532 -0.002719 0.000000 0.000000 0.000000
# 2 0.020532 -0.007948 -0.002719 0.000000 0.000000 0.000000
# 3 -0.002719 -0.002719 0.007778 0.000000 0.000000 0.000000
# 4 0.000000 0.000000 0.000000 0.035994 0.000000 0.000000
# 5 0.000000 0.000000 0.000000 0.000000 0.035994 0.000000
# 6 0.000000 0.000000 0.000000 0.000000 0.000000 -0.061766
#
#
# Mechanical properties :
#
#
# Convention : Reuss Voigt Hill
#
# Bulk Modulus (GPa) = 45.30972 52.17238 48.74105
# Shear Modulus (GPa) = -241.24238 13.21700 -114.01269
#
# Velocity S-wave (km/s) = -9.73268 2.27810 -6.69086
# Velocity P-wave (km/s) = 10.41676 5.23502 6.36803
#
# Compressibility (1/GPa) = 0.02207032
#
# Stress axis : x y z
#
# Youngs Moduli (GPa) = -125.82182 -125.82182 128.56579
#
# Poissons Ratio (x) = 2.58341 0.34960
# Poissons Ratio (y) = 2.58341 0.34960
# Poissons Ratio (z) = -0.34214 -0.34214
#
# Static dielectric constant tensor:
#      x y z
#    x 2.044050 0.000000 0.000000 
#    y 0.000000 2.044050 0.000000 
#    z 0.000000 0.000000 2.130430 
# 
# From -- ./inp_files/1746.got.cif
#   From: 2010.05.17/outbox.cif.g08.bks.cpg/sg92_1_cif.got.tgz:1746.got - 2010.06.03 19:35:17.
