data_PCOD9548501
_publ_section_title
;
Structure prediction by ZEFSAII (Michael W. Deem and Ramdas Pophale) SiO2 
 PCOD9548501
Probable space group: P 41 2 2
;
_chemical_formula_sum "Si O2"
_cell_formula_units_Z 48
_cell_length_a 11.393989
_cell_length_b 11.393989
_cell_length_c 17.647463
_cell_angle_alpha 90.000000
_cell_angle_beta 90.000000
_cell_angle_gamma 90.000000
_cell_volume 2291.046330
_symmetry_space_group_name_H-M "P 41 2 2"
_symmetry_group_IT_number 91
_symmetry_cell_setting 'tetragonal'
loop_
_space_group_symop_operation_xyz
x,y,z
-y,x,1/4+z
-x,-y,1/2+z
y,-x,3/4+z
x,-y,1/2-z
-x,y,-z
y,x,3/4-z
-y,-x,1/4-z
loop_
_atom_site_type_symbol
_atom_site_label
_atom_site_fract_x
_atom_site_fract_y
_atom_site_fract_z
Si Si1 0.860116 0.752891 0.497471
Si Si2 0.804101 0.689880 0.665827
Si Si3 0.443354 0.569702 0.925622
Si Si4 0.339210 0.923854 0.325000
Si Si5 0.793973 0.436104 0.121536
Si Si6 0.052478 0.683301 0.746968
O O1 0.816769 0.693346 0.575155
O O2 0.804915 0.678173 0.430034
O O3 0.809624 0.884323 0.490491
O O4 0.000000 0.752189 0.500000
O O5 0.701356 0.600229 0.688049
O O6 0.753172 0.818255 0.684107
O O7 0.929602 0.669721 0.704050
O O8 0.558959 0.558959 0.875000
O O9 0.333403 0.500301 0.886287
O O10 0.500000 0.512927 0.000000
O O11 0.470710 0.875162 0.328093
O O12 0.329778 0.968335 0.412578
O O13 0.325232 0.000000 0.250000
O O14 0.852322 0.400635 0.202607
#
# Coordination Sequence:
#
# PCOD9548501 Si02
#       6
#     8   8   8   8   8   8
#     4  11  21  38  67  99 138 172 228 285 347 403
#     4  10  24  42  62 101 136 179 233 278 345 425
#     4  11  24  44  67  98 139 183 226 284 353 429
#     4  10  24  43  64  97 137 189 234 284 353 419
#     4  11  22  41  69 102 133 181 232 293 349 414
#     4  11  23  41  67 103 135 179 234 291 347 415
#
# _framework density 20.951128000000001
#
# number of rings (size 3 to 8) (size 9 to 14) (size 15 to 20)
#    0.000    1.333    1.667    3.500    0.000    5.333 
#    6.000    3.333    0.000    0.000    0.000    0.000 
#    0.000    0.000    0.000    0.000    0.000    0.000 
#
# Total GULP energy -267389.686614 kJ/mol
# GULP energy per Si atom -5570.618471 kJ/mol
# Density = 2.090344 g / cm^3
# Si number density = 20.951128 Si / 1000 Ang^3
#
#
#
# Elastic Constant Matrix: (Units=GPa)
#
#
# Indices 1 2 3 4 5 6 
#
# 1 -233.4685 373.0427 46.2262 0.0000 0.0000 0.0000
# 2 373.0427 -233.4685 46.2262 0.0000 0.0000 0.0000
# 3 46.2262 46.2262 132.0596 0.0000 0.0000 0.0000
# 4 0.0000 0.0000 0.0000 -32.4556 0.0000 0.0000
# 5 0.0000 0.0000 0.0000 0.0000 -32.4556 0.0000
# 6 0.0000 0.0000 0.0000 0.0000 0.0000 18.0290
#
#
#
# Elastic Compliance Matrix: (Units=1/GPa)
#
#
# Indices 1 2 3 4 5 6 
#
# 1 0.003839 0.005488 -0.003265 0.000000 0.000000 0.000000
# 2 0.005488 0.003839 -0.003265 0.000000 0.000000 0.000000
# 3 -0.003265 -0.003265 0.009858 0.000000 0.000000 0.000000
# 4 0.000000 0.000000 0.000000 -0.030811 0.000000 0.000000
# 5 0.000000 0.000000 0.000000 0.000000 -0.030811 0.000000
# 6 0.000000 0.000000 0.000000 0.000000 0.000000 0.055466
#
#
# Mechanical properties :
#
#
# Convention : Reuss Voigt Hill
#
# Bulk Modulus (GPa) = 64.71264 66.23475 65.47369
# Shear Modulus (GPa) = 268.60368 -62.73459 102.93454
#
# Velocity S-wave (km/s) = 11.33504 -5.47798 7.01694
# Velocity P-wave (km/s) = 14.22200 2.88592 9.84726
#
# Compressibility (1/GPa) = 0.01545293
#
# Stress axis : x y z
#
# Youngs Moduli (GPa) = 260.46633 260.46633 101.43987
#
# Poissons Ratio (x) = -1.42945 0.33119
# Poissons Ratio (y) = -1.42945 0.33119
# Poissons Ratio (z) = 0.85041 0.85041
#
# Static dielectric constant tensor:
#      x y z
#    x 1.820500 0.000000 0.000000 
#    y 0.000000 1.820500 0.000000 
#    z 0.000000 0.000000 1.631590 
# 
# From -- ./inp_files/21118.got.cif
#   From: 2010.05.17/outbox.cif.g08.bks.cpg/sg91_11_cif.got.tgz:21118.got - 2010.06.03 19:20:03.
