data_PCOD9548730
_publ_section_title
;
Structure prediction by ZEFSAII (Michael W. Deem and Ramdas Pophale) SiO2 
 PCOD9548730
Probable space group: P 41 2 2
;
_chemical_formula_sum "Si O2"
_cell_formula_units_Z 40
_cell_length_a 9.125987
_cell_length_b 9.125987
_cell_length_c 20.617311
_cell_angle_alpha 90.000000
_cell_angle_beta 90.000000
_cell_angle_gamma 90.000000
_cell_volume 1717.084681
_symmetry_space_group_name_H-M "P 41 2 2"
_symmetry_group_IT_number 91
_symmetry_cell_setting 'tetragonal'
loop_
_space_group_symop_operation_xyz
x,y,z
-y,x,1/4+z
-x,-y,1/2+z
y,-x,3/4+z
x,-y,1/2-z
-x,y,-z
y,x,3/4-z
-y,-x,1/4-z
loop_
_atom_site_type_symbol
_atom_site_label
_atom_site_fract_x
_atom_site_fract_y
_atom_site_fract_z
Si Si1 0.607686 0.672702 0.746934
Si Si2 0.192234 0.395963 0.644983
Si Si3 0.931042 0.659840 0.784503
Si Si4 0.648162 0.134841 0.297820
Si Si5 0.290034 0.077007 0.911723
O O1 0.560260 0.500000 0.750000
O O2 0.622716 0.721191 0.671773
O O3 0.504891 0.797679 0.776216
O O4 0.759901 0.682541 0.785541
O O5 0.022338 0.343312 0.649289
O O6 0.262139 0.286321 0.697130
O O7 0.184805 0.567836 0.663258
O O8 0.949705 0.500000 0.750000
O O9 0.008593 0.759589 0.729884
O O10 0.687778 0.000000 0.250000
O O11 0.659459 0.059290 0.367501
O O12 0.162835 0.162835 0.875000
#
# Coordination Sequence:
#
# PCOD9548730 Si02
#       5
#     8   8   8   8   8
#     4  11  25  44  72 110 145 191 253 313 380 443
#     4  11  24  45  71 103 142 192 246 310 372 444
#     4   9  21  44  66  96 144 189 231 299 374 440
#     4  12  25  43  72 108 144 190 247 310 374 451
#     4  11  23  44  72 103 143 190 246 311 372 454
#
# _framework density 23.295300000000001
#
# number of rings (size 3 to 8) (size 9 to 14) (size 15 to 20)
#    0.000    1.200    4.000    1.200    2.800    0.800 
#    0.000    5.000    0.000    0.000    0.000    0.000 
#    0.000    0.000    0.000    0.000    0.000    0.000 
#
# Total GULP energy -223140.077577 kJ/mol
# GULP energy per Si atom -5578.501939 kJ/mol
# Density = 2.324228 g / cm^3
# Si number density = 23.295300 Si / 1000 Ang^3
#
#
#
# Elastic Constant Matrix: (Units=GPa)
#
#
# Indices 1 2 3 4 5 6 
#
# 1 62.4709 24.9441 13.0480 0.0000 0.0000 0.0000
# 2 24.9441 62.4709 13.0480 0.0000 0.0000 0.0000
# 3 13.0480 13.0480 66.4434 0.0000 0.0000 0.0000
# 4 0.0000 0.0000 0.0000 35.5276 0.0000 0.0000
# 5 0.0000 0.0000 0.0000 0.0000 35.5276 0.0000
# 6 0.0000 0.0000 0.0000 0.0000 0.0000 -1.7801
#
#
#
# Elastic Compliance Matrix: (Units=1/GPa)
#
#
# Indices 1 2 3 4 5 6 
#
# 1 0.019400 -0.007248 -0.002386 0.000000 0.000000 0.000000
# 2 -0.007248 0.019400 -0.002386 0.000000 0.000000 0.000000
# 3 -0.002386 -0.002386 0.015988 0.000000 0.000000 0.000000
# 4 0.000000 0.000000 0.000000 0.028147 0.000000 0.000000
# 5 0.000000 0.000000 0.000000 0.000000 0.028147 0.000000
# 6 0.000000 0.000000 0.000000 0.000000 0.000000 -0.561774
#
#
# Mechanical properties :
#
#
# Convention : Reuss Voigt Hill
#
# Bulk Modulus (GPa) = 32.52431 32.60730 32.56580
# Shear Modulus (GPa) = -12.00762 23.21136 5.60187
#
# Velocity S-wave (km/s) = -2.27282 3.16000 1.55240
# Velocity P-wave (km/s) = 2.66541 5.22895 4.15008
#
# Compressibility (1/GPa) = 0.03074624
#
# Stress axis : x y z
#
# Youngs Moduli (GPa) = 51.54673 51.54673 62.54817
#
# Poissons Ratio (x) = 0.37360 0.14927
# Poissons Ratio (y) = 0.37360 0.14927
# Poissons Ratio (z) = 0.12301 0.12301
#
# Static dielectric constant tensor:
#      x y z
#    x 1.931010 0.000000 0.000000 
#    y 0.000000 1.931010 0.000000 
#    z 0.000000 0.000000 1.964320 
# 
# From -- ./inp_files/6773.got.cif
#   From: 2010.05.17/outbox.cif.g08.bks.cpg/sg91_4_cif.got.tgz:6773.got - 2010.06.03 19:20:03.
