data_PCOD9548404
_publ_section_title
;
Structure prediction by ZEFSAII (Michael W. Deem and Ramdas Pophale) SiO2 
 PCOD9548404
Probable space group: P 41 2 2
;
_chemical_formula_sum "Si O2"
_cell_formula_units_Z 24
_cell_length_a 14.444549
_cell_length_b 14.444549
_cell_length_c 5.326906
_cell_angle_alpha 90.000000
_cell_angle_beta 90.000000
_cell_angle_gamma 90.000000
_cell_volume 1111.432280
_symmetry_space_group_name_H-M "P 41 2 2"
_symmetry_group_IT_number 91
_symmetry_cell_setting 'tetragonal'
loop_
_space_group_symop_operation_xyz
x,y,z
-y,x,1/4+z
-x,-y,1/2+z
y,-x,3/4+z
x,-y,1/2-z
-x,y,-z
y,x,3/4-z
-y,-x,1/4-z
loop_
_atom_site_type_symbol
_atom_site_label
_atom_site_fract_x
_atom_site_fract_y
_atom_site_fract_z
Si Si1 0.712859 0.500000 0.250000
Si Si2 0.197898 0.331734 0.998268
Si Si3 0.364037 0.364037 0.375000
Si Si4 0.000000 0.738672 0.500000
Si Si5 0.856203 0.000000 0.750000
O O1 0.780587 0.584721 0.311281
O O2 0.646567 0.456348 0.461450
O O3 0.238159 0.238159 0.875000
O O4 0.091877 0.318828 0.067477
O O5 0.269485 0.358024 0.215923
O O6 0.026258 0.795862 0.753894
O O7 0.921029 0.921029 0.875000
#
# Coordination Sequence:
#
# PCOD9548404 Si02
#       5
#     4   8   4   4   4
#     4  10  22  44  74 102 144 186 234 302 366 442
#     4  10  23  44  70 100 142 194 235 299 357 432
#     4  10  22  44  76 100 146 186 234 300 370 434
#     4  12  27  42  73 108 144 202 246 294 370 428
#     4  12  25  44  65 104 148 190 250 316 354 424
#
# _framework density 21.593758999999999
#
# number of rings (size 3 to 8) (size 9 to 14) (size 15 to 20)
#    0.000    1.333    0.000    5.000   11.667    0.000 
#    6.000    0.000  132.000    0.000    0.000    0.000 
#    0.000    0.000    0.000    0.000    0.000    0.000 
#
# Total GULP energy -133889.681224 kJ/mol
# GULP energy per Si atom -5578.736718 kJ/mol
# Density = 2.154461 g / cm^3
# Si number density = 21.593759 Si / 1000 Ang^3
#
#
#
# Elastic Constant Matrix: (Units=GPa)
#
#
# Indices 1 2 3 4 5 6 
#
# 1 118.0971 45.7499 24.4424 0.0000 0.0000 0.0000
# 2 45.7499 118.0971 24.4424 0.0000 0.0000 0.0000
# 3 24.4424 24.4424 101.5942 0.0000 0.0000 0.0000
# 4 0.0000 0.0000 0.0000 18.6299 0.0000 0.0000
# 5 0.0000 0.0000 0.0000 0.0000 18.6299 0.0000
# 6 0.0000 0.0000 0.0000 0.0000 0.0000 -5.9552
#
#
#
# Elastic Compliance Matrix: (Units=1/GPa)
#
#
# Indices 1 2 3 4 5 6 
#
# 1 0.010199 -0.003624 -0.001582 0.000000 0.000000 0.000000
# 2 -0.003624 0.010199 -0.001582 0.000000 0.000000 0.000000
# 3 -0.001582 -0.001582 0.010604 0.000000 0.000000 0.000000
# 4 0.000000 0.000000 0.000000 0.053677 0.000000 0.000000
# 5 0.000000 0.000000 0.000000 0.000000 0.053677 0.000000
# 6 0.000000 0.000000 0.000000 0.000000 0.000000 -0.167921
#
#
# Mechanical properties :
#
#
# Convention : Reuss Voigt Hill
#
# Bulk Modulus (GPa) = 57.38214 58.56200 57.97207
# Shear Modulus (GPa) = -491.11702 22.47116 -234.32293
#
# Velocity S-wave (km/s) = -15.09730 3.22938 -10.42832
# Velocity P-wave (km/s) = 16.65153 6.40968 10.86714
#
# Compressibility (1/GPa) = 0.01742702
#
# Stress axis : x y z
#
# Youngs Moduli (GPa) = 98.05135 98.05135 94.30164
#
# Poissons Ratio (x) = 0.35529 0.14918
# Poissons Ratio (y) = 0.35529 0.14918
# Poissons Ratio (z) = 0.15511 0.15511
#
# Static dielectric constant tensor:
#      x y z
#    x 1.778370 0.000000 0.000000 
#    y 0.000000 1.778370 0.000000 
#    z 0.000000 0.000000 1.818430 
# 
# From -- ./inp_files/330.got.cif
#   From: 2010.05.17/outbox.cif.g08.bks.cpg/sg91_1_cif.got.tgz:330.got - 2010.06.03 19:20:03.
