data_PCOD9548792
_publ_section_title
;
Structure prediction by ZEFSAII (Michael W. Deem and Ramdas Pophale) SiO2 
 PCOD9548792
Probable space group: P 41 2 2
;
_chemical_formula_sum "Si O2"
_cell_formula_units_Z 56
_cell_length_a 15.229271
_cell_length_b 15.229271
_cell_length_c 10.733335
_cell_angle_alpha 90.000000
_cell_angle_beta 90.000000
_cell_angle_gamma 90.000000
_cell_volume 2489.389848
_symmetry_space_group_name_H-M "P 41 2 2"
_symmetry_group_IT_number 91
_symmetry_cell_setting 'tetragonal'
loop_
_space_group_symop_operation_xyz
x,y,z
-y,x,1/4+z
-x,-y,1/2+z
y,-x,3/4+z
x,-y,1/2-z
-x,y,-z
y,x,3/4-z
-y,-x,1/4-z
loop_
_atom_site_type_symbol
_atom_site_label
_atom_site_fract_x
_atom_site_fract_y
_atom_site_fract_z
Si Si1 0.428775 0.901057 0.301410
Si Si2 0.100976 0.896100 0.485003
Si Si3 0.282352 0.973615 0.477566
Si Si4 0.602009 0.690345 0.481290
Si Si5 0.138231 0.630317 0.583538
Si Si6 0.660134 0.723765 0.752610
Si Si7 0.853724 0.273004 0.829675
O O1 0.347692 0.915550 0.395641
O O2 0.527831 0.884337 0.347613
O O3 0.400944 0.810174 0.232977
O O4 0.435042 0.000000 0.250000
O O5 0.129148 0.870853 0.625000
O O6 0.180531 0.959200 0.443888
O O7 0.105127 0.813442 0.394107
O O8 0.000000 0.927890 0.500000
O O9 0.309477 0.940209 0.615171
O O10 0.303940 0.076210 0.477323
O O11 0.500000 0.707352 0.500000
O O12 0.617593 0.617593 0.375000
O O13 0.645739 0.776101 0.418041
O O14 0.636267 0.677069 0.621394
O O15 0.156248 0.656427 0.440784
O O16 0.662851 0.662851 0.875000
O O17 0.761407 0.750064 0.730128
#
# Coordination Sequence:
#
# PCOD9548792 Si02
#       7
#     8   8   8   8   8   8   8
#     4  12  25  43  67 103 151 194 244 306 385 450
#     4  12  22  39  63  94 133 179 245 314 350 415
#     4  12  23  40  65 101 146 182 244 313 362 428
#     4  12  24  49  82 111 139 186 246 297 363 452
#     4  12  22  41  75 111 138 184 242 315 364 448
#     4  12  26  46  69 103 151 200 240 292 376 442
#     4  12  23  41  69 104 139 187 246 302 375 419
#
# _framework density 22.495470999999998
#
# number of rings (size 3 to 8) (size 9 to 14) (size 15 to 20)
#    0.000    0.000    8.571    2.571    0.000    0.000 
#    0.000    8.571    0.000    0.000    0.000    0.000 
#    0.000    0.000    0.000    0.000    0.000    0.000 
#
# Total GULP energy -312575.049861 kJ/mol
# GULP energy per Si atom -5581.697319 kJ/mol
# Density = 2.244427 g / cm^3
# Si number density = 22.495471 Si / 1000 Ang^3
#
#
#
# Elastic Constant Matrix: (Units=GPa)
#
#
# Indices 1 2 3 4 5 6 
#
# 1 82.6289 50.0000 27.0133 0.0000 0.0000 0.0000
# 2 50.0000 82.6281 27.0132 0.0000 0.0000 0.0000
# 3 27.0133 27.0132 88.6947 0.0000 0.0000 0.0000
# 4 0.0000 0.0000 0.0000 26.6703 0.0000 0.0000
# 5 0.0000 0.0000 0.0000 0.0000 26.6703 0.0000
# 6 0.0000 0.0000 0.0000 0.0000 0.0000 27.3363
#
#
#
# Elastic Compliance Matrix: (Units=1/GPa)
#
#
# Indices 1 2 3 4 5 6 
#
# 1 0.019628 -0.011020 -0.002622 0.000000 0.000000 0.000000
# 2 -0.011020 0.019628 -0.002622 0.000000 0.000000 0.000000
# 3 -0.002622 -0.002622 0.012872 0.000000 0.000000 0.000000
# 4 0.000000 0.000000 0.000000 0.037495 0.000000 0.000000
# 5 0.000000 0.000000 0.000000 0.000000 0.037495 0.000000
# 6 0.000000 0.000000 0.000000 0.000000 0.000000 0.036581
#
#
# Mechanical properties :
#
#
# Convention : Reuss Voigt Hill
#
# Bulk Modulus (GPa) = 51.01882 51.33384 51.17633
# Shear Modulus (GPa) = 24.65984 26.13040 25.39512
#
# Velocity S-wave (km/s) = 3.31450 3.41190 3.36355
# Velocity P-wave (km/s) = 6.11365 6.19601 6.15497
#
# Compressibility (1/GPa) = 0.01960061
#
# Stress axis : x y z
#
# Youngs Moduli (GPa) = 50.94808 50.94758 77.69078
#
# Poissons Ratio (x) = 0.56145 0.20367
# Poissons Ratio (y) = 0.56145 0.20368
# Poissons Ratio (z) = 0.13357 0.13357
#
# Static dielectric constant tensor:
#      x y z
#    x 1.859440 0.000000 0.000000 
#    y 0.000000 1.859440 0.000000 
#    z 0.000000 0.000000 1.943930 
# 
# From -- ./inp_files/20338.got.cif
#   From: 2010.05.17/outbox.cif.g08.bks.cpg/sg91_11_cif.got.tgz:20338.got - 2010.06.03 19:20:03.
