data_PCOD9548179
_publ_section_title
;
Structure prediction by ZEFSAII (Michael W. Deem and Ramdas Pophale) SiO2 
 PCOD9548179
Probable space group: P 41 2 2
;
_chemical_formula_sum "Si O2"
_cell_formula_units_Z 32
_cell_length_a 10.785609
_cell_length_b 10.785609
_cell_length_c 13.166390
_cell_angle_alpha 90.000000
_cell_angle_beta 90.000000
_cell_angle_gamma 90.000000
_cell_volume 1531.637742
_symmetry_space_group_name_H-M "P 41 2 2"
_symmetry_group_IT_number 91
_symmetry_cell_setting 'tetragonal'
loop_
_space_group_symop_operation_xyz
x,y,z
-y,x,1/4+z
-x,-y,1/2+z
y,-x,3/4+z
x,-y,1/2-z
-x,y,-z
y,x,3/4-z
-y,-x,1/4-z
loop_
_atom_site_type_symbol
_atom_site_label
_atom_site_fract_x
_atom_site_fract_y
_atom_site_fract_z
Si Si1 0.588764 0.755787 0.798958
Si Si2 0.755046 0.673922 0.625489
Si Si3 0.956829 0.379964 0.706687
Si Si4 0.859621 0.114158 0.008476
O O1 0.665935 0.665935 0.875000
O O2 0.643721 0.740661 0.686173
O O3 0.445051 0.719176 0.809120
O O4 0.605690 0.894127 0.846082
O O5 0.842602 0.624010 0.714690
O O6 0.839248 0.766723 0.561451
O O7 0.031041 0.500000 0.750000
O O8 0.023502 0.249075 0.721942
O O9 0.846324 0.153676 0.125000
O O10 0.000000 0.063434 0.000000
#
# Coordination Sequence:
#
# PCOD9548179 Si02
#       4
#     8   8   8   8
#     4   9  19  40  69  93 126 166 227 269 332 406
#     4  10  21  41  63  95 127 169 216 284 331 399
#     4   9  20  41  65  90 126 179 220 263 336 416
#     4  12  25  42  61  91 138 175 221 284 341 395
#
# _framework density 20.892666999999999
#
# number of rings (size 3 to 8) (size 9 to 14) (size 15 to 20)
#    0.000    2.000    2.500    2.250    0.000    6.000 
#    0.000    6.250    0.000    0.000    0.000    0.000 
#    0.000    0.000    0.000    0.000    0.000    0.000 
#
# Total GULP energy -178408.178830 kJ/mol
# GULP energy per Si atom -5575.255588 kJ/mol
# Density = 2.084511 g / cm^3
# Si number density = 20.892667 Si / 1000 Ang^3
#
#
#
# Elastic Constant Matrix: (Units=GPa)
#
#
# Indices 1 2 3 4 5 6 
#
# 1 81.9941 61.7442 24.7164 0.0000 0.0000 0.0000
# 2 61.7442 81.9941 24.7164 0.0000 0.0000 0.0000
# 3 24.7164 24.7164 81.3309 0.0000 0.0000 0.0000
# 4 0.0000 0.0000 0.0000 15.9153 0.0000 0.0000
# 5 0.0000 0.0000 0.0000 0.0000 15.9153 0.0000
# 6 0.0000 0.0000 0.0000 0.0000 0.0000 -34.6715
#
#
#
# Elastic Compliance Matrix: (Units=1/GPa)
#
#
# Indices 1 2 3 4 5 6 
#
# 1 0.028576 -0.020807 -0.002361 0.000000 0.000000 0.000000
# 2 -0.020807 0.028576 -0.002361 0.000000 0.000000 0.000000
# 3 -0.002361 -0.002361 0.013730 0.000000 0.000000 0.000000
# 4 0.000000 0.000000 0.000000 0.062833 0.000000 0.000000
# 5 0.000000 0.000000 0.000000 0.000000 0.062833 0.000000
# 6 0.000000 0.000000 0.000000 0.000000 0.000000 -0.028842
#
#
# Mechanical properties :
#
#
# Convention : Reuss Voigt Hill
#
# Bulk Modulus (GPa) = 50.44252 51.96367 51.20309
# Shear Modulus (GPa) = 22.18559 8.37464 15.28011
#
# Velocity S-wave (km/s) = 3.26219 2.00427 2.70731
# Velocity P-wave (km/s) = 6.19558 5.50290 5.85948
#
# Compressibility (1/GPa) = 0.01982455
#
# Stress axis : x y z
#
# Youngs Moduli (GPa) = 34.99446 34.99446 72.83078
#
# Poissons Ratio (x) = 0.72813 0.17195
# Poissons Ratio (y) = 0.72813 0.17195
# Poissons Ratio (z) = 0.08262 0.08262
#
# Static dielectric constant tensor:
#      x y z
#    x 1.797350 0.000000 0.000000 
#    y 0.000000 1.797350 0.000000 
#    z 0.000000 0.000000 1.794110 
# 
# From -- ./inp_files/3369.got.cif
#   From: 2010.05.17/outbox.cif.g08.bks.cpg/sg91_2_cif.got.tgz:3369.got - 2010.06.03 19:20:03.
