data_PCOD9548771
_publ_section_title
;
Structure prediction by ZEFSAII (Michael W. Deem and Ramdas Pophale) SiO2 
 PCOD9548771
Probable space group: P 41 2 2
;
_chemical_formula_sum "Si O2"
_cell_formula_units_Z 24
_cell_length_a 14.617015
_cell_length_b 14.617015
_cell_length_c 4.885133
_cell_angle_alpha 90.000000
_cell_angle_beta 90.000000
_cell_angle_gamma 90.000000
_cell_volume 1043.743484
_symmetry_space_group_name_H-M "P 41 2 2"
_symmetry_group_IT_number 91
_symmetry_cell_setting 'tetragonal'
loop_
_space_group_symop_operation_xyz
x,y,z
-y,x,1/4+z
-x,-y,1/2+z
y,-x,3/4+z
x,-y,1/2-z
-x,y,-z
y,x,3/4-z
-y,-x,1/4-z
loop_
_atom_site_type_symbol
_atom_site_label
_atom_site_fract_x
_atom_site_fract_y
_atom_site_fract_z
Si Si1 0.406522 0.894983 0.326196
Si Si2 0.769693 0.500000 0.750000
Si Si3 0.103941 0.801906 0.877650
Si Si4 0.500000 0.359597 0.000000
O O1 0.500000 0.873854 0.500000
O O2 0.415685 0.839228 0.040717
O O3 0.305397 0.880928 0.448999
O O4 0.413234 0.000000 0.250000
O O5 0.703363 0.475684 0.502328
O O6 0.131829 0.868172 0.625000
O O7 0.170281 0.829720 0.125000
O O8 0.000000 0.811835 0.000000
O O9 0.421761 0.421761 0.875000
#
# Coordination Sequence:
#
# PCOD9548771 Si02
#       4
#     8   4   8   4
#     4  11  25  46  76 108 153 194 243 308 389 449
#     4  12  25  43  74 108 136 192 248 309 367 460
#     4  11  27  48  77 112 152 200 255 315 382 457
#     4  12  27  49  70  96 144 196 250 309 371 430
#
# _framework density 22.994154999999999
#
# number of rings (size 3 to 8) (size 9 to 14) (size 15 to 20)
#    0.000    0.667    3.333    3.000    4.667    5.333 
#    0.000    0.000    0.000    0.000    0.000    0.000 
#    0.000    0.000    0.000    0.000    0.000    0.000 
#
# Total GULP energy -133715.570106 kJ/mol
# GULP energy per Si atom -5571.482088 kJ/mol
# Density = 2.294182 g / cm^3
# Si number density = 22.994155 Si / 1000 Ang^3
#
#
#
# Elastic Constant Matrix: (Units=GPa)
#
#
# Indices 1 2 3 4 5 6 
#
# 1 143.5702 68.8608 56.1907 0.0000 0.0000 0.0000
# 2 68.8608 143.5699 56.1903 0.0000 0.0000 0.0000
# 3 56.1907 56.1903 136.2079 0.0000 0.0000 0.0000
# 4 0.0000 0.0000 0.0000 15.7261 0.0000 0.0000
# 5 0.0000 0.0000 0.0000 0.0000 15.7284 0.0000
# 6 0.0000 0.0000 0.0000 0.0000 0.0000 -172.7562
#
#
#
# Elastic Compliance Matrix: (Units=1/GPa)
#
#
# Indices 1 2 3 4 5 6 
#
# 1 0.009703 -0.003682 -0.002484 0.000000 0.000000 0.000000
# 2 -0.003682 0.009703 -0.002484 0.000000 0.000000 0.000000
# 3 -0.002484 -0.002484 0.009391 0.000000 0.000000 0.000000
# 4 0.000000 0.000000 0.000000 0.063588 0.000000 0.000000
# 5 0.000000 0.000000 0.000000 0.000000 0.063579 0.000000
# 6 0.000000 0.000000 0.000000 0.000000 0.000000 -0.005789
#
#
# Mechanical properties :
#
#
# Convention : Reuss Voigt Hill
#
# Bulk Modulus (GPa) = 86.97173 87.31461 87.14317
# Shear Modulus (GPa) = 29.18686 -12.11992 8.53347
#
# Velocity S-wave (km/s) = 3.56661 -2.29833 1.92852
# Velocity P-wave (km/s) = 7.40719 5.56883 6.55280
#
# Compressibility (1/GPa) = 0.01149799
#
# Stress axis : x y z
#
# Youngs Moduli (GPa) = 103.05673 103.05679 106.48179
#
# Poissons Ratio (x) = 0.37944 0.26451
# Poissons Ratio (y) = 0.37944 0.26451
# Poissons Ratio (z) = 0.25601 0.25600
#
# Static dielectric constant tensor:
#      x y z
#    x 1.898260 0.000000 0.000000 
#    y 0.000000 1.898260 0.000000 
#    z 0.000000 0.000000 2.075490 
# 
# From -- ./inp_files/18341.got.cif
#   From: 2010.05.17/outbox.cif.g08.bks.cpg/sg91_10_cif.got.tgz:18341.got - 2010.06.03 19:20:03.
