data_PCOD9548961
_publ_section_title
;
Structure prediction by ZEFSAII (Michael W. Deem and Ramdas Pophale) SiO2 
 PCOD9548961
Probable space group: P 41 21 2
;
_chemical_formula_sum "Si O2"
_cell_formula_units_Z 36
_cell_length_a 11.529602
_cell_length_b 11.529602
_cell_length_c 14.887849
_cell_angle_alpha 90.000000
_cell_angle_beta 90.000000
_cell_angle_gamma 90.000000
_cell_volume 1979.067409
_symmetry_space_group_name_H-M "P 41 21 2"
_symmetry_group_IT_number 92
_symmetry_cell_setting 'tetragonal'
loop_
_space_group_symop_operation_xyz
x,y,z
1/2-y,1/2+x,1/4+z
-x,-y,1/2+z
1/2+y,1/2-x,3/4+z
1/2+x,1/2-y,3/4-z
1/2-x,1/2+y,1/4-z
y,x,-z
-y,-x,1/2-z
loop_
_atom_site_type_symbol
_atom_site_label
_atom_site_fract_x
_atom_site_fract_y
_atom_site_fract_z
Si Si1 0.450357 0.410793 0.181047
Si Si2 0.029932 0.970069 0.750000
Si Si3 0.289556 0.822600 0.340889
Si Si4 0.247595 0.590377 0.446840
Si Si5 0.480915 0.198668 0.742068
O O1 0.553518 0.446483 0.250000
O O2 0.473957 0.480283 0.090101
O O3 0.420814 0.281007 0.145399
O O4 0.330279 0.455595 0.224979
O O5 0.990543 0.836987 0.749249
O O6 0.218618 0.781383 0.250000
O O7 0.299704 0.710948 0.406627
O O8 0.416873 0.852043 0.304644
O O9 0.136019 0.627111 0.502165
O O10 0.206173 0.524674 0.358387
#
# Coordination Sequence:
#
# PCOD9548961 Si02
#       5
#     8   4   8   8   8
#     4  11  19  33  59  95 127 155 206 256 311 373
#     4  12  20  36  60  92 120 162 200 260 322 372
#     4   9  17  32  59  92 120 156 212 258 297 358
#     4  10  21  34  63  85 124 163 206 260 320 367
#     4  10  19  38  58  93 120 163 212 262 304 369
#
# _framework density 18.190386
#
# number of rings (size 3 to 8) (size 9 to 14) (size 15 to 20)
#    0.000    1.778    5.556    0.667    0.000    0.000 
#    0.000    2.222    7.333    0.000    0.000    0.000 
#    0.000    0.000    0.000    0.000    0.000    0.000 
#
# Total GULP energy -200615.105059 kJ/mol
# GULP energy per Si atom -5572.641807 kJ/mol
# Density = 1.814898 g / cm^3
# Si number density = 18.190386 Si / 1000 Ang^3
#
#
#
# Elastic Constant Matrix: (Units=GPa)
#
#
# Indices 1 2 3 4 5 6 
#
# 1 158.4747 -26.4232 8.0770 0.0000 0.0000 0.0000
# 2 -26.4232 158.5021 8.0940 0.0000 0.0000 0.0000
# 3 8.0770 8.0940 31.1571 0.0000 0.0000 0.0000
# 4 0.0000 0.0000 0.0000 21.4197 0.0000 0.0000
# 5 0.0000 0.0000 0.0000 0.0000 21.4211 0.0000
# 6 0.0000 0.0000 0.0000 0.0000 0.0000 34.2733
#
#
#
# Elastic Compliance Matrix: (Units=1/GPa)
#
#
# Indices 1 2 3 4 5 6 
#
# 1 0.006615 0.001206 -0.002028 0.000000 0.000000 0.000000
# 2 0.001206 0.006614 -0.002031 0.000000 0.000000 0.000000
# 3 -0.002028 -0.002031 0.033149 0.000000 0.000000 0.000000
# 4 0.000000 0.000000 0.000000 0.046686 0.000000 0.000000
# 5 0.000000 0.000000 0.000000 0.000000 0.046683 0.000000
# 6 0.000000 0.000000 0.000000 0.000000 0.000000 0.029177
#
#
# Mechanical properties :
#
#
# Convention : Reuss Voigt Hill
#
# Bulk Modulus (GPa) = 24.58702 36.40327 30.49514
# Shear Modulus (GPa) = 26.56946 39.31524 32.94235
#
# Velocity S-wave (km/s) = 3.82597 4.65404 4.26017
# Velocity P-wave (km/s) = 5.75006 6.99542 6.40309
#
# Compressibility (1/GPa) = 0.04067187
#
# Stress axis : x y z
#
# Youngs Moduli (GPa) = 151.17957 151.19756 30.16705
#
# Poissons Ratio (x) = -0.18238 0.06118
# Poissons Ratio (y) = -0.18236 0.06126
# Poissons Ratio (z) = 0.30661 0.30706
#
# Static dielectric constant tensor:
#      x y z
#    x 1.706700 0.000000 0.000000 
#    y 0.000000 1.706680 0.000000 
#    z 0.000000 0.000000 1.602780 
# 
# From -- ./inp_files/1995.got.cif
#   From: 2010.05.17/outbox.cif.g08.bks.cpg/sg92_1_cif.got.tgz:1995.got - 2010.06.03 19:35:17.
