data_PCOD9548346
_publ_section_title
;
Structure prediction by ZEFSAII (Michael W. Deem and Ramdas Pophale) SiO2 
 PCOD9548346
Probable space group: P 41 2 2
;
_chemical_formula_sum "Si O2"
_cell_formula_units_Z 24
_cell_length_a 10.249657
_cell_length_b 10.249657
_cell_length_c 9.094324
_cell_angle_alpha 90.000000
_cell_angle_beta 90.000000
_cell_angle_gamma 90.000000
_cell_volume 955.408470
_symmetry_space_group_name_H-M "P 41 2 2"
_symmetry_group_IT_number 91
_symmetry_cell_setting 'tetragonal'
loop_
_space_group_symop_operation_xyz
x,y,z
-y,x,1/4+z
-x,-y,1/2+z
y,-x,3/4+z
x,-y,1/2-z
-x,y,-z
y,x,3/4-z
-y,-x,1/4-z
loop_
_atom_site_type_symbol
_atom_site_label
_atom_site_fract_x
_atom_site_fract_y
_atom_site_fract_z
Si Si1 0.691247 0.193972 0.757031
Si Si2 0.397988 0.812846 0.817035
Si Si3 0.926557 0.263677 0.189167
O O1 0.793928 0.206073 0.625000
O O2 0.551978 0.173132 0.680621
O O3 0.693739 0.332770 0.845965
O O4 0.724945 0.093915 0.887039
O O5 0.362405 0.828158 0.645543
O O6 0.317770 0.934642 0.887445
O O7 0.876074 0.123927 0.125000
#
# Coordination Sequence:
#
# PCOD9548346 Si02
#       3
#     8   8   8
#     4  11  23  39  64 100 137 183 235 291 357 429
#     4  10  22  42  66  94 139 185 239 297 359 439
#     4   9  21  42  70  98 132 184 240 298 364 432
#
# _framework density 25.120146999999999
#
# number of rings (size 3 to 8) (size 9 to 14) (size 15 to 20)
#    0.000    2.000    0.000    2.000    0.000   14.667 
#    0.000   18.333    0.000   46.000    0.000    0.000 
#    0.000    0.000    0.000    0.000    0.000    0.000 
#
# Total GULP energy -133970.764282 kJ/mol
# GULP energy per Si atom -5582.115178 kJ/mol
# Density = 2.506297 g / cm^3
# Si number density = 25.120147 Si / 1000 Ang^3
#
#
#
# Elastic Constant Matrix: (Units=GPa)
#
#
# Indices 1 2 3 4 5 6 
#
# 1 87.0903 81.2066 45.0330 0.0000 0.0000 0.0000
# 2 81.2066 87.0917 45.0329 0.0000 0.0000 0.0000
# 3 45.0330 45.0329 193.4969 0.0000 0.0000 0.0000
# 4 0.0000 0.0000 0.0000 47.6846 0.0000 0.0000
# 5 0.0000 0.0000 0.0000 0.0000 47.6841 0.0000
# 6 0.0000 0.0000 0.0000 0.0000 0.0000 22.2506
#
#
#
# Elastic Compliance Matrix: (Units=1/GPa)
#
#
# Indices 1 2 3 4 5 6 
#
# 1 0.088364 -0.081576 -0.001580 0.000000 0.000000 0.000000
# 2 -0.081576 0.088363 -0.001579 0.000000 0.000000 0.000000
# 3 -0.001580 -0.001579 0.005903 0.000000 0.000000 0.000000
# 4 0.000000 0.000000 0.000000 0.020971 0.000000 0.000000
# 5 0.000000 0.000000 0.000000 0.000000 0.020971 0.000000
# 6 0.000000 0.000000 0.000000 0.000000 0.000000 0.044943
#
#
# Mechanical properties :
#
#
# Convention : Reuss Voigt Hill
#
# Bulk Modulus (GPa) = 75.99198 78.91374 77.45286
# Shear Modulus (GPa) = 11.27718 36.61762 23.94740
#
# Velocity S-wave (km/s) = 2.12109 3.82212 3.09093
# Velocity P-wave (km/s) = 6.02626 7.13869 6.60593
#
# Compressibility (1/GPa) = 0.01315928
#
# Stress axis : x y z
#
# Youngs Moduli (GPa) = 11.31677 11.31698 169.39713
#
# Poissons Ratio (x) = 0.92320 0.26762
# Poissons Ratio (y) = 0.92318 0.26754
# Poissons Ratio (z) = 0.01788 0.01787
#
# Static dielectric constant tensor:
#      x y z
#    x 2.064370 0.000000 0.000000 
#    y 0.000000 2.064370 0.000000 
#    z 0.000000 0.000000 2.056620 
# 
# From -- ./inp_files/14700.got.cif
#   From: 2010.05.17/outbox.cif.g08.bks.cpg/sg91_8_cif.got.tgz:14700.got - 2010.06.03 19:20:03.
