data_PCOD9548015
_publ_section_title
;
Structure prediction by ZEFSAII (Michael W. Deem and Ramdas Pophale) SiO2 
 PCOD9548015
Probable space group: P 41 2 2
;
_chemical_formula_sum "Si O2"
_cell_formula_units_Z 40
_cell_length_a 9.062624
_cell_length_b 9.062624
_cell_length_c 22.658079
_cell_angle_alpha 90.000000
_cell_angle_beta 90.000000
_cell_angle_gamma 90.000000
_cell_volume 1860.934170
_symmetry_space_group_name_H-M "P 41 2 2"
_symmetry_group_IT_number 91
_symmetry_cell_setting 'tetragonal'
loop_
_space_group_symop_operation_xyz
x,y,z
-y,x,1/4+z
-x,-y,1/2+z
y,-x,3/4+z
x,-y,1/2-z
-x,y,-z
y,x,3/4-z
-y,-x,1/4-z
loop_
_atom_site_type_symbol
_atom_site_label
_atom_site_fract_x
_atom_site_fract_y
_atom_site_fract_z
Si Si1 0.769775 0.196083 0.811178
Si Si2 0.250254 0.393534 0.080755
Si Si3 0.714200 0.854361 0.822924
Si Si4 0.250725 0.111336 0.930219
Si Si5 0.745069 0.500000 0.250000
Si Si6 0.000000 0.263835 0.000000
O O1 0.703471 0.308126 0.859303
O O2 0.756995 0.216600 0.740491
O O3 0.941005 0.214548 0.828844
O O4 0.704915 0.031674 0.818254
O O5 0.224597 0.564454 0.092376
O O6 0.377569 0.353387 0.033455
O O7 0.090413 0.352566 0.050186
O O8 0.829740 0.829740 0.875000
O O9 0.214011 0.214011 0.875000
O O10 0.128600 0.161241 0.976574
O O11 0.411102 0.149578 0.955005
#
# Coordination Sequence:
#
# PCOD9548015 Si02
#       6
#     8   8   8   8   4   4
#     4  11  25  44  72 103 140 187 248 300 360 429
#     4  11  25  44  70 101 145 191 236 298 364 439
#     4  11  27  45  69 102 142 185 236 303 363 429
#     4  11  22  41  70 105 138 189 243 307 351 427
#     4  10  28  42  70 108 150 192 234 298 364 448
#     4  10  20  40  64  98 134 180 242 286 358 404
#
# _framework density 21.494579000000002
#
# number of rings (size 3 to 8) (size 9 to 14) (size 15 to 20)
#    0.000    1.200    2.000    3.000    8.400    6.400 
#    0.000    0.000    0.000    0.000    0.000    0.000 
#    0.000    0.000    0.000    0.000    0.000    0.000 
#
# Total GULP energy -223076.654608 kJ/mol
# GULP energy per Si atom -5576.916365 kJ/mol
# Density = 2.144566 g / cm^3
# Si number density = 21.494579 Si / 1000 Ang^3
#
#
#
# Elastic Constant Matrix: (Units=GPa)
#
#
# Indices 1 2 3 4 5 6 
#
# 1 100.5184 9.3906 23.5693 0.0000 0.0000 0.0000
# 2 9.3906 100.5184 23.5693 0.0000 0.0000 0.0000
# 3 23.5693 23.5693 124.8299 0.0000 0.0000 0.0000
# 4 0.0000 0.0000 0.0000 15.1223 0.0000 0.0000
# 5 0.0000 0.0000 0.0000 0.0000 15.1223 0.0000
# 6 0.0000 0.0000 0.0000 0.0000 0.0000 21.4927
#
#
#
# Elastic Compliance Matrix: (Units=1/GPa)
#
#
# Indices 1 2 3 4 5 6 
#
# 1 0.010437 -0.000537 -0.001869 0.000000 0.000000 0.000000
# 2 -0.000537 0.010437 -0.001869 0.000000 0.000000 0.000000
# 3 -0.001869 -0.001869 0.008717 0.000000 0.000000 0.000000
# 4 0.000000 0.000000 0.000000 0.066128 0.000000 0.000000
# 5 0.000000 0.000000 0.000000 0.000000 0.066128 0.000000
# 6 0.000000 0.000000 0.000000 0.000000 0.000000 0.046527
#
#
# Mechanical properties :
#
#
# Convention : Reuss Voigt Hill
#
# Bulk Modulus (GPa) = 47.52848 48.76946 48.14897
# Shear Modulus (GPa) = 22.32772 28.30328 25.31550
#
# Velocity S-wave (km/s) = 3.22648 3.63266 3.43558
# Velocity P-wave (km/s) = 6.00334 6.35086 6.17954
#
# Compressibility (1/GPa) = 0.02104002
#
# Stress axis : x y z
#
# Youngs Moduli (GPa) = 95.81413 95.81413 114.72128
#
# Poissons Ratio (x) = 0.05143 0.21444
# Poissons Ratio (y) = 0.05143 0.21444
# Poissons Ratio (z) = 0.17910 0.17910
#
# Static dielectric constant tensor:
#      x y z
#    x 1.792980 0.000000 0.000000 
#    y 0.000000 1.792980 0.000000 
#    z 0.000000 0.000000 1.839230 
# 
# From -- ./inp_files/6820.got.cif
#   From: 2010.05.17/outbox.cif.g08.bks.cpg/sg91_4_cif.got.tgz:6820.got - 2010.06.03 19:20:03.
