data_PCOD9548625
_publ_section_title
;
Structure prediction by ZEFSAII (Michael W. Deem and Ramdas Pophale) SiO2 
 PCOD9548625
Probable space group: P 41 2 2
;
_chemical_formula_sum "Si O2"
_cell_formula_units_Z 48
_cell_length_a 8.756083
_cell_length_b 8.756083
_cell_length_c 32.722873
_cell_angle_alpha 90.000000
_cell_angle_beta 90.000000
_cell_angle_gamma 90.000000
_cell_volume 2508.829607
_symmetry_space_group_name_H-M "P 41 2 2"
_symmetry_group_IT_number 91
_symmetry_cell_setting 'tetragonal'
loop_
_space_group_symop_operation_xyz
x,y,z
-y,x,1/4+z
-x,-y,1/2+z
y,-x,3/4+z
x,-y,1/2-z
-x,y,-z
y,x,3/4-z
-y,-x,1/4-z
loop_
_atom_site_type_symbol
_atom_site_label
_atom_site_fract_x
_atom_site_fract_y
_atom_site_fract_z
Si Si1 0.331582 0.165788 0.588024
Si Si2 0.668002 0.676244 0.171190
Si Si3 0.849979 0.313656 0.749393
Si Si4 0.661066 0.799640 0.415971
Si Si5 0.698674 0.328546 0.667967
Si Si6 0.181232 0.811523 0.499968
O O1 0.273134 0.238479 0.630145
O O2 0.258498 0.207147 0.544001
O O3 0.504231 0.226815 0.584335
O O4 0.330727 0.982466 0.589544
O O5 0.746330 0.511529 0.173290
O O6 0.484720 0.658454 0.168239
O O7 0.708075 0.766670 0.212221
O O8 0.847342 0.500000 0.750000
O O9 0.754630 0.258458 0.710432
O O10 0.023178 0.259457 0.744048
O O11 0.721967 0.721967 0.375000
O O12 0.758644 0.755396 0.455989
O O13 0.747548 0.252453 0.625000
O O14 0.000000 0.827287 0.500000
#
# Coordination Sequence:
#
# PCOD9548625 Si02
#       6
#     8   8   8   8   8   8
#     4   9  19  35  54  82 113 142 182 235 282 334
#     4  11  21  36  59  85 114 148 191 238 283 336
#     4   9  18  37  59  77 106 148 188 226 277 337
#     4  11  22  38  60  84 111 147 188 229 283 339
#     4   9  18  33  55  85 112 142 188 239 284 333
#     4  11  23  39  56  81 116 151 188 231 284 341
#
# _framework density 19.132427
#
# number of rings (size 3 to 8) (size 9 to 14) (size 15 to 20)
#    0.000    2.000    0.000    6.000    0.000    5.333 
#    0.000   11.667    0.000    0.000    0.000    0.000 
#    0.000    0.000    0.000    0.000    0.000    0.000 
#
# Total GULP energy -267683.893894 kJ/mol
# GULP energy per Si atom -5576.747789 kJ/mol
# Density = 1.908888 g / cm^3
# Si number density = 19.132427 Si / 1000 Ang^3
#
#
#
# Elastic Constant Matrix: (Units=GPa)
#
#
# Indices 1 2 3 4 5 6 
#
# 1 37.2759 -3.6025 28.5529 0.0000 0.0000 0.0000
# 2 -3.6025 37.2759 28.5529 0.0000 0.0000 0.0000
# 3 28.5529 28.5529 162.3239 0.0000 0.0000 0.0000
# 4 0.0000 0.0000 0.0000 32.4664 0.0000 0.0000
# 5 0.0000 0.0000 0.0000 0.0000 32.4663 0.0000
# 6 0.0000 0.0000 0.0000 0.0000 0.0000 12.3575
#
#
#
# Elastic Compliance Matrix: (Units=1/GPa)
#
#
# Indices 1 2 3 4 5 6 
#
# 1 0.033392 0.008930 -0.007444 0.000000 0.000000 0.000000
# 2 0.008930 0.033392 -0.007444 0.000000 0.000000 0.000000
# 3 -0.007444 -0.007444 0.008779 0.000000 0.000000 0.000000
# 4 0.000000 0.000000 0.000000 0.030801 0.000000 0.000000
# 5 0.000000 0.000000 0.000000 0.000000 0.030801 0.000000
# 6 0.000000 0.000000 0.000000 0.000000 0.000000 0.080923
#
#
# Mechanical properties :
#
#
# Convention : Reuss Voigt Hill
#
# Bulk Modulus (GPa) = 15.71205 38.20914 26.96059
# Shear Modulus (GPa) = 19.90264 27.68286 23.79275
#
# Velocity S-wave (km/s) = 3.22880 3.80795 3.53027
# Velocity P-wave (km/s) = 4.70428 6.27282 5.54430
#
# Compressibility (1/GPa) = 0.06364543
#
# Stress axis : x y z
#
# Youngs Moduli (GPa) = 29.94698 29.94702 113.90187
#
# Poissons Ratio (x) = -0.26741 0.84794
# Poissons Ratio (y) = -0.26741 0.84794
# Poissons Ratio (z) = 0.22294 0.22294
#
# Static dielectric constant tensor:
#      x y z
#    x 1.649310 0.000000 0.000000 
#    y 0.000000 1.649310 0.000000 
#    z 0.000000 0.000000 1.735470 
# 
# From -- ./inp_files/13603.got.cif
#   From: 2010.05.17/outbox.cif.g08.bks.cpg/sg91_7_cif.got.tgz:13603.got - 2010.06.03 19:20:03.
