data_PCOD9548996
_publ_section_title
;
Structure prediction by ZEFSAII (Michael W. Deem and Ramdas Pophale) SiO2 
 PCOD9548996
Probable space group: P 41 21 2
;
_chemical_formula_sum "Si O2"
_cell_formula_units_Z 64
_cell_length_a 12.254614
_cell_length_b 12.254614
_cell_length_c 22.488068
_cell_angle_alpha 90.000000
_cell_angle_beta 90.000000
_cell_angle_gamma 90.000000
_cell_volume 3377.158302
_symmetry_space_group_name_H-M "P 41 21 2"
_symmetry_group_IT_number 92
_symmetry_cell_setting 'tetragonal'
loop_
_space_group_symop_operation_xyz
x,y,z
1/2-y,1/2+x,1/4+z
-x,-y,1/2+z
1/2+y,1/2-x,3/4+z
1/2+x,1/2-y,3/4-z
1/2-x,1/2+y,1/4-z
y,x,-z
-y,-x,1/2-z
loop_
_atom_site_type_symbol
_atom_site_label
_atom_site_fract_x
_atom_site_fract_y
_atom_site_fract_z
Si Si1 0.626034 0.721846 0.795687
Si Si2 0.124662 0.675940 0.605966
Si Si3 0.539742 0.368780 0.010259
Si Si4 0.917706 0.855143 0.889482
Si Si5 0.031683 0.800620 0.717649
Si Si6 0.361912 0.027380 0.307347
Si Si7 0.499560 0.934336 0.979184
Si Si8 0.770725 0.506514 0.319162
O O1 0.743649 0.671555 0.805990
O O2 0.534779 0.649800 0.829198
O O3 0.622166 0.844267 0.823593
O O4 0.599652 0.734727 0.726268
O O5 0.229957 0.619496 0.635081
O O6 0.070657 0.752068 0.655345
O O7 0.051036 0.583966 0.575310
O O8 0.590296 0.409794 0.073904
O O9 0.533219 0.238719 0.010868
O O10 0.422498 0.422498 0.000000
O O11 0.619666 0.427874 0.963866
O O12 0.828413 0.922171 0.926150
O O13 0.128598 0.871403 0.750000
O O14 0.994869 0.692316 0.752946
O O15 0.473678 0.981895 0.279867
O O16 0.312507 0.966048 0.364573
O O17 0.624075 0.952459 0.960561
#
# Coordination Sequence:
#
# PCOD9548996 Si02
#       8
#     8   8   8   8   8   8   8   8
#     4  11  20  34  56  89 126 148 189 247 310 362
#     4  12  22  34  59  90 131 151 192 256 306 361
#     4  10  20  37  60  81 115 158 210 240 282 360
#     4  11  20  35  58  89 123 154 190 246 312 364
#     4  11  21  33  58  94 124 154 190 244 320 367
#     4  10  21  37  58  79 120 160 204 241 283 359
#     4  11  21  36  58  90 124 156 195 242 307 359
#     4  10  20  34  57  84 118 160 192 235 299 364
#
# _framework density 18.950842999999999
#
# number of rings (size 3 to 8) (size 9 to 14) (size 15 to 20)
#    0.000    1.250    3.750    5.625    0.000    0.000 
#    0.000    0.000   27.500    1.500    0.000    0.000 
#    0.000    0.000    0.000    0.000    0.000    0.000 
#
# Total GULP energy -357115.493026 kJ/mol
# GULP energy per Si atom -5579.929579 kJ/mol
# Density = 1.890771 g / cm^3
# Si number density = 18.950843 Si / 1000 Ang^3
#
#
#
# Elastic Constant Matrix: (Units=GPa)
#
#
# Indices 1 2 3 4 5 6 
#
# 1 67.4287 17.1271 11.2540 0.0000 0.0000 0.0000
# 2 17.1271 67.4290 11.2541 0.0000 0.0000 0.0000
# 3 11.2540 11.2541 52.1773 0.0000 0.0000 0.0000
# 4 0.0000 0.0000 0.0000 29.9823 0.0000 0.0000
# 5 0.0000 0.0000 0.0000 0.0000 29.9823 0.0000
# 6 0.0000 0.0000 0.0000 0.0000 0.0000 20.0153
#
#
#
# Elastic Compliance Matrix: (Units=1/GPa)
#
#
# Indices 1 2 3 4 5 6 
#
# 1 0.016213 -0.003667 -0.002706 0.000000 0.000000 0.000000
# 2 -0.003667 0.016213 -0.002706 0.000000 0.000000 0.000000
# 3 -0.002706 -0.002706 0.020333 0.000000 0.000000 0.000000
# 4 0.000000 0.000000 0.000000 0.033353 0.000000 0.000000
# 5 0.000000 0.000000 0.000000 0.000000 0.033353 0.000000
# 6 0.000000 0.000000 0.000000 0.000000 0.000000 0.049962
#
#
# Mechanical properties :
#
#
# Convention : Reuss Voigt Hill
#
# Bulk Modulus (GPa) = 28.90035 29.58951 29.24493
# Shear Modulus (GPa) = 25.11055 25.82263 25.46659
#
# Velocity S-wave (km/s) = 3.64405 3.69536 3.66980
# Velocity P-wave (km/s) = 5.74359 5.81853 5.78118
#
# Compressibility (1/GPa) = 0.03460166
#
# Stress axis : x y z
#
# Youngs Moduli (GPa) = 61.67713 61.67729 49.18157
#
# Poissons Ratio (x) = 0.22614 0.13310
# Poissons Ratio (y) = 0.22614 0.13310
# Poissons Ratio (z) = 0.16691 0.16691
#
# Static dielectric constant tensor:
#      x y z
#    x 1.657020 0.000000 0.000000 
#    y 0.000000 1.657020 0.000000 
#    z 0.000000 0.000000 1.734570 
# 
# From -- ./inp_files/4001.got.cif
#   From: 2010.05.17/outbox.cif.g08.bks.cpg/sg92_3_cif.got.tgz:4001.got - 2010.06.03 19:35:17.
