data_PCOD9548656
_publ_section_title
;
Structure prediction by ZEFSAII (Michael W. Deem and Ramdas Pophale) SiO2 
 PCOD9548656
Probable space group: P 41 2 2
;
_chemical_formula_sum "Si O2"
_cell_formula_units_Z 24
_cell_length_a 15.301995
_cell_length_b 15.301995
_cell_length_c 4.876812
_cell_angle_alpha 90.000000
_cell_angle_beta 90.000000
_cell_angle_gamma 90.000000
_cell_volume 1141.910655
_symmetry_space_group_name_H-M "P 41 2 2"
_symmetry_group_IT_number 91
_symmetry_cell_setting 'tetragonal'
loop_
_space_group_symop_operation_xyz
x,y,z
-y,x,1/4+z
-x,-y,1/2+z
y,-x,3/4+z
x,-y,1/2-z
-x,y,-z
y,x,3/4-z
-y,-x,1/4-z
loop_
_atom_site_type_symbol
_atom_site_label
_atom_site_fract_x
_atom_site_fract_y
_atom_site_fract_z
Si Si1 0.904535 0.596537 0.870726
Si Si2 0.684931 0.557352 0.489292
Si Si3 0.690975 0.827767 0.346351
O O1 0.876062 0.500000 0.750000
O O2 0.903117 0.665489 0.619053
O O3 0.850274 0.644188 0.115192
O O4 0.000000 0.581498 0.000000
O O5 0.669590 0.500000 0.750000
O O6 0.596127 0.596127 0.375000
O O7 0.747403 0.638546 0.545886
O O8 0.726463 0.500000 0.250000
O O9 0.789165 0.789165 0.375000
#
# Coordination Sequence:
#
# PCOD9548656 Si02
#       3
#     8   8   8
#     4  12  23  38  61  92 125 158 197 248 307 362
#     4  11  22  35  51  70  97 139 189 240 287 329
#     4  11  23  39  59  84 117 157 199 240 293 363
#
# _framework density 21.017406999999999
#
# number of rings (size 3 to 8) (size 9 to 14) (size 15 to 20)
#    0.000    0.667    0.000   11.000    0.000    6.667 
#    0.000    0.000    0.000    0.000    0.000    0.000 
#    0.000   37.333    0.000    0.000    0.000    0.000 
#
# Total GULP energy -133973.886971 kJ/mol
# GULP energy per Si atom -5582.245290 kJ/mol
# Density = 2.096957 g / cm^3
# Si number density = 21.017407 Si / 1000 Ang^3
#
#
#
# Elastic Constant Matrix: (Units=GPa)
#
#
# Indices 1 2 3 4 5 6 
#
# 1 67.6157 29.7923 36.8403 0.0000 0.0000 0.0000
# 2 29.7923 67.6157 36.8403 0.0000 0.0000 0.0000
# 3 36.8403 36.8403 165.7906 0.0000 0.0000 0.0000
# 4 0.0000 0.0000 0.0000 39.5336 0.0000 0.0000
# 5 0.0000 0.0000 0.0000 0.0000 39.5336 0.0000
# 6 0.0000 0.0000 0.0000 0.0000 0.0000 32.7969
#
#
#
# Elastic Compliance Matrix: (Units=1/GPa)
#
#
# Indices 1 2 3 4 5 6 
#
# 1 0.019389 -0.007049 -0.002742 0.000000 0.000000 0.000000
# 2 -0.007049 0.019389 -0.002742 0.000000 0.000000 0.000000
# 3 -0.002742 -0.002742 0.007250 0.000000 0.000000 0.000000
# 4 0.000000 0.000000 0.000000 0.025295 0.000000 0.000000
# 5 0.000000 0.000000 0.000000 0.000000 0.025295 0.000000
# 6 0.000000 0.000000 0.000000 0.000000 0.000000 0.030491
#
#
# Mechanical properties :
#
#
# Convention : Reuss Voigt Hill
#
# Bulk Modulus (GPa) = 47.70443 56.44083 52.07263
# Shear Modulus (GPa) = 31.41411 35.54278 33.47844
#
# Velocity S-wave (km/s) = 3.87029 4.11677 3.99543
# Velocity P-wave (km/s) = 6.53598 7.03632 6.79076
#
# Compressibility (1/GPa) = 0.02096241
#
# Stress axis : x y z
#
# Youngs Moduli (GPa) = 51.57438 51.57438 137.92420
#
# Poissons Ratio (x) = 0.36356 0.37821
# Poissons Ratio (y) = 0.36356 0.37821
# Poissons Ratio (z) = 0.14142 0.14142
#
# Static dielectric constant tensor:
#      x y z
#    x 1.801430 0.000000 0.000000 
#    y 0.000000 1.801430 0.000000 
#    z 0.000000 0.000000 1.778830 
# 
# From -- ./inp_files/246.got.cif
#   From: 2010.05.17/outbox.cif.g08.bks.cpg/sg91_1_cif.got.tgz:246.got - 2010.06.03 19:20:03.
