data_PCOD9548473
_publ_section_title
;
Structure prediction by ZEFSAII (Michael W. Deem and Ramdas Pophale) SiO2 
 PCOD9548473
Probable space group: P 41 2 2
;
_chemical_formula_sum "Si O2"
_cell_formula_units_Z 40
_cell_length_a 8.251661
_cell_length_b 8.251661
_cell_length_c 20.876697
_cell_angle_alpha 90.000000
_cell_angle_beta 90.000000
_cell_angle_gamma 90.000000
_cell_volume 1421.492404
_symmetry_space_group_name_H-M "P 41 2 2"
_symmetry_group_IT_number 91
_symmetry_cell_setting 'tetragonal'
loop_
_space_group_symop_operation_xyz
x,y,z
-y,x,1/4+z
-x,-y,1/2+z
y,-x,3/4+z
x,-y,1/2-z
-x,y,-z
y,x,3/4-z
-y,-x,1/4-z
loop_
_atom_site_type_symbol
_atom_site_label
_atom_site_fract_x
_atom_site_fract_y
_atom_site_fract_z
Si Si1 0.684233 0.805157 0.613744
Si Si2 0.534151 0.317145 0.219624
Si Si3 0.958559 0.265357 0.104554
Si Si4 0.976931 0.660560 0.745581
Si Si5 0.282696 0.852947 0.187931
O O1 0.577360 0.679566 0.654441
O O2 0.853557 0.727483 0.591834
O O3 0.636409 0.881714 0.546278
O O4 0.697056 0.964494 0.660764
O O5 0.565111 0.500000 0.250000
O O6 0.664807 0.179315 0.192269
O O7 0.430950 0.217951 0.272135
O O8 0.918911 0.081090 0.125000
O O9 0.955824 0.340717 0.174739
O O10 0.864992 0.500000 0.750000
O O11 0.875086 0.815290 0.767916
O O12 0.252775 0.747226 0.125000
#
# Coordination Sequence:
#
# PCOD9548473 Si02
#       5
#     8   8   8   8   8
#     4  11  25  50  86 124 168 228 296 358 430 525
#     4  12  27  50  78 123 175 225 286 360 449 531
#     4  12  28  50  76 118 169 229 286 355 434 523
#     4  11  22  46  79 120 166 213 276 356 432 506
#     4  10  23  45  85 125 164 216 290 365 428 522
#
# _framework density 28.139438999999999
#
# number of rings (size 3 to 8) (size 9 to 14) (size 15 to 20)
#    0.000    0.800    4.000    3.000    0.000    4.000 
#   10.800    0.000    0.000    0.000    0.000    0.000 
#    0.000    0.000    0.000    0.000    0.000    0.000 
#
# Total GULP energy -223267.382516 kJ/mol
# GULP energy per Si atom -5581.684563 kJ/mol
# Density = 2.807539 g / cm^3
# Si number density = 28.139439 Si / 1000 Ang^3
#
#
#
# Elastic Constant Matrix: (Units=GPa)
#
#
# Indices 1 2 3 4 5 6 
#
# 1 142.5517 55.8829 63.6852 0.0000 0.0000 0.0000
# 2 55.8829 142.5525 63.6845 0.0000 0.0000 0.0000
# 3 63.6852 63.6845 190.4386 0.0000 0.0000 0.0000
# 4 0.0000 0.0000 0.0000 52.2282 0.0000 0.0000
# 5 0.0000 0.0000 0.0000 0.0000 52.2273 0.0000
# 6 0.0000 0.0000 0.0000 0.0000 0.0000 -456.5799
#
#
#
# Elastic Compliance Matrix: (Units=1/GPa)
#
#
# Indices 1 2 3 4 5 6 
#
# 1 0.008978 -0.002561 -0.002146 0.000000 0.000000 0.000000
# 2 -0.002561 0.008977 -0.002146 0.000000 0.000000 0.000000
# 3 -0.002146 -0.002146 0.006686 0.000000 0.000000 0.000000
# 4 0.000000 0.000000 0.000000 0.019147 0.000000 0.000000
# 5 0.000000 0.000000 0.000000 0.000000 0.019147 0.000000
# 6 0.000000 0.000000 0.000000 0.000000 0.000000 -0.002190
#
#
# Mechanical properties :
#
#
# Convention : Reuss Voigt Hill
#
# Bulk Modulus (GPa) = 91.43762 93.56089 92.49925
# Shear Modulus (GPa) = 64.02463 -50.93885 6.54289
#
# Velocity S-wave (km/s) = 4.77515 -4.25930 1.52650
# Velocity P-wave (km/s) = 7.93522 3.02199 6.00417
#
# Compressibility (1/GPa) = 0.01093642
#
# Stress axis : x y z
#
# Youngs Moduli (GPa) = 111.38947 111.39071 149.56109
#
# Poissons Ratio (x) = 0.28523 0.32094
# Poissons Ratio (y) = 0.28523 0.32093
# Poissons Ratio (z) = 0.23903 0.23902
#
# Static dielectric constant tensor:
#      x y z
#    x 2.644950 0.000000 0.000000 
#    y 0.000000 2.644940 0.000000 
#    z 0.000000 0.000000 2.151620 
# 
# From -- ./inp_files/21726.got.cif
#   From: 2010.05.17/outbox.cif.g08.bks.cpg/sg91_11_cif.got.tgz:21726.got - 2010.06.03 19:20:03.
