data_PCOD9548648
_publ_section_title
;
Structure prediction by ZEFSAII (Michael W. Deem and Ramdas Pophale) SiO2 
 PCOD9548648
Probable space group: P 41 2 2
;
_chemical_formula_sum "Si O2"
_cell_formula_units_Z 36
_cell_length_a 12.190846
_cell_length_b 12.190846
_cell_length_c 12.223141
_cell_angle_alpha 90.000000
_cell_angle_beta 90.000000
_cell_angle_gamma 90.000000
_cell_volume 1816.563199
_symmetry_space_group_name_H-M "P 41 2 2"
_symmetry_group_IT_number 91
_symmetry_cell_setting 'tetragonal'
loop_
_space_group_symop_operation_xyz
x,y,z
-y,x,1/4+z
-x,-y,1/2+z
y,-x,3/4+z
x,-y,1/2-z
-x,y,-z
y,x,3/4-z
-y,-x,1/4-z
loop_
_atom_site_type_symbol
_atom_site_label
_atom_site_fract_x
_atom_site_fract_y
_atom_site_fract_z
Si Si1 0.776858 0.587629 0.591336
Si Si2 0.632048 0.296943 0.745500
Si Si3 0.500000 0.965347 0.000000
Si Si4 0.184604 0.131440 0.751676
Si Si5 0.698527 0.072104 0.859564
O O1 0.681335 0.609329 0.679060
O O2 0.723970 0.497010 0.513260
O O3 0.883695 0.542227 0.654952
O O4 0.819151 0.698408 0.535463
O O5 0.683233 0.316768 0.625000
O O6 0.672541 0.188577 0.806080
O O7 0.399388 0.032048 0.057805
O O8 0.090820 0.189759 0.677794
O O9 0.184031 0.000000 0.750000
O O10 0.166348 0.166348 0.875000
O O11 0.709069 0.000000 0.750000
#
# Coordination Sequence:
#
# PCOD9548648 Si02
#       5
#     8   8   4   8   8
#     4  11  23  41  71  96 141 178 235 288 357 429
#     4  11  21  41  64  99 135 176 227 291 351 429
#     4  12  22  42  76 100 136 186 236 296 348 422
#     4  11  27  46  67 103 146 186 234 300 364 429
#     4  11  24  40  72 109 136 189 246 290 360 437
#
# _framework density 19.817643
#
# number of rings (size 3 to 8) (size 9 to 14) (size 15 to 20)
#    0.000    0.889    4.444    1.333    6.222    2.667 
#    0.000    3.333    0.000    0.000    0.000    0.000 
#    0.000    0.000    0.000    0.000    0.000    0.000 
#
# Total GULP energy -200805.611684 kJ/mol
# GULP energy per Si atom -5577.933658 kJ/mol
# Density = 1.977254 g / cm^3
# Si number density = 19.817643 Si / 1000 Ang^3
#
#
#
# Elastic Constant Matrix: (Units=GPa)
#
#
# Indices 1 2 3 4 5 6 
#
# 1 -1857.6978 2022.0170 49.8157 0.0000 0.0000 0.0000
# 2 2022.0170-1857.7501 49.7709 0.0000 0.0000 0.0000
# 3 49.8157 49.7709 97.2576 0.0000 0.0000 0.0000
# 4 0.0000 0.0000 0.0000 29.2853 0.0000 0.0000
# 5 0.0000 0.0000 0.0000 0.0000 29.2851 0.0000
# 6 0.0000 0.0000 0.0000 0.0000 0.0000 56.4972
#
#
#
# Elastic Compliance Matrix: (Units=1/GPa)
#
#
# Indices 1 2 3 4 5 6 
#
# 1 0.004284 0.004542 -0.004518 0.000000 0.000000 0.000000
# 2 0.004542 0.004284 -0.004519 0.000000 0.000000 0.000000
# 3 -0.004518 -0.004519 0.014909 0.000000 0.000000 0.000000
# 4 0.000000 0.000000 0.000000 0.034147 0.000000 0.000000
# 5 0.000000 0.000000 0.000000 0.000000 0.034147 0.000000
# 6 0.000000 0.000000 0.000000 0.000000 0.000000 0.017700
#
#
# Mechanical properties :
#
#
# Convention : Reuss Voigt Hill
#
# Bulk Modulus (GPa) = 69.03246 69.44631 69.23939
# Shear Modulus (GPa) = 40.55501 -359.63939 -159.54219
#
# Velocity S-wave (km/s) = 4.52863 -13.48586 -8.98220
# Velocity P-wave (km/s) = 7.89013 14.40043 8.51816
#
# Compressibility (1/GPa) = 0.01448594
#
# Stress axis : x y z
#
# Youngs Moduli (GPa) = 233.43164 233.43244 67.07526
#
# Poissons Ratio (x) = -1.06017 0.30307
# Poissons Ratio (y) = -1.06017 0.30308
# Poissons Ratio (z) = 1.05474 1.05477
#
# Static dielectric constant tensor:
#      x y z
#    x 1.588300 0.000000 0.000000 
#    y 0.000000 1.588280 0.000000 
#    z 0.000000 0.000000 1.741160 
# 
# From -- ./inp_files/3535.got.cif
#   From: 2010.05.17/outbox.cif.g08.bks.cpg/sg91_2_cif.got.tgz:3535.got - 2010.06.03 19:20:03.
