data_PCOD9548539
_publ_section_title
;
Structure prediction by ZEFSAII (Michael W. Deem and Ramdas Pophale) SiO2 
 PCOD9548539
Probable space group: P 41 2 2
;
_chemical_formula_sum "Si O2"
_cell_formula_units_Z 36
_cell_length_a 10.980531
_cell_length_b 10.980531
_cell_length_c 12.189958
_cell_angle_alpha 90.000000
_cell_angle_beta 90.000000
_cell_angle_gamma 90.000000
_cell_volume 1469.768360
_symmetry_space_group_name_H-M "P 41 2 2"
_symmetry_group_IT_number 91
_symmetry_cell_setting 'tetragonal'
loop_
_space_group_symop_operation_xyz
x,y,z
-y,x,1/4+z
-x,-y,1/2+z
y,-x,3/4+z
x,-y,1/2-z
-x,y,-z
y,x,3/4-z
-y,-x,1/4-z
loop_
_atom_site_type_symbol
_atom_site_label
_atom_site_fract_x
_atom_site_fract_y
_atom_site_fract_z
Si Si1 0.711542 0.296441 0.435449
Si Si2 0.137513 0.906052 0.002597
Si Si3 0.038169 0.661777 0.621722
Si Si4 0.426576 0.291300 0.795880
Si Si5 0.500000 0.865283 0.000000
O O1 0.831680 0.213070 0.429636
O O2 0.646808 0.301297 0.316838
O O3 0.731056 0.432113 0.475215
O O4 0.616367 0.222155 0.511853
O O5 0.233739 0.004392 0.958690
O O6 0.145756 0.854245 0.125000
O O7 0.000000 0.953026 0.000000
O O8 0.177561 0.624419 0.615680
O O9 0.000000 0.702699 0.500000
O O10 0.955573 0.544510 0.653610
O O11 0.406751 0.406751 0.875000
#
# Coordination Sequence:
#
# PCOD9548539 Si02
#       5
#     8   8   8   8   4
#     4  11  28  49  76 120 164 217 277 339 429 516
#     4  11  28  50  80 116 152 210 273 349 418 504
#     4  11  25  52  82 115 163 220 278 350 431 513
#     4  12  28  48  79 119 168 221 274 353 430 522
#     4  10  24  46  80 114 162 220 268 348 408 508
#
# _framework density 24.493658
#
# number of rings (size 3 to 8) (size 9 to 14) (size 15 to 20)
#    0.000    0.889    4.444    0.667   15.556    4.444 
#    0.000    0.000    0.000    0.000    0.000    0.000 
#    0.000    0.000    0.000    0.000    0.000    0.000 
#
# Total GULP energy -201429.920602 kJ/mol
# GULP energy per Si atom -5595.275572 kJ/mol
# Density = 2.443791 g / cm^3
# Si number density = 24.493658 Si / 1000 Ang^3
#
#
#
# Elastic Constant Matrix: (Units=GPa)
#
#
# Indices 1 2 3 4 5 6 
#
# 1 98.8721 24.1400 42.0575 0.0000 0.0000 0.0000
# 2 24.1400 98.8724 42.0575 0.0000 0.0000 0.0000
# 3 42.0575 42.0575 138.5829 0.0000 0.0000 0.0000
# 4 0.0000 0.0000 0.0000 41.5132 0.0000 0.0000
# 5 0.0000 0.0000 0.0000 0.0000 41.5132 0.0000
# 6 0.0000 0.0000 0.0000 0.0000 0.0000 36.0573
#
#
#
# Elastic Compliance Matrix: (Units=1/GPa)
#
#
# Indices 1 2 3 4 5 6 
#
# 1 0.011820 -0.001562 -0.003113 0.000000 0.000000 0.000000
# 2 -0.001562 0.011820 -0.003113 0.000000 0.000000 0.000000
# 3 -0.003113 -0.003113 0.009105 0.000000 0.000000 0.000000
# 4 0.000000 0.000000 0.000000 0.024089 0.000000 0.000000
# 5 0.000000 0.000000 0.000000 0.000000 0.024089 0.000000
# 6 0.000000 0.000000 0.000000 0.000000 0.000000 0.027734
#
#
# Mechanical properties :
#
#
# Convention : Reuss Voigt Hill
#
# Bulk Modulus (GPa) = 58.24461 61.42636 59.83548
# Shear Modulus (GPa) = 38.47508 39.02156 38.74832
#
# Velocity S-wave (km/s) = 3.96765 3.99573 3.98172
# Velocity P-wave (km/s) = 6.69483 6.81328 6.75432
#
# Compressibility (1/GPa) = 0.01716897
#
# Stress axis : x y z
#
# Youngs Moduli (GPa) = 84.60537 84.60568 109.82422
#
# Poissons Ratio (x) = 0.13212 0.34190
# Poissons Ratio (y) = 0.13212 0.34190
# Poissons Ratio (z) = 0.26339 0.26339
#
# Static dielectric constant tensor:
#      x y z
#    x 1.969380 0.000000 0.000000 
#    y 0.000000 1.969380 0.000000 
#    z 0.000000 0.000000 1.980880 
# 
# From -- ./inp_files/3507.got.cif
#   From: 2010.05.17/outbox.cif.g08.bks.cpg/sg91_2_cif.got.tgz:3507.got - 2010.06.03 19:20:03.
