data_PCOD9548395
_publ_section_title
;
Structure prediction by ZEFSAII (Michael W. Deem and Ramdas Pophale) SiO2 
 PCOD9548395
Probable space group: P 41 2 2
;
_chemical_formula_sum "Si O2"
_cell_formula_units_Z 44
_cell_length_a 9.048122
_cell_length_b 9.048122
_cell_length_c 23.665850
_cell_angle_alpha 90.000000
_cell_angle_beta 90.000000
_cell_angle_gamma 90.000000
_cell_volume 1937.487918
_symmetry_space_group_name_H-M "P 41 2 2"
_symmetry_group_IT_number 91
_symmetry_cell_setting 'tetragonal'
loop_
_space_group_symop_operation_xyz
x,y,z
-y,x,1/4+z
-x,-y,1/2+z
y,-x,3/4+z
x,-y,1/2-z
-x,y,-z
y,x,3/4-z
-y,-x,1/4-z
loop_
_atom_site_type_symbol
_atom_site_label
_atom_site_fract_x
_atom_site_fract_y
_atom_site_fract_z
Si Si1 0.132279 0.579804 0.310106
Si Si2 0.162468 0.162468 0.375000
Si Si3 0.593494 0.213596 0.086126
Si Si4 0.563232 0.500000 0.250000
Si Si5 0.142355 0.698975 0.900043
Si Si6 0.509559 0.000000 0.750000
Si Si7 0.754257 0.449392 0.572368
O O1 0.154896 0.500000 0.250000
O O2 0.957089 0.598114 0.319854
O O3 0.199908 0.741036 0.318149
O O4 0.204934 0.494734 0.363782
O O5 0.273654 0.207805 0.323623
O O6 0.988753 0.207415 0.368861
O O7 0.725972 0.274029 0.125000
O O8 0.426248 0.224281 0.112278
O O9 0.601969 0.326049 0.034669
O O10 0.471931 0.405923 0.295428
O O11 0.071351 0.602732 0.949748
O O12 0.446557 0.861413 0.784063
#
# Coordination Sequence:
#
# PCOD9548395 Si02
#       7
#     8   4   8   4   8   4   8
#     4  12  27  49  76 112 159 214 265 338 407 504
#     4  10  24  46  76 110 156 208 262 342 396 500
#     4  12  26  50  72 110 160 204 270 336 409 487
#     4  12  26  46  76 118 152 206 264 344 400 502
#     4  11  25  48  74 112 156 204 274 333 406 494
#     4  10  22  44  70 102 142 194 250 326 384 472
#     4  11  25  46  74 109 151 200 267 323 413 484
#
# _framework density 22.709817999999999
#
# number of rings (size 3 to 8) (size 9 to 14) (size 15 to 20)
#    0.000    0.727    6.364    1.091    7.636    1.455 
#    1.636    0.000    0.000    1.091    0.000    0.000 
#    0.000    0.000    0.000    0.000    0.000    0.000 
#
# Total GULP energy -245275.668470 kJ/mol
# GULP energy per Si atom -5574.447011 kJ/mol
# Density = 2.265813 g / cm^3
# Si number density = 22.709818 Si / 1000 Ang^3
#
#
#
# Elastic Constant Matrix: (Units=GPa)
#
#
# Indices 1 2 3 4 5 6 
#
# 1 125.1530 54.1996 55.5840 0.0000 0.0000 0.0000
# 2 54.1996 125.1537 55.5840 0.0000 0.0000 0.0000
# 3 55.5840 55.5840 133.8898 0.0000 0.0000 0.0000
# 4 0.0000 0.0000 0.0000 -170.6498 0.0000 0.0000
# 5 0.0000 0.0000 0.0000 0.0000 -171.3505 0.0000
# 6 0.0000 0.0000 0.0000 0.0000 0.0000 45.5960
#
#
#
# Elastic Compliance Matrix: (Units=1/GPa)
#
#
# Indices 1 2 3 4 5 6 
#
# 1 0.010801 -0.003293 -0.003117 0.000000 0.000000 0.000000
# 2 -0.003293 0.010801 -0.003117 0.000000 0.000000 0.000000
# 3 -0.003117 -0.003117 0.010057 0.000000 0.000000 0.000000
# 4 0.000000 0.000000 0.000000 -0.005860 0.000000 0.000000
# 5 0.000000 0.000000 0.000000 0.000000 -0.005836 0.000000
# 6 0.000000 0.000000 0.000000 0.000000 0.000000 0.021932
#
#
# Mechanical properties :
#
#
# Convention : Reuss Voigt Hill
#
# Bulk Modulus (GPa) = 79.33561 79.43687 79.38624
# Shear Modulus (GPa) = 76.74832 -44.69225 16.02804
#
# Velocity S-wave (km/s) = 5.81967 -4.44099 2.65953
# Velocity P-wave (km/s) = 8.95368 2.95947 6.66809
#
# Compressibility (1/GPa) = 0.01260468
#
# Stress axis : x y z
#
# Youngs Moduli (GPa) = 92.58764 92.58827 99.43728
#
# Poissons Ratio (x) = 0.30491 0.30992
# Poissons Ratio (y) = 0.30490 0.30991
# Poissons Ratio (z) = 0.28857 0.28857
#
# Static dielectric constant tensor:
#      x y z
#    x 5.189750 0.000000 0.000000 
#    y 0.000000 5.200590 0.000000 
#    z 0.000000 0.000000 -33.545210 
# 
# From -- ./inp_files/13565.got.cif
#   From: 2010.05.17/outbox.cif.g08.bks.cpg/sg91_7_cif.got.tgz:13565.got - 2010.06.03 19:20:03.
