data_PCOD9548056
_publ_section_title
;
Structure prediction by ZEFSAII (Michael W. Deem and Ramdas Pophale) SiO2 
 PCOD9548056
Probable space group: P 41 2 2
;
_chemical_formula_sum "Si O2"
_cell_formula_units_Z 44
_cell_length_a 12.377546
_cell_length_b 12.377546
_cell_length_c 15.843913
_cell_angle_alpha 90.000000
_cell_angle_beta 90.000000
_cell_angle_gamma 90.000000
_cell_volume 2427.345222
_symmetry_space_group_name_H-M "P 41 2 2"
_symmetry_group_IT_number 91
_symmetry_cell_setting 'tetragonal'
loop_
_space_group_symop_operation_xyz
x,y,z
-y,x,1/4+z
-x,-y,1/2+z
y,-x,3/4+z
x,-y,1/2-z
-x,y,-z
y,x,3/4-z
-y,-x,1/4-z
loop_
_atom_site_type_symbol
_atom_site_label
_atom_site_fract_x
_atom_site_fract_y
_atom_site_fract_z
Si Si1 0.889877 0.714606 0.164520
Si Si2 0.166061 0.275648 0.175699
Si Si3 0.884544 0.033179 0.038254
Si Si4 0.929824 0.500000 0.250000
Si Si5 0.924973 0.536186 0.582493
Si Si6 0.141383 0.679384 0.140617
O O1 0.800722 0.732463 0.093403
O O2 0.891471 0.821064 0.222790
O O3 0.869829 0.608461 0.220630
O O4 0.013941 0.708748 0.131673
O O5 0.141218 0.354522 0.098029
O O6 0.168574 0.345199 0.261354
O O7 0.067806 0.192837 0.193509
O O8 0.906792 0.093209 0.125000
O O9 0.000000 0.998963 0.000000
O O10 0.999898 0.471649 0.166741
O O11 0.849901 0.429418 0.586183
O O12 0.000000 0.537519 0.500000
O O13 0.218396 0.781605 0.125000
#
# Coordination Sequence:
#
# PCOD9548056 Si02
#       6
#     8   8   8   4   8   8
#     4  10  22  34  57  80 121 159 192 249 307 364
#     4  11  22  36  58  86 121 162 202 251 301 374
#     4  11  21  31  48  78 121 153 191 228 288 363
#     4  10  20  44  50  84 122 166 202 258 288 386
#     4  11  22  40  61  83 125 170 213 248 316 371
#     4  10  23  38  57  88 122 153 207 263 304 367
#
# _framework density 18.126799999999999
#
# number of rings (size 3 to 8) (size 9 to 14) (size 15 to 20)
#    0.000    1.455    7.273    0.000   12.727    0.000 
#    0.000    0.000    0.000    0.000    4.727    0.000 
#    0.000    0.000    0.000    0.000    0.000    0.000 
#
# Total GULP energy -245229.933654 kJ/mol
# GULP energy per Si atom -5573.407583 kJ/mol
# Density = 1.808554 g / cm^3
# Si number density = 18.126800 Si / 1000 Ang^3
#
#
#
# Elastic Constant Matrix: (Units=GPa)
#
#
# Indices 1 2 3 4 5 6 
#
# 1 91.4948 28.0253 20.4033 0.0000 0.0000 0.0000
# 2 28.0253 91.4938 20.4033 0.0000 0.0000 0.0000
# 3 20.4033 20.4033 62.2681 0.0000 0.0000 0.0000
# 4 0.0000 0.0000 0.0000 26.9342 0.0000 0.0000
# 5 0.0000 0.0000 0.0000 0.0000 26.9344 0.0000
# 6 0.0000 0.0000 0.0000 0.0000 0.0000 12.8177
#
#
#
# Elastic Compliance Matrix: (Units=1/GPa)
#
#
# Indices 1 2 3 4 5 6 
#
# 1 0.012588 -0.003167 -0.003087 0.000000 0.000000 0.000000
# 2 -0.003167 0.012588 -0.003087 0.000000 0.000000 0.000000
# 3 -0.003087 -0.003087 0.018083 0.000000 0.000000 0.000000
# 4 0.000000 0.000000 0.000000 0.037127 0.000000 0.000000
# 5 0.000000 0.000000 0.000000 0.000000 0.037127 0.000000
# 6 0.000000 0.000000 0.000000 0.000000 0.000000 0.078017
#
#
# Mechanical properties :
#
#
# Convention : Reuss Voigt Hill
#
# Bulk Modulus (GPa) = 40.68928 42.54674 41.61801
# Shear Modulus (GPa) = 22.48144 25.09891 23.79017
#
# Velocity S-wave (km/s) = 3.52551 3.72510 3.62668
# Velocity P-wave (km/s) = 6.25045 6.48263 6.36760
#
# Compressibility (1/GPa) = 0.02457650
#
# Stress axis : x y z
#
# Youngs Moduli (GPa) = 79.43965 79.43871 55.30198
#
# Poissons Ratio (x) = 0.25162 0.17071
# Poissons Ratio (y) = 0.25162 0.17071
# Poissons Ratio (z) = 0.24522 0.24522
#
# Static dielectric constant tensor:
#      x y z
#    x 1.661930 0.000000 0.000000 
#    y 0.000000 1.661930 0.000000 
#    z 0.000000 0.000000 1.706660 
# 
# From -- ./inp_files/5487.got.cif
#   From: 2010.05.17/outbox.cif.g08.bks.cpg/sg91_3_cif.got.tgz:5487.got - 2010.06.03 19:20:03.
