data_PCOD9548876
_publ_section_title
;
Structure prediction by ZEFSAII (Michael W. Deem and Ramdas Pophale) SiO2 
 PCOD9548876
Probable space group: P 41 21 2
;
_chemical_formula_sum "Si O2"
_cell_formula_units_Z 56
_cell_length_a 10.604419
_cell_length_b 10.604419
_cell_length_c 26.016391
_cell_angle_alpha 90.000000
_cell_angle_beta 90.000000
_cell_angle_gamma 90.000000
_cell_volume 2925.639489
_symmetry_space_group_name_H-M "P 41 21 2"
_symmetry_group_IT_number 92
_symmetry_cell_setting 'tetragonal'
loop_
_space_group_symop_operation_xyz
x,y,z
1/2-y,1/2+x,1/4+z
-x,-y,1/2+z
1/2+y,1/2-x,3/4+z
1/2+x,1/2-y,3/4-z
1/2-x,1/2+y,1/4-z
y,x,-z
-y,-x,1/2-z
loop_
_atom_site_type_symbol
_atom_site_label
_atom_site_fract_x
_atom_site_fract_y
_atom_site_fract_z
Si Si1 0.104547 0.358121 0.668558
Si Si2 0.001963 0.001963 0.000000
Si Si3 0.395519 0.030064 0.879070
Si Si4 0.363463 0.283455 0.697698
Si Si5 0.187465 0.569031 0.479533
Si Si6 0.462859 0.924659 0.474535
Si Si7 0.569749 0.272517 0.181992
Si Si8 0.805784 0.194217 0.250000
O O1 0.048827 0.485196 0.642967
O O2 0.254831 0.372754 0.675168
O O3 0.045235 0.340639 0.724856
O O4 0.076960 0.246668 0.628740
O O5 0.908032 0.965642 0.953567
O O6 0.140416 0.966974 0.980439
O O7 0.295634 0.933853 0.903860
O O8 0.452318 0.112632 0.925810
O O9 0.335327 0.099186 0.830250
O O10 0.287248 0.189024 0.735310
O O11 0.055407 0.520530 0.503775
O O12 0.279695 0.449679 0.484471
O O13 0.324812 0.965841 0.454675
O O14 0.705618 0.230841 0.205267
#
# Coordination Sequence:
#
# PCOD9548876 Si02
#       8
#     8   4   8   8   8   8   8   4
#     4  10  18  31  55  84 108 135 188 241 295 339
#     4  11  22  36  50  80 127 144 186 234 291 358
#     4   9  19  34  55  77 108 151 193 230 284 348
#     4  11  22  33  54  84 117 151 189 230 297 356
#     4   9  18  33  51  81 112 149 189 228 281 348
#     4   8  15  31  51  80 103 136 184 236 273 341
#     4   9  17  30  53  79 109 141 170 241 303 332
#     4   9  16  30  52  78 115 138 188 236 285 334
#
# _framework density 19.141114999999999
#
# number of rings (size 3 to 8) (size 9 to 14) (size 15 to 20)
#    0.000    2.571    1.429    1.714    4.000    0.000 
#    0.000    1.429    3.143    0.000    0.000    1.000 
#    0.000    0.000    0.000    0.000    0.000    0.000 
#
# Total GULP energy -312055.569283 kJ/mol
# GULP energy per Si atom -5572.420880 kJ/mol
# Density = 1.909755 g / cm^3
# Si number density = 19.141115 Si / 1000 Ang^3
#
#
#
# Elastic Constant Matrix: (Units=GPa)
#
#
# Indices 1 2 3 4 5 6 
#
# 1 26.7781 2.3381 11.4771 0.0000 0.0000 0.0000
# 2 2.3381 26.7779 11.4769 0.0000 0.0000 0.0000
# 3 11.4771 11.4769 110.8232 0.0000 0.0000 0.0000
# 4 0.0000 0.0000 0.0000 19.4509 0.0000 0.0000
# 5 0.0000 0.0000 0.0000 0.0000 19.4509 0.0000
# 6 0.0000 0.0000 0.0000 0.0000 0.0000 14.2193
#
#
#
# Elastic Compliance Matrix: (Units=1/GPa)
#
#
# Indices 1 2 3 4 5 6 
#
# 1 0.039157 -0.001759 -0.003873 0.000000 0.000000 0.000000
# 2 -0.001759 0.039158 -0.003873 0.000000 0.000000 0.000000
# 3 -0.003873 -0.003873 0.009826 0.000000 0.000000 0.000000
# 4 0.000000 0.000000 0.000000 0.051412 0.000000 0.000000
# 5 0.000000 0.000000 0.000000 0.000000 0.051411 0.000000
# 6 0.000000 0.000000 0.000000 0.000000 0.000000 0.070327
#
#
# Mechanical properties :
#
#
# Convention : Reuss Voigt Hill
#
# Bulk Modulus (GPa) = 14.46537 23.88482 19.17509
# Shear Modulus (GPa) = 16.48290 19.89670 18.18980
#
# Velocity S-wave (km/s) = 2.93768 3.22759 3.08604
# Velocity P-wave (km/s) = 4.36809 5.13762 4.76840
#
# Compressibility (1/GPa) = 0.06913063
#
# Stress axis : x y z
#
# Youngs Moduli (GPa) = 25.53790 25.53767 101.77522
#
# Poissons Ratio (x) = 0.04492 0.39418
# Poissons Ratio (y) = 0.04492 0.39418
# Poissons Ratio (z) = 0.09891 0.09891
#
# Static dielectric constant tensor:
#      x y z
#    x 1.674370 0.000000 0.000000 
#    y 0.000000 1.674370 0.000000 
#    z 0.000000 0.000000 1.713780 
# 
# From -- ./inp_files/4227.got.cif
#   From: 2010.05.17/outbox.cif.g08.bks.cpg/sg92_3_cif.got.tgz:4227.got - 2010.06.03 19:35:17.
