data_PCOD9548415
_publ_section_title
;
Structure prediction by ZEFSAII (Michael W. Deem and Ramdas Pophale) SiO2 
 PCOD9548415
Probable space group: P 41 2 2
;
_chemical_formula_sum "Si O2"
_cell_formula_units_Z 40
_cell_length_a 8.438751
_cell_length_b 8.438751
_cell_length_c 24.825290
_cell_angle_alpha 90.000000
_cell_angle_beta 90.000000
_cell_angle_gamma 90.000000
_cell_volume 1767.871422
_symmetry_space_group_name_H-M "P 41 2 2"
_symmetry_group_IT_number 91
_symmetry_cell_setting 'tetragonal'
loop_
_space_group_symop_operation_xyz
x,y,z
-y,x,1/4+z
-x,-y,1/2+z
y,-x,3/4+z
x,-y,1/2-z
-x,y,-z
y,x,3/4-z
-y,-x,1/4-z
loop_
_atom_site_type_symbol
_atom_site_label
_atom_site_fract_x
_atom_site_fract_y
_atom_site_fract_z
Si Si1 0.619882 0.619882 0.375000
Si Si2 0.269759 0.737970 0.033014
Si Si3 0.256865 0.182623 0.963809
Si Si4 0.000000 0.046716 0.500000
Si Si5 0.376708 0.723962 0.821389
Si Si6 0.119647 0.418031 0.177165
O O1 0.736077 0.670407 0.423332
O O2 0.633569 0.443976 0.351728
O O3 0.258881 0.553678 0.046810
O O4 0.401368 0.820999 0.070547
O O5 0.109577 0.837884 0.035242
O O6 0.331687 0.769412 0.971791
O O7 0.105051 0.069207 0.963398
O O8 0.394537 0.059484 0.946779
O O9 0.270797 0.251788 0.023423
O O10 0.352798 0.853931 0.867671
#
# Coordination Sequence:
#
# PCOD9548415 Si02
#       6
#     4   8   8   4   8   8
#     4  12  26  44  72 116 136 194 260 322 374 458
#     4  10  22  47  72 103 148 192 258 299 367 466
#     4  11  28  47  73 110 154 191 247 326 384 450
#     4  10  26  50  68 102 154 198 236 310 382 460
#     4  12  24  47  79 107 146 203 257 313 381 459
#     4  10  23  47  71 110 142 195 253 312 386 444
#
# _framework density 22.626079000000001
#
# number of rings (size 3 to 8) (size 9 to 14) (size 15 to 20)
#    0.000    1.200    2.000    1.800   16.800    0.800 
#   10.800    2.000    0.000    0.000    0.000    0.000 
#    0.000    0.000    0.000    0.000    0.000    0.000 
#
# Total GULP energy -223772.142414 kJ/mol
# GULP energy per Si atom -5594.303560 kJ/mol
# Density = 2.257458 g / cm^3
# Si number density = 22.626079 Si / 1000 Ang^3
#
#
#
# Elastic Constant Matrix: (Units=GPa)
#
#
# Indices 1 2 3 4 5 6 
#
# 1 109.1524 68.0308 45.9708 0.0000 0.0000 0.0000
# 2 68.0308 109.1524 45.9708 0.0000 0.0000 0.0000
# 3 45.9708 45.9708 151.1093 0.0000 0.0000 0.0000
# 4 0.0000 0.0000 0.0000 21.8955 0.0000 0.0000
# 5 0.0000 0.0000 0.0000 0.0000 21.8955 0.0000
# 6 0.0000 0.0000 0.0000 0.0000 0.0000 37.6303
#
#
#
# Elastic Compliance Matrix: (Units=1/GPa)
#
#
# Indices 1 2 3 4 5 6 
#
# 1 0.015510 -0.008808 -0.002039 0.000000 0.000000 0.000000
# 2 -0.008808 0.015510 -0.002039 0.000000 0.000000 0.000000
# 3 -0.002039 -0.002039 0.007858 0.000000 0.000000 0.000000
# 4 0.000000 0.000000 0.000000 0.045671 0.000000 0.000000
# 5 0.000000 0.000000 0.000000 0.000000 0.045671 0.000000
# 6 0.000000 0.000000 0.000000 0.000000 0.000000 0.026574
#
#
# Mechanical properties :
#
#
# Convention : Reuss Voigt Hill
#
# Bulk Modulus (GPa) = 76.29773 76.59543 76.44658
# Shear Modulus (GPa) = 26.74712 30.24704 28.49708
#
# Velocity S-wave (km/s) = 3.44195 3.66022 3.55276
# Velocity P-wave (km/s) = 7.04204 7.19647 7.11968
#
# Compressibility (1/GPa) = 0.01310655
#
# Stress axis : x y z
#
# Youngs Moduli (GPa) = 64.47461 64.47461 127.25477
#
# Poissons Ratio (x) = 0.56790 0.25945
# Poissons Ratio (y) = 0.56790 0.25945
# Poissons Ratio (z) = 0.13145 0.13145
#
# Static dielectric constant tensor:
#      x y z
#    x 1.865730 0.000000 0.000000 
#    y 0.000000 1.865730 0.000000 
#    z 0.000000 0.000000 1.846660 
# 
# From -- ./inp_files/12771.got.cif
#   From: 2010.05.17/outbox.cif.g08.bks.cpg/sg91_7_cif.got.tgz:12771.got - 2010.06.03 19:20:03.
