data_PCOD9548303
_publ_section_title
;
Structure prediction by ZEFSAII (Michael W. Deem and Ramdas Pophale) SiO2 
 PCOD9548303
Probable space group: P 41 2 2
;
_chemical_formula_sum "Si O2"
_cell_formula_units_Z 32
_cell_length_a 10.820617
_cell_length_b 10.820617
_cell_length_c 11.730260
_cell_angle_alpha 90.000000
_cell_angle_beta 90.000000
_cell_angle_gamma 90.000000
_cell_volume 1373.446316
_symmetry_space_group_name_H-M "P 41 2 2"
_symmetry_group_IT_number 91
_symmetry_cell_setting 'tetragonal'
loop_
_space_group_symop_operation_xyz
x,y,z
-y,x,1/4+z
-x,-y,1/2+z
y,-x,3/4+z
x,-y,1/2-z
-x,y,-z
y,x,3/4-z
-y,-x,1/4-z
loop_
_atom_site_type_symbol
_atom_site_label
_atom_site_fract_x
_atom_site_fract_y
_atom_site_fract_z
Si Si1 0.821334 0.562302 0.054557
Si Si2 0.937184 0.363349 0.671870
Si Si3 0.866603 0.093862 0.998953
Si Si4 0.665229 0.220276 0.357559
O O1 0.716290 0.641398 0.118529
O O2 0.944956 0.550325 0.132589
O O3 0.859239 0.644287 0.944239
O O4 0.783493 0.433723 0.995109
O O5 0.847205 0.385777 0.779524
O O6 0.005573 0.237262 0.702723
O O7 0.851340 0.148661 0.125000
O O8 0.861766 0.215826 0.922792
O O9 0.000000 0.032023 0.000000
#
# Coordination Sequence:
#
# PCOD9548303 Si02
#       4
#     8   8   8   8
#     4  10  24  42  72 102 138 186 240 295 354 425
#     4  10  22  40  63 104 138 185 233 288 353 433
#     4  11  23  39  64 103 145 186 226 285 356 422
#     4  11  23  44  69 101 143 183 243 287 355 421
#
# _framework density 23.299056
#
# number of rings (size 3 to 8) (size 9 to 14) (size 15 to 20)
#    0.000    1.500    2.500    1.500    3.500    4.000 
#    0.000    3.750    0.000   18.000    0.000    0.000 
#    0.000    0.000    0.000    0.000    0.000    0.000 
#
# Total GULP energy -178722.956068 kJ/mol
# GULP energy per Si atom -5585.092377 kJ/mol
# Density = 2.324603 g / cm^3
# Si number density = 23.299056 Si / 1000 Ang^3
#
#
#
# Elastic Constant Matrix: (Units=GPa)
#
#
# Indices 1 2 3 4 5 6 
#
# 1 64.4971 30.3045 -4.9392 0.0000 0.0000 0.0000
# 2 30.3045 64.4970 -4.9392 0.0000 0.0000 0.0000
# 3 -4.9392 -4.9392 63.0548 0.0000 0.0000 0.0000
# 4 0.0000 0.0000 0.0000 35.9010 0.0000 0.0000
# 5 0.0000 0.0000 0.0000 0.0000 35.8999 0.0000
# 6 0.0000 0.0000 0.0000 0.0000 0.0000 19.2856
#
#
#
# Elastic Compliance Matrix: (Units=1/GPa)
#
#
# Indices 1 2 3 4 5 6 
#
# 1 0.019941 -0.009305 0.000833 0.000000 0.000000 0.000000
# 2 -0.009305 0.019941 0.000833 0.000000 0.000000 0.000000
# 3 0.000833 0.000833 0.015990 0.000000 0.000000 0.000000
# 4 0.000000 0.000000 0.000000 0.027854 0.000000 0.000000
# 5 0.000000 0.000000 0.000000 0.000000 0.027855 0.000000
# 6 0.000000 0.000000 0.000000 0.000000 0.000000 0.051852
#
#
# Mechanical properties :
#
#
# Convention : Reuss Voigt Hill
#
# Bulk Modulus (GPa) = 24.63519 25.87790 25.25654
# Shear Modulus (GPa) = 26.00883 29.65880 27.83382
#
# Velocity S-wave (km/s) = 3.34474 3.57173 3.46010
# Velocity P-wave (km/s) = 5.05102 5.30477 5.17945
#
# Compressibility (1/GPa) = 0.04059234
#
# Stress axis : x y z
#
# Youngs Moduli (GPa) = 50.14889 50.14877 62.54011
#
# Poissons Ratio (x) = 0.46666 -0.05210
# Poissons Ratio (y) = 0.46666 -0.05210
# Poissons Ratio (z) = -0.04178 -0.04178
#
# Static dielectric constant tensor:
#      x y z
#    x 1.965250 0.000000 0.000000 
#    y 0.000000 1.965250 0.000000 
#    z 0.000000 0.000000 1.941590 
# 
# From -- ./inp_files/3388.got.cif
#   From: 2010.05.17/outbox.cif.g08.bks.cpg/sg91_2_cif.got.tgz:3388.got - 2010.06.03 19:20:03.
