data_PCOD9548677
_publ_section_title
;
Structure prediction by ZEFSAII (Michael W. Deem and Ramdas Pophale) SiO2 
 PCOD9548677
Probable space group: P 41 2 2
;
_chemical_formula_sum "Si O2"
_cell_formula_units_Z 36
_cell_length_a 7.900882
_cell_length_b 7.900882
_cell_length_c 23.447048
_cell_angle_alpha 90.000000
_cell_angle_beta 90.000000
_cell_angle_gamma 90.000000
_cell_volume 1463.657033
_symmetry_space_group_name_H-M "P 41 2 2"
_symmetry_group_IT_number 91
_symmetry_cell_setting 'tetragonal'
loop_
_space_group_symop_operation_xyz
x,y,z
-y,x,1/4+z
-x,-y,1/2+z
y,-x,3/4+z
x,-y,1/2-z
-x,y,-z
y,x,3/4-z
-y,-x,1/4-z
loop_
_atom_site_type_symbol
_atom_site_label
_atom_site_fract_x
_atom_site_fract_y
_atom_site_fract_z
Si Si1 0.179682 0.060543 0.995909
Si Si2 0.399609 0.241789 0.086876
Si Si3 0.305329 0.244645 0.442464
Si Si4 0.500000 0.482209 0.000000
Si Si5 0.063442 0.384924 0.146980
O O1 0.171804 0.883938 0.030960
O O2 0.324652 0.160932 0.028589
O O3 0.233388 0.020741 0.931967
O O4 0.000000 0.149680 0.000000
O O5 0.523935 0.382673 0.059956
O O6 0.226387 0.315939 0.113276
O O7 0.497027 0.096038 0.122812
O O8 0.273815 0.273815 0.375000
O O9 0.336119 0.407063 0.481911
O O10 0.487328 0.153970 0.440670
#
# Coordination Sequence:
#
# PCOD9548677 Si02
#       5
#     8   8   8   4   8
#     4  11  25  43  64  98 142 183 227 293 366 437
#     4  11  24  45  71 101 145 185 241 300 367 436
#     4  11  22  40  69  98 131 182 237 285 360 438
#     4  12  20  42  70 102 132 172 238 306 338 418
#     4  11  23  44  70  99 138 194 231 295 370 440
#
# _framework density 24.595927
#
# number of rings (size 3 to 8) (size 9 to 14) (size 15 to 20)
#    0.000    0.889    6.667    1.333    6.222    0.000 
#    4.000    3.333    0.000    0.000    0.000    0.000 
#    0.000    0.000    0.000    0.000    0.000    0.000 
#
# Total GULP energy -200646.403677 kJ/mol
# GULP energy per Si atom -5573.511213 kJ/mol
# Density = 2.453995 g / cm^3
# Si number density = 24.595927 Si / 1000 Ang^3
#
#
#
# Elastic Constant Matrix: (Units=GPa)
#
#
# Indices 1 2 3 4 5 6 
#
# 1 76.8283 5.4508 17.9082 0.0000 0.0000 0.0000
# 2 5.4508 76.8283 17.9082 0.0000 0.0000 0.0000
# 3 17.9082 17.9082 68.7782 0.0000 0.0000 0.0000
# 4 0.0000 0.0000 0.0000 30.0976 0.0000 0.0000
# 5 0.0000 0.0000 0.0000 0.0000 30.0976 0.0000
# 6 0.0000 0.0000 0.0000 0.0000 0.0000 29.2866
#
#
#
# Elastic Compliance Matrix: (Units=1/GPa)
#
#
# Indices 1 2 3 4 5 6 
#
# 1 0.013859 -0.000151 -0.003569 0.000000 0.000000 0.000000
# 2 -0.000151 0.013859 -0.003569 0.000000 0.000000 0.000000
# 3 -0.003569 -0.003569 0.016398 0.000000 0.000000 0.000000
# 4 0.000000 0.000000 0.000000 0.033225 0.000000 0.000000
# 5 0.000000 0.000000 0.000000 0.000000 0.033225 0.000000
# 6 0.000000 0.000000 0.000000 0.000000 0.000000 0.034145
#
#
# Mechanical properties :
#
#
# Convention : Reuss Voigt Hill
#
# Bulk Modulus (GPa) = 33.85636 33.88548 33.87092
# Shear Modulus (GPa) = 29.56205 29.97420 29.76813
#
# Velocity S-wave (km/s) = 3.47062 3.49473 3.48269
# Velocity P-wave (km/s) = 5.46399 5.48552 5.47476
#
# Compressibility (1/GPa) = 0.02953655
#
# Stress axis : x y z
#
# Youngs Moduli (GPa) = 72.15676 72.15676 60.98263
#
# Poissons Ratio (x) = 0.01092 0.21765
# Poissons Ratio (y) = 0.01092 0.21765
# Poissons Ratio (z) = 0.25753 0.25753
#
# Static dielectric constant tensor:
#      x y z
#    x 2.052090 0.000000 0.000000 
#    y 0.000000 2.052090 0.000000 
#    z 0.000000 0.000000 1.996240 
# 
# From -- ./inp_files/13085.got.cif
#   From: 2010.05.17/outbox.cif.g08.bks.cpg/sg91_7_cif.got.tgz:13085.got - 2010.06.03 19:20:03.
