data_PCOD9548040
_publ_section_title
;
Structure prediction by ZEFSAII (Michael W. Deem and Ramdas Pophale) SiO2 
 PCOD9548040
Probable space group: P 41 2 2
;
_chemical_formula_sum "Si O2"
_cell_formula_units_Z 40
_cell_length_a 11.098042
_cell_length_b 11.098042
_cell_length_c 13.172815
_cell_angle_alpha 90.000000
_cell_angle_beta 90.000000
_cell_angle_gamma 90.000000
_cell_volume 1622.449996
_symmetry_space_group_name_H-M "P 41 2 2"
_symmetry_group_IT_number 91
_symmetry_cell_setting 'tetragonal'
loop_
_space_group_symop_operation_xyz
x,y,z
-y,x,1/4+z
-x,-y,1/2+z
y,-x,3/4+z
x,-y,1/2-z
-x,y,-z
y,x,3/4-z
-y,-x,1/4-z
loop_
_atom_site_type_symbol
_atom_site_label
_atom_site_fract_x
_atom_site_fract_y
_atom_site_fract_z
Si Si1 0.051660 0.626084 0.690453
Si Si2 0.811859 0.525638 0.629105
Si Si3 0.709019 0.624409 0.218531
Si Si4 0.860084 0.665881 0.024467
Si Si5 0.069344 0.866820 0.236341
O O1 0.043042 0.500000 0.750000
O O2 0.195325 0.650096 0.689928
O O3 0.942162 0.593770 0.613278
O O4 0.006438 0.748669 0.744544
O O5 0.791560 0.500000 0.750000
O O6 0.718934 0.613174 0.572490
O O7 0.803166 0.396643 0.573917
O O8 0.647005 0.500000 0.250000
O O9 0.797455 0.605763 0.120838
O O10 0.852953 0.807967 0.049728
O O11 0.000000 0.645389 0.000000
O O12 0.124180 0.875821 0.125000
O O13 0.010736 0.000000 0.250000
#
# Coordination Sequence:
#
# PCOD9548040 Si02
#       5
#     8   8   8   8   8
#     4  10  20  41  67  93 132 180 223 281 348 426
#     4  11  23  42  68  98 136 180 237 290 350 439
#     4  11  24  44  68  97 140 181 231 296 361 420
#     4  11  22  40  69  97 127 182 234 288 359 431
#     4  11  21  36  66 102 135 169 229 297 360 426
#
# _framework density 24.654070999999998
#
# number of rings (size 3 to 8) (size 9 to 14) (size 15 to 20)
#    0.000    1.200    2.000    8.400    0.000    0.800 
#    0.000    5.000    8.800    0.000    0.000    0.000 
#    0.000    0.000    0.000    0.000    0.000    0.000 
#
# Total GULP energy -222780.419818 kJ/mol
# GULP energy per Si atom -5569.510495 kJ/mol
# Density = 2.459796 g / cm^3
# Si number density = 24.654071 Si / 1000 Ang^3
#
#
#
# Elastic Constant Matrix: (Units=GPa)
#
#
# Indices 1 2 3 4 5 6 
#
# 1 131.1102 86.1759 21.7981 0.0000 0.0000 0.0000
# 2 86.1759 131.1100 21.7979 0.0000 0.0000 0.0000
# 3 21.7981 21.7979 26.8507 0.0000 0.0000 0.0000
# 4 0.0000 0.0000 0.0000 37.4442 0.0000 0.0000
# 5 0.0000 0.0000 0.0000 0.0000 37.4442 0.0000
# 6 0.0000 0.0000 0.0000 0.0000 0.0000 85.5070
#
#
#
# Elastic Compliance Matrix: (Units=1/GPa)
#
#
# Indices 1 2 3 4 5 6 
#
# 1 0.013876 -0.008379 -0.004463 0.000000 0.000000 0.000000
# 2 -0.008379 0.013876 -0.004463 0.000000 0.000000 0.000000
# 3 -0.004463 -0.004463 0.044490 0.000000 0.000000 0.000000
# 4 0.000000 0.000000 0.000000 0.026706 0.000000 0.000000
# 5 0.000000 0.000000 0.000000 0.000000 0.026706 0.000000
# 6 0.000000 0.000000 0.000000 0.000000 0.000000 0.011695
#
#
# Mechanical properties :
#
#
# Convention : Reuss Voigt Hill
#
# Bulk Modulus (GPa) = 26.57291 60.95720 43.76505
# Shear Modulus (GPa) = 27.09974 42.69902 34.89938
#
# Velocity S-wave (km/s) = 3.31901 4.16616 3.76648
# Velocity P-wave (km/s) = 5.04871 6.92251 6.05849
#
# Compressibility (1/GPa) = 0.03763231
#
# Stress axis : x y z
#
# Youngs Moduli (GPa) = 72.06561 72.06561 22.47720
#
# Poissons Ratio (x) = 0.60380 0.10032
# Poissons Ratio (y) = 0.60380 0.10032
# Poissons Ratio (z) = 0.32165 0.32164
#
# Static dielectric constant tensor:
#      x y z
#    x 2.082770 0.000000 0.000000 
#    y 0.000000 2.082780 0.000000 
#    z 0.000000 0.000000 2.415420 
# 
# From -- ./inp_files/11371.got.cif
#   From: 2010.05.17/outbox.cif.g08.bks.cpg/sg91_6_cif.got.tgz:11371.got - 2010.06.03 19:20:03.
