data_PCOD9548393
_publ_section_title
;
Structure prediction by ZEFSAII (Michael W. Deem and Ramdas Pophale) SiO2 
 PCOD9548393
Probable space group: P 41 2 2
;
_chemical_formula_sum "Si O2"
_cell_formula_units_Z 24
_cell_length_a 7.196667
_cell_length_b 7.196667
_cell_length_c 17.588619
_cell_angle_alpha 90.000000
_cell_angle_beta 90.000000
_cell_angle_gamma 90.000000
_cell_volume 910.950035
_symmetry_space_group_name_H-M "P 41 2 2"
_symmetry_group_IT_number 91
_symmetry_cell_setting 'tetragonal'
loop_
_space_group_symop_operation_xyz
x,y,z
-y,x,1/4+z
-x,-y,1/2+z
y,-x,3/4+z
x,-y,1/2-z
-x,y,-z
y,x,3/4-z
-y,-x,1/4-z
loop_
_atom_site_type_symbol
_atom_site_label
_atom_site_fract_x
_atom_site_fract_y
_atom_site_fract_z
Si Si1 0.842117 0.157884 0.625000
Si Si2 0.500000 0.682042 0.500000
Si Si3 0.303227 0.039548 0.528203
Si Si4 0.860783 0.575248 0.570060
O O1 0.941348 0.162674 0.708448
O O2 0.896793 0.367458 0.599061
O O3 0.644657 0.569159 0.548088
O O4 0.364405 0.826626 0.543029
O O5 0.500000 0.129242 0.500000
O O6 0.273658 0.119806 0.611849
O O7 0.000000 0.611983 0.500000
#
# Coordination Sequence:
#
# PCOD9548393 Si02
#       4
#     4   4   8   8
#     4  10  22  44  68  96 146 198 248 300 390 456
#     4  10  24  44  70 108 148 188 262 312 388 468
#     4   8  21  43  61 100 140 185 247 303 379 459
#     4  11  25  42  74 108 145 194 252 327 384 459
#
# _framework density 26.346119000000002
#
# number of rings (size 3 to 8) (size 9 to 14) (size 15 to 20)
#    1.000    1.333    0.000    0.000   11.667    1.333 
#    0.000    5.000    0.000    0.000    0.000    0.000 
#    0.000    0.000    0.000    0.000    0.000    0.000 
#
# Total GULP energy -133705.585352 kJ/mol
# GULP energy per Si atom -5571.066056 kJ/mol
# Density = 2.628615 g / cm^3
# Si number density = 26.346119 Si / 1000 Ang^3
#
#
#
# Elastic Constant Matrix: (Units=GPa)
#
#
# Indices 1 2 3 4 5 6 
#
# 1 69.8759 39.2778 73.5361 0.0000 0.0000 0.0000
# 2 39.2778 69.8768 73.5363 0.0000 0.0000 0.0000
# 3 73.5361 73.5363 228.5601 0.0000 0.0000 0.0000
# 4 0.0000 0.0000 0.0000 27.6019 0.0000 0.0000
# 5 0.0000 0.0000 0.0000 0.0000 27.6023 0.0000
# 6 0.0000 0.0000 0.0000 0.0000 0.0000 23.1760
#
#
#
# Elastic Compliance Matrix: (Units=1/GPa)
#
#
# Indices 1 2 3 4 5 6 
#
# 1 0.024427 -0.008255 -0.005203 0.000000 0.000000 0.000000
# 2 -0.008255 0.024426 -0.005203 0.000000 0.000000 0.000000
# 3 -0.005203 -0.005203 0.007723 0.000000 0.000000 0.000000
# 4 0.000000 0.000000 0.000000 0.036229 0.000000 0.000000
# 5 0.000000 0.000000 0.000000 0.000000 0.036229 0.000000
# 6 0.000000 0.000000 0.000000 0.000000 0.000000 0.043148
#
#
# Mechanical properties :
#
#
# Convention : Reuss Voigt Hill
#
# Bulk Modulus (GPa) = 51.93531 82.33481 67.13506
# Shear Modulus (GPa) = 23.15642 27.80688 25.48165
#
# Velocity S-wave (km/s) = 2.96789 3.25229 3.11334
# Velocity P-wave (km/s) = 5.61249 6.73960 6.20170
#
# Compressibility (1/GPa) = 0.01925472
#
# Stress axis : x y z
#
# Youngs Moduli (GPa) = 40.93865 40.93927 129.47860
#
# Poissons Ratio (x) = 0.33794 0.67370
# Poissons Ratio (y) = 0.33793 0.67369
# Poissons Ratio (z) = 0.21301 0.21301
#
# Static dielectric constant tensor:
#      x y z
#    x 2.127070 0.000000 0.000000 
#    y 0.000000 2.127070 0.000000 
#    z 0.000000 0.000000 2.184630 
# 
# From -- ./inp_files/11663.got.cif
#   From: 2010.05.17/outbox.cif.g08.bks.cpg/sg91_6_cif.got.tgz:11663.got - 2010.06.03 19:20:03.
