data_PCOD9548328
_publ_section_title
;
Structure prediction by ZEFSAII (Michael W. Deem and Ramdas Pophale) SiO2 
 PCOD9548328
Probable space group: P 41 2 2
;
_chemical_formula_sum "Si O2"
_cell_formula_units_Z 36
_cell_length_a 12.017240
_cell_length_b 12.017240
_cell_length_c 11.422108
_cell_angle_alpha 90.000000
_cell_angle_beta 90.000000
_cell_angle_gamma 90.000000
_cell_volume 1649.512958
_symmetry_space_group_name_H-M "P 41 2 2"
_symmetry_group_IT_number 91
_symmetry_cell_setting 'tetragonal'
loop_
_space_group_symop_operation_xyz
x,y,z
-y,x,1/4+z
-x,-y,1/2+z
y,-x,3/4+z
x,-y,1/2-z
-x,y,-z
y,x,3/4-z
-y,-x,1/4-z
loop_
_atom_site_type_symbol
_atom_site_label
_atom_site_fract_x
_atom_site_fract_y
_atom_site_fract_z
Si Si1 0.165768 0.680655 0.703512
Si Si2 0.487346 0.871495 0.742655
Si Si3 0.909248 0.366565 0.784644
Si Si4 0.268685 0.309083 0.537462
Si Si5 0.500000 0.573758 0.000000
O O1 0.222631 0.777370 0.625000
O O2 0.173674 0.565882 0.627668
O O3 0.224349 0.681613 0.829494
O O4 0.032499 0.683111 0.724767
O O5 0.384137 0.872177 0.830687
O O6 0.594688 0.801575 0.776643
O O7 0.524339 0.000000 0.750000
O O8 0.911085 0.500000 0.750000
O O9 0.817316 0.277835 0.743292
O O10 0.393840 0.350416 0.521245
O O11 0.510717 0.510717 0.875000
#
# Coordination Sequence:
#
# PCOD9548328 Si02
#       5
#     8   8   8   8   4
#     4  11  23  41  70 100 135 185 246 296 357 448
#     4  10  22  41  66  97 137 186 238 291 355 442
#     4  11  23  43  65 101 138 184 239 295 369 441
#     4  12  24  42  68 102 141 183 238 302 369 443
#     4  12  30  46  68 108 158 192 236 310 386 460
#
# _framework density 21.824625000000001
#
# number of rings (size 3 to 8) (size 9 to 14) (size 15 to 20)
#    0.000    0.889    3.333    4.667    3.111    0.000 
#    0.000    0.000    4.889    0.000    0.000    0.000 
#    0.000    0.000    0.000    0.000    0.000    0.000 
#
# Total GULP energy -200688.097552 kJ/mol
# GULP energy per Si atom -5574.669376 kJ/mol
# Density = 2.177495 g / cm^3
# Si number density = 21.824625 Si / 1000 Ang^3
#
#
#
# Elastic Constant Matrix: (Units=GPa)
#
#
# Indices 1 2 3 4 5 6 
#
# 1 135.3716 97.9610 29.1552 0.0000 0.0000 0.0000
# 2 97.9610 135.3706 29.1552 0.0000 0.0000 0.0000
# 3 29.1552 29.1552 134.4117 0.0000 0.0000 0.0000
# 4 0.0000 0.0000 0.0000 30.1103 0.0000 0.0000
# 5 0.0000 0.0000 0.0000 0.0000 30.1105 0.0000
# 6 0.0000 0.0000 0.0000 0.0000 0.0000 34.7587
#
#
#
# Elastic Compliance Matrix: (Units=1/GPa)
#
#
# Indices 1 2 3 4 5 6 
#
# 1 0.015631 -0.011100 -0.000983 0.000000 0.000000 0.000000
# 2 -0.011100 0.015631 -0.000983 0.000000 0.000000 0.000000
# 3 -0.000983 -0.000983 0.007866 0.000000 0.000000 0.000000
# 4 0.000000 0.000000 0.000000 0.033211 0.000000 0.000000
# 5 0.000000 0.000000 0.000000 0.000000 0.033211 0.000000
# 6 0.000000 0.000000 0.000000 0.000000 0.000000 0.028770
#
#
# Mechanical properties :
#
#
# Convention : Reuss Voigt Hill
#
# Bulk Modulus (GPa) = 76.93863 79.74408 78.34135
# Shear Modulus (GPa) = 30.34281 35.58809 32.96545
#
# Velocity S-wave (km/s) = 3.73272 4.04250 3.89069
# Velocity P-wave (km/s) = 7.34216 7.64244 7.49380
#
# Compressibility (1/GPa) = 0.01299737
#
# Stress axis : x y z
#
# Youngs Moduli (GPa) = 63.97543 63.97497 127.12575
#
# Poissons Ratio (x) = 0.71010 0.12495
# Poissons Ratio (y) = 0.71011 0.12495
# Poissons Ratio (z) = 0.06288 0.06288
#
# Static dielectric constant tensor:
#      x y z
#    x 1.871640 0.000000 0.000000 
#    y 0.000000 1.871640 0.000000 
#    z 0.000000 0.000000 2.066950 
# 
# From -- ./inp_files/20027.got.cif
#   From: 2010.05.17/outbox.cif.g08.bks.cpg/sg91_11_cif.got.tgz:20027.got - 2010.06.03 19:20:03.
