data_PCOD9548207
_publ_section_title
;
Structure prediction by ZEFSAII (Michael W. Deem and Ramdas Pophale) SiO2 
 PCOD9548207
Probable space group: P 41 2 2
;
_chemical_formula_sum "Si O2"
_cell_formula_units_Z 48
_cell_length_a 9.465707
_cell_length_b 9.465707
_cell_length_c 25.243252
_cell_angle_alpha 90.000000
_cell_angle_beta 90.000000
_cell_angle_gamma 90.000000
_cell_volume 2261.785509
_symmetry_space_group_name_H-M "P 41 2 2"
_symmetry_group_IT_number 91
_symmetry_cell_setting 'tetragonal'
loop_
_space_group_symop_operation_xyz
x,y,z
-y,x,1/4+z
-x,-y,1/2+z
y,-x,3/4+z
x,-y,1/2-z
-x,y,-z
y,x,3/4-z
-y,-x,1/4-z
loop_
_atom_site_type_symbol
_atom_site_label
_atom_site_fract_x
_atom_site_fract_y
_atom_site_fract_z
Si Si1 0.184936 0.531976 0.929955
Si Si2 0.175186 0.310708 0.006145
Si Si3 0.572586 0.334302 0.363498
Si Si4 0.771283 0.153050 0.734794
Si Si5 0.911707 0.613922 0.878877
Si Si6 0.337259 0.975902 0.482394
O O1 0.283973 0.611546 0.889135
O O2 0.029140 0.518390 0.906980
O O3 0.236077 0.385475 0.953344
O O4 0.169275 0.630229 0.981387
O O5 0.257590 0.386781 0.056741
O O6 0.234057 0.152600 0.004954
O O7 0.000000 0.317041 0.000000
O O8 0.466474 0.466474 0.375000
O O9 0.486556 0.210335 0.392566
O O10 0.721366 0.147782 0.673455
O O11 0.877389 0.273746 0.753469
O O12 0.833168 0.000000 0.750000
O O13 0.995020 0.679337 0.830271
O O14 0.500000 0.952123 0.500000
#
# Coordination Sequence:
#
# PCOD9548207 Si02
#       6
#     8   8   8   8   8   8
#     4  11  23  43  72  99 141 181 242 292 365 433
#     4  12  25  48  71  99 145 195 232 300 374 435
#     4  12  25  42  71 106 139 192 245 300 365 441
#     4  10  21  42  70 101 136 185 238 300 357 432
#     4  11  22  44  71 103 136 188 243 294 360 434
#     4  12  26  42  67 104 145 183 240 304 364 426
#
# _framework density 21.222169999999998
#
# number of rings (size 3 to 8) (size 9 to 14) (size 15 to 20)
#    0.000    0.667    5.000    3.500    2.333    0.000 
#    0.000    0.000    0.000    0.000    0.000    0.000 
#    0.000    0.000    0.000    0.000    0.000    0.000 
#
# Total GULP energy -267361.458233 kJ/mol
# GULP energy per Si atom -5570.030380 kJ/mol
# Density = 2.117387 g / cm^3
# Si number density = 21.222170 Si / 1000 Ang^3
#
#
#
# Elastic Constant Matrix: (Units=GPa)
#
#
# Indices 1 2 3 4 5 6 
#
# 1 86.5302 49.9852 23.0479 0.0000 0.0000 0.0000
# 2 49.9852 86.5302 23.0479 0.0000 0.0000 0.0000
# 3 23.0479 23.0479 46.3103 0.0000 0.0000 0.0000
# 4 0.0000 0.0000 0.0000 27.8687 0.0000 0.0000
# 5 0.0000 0.0000 0.0000 0.0000 27.8687 0.0000
# 6 0.0000 0.0000 0.0000 0.0000 0.0000 30.7640
#
#
#
# Elastic Compliance Matrix: (Units=1/GPa)
#
#
# Indices 1 2 3 4 5 6 
#
# 1 0.018084 -0.009279 -0.004382 0.000000 0.000000 0.000000
# 2 -0.009279 0.018084 -0.004382 0.000000 0.000000 0.000000
# 3 -0.004382 -0.004382 0.025955 0.000000 0.000000 0.000000
# 4 0.000000 0.000000 0.000000 0.035883 0.000000 0.000000
# 5 0.000000 0.000000 0.000000 0.000000 0.035883 0.000000
# 6 0.000000 0.000000 0.000000 0.000000 0.000000 0.032505
#
#
# Mechanical properties :
#
#
# Convention : Reuss Voigt Hill
#
# Bulk Modulus (GPa) = 38.40726 45.72586 42.06656
# Shear Modulus (GPa) = 23.67874 25.51959 24.59917
#
# Velocity S-wave (km/s) = 3.34392 3.47147 3.40829
# Velocity P-wave (km/s) = 5.74857 6.13687 5.94589
#
# Compressibility (1/GPa) = 0.02603674
#
# Stress axis : x y z
#
# Youngs Moduli (GPa) = 55.29695 55.29695 38.52791
#
# Poissons Ratio (x) = 0.51312 0.16883
# Poissons Ratio (y) = 0.51312 0.16883
# Poissons Ratio (z) = 0.24231 0.24231
#
# Static dielectric constant tensor:
#      x y z
#    x 1.812090 0.000000 0.000000 
#    y 0.000000 1.812090 0.000000 
#    z 0.000000 0.000000 1.823680 
# 
# From -- ./inp_files/7990.got.cif
#   From: 2010.05.17/outbox.cif.g08.bks.cpg/sg91_4_cif.got.tgz:7990.got - 2010.06.03 19:20:03.
