data_PCOD9548977
_publ_section_title
;
Structure prediction by ZEFSAII (Michael W. Deem and Ramdas Pophale) SiO2 
 PCOD9548977
Probable space group: P 41 21 2
;
_chemical_formula_sum "Si O2"
_cell_formula_units_Z 40
_cell_length_a 14.389679
_cell_length_b 14.389679
_cell_length_c 7.315088
_cell_angle_alpha 90.000000
_cell_angle_beta 90.000000
_cell_angle_gamma 90.000000
_cell_volume 1514.683055
_symmetry_space_group_name_H-M "P 41 21 2"
_symmetry_group_IT_number 92
_symmetry_cell_setting 'tetragonal'
loop_
_space_group_symop_operation_xyz
x,y,z
1/2-y,1/2+x,1/4+z
-x,-y,1/2+z
1/2+y,1/2-x,3/4+z
1/2+x,1/2-y,3/4-z
1/2-x,1/2+y,1/4-z
y,x,-z
-y,-x,1/2-z
loop_
_atom_site_type_symbol
_atom_site_label
_atom_site_fract_x
_atom_site_fract_y
_atom_site_fract_z
Si Si1 0.963714 0.163844 0.982449
Si Si2 0.692162 0.307838 0.250000
Si Si3 0.515556 0.887688 0.805290
Si Si4 0.157608 0.157608 0.000000
Si Si5 0.523082 0.688754 0.825514
Si Si6 0.665262 0.160539 0.544719
O O1 0.890854 0.079928 0.974930
O O2 0.981225 0.173272 0.204150
O O3 0.917607 0.259388 0.917101
O O4 0.061719 0.144844 0.885526
O O5 0.580603 0.298167 0.249285
O O6 0.714763 0.234026 0.406693
O O7 0.567503 0.790302 0.802984
O O8 0.467776 0.916180 0.618877
O O9 0.429221 0.878143 0.951668
O O10 0.265933 0.144701 0.952627
#
# Coordination Sequence:
#
# PCOD9548977 Si02
#       6
#     8   4   8   4   8   8
#     4  11  22  43  68  97 143 181 232 291 360 425
#     4  10  19  40  68  97 130 172 242 272 346 431
#     4  11  22  44  68  99 138 185 242 296 355 429
#     4  12  23  46  70  97 146 190 230 306 364 419
#     4  10  21  39  69 101 127 182 228 281 354 426
#     4  11  23  44  68  97 140 188 233 296 357 418
#
# _framework density 26.408163999999999
#
# number of rings (size 3 to 8) (size 9 to 14) (size 15 to 20)
#    0.000    1.200    6.000    1.800    2.800    0.000 
#   10.800    0.000    0.000    0.000    0.000    0.000 
#    0.000    0.000    0.000    0.000    0.000    0.000 
#
# Total GULP energy -223559.861029 kJ/mol
# GULP energy per Si atom -5588.996526 kJ/mol
# Density = 2.634806 g / cm^3
# Si number density = 26.408164 Si / 1000 Ang^3
#
#
#
# Elastic Constant Matrix: (Units=GPa)
#
#
# Indices 1 2 3 4 5 6 
#
# 1 127.5483 27.8816 6.3143 0.0000 0.0000 0.0000
# 2 27.8816 127.5483 6.3159 0.0000 0.0000 0.0000
# 3 6.3143 6.3159 48.4436 0.0000 0.0000 0.0000
# 4 0.0000 0.0000 0.0000 504.6824 0.0000 0.0000
# 5 0.0000 0.0000 0.0000 0.0000 504.1868 0.0000
# 6 0.0000 0.0000 0.0000 0.0000 0.0000 59.8132
#
#
#
# Elastic Compliance Matrix: (Units=1/GPa)
#
#
# Indices 1 2 3 4 5 6 
#
# 1 0.008268 -0.001765 -0.000848 0.000000 0.000000 0.000000
# 2 -0.001765 0.008268 -0.000848 0.000000 0.000000 0.000000
# 3 -0.000848 -0.000848 0.020864 0.000000 0.000000 0.000000
# 4 0.000000 0.000000 0.000000 0.001981 0.000000 0.000000
# 5 0.000000 0.000000 0.000000 0.000000 0.001983 0.000000
# 6 0.000000 0.000000 0.000000 0.000000 0.000000 0.016719
#
#
# Mechanical properties :
#
#
# Convention : Reuss Voigt Hill
#
# Bulk Modulus (GPa) = 32.81041 42.72930 37.76985
# Shear Modulus (GPa) = 66.52112 231.27170 148.89641
#
# Velocity S-wave (km/s) = 5.02437 9.36835 7.51699
# Velocity P-wave (km/s) = 6.79046 11.54282 9.46961
#
# Compressibility (1/GPa) = 0.03047814
#
# Stress axis : x y z
#
# Youngs Moduli (GPa) = 120.94781 120.94733 47.93046
#
# Poissons Ratio (x) = 0.21352 0.04062
# Poissons Ratio (y) = 0.21352 0.04064
# Poissons Ratio (z) = 0.10250 0.10255
#
# Static dielectric constant tensor:
#      x y z
#    x 1.526990 0.000000 0.000000 
#    y 0.000000 1.527580 0.000000 
#    z 0.000000 0.000000 1.935970 
# 
# From -- ./inp_files/1384.got.cif
#   From: 2010.05.17/outbox.cif.g08.bks.cpg/sg92_1_cif.got.tgz:1384.got - 2010.06.03 19:35:17.
