data_PCOD9548685
_publ_section_title
;
Structure prediction by ZEFSAII (Michael W. Deem and Ramdas Pophale) SiO2 
 PCOD9548685
Probable space group: P 41 2 2
;
_chemical_formula_sum "Si O2"
_cell_formula_units_Z 60
_cell_length_a 18.209797
_cell_length_b 18.209797
_cell_length_c 8.409460
_cell_angle_alpha 90.000000
_cell_angle_beta 90.000000
_cell_angle_gamma 90.000000
_cell_volume 2788.549242
_symmetry_space_group_name_H-M "P 41 2 2"
_symmetry_group_IT_number 91
_symmetry_cell_setting 'tetragonal'
loop_
_space_group_symop_operation_xyz
x,y,z
-y,x,1/4+z
-x,-y,1/2+z
y,-x,3/4+z
x,-y,1/2-z
-x,y,-z
y,x,3/4-z
-y,-x,1/4-z
loop_
_atom_site_type_symbol
_atom_site_label
_atom_site_fract_x
_atom_site_fract_y
_atom_site_fract_z
Si Si1 0.225043 0.136007 0.582162
Si Si2 0.307096 0.889387 0.233236
Si Si3 0.529508 0.075074 0.675810
Si Si4 0.483770 0.225634 0.816715
Si Si5 0.177637 0.945523 0.397431
Si Si6 0.798687 0.000000 0.250000
Si Si7 0.739828 0.318080 0.979079
Si Si8 0.276226 0.633453 0.996799
O O1 0.244664 0.113494 0.403130
O O2 0.138324 0.147626 0.621523
O O3 0.279106 0.204087 0.610116
O O4 0.247192 0.070808 0.699945
O O5 0.381943 0.925315 0.173846
O O6 0.265703 0.931648 0.375070
O O7 0.332907 0.806080 0.269092
O O8 0.500000 0.087383 0.500000
O O9 0.502490 0.141133 0.785020
O O10 0.502092 0.000000 0.750000
O O11 0.400663 0.238976 0.766850
O O12 0.547398 0.269086 0.721535
O O13 0.500000 0.242159 0.000000
O O14 0.162863 0.976962 0.577564
O O15 0.153918 0.000000 0.250000
O O16 0.737774 0.262227 0.125000
O O17 0.656740 0.315833 0.915307
O O18 0.323093 0.676908 0.125000
#
# Coordination Sequence:
#
# PCOD9548685 Si02
#       8
#     8   8   8   8   8   4   8   8
#     4  12  25  46  70 105 138 179 247 299 362 432
#     4  11  22  44  72  97 138 186 240 289 353 427
#     4  11  25  44  65  99 145 190 227 282 358 437
#     4  11  25  43  66 102 142 181 236 288 353 425
#     4  12  24  44  71 100 138 184 232 302 368 424
#     4  12  28  40  68 104 140 172 236 304 352 440
#     4  12  23  42  71 101 137 184 234 293 348 421
#     4  11  22  41  72 100 134 181 231 288 347 421
#
# _framework density 21.516565
#
# number of rings (size 3 to 8) (size 9 to 14) (size 15 to 20)
#    0.000    0.533    5.333    3.200    1.867    0.000 
#    4.800    0.000    5.867    2.400    0.000    0.000 
#    0.000    0.000    0.000    0.000    0.000    0.000 
#
# Total GULP energy -334707.464591 kJ/mol
# GULP energy per Si atom -5578.457743 kJ/mol
# Density = 2.146759 g / cm^3
# Si number density = 21.516565 Si / 1000 Ang^3
#
#
#
# Elastic Constant Matrix: (Units=GPa)
#
#
# Indices 1 2 3 4 5 6 
#
# 1 112.4998 39.8201 24.6436 0.0000 0.0000 0.0000
# 2 39.8201 112.5007 24.6436 0.0000 0.0000 0.0000
# 3 24.6436 24.6436 90.1095 0.0000 0.0000 0.0000
# 4 0.0000 0.0000 0.0000 28.8416 0.0000 0.0000
# 5 0.0000 0.0000 0.0000 0.0000 28.8419 0.0000
# 6 0.0000 0.0000 0.0000 0.0000 0.0000 15.2486
#
#
#
# Elastic Compliance Matrix: (Units=1/GPa)
#
#
# Indices 1 2 3 4 5 6 
#
# 1 0.010481 -0.003278 -0.001970 0.000000 0.000000 0.000000
# 2 -0.003278 0.010481 -0.001970 0.000000 0.000000 0.000000
# 3 -0.001970 -0.001970 0.012175 0.000000 0.000000 0.000000
# 4 0.000000 0.000000 0.000000 0.034672 0.000000 0.000000
# 5 0.000000 0.000000 0.000000 0.000000 0.034672 0.000000
# 6 0.000000 0.000000 0.000000 0.000000 0.000000 0.065580
#
#
# Mechanical properties :
#
#
# Convention : Reuss Voigt Hill
#
# Bulk Modulus (GPa) = 53.47338 54.81385 54.14361
# Shear Modulus (GPa) = 26.49296 29.65327 28.07311
#
# Velocity S-wave (km/s) = 3.51277 3.71638 3.61601
# Velocity P-wave (km/s) = 6.43109 6.62917 6.53088
#
# Compressibility (1/GPa) = 0.01870089
#
# Stress axis : x y z
#
# Youngs Moduli (GPa) = 95.41310 95.41393 82.13543
#
# Poissons Ratio (x) = 0.31279 0.16179
# Poissons Ratio (y) = 0.31278 0.16179
# Poissons Ratio (z) = 0.18794 0.18794
#
# Static dielectric constant tensor:
#      x y z
#    x 1.814130 0.000000 0.000000 
#    y 0.000000 1.814130 0.000000 
#    z 0.000000 0.000000 2.056430 
# 
# From -- ./inp_files/19705.got.cif
#   From: 2010.05.17/outbox.cif.g08.bks.cpg/sg91_10_cif.got.tgz:19705.got - 2010.06.03 19:20:03.
