data_PCOD9548341
_publ_section_title
;
Structure prediction by ZEFSAII (Michael W. Deem and Ramdas Pophale) SiO2 
 PCOD9548341
Probable space group: P 41 2 2
;
_chemical_formula_sum "Si O2"
_cell_formula_units_Z 48
_cell_length_a 12.293955
_cell_length_b 12.293955
_cell_length_c 15.809803
_cell_angle_alpha 90.000000
_cell_angle_beta 90.000000
_cell_angle_gamma 90.000000
_cell_volume 2389.514645
_symmetry_space_group_name_H-M "P 41 2 2"
_symmetry_group_IT_number 91
_symmetry_cell_setting 'tetragonal'
loop_
_space_group_symop_operation_xyz
x,y,z
-y,x,1/4+z
-x,-y,1/2+z
y,-x,3/4+z
x,-y,1/2-z
-x,y,-z
y,x,3/4-z
-y,-x,1/4-z
loop_
_atom_site_type_symbol
_atom_site_label
_atom_site_fract_x
_atom_site_fract_y
_atom_site_fract_z
Si Si1 0.170444 0.573426 0.085239
Si Si2 0.500000 0.043720 0.500000
Si Si3 0.718593 0.718593 0.375000
Si Si4 0.772321 0.533828 0.094116
Si Si5 0.537740 0.377843 0.406085
Si Si6 0.115022 0.681184 0.771303
Si Si7 0.041193 0.207748 0.404250
O O1 0.109450 0.520151 0.164090
O O2 0.292201 0.524864 0.096643
O O3 0.134595 0.698330 0.095796
O O4 0.149363 0.546357 0.987044
O O5 0.611153 0.979644 0.477843
O O6 0.591999 0.737982 0.350997
O O7 0.734208 0.800890 0.454820
O O8 0.666683 0.612154 0.089391
O O9 0.828990 0.583962 0.175688
O O10 0.500000 0.353320 0.500000
O O11 0.493969 0.493969 0.375000
O O12 0.055446 0.758353 0.839711
O O13 0.097217 0.097217 0.375000
O O14 0.000000 0.200548 0.500000
#
# Coordination Sequence:
#
# PCOD9548341 Si02
#       7
#     8   4   4   8   8   8   8
#     4  11  23  39  67  98 136 176 232 279 343 412
#     4  10  22  42  64  94 132 182 224 292 340 402
#     4  12  24  44  66 102 148 194 222 272 334 432
#     4  12  23  39  67 100 147 191 221 263 334 426
#     4  12  23  35  56 100 144 183 218 264 323 416
#     4  11  24  44  69  97 140 179 236 280 351 427
#     4  11  25  49  76  98 127 175 236 309 368 405
#
# _framework density 20.087762000000001
#
# number of rings (size 3 to 8) (size 9 to 14) (size 15 to 20)
#    0.000    0.667    6.667    1.500    0.000    0.000 
#    7.500    0.000    0.000    0.000    0.000    0.000 
#    0.000    0.000    0.000    0.000    0.000    0.000 
#
# Total GULP energy -267564.512758 kJ/mol
# GULP energy per Si atom -5574.260682 kJ/mol
# Density = 2.004204 g / cm^3
# Si number density = 20.087762 Si / 1000 Ang^3
#
#
#
# Elastic Constant Matrix: (Units=GPa)
#
#
# Indices 1 2 3 4 5 6 
#
# 1 73.9615 52.7315 54.8446 0.0000 0.0000 0.0000
# 2 52.7315 73.9615 54.8446 0.0000 0.0000 0.0000
# 3 54.8446 54.8446 147.6778 0.0000 0.0000 0.0000
# 4 0.0000 0.0000 0.0000 30.6640 0.0000 0.0000
# 5 0.0000 0.0000 0.0000 0.0000 30.6640 0.0000
# 6 0.0000 0.0000 0.0000 0.0000 0.0000 13.5259
#
#
#
# Elastic Compliance Matrix: (Units=1/GPa)
#
#
# Indices 1 2 3 4 5 6 
#
# 1 0.029368 -0.017735 -0.004321 0.000000 0.000000 0.000000
# 2 -0.017735 0.029368 -0.004321 0.000000 0.000000 0.000000
# 3 -0.004321 -0.004321 0.009981 0.000000 0.000000 0.000000
# 4 0.000000 0.000000 0.000000 0.032611 0.000000 0.000000
# 5 0.000000 0.000000 0.000000 0.000000 0.032611 0.000000
# 6 0.000000 0.000000 0.000000 0.000000 0.000000 0.073932
#
#
# Mechanical properties :
#
#
# Convention : Reuss Voigt Hill
#
# Bulk Modulus (GPa) = 62.63321 68.93803 65.78562
# Shear Modulus (GPa) = 18.80079 23.84946 21.32513
#
# Velocity S-wave (km/s) = 3.06262 3.44941 3.26175
# Velocity P-wave (km/s) = 6.61466 7.08925 6.85606
#
# Compressibility (1/GPa) = 0.01596597
#
# Stress axis : x y z
#
# Youngs Moduli (GPa) = 34.05018 34.05018 100.19395
#
# Poissons Ratio (x) = 0.60387 0.43289
# Poissons Ratio (y) = 0.60387 0.43289
# Poissons Ratio (z) = 0.14712 0.14712
#
# Static dielectric constant tensor:
#      x y z
#    x 1.793500 0.000000 0.000000 
#    y 0.000000 1.793500 0.000000 
#    z 0.000000 0.000000 1.758740 
# 
# From -- ./inp_files/21141.got.cif
#   From: 2010.05.17/outbox.cif.g08.bks.cpg/sg91_11_cif.got.tgz:21141.got - 2010.06.03 19:20:03.
