data_PCOD9548862
_publ_section_title
;
Structure prediction by ZEFSAII (Michael W. Deem and Ramdas Pophale) SiO2 
 PCOD9548862
Probable space group: P 41 21 2
;
_chemical_formula_sum "Si O2"
_cell_formula_units_Z 56
_cell_length_a 13.836675
_cell_length_b 13.836675
_cell_length_c 16.441480
_cell_angle_alpha 90.000000
_cell_angle_beta 90.000000
_cell_angle_gamma 90.000000
_cell_volume 3147.780125
_symmetry_space_group_name_H-M "P 41 21 2"
_symmetry_group_IT_number 92
_symmetry_cell_setting 'tetragonal'
loop_
_space_group_symop_operation_xyz
x,y,z
1/2-y,1/2+x,1/4+z
-x,-y,1/2+z
1/2+y,1/2-x,3/4+z
1/2+x,1/2-y,3/4-z
1/2-x,1/2+y,1/4-z
y,x,-z
-y,-x,1/2-z
loop_
_atom_site_type_symbol
_atom_site_label
_atom_site_fract_x
_atom_site_fract_y
_atom_site_fract_z
Si Si1 0.385716 0.989822 0.187846
Si Si2 0.448364 0.167677 0.488022
Si Si3 0.463313 0.369945 0.424260
Si Si4 0.253676 0.824384 0.885058
Si Si5 0.527175 0.154004 0.121134
Si Si6 0.863818 0.547676 0.736486
Si Si7 0.378399 0.662405 0.657687
O O1 0.445683 0.083980 0.157884
O O2 0.340909 0.019143 0.274084
O O3 0.452289 0.896939 0.213149
O O4 0.326954 0.966972 0.105561
O O5 0.495171 0.267643 0.461971
O O6 0.368730 0.191907 0.555616
O O7 0.530786 0.098389 0.522265
O O8 0.400271 0.120638 0.408571
O O9 0.438689 0.438689 0.500000
O O10 0.360506 0.345994 0.379835
O O11 0.555022 0.402699 0.372811
O O12 0.294307 0.885551 0.960468
O O13 0.286717 0.712587 0.888921
O O14 0.533273 0.262833 0.152634
O O15 0.346101 0.653900 0.750000
#
# Coordination Sequence:
#
# PCOD9548862 Si02
#       7
#     8   8   8   8   8   8   8
#     4   9  20  32  51  83 114 148 183 229 293 340
#     4  10  17  30  52  79 116 138 174 231 291 346
#     4  10  22  36  50  79 111 145 186 232 279 349
#     4  11  19  33  53  84 113 139 189 238 289 351
#     4  10  20  32  51  83 117 144 183 232 290 355
#     4  10  17  30  53  80 113 148 178 233 288 336
#     4  12  22  33  56  82 111 152 185 234 303 345
#
# _framework density 17.790316000000001
#
# number of rings (size 3 to 8) (size 9 to 14) (size 15 to 20)
#    0.000    1.714    5.714    0.429    4.000    0.000 
#    0.000    1.429    0.000    0.000    0.000    7.000 
#    0.000    0.000    0.000    0.000    0.000    0.000 
#
# Total GULP energy -311736.427956 kJ/mol
# GULP energy per Si atom -5566.721928 kJ/mol
# Density = 1.774982 g / cm^3
# Si number density = 17.790316 Si / 1000 Ang^3
#
#
#
# Elastic Constant Matrix: (Units=GPa)
#
#
# Indices 1 2 3 4 5 6 
#
# 1 30.7415 21.7910 16.5047 0.0000 0.0000 0.0000
# 2 21.7910 30.7401 16.5039 0.0000 0.0000 0.0000
# 3 16.5047 16.5039 108.1846 0.0000 0.0000 0.0000
# 4 0.0000 0.0000 0.0000 18.6945 0.0000 0.0000
# 5 0.0000 0.0000 0.0000 0.0000 18.6945 0.0000
# 6 0.0000 0.0000 0.0000 0.0000 0.0000 13.6821
#
#
#
# Elastic Compliance Matrix: (Units=1/GPa)
#
#
# Indices 1 2 3 4 5 6 
#
# 1 0.066393 -0.045340 -0.003212 0.000000 0.000000 0.000000
# 2 -0.045340 0.066396 -0.003212 0.000000 0.000000 0.000000
# 3 -0.003212 -0.003212 0.010223 0.000000 0.000000 0.000000
# 4 0.000000 0.000000 0.000000 0.053492 0.000000 0.000000
# 5 0.000000 0.000000 0.000000 0.000000 0.053492 0.000000
# 6 0.000000 0.000000 0.000000 0.000000 0.000000 0.073088
#
#
# Mechanical properties :
#
#
# Convention : Reuss Voigt Hill
#
# Bulk Modulus (GPa) = 25.32658 31.02951 28.17804
# Shear Modulus (GPa) = 11.36948 17.87199 14.62073
#
# Velocity S-wave (km/s) = 2.53075 3.17297 2.86988
# Velocity P-wave (km/s) = 4.77563 5.55907 5.18218
#
# Compressibility (1/GPa) = 0.03948421
#
# Stress axis : x y z
#
# Youngs Moduli (GPa) = 15.06178 15.06119 97.81406
#
# Poissons Ratio (x) = 0.68288 0.31420
# Poissons Ratio (y) = 0.68290 0.31416
# Poissons Ratio (z) = 0.04838 0.04837
#
# Static dielectric constant tensor:
#      x y z
#    x 1.630980 0.000000 0.000000 
#    y 0.000000 1.630980 0.000000 
#    z 0.000000 0.000000 1.631890 
# 
# From -- ./inp_files/2764.got.cif
#   From: 2010.05.17/outbox.cif.g08.bks.cpg/sg92_2_cif.got.tgz:2764.got - 2010.06.03 19:35:17.
