data_PCOD9548910
_publ_section_title
;
Structure prediction by ZEFSAII (Michael W. Deem and Ramdas Pophale) SiO2 
 PCOD9548910
Probable space group: P 41 21 2
;
_chemical_formula_sum "Si O2"
_cell_formula_units_Z 44
_cell_length_a 8.605916
_cell_length_b 8.605916
_cell_length_c 28.766459
_cell_angle_alpha 90.000000
_cell_angle_beta 90.000000
_cell_angle_gamma 90.000000
_cell_volume 2130.495451
_symmetry_space_group_name_H-M "P 41 21 2"
_symmetry_group_IT_number 92
_symmetry_cell_setting 'tetragonal'
loop_
_space_group_symop_operation_xyz
x,y,z
1/2-y,1/2+x,1/4+z
-x,-y,1/2+z
1/2+y,1/2-x,3/4+z
1/2+x,1/2-y,3/4-z
1/2-x,1/2+y,1/4-z
y,x,-z
-y,-x,1/2-z
loop_
_atom_site_type_symbol
_atom_site_label
_atom_site_fract_x
_atom_site_fract_y
_atom_site_fract_z
Si Si1 0.229106 0.142416 0.673858
Si Si2 0.791314 0.095024 0.590592
Si Si3 0.630326 0.551623 0.876573
Si Si4 0.362456 0.681293 0.029844
Si Si5 0.914889 0.334487 0.664983
Si Si6 0.170134 0.829867 0.250000
O O1 0.376444 0.231877 0.653664
O O2 0.231487 0.088253 0.727833
O O3 0.088092 0.269357 0.670881
O O4 0.180612 0.997133 0.641982
O O5 0.773803 0.199977 0.544641
O O6 0.832042 0.218896 0.629722
O O7 0.628805 0.006583 0.599613
O O8 0.923731 0.964807 0.596836
O O9 0.684131 0.479562 0.926267
O O10 0.324469 0.497430 0.025824
O O11 0.832675 0.309765 0.714497
#
# Coordination Sequence:
#
# PCOD9548910 Si02
#       6
#     8   8   8   8   8   4
#     4  10  24  40  66  91 129 172 211 261 331 387
#     4  11  21  37  65  92 126 164 211 266 312 380
#     4  11  22  42  66  91 132 168 213 269 320 392
#     4  11  20  42  65  88 128 171 215 262 322 394
#     4  10  20  37  60  92 120 164 208 258 319 376
#     4  10  18  40  64  84 118 170 214 254 322 384
#
# _framework density 20.652474999999999
#
# number of rings (size 3 to 8) (size 9 to 14) (size 15 to 20)
#    0.000    1.455    7.273    0.000    2.545    2.182 
#    0.000    7.273    8.000    0.000    0.000    0.000 
#    0.000    0.000    0.000    0.000    0.000    0.000 
#
# Total GULP energy -245221.352927 kJ/mol
# GULP energy per Si atom -5573.212567 kJ/mol
# Density = 2.060547 g / cm^3
# Si number density = 20.652475 Si / 1000 Ang^3
#
#
#
# Elastic Constant Matrix: (Units=GPa)
#
#
# Indices 1 2 3 4 5 6 
#
# 1 54.2440 53.4435 25.6895 0.0000 0.0000 0.0000
# 2 53.4435 54.2443 25.6895 0.0000 0.0000 0.0000
# 3 25.6895 25.6895 64.0711 0.0000 0.0000 0.0000
# 4 0.0000 0.0000 0.0000 18.5972 0.0000 0.0000
# 5 0.0000 0.0000 0.0000 0.0000 18.5971 0.0000
# 6 0.0000 0.0000 0.0000 0.0000 0.0000 36.7890
#
#
#
# Elastic Compliance Matrix: (Units=1/GPa)
#
#
# Indices 1 2 3 4 5 6 
#
# 1 0.630264 -0.618779 -0.004606 0.000000 0.000000 0.000000
# 2 -0.618779 0.630259 -0.004602 0.000000 0.000000 0.000000
# 3 -0.004606 -0.004602 0.019300 0.000000 0.000000 0.000000
# 4 0.000000 0.000000 0.000000 0.053771 0.000000 0.000000
# 5 0.000000 0.000000 0.000000 0.000000 0.053772 0.000000
# 6 0.000000 0.000000 0.000000 0.000000 0.000000 0.027182
#
#
# Mechanical properties :
#
#
# Convention : Reuss Voigt Hill
#
# Bulk Modulus (GPa) = 41.93048 42.46716 42.19882
# Shear Modulus (GPa) = 1.86674 19.31245 10.58959
#
# Velocity S-wave (km/s) = 0.95176 3.06128 2.26686
# Velocity P-wave (km/s) = 4.64271 5.75349 5.22769
#
# Compressibility (1/GPa) = 0.02384900
#
# Stress axis : x y z
#
# Youngs Moduli (GPa) = 1.58664 1.58665 51.81437
#
# Poissons Ratio (x) = 0.98178 0.23864
# Poissons Ratio (y) = 0.98178 0.23847
# Poissons Ratio (z) = 0.00731 0.00730
#
# Static dielectric constant tensor:
#      x y z
#    x 1.763820 0.000000 0.000000 
#    y 0.000000 1.763820 0.000000 
#    z 0.000000 0.000000 1.757350 
# 
# From -- ./inp_files/4408.got.cif
#   From: 2010.05.17/outbox.cif.g08.bks.cpg/sg92_3_cif.got.tgz:4408.got - 2010.06.03 19:35:17.
