data_PCOD9548704
_publ_section_title
;
Structure prediction by ZEFSAII (Michael W. Deem and Ramdas Pophale) SiO2 
 PCOD9548704
Probable space group: P 41 2 2
;
_chemical_formula_sum "Si O2"
_cell_formula_units_Z 36
_cell_length_a 11.687326
_cell_length_b 11.687326
_cell_length_c 12.285812
_cell_angle_alpha 90.000000
_cell_angle_beta 90.000000
_cell_angle_gamma 90.000000
_cell_volume 1678.163155
_symmetry_space_group_name_H-M "P 41 2 2"
_symmetry_group_IT_number 91
_symmetry_cell_setting 'tetragonal'
loop_
_space_group_symop_operation_xyz
x,y,z
-y,x,1/4+z
-x,-y,1/2+z
y,-x,3/4+z
x,-y,1/2-z
-x,y,-z
y,x,3/4-z
-y,-x,1/4-z
loop_
_atom_site_type_symbol
_atom_site_label
_atom_site_fract_x
_atom_site_fract_y
_atom_site_fract_z
Si Si1 0.878085 0.494928 0.551775
Si Si2 0.110900 0.272952 0.185674
Si Si3 0.591331 0.751506 0.407713
Si Si4 0.281892 0.281892 0.375000
Si Si5 0.185246 0.879150 0.510805
O O1 0.903250 0.597870 0.638592
O O2 0.819564 0.555656 0.448655
O O3 0.782247 0.406614 0.599961
O O4 0.000000 0.449417 0.500000
O O5 0.221082 0.257151 0.260295
O O6 0.005159 0.232811 0.260152
O O7 0.121126 0.187684 0.083430
O O8 0.500000 0.756138 0.500000
O O9 0.622917 0.622917 0.375000
O O10 0.703286 0.805121 0.461807
O O11 0.117737 0.882264 0.625000
#
# Coordination Sequence:
#
# PCOD9548704 Si02
#       5
#     8   8   8   4   8
#     4  12  25  49  79 105 148 203 252 310 380 468
#     4  12  25  49  74 110 157 201 256 313 378 467
#     4  11  23  42  74 106 139 191 253 294 365 448
#     4  12  32  44  72 116 148 188 254 324 384 438
#     4  11  22  45  76 110 143 201 258 299 372 458
#
# _framework density 21.452027000000001
#
# number of rings (size 3 to 8) (size 9 to 14) (size 15 to 20)
#    0.000    0.444    6.667    2.667    6.222    0.000 
#    8.000    0.000    0.000    0.000    0.000    0.000 
#    0.000    0.000    0.000    0.000    0.000    0.000 
#
# Total GULP energy -200562.774625 kJ/mol
# GULP energy per Si atom -5571.188184 kJ/mol
# Density = 2.140320 g / cm^3
# Si number density = 21.452027 Si / 1000 Ang^3
#
#
#
# Elastic Constant Matrix: (Units=GPa)
#
#
# Indices 1 2 3 4 5 6 
#
# 1 79.4884 57.9759 16.4794 0.0000 0.0000 0.0000
# 2 57.9759 79.4893 16.4799 0.0000 0.0000 0.0000
# 3 16.4794 16.4799 74.6611 0.0000 0.0000 0.0000
# 4 0.0000 0.0000 0.0000 20.2527 0.0000 0.0000
# 5 0.0000 0.0000 0.0000 0.0000 20.2530 0.0000
# 6 0.0000 0.0000 0.0000 0.0000 0.0000 18.5242
#
#
#
# Elastic Compliance Matrix: (Units=1/GPa)
#
#
# Indices 1 2 3 4 5 6 
#
# 1 0.027083 -0.019401 -0.001695 0.000000 0.000000 0.000000
# 2 -0.019401 0.027082 -0.001696 0.000000 0.000000 0.000000
# 3 -0.001695 -0.001696 0.014142 0.000000 0.000000 0.000000
# 4 0.000000 0.000000 0.000000 0.049376 0.000000 0.000000
# 5 0.000000 0.000000 0.000000 0.000000 0.049375 0.000000
# 6 0.000000 0.000000 0.000000 0.000000 0.000000 0.053983
#
#
# Mechanical properties :
#
#
# Convention : Reuss Voigt Hill
#
# Bulk Modulus (GPa) = 44.00863 46.16769 45.08816
# Shear Modulus (GPa) = 18.23483 21.31955 19.77719
#
# Velocity S-wave (km/s) = 2.91869 3.15592 3.03962
# Velocity P-wave (km/s) = 5.64958 5.90321 5.77779
#
# Compressibility (1/GPa) = 0.02272282
#
# Stress axis : x y z
#
# Youngs Moduli (GPa) = 36.92421 36.92455 70.70988
#
# Poissons Ratio (x) = 0.71638 0.11987
# Poissons Ratio (y) = 0.71638 0.11989
# Poissons Ratio (z) = 0.06260 0.06261
#
# Static dielectric constant tensor:
#      x y z
#    x 1.894050 0.000000 0.000000 
#    y 0.000000 1.894040 0.000000 
#    z 0.000000 0.000000 1.789710 
# 
# From -- ./inp_files/3517.got.cif
#   From: 2010.05.17/outbox.cif.g08.bks.cpg/sg91_2_cif.got.tgz:3517.got - 2010.06.03 19:20:03.
