data_PCOD9548037
_publ_section_title
;
Structure prediction by ZEFSAII (Michael W. Deem and Ramdas Pophale) SiO2 
 PCOD9548037
Probable space group: P 41 2 2
;
_chemical_formula_sum "Si O2"
_cell_formula_units_Z 56
_cell_length_a 14.594945
_cell_length_b 14.594945
_cell_length_c 10.792697
_cell_angle_alpha 90.000000
_cell_angle_beta 90.000000
_cell_angle_gamma 90.000000
_cell_volume 2298.978501
_symmetry_space_group_name_H-M "P 41 2 2"
_symmetry_group_IT_number 91
_symmetry_cell_setting 'tetragonal'
loop_
_space_group_symop_operation_xyz
x,y,z
-y,x,1/4+z
-x,-y,1/2+z
y,-x,3/4+z
x,-y,1/2-z
-x,y,-z
y,x,3/4-z
-y,-x,1/4-z
loop_
_atom_site_type_symbol
_atom_site_label
_atom_site_fract_x
_atom_site_fract_y
_atom_site_fract_z
Si Si1 0.148602 0.213148 0.237236
Si Si2 0.879464 0.371381 0.179168
Si Si3 0.588911 0.500000 0.750000
Si Si4 0.955222 0.805575 0.382711
Si Si5 0.912438 0.706533 0.076714
Si Si6 0.249398 0.393399 0.131364
Si Si7 0.476229 0.888568 0.244814
Si Si8 0.311557 0.311557 0.875000
O O1 0.181187 0.181187 0.375000
O O2 0.039337 0.201577 0.215628
O O3 0.202404 0.142363 0.147915
O O4 0.192633 0.309401 0.192568
O O5 0.935918 0.352963 0.302499
O O6 0.780004 0.330204 0.202843
O O7 0.924441 0.298612 0.085417
O O8 0.867797 0.469334 0.121112
O O9 0.530999 0.469001 0.625000
O O10 0.661945 0.579166 0.711928
O O11 0.000000 0.852305 0.500000
O O12 0.862312 0.862312 0.375000
O O13 0.859159 0.629521 0.997161
O O14 0.000000 0.732269 0.000000
O O15 0.170306 0.470248 0.107426
O O16 0.294406 0.379120 0.992495
O O17 0.479601 0.000000 0.250000
#
# Coordination Sequence:
#
# PCOD9548037 Si02
#       8
#     8   8   4   8   8   8   8   4
#     4  12  26  45  69 103 149 203 253 320 399 483
#     4  11  19  41  65  98 133 179 238 307 378 451
#     4  12  32  56  84 122 164 216 282 368 454 548
#     4  12  25  42  71 100 144 196 259 324 385 475
#     4  11  24  41  62  95 140 184 242 303 375 455
#     4  11  25  47  81 110 153 205 262 332 424 499
#     4  10  23  41  68 106 138 186 243 307 378 467
#     4  10  20  40  76 108 140 188 250 312 392 490
#
# _framework density 24.358642
#
# number of rings (size 3 to 8) (size 9 to 14) (size 15 to 20)
#    0.000    0.857    2.143    5.571    5.000    1.143 
#    2.571    0.000    0.000    0.000    0.000    0.000 
#    0.000    0.000    0.000    0.000    0.000    0.000 
#
# Total GULP energy -311828.138317 kJ/mol
# GULP energy per Si atom -5568.359613 kJ/mol
# Density = 2.430320 g / cm^3
# Si number density = 24.358642 Si / 1000 Ang^3
#
#
#
# Elastic Constant Matrix: (Units=GPa)
#
#
# Indices 1 2 3 4 5 6 
#
# 1 101.0074 46.7710 20.5838 0.0000 0.0000 0.0000
# 2 46.7710 101.0071 20.5836 0.0000 0.0000 0.0000
# 3 20.5838 20.5836 113.0559 0.0000 0.0000 0.0000
# 4 0.0000 0.0000 0.0000 37.3498 0.0000 0.0000
# 5 0.0000 0.0000 0.0000 0.0000 37.3498 0.0000
# 6 0.0000 0.0000 0.0000 0.0000 0.0000 34.4190
#
#
#
# Elastic Compliance Matrix: (Units=1/GPa)
#
#
# Indices 1 2 3 4 5 6 
#
# 1 0.012783 -0.005655 -0.001298 0.000000 0.000000 0.000000
# 2 -0.005655 0.012783 -0.001298 0.000000 0.000000 0.000000
# 3 -0.001298 -0.001298 0.009318 0.000000 0.000000 0.000000
# 4 0.000000 0.000000 0.000000 0.026774 0.000000 0.000000
# 5 0.000000 0.000000 0.000000 0.000000 0.026774 0.000000
# 6 0.000000 0.000000 0.000000 0.000000 0.000000 0.029054
#
#
# Mechanical properties :
#
#
# Convention : Reuss Voigt Hill
#
# Bulk Modulus (GPa) = 54.39732 54.54969 54.47350
# Shear Modulus (GPa) = 35.68518 36.96585 36.32551
#
# Velocity S-wave (km/s) = 3.83167 3.89982 3.86590
# Velocity P-wave (km/s) = 6.47734 6.53614 6.50681
#
# Compressibility (1/GPa) = 0.01838326
#
# Stress axis : x y z
#
# Youngs Moduli (GPa) = 78.22801 78.22792 107.32174
#
# Poissons Ratio (x) = 0.44236 0.13929
# Poissons Ratio (y) = 0.44236 0.13929
# Poissons Ratio (z) = 0.10153 0.10153
#
# Static dielectric constant tensor:
#      x y z
#    x 1.972090 0.000000 0.000000 
#    y 0.000000 1.972090 0.000000 
#    z 0.000000 0.000000 2.169150 
# 
# From -- ./inp_files/3976.got.cif
#   From: 2010.05.17/outbox.cif.g08.bks.cpg/sg91_2_cif.got.tgz:3976.got - 2010.06.03 19:20:03.
