data_PCOD9548189
_publ_section_title
;
Structure prediction by ZEFSAII (Michael W. Deem and Ramdas Pophale) SiO2 
 PCOD9548189
Probable space group: P 41 2 2
;
_chemical_formula_sum "Si O2"
_cell_formula_units_Z 36
_cell_length_a 11.607927
_cell_length_b 11.607927
_cell_length_c 11.127378
_cell_angle_alpha 90.000000
_cell_angle_beta 90.000000
_cell_angle_gamma 90.000000
_cell_volume 1499.347079
_symmetry_space_group_name_H-M "P 41 2 2"
_symmetry_group_IT_number 91
_symmetry_cell_setting 'tetragonal'
loop_
_space_group_symop_operation_xyz
x,y,z
-y,x,1/4+z
-x,-y,1/2+z
y,-x,3/4+z
x,-y,1/2-z
-x,y,-z
y,x,3/4-z
-y,-x,1/4-z
loop_
_atom_site_type_symbol
_atom_site_label
_atom_site_fract_x
_atom_site_fract_y
_atom_site_fract_z
Si Si1 0.798225 0.326800 0.234025
Si Si2 0.500000 0.395996 0.000000
Si Si3 0.000000 0.857005 0.000000
Si Si4 0.198287 0.907983 0.853499
Si Si5 0.681285 0.148483 0.589744
Si Si6 0.003293 0.500000 0.250000
O O1 0.733768 0.266233 0.125000
O O2 0.695233 0.401311 0.291658
O O3 0.839894 0.217475 0.307239
O O4 0.908796 0.404920 0.205942
O O5 0.462101 0.462101 0.875000
O O6 0.909276 0.939975 0.064189
O O7 0.074031 0.770028 0.081531
O O8 0.223551 0.000000 0.750000
O O9 0.297180 0.874750 0.948412
O O10 0.720698 0.279303 0.625000
O O11 0.556863 0.087645 0.600583
#
# Coordination Sequence:
#
# PCOD9548189 Si02
#       6
#     8   4   4   8   8   4
#     4  10  21  41  70 105 140 190 260 301 365 457
#     4   9  20  42  73 108 144 192 247 325 382 436
#     4  10  22  46  62  96 152 196 232 300 358 442
#     4  11  23  42  65 101 144 190 239 294 358 448
#     4  10  23  44  66 103 143 193 245 299 374 436
#     4  11  20  44  73  96 146 200 237 303 374 440
#
# _framework density 24.010452000000001
#
# number of rings (size 3 to 8) (size 9 to 14) (size 15 to 20)
#    0.000    1.778    2.222    1.333    0.000    0.000 
#   24.000    6.667    0.000    0.000    0.000    0.000 
#    0.000    0.000    0.000    0.000    0.000    0.000 
#
# Total GULP energy -200532.868212 kJ/mol
# GULP energy per Si atom -5570.357450 kJ/mol
# Density = 2.395580 g / cm^3
# Si number density = 24.010452 Si / 1000 Ang^3
#
#
#
# Elastic Constant Matrix: (Units=GPa)
#
#
# Indices 1 2 3 4 5 6 
#
# 1 111.7077 65.4147 40.8461 0.0000 0.0000 0.0000
# 2 65.4147 111.7071 40.8445 0.0000 0.0000 0.0000
# 3 40.8461 40.8445 78.1255 0.0000 0.0000 0.0000
# 4 0.0000 0.0000 0.0000 24.6995 0.0000 0.0000
# 5 0.0000 0.0000 0.0000 0.0000 24.7013 0.0000
# 6 0.0000 0.0000 0.0000 0.0000 0.0000 47.2096
#
#
#
# Elastic Compliance Matrix: (Units=1/GPa)
#
#
# Indices 1 2 3 4 5 6 
#
# 1 0.014521 -0.007081 -0.003890 0.000000 0.000000 0.000000
# 2 -0.007081 0.014521 -0.003889 0.000000 0.000000 0.000000
# 3 -0.003890 -0.003889 0.016867 0.000000 0.000000 0.000000
# 4 0.000000 0.000000 0.000000 0.040487 0.000000 0.000000
# 5 0.000000 0.000000 0.000000 0.000000 0.040484 0.000000
# 6 0.000000 0.000000 0.000000 0.000000 0.000000 0.021182
#
#
# Mechanical properties :
#
#
# Convention : Reuss Voigt Hill
#
# Bulk Modulus (GPa) = 61.77398 66.19455 63.98427
# Shear Modulus (GPa) = 27.29594 29.61774 28.45684
#
# Velocity S-wave (km/s) = 3.37536 3.51598 3.44639
# Velocity P-wave (km/s) = 6.40113 6.64167 6.52251
#
# Compressibility (1/GPa) = 0.01618805
#
# Stress axis : x y z
#
# Youngs Moduli (GPa) = 68.86674 68.86761 59.28725
#
# Poissons Ratio (x) = 0.48765 0.23062
# Poissons Ratio (y) = 0.48764 0.23059
# Poissons Ratio (z) = 0.26788 0.26785
#
# Static dielectric constant tensor:
#      x y z
#    x 2.081660 0.000000 0.000000 
#    y 0.000000 2.081670 0.000000 
#    z 0.000000 0.000000 0.462130 
# 
# From -- ./inp_files/15695.got.cif
#   From: 2010.05.17/outbox.cif.g08.bks.cpg/sg91_8_cif.got.tgz:15695.got - 2010.06.03 19:20:03.
