data_PCOD9548004
_publ_section_title
;
Structure prediction by ZEFSAII (Michael W. Deem and Ramdas Pophale) SiO2 
 PCOD9548004
Probable space group: P 41 2 2
;
_chemical_formula_sum "Si O2"
_cell_formula_units_Z 40
_cell_length_a 17.533078
_cell_length_b 17.533078
_cell_length_c 5.929506
_cell_angle_alpha 90.000000
_cell_angle_beta 90.000000
_cell_angle_gamma 90.000000
_cell_volume 1822.782467
_symmetry_space_group_name_H-M "P 41 2 2"
_symmetry_group_IT_number 91
_symmetry_cell_setting 'tetragonal'
loop_
_space_group_symop_operation_xyz
x,y,z
-y,x,1/4+z
-x,-y,1/2+z
y,-x,3/4+z
x,-y,1/2-z
-x,y,-z
y,x,3/4-z
-y,-x,1/4-z
loop_
_atom_site_type_symbol
_atom_site_label
_atom_site_fract_x
_atom_site_fract_y
_atom_site_fract_z
Si Si1 0.918193 0.081808 0.625000
Si Si2 0.271548 0.271548 0.375000
Si Si3 0.720044 0.606158 0.499229
Si Si4 0.671312 0.151105 0.985434
Si Si5 0.500000 0.615699 0.000000
Si Si6 0.321695 0.000000 0.250000
Si Si7 0.079572 0.224153 0.112753
O O1 0.858060 0.106658 0.435000
O O2 0.000000 0.087652 0.500000
O O3 0.264673 0.349541 0.233470
O O4 0.202034 0.281008 0.553413
O O5 0.661681 0.661681 0.375000
O O6 0.794854 0.606339 0.343965
O O7 0.672777 0.531831 0.559590
O O8 0.640867 0.069562 0.891691
O O9 0.727466 0.130732 0.193645
O O10 0.437815 0.562186 0.125000
O O11 0.272005 0.051077 0.421262
O O12 0.000000 0.206539 0.000000
#
# Coordination Sequence:
#
# PCOD9548004 Si02
#       7
#     4   4   8   8   4   4   8
#     4  12  24  41  52  74 120 172 227 288 362 452
#     4  10  20  41  60  96 136 178 223 294 350 420
#     4  10  22  41  65 103 142 188 231 269 339 412
#     4  10  22  39  63  91 134 170 231 298 353 424
#     4  12  24  44  74 110 162 198 232 272 338 450
#     4  10  20  40  56  92 126 164 226 302 376 408
#     4  10  22  40  56  85 116 167 229 289 367 433
#
# _framework density 21.944474
#
# number of rings (size 3 to 8) (size 9 to 14) (size 15 to 20)
#    0.000    1.600    2.000    2.400    0.000    6.400 
#    7.200    0.000    0.000    0.000    0.000    0.000 
#  135.000    0.000    0.000    0.000    0.000    0.000 
#
# Total GULP energy -223092.306160 kJ/mol
# GULP energy per Si atom -5577.307654 kJ/mol
# Density = 2.189453 g / cm^3
# Si number density = 21.944474 Si / 1000 Ang^3
#
#
#
# Elastic Constant Matrix: (Units=GPa)
#
#
# Indices 1 2 3 4 5 6 
#
# 1 89.6010 73.0566 42.7750 0.0000 0.0000 0.0000
# 2 73.0566 89.6009 42.7756 0.0000 0.0000 0.0000
# 3 42.7750 42.7756 104.3278 0.0000 0.0000 0.0000
# 4 0.0000 0.0000 0.0000 18.4053 0.0000 0.0000
# 5 0.0000 0.0000 0.0000 0.0000 18.4081 0.0000
# 6 0.0000 0.0000 0.0000 0.0000 0.0000 22.7723
#
#
#
# Elastic Compliance Matrix: (Units=1/GPa)
#
#
# Indices 1 2 3 4 5 6 
#
# 1 0.034141 -0.026303 -0.003213 0.000000 0.000000 0.000000
# 2 -0.026303 0.034141 -0.003214 0.000000 0.000000 0.000000
# 3 -0.003213 -0.003214 0.012220 0.000000 0.000000 0.000000
# 4 0.000000 0.000000 0.000000 0.054332 0.000000 0.000000
# 5 0.000000 0.000000 0.000000 0.000000 0.054324 0.000000
# 6 0.000000 0.000000 0.000000 0.000000 0.000000 0.043913
#
#
# Mechanical properties :
#
#
# Convention : Reuss Voigt Hill
#
# Bulk Modulus (GPa) = 66.48081 66.74935 66.61508
# Shear Modulus (GPa) = 16.47198 20.24530 18.35864
#
# Velocity S-wave (km/s) = 2.74272 3.04068 2.89553
# Velocity P-wave (km/s) = 6.35537 6.54302 6.44988
#
# Compressibility (1/GPa) = 0.01504194
#
# Stress axis : x y z
#
# Youngs Moduli (GPa) = 29.29049 29.29027 81.82992
#
# Poissons Ratio (x) = 0.77041 0.26296
# Poissons Ratio (y) = 0.77042 0.26300
# Poissons Ratio (z) = 0.09412 0.09414
#
# Static dielectric constant tensor:
#      x y z
#    x 1.820250 0.000000 0.000000 
#    y 0.000000 1.820250 0.000000 
#    z 0.000000 0.000000 1.874570 
# 
# From -- ./inp_files/18621.got.cif
#   From: 2010.05.17/outbox.cif.g08.bks.cpg/sg91_10_cif.got.tgz:18621.got - 2010.06.03 19:20:03.
