data_PCOD9548481
_publ_section_title
;
Structure prediction by ZEFSAII (Michael W. Deem and Ramdas Pophale) SiO2 
 PCOD9548481
Probable space group: P 41 2 2
;
_chemical_formula_sum "Si O2"
_cell_formula_units_Z 36
_cell_length_a 8.378085
_cell_length_b 8.378085
_cell_length_c 18.732396
_cell_angle_alpha 90.000000
_cell_angle_beta 90.000000
_cell_angle_gamma 90.000000
_cell_volume 1314.870115
_symmetry_space_group_name_H-M "P 41 2 2"
_symmetry_group_IT_number 91
_symmetry_cell_setting 'tetragonal'
loop_
_space_group_symop_operation_xyz
x,y,z
-y,x,1/4+z
-x,-y,1/2+z
y,-x,3/4+z
x,-y,1/2-z
-x,y,-z
y,x,3/4-z
-y,-x,1/4-z
loop_
_atom_site_type_symbol
_atom_site_label
_atom_site_fract_x
_atom_site_fract_y
_atom_site_fract_z
Si Si1 0.067242 0.687663 0.882760
Si Si2 0.956019 0.500000 0.250000
Si Si3 0.546570 0.546570 0.375000
Si Si4 0.536973 0.820913 0.125328
Si Si5 0.934683 0.934683 0.375000
Si Si6 0.638076 0.811303 0.285071
O O1 0.114825 0.635916 0.801755
O O2 0.880608 0.642922 0.886847
O O3 0.085820 0.876094 0.895760
O O4 0.136154 0.536071 0.929432
O O5 0.069127 0.588038 0.308762
O O6 0.361349 0.560247 0.356991
O O7 0.642004 0.625907 0.309635
O O8 0.616182 0.839765 0.202139
O O9 0.798591 0.889331 0.316789
#
# Coordination Sequence:
#
# PCOD9548481 Si02
#       6
#     8   4   4   8   4   8
#     4  10  24  52  81 115 175 222 292 365 448 543
#     4   8  24  44  84 116 160 228 294 364 438 538
#     4  11  25  44  84 120 169 223 278 366 456 525
#     4  10  23  48  83 121 166 228 301 368 453 552
#     4  11  27  54  84 128 177 235 294 370 472 545
#     4  11  26  50  81 126 170 226 292 371 446 549
#
# _framework density 27.379128999999999
#
# number of rings (size 3 to 8) (size 9 to 14) (size 15 to 20)
#    1.333    0.444    0.000    2.000    6.222    0.000 
#    8.000    8.889    0.000    0.000    0.000    0.000 
#    0.000    0.000    0.000    0.000    0.000    0.000 
#
# Total GULP energy -200724.249127 kJ/mol
# GULP energy per Si atom -5575.673587 kJ/mol
# Density = 2.731681 g / cm^3
# Si number density = 27.379129 Si / 1000 Ang^3
#
#
#
# Elastic Constant Matrix: (Units=GPa)
#
#
# Indices 1 2 3 4 5 6 
#
# 1 185.2254 80.0272 25.5214 0.0000 0.0000 0.0000
# 2 80.0272 185.2254 25.5214 0.0000 0.0000 0.0000
# 3 25.5214 25.5214 151.1491 0.0000 0.0000 0.0000
# 4 0.0000 0.0000 0.0000 27.5676 0.0000 0.0000
# 5 0.0000 0.0000 0.0000 0.0000 27.5676 0.0000
# 6 0.0000 0.0000 0.0000 0.0000 0.0000 64.3661
#
#
#
# Elastic Compliance Matrix: (Units=1/GPa)
#
#
# Indices 1 2 3 4 5 6 
#
# 1 0.006701 -0.002805 -0.000658 0.000000 0.000000 0.000000
# 2 -0.002805 0.006701 -0.000658 0.000000 0.000000 0.000000
# 3 -0.000658 -0.000658 0.006838 0.000000 0.000000 0.000000
# 4 0.000000 0.000000 0.000000 0.036275 0.000000 0.000000
# 5 0.000000 0.000000 0.000000 0.000000 0.036275 0.000000
# 6 0.000000 0.000000 0.000000 0.000000 0.000000 0.015536
#
#
# Mechanical properties :
#
#
# Convention : Reuss Voigt Hill
#
# Bulk Modulus (GPa) = 83.33600 87.08221 85.20910
# Shear Modulus (GPa) = 41.47082 49.93558 45.70320
#
# Velocity S-wave (km/s) = 3.89612 4.27530 4.09010
# Velocity P-wave (km/s) = 7.12345 7.49973 7.31401
#
# Compressibility (1/GPa) = 0.01199962
#
# Stress axis : x y z
#
# Youngs Moduli (GPa) = 149.22627 149.22627 146.23802
#
# Poissons Ratio (x) = 0.41853 0.09622
# Poissons Ratio (y) = 0.41853 0.09622
# Poissons Ratio (z) = 0.09818 0.09818
#
# Static dielectric constant tensor:
#      x y z
#    x 2.290560 0.000000 0.000000 
#    y 0.000000 2.290560 0.000000 
#    z 0.000000 0.000000 2.110070 
# 
# From -- ./inp_files/17984.got.cif
#   From: 2010.05.17/outbox.cif.g08.bks.cpg/sg91_9_cif.got.tgz:17984.got - 2010.06.03 19:20:03.
