data_PCOD9548437
_publ_section_title
;
Structure prediction by ZEFSAII (Michael W. Deem and Ramdas Pophale) SiO2 
 PCOD9548437
Probable space group: P 41 2 2
;
_chemical_formula_sum "Si O2"
_cell_formula_units_Z 40
_cell_length_a 8.346103
_cell_length_b 8.346103
_cell_length_c 24.358489
_cell_angle_alpha 90.000000
_cell_angle_beta 90.000000
_cell_angle_gamma 90.000000
_cell_volume 1696.749871
_symmetry_space_group_name_H-M "P 41 2 2"
_symmetry_group_IT_number 91
_symmetry_cell_setting 'tetragonal'
loop_
_space_group_symop_operation_xyz
x,y,z
-y,x,1/4+z
-x,-y,1/2+z
y,-x,3/4+z
x,-y,1/2-z
-x,y,-z
y,x,3/4-z
-y,-x,1/4-z
loop_
_atom_site_type_symbol
_atom_site_label
_atom_site_fract_x
_atom_site_fract_y
_atom_site_fract_z
Si Si1 0.082752 0.768967 0.082470
Si Si2 0.309361 0.245814 0.227805
Si Si3 0.859540 0.441590 0.858988
Si Si4 0.215065 0.627410 0.677924
Si Si5 0.656486 0.712774 0.216119
O O1 0.084613 0.915388 0.125000
O O2 0.149274 0.619937 0.117811
O O3 0.911062 0.709765 0.060656
O O4 0.196264 0.798654 0.029978
O O5 0.261318 0.394028 0.189687
O O6 0.484767 0.266316 0.253842
O O7 0.827061 0.336199 0.913601
O O8 0.034227 0.414931 0.835192
O O9 0.291442 0.708559 0.625000
O O10 0.312660 0.464703 0.691862
O O11 0.222900 0.733035 0.733217
#
# Coordination Sequence:
#
# PCOD9548437 Si02
#       5
#     8   8   8   8   8
#     4  10  23  41  64  95 130 169 218 275 333 397
#     4  10  23  43  65  93 132 175 217 271 338 403
#     4  11  23  41  66  96 131 173 221 276 339 401
#     4  11  24  42  66  99 134 174 226 277 336 407
#     4  10  23  43  66  93 133 176 220 277 338 403
#
# _framework density 23.574480999999999
#
# number of rings (size 3 to 8) (size 9 to 14) (size 15 to 20)
#    0.000    1.600    0.000    3.600    0.000   18.400 
#    0.000    2.000    0.000    2.400    0.000    0.000 
#    0.000    0.000    0.000    0.000    0.000    0.000 
#
# Total GULP energy -223686.940255 kJ/mol
# GULP energy per Si atom -5592.173506 kJ/mol
# Density = 2.352082 g / cm^3
# Si number density = 23.574481 Si / 1000 Ang^3
#
#
#
# Elastic Constant Matrix: (Units=GPa)
#
#
# Indices 1 2 3 4 5 6 
#
# 1 39.5762 44.2517 53.0995 0.0000 0.0000 0.0000
# 2 44.2517 39.5753 53.0968 0.0000 0.0000 0.0000
# 3 53.0995 53.0968 159.9190 0.0000 0.0000 0.0000
# 4 0.0000 0.0000 0.0000 50.6958 0.0000 0.0000
# 5 0.0000 0.0000 0.0000 0.0000 50.6961 0.0000
# 6 0.0000 0.0000 0.0000 0.0000 0.0000 -20.1961
#
#
#
# Elastic Compliance Matrix: (Units=1/GPa)
#
#
# Indices 1 2 3 4 5 6 
#
# 1 -0.096636 0.117224 -0.006834 0.000000 0.000000 0.000000
# 2 0.117224 -0.096632 -0.006839 0.000000 0.000000 0.000000
# 3 -0.006834 -0.006839 0.010793 0.000000 0.000000 0.000000
# 4 0.000000 0.000000 0.000000 0.019726 0.000000 0.000000
# 5 0.000000 0.000000 0.000000 0.000000 0.019725 0.000000
# 6 0.000000 0.000000 0.000000 0.000000 0.000000 -0.049515
#
#
# Mechanical properties :
#
#
# Convention : Reuss Voigt Hill
#
# Bulk Modulus (GPa) = 40.60573 59.99629 50.30101
# Shear Modulus (GPa) = -12.77365 22.14731 4.68683
#
# Velocity S-wave (km/s) = -2.33028 3.06839 1.41153
# Velocity P-wave (km/s) = 3.16569 6.16914 4.90305
#
# Compressibility (1/GPa) = 0.02462706
#
# Stress axis : x y z
#
# Youngs Moduli (GPa) = -10.34813 -10.34855 92.65193
#
# Poissons Ratio (x) = 1.21310 0.63319
# Poissons Ratio (y) = 1.21305 0.63365
# Poissons Ratio (z) = -0.07072 -0.07077
#
# Static dielectric constant tensor:
#      x y z
#    x 1.926300 0.000000 0.000000 
#    y 0.000000 1.926290 0.000000 
#    z 0.000000 0.000000 1.929250 
# 
# From -- ./inp_files/17518.got.cif
#   From: 2010.05.17/outbox.cif.g08.bks.cpg/sg91_9_cif.got.tgz:17518.got - 2010.06.03 19:20:03.
