data_PCOD9548816
_publ_section_title
;
Structure prediction by ZEFSAII (Michael W. Deem and Ramdas Pophale) SiO2 
 PCOD9548816
Probable space group: P 41 2 2
;
_chemical_formula_sum "Si O2"
_cell_formula_units_Z 20
_cell_length_a 5.639628
_cell_length_b 5.639628
_cell_length_c 20.916521
_cell_angle_alpha 90.000000
_cell_angle_beta 90.000000
_cell_angle_gamma 90.000000
_cell_volume 665.258400
_symmetry_space_group_name_H-M "P 41 2 2"
_symmetry_group_IT_number 91
_symmetry_cell_setting 'tetragonal'
loop_
_space_group_symop_operation_xyz
x,y,z
-y,x,1/4+z
-x,-y,1/2+z
y,-x,3/4+z
x,-y,1/2-z
-x,y,-z
y,x,3/4-z
-y,-x,1/4-z
loop_
_atom_site_type_symbol
_atom_site_label
_atom_site_fract_x
_atom_site_fract_y
_atom_site_fract_z
Si Si1 0.137046 0.231610 0.237285
Si Si2 0.573898 0.573898 0.375000
Si Si3 0.082219 0.713695 0.413975
O O1 0.206262 0.500000 0.250000
O O2 0.919935 0.823440 0.212499
O O3 0.073882 0.219953 0.162102
O O4 0.293865 0.000000 0.250000
O O5 0.817291 0.595010 0.417108
O O6 0.326793 0.564960 0.412749
#
# Coordination Sequence:
#
# PCOD9548816 Si02
#       3
#     8   4   8
#     4  12  24  51  84 121 173 223 288 353 432 513
#     4  12  28  52  86 112 184 208 304 330 456 478
#     4  12  26  55  79 132 160 241 269 377 408 548
#
# _framework density 30.063503000000001
#
# number of rings (size 3 to 8) (size 9 to 14) (size 15 to 20)
#    0.000    0.000    8.000    0.000    0.000    4.800 
#   14.400    0.000    0.000    0.000    0.000    0.000 
#    0.000    0.000    0.000    0.000    0.000    0.000 
#
# Total GULP energy -111398.408374 kJ/mol
# GULP energy per Si atom -5569.920419 kJ/mol
# Density = 2.999508 g / cm^3
# Si number density = 30.063503 Si / 1000 Ang^3
#
#
#
# Elastic Constant Matrix: (Units=GPa)
#
#
# Indices 1 2 3 4 5 6 
#
# 1 210.8223 55.5628 46.4290 0.0000 0.0000 0.0000
# 2 55.5628 210.8223 46.4290 0.0000 0.0000 0.0000
# 3 46.4290 46.4290 204.3672 0.0000 0.0000 0.0000
# 4 0.0000 0.0000 0.0000 41.4169 0.0000 0.0000
# 5 0.0000 0.0000 0.0000 0.0000 41.4169 0.0000
# 6 0.0000 0.0000 0.0000 0.0000 0.0000 27.4646
#
#
#
# Elastic Compliance Matrix: (Units=1/GPa)
#
#
# Indices 1 2 3 4 5 6 
#
# 1 0.005259 -0.001182 -0.000926 0.000000 0.000000 0.000000
# 2 -0.001182 0.005259 -0.000926 0.000000 0.000000 0.000000
# 3 -0.000926 -0.000926 0.005314 0.000000 0.000000 0.000000
# 4 0.000000 0.000000 0.000000 0.024145 0.000000 0.000000
# 5 0.000000 0.000000 0.000000 0.000000 0.024145 0.000000
# 6 0.000000 0.000000 0.000000 0.000000 0.000000 0.036410
#
#
# Mechanical properties :
#
#
# Convention : Reuss Voigt Hill
#
# Bulk Modulus (GPa) = 102.42895 102.53929 102.48412
# Shear Modulus (GPa) = 45.51468 53.89907 49.70688
#
# Velocity S-wave (km/s) = 3.89517 4.23879 4.07061
# Velocity P-wave (km/s) = 7.37392 7.62483 7.50042
#
# Compressibility (1/GPa) = 0.00976287
#
# Stress axis : x y z
#
# Youngs Moduli (GPa) = 190.15654 190.15654 188.18265
#
# Poissons Ratio (x) = 0.22477 0.17429
# Poissons Ratio (y) = 0.22477 0.17429
# Poissons Ratio (z) = 0.17612 0.17612
#
# Static dielectric constant tensor:
#      x y z
#    x 2.583060 0.000000 0.000000 
#    y 0.000000 2.583060 0.000000 
#    z 0.000000 0.000000 2.357630 
# 
# From -- ./inp_files/6501.got.cif
#   From: 2010.05.17/outbox.cif.g08.bks.cpg/sg91_4_cif.got.tgz:6501.got - 2010.06.03 19:20:03.
