data_PCOD9548652
_publ_section_title
;
Structure prediction by ZEFSAII (Michael W. Deem and Ramdas Pophale) SiO2 
 PCOD9548652
Probable space group: P 41 2 2
;
_chemical_formula_sum "Si O2"
_cell_formula_units_Z 40
_cell_length_a 11.443413
_cell_length_b 11.443413
_cell_length_c 14.965290
_cell_angle_alpha 90.000000
_cell_angle_beta 90.000000
_cell_angle_gamma 90.000000
_cell_volume 1959.730183
_symmetry_space_group_name_H-M "P 41 2 2"
_symmetry_group_IT_number 91
_symmetry_cell_setting 'tetragonal'
loop_
_space_group_symop_operation_xyz
x,y,z
-y,x,1/4+z
-x,-y,1/2+z
y,-x,3/4+z
x,-y,1/2-z
-x,y,-z
y,x,3/4-z
-y,-x,1/4-z
loop_
_atom_site_type_symbol
_atom_site_label
_atom_site_fract_x
_atom_site_fract_y
_atom_site_fract_z
Si Si1 0.481613 0.866818 0.762235
Si Si2 0.848571 0.334224 0.664034
Si Si3 0.972460 0.835311 0.102944
Si Si4 0.515506 0.681865 0.604776
Si Si5 0.697874 0.209212 0.386788
O O1 0.563171 0.825231 0.844082
O O2 0.486130 0.785799 0.674930
O O3 0.354520 0.861800 0.804718
O O4 0.518118 0.000000 0.750000
O O5 0.767107 0.232894 0.625000
O O6 0.821324 0.356344 0.766804
O O7 0.975093 0.273153 0.658686
O O8 0.833732 0.825694 0.109933
O O9 0.043927 0.956074 0.125000
O O10 0.000000 0.811373 0.000000
O O11 0.500000 0.711604 0.500000
O O12 0.431057 0.568944 0.625000
O O13 0.654559 0.667756 0.619671
#
# Coordination Sequence:
#
# PCOD9548652 Si02
#       5
#     8   8   8   8   8
#     4  12  27  46  69 105 149 191 240 305 370 443
#     4  11  21  42  76 103 133 183 246 308 354 425
#     4  11  21  42  72 104 142 188 241 305 364 422
#     4  12  26  49  74 103 150 197 240 311 379 429
#     4  12  25  45  73 109 142 191 248 295 375 448
#
# _framework density 20.410972000000001
#
# number of rings (size 3 to 8) (size 9 to 14) (size 15 to 20)
#    0.000    0.400    8.000    2.400    0.000    6.400 
#    0.000    0.000    0.000    0.000    0.000    0.000 
#    0.000    0.000    0.000    0.000    0.000    0.000 
#
# Total GULP energy -223158.143866 kJ/mol
# GULP energy per Si atom -5578.953597 kJ/mol
# Density = 2.036452 g / cm^3
# Si number density = 20.410972 Si / 1000 Ang^3
#
#
#
# Elastic Constant Matrix: (Units=GPa)
#
#
# Indices 1 2 3 4 5 6 
#
# 1 98.5624 26.9029 43.7751 0.0000 0.0000 0.0000
# 2 26.9029 98.5647 43.7758 0.0000 0.0000 0.0000
# 3 43.7751 43.7758 169.6255 0.0000 0.0000 0.0000
# 4 0.0000 0.0000 0.0000 32.4669 0.0000 0.0000
# 5 0.0000 0.0000 0.0000 0.0000 32.4667 0.0000
# 6 0.0000 0.0000 0.0000 0.0000 0.0000 12.8926
#
#
#
# Elastic Compliance Matrix: (Units=1/GPa)
#
#
# Indices 1 2 3 4 5 6 
#
# 1 0.011838 -0.002117 -0.002509 0.000000 0.000000 0.000000
# 2 -0.002117 0.011838 -0.002509 0.000000 0.000000 0.000000
# 3 -0.002509 -0.002509 0.007190 0.000000 0.000000 0.000000
# 4 0.000000 0.000000 0.000000 0.030801 0.000000 0.000000
# 5 0.000000 0.000000 0.000000 0.000000 0.030801 0.000000
# 6 0.000000 0.000000 0.000000 0.000000 0.000000 0.077564
#
#
# Mechanical properties :
#
#
# Convention : Reuss Voigt Hill
#
# Bulk Modulus (GPa) = 60.25134 66.18447 63.21790
# Shear Modulus (GPa) = 26.33907 32.38515 29.36211
#
# Velocity S-wave (km/s) = 3.59616 3.98760 3.79693
# Velocity P-wave (km/s) = 6.84298 7.32787 7.08957
#
# Compressibility (1/GPa) = 0.01659714
#
# Stress axis : x y z
#
# Youngs Moduli (GPa) = 84.47475 84.47656 139.07889
#
# Poissons Ratio (x) = 0.17883 0.34890
# Poissons Ratio (y) = 0.17883 0.34890
# Poissons Ratio (z) = 0.21192 0.21192
#
# Static dielectric constant tensor:
#      x y z
#    x 1.811430 0.000000 0.000000 
#    y 0.000000 1.811440 0.000000 
#    z 0.000000 0.000000 1.702650 
# 
# From -- ./inp_files/4766.got.cif
#   From: 2010.05.17/outbox.cif.g08.bks.cpg/sg91_3_cif.got.tgz:4766.got - 2010.06.03 19:20:03.
