data_PCOD9548385
_publ_section_title
;
Structure prediction by ZEFSAII (Michael W. Deem and Ramdas Pophale) SiO2 
 PCOD9548385
Probable space group: P 41 2 2
;
_chemical_formula_sum "Si O2"
_cell_formula_units_Z 32
_cell_length_a 7.198122
_cell_length_b 7.198122
_cell_length_c 23.259705
_cell_angle_alpha 90.000000
_cell_angle_beta 90.000000
_cell_angle_gamma 90.000000
_cell_volume 1205.154172
_symmetry_space_group_name_H-M "P 41 2 2"
_symmetry_group_IT_number 91
_symmetry_cell_setting 'tetragonal'
loop_
_space_group_symop_operation_xyz
x,y,z
-y,x,1/4+z
-x,-y,1/2+z
y,-x,3/4+z
x,-y,1/2-z
-x,y,-z
y,x,3/4-z
-y,-x,1/4-z
loop_
_atom_site_type_symbol
_atom_site_label
_atom_site_fract_x
_atom_site_fract_y
_atom_site_fract_z
Si Si1 0.000000 0.173572 0.000000
Si Si2 0.849565 0.500000 0.750000
Si Si3 0.931049 0.068952 0.125000
Si Si4 0.484328 0.750018 0.284125
Si Si5 0.462654 0.462654 0.375000
Si Si6 0.972123 0.496263 0.869004
O O1 0.166204 0.330526 0.994833
O O2 0.988872 0.051333 0.941089
O O3 0.704457 0.326562 0.755448
O O4 0.977388 0.555063 0.803220
O O5 0.716004 0.029371 0.116817
O O6 0.542376 0.570879 0.320888
O O7 0.416369 0.097363 0.168389
O O8 0.245206 0.491873 0.382515
#
# Coordination Sequence:
#
# PCOD9548385 Si02
#       6
#     4   4   4   8   4   8
#     4  10  22  44  82 116 176 218 294 360 462 524
#     4  10  24  46  78 120 164 228 290 348 450 540
#     4  10  23  46  73 118 168 231 272 369 442 519
#     4  10  22  43  76 122 165 216 285 365 434 527
#     4  10  23  48  85 116 162 227 294 353 452 543
#     4  10  23  48  76 122 172 212 289 359 442 525
#
# _framework density 26.552616
#
# number of rings (size 3 to 8) (size 9 to 14) (size 15 to 20)
#    0.000    2.000    0.000    3.000   14.000    0.000 
#   18.000   20.000    0.000    0.000    0.000    0.000 
#    0.000    0.000    0.000    0.000    0.000    0.000 
#
# Total GULP energy -178612.269436 kJ/mol
# GULP energy per Si atom -5581.633420 kJ/mol
# Density = 2.649218 g / cm^3
# Si number density = 26.552616 Si / 1000 Ang^3
#
#
#
# Elastic Constant Matrix: (Units=GPa)
#
#
# Indices 1 2 3 4 5 6 
#
# 1 130.9862 56.0728 38.6311 0.0000 0.0000 0.0000
# 2 56.0728 130.9875 38.6312 0.0000 0.0000 0.0000
# 3 38.6311 38.6312 177.3666 0.0000 0.0000 0.0000
# 4 0.0000 0.0000 0.0000 61.2676 0.0000 0.0000
# 5 0.0000 0.0000 0.0000 0.0000 61.2676 0.0000
# 6 0.0000 0.0000 0.0000 0.0000 0.0000 290.8967
#
#
#
# Elastic Compliance Matrix: (Units=1/GPa)
#
#
# Indices 1 2 3 4 5 6 
#
# 1 0.009612 -0.003737 -0.001279 0.000000 0.000000 0.000000
# 2 -0.003737 0.009611 -0.001279 0.000000 0.000000 0.000000
# 3 -0.001279 -0.001279 0.006195 0.000000 0.000000 0.000000
# 4 0.000000 0.000000 0.000000 0.016322 0.000000 0.000000
# 5 0.000000 0.000000 0.000000 0.000000 0.016322 0.000000
# 6 0.000000 0.000000 0.000000 0.000000 0.000000 0.003438
#
#
# Mechanical properties :
#
#
# Convention : Reuss Voigt Hill
#
# Bulk Modulus (GPa) = 77.96509 78.44562 78.20535
# Shear Modulus (GPa) = 63.80219 103.08672 83.44446
#
# Velocity S-wave (km/s) = 4.90721 6.23762 5.61198
# Velocity P-wave (km/s) = 7.84436 9.02689 8.45632
#
# Compressibility (1/GPa) = 0.01282625
#
# Stress axis : x y z
#
# Youngs Moduli (GPa) = 104.04163 104.04269 161.41054
#
# Poissons Ratio (x) = 0.38882 0.20652
# Poissons Ratio (y) = 0.38882 0.20652
# Poissons Ratio (z) = 0.13312 0.13312
#
# Static dielectric constant tensor:
#      x y z
#    x 2.037720 0.000000 0.000000 
#    y 0.000000 2.037710 0.000000 
#    z 0.000000 0.000000 2.345040 
# 
# From -- ./inp_files/12708.got.cif
#   From: 2010.05.17/outbox.cif.g08.bks.cpg/sg91_7_cif.got.tgz:12708.got - 2010.06.03 19:20:03.
