data_PCOD9548827
_publ_section_title
;
Structure prediction by ZEFSAII (Michael W. Deem and Ramdas Pophale) SiO2 
 PCOD9548827
Probable space group: P 41 2 2
;
_chemical_formula_sum "Si O2"
_cell_formula_units_Z 16
_cell_length_a 7.081565
_cell_length_b 7.081565
_cell_length_c 12.397958
_cell_angle_alpha 90.000000
_cell_angle_beta 90.000000
_cell_angle_gamma 90.000000
_cell_volume 621.739776
_symmetry_space_group_name_H-M "P 41 2 2"
_symmetry_group_IT_number 91
_symmetry_cell_setting 'tetragonal'
loop_
_space_group_symop_operation_xyz
x,y,z
-y,x,1/4+z
-x,-y,1/2+z
y,-x,3/4+z
x,-y,1/2-z
-x,y,-z
y,x,3/4-z
-y,-x,1/4-z
loop_
_atom_site_type_symbol
_atom_site_label
_atom_site_fract_x
_atom_site_fract_y
_atom_site_fract_z
Si Si1 0.748586 0.792788 0.748875
Si Si2 0.396284 0.903715 0.606642
O O1 0.544474 0.834890 0.697144
O O2 0.880354 0.660649 0.674422
O O3 0.843773 0.000000 0.750000
O O4 0.735360 0.735360 0.875000
O O5 0.500000 0.832858 0.500000
O O6 0.203563 0.796438 0.625000
#
# Coordination Sequence:
#
# PCOD9548827 Si02
#       2
#     8   8
#     4  12  28  56  85 122 179 232 297 377 450 533
#     4  12  31  51  84 125 172 232 297 365 452 534
#
# _framework density 25.734241000000001
#
# number of rings (size 3 to 8) (size 9 to 14) (size 15 to 20)
#    0.000    0.000    5.000    1.500    7.000    4.000 
#    0.000    0.000    0.000    0.000    0.000    0.000 
#    0.000    0.000    0.000    0.000    0.000    0.000 
#
# Total GULP energy -89372.030235 kJ/mol
# GULP energy per Si atom -5585.751890 kJ/mol
# Density = 2.567567 g / cm^3
# Si number density = 25.734241 Si / 1000 Ang^3
#
#
#
# Elastic Constant Matrix: (Units=GPa)
#
#
# Indices 1 2 3 4 5 6 
#
# 1 171.1555 72.8852 83.2019 0.0000 0.0000 0.0000
# 2 72.8852 171.1522 83.2022 0.0000 0.0000 0.0000
# 3 83.2019 83.2022 214.8718 0.0000 0.0000 0.0000
# 4 0.0000 0.0000 0.0000 49.0780 0.0000 0.0000
# 5 0.0000 0.0000 0.0000 0.0000 49.0791 0.0000
# 6 0.0000 0.0000 0.0000 0.0000 0.0000 16.4853
#
#
#
# Elastic Compliance Matrix: (Units=1/GPa)
#
#
# Indices 1 2 3 4 5 6 
#
# 1 0.007872 -0.002304 -0.002156 0.000000 0.000000 0.000000
# 2 -0.002304 0.007872 -0.002156 0.000000 0.000000 0.000000
# 3 -0.002156 -0.002156 0.006324 0.000000 0.000000 0.000000
# 4 0.000000 0.000000 0.000000 0.020376 0.000000 0.000000
# 5 0.000000 0.000000 0.000000 0.000000 0.020375 0.000000
# 6 0.000000 0.000000 0.000000 0.000000 0.000000 0.060660
#
#
# Mechanical properties :
#
#
# Convention : Reuss Voigt Hill
#
# Bulk Modulus (GPa) = 113.18133 115.08422 114.13278
# Shear Modulus (GPa) = 35.80223 44.12114 39.96169
#
# Velocity S-wave (km/s) = 3.73397 4.14513 3.94491
# Velocity P-wave (km/s) = 7.91621 8.22963 8.07444
#
# Compressibility (1/GPa) = 0.00883538
#
# Stress axis : x y z
#
# Youngs Moduli (GPa) = 127.03434 127.03108 158.13842
#
# Poissons Ratio (x) = 0.29270 0.34093
# Poissons Ratio (y) = 0.29271 0.34095
# Poissons Ratio (z) = 0.27387 0.27388
#
# Static dielectric constant tensor:
#      x y z
#    x 2.044820 0.000000 0.000000 
#    y 0.000000 2.044820 0.000000 
#    z 0.000000 0.000000 2.076960 
# 
# From -- ./inp_files/19838.got.cif
#   From: 2010.05.17/outbox.cif.g08.bks.cpg/sg91_10_cif.got.tgz:19838.got - 2010.06.03 19:20:03.
