data_PCOD9548856
_publ_section_title
;
Structure prediction by ZEFSAII (Michael W. Deem and Ramdas Pophale) SiO2 
 PCOD9548856
Probable space group: P 41 21 2
;
_chemical_formula_sum "Si O2"
_cell_formula_units_Z 52
_cell_length_a 17.040234
_cell_length_b 17.040234
_cell_length_c 9.768468
_cell_angle_alpha 90.000000
_cell_angle_beta 90.000000
_cell_angle_gamma 90.000000
_cell_volume 2836.465899
_symmetry_space_group_name_H-M "P 41 21 2"
_symmetry_group_IT_number 92
_symmetry_cell_setting 'tetragonal'
loop_
_space_group_symop_operation_xyz
x,y,z
1/2-y,1/2+x,1/4+z
-x,-y,1/2+z
1/2+y,1/2-x,3/4+z
1/2+x,1/2-y,3/4-z
1/2-x,1/2+y,1/4-z
y,x,-z
-y,-x,1/2-z
loop_
_atom_site_type_symbol
_atom_site_label
_atom_site_fract_x
_atom_site_fract_y
_atom_site_fract_z
Si Si1 0.046408 0.307605 0.471739
Si Si2 0.044482 0.044482 0.000000
Si Si3 0.186698 0.428112 0.492182
Si Si4 0.154908 0.203034 0.297120
Si Si5 0.566379 0.566379 0.500000
Si Si6 0.532681 0.283344 0.008684
Si Si7 0.447090 0.728379 0.195609
Si Si8 0.723580 0.723580 0.000000
O O1 0.111433 0.375365 0.457133
O O2 0.085005 0.231908 0.396032
O O3 0.028415 0.283230 0.626387
O O4 0.971472 0.329566 0.383903
O O5 0.134147 0.035856 0.944026
O O6 0.980840 0.035765 0.881798
O O7 0.216333 0.490391 0.380660
O O8 0.257011 0.366759 0.509485
O O9 0.165064 0.110029 0.292688
O O10 0.132166 0.233858 0.145740
O O11 0.231970 0.239646 0.367863
O O12 0.541789 0.657924 0.510043
O O13 0.550640 0.252109 0.856109
#
# Coordination Sequence:
#
# PCOD9548856 Si02
#       8
#     8   4   8   8   4   8   8   4
#     4  10  22  39  64  83 118 161 214 249 301 364
#     4  10  20  31  46  86 118 160 179 240 292 382
#     4  10  22  40  60  89 115 163 205 258 300 368
#     4  10  16  35  60  85 111 160 193 247 296 376
#     4  10  22  27  50  84 126 152 191 224 310 366
#     4  11  19  36  55  87 122 155 192 249 305 382
#     4  10  20  34  57  85 125 149 198 250 314 367
#     4  10  20  36  66  90 116 154 222 248 296 380
#
# _framework density 18.332671999999999
#
# number of rings (size 3 to 8) (size 9 to 14) (size 15 to 20)
#    0.000    1.846    6.154    0.000    2.154    3.077 
#    0.000    6.154    0.000    0.000    0.000    0.000 
#    0.000    0.000    0.000    0.000    0.000    0.000 
#
# Total GULP energy -289734.838722 kJ/mol
# GULP energy per Si atom -5571.823822 kJ/mol
# Density = 1.829095 g / cm^3
# Si number density = 18.332672 Si / 1000 Ang^3
#
#
#
# Elastic Constant Matrix: (Units=GPa)
#
#
# Indices 1 2 3 4 5 6 
#
# 1 37.5471 50.5222 29.8413 0.0000 0.0000 0.0000
# 2 50.5222 37.5471 29.8413 0.0000 0.0000 0.0000
# 3 29.8413 29.8413 136.1009 0.0000 0.0000 0.0000
# 4 0.0000 0.0000 0.0000 12.2744 0.0000 0.0000
# 5 0.0000 0.0000 0.0000 0.0000 12.2744 0.0000
# 6 0.0000 0.0000 0.0000 0.0000 0.0000 15.6765
#
#
#
# Elastic Compliance Matrix: (Units=1/GPa)
#
#
# Indices 1 2 3 4 5 6 
#
# 1 -0.031867 0.045204 -0.002924 0.000000 0.000000 0.000000
# 2 0.045204 -0.031867 -0.002924 0.000000 0.000000 0.000000
# 3 -0.002924 -0.002924 0.008630 0.000000 0.000000 0.000000
# 4 0.000000 0.000000 0.000000 0.081470 0.000000 0.000000
# 5 0.000000 0.000000 0.000000 0.000000 0.081470 0.000000
# 6 0.000000 0.000000 0.000000 0.000000 0.000000 0.063790
#
#
# Mechanical properties :
#
#
# Convention : Reuss Voigt Hill
#
# Bulk Modulus (GPa) = 42.36219 47.95606 45.15912
# Shear Modulus (GPa) = 49.61162 14.77777 32.19469
#
# Velocity S-wave (km/s) = 5.20775 2.84225 4.19518
# Velocity P-wave (km/s) = 7.70185 6.08167 6.93921
#
# Compressibility (1/GPa) = 0.02360596
#
# Stress axis : x y z
#
# Youngs Moduli (GPa) = -31.38001 -31.38001 115.87818
#
# Poissons Ratio (x) = 1.41849 0.33884
# Poissons Ratio (y) = 1.41849 0.33884
# Poissons Ratio (z) = -0.09176 -0.09176
#
# Static dielectric constant tensor:
#      x y z
#    x 1.635730 0.000000 0.000000 
#    y 0.000000 1.635730 0.000000 
#    z 0.000000 0.000000 1.678710 
# 
# From -- ./inp_files/1608.got.cif
#   From: 2010.05.17/outbox.cif.g08.bks.cpg/sg92_1_cif.got.tgz:1608.got - 2010.06.03 19:35:17.
