data_PCOD9548334
_publ_section_title
;
Structure prediction by ZEFSAII (Michael W. Deem and Ramdas Pophale) SiO2 
 PCOD9548334
Probable space group: P 41 2 2
;
_chemical_formula_sum "Si O2"
_cell_formula_units_Z 44
_cell_length_a 8.079992
_cell_length_b 8.079992
_cell_length_c 28.025773
_cell_angle_alpha 90.000000
_cell_angle_beta 90.000000
_cell_angle_gamma 90.000000
_cell_volume 1829.698203
_symmetry_space_group_name_H-M "P 41 2 2"
_symmetry_group_IT_number 91
_symmetry_cell_setting 'tetragonal'
loop_
_space_group_symop_operation_xyz
x,y,z
-y,x,1/4+z
-x,-y,1/2+z
y,-x,3/4+z
x,-y,1/2-z
-x,y,-z
y,x,3/4-z
-y,-x,1/4-z
loop_
_atom_site_type_symbol
_atom_site_label
_atom_site_fract_x
_atom_site_fract_y
_atom_site_fract_z
Si Si1 0.052293 0.502451 0.365571
Si Si2 0.275074 0.972031 0.027688
Si Si3 0.149079 0.624569 0.031574
Si Si4 0.500000 0.475394 0.000000
Si Si5 0.162628 0.956429 0.843691
Si Si6 0.798768 0.331895 0.189285
O O1 0.097184 0.398880 0.318733
O O2 0.095898 0.405568 0.413605
O O3 0.118274 0.689308 0.374567
O O4 0.861994 0.552276 0.353882
O O5 0.162597 0.815687 0.017074
O O6 0.169004 0.115311 0.052875
O O7 0.339618 0.057552 0.979809
O O8 0.336358 0.562419 0.021463
O O9 0.000000 0.545998 0.000000
O O10 0.416126 0.361743 0.959878
O O11 0.211707 0.137557 0.823115
O O12 0.001399 0.001399 0.875000
#
# Coordination Sequence:
#
# PCOD9548334 Si02
#       6
#     8   8   8   4   8   8
#     4  11  24  44  71 109 145 188 253 315 379 468
#     4  12  24  48  73 107 148 198 254 316 394 471
#     4  12  28  49  73 111 156 201 258 321 397 478
#     4  12  26  48  74 114 152 202 258 326 400 472
#     4  10  22  41  71 103 140 196 251 305 379 464
#     4  11  23  46  74 105 145 197 250 311 387 469
#
# _framework density 24.047684
#
# number of rings (size 3 to 8) (size 9 to 14) (size 15 to 20)
#    0.000    0.727    1.818    5.455    2.545    1.455 
#    3.273    1.818    0.000    0.000    0.000    0.000 
#    0.000    0.000    0.000    0.000    0.000    0.000 
#
# Total GULP energy -245611.566136 kJ/mol
# GULP energy per Si atom -5582.081049 kJ/mol
# Density = 2.399295 g / cm^3
# Si number density = 24.047684 Si / 1000 Ang^3
#
#
#
# Elastic Constant Matrix: (Units=GPa)
#
#
# Indices 1 2 3 4 5 6 
#
# 1 107.5060 53.9121 51.3622 0.0000 0.0000 0.0000
# 2 53.9121 107.5060 51.3622 0.0000 0.0000 0.0000
# 3 51.3622 51.3622 118.0930 0.0000 0.0000 0.0000
# 4 0.0000 0.0000 0.0000 9.0343 0.0000 0.0000
# 5 0.0000 0.0000 0.0000 0.0000 9.0343 0.0000
# 6 0.0000 0.0000 0.0000 0.0000 0.0000 40.6046
#
#
#
# Elastic Compliance Matrix: (Units=1/GPa)
#
#
# Indices 1 2 3 4 5 6 
#
# 1 0.013612 -0.005046 -0.003726 0.000000 0.000000 0.000000
# 2 -0.005046 0.013612 -0.003726 0.000000 0.000000 0.000000
# 3 -0.003726 -0.003726 0.011709 0.000000 0.000000 0.000000
# 4 0.000000 0.000000 0.000000 0.110690 0.000000 0.000000
# 5 0.000000 0.000000 0.000000 0.000000 0.110690 0.000000
# 6 0.000000 0.000000 0.000000 0.000000 0.000000 0.024628
#
#
# Mechanical properties :
#
#
# Convention : Reuss Voigt Hill
#
# Bulk Modulus (GPa) = 71.74507 71.81978 71.78243
# Shear Modulus (GPa) = 15.89409 23.49919 19.69664
#
# Velocity S-wave (km/s) = 2.57367 3.12940 2.86504
# Velocity P-wave (km/s) = 6.22342 6.55652 6.39214
#
# Compressibility (1/GPa) = 0.01393824
#
# Stress axis : x y z
#
# Youngs Moduli (GPa) = 73.46220 73.46220 85.40675
#
# Poissons Ratio (x) = 0.37072 0.31819
# Poissons Ratio (y) = 0.37072 0.31819
# Poissons Ratio (z) = 0.27369 0.27369
#
# Static dielectric constant tensor:
#      x y z
#    x 1.967720 0.000000 0.000000 
#    y 0.000000 1.967720 0.000000 
#    z 0.000000 0.000000 1.959990 
# 
# From -- ./inp_files/18093.got.cif
#   From: 2010.05.17/outbox.cif.g08.bks.cpg/sg91_10_cif.got.tgz:18093.got - 2010.06.03 19:20:03.
