data_PCOD9548217
_publ_section_title
;
Structure prediction by ZEFSAII (Michael W. Deem and Ramdas Pophale) SiO2 
 PCOD9548217
Probable space group: P 41 2 2
;
_chemical_formula_sum "Si O2"
_cell_formula_units_Z 40
_cell_length_a 18.498052
_cell_length_b 18.498052
_cell_length_c 5.871269
_cell_angle_alpha 90.000000
_cell_angle_beta 90.000000
_cell_angle_gamma 90.000000
_cell_volume 2009.018660
_symmetry_space_group_name_H-M "P 41 2 2"
_symmetry_group_IT_number 91
_symmetry_cell_setting 'tetragonal'
loop_
_space_group_symop_operation_xyz
x,y,z
-y,x,1/4+z
-x,-y,1/2+z
y,-x,3/4+z
x,-y,1/2-z
-x,y,-z
y,x,3/4-z
-y,-x,1/4-z
loop_
_atom_site_type_symbol
_atom_site_label
_atom_site_fract_x
_atom_site_fract_y
_atom_site_fract_z
Si Si1 0.601783 0.601783 0.875000
Si Si2 0.000000 0.459853 0.000000
Si Si3 0.500000 0.338899 0.000000
Si Si4 0.000000 0.286345 0.500000
Si Si5 0.195363 0.925979 0.635631
Si Si6 0.251720 0.573893 0.378828
Si Si7 0.656593 0.106787 0.385632
O O1 0.536851 0.610579 0.692596
O O2 0.676183 0.599027 0.743189
O O3 0.068356 0.405616 0.986431
O O4 0.004677 0.500000 0.250000
O O5 0.555470 0.282969 0.120686
O O6 0.951297 0.233281 0.346943
O O7 0.944293 0.335464 0.642746
O O8 0.133928 0.866073 0.625000
O O9 0.263914 0.898102 0.779688
O O10 0.167361 0.000000 0.750000
O O11 0.228234 0.500000 0.250000
O O12 0.188471 0.630888 0.346792
#
# Coordination Sequence:
#
# PCOD9548217 Si02
#       7
#     4   4   4   4   8   8   8
#     4  10  22  44  66  96 126 174 220 290 348 414
#     4  12  25  40  70 103 144 190 232 280 353 424
#     4  10  22  42  70  90 136 166 224 290 342 422
#     4  10  21  44  66  89 148 168 230 290 333 420
#     4  10  23  42  65  96 133 177 229 285 348 414
#     4  10  23  39  64  93 131 171 224 279 341 408
#     4  11  23  41  65 101 132 184 225 281 338 418
#
# _framework density 19.910219999999999
#
# number of rings (size 3 to 8) (size 9 to 14) (size 15 to 20)
#    0.000    1.600    3.000    1.800    1.400    9.600 
#    1.800    0.000   79.200    0.000    0.000    0.000 
#    0.000    0.000    0.000    0.000    0.000    0.000 
#
# Total GULP energy -223025.102326 kJ/mol
# GULP energy per Si atom -5575.627558 kJ/mol
# Density = 1.986490 g / cm^3
# Si number density = 19.910220 Si / 1000 Ang^3
#
#
#
# Elastic Constant Matrix: (Units=GPa)
#
#
# Indices 1 2 3 4 5 6 
#
# 1 110.3936 79.0067 48.7852 0.0000 0.0000 0.0000
# 2 79.0067 110.3974 48.7848 0.0000 0.0000 0.0000
# 3 48.7852 48.7848 96.7127 0.0000 0.0000 0.0000
# 4 0.0000 0.0000 0.0000 7.2562 0.0000 0.0000
# 5 0.0000 0.0000 0.0000 0.0000 7.2565 0.0000
# 6 0.0000 0.0000 0.0000 0.0000 0.0000 72.1141
#
#
#
# Elastic Compliance Matrix: (Units=1/GPa)
#
#
# Indices 1 2 3 4 5 6 
#
# 1 0.019496 -0.012363 -0.003599 0.000000 0.000000 0.000000
# 2 -0.012363 0.019495 -0.003598 0.000000 0.000000 0.000000
# 3 -0.003599 -0.003598 0.013970 0.000000 0.000000 0.000000
# 4 0.000000 0.000000 0.000000 0.137813 0.000000 0.000000
# 5 0.000000 0.000000 0.000000 0.000000 0.137808 0.000000
# 6 0.000000 0.000000 0.000000 0.000000 0.000000 0.013867
#
#
# Mechanical properties :
#
#
# Convention : Reuss Voigt Hill
#
# Bulk Modulus (GPa) = 72.23517 74.51746 73.37632
# Shear Modulus (GPa) = 12.94722 26.72048 19.83385
#
# Velocity S-wave (km/s) = 2.55283 3.66737 3.15963
# Velocity P-wave (km/s) = 6.71181 7.44586 7.08834
#
# Compressibility (1/GPa) = 0.01384367
#
# Stress axis : x y z
#
# Youngs Moduli (GPa) = 51.29138 51.29392 71.58119
#
# Poissons Ratio (x) = 0.63412 0.25760
# Poissons Ratio (y) = 0.63409 0.25755
# Poissons Ratio (z) = 0.18458 0.18456
#
# Static dielectric constant tensor:
#      x y z
#    x 1.700640 0.000000 0.000000 
#    y 0.000000 1.700640 0.000000 
#    z 0.000000 0.000000 1.711180 
# 
# From -- ./inp_files/8637.got.cif
#   From: 2010.05.17/outbox.cif.g08.bks.cpg/sg91_5_cif.got.tgz:8637.got - 2010.06.03 19:20:03.
