data_PCOD9548733
_publ_section_title
;
Structure prediction by ZEFSAII (Michael W. Deem and Ramdas Pophale) SiO2 
 PCOD9548733
Probable space group: P 41 2 2
;
_chemical_formula_sum "Si O2"
_cell_formula_units_Z 16
_cell_length_a 6.935726
_cell_length_b 6.935726
_cell_length_c 13.235695
_cell_angle_alpha 90.000000
_cell_angle_beta 90.000000
_cell_angle_gamma 90.000000
_cell_volume 636.693779
_symmetry_space_group_name_H-M "P 41 2 2"
_symmetry_group_IT_number 91
_symmetry_cell_setting 'tetragonal'
loop_
_space_group_symop_operation_xyz
x,y,z
-y,x,1/4+z
-x,-y,1/2+z
y,-x,3/4+z
x,-y,1/2-z
-x,y,-z
y,x,3/4-z
-y,-x,1/4-z
loop_
_atom_site_type_symbol
_atom_site_label
_atom_site_fract_x
_atom_site_fract_y
_atom_site_fract_z
Si Si1 0.574309 0.100908 0.641059
Si Si2 0.985488 0.214741 0.209597
O O1 0.710457 0.289544 0.625000
O O2 0.672063 0.950360 0.562931
O O3 0.360296 0.130246 0.597313
O O4 0.561189 0.000000 0.750000
O O5 0.038815 0.000000 0.250000
O O6 0.823540 0.176461 0.125000
#
# Coordination Sequence:
#
# PCOD9548733 Si02
#       2
#     8   8
#     4  11  24  42  75 118 162 213 271 341 416 492
#     4  11  23  44  79 112 155 213 270 334 406 485
#
# _framework density 25.129822999999998
#
# number of rings (size 3 to 8) (size 9 to 14) (size 15 to 20)
#    0.000    1.000    0.000    7.500    0.000    6.000 
#    0.000    0.000    0.000  192.000    0.000    0.000 
#    0.000    0.000    0.000    0.000    0.000    0.000 
#
# Total GULP energy -89105.938799 kJ/mol
# GULP energy per Si atom -5569.121175 kJ/mol
# Density = 2.507263 g / cm^3
# Si number density = 25.129823 Si / 1000 Ang^3
#
#
#
# Elastic Constant Matrix: (Units=GPa)
#
#
# Indices 1 2 3 4 5 6 
#
# 1 158.5715 38.2525 81.4203 0.0000 0.0000 0.0000
# 2 38.2525 158.5705 81.4197 0.0000 0.0000 0.0000
# 3 81.4203 81.4197 259.1435 0.0000 0.0000 0.0000
# 4 0.0000 0.0000 0.0000 45.3956 0.0000 0.0000
# 5 0.0000 0.0000 0.0000 0.0000 45.3953 0.0000
# 6 0.0000 0.0000 0.0000 0.0000 0.0000 20.2361
#
#
#
# Elastic Compliance Matrix: (Units=1/GPa)
#
#
# Indices 1 2 3 4 5 6 
#
# 1 0.007588 -0.000723 -0.002157 0.000000 0.000000 0.000000
# 2 -0.000723 0.007588 -0.002157 0.000000 0.000000 0.000000
# 3 -0.002157 -0.002157 0.005214 0.000000 0.000000 0.000000
# 4 0.000000 0.000000 0.000000 0.022029 0.000000 0.000000
# 5 0.000000 0.000000 0.000000 0.000000 0.022029 0.000000
# 6 0.000000 0.000000 0.000000 0.000000 0.000000 0.049417
#
#
# Mechanical properties :
#
#
# Convention : Reuss Voigt Hill
#
# Bulk Modulus (GPa) = 96.92898 108.71895 102.82396
# Shear Modulus (GPa) = 39.25336 47.21825 43.23581
#
# Velocity S-wave (km/s) = 3.95653 4.33941 4.15239
# Velocity P-wave (km/s) = 7.71539 8.27431 7.99973
#
# Compressibility (1/GPa) = 0.01031683
#
# Stress axis : x y z
#
# Youngs Moduli (GPa) = 131.78275 131.78206 191.78143
#
# Poissons Ratio (x) = 0.09528 0.41367
# Poissons Ratio (y) = 0.09528 0.41367
# Poissons Ratio (z) = 0.28425 0.28425
#
# Static dielectric constant tensor:
#      x y z
#    x 2.019030 0.000000 0.000000 
#    y 0.000000 2.019030 0.000000 
#    z 0.000000 0.000000 1.858850 
# 
# From -- ./inp_files/3006.got.cif
#   From: 2010.05.17/outbox.cif.g08.bks.cpg/sg91_2_cif.got.tgz:3006.got - 2010.06.03 19:20:03.
