data_PCOD9548777
_publ_section_title
;
Structure prediction by ZEFSAII (Michael W. Deem and Ramdas Pophale) SiO2 
 PCOD9548777
Probable space group: P 41 2 2
;
_chemical_formula_sum "Si O2"
_cell_formula_units_Z 32
_cell_length_a 8.583332
_cell_length_b 8.583332
_cell_length_c 19.827440
_cell_angle_alpha 90.000000
_cell_angle_beta 90.000000
_cell_angle_gamma 90.000000
_cell_volume 1460.758650
_symmetry_space_group_name_H-M "P 41 2 2"
_symmetry_group_IT_number 91
_symmetry_cell_setting 'tetragonal'
loop_
_space_group_symop_operation_xyz
x,y,z
-y,x,1/4+z
-x,-y,1/2+z
y,-x,3/4+z
x,-y,1/2-z
-x,y,-z
y,x,3/4-z
-y,-x,1/4-z
loop_
_atom_site_type_symbol
_atom_site_label
_atom_site_fract_x
_atom_site_fract_y
_atom_site_fract_z
Si Si1 0.702731 0.849706 0.675854
Si Si2 0.714124 0.352719 0.289520
Si Si3 0.070097 0.851191 0.698699
Si Si4 0.394959 0.788418 0.183201
O O1 0.611397 0.784641 0.612081
O O2 0.662356 0.750376 0.741745
O O3 0.889656 0.843280 0.676708
O O4 0.656808 0.032111 0.676338
O O5 0.646683 0.500000 0.250000
O O6 0.851030 0.283381 0.243018
O O7 0.579684 0.230396 0.309337
O O8 0.148559 0.851442 0.625000
O O9 0.084809 0.000000 0.750000
O O10 0.316546 0.683455 0.125000
#
# Coordination Sequence:
#
# PCOD9548777 Si02
#       4
#     8   8   8   8
#     4  11  25  48  76 105 144 199 253 305 369 460
#     4  12  31  44  73 110 155 193 247 313 385 453
#     4  12  24  46  75 108 142 194 253 309 361 442
#     4  11  26  47  73 104 151 196 248 303 383 456
#
# _framework density 21.906423
#
# number of rings (size 3 to 8) (size 9 to 14) (size 15 to 20)
#    0.000    0.500    5.000    2.250   14.000    0.000 
#    0.000    0.000    0.000    0.000    0.000    0.000 
#    0.000    0.000    0.000    0.000    0.000    0.000 
#
# Total GULP energy -178518.257154 kJ/mol
# GULP energy per Si atom -5578.695536 kJ/mol
# Density = 2.185656 g / cm^3
# Si number density = 21.906423 Si / 1000 Ang^3
#
#
#
# Elastic Constant Matrix: (Units=GPa)
#
#
# Indices 1 2 3 4 5 6 
#
# 1 55.5827 36.4070 18.3365 0.0000 0.0000 0.0000
# 2 36.4070 55.5827 18.3361 0.0000 0.0000 0.0000
# 3 18.3365 18.3361 186.5211 0.0000 0.0000 0.0000
# 4 0.0000 0.0000 0.0000 133.9105 0.0000 0.0000
# 5 0.0000 0.0000 0.0000 0.0000 133.9103 0.0000
# 6 0.0000 0.0000 0.0000 0.0000 0.0000 20.0249
#
#
#
# Elastic Compliance Matrix: (Units=1/GPa)
#
#
# Indices 1 2 3 4 5 6 
#
# 1 0.031732 -0.020418 -0.001112 0.000000 0.000000 0.000000
# 2 -0.020418 0.031732 -0.001112 0.000000 0.000000 0.000000
# 3 -0.001112 -0.001112 0.005580 0.000000 0.000000 0.000000
# 4 0.000000 0.000000 0.000000 0.007468 0.000000 0.000000
# 5 0.000000 0.000000 0.000000 0.000000 0.007468 0.000000
# 6 0.000000 0.000000 0.000000 0.000000 0.000000 0.049938
#
#
# Mechanical properties :
#
#
# Convention : Reuss Voigt Hill
#
# Bulk Modulus (GPa) = 42.08869 49.31619 45.70244
# Shear Modulus (GPa) = 26.72070 72.54293 49.63182
#
# Velocity S-wave (km/s) = 3.49630 5.76080 4.76503
# Velocity P-wave (km/s) = 5.96268 8.17375 7.15415
#
# Compressibility (1/GPa) = 0.02375935
#
# Stress axis : x y z
#
# Youngs Moduli (GPa) = 31.51412 31.51414 179.21115
#
# Poissons Ratio (x) = 0.64344 0.19934
# Poissons Ratio (y) = 0.64344 0.19932
# Poissons Ratio (z) = 0.03505 0.03505
#
# Static dielectric constant tensor:
#      x y z
#    x 1.851690 0.000000 0.000000 
#    y 0.000000 1.851700 0.000000 
#    z 0.000000 0.000000 1.836310 
# 
# From -- ./inp_files/12198.got.cif
#   From: 2010.05.17/outbox.cif.g08.bks.cpg/sg91_7_cif.got.tgz:12198.got - 2010.06.03 19:20:03.
