data_PCOD9548078
_publ_section_title
;
Structure prediction by ZEFSAII (Michael W. Deem and Ramdas Pophale) SiO2 
 PCOD9548078
Probable space group: P 41 2 2
;
_chemical_formula_sum "Si O2"
_cell_formula_units_Z 52
_cell_length_a 22.045440
_cell_length_b 22.045440
_cell_length_c 5.534394
_cell_angle_alpha 90.000000
_cell_angle_beta 90.000000
_cell_angle_gamma 90.000000
_cell_volume 2689.723369
_symmetry_space_group_name_H-M "P 41 2 2"
_symmetry_group_IT_number 91
_symmetry_cell_setting 'tetragonal'
loop_
_space_group_symop_operation_xyz
x,y,z
-y,x,1/4+z
-x,-y,1/2+z
y,-x,3/4+z
x,-y,1/2-z
-x,y,-z
y,x,3/4-z
-y,-x,1/4-z
loop_
_atom_site_type_symbol
_atom_site_label
_atom_site_fract_x
_atom_site_fract_y
_atom_site_fract_z
Si Si1 0.831475 0.733416 0.298449
Si Si2 0.017819 0.599369 0.245930
Si Si3 0.332756 0.719043 0.372232
Si Si4 0.970135 0.262248 0.254573
Si Si5 0.246801 0.553713 0.114117
Si Si6 0.500000 0.847658 0.500000
Si Si7 0.147129 0.387364 0.076239
O O1 0.791135 0.791135 0.375000
O O2 0.786847 0.695585 0.122881
O O3 0.898803 0.750430 0.220367
O O4 0.845257 0.682113 0.498905
O O5 0.090056 0.608940 0.245328
O O6 0.000000 0.570258 0.500000
O O7 0.983109 0.664632 0.246377
O O8 0.000000 0.566840 0.000000
O O9 0.311102 0.688898 0.625000
O O10 0.404924 0.721390 0.335569
O O11 0.311250 0.688751 0.125000
O O12 0.000000 0.238381 0.500000
O O13 0.000000 0.241113 0.000000
O O14 0.282334 0.500000 0.250000
O O15 0.211841 0.594889 0.309989
O O16 0.192335 0.521547 0.974126
O O17 0.435439 0.871049 0.611782
#
# Coordination Sequence:
#
# PCOD9548078 Si02
#       7
#     8   8   8   8   8   4   8
#     4  11  22  38  61  92 123 157 206 260 322 383
#     4  10  21  35  59  78 103 153 196 255 306 356
#     4  11  24  39  58  90 124 159 200 262 315 374
#     4  10  21  36  56  83 112 161 193 243 312 370
#     4  10  22  36  59  81 118 163 208 252 306 373
#     4  10  22  36  60  80 114 164 212 252 294 372
#     4  11  21  39  60  85 115 162 212 255 320 362
#
# _framework density 19.332841999999999
#
# number of rings (size 3 to 8) (size 9 to 14) (size 15 to 20)
#    0.000    1.538    4.615    1.846    8.615    2.462 
#    0.000    0.000    5.077    0.000    0.000    0.000 
#    0.000    1.231    2.615    0.000    0.308    0.000 
#
# Total GULP energy -289681.721063 kJ/mol
# GULP energy per Si atom -5570.802328 kJ/mol
# Density = 1.928884 g / cm^3
# Si number density = 19.332842 Si / 1000 Ang^3
#
#
#
# Elastic Constant Matrix: (Units=GPa)
#
#
# Indices 1 2 3 4 5 6 
#
# 1 90.3054 37.0275 37.2754 0.0000 0.0000 0.0000
# 2 37.0275 90.3041 37.2771 0.0000 0.0000 0.0000
# 3 37.2754 37.2771 126.8739 0.0000 0.0000 0.0000
# 4 0.0000 0.0000 0.0000 21.3375 0.0000 0.0000
# 5 0.0000 0.0000 0.0000 0.0000 21.3404 0.0000
# 6 0.0000 0.0000 0.0000 0.0000 0.0000 6.4979
#
#
#
# Elastic Compliance Matrix: (Units=1/GPa)
#
#
# Indices 1 2 3 4 5 6 
#
# 1 0.014127 -0.004642 -0.002787 0.000000 0.000000 0.000000
# 2 -0.004642 0.014128 -0.002787 0.000000 0.000000 0.000000
# 3 -0.002787 -0.002787 0.009519 0.000000 0.000000 0.000000
# 4 0.000000 0.000000 0.000000 0.046866 0.000000 0.000000
# 5 0.000000 0.000000 0.000000 0.000000 0.046860 0.000000
# 6 0.000000 0.000000 0.000000 0.000000 0.000000 0.153897
#
#
# Mechanical properties :
#
#
# Convention : Reuss Voigt Hill
#
# Bulk Modulus (GPa) = 57.66180 58.96036 58.31108
# Shear Modulus (GPa) = 16.04577 22.89538 19.47057
#
# Velocity S-wave (km/s) = 2.88405 3.44506 3.17697
# Velocity P-wave (km/s) = 6.40163 6.81090 6.60943
#
# Compressibility (1/GPa) = 0.01734250
#
# Stress axis : x y z
#
# Youngs Moduli (GPa) = 70.78536 70.78329 105.04883
#
# Poissons Ratio (x) = 0.32860 0.29273
# Poissons Ratio (y) = 0.32861 0.29277
# Poissons Ratio (z) = 0.19725 0.19727
#
# Static dielectric constant tensor:
#      x y z
#    x 1.723770 0.000000 0.000000 
#    y 0.000000 1.723760 0.000000 
#    z 0.000000 0.000000 1.822540 
# 
# From -- ./inp_files/1343.got.cif
#   From: 2010.05.17/outbox.cif.g08.bks.cpg/sg91_1_cif.got.tgz:1343.got - 2010.06.03 19:20:03.
