data_PCOD9548157
_publ_section_title
;
Structure prediction by ZEFSAII (Michael W. Deem and Ramdas Pophale) SiO2 
 PCOD9548157
Probable space group: P 41 2 2
;
_chemical_formula_sum "Si O2"
_cell_formula_units_Z 40
_cell_length_a 8.519190
_cell_length_b 8.519190
_cell_length_c 24.319824
_cell_angle_alpha 90.000000
_cell_angle_beta 90.000000
_cell_angle_gamma 90.000000
_cell_volume 1765.050096
_symmetry_space_group_name_H-M "P 41 2 2"
_symmetry_group_IT_number 91
_symmetry_cell_setting 'tetragonal'
loop_
_space_group_symop_operation_xyz
x,y,z
-y,x,1/4+z
-x,-y,1/2+z
y,-x,3/4+z
x,-y,1/2-z
-x,y,-z
y,x,3/4-z
-y,-x,1/4-z
loop_
_atom_site_type_symbol
_atom_site_label
_atom_site_fract_x
_atom_site_fract_y
_atom_site_fract_z
Si Si1 0.623294 0.761909 0.330013
Si Si2 0.815874 0.821591 0.228189
Si Si3 0.889458 0.623782 0.796690
Si Si4 0.341447 0.900679 0.879521
Si Si5 0.171745 0.711259 0.973828
O O1 0.624708 0.624708 0.375000
O O2 0.741742 0.731644 0.279812
O O3 0.456345 0.804833 0.304284
O O4 0.675197 0.916073 0.364720
O O5 0.696106 0.817415 0.177623
O O6 0.976657 0.754673 0.203953
O O7 0.835181 0.000000 0.250000
O O8 0.941104 0.500000 0.750000
O O9 0.872677 0.518704 0.850200
O O10 0.734693 0.705358 0.773450
O O11 0.223435 0.839478 0.927363
O O12 0.000000 0.729559 0.000000
#
# Coordination Sequence:
#
# PCOD9548157 Si02
#       5
#     8   8   8   8   8
#     4  11  23  43  67  93 131 175 223 272 329 405
#     4  10  21  40  69  97 125 174 227 272 332 403
#     4  10  21  40  64  93 132 170 212 270 332 393
#     4  10  22  42  66  98 136 173 219 279 341 398
#     4  11  23  43  68  99 135 174 225 281 334 397
#
# _framework density 22.662244000000001
#
# number of rings (size 3 to 8) (size 9 to 14) (size 15 to 20)
#    0.000    1.600    0.000    6.000    0.000    1.600 
#    0.000   34.000    0.000    0.000    0.000    0.000 
#    0.000    0.000    0.000    0.000    0.000    0.000 
#
# Total GULP energy -223557.135735 kJ/mol
# GULP energy per Si atom -5588.928393 kJ/mol
# Density = 2.261066 g / cm^3
# Si number density = 22.662244 Si / 1000 Ang^3
#
#
#
# Elastic Constant Matrix: (Units=GPa)
#
#
# Indices 1 2 3 4 5 6 
#
# 1 69.4309 56.4498 60.8443 0.0000 0.0000 0.0000
# 2 56.4498 69.4309 60.8443 0.0000 0.0000 0.0000
# 3 60.8443 60.8443 150.1868 0.0000 0.0000 0.0000
# 4 0.0000 0.0000 0.0000 45.4931 0.0000 0.0000
# 5 0.0000 0.0000 0.0000 0.0000 45.4931 0.0000
# 6 0.0000 0.0000 0.0000 0.0000 0.0000 15.8606
#
#
#
# Elastic Compliance Matrix: (Units=1/GPa)
#
#
# Indices 1 2 3 4 5 6 
#
# 1 0.045047 -0.031989 -0.005290 0.000000 0.000000 0.000000
# 2 -0.031989 0.045047 -0.005290 0.000000 0.000000 0.000000
# 3 -0.005290 -0.005290 0.010945 0.000000 0.000000 0.000000
# 4 0.000000 0.000000 0.000000 0.021981 0.000000 0.000000
# 5 0.000000 0.000000 0.000000 0.000000 0.021981 0.000000
# 6 0.000000 0.000000 0.000000 0.000000 0.000000 0.063049
#
#
# Mechanical properties :
#
#
# Convention : Reuss Voigt Hill
#
# Bulk Modulus (GPa) = 62.89233 71.70281 67.29757
# Shear Modulus (GPa) = 16.75111 28.76336 22.75724
#
# Velocity S-wave (km/s) = 2.72171 3.56648 3.17234
# Velocity P-wave (km/s) = 6.13915 6.97625 6.57105
#
# Compressibility (1/GPa) = 0.01590019
#
# Stress axis : x y z
#
# Youngs Moduli (GPa) = 22.19923 22.19923 91.36880
#
# Poissons Ratio (x) = 0.71012 0.48335
# Poissons Ratio (y) = 0.71012 0.48335
# Poissons Ratio (z) = 0.11744 0.11744
#
# Static dielectric constant tensor:
#      x y z
#    x 1.864480 0.000000 0.000000 
#    y 0.000000 1.864480 0.000000 
#    z 0.000000 0.000000 1.857290 
# 
# From -- ./inp_files/6741.got.cif
#   From: 2010.05.17/outbox.cif.g08.bks.cpg/sg91_4_cif.got.tgz:6741.got - 2010.06.03 19:20:03.
