data_PCOD9548390
_publ_section_title
;
Structure prediction by ZEFSAII (Michael W. Deem and Ramdas Pophale) SiO2 
 PCOD9548390
Probable space group: P 41 2 2
;
_chemical_formula_sum "Si O2"
_cell_formula_units_Z 36
_cell_length_a 9.065909
_cell_length_b 9.065909
_cell_length_c 19.643350
_cell_angle_alpha 90.000000
_cell_angle_beta 90.000000
_cell_angle_gamma 90.000000
_cell_volume 1614.500805
_symmetry_space_group_name_H-M "P 41 2 2"
_symmetry_group_IT_number 91
_symmetry_cell_setting 'tetragonal'
loop_
_space_group_symop_operation_xyz
x,y,z
-y,x,1/4+z
-x,-y,1/2+z
y,-x,3/4+z
x,-y,1/2-z
-x,y,-z
y,x,3/4-z
-y,-x,1/4-z
loop_
_atom_site_type_symbol
_atom_site_label
_atom_site_fract_x
_atom_site_fract_y
_atom_site_fract_z
Si Si1 0.260091 0.365112 0.036393
Si Si2 0.652256 0.941324 0.900611
Si Si3 0.500000 0.851460 0.500000
Si Si4 0.385892 0.614108 0.125000
Si Si5 0.934661 0.883100 0.574328
Si Si6 0.564464 0.000000 0.750000
O O1 0.357073 0.251749 0.993568
O O2 0.370335 0.472973 0.077021
O O3 0.158606 0.266814 0.087915
O O4 0.145882 0.463480 0.994135
O O5 0.618391 0.770840 0.914257
O O6 0.810393 0.989930 0.928300
O O7 0.651486 0.972573 0.819682
O O8 0.531801 0.044823 0.935892
O O9 0.000000 0.861696 0.500000
O O10 0.061098 0.938903 0.625000
#
# Coordination Sequence:
#
# PCOD9548390 Si02
#       6
#     8   8   4   4   8   4
#     4  10  23  43  67 107 141 196 238 299 367 430
#     4  10  23  43  69 103 142 196 245 303 362 440
#     4  10  24  42  66 104 144 182 248 296 372 426
#     4  10  22  44  70 100 140 190 256 290 368 432
#     4  11  24  42  69 107 147 189 238 299 374 437
#     4  10  22  44  68 100 150 190 244 298 364 442
#
# _framework density 22.297913999999999
#
# number of rings (size 3 to 8) (size 9 to 14) (size 15 to 20)
#    0.000    1.778    2.222    0.000    1.556   12.444 
#    0.000    6.667    0.000    0.000    0.000    0.000 
#    0.000    0.000    0.000    0.000    0.000    0.000 
#
# Total GULP energy -201065.655912 kJ/mol
# GULP energy per Si atom -5585.157109 kJ/mol
# Density = 2.224716 g / cm^3
# Si number density = 22.297914 Si / 1000 Ang^3
#
#
#
# Elastic Constant Matrix: (Units=GPa)
#
#
# Indices 1 2 3 4 5 6 
#
# 1 105.2699 42.5428 34.9064 0.0000 0.0000 0.0000
# 2 42.5428 105.2709 34.9058 0.0000 0.0000 0.0000
# 3 34.9064 34.9058 74.8369 0.0000 0.0000 0.0000
# 4 0.0000 0.0000 0.0000 21.5479 0.0000 0.0000
# 5 0.0000 0.0000 0.0000 0.0000 21.5478 0.0000
# 6 0.0000 0.0000 0.0000 0.0000 0.0000 74.5128
#
#
#
# Elastic Compliance Matrix: (Units=1/GPa)
#
#
# Indices 1 2 3 4 5 6 
#
# 1 0.012309 -0.003633 -0.004047 0.000000 0.000000 0.000000
# 2 -0.003633 0.012309 -0.004047 0.000000 0.000000 0.000000
# 3 -0.004047 -0.004047 0.017138 0.000000 0.000000 0.000000
# 4 0.000000 0.000000 0.000000 0.046408 0.000000 0.000000
# 5 0.000000 0.000000 0.000000 0.000000 0.046409 0.000000
# 6 0.000000 0.000000 0.000000 0.000000 0.000000 0.013421
#
#
# Mechanical properties :
#
#
# Convention : Reuss Voigt Hill
#
# Bulk Modulus (GPa) = 54.63621 56.67643 55.65632
# Shear Modulus (GPa) = 28.16135 35.05653 31.60894
#
# Velocity S-wave (km/s) = 3.55767 3.96938 3.76915
# Velocity P-wave (km/s) = 6.43677 6.81770 6.62997
#
# Compressibility (1/GPa) = 0.01830288
#
# Stress axis : x y z
#
# Youngs Moduli (GPa) = 81.23843 81.23980 58.35075
#
# Poissons Ratio (x) = 0.29511 0.23616
# Poissons Ratio (y) = 0.29511 0.23614
# Poissons Ratio (z) = 0.32879 0.32878
#
# Static dielectric constant tensor:
#      x y z
#    x 1.855860 0.000000 0.000000 
#    y 0.000000 1.855860 0.000000 
#    z 0.000000 0.000000 1.824510 
# 
# From -- ./inp_files/17218.got.cif
#   From: 2010.05.17/outbox.cif.g08.bks.cpg/sg91_9_cif.got.tgz:17218.got - 2010.06.03 19:20:03.
