data_PCOD9548769
_publ_section_title
;
Structure prediction by ZEFSAII (Michael W. Deem and Ramdas Pophale) SiO2 
 PCOD9548769
Probable space group: P 41 2 2
;
_chemical_formula_sum "Si O2"
_cell_formula_units_Z 28
_cell_length_a 9.143552
_cell_length_b 9.143552
_cell_length_c 13.768521
_cell_angle_alpha 90.000000
_cell_angle_beta 90.000000
_cell_angle_gamma 90.000000
_cell_volume 1151.110908
_symmetry_space_group_name_H-M "P 41 2 2"
_symmetry_group_IT_number 91
_symmetry_cell_setting 'tetragonal'
loop_
_space_group_symop_operation_xyz
x,y,z
-y,x,1/4+z
-x,-y,1/2+z
y,-x,3/4+z
x,-y,1/2-z
-x,y,-z
y,x,3/4-z
-y,-x,1/4-z
loop_
_atom_site_type_symbol
_atom_site_label
_atom_site_fract_x
_atom_site_fract_y
_atom_site_fract_z
Si Si1 0.617695 0.028319 0.414455
Si Si2 0.702030 0.297971 0.125000
Si Si3 0.684949 0.505516 0.550094
Si Si4 0.830478 0.228860 0.512418
O O1 0.500000 0.004651 0.500000
O O2 0.549154 0.161964 0.352397
O O3 0.770109 0.091500 0.454945
O O4 0.659449 0.873108 0.369857
O O5 0.633442 0.354895 0.225910
O O6 0.565918 0.434083 0.625000
O O7 0.732123 0.367111 0.482985
O O8 0.798401 0.201600 0.625000
O O9 0.000000 0.257501 0.500000
#
# Coordination Sequence:
#
# PCOD9548769 Si02
#       4
#     8   4   8   8
#     4  12  26  53  77 119 165 213 277 342 411 489
#     4  12  30  48  90 120 164 208 286 348 404 494
#     4  11  26  55  80 115 166 221 271 335 417 494
#     4  11  25  45  78 108 160 217 270 328 408 484
#
# _framework density 24.32433
#
# number of rings (size 3 to 8) (size 9 to 14) (size 15 to 20)
#    0.000    0.571    5.714    2.571    6.000    0.000 
#   18.000    0.000    0.000    0.000    0.000    0.000 
#    0.000    0.000    0.000    0.000    0.000    0.000 
#
# Total GULP energy -156683.329365 kJ/mol
# GULP energy per Si atom -5595.833192 kJ/mol
# Density = 2.426897 g / cm^3
# Si number density = 24.324330 Si / 1000 Ang^3
#
#
#
# Elastic Constant Matrix: (Units=GPa)
#
#
# Indices 1 2 3 4 5 6 
#
# 1 151.9097 52.4573 54.2186 0.0000 0.0000 0.0000
# 2 52.4573 151.9095 54.2186 0.0000 0.0000 0.0000
# 3 54.2186 54.2186 83.6891 0.0000 0.0000 0.0000
# 4 0.0000 0.0000 0.0000 45.2527 0.0000 0.0000
# 5 0.0000 0.0000 0.0000 0.0000 45.2527 0.0000
# 6 0.0000 0.0000 0.0000 0.0000 0.0000 41.7372
#
#
#
# Elastic Compliance Matrix: (Units=1/GPa)
#
#
# Indices 1 2 3 4 5 6 
#
# 1 0.008756 -0.001299 -0.004831 0.000000 0.000000 0.000000
# 2 -0.001299 0.008756 -0.004831 0.000000 0.000000 0.000000
# 3 -0.004831 -0.004831 0.018208 0.000000 0.000000 0.000000
# 4 0.000000 0.000000 0.000000 0.022098 0.000000 0.000000
# 5 0.000000 0.000000 0.000000 0.000000 0.022098 0.000000
# 6 0.000000 0.000000 0.000000 0.000000 0.000000 0.023959
#
#
# Mechanical properties :
#
#
# Convention : Reuss Voigt Hill
#
# Bulk Modulus (GPa) = 72.47315 78.81082 75.64199
# Shear Modulus (GPa) = 38.34481 41.55611 39.95046
#
# Velocity S-wave (km/s) = 3.97469 4.13778 4.05706
# Velocity P-wave (km/s) = 7.13607 7.43631 7.28773
#
# Compressibility (1/GPa) = 0.01379821
#
# Stress axis : x y z
#
# Youngs Moduli (GPa) = 114.21173 114.21154 54.92069
#
# Poissons Ratio (x) = 0.14841 0.26530
# Poissons Ratio (y) = 0.14841 0.26530
# Poissons Ratio (z) = 0.55171 0.55171
#
# Static dielectric constant tensor:
#      x y z
#    x 1.940620 0.000000 0.000000 
#    y 0.000000 1.940630 0.000000 
#    z 0.000000 0.000000 1.955720 
# 
# From -- ./inp_files/5275.got.cif
#   From: 2010.05.17/outbox.cif.g08.bks.cpg/sg91_3_cif.got.tgz:5275.got - 2010.06.03 19:20:03.
