data_PCOD9548135
_publ_section_title
;
Structure prediction by ZEFSAII (Michael W. Deem and Ramdas Pophale) SiO2 
 PCOD9548135
Probable space group: P 41 2 2
;
_chemical_formula_sum "Si O2"
_cell_formula_units_Z 48
_cell_length_a 8.959946
_cell_length_b 8.959946
_cell_length_c 31.643994
_cell_angle_alpha 90.000000
_cell_angle_beta 90.000000
_cell_angle_gamma 90.000000
_cell_volume 2540.399848
_symmetry_space_group_name_H-M "P 41 2 2"
_symmetry_group_IT_number 91
_symmetry_cell_setting 'tetragonal'
loop_
_space_group_symop_operation_xyz
x,y,z
-y,x,1/4+z
-x,-y,1/2+z
y,-x,3/4+z
x,-y,1/2-z
-x,y,-z
y,x,3/4-z
-y,-x,1/4-z
loop_
_atom_site_type_symbol
_atom_site_label
_atom_site_fract_x
_atom_site_fract_y
_atom_site_fract_z
Si Si1 0.181373 0.848437 0.918133
Si Si2 0.676655 0.828229 0.414083
Si Si3 0.167409 0.317813 0.667900
Si Si4 0.157895 0.822492 0.172407
Si Si5 0.680562 0.341700 0.001337
Si Si6 0.320196 0.315114 0.501879
O O1 0.215347 0.746716 0.877336
O O2 0.258767 0.782360 0.959590
O O3 0.002339 0.851523 0.924567
O O4 0.244675 0.012479 0.909403
O O5 0.725187 0.725187 0.375000
O O6 0.497245 0.843112 0.415596
O O7 0.727279 0.756727 0.458633
O O8 0.275610 0.271591 0.706276
O O9 0.005635 0.248346 0.677264
O O10 0.213413 0.786588 0.125000
O O11 0.259195 0.752897 0.208549
O O12 0.723878 0.512589 0.008010
O O13 0.500000 0.338066 0.000000
O O14 0.500000 0.303342 0.500000
#
# Coordination Sequence:
#
# PCOD9548135 Si02
#       6
#     8   8   8   8   8   8
#     4  11  23  39  59  86 120 154 192 237 289 346
#     4  11  21  38  61  86 117 154 195 239 292 349
#     4  10  21  39  61  85 116 155 196 239 292 350
#     4  10  22  40  58  84 118 152 191 238 289 348
#     4   9  21  38  58  85 115 148 191 241 288 341
#     4  11  22  38  60  86 115 151 194 240 290 340
#
# _framework density 18.894663000000001
#
# number of rings (size 3 to 8) (size 9 to 14) (size 15 to 20)
#    0.000    1.667    0.000    5.000    0.000    5.333 
#    0.000    9.167    0.000    0.000    0.000    0.000 
#    0.000    0.000    0.000    0.000    0.000    0.000 
#
# Total GULP energy -268200.968053 kJ/mol
# GULP energy per Si atom -5587.520168 kJ/mol
# Density = 1.885166 g / cm^3
# Si number density = 18.894663 Si / 1000 Ang^3
#
#
#
# Elastic Constant Matrix: (Units=GPa)
#
#
# Indices 1 2 3 4 5 6 
#
# 1 76.4607 30.8449 48.2790 0.0000 0.0000 0.0000
# 2 30.8449 76.4612 48.2792 0.0000 0.0000 0.0000
# 3 48.2790 48.2792 122.7971 0.0000 0.0000 0.0000
# 4 0.0000 0.0000 0.0000 35.3275 0.0000 0.0000
# 5 0.0000 0.0000 0.0000 0.0000 35.3275 0.0000
# 6 0.0000 0.0000 0.0000 0.0000 0.0000 29.0692
#
#
#
# Elastic Compliance Matrix: (Units=1/GPa)
#
#
# Indices 1 2 3 4 5 6 
#
# 1 0.018172 -0.003751 -0.005670 0.000000 0.000000 0.000000
# 2 -0.003751 0.018172 -0.005670 0.000000 0.000000 0.000000
# 3 -0.005670 -0.005670 0.012602 0.000000 0.000000 0.000000
# 4 0.000000 0.000000 0.000000 0.028307 0.000000 0.000000
# 5 0.000000 0.000000 0.000000 0.000000 0.028307 0.000000
# 6 0.000000 0.000000 0.000000 0.000000 0.000000 0.034401
#
#
# Mechanical properties :
#
#
# Convention : Reuss Voigt Hill
#
# Bulk Modulus (GPa) = 53.29147 58.94725 56.11936
# Shear Modulus (GPa) = 28.34562 29.83255 29.08908
#
# Velocity S-wave (km/s) = 3.87743 3.97783 3.92795
# Velocity P-wave (km/s) = 6.95066 7.23623 7.09489
#
# Compressibility (1/GPa) = 0.01876473
#
# Stress axis : x y z
#
# Youngs Moduli (GPa) = 55.03077 55.03104 79.35357
#
# Poissons Ratio (x) = 0.20639 0.44992
# Poissons Ratio (y) = 0.20639 0.44992
# Poissons Ratio (z) = 0.31201 0.31202
#
# Static dielectric constant tensor:
#      x y z
#    x 1.634940 0.000000 0.000000 
#    y 0.000000 1.634940 0.000000 
#    z 0.000000 0.000000 1.643730 
# 
# From -- ./inp_files/7979.got.cif
#   From: 2010.05.17/outbox.cif.g08.bks.cpg/sg91_4_cif.got.tgz:7979.got - 2010.06.03 19:20:03.
