data_PCOD9548159
_publ_section_title
;
Structure prediction by ZEFSAII (Michael W. Deem and Ramdas Pophale) SiO2 
 PCOD9548159
Probable space group: P 41 2 2
;
_chemical_formula_sum "Si O2"
_cell_formula_units_Z 36
_cell_length_a 12.017946
_cell_length_b 12.017946
_cell_length_c 12.132864
_cell_angle_alpha 90.000000
_cell_angle_beta 90.000000
_cell_angle_gamma 90.000000
_cell_volume 1752.361997
_symmetry_space_group_name_H-M "P 41 2 2"
_symmetry_group_IT_number 91
_symmetry_cell_setting 'tetragonal'
loop_
_space_group_symop_operation_xyz
x,y,z
-y,x,1/4+z
-x,-y,1/2+z
y,-x,3/4+z
x,-y,1/2-z
-x,y,-z
y,x,3/4-z
-y,-x,1/4-z
loop_
_atom_site_type_symbol
_atom_site_label
_atom_site_fract_x
_atom_site_fract_y
_atom_site_fract_z
Si Si1 0.292738 0.482855 0.376121
Si Si2 0.000000 0.946344 0.500000
Si Si3 0.368025 0.700238 0.503579
Si Si4 0.697145 0.862513 0.825608
Si Si5 0.759406 0.090531 0.919317
O O1 0.258383 0.500000 0.250000
O O2 0.403294 0.403294 0.375000
O O3 0.322681 0.601932 0.425850
O O4 0.187758 0.426181 0.439448
O O5 0.875602 0.895475 0.514469
O O6 0.000913 0.999088 0.625000
O O7 0.500000 0.696033 0.500000
O O8 0.326123 0.673878 0.625000
O O9 0.325026 0.820408 0.467539
O O10 0.758493 0.758493 0.875000
O O11 0.761771 0.884980 0.711864
O O12 0.712433 0.964390 0.910764
#
# Coordination Sequence:
#
# PCOD9548159 Si02
#       5
#     8   4   8   8   8
#     4  11  22  40  66  92 119 164 226 280 337 414
#     4  12  24  42  68  98 132 178 232 288 356 440
#     4  12  24  40  62  91 131 173 216 273 341 413
#     4  10  21  40  65  91 124 168 222 283 340 408
#     4  11  23  40  62  93 131 171 219 277 348 420
#
# _framework density 20.543702
#
# number of rings (size 3 to 8) (size 9 to 14) (size 15 to 20)
#    0.000    0.889    0.000   10.667    0.000    0.889 
#    0.000    4.444    0.000    0.000    0.000    0.000 
#    0.000    0.000    0.000    0.000    0.000    0.000 
#
# Total GULP energy -200522.420359 kJ/mol
# GULP energy per Si atom -5570.067232 kJ/mol
# Density = 2.049694 g / cm^3
# Si number density = 20.543702 Si / 1000 Ang^3
#
#
#
# Elastic Constant Matrix: (Units=GPa)
#
#
# Indices 1 2 3 4 5 6 
#
# 1 62.3135 92.3407 20.6855 0.0000 0.0000 0.0000
# 2 92.3407 62.3137 20.6850 0.0000 0.0000 0.0000
# 3 20.6855 20.6850 111.3484 0.0000 0.0000 0.0000
# 4 0.0000 0.0000 0.0000 41.0927 0.0000 0.0000
# 5 0.0000 0.0000 0.0000 0.0000 41.0927 0.0000
# 6 0.0000 0.0000 0.0000 0.0000 0.0000 5.3056
#
#
#
# Elastic Compliance Matrix: (Units=1/GPa)
#
#
# Indices 1 2 3 4 5 6 
#
# 1 -0.013250 0.020054 -0.001264 0.000000 0.000000 0.000000
# 2 0.020054 -0.013250 -0.001264 0.000000 0.000000 0.000000
# 3 -0.001264 -0.001264 0.009450 0.000000 0.000000 0.000000
# 4 0.000000 0.000000 0.000000 0.024335 0.000000 0.000000
# 5 0.000000 0.000000 0.000000 0.000000 0.024335 0.000000
# 6 0.000000 0.000000 0.000000 0.000000 0.000000 0.188482
#
#
# Mechanical properties :
#
#
# Convention : Reuss Voigt Hill
#
# Bulk Modulus (GPa) = 55.54716 55.93313 55.74014
# Shear Modulus (GPa) = 26.17074 24.31581 25.24328
#
# Velocity S-wave (km/s) = 3.57305 3.44410 3.50917
# Velocity P-wave (km/s) = 6.64225 6.56516 6.60382
#
# Compressibility (1/GPa) = 0.01800272
#
# Stress axis : x y z
#
# Youngs Moduli (GPa) = -75.47393 -75.47443 105.81502
#
# Poissons Ratio (x) = 1.51354 0.13374
# Poissons Ratio (y) = 1.51353 0.13376
# Poissons Ratio (z) = -0.09539 -0.09541
#
# Static dielectric constant tensor:
#      x y z
#    x 1.778220 0.000000 0.000000 
#    y 0.000000 1.778220 0.000000 
#    z 0.000000 0.000000 1.747030 
# 
# From -- ./inp_files/3545.got.cif
#   From: 2010.05.17/outbox.cif.g08.bks.cpg/sg91_2_cif.got.tgz:3545.got - 2010.06.03 19:20:03.
