data_PCOD9548641
_publ_section_title
;
Structure prediction by ZEFSAII (Michael W. Deem and Ramdas Pophale) SiO2 
 PCOD9548641
Probable space group: P 41 2 2
;
_chemical_formula_sum "Si O2"
_cell_formula_units_Z 20
_cell_length_a 12.302693
_cell_length_b 12.302693
_cell_length_c 6.794584
_cell_angle_alpha 90.000000
_cell_angle_beta 90.000000
_cell_angle_gamma 90.000000
_cell_volume 1028.402789
_symmetry_space_group_name_H-M "P 41 2 2"
_symmetry_group_IT_number 91
_symmetry_cell_setting 'tetragonal'
loop_
_space_group_symop_operation_xyz
x,y,z
-y,x,1/4+z
-x,-y,1/2+z
y,-x,3/4+z
x,-y,1/2-z
-x,y,-z
y,x,3/4-z
-y,-x,1/4-z
loop_
_atom_site_type_symbol
_atom_site_label
_atom_site_fract_x
_atom_site_fract_y
_atom_site_fract_z
Si Si1 0.156158 0.688381 0.246000
Si Si2 0.122852 0.482714 0.975392
Si Si3 0.157625 0.000000 0.750000
O O1 0.196355 0.609518 0.422970
O O2 0.068790 0.770016 0.343687
O O3 0.242335 0.757666 0.125000
O O4 0.117970 0.596268 0.091697
O O5 0.149395 0.500000 0.750000
O O6 0.000000 0.438989 0.000000
O O7 0.082838 0.917163 0.625000
#
# Coordination Sequence:
#
# PCOD9548641 Si02
#       3
#     8   8   4
#     4  11  25  39  65  94 129 170 221 268 326 378
#     4  11  21  40  64  93 124 165 225 277 310 381
#     4  12  26  40  56  92 140 186 216 254 308 394
#
# _framework density 19.447634000000001
#
# number of rings (size 3 to 8) (size 9 to 14) (size 15 to 20)
#    0.000    0.800    6.000    1.200   11.200    0.000 
#    0.000    0.000    0.000    0.000   41.600    0.000 
#    0.000    0.000    0.000    0.000    0.000    0.000 
#
# Total GULP energy -111473.264905 kJ/mol
# GULP energy per Si atom -5573.663245 kJ/mol
# Density = 1.940337 g / cm^3
# Si number density = 19.447634 Si / 1000 Ang^3
#
#
#
# Elastic Constant Matrix: (Units=GPa)
#
#
# Indices 1 2 3 4 5 6 
#
# 1 113.3498 73.1203 73.1857 0.0000 0.0000 0.0000
# 2 73.1203 113.3515 73.1871 0.0000 0.0000 0.0000
# 3 73.1857 73.1871 194.8686 0.0000 0.0000 0.0000
# 4 0.0000 0.0000 0.0000 -28.9339 0.0000 0.0000
# 5 0.0000 0.0000 0.0000 0.0000 -28.9436 0.0000
# 6 0.0000 0.0000 0.0000 0.0000 0.0000 9.0767
#
#
#
# Elastic Compliance Matrix: (Units=1/GPa)
#
#
# Indices 1 2 3 4 5 6 
#
# 1 0.016231 -0.008626 -0.002856 0.000000 0.000000 0.000000
# 2 -0.008626 0.016231 -0.002856 0.000000 0.000000 0.000000
# 3 -0.002856 -0.002856 0.007277 0.000000 0.000000 0.000000
# 4 0.000000 0.000000 0.000000 -0.034562 0.000000 0.000000
# 5 0.000000 0.000000 0.000000 0.000000 -0.034550 0.000000
# 6 0.000000 0.000000 0.000000 0.000000 0.000000 0.110172
#
#
# Mechanical properties :
#
#
# Convention : Reuss Voigt Hill
#
# Bulk Modulus (GPa) = 90.39937 95.61734 93.00835
# Shear Modulus (GPa) = 44.18402 3.71163 23.94782
#
# Velocity S-wave (km/s) = 4.77167 1.38299 3.51294
# Velocity P-wave (km/s) = 8.77170 7.19886 8.02391
#
# Compressibility (1/GPa) = 0.01106202
#
# Stress axis : x y z
#
# Youngs Moduli (GPa) = 61.61118 61.61158 137.42004
#
# Poissons Ratio (x) = 0.53147 0.39247
# Poissons Ratio (y) = 0.53146 0.39249
# Poissons Ratio (z) = 0.17596 0.17597
#
# Static dielectric constant tensor:
#      x y z
#    x 1.728660 0.000000 0.000000 
#    y 0.000000 1.728650 0.000000 
#    z 0.000000 0.000000 1.734840 
# 
# From -- ./inp_files/1745.got.cif
#   From: 2010.05.17/outbox.cif.g08.bks.cpg/sg91_1_cif.got.tgz:1745.got - 2010.06.03 19:20:03.
