data_PCOD9548236
_publ_section_title
;
Structure prediction by ZEFSAII (Michael W. Deem and Ramdas Pophale) SiO2 
 PCOD9548236
Probable space group: P 41 2 2
;
_chemical_formula_sum "Si O2"
_cell_formula_units_Z 44
_cell_length_a 11.929961
_cell_length_b 11.929961
_cell_length_c 15.890048
_cell_angle_alpha 90.000000
_cell_angle_beta 90.000000
_cell_angle_gamma 90.000000
_cell_volume 2261.534706
_symmetry_space_group_name_H-M "P 41 2 2"
_symmetry_group_IT_number 91
_symmetry_cell_setting 'tetragonal'
loop_
_space_group_symop_operation_xyz
x,y,z
-y,x,1/4+z
-x,-y,1/2+z
y,-x,3/4+z
x,-y,1/2-z
-x,y,-z
y,x,3/4-z
-y,-x,1/4-z
loop_
_atom_site_type_symbol
_atom_site_label
_atom_site_fract_x
_atom_site_fract_y
_atom_site_fract_z
Si Si1 0.376485 0.715631 0.541050
Si Si2 0.190953 0.317007 0.235062
Si Si3 0.636266 0.117581 0.791664
Si Si4 0.624227 0.046653 0.983932
Si Si5 0.368881 0.631120 0.125000
Si Si6 0.557878 0.760655 0.185468
O O1 0.500000 0.702580 0.500000
O O2 0.356438 0.643563 0.625000
O O3 0.357737 0.849744 0.547619
O O4 0.278728 0.668702 0.482128
O O5 0.264091 0.206631 0.217363
O O6 0.261069 0.366374 0.313849
O O7 0.194687 0.398178 0.153885
O O8 0.061499 0.297322 0.258400
O O9 0.619972 0.097978 0.890532
O O10 0.525120 0.162409 0.741867
O O11 0.666574 0.000000 0.750000
O O12 0.500000 0.000771 0.000000
O O13 0.483743 0.647599 0.173623
#
# Coordination Sequence:
#
# PCOD9548236 Si02
#       6
#     8   8   8   8   4   8
#     4  11  25  40  62  94 132 176 214 267 334 405
#     4  11  22  40  63  97 124 168 219 274 323 392
#     4  11  23  40  66  98 127 174 222 278 332 392
#     4  11  21  41  65  91 129 172 218 267 330 393
#     4  10  22  32  60  92 130 156 202 268 328 376
#     4  11  22  38  59  95 129 164 220 257 326 396
#
# _framework density 19.455815999999999
#
# number of rings (size 3 to 8) (size 9 to 14) (size 15 to 20)
#    0.000    1.091    1.818    7.091    3.818    0.000 
#    0.000    0.000    4.000    0.000    0.000    0.000 
#    0.000    0.000    0.000    0.000    0.000    0.000 
#
# Total GULP energy -245441.646091 kJ/mol
# GULP energy per Si atom -5578.219229 kJ/mol
# Density = 1.941153 g / cm^3
# Si number density = 19.455816 Si / 1000 Ang^3
#
#
#
# Elastic Constant Matrix: (Units=GPa)
#
#
# Indices 1 2 3 4 5 6 
#
# 1 104.4849 49.0098 28.6922 0.0000 0.0000 0.0000
# 2 49.0098 104.4855 28.6926 0.0000 0.0000 0.0000
# 3 28.6922 28.6926 88.6101 0.0000 0.0000 0.0000
# 4 0.0000 0.0000 0.0000 24.1629 0.0000 0.0000
# 5 0.0000 0.0000 0.0000 0.0000 24.1627 0.0000
# 6 0.0000 0.0000 0.0000 0.0000 0.0000 7.0336
#
#
#
# Elastic Compliance Matrix: (Units=1/GPa)
#
#
# Indices 1 2 3 4 5 6 
#
# 1 0.012719 -0.005307 -0.002400 0.000000 0.000000 0.000000
# 2 -0.005307 0.012719 -0.002400 0.000000 0.000000 0.000000
# 3 -0.002400 -0.002400 0.012840 0.000000 0.000000 0.000000
# 4 0.000000 0.000000 0.000000 0.041386 0.000000 0.000000
# 5 0.000000 0.000000 0.000000 0.000000 0.041386 0.000000
# 6 0.000000 0.000000 0.000000 0.000000 0.000000 0.142174
#
#
# Mechanical properties :
#
#
# Convention : Reuss Voigt Hill
#
# Bulk Modulus (GPa) = 55.35980 56.70776 56.03378
# Shear Modulus (GPa) = 17.27360 23.81759 20.54559
#
# Velocity S-wave (km/s) = 2.98289 3.50264 3.25316
# Velocity P-wave (km/s) = 6.35448 6.75042 6.55544
#
# Compressibility (1/GPa) = 0.01806365
#
# Stress axis : x y z
#
# Youngs Moduli (GPa) = 78.62188 78.62217 77.88332
#
# Poissons Ratio (x) = 0.41724 0.18692
# Poissons Ratio (y) = 0.41724 0.18693
# Poissons Ratio (z) = 0.18870 0.18870
#
# Static dielectric constant tensor:
#      x y z
#    x 1.680530 0.000000 0.000000 
#    y 0.000000 1.680530 0.000000 
#    z 0.000000 0.000000 1.828130 
# 
# From -- ./inp_files/21061.got.cif
#   From: 2010.05.17/outbox.cif.g08.bks.cpg/sg91_11_cif.got.tgz:21061.got - 2010.06.03 19:20:03.
