data_PCOD9548213
_publ_section_title
;
Structure prediction by ZEFSAII (Michael W. Deem and Ramdas Pophale) SiO2 
 PCOD9548213
Probable space group: P 41 2 2
;
_chemical_formula_sum "Si O2"
_cell_formula_units_Z 40
_cell_length_a 8.341306
_cell_length_b 8.341306
_cell_length_c 27.431728
_cell_angle_alpha 90.000000
_cell_angle_beta 90.000000
_cell_angle_gamma 90.000000
_cell_volume 1908.627922
_symmetry_space_group_name_H-M "P 41 2 2"
_symmetry_group_IT_number 91
_symmetry_cell_setting 'tetragonal'
loop_
_space_group_symop_operation_xyz
x,y,z
-y,x,1/4+z
-x,-y,1/2+z
y,-x,3/4+z
x,-y,1/2-z
-x,y,-z
y,x,3/4-z
-y,-x,1/4-z
loop_
_atom_site_type_symbol
_atom_site_label
_atom_site_fract_x
_atom_site_fract_y
_atom_site_fract_z
Si Si1 0.219619 0.528948 0.937873
Si Si2 0.879447 0.971936 0.930175
Si Si3 0.565351 0.807727 0.572964
Si Si4 0.528775 0.500000 0.250000
Si Si5 0.737663 0.000000 0.750000
Si Si6 0.837268 0.204118 0.182705
O O1 0.238401 0.547277 0.880012
O O2 0.189332 0.343441 0.951879
O O3 0.076272 0.633783 0.957356
O O4 0.376447 0.572756 0.968526
O O5 0.905371 0.905371 0.875000
O O6 0.865347 0.838112 0.971496
O O7 0.724750 0.086218 0.931905
O O8 0.049947 0.056133 0.944716
O O9 0.578577 0.649561 0.539775
O O10 0.390768 0.886403 0.558637
O O11 0.815556 0.184445 0.125000
#
# Coordination Sequence:
#
# PCOD9548213 Si02
#       6
#     8   8   8   4   4   8
#     4  10  22  44  61  97 133 170 221 280 341 408
#     4  11  23  43  64  98 129 178 222 277 341 402
#     4  10  21  43  69  94 132 167 230 288 328 400
#     4  10  22  40  72 100 120 180 230 284 340 406
#     4  12  26  38  62  96 142 174 216 276 346 422
#     4   8  19  39  69  89 120 173 226 270 325 393
#
# _framework density 20.957464999999999
#
# number of rings (size 3 to 8) (size 9 to 14) (size 15 to 20)
#    0.000    2.000    2.000    1.800    8.400    0.000 
#    3.600    2.000    0.000    0.000    0.000    0.000 
#    0.000    0.000    0.000    0.000    0.000    0.000 
#
# Total GULP energy -222966.470758 kJ/mol
# GULP energy per Si atom -5574.161769 kJ/mol
# Density = 2.090977 g / cm^3
# Si number density = 20.957465 Si / 1000 Ang^3
#
#
#
# Elastic Constant Matrix: (Units=GPa)
#
#
# Indices 1 2 3 4 5 6 
#
# 1 76.2189 42.3313 25.3194 0.0000 0.0000 0.0000
# 2 42.3313 76.2189 25.3193 0.0000 0.0000 0.0000
# 3 25.3194 25.3193 113.3727 0.0000 0.0000 0.0000
# 4 0.0000 0.0000 0.0000 25.2878 0.0000 0.0000
# 5 0.0000 0.0000 0.0000 0.0000 25.2878 0.0000
# 6 0.0000 0.0000 0.0000 0.0000 0.0000 25.9210
#
#
#
# Elastic Compliance Matrix: (Units=1/GPa)
#
#
# Indices 1 2 3 4 5 6 
#
# 1 0.019417 -0.010092 -0.002082 0.000000 0.000000 0.000000
# 2 -0.010092 0.019417 -0.002082 0.000000 0.000000 0.000000
# 3 -0.002082 -0.002082 0.009751 0.000000 0.000000 0.000000
# 4 0.000000 0.000000 0.000000 0.039545 0.000000 0.000000
# 5 0.000000 0.000000 0.000000 0.000000 0.039545 0.000000
# 6 0.000000 0.000000 0.000000 0.000000 0.000000 0.038579
#
#
# Mechanical properties :
#
#
# Convention : Reuss Voigt Hill
#
# Bulk Modulus (GPa) = 49.82504 50.19450 50.00977
# Shear Modulus (GPa) = 24.81909 26.82199 25.82054
#
# Velocity S-wave (km/s) = 3.44504 3.58135 3.51386
# Velocity P-wave (km/s) = 6.29686 6.41125 6.35431
#
# Compressibility (1/GPa) = 0.02007023
#
# Stress axis : x y z
#
# Youngs Moduli (GPa) = 51.50106 51.50111 102.55752
#
# Poissons Ratio (x) = 0.51976 0.21358
# Poissons Ratio (y) = 0.51976 0.21357
# Poissons Ratio (z) = 0.10725 0.10725
#
# Static dielectric constant tensor:
#      x y z
#    x 1.800320 0.000000 0.000000 
#    y 0.000000 1.800320 0.000000 
#    z 0.000000 0.000000 1.858990 
# 
# From -- ./inp_files/17834.got.cif
#   From: 2010.05.17/outbox.cif.g08.bks.cpg/sg91_9_cif.got.tgz:17834.got - 2010.06.03 19:20:03.
