data_PCOD9548150
_publ_section_title
;
Structure prediction by ZEFSAII (Michael W. Deem and Ramdas Pophale) SiO2 
 PCOD9548150
Probable space group: P 41 2 2
;
_chemical_formula_sum "Si O2"
_cell_formula_units_Z 48
_cell_length_a 18.726809
_cell_length_b 18.726809
_cell_length_c 8.008058
_cell_angle_alpha 90.000000
_cell_angle_beta 90.000000
_cell_angle_gamma 90.000000
_cell_volume 2808.372890
_symmetry_space_group_name_H-M "P 41 2 2"
_symmetry_group_IT_number 91
_symmetry_cell_setting 'tetragonal'
loop_
_space_group_symop_operation_xyz
x,y,z
-y,x,1/4+z
-x,-y,1/2+z
y,-x,3/4+z
x,-y,1/2-z
-x,y,-z
y,x,3/4-z
-y,-x,1/4-z
loop_
_atom_site_type_symbol
_atom_site_label
_atom_site_fract_x
_atom_site_fract_y
_atom_site_fract_z
Si Si1 0.565515 0.434486 0.125000
Si Si2 0.639401 0.855133 0.420220
Si Si3 0.281931 0.350572 0.229733
Si Si4 0.268976 0.731025 0.625000
Si Si5 0.820133 0.402761 0.530493
Si Si6 0.077376 0.500000 0.250000
Si Si7 0.000000 0.602376 0.500000
Si Si8 0.269838 0.464172 0.979356
O O1 0.553149 0.500000 0.250000
O O2 0.554049 0.349582 0.164607
O O3 0.712000 0.812906 0.389765
O O4 0.625934 0.859325 0.617121
O O5 0.639336 0.929380 0.323705
O O6 0.580240 0.796682 0.353228
O O7 0.339996 0.339996 0.375000
O O8 0.210048 0.342568 0.342336
O O9 0.274448 0.430469 0.163030
O O10 0.292089 0.304868 0.057105
O O11 0.872696 0.454892 0.627866
O O12 0.754076 0.453830 0.470921
O O13 0.028642 0.553023 0.352629
#
# Coordination Sequence:
#
# PCOD9548150 Si02
#       8
#     4   8   8   4   8   4   4   8
#     4  12  29  46  58  82 108 146 206 280 337 372
#     4  11  22  38  63  84 117 157 196 250 301 371
#     4  11  21  35  59  83 105 141 202 253 297 362
#     4  10  21  40  56  82 116 146 196 234 283 344
#     4  12  21  38  60  86 109 156 203 247 312 382
#     4  12  22  38  52  86 122 152 194 240 308 388
#     4  12  24  38  56  88 124 158 194 246 310 370
#     4  11  23  41  57  79 107 148 195 254 325 390
#
# _framework density 17.091747999999999
#
# number of rings (size 3 to 8) (size 9 to 14) (size 15 to 20)
#    0.000    0.667    5.000    5.500    2.333    1.333 
#    0.000    0.000    0.000    0.000    0.000    0.000 
#    0.000    0.000    0.000    3.000    0.167    0.000 
#
# Total GULP energy -267222.387989 kJ/mol
# GULP energy per Si atom -5567.133083 kJ/mol
# Density = 1.705285 g / cm^3
# Si number density = 17.091748 Si / 1000 Ang^3
#
#
#
# Elastic Constant Matrix: (Units=GPa)
#
#
# Indices 1 2 3 4 5 6 
#
# 1 90.9242 41.0928 41.8812 0.0000 0.0000 0.0000
# 2 41.0928 90.9253 41.8823 0.0000 0.0000 0.0000
# 3 41.8812 41.8823 117.4033 0.0000 0.0000 0.0000
# 4 0.0000 0.0000 0.0000 17.6997 0.0000 0.0000
# 5 0.0000 0.0000 0.0000 0.0000 17.6994 0.0000
# 6 0.0000 0.0000 0.0000 0.0000 0.0000 19.9970
#
#
#
# Elastic Compliance Matrix: (Units=1/GPa)
#
#
# Indices 1 2 3 4 5 6 
#
# 1 0.014929 -0.005138 -0.003493 0.000000 0.000000 0.000000
# 2 -0.005138 0.014929 -0.003493 0.000000 0.000000 0.000000
# 3 -0.003493 -0.003493 0.011010 0.000000 0.000000 0.000000
# 4 0.000000 0.000000 0.000000 0.056498 0.000000 0.000000
# 5 0.000000 0.000000 0.000000 0.000000 0.056499 0.000000
# 6 0.000000 0.000000 0.000000 0.000000 0.000000 0.050007
#
#
# Mechanical properties :
#
#
# Convention : Reuss Voigt Hill
#
# Bulk Modulus (GPa) = 60.16713 60.99617 60.58165
# Shear Modulus (GPa) = 21.39858 22.70565 22.05211
#
# Velocity S-wave (km/s) = 3.54218 3.64875 3.59586
# Velocity P-wave (km/s) = 7.21167 7.31548 7.26376
#
# Compressibility (1/GPa) = 0.01662037
#
# Stress axis : x y z
#
# Youngs Moduli (GPa) = 66.98293 66.98323 90.82989
#
# Poissons Ratio (x) = 0.34418 0.31724
# Poissons Ratio (y) = 0.34418 0.31725
# Poissons Ratio (z) = 0.23395 0.23396
#
# Static dielectric constant tensor:
#      x y z
#    x 1.625210 0.000000 0.000000 
#    y 0.000000 1.625210 0.000000 
#    z 0.000000 0.000000 1.682560 
# 
# From -- ./inp_files/15235.got.cif
#   From: 2010.05.17/outbox.cif.g08.bks.cpg/sg91_8_cif.got.tgz:15235.got - 2010.06.03 19:20:03.
