data_PCOD9548935
_publ_section_title
;
Structure prediction by ZEFSAII (Michael W. Deem and Ramdas Pophale) SiO2 
 PCOD9548935
Probable space group: P 41 21 2
;
_chemical_formula_sum "Si O2"
_cell_formula_units_Z 48
_cell_length_a 11.952935
_cell_length_b 11.952935
_cell_length_c 17.765403
_cell_angle_alpha 90.000000
_cell_angle_beta 90.000000
_cell_angle_gamma 90.000000
_cell_volume 2538.190296
_symmetry_space_group_name_H-M "P 41 21 2"
_symmetry_group_IT_number 92
_symmetry_cell_setting 'tetragonal'
loop_
_space_group_symop_operation_xyz
x,y,z
1/2-y,1/2+x,1/4+z
-x,-y,1/2+z
1/2+y,1/2-x,3/4+z
1/2+x,1/2-y,3/4-z
1/2-x,1/2+y,1/4-z
y,x,-z
-y,-x,1/2-z
loop_
_atom_site_type_symbol
_atom_site_label
_atom_site_fract_x
_atom_site_fract_y
_atom_site_fract_z
Si Si1 0.562561 0.770382 0.669826
Si Si2 0.162168 0.008031 0.265175
Si Si3 0.178781 0.341841 0.544046
Si Si4 0.526047 0.866490 0.408425
Si Si5 0.090976 0.585011 0.508067
Si Si6 0.237834 0.746638 0.954771
O O1 0.543626 0.701023 0.594595
O O2 0.442812 0.782879 0.711001
O O3 0.653597 0.725796 0.727850
O O4 0.603417 0.894989 0.647535
O O5 0.038401 0.961600 0.250000
O O6 0.248201 0.966252 0.200628
O O7 0.185246 0.140180 0.272145
O O8 0.272324 0.272324 0.500000
O O9 0.156987 0.468191 0.517540
O O10 0.210733 0.333318 0.632205
O O11 0.586819 0.876356 0.328538
O O12 0.568369 0.965053 0.462991
O O13 0.151453 0.678711 0.558011
#
# Coordination Sequence:
#
# PCOD9548935 Si02
#       6
#     8   8   8   8   8   8
#     4   9  19  36  55  82 108 143 183 222 269 326
#     4  10  19  35  56  78 109 143 179 218 272 327
#     4  10  22  35  58  81 111 146 183 223 274 324
#     4  10  19  34  58  83 105 142 182 234 265 314
#     4  11  21  35  58  82 112 138 188 229 273 319
#     4  10  22  35  55  82 109 146 178 224 274 327
#
# _framework density 18.911111999999999
#
# number of rings (size 3 to 8) (size 9 to 14) (size 15 to 20)
#    0.000    2.000    1.667    2.000    9.333    0.667 
#    0.000    0.000    0.000    0.000    0.000    0.000 
#    0.000    0.000    0.000    0.000    0.000    0.000 
#
# Total GULP energy -267835.853029 kJ/mol
# GULP energy per Si atom -5579.913605 kJ/mol
# Density = 1.886807 g / cm^3
# Si number density = 18.911112 Si / 1000 Ang^3
#
#
#
# Elastic Constant Matrix: (Units=GPa)
#
#
# Indices 1 2 3 4 5 6 
#
# 1 14.8575 0.3275 -5.1860 0.0000 0.0000 0.0000
# 2 0.3275 14.8559 -5.1857 0.0000 0.0000 0.0000
# 3 -5.1860 -5.1857 46.8223 0.0000 0.0000 0.0000
# 4 0.0000 0.0000 0.0000 22.5028 0.0000 0.0000
# 5 0.0000 0.0000 0.0000 0.0000 22.5029 0.0000
# 6 0.0000 0.0000 0.0000 0.0000 0.0000 27.3709
#
#
#
# Elastic Compliance Matrix: (Units=1/GPa)
#
#
# Indices 1 2 3 4 5 6 
#
# 1 0.070034 0.001211 0.007891 0.000000 0.000000 0.000000
# 2 0.001211 0.070041 0.007891 0.000000 0.000000 0.000000
# 3 0.007891 0.007891 0.023105 0.000000 0.000000 0.000000
# 4 0.000000 0.000000 0.000000 0.044439 0.000000 0.000000
# 5 0.000000 0.000000 0.000000 0.000000 0.044439 0.000000
# 6 0.000000 0.000000 0.000000 0.000000 0.000000 0.036535
#
#
# Mechanical properties :
#
#
# Convention : Reuss Voigt Hill
#
# Bulk Modulus (GPa) = 5.07188 6.27194 5.67191
# Shear Modulus (GPa) = 15.60895 20.24731 17.92813
#
# Velocity S-wave (km/s) = 2.87607 3.27564 3.08234
# Velocity P-wave (km/s) = 3.70362 4.19883 3.95897
#
# Compressibility (1/GPa) = 0.19716559
#
# Stress axis : x y z
#
# Youngs Moduli (GPa) = 14.27886 14.27733 43.28008
#
# Poissons Ratio (x) = -0.01728 -0.34152
# Poissons Ratio (y) = -0.01729 -0.34154
# Poissons Ratio (z) = -0.11267 -0.11267
#
# Static dielectric constant tensor:
#      x y z
#    x 1.642540 0.000000 0.000000 
#    y 0.000000 1.642540 0.000000 
#    z 0.000000 0.000000 1.659920 
# 
# From -- ./inp_files/3093.got.cif
#   From: 2010.05.17/outbox.cif.g08.bks.cpg/sg92_2_cif.got.tgz:3093.got - 2010.06.03 19:35:17.
