data_PCOD9548509
_publ_section_title
;
Structure prediction by ZEFSAII (Michael W. Deem and Ramdas Pophale) SiO2 
 PCOD9548509
Probable space group: P 41 2 2
;
_chemical_formula_sum "Si O2"
_cell_formula_units_Z 40
_cell_length_a 14.044826
_cell_length_b 14.044826
_cell_length_c 10.197222
_cell_angle_alpha 90.000000
_cell_angle_beta 90.000000
_cell_angle_gamma 90.000000
_cell_volume 2011.474821
_symmetry_space_group_name_H-M "P 41 2 2"
_symmetry_group_IT_number 91
_symmetry_cell_setting 'tetragonal'
loop_
_space_group_symop_operation_xyz
x,y,z
-y,x,1/4+z
-x,-y,1/2+z
y,-x,3/4+z
x,-y,1/2-z
-x,y,-z
y,x,3/4-z
-y,-x,1/4-z
loop_
_atom_site_type_symbol
_atom_site_label
_atom_site_fract_x
_atom_site_fract_y
_atom_site_fract_z
Si Si1 0.570829 0.238445 0.252302
Si Si2 0.718835 0.374406 0.370113
Si Si3 0.309128 0.036540 0.400480
Si Si4 0.865040 0.718052 0.325916
Si Si5 0.748315 0.748315 0.875000
Si Si6 0.500000 0.881011 0.000000
O O1 0.629001 0.334507 0.288265
O O2 0.484790 0.265724 0.154602
O O3 0.641974 0.159725 0.189719
O O4 0.533064 0.188567 0.383415
O O5 0.808232 0.330743 0.293809
O O6 0.718172 0.318864 0.506592
O O7 0.266567 0.141840 0.408367
O O8 0.419073 0.052090 0.439019
O O9 0.299035 0.000000 0.250000
O O10 0.267688 0.968344 0.514002
O O11 0.814133 0.814133 0.375000
#
# Coordination Sequence:
#
# PCOD9548509 Si02
#       6
#     8   8   8   8   4   4
#     4  11  22  41  66  91 138 178 226 274 337 397
#     4  11  21  41  64  94 132 178 218 276 329 401
#     4  12  25  41  69  97 132 170 221 276 341 404
#     4  10  24  43  68  95 133 173 219 282 340 396
#     4  12  22  42  68  92 134 170 212 272 346 400
#     4  12  24  36  64 106 122 172 220 278 330 404
#
# _framework density 19.885905999999999
#
# number of rings (size 3 to 8) (size 9 to 14) (size 15 to 20)
#    0.000    0.800    6.000    0.600    5.600    0.000 
#    0.000    0.000   52.800    0.000    0.000    0.000 
#    0.000    0.000    0.000    0.000    0.000    0.000 
#
# Total GULP energy -223356.478481 kJ/mol
# GULP energy per Si atom -5583.911962 kJ/mol
# Density = 1.984064 g / cm^3
# Si number density = 19.885906 Si / 1000 Ang^3
#
#
#
# Elastic Constant Matrix: (Units=GPa)
#
#
# Indices 1 2 3 4 5 6 
#
# 1 99.6826 1.9571 14.1757 0.0000 0.0000 0.0000
# 2 1.9571 99.6826 14.1757 0.0000 0.0000 0.0000
# 3 14.1757 14.1757 95.4161 0.0000 0.0000 0.0000
# 4 0.0000 0.0000 0.0000 47.0214 0.0000 0.0000
# 5 0.0000 0.0000 0.0000 0.0000 47.0214 0.0000
# 6 0.0000 0.0000 0.0000 0.0000 0.0000 12.0031
#
#
#
# Elastic Compliance Matrix: (Units=1/GPa)
#
#
# Indices 1 2 3 4 5 6 
#
# 1 0.010248 0.000016 -0.001525 0.000000 0.000000 0.000000
# 2 0.000016 0.010248 -0.001525 0.000000 0.000000 0.000000
# 3 -0.001525 -0.001525 0.010934 0.000000 0.000000 0.000000
# 4 0.000000 0.000000 0.000000 0.021267 0.000000 0.000000
# 5 0.000000 0.000000 0.000000 0.000000 0.021267 0.000000
# 6 0.000000 0.000000 0.000000 0.000000 0.000000 0.083312
#
#
# Mechanical properties :
#
#
# Convention : Reuss Voigt Hill
#
# Bulk Modulus (GPa) = 39.42910 39.48871 39.45891
# Shear Modulus (GPa) = 29.10386 38.84068 33.97227
#
# Velocity S-wave (km/s) = 3.82978 4.42427 4.13771
# Velocity P-wave (km/s) = 6.27909 6.78230 6.53554
#
# Compressibility (1/GPa) = 0.02536198
#
# Stress axis : x y z
#
# Youngs Moduli (GPa) = 97.57629 97.57629 91.46197
#
# Poissons Ratio (x) = -0.00153 0.13947
# Poissons Ratio (y) = -0.00153 0.13947
# Poissons Ratio (z) = 0.14879 0.14879
#
# Static dielectric constant tensor:
#      x y z
#    x 1.712760 0.000000 0.000000 
#    y 0.000000 1.712760 0.000000 
#    z 0.000000 0.000000 1.668010 
# 
# From -- ./inp_files/19441.got.cif
#   From: 2010.05.17/outbox.cif.g08.bks.cpg/sg91_10_cif.got.tgz:19441.got - 2010.06.03 19:20:03.
