data_PCOD9548718
_publ_section_title
;
Structure prediction by ZEFSAII (Michael W. Deem and Ramdas Pophale) SiO2 
 PCOD9548718
Probable space group: P 41 2 2
;
_chemical_formula_sum "Si O2"
_cell_formula_units_Z 60
_cell_length_a 11.193196
_cell_length_b 11.193196
_cell_length_c 22.320734
_cell_angle_alpha 90.000000
_cell_angle_beta 90.000000
_cell_angle_gamma 90.000000
_cell_volume 2796.512012
_symmetry_space_group_name_H-M "P 41 2 2"
_symmetry_group_IT_number 91
_symmetry_cell_setting 'tetragonal'
loop_
_space_group_symop_operation_xyz
x,y,z
-y,x,1/4+z
-x,-y,1/2+z
y,-x,3/4+z
x,-y,1/2-z
-x,y,-z
y,x,3/4-z
-y,-x,1/4-z
loop_
_atom_site_type_symbol
_atom_site_label
_atom_site_fract_x
_atom_site_fract_y
_atom_site_fract_z
Si Si1 0.912161 0.257188 0.155227
Si Si2 0.630986 0.159843 0.977700
Si Si3 0.705620 0.581287 0.553182
Si Si4 0.961721 0.307760 0.388202
Si Si5 0.369959 0.321883 0.474985
Si Si6 0.216640 0.783361 0.125000
Si Si7 0.901215 0.442829 0.047567
Si Si8 0.716855 0.809760 0.087955
O O1 0.866344 0.133657 0.125000
O O2 0.841111 0.278836 0.216625
O O3 0.886934 0.358517 0.105152
O O4 0.049513 0.278302 0.173782
O O5 0.500000 0.137026 0.000000
O O6 0.632645 0.294915 0.951448
O O7 0.654771 0.054492 0.930794
O O8 0.636083 0.455710 0.552979
O O9 0.784045 0.560881 0.493525
O O10 0.783897 0.613258 0.612332
O O11 0.940730 0.425739 0.428845
O O12 0.850449 0.218178 0.390801
O O13 0.086014 0.242447 0.401524
O O14 0.500000 0.298337 0.500000
O O15 0.318527 0.236891 0.424130
O O16 0.295922 0.284062 0.533822
O O17 0.000000 0.397841 0.000000
#
# Coordination Sequence:
#
# PCOD9548718 Si02
#       8
#     8   8   8   8   8   4   8   8
#     4  12  25  41  68 102 137 183 229 293 356 421
#     4  11  23  42  67 101 136 177 229 291 356 420
#     4  11  23  44  66 103 138 179 238 289 355 431
#     4  11  26  45  70  98 136 184 239 290 354 431
#     4  12  26  45  70 104 139 184 232 295 367 419
#     4  12  28  46  70 104 140 186 238 300 354 438
#     4  12  22  42  71  96 133 185 236 285 349 433
#     4  11  26  44  69  99 139 187 234 294 356 427
#
# _framework density 21.455299
#
# number of rings (size 3 to 8) (size 9 to 14) (size 15 to 20)
#    0.000    0.533    5.333    2.800    2.800    1.067 
#    0.000    0.000    0.000    0.000    0.000    0.000 
#    0.000    0.000    0.000    0.000    0.000    0.000 
#
# Total GULP energy -334634.272575 kJ/mol
# GULP energy per Si atom -5577.237876 kJ/mol
# Density = 2.140647 g / cm^3
# Si number density = 21.455299 Si / 1000 Ang^3
#
#
#
# Elastic Constant Matrix: (Units=GPa)
#
#
# Indices 1 2 3 4 5 6 
#
# 1 28.4096 49.3123 15.9594 0.0000 0.0000 0.0000
# 2 49.3123 28.4090 15.9596 0.0000 0.0000 0.0000
# 3 15.9594 15.9596 68.6331 0.0000 0.0000 0.0000
# 4 0.0000 0.0000 0.0000 9.7585 0.0000 0.0000
# 5 0.0000 0.0000 0.0000 0.0000 9.7591 0.0000
# 6 0.0000 0.0000 0.0000 0.0000 0.0000 15.6790
#
#
#
# Elastic Compliance Matrix: (Units=1/GPa)
#
#
# Indices 1 2 3 4 5 6 
#
# 1 -0.016807 0.031032 -0.003308 0.000000 0.000000 0.000000
# 2 0.031032 -0.016808 -0.003308 0.000000 0.000000 0.000000
# 3 -0.003308 -0.003308 0.016109 0.000000 0.000000 0.000000
# 4 0.000000 0.000000 0.000000 0.102475 0.000000 0.000000
# 5 0.000000 0.000000 0.000000 0.000000 0.102469 0.000000
# 6 0.000000 0.000000 0.000000 0.000000 0.000000 0.063780
#
#
# Mechanical properties :
#
#
# Convention : Reuss Voigt Hill
#
# Bulk Modulus (GPa) = 31.92107 31.99048 31.95578
# Shear Modulus (GPa) = 23.49349 9.98734 16.74041
#
# Velocity S-wave (km/s) = 3.31266 2.15987 2.79632
# Velocity P-wave (km/s) = 5.43525 4.60030 5.03511
#
# Compressibility (1/GPa) = 0.03132727
#
# Stress axis : x y z
#
# Youngs Moduli (GPa) = -59.49791 -59.49624 62.07875
#
# Poissons Ratio (x) = 1.84631 0.20535
# Poissons Ratio (y) = 1.84636 0.20533
# Poissons Ratio (z) = -0.19681 -0.19679
#
# Static dielectric constant tensor:
#      x y z
#    x 1.816340 0.000000 0.000000 
#    y 0.000000 1.816340 0.000000 
#    z 0.000000 0.000000 1.721970 
# 
# From -- ./inp_files/21576.got.cif
#   From: 2010.05.17/outbox.cif.g08.bks.cpg/sg91_11_cif.got.tgz:21576.got - 2010.06.03 19:20:03.
