data_PCOD9548898
_publ_section_title
;
Structure prediction by ZEFSAII (Michael W. Deem and Ramdas Pophale) SiO2 
 PCOD9548898
Probable space group: P 41 21 2
;
_chemical_formula_sum "Si O2"
_cell_formula_units_Z 40
_cell_length_a 7.089653
_cell_length_b 7.089653
_cell_length_c 32.961957
_cell_angle_alpha 90.000000
_cell_angle_beta 90.000000
_cell_angle_gamma 90.000000
_cell_volume 1656.772767
_symmetry_space_group_name_H-M "P 41 21 2"
_symmetry_group_IT_number 92
_symmetry_cell_setting 'tetragonal'
loop_
_space_group_symop_operation_xyz
x,y,z
1/2-y,1/2+x,1/4+z
-x,-y,1/2+z
1/2+y,1/2-x,3/4+z
1/2+x,1/2-y,3/4-z
1/2-x,1/2+y,1/4-z
y,x,-z
-y,-x,1/2-z
loop_
_atom_site_type_symbol
_atom_site_label
_atom_site_fract_x
_atom_site_fract_y
_atom_site_fract_z
Si Si1 0.123723 0.165947 0.282887
Si Si2 0.754866 0.754866 0.000000
Si Si3 0.463266 0.418247 0.608516
Si Si4 0.166178 0.549164 0.325195
Si Si5 0.209132 0.790869 0.250000
Si Si6 0.741309 0.935137 0.915924
O O1 0.003038 0.029984 0.313421
O O2 0.207652 0.334251 0.309450
O O3 0.973258 0.270748 0.253674
O O4 0.245066 0.013518 0.259379
O O5 0.818286 0.855632 0.958969
O O6 0.572620 0.247413 0.629630
O O7 0.503575 0.590119 0.638572
O O8 0.245461 0.348636 0.607221
O O9 0.256263 0.679160 0.290771
O O10 0.939139 0.567477 0.327042
#
# Coordination Sequence:
#
# PCOD9548898 Si02
#       6
#     8   4   8   8   4   8
#     4   9  20  40  58  85 124 157 191 254 295 354
#     4   7  16  31  56  82 112 153 190 229 302 344
#     4  10  18  36  60  88 121 153 204 245 293 356
#     4  10  22  38  62  87 118 160 199 247 294 363
#     4  11  24  43  58  90 130 151 204 251 300 358
#     4  10  18  35  59  91 116 159 198 245 298 359
#
# _framework density 24.143322999999999
#
# number of rings (size 3 to 8) (size 9 to 14) (size 15 to 20)
#    0.000    2.800    4.000    0.000    0.000    5.600 
#    3.600    0.000    0.000    0.000    0.000    0.000 
#    0.000    0.000    0.000    0.000    0.000    0.000 
#
# Total GULP energy -222927.631035 kJ/mol
# GULP energy per Si atom -5573.190776 kJ/mol
# Density = 2.408837 g / cm^3
# Si number density = 24.143323 Si / 1000 Ang^3
#
#
#
# Elastic Constant Matrix: (Units=GPa)
#
#
# Indices 1 2 3 4 5 6 
#
# 1 77.0065 -5.1261 26.8567 0.0000 0.0000 0.0000
# 2 -5.1261 77.0071 26.8546 0.0000 0.0000 0.0000
# 3 26.8567 26.8546 70.1149 0.0000 0.0000 0.0000
# 4 0.0000 0.0000 0.0000 33.5051 0.0000 0.0000
# 5 0.0000 0.0000 0.0000 0.0000 33.5058 0.0000
# 6 0.0000 0.0000 0.0000 0.0000 0.0000 9.9356
#
#
#
# Elastic Compliance Matrix: (Units=1/GPa)
#
#
# Indices 1 2 3 4 5 6 
#
# 1 0.015833 0.003657 -0.007465 0.000000 0.000000 0.000000
# 2 0.003657 0.015832 -0.007465 0.000000 0.000000 0.000000
# 3 -0.007465 -0.007465 0.019981 0.000000 0.000000 0.000000
# 4 0.000000 0.000000 0.000000 0.029846 0.000000 0.000000
# 5 0.000000 0.000000 0.000000 0.000000 0.029846 0.000000
# 6 0.000000 0.000000 0.000000 0.000000 0.000000 0.100648
#
#
# Mechanical properties :
#
#
# Convention : Reuss Voigt Hill
#
# Bulk Modulus (GPa) = 34.36365 35.69989 35.03177
# Shear Modulus (GPa) = 20.47232 27.09220 23.78226
#
# Velocity S-wave (km/s) = 2.91512 3.35347 3.14195
# Velocity P-wave (km/s) = 5.05911 5.46014 5.26345
#
# Compressibility (1/GPa) = 0.02910052
#
# Stress axis : x y z
#
# Youngs Moduli (GPa) = 63.15915 63.16128 50.04762
#
# Poissons Ratio (x) = -0.23100 0.37363
# Poissons Ratio (y) = -0.23100 0.37360
# Poissons Ratio (z) = 0.47151 0.47149
#
# Static dielectric constant tensor:
#      x y z
#    x 1.970090 0.000000 0.000000 
#    y 0.000000 1.970090 0.000000 
#    z 0.000000 0.000000 1.947910 
# 
# From -- ./inp_files/4373.got.cif
#   From: 2010.05.17/outbox.cif.g08.bks.cpg/sg92_3_cif.got.tgz:4373.got - 2010.06.03 19:35:17.
