data_PCOD9548121
_publ_section_title
;
Structure prediction by ZEFSAII (Michael W. Deem and Ramdas Pophale) SiO2 
 PCOD9548121
Probable space group: P 41 2 2
;
_chemical_formula_sum "Si O2"
_cell_formula_units_Z 48
_cell_length_a 11.551759
_cell_length_b 11.551759
_cell_length_c 16.885633
_cell_angle_alpha 90.000000
_cell_angle_beta 90.000000
_cell_angle_gamma 90.000000
_cell_volume 2253.271821
_symmetry_space_group_name_H-M "P 41 2 2"
_symmetry_group_IT_number 91
_symmetry_cell_setting 'tetragonal'
loop_
_space_group_symop_operation_xyz
x,y,z
-y,x,1/4+z
-x,-y,1/2+z
y,-x,3/4+z
x,-y,1/2-z
-x,y,-z
y,x,3/4-z
-y,-x,1/4-z
loop_
_atom_site_type_symbol
_atom_site_label
_atom_site_fract_x
_atom_site_fract_y
_atom_site_fract_z
Si Si1 0.723974 0.821557 0.445110
Si Si2 0.340734 0.750176 0.843448
Si Si3 0.201171 0.842806 0.288870
Si Si4 0.792588 0.613437 0.907853
Si Si5 0.249284 0.980436 0.069645
Si Si6 0.510537 0.314227 0.092618
O O1 0.818008 0.818008 0.375000
O O2 0.756770 0.719643 0.507559
O O3 0.600965 0.791764 0.403146
O O4 0.714140 0.930817 0.501318
O O5 0.271855 0.824465 0.908191
O O6 0.476632 0.773724 0.836627
O O7 0.311622 0.619223 0.872556
O O8 0.319722 0.828166 0.238537
O O9 0.101637 0.846495 0.221908
O O10 0.211884 0.944163 0.353754
O O11 0.677196 0.677196 0.875000
O O12 0.894598 0.649010 0.847361
O O13 0.575896 0.424105 0.125000
O O14 0.500000 0.332651 0.000000
#
# Coordination Sequence:
#
# PCOD9548121 Si02
#       6
#     8   8   8   8   8   8
#     4   9  20  40  63  92 130 164 222 271 325 384
#     4  10  21  38  58  96 131 171 214 252 323 393
#     4  10  23  43  68  92 130 172 222 271 325 388
#     4  10  22  40  62  94 132 170 214 265 319 393
#     4  10  22  46  65  94 130 170 224 269 332 386
#     4   9  18  32  56  89 123 167 205 251 310 376
#
# _framework density 21.302354999999999
#
# number of rings (size 3 to 8) (size 9 to 14) (size 15 to 20)
#    0.000    2.333    0.000    1.000    7.000    2.667 
#   15.000   12.500    0.000    0.000    0.000    0.000 
#    0.000    0.000    0.000    0.000    0.000    0.000 
#
# Total GULP energy -267618.170924 kJ/mol
# GULP energy per Si atom -5575.378561 kJ/mol
# Density = 2.125387 g / cm^3
# Si number density = 21.302355 Si / 1000 Ang^3
#
#
#
# Elastic Constant Matrix: (Units=GPa)
#
#
# Indices 1 2 3 4 5 6 
#
# 1 119.5823 21.1248 54.2349 0.0000 0.0000 0.0000
# 2 21.1248 119.5836 54.2277 0.0000 0.0000 0.0000
# 3 54.2349 54.2277 96.4026 0.0000 0.0000 0.0000
# 4 0.0000 0.0000 0.0000 41.7628 0.0000 0.0000
# 5 0.0000 0.0000 0.0000 0.0000 41.7727 0.0000
# 6 0.0000 0.0000 0.0000 0.0000 0.0000 9.6622
#
#
#
# Elastic Compliance Matrix: (Units=1/GPa)
#
#
# Indices 1 2 3 4 5 6 
#
# 1 0.011353 0.001196 -0.007060 0.000000 0.000000 0.000000
# 2 0.001196 0.011352 -0.007058 0.000000 0.000000 0.000000
# 3 -0.007060 -0.007058 0.018315 0.000000 0.000000 0.000000
# 4 0.000000 0.000000 0.000000 0.023945 0.000000 0.000000
# 5 0.000000 0.000000 0.000000 0.000000 0.023939 0.000000
# 6 0.000000 0.000000 0.000000 0.000000 0.000000 0.103496
#
#
# Mechanical properties :
#
#
# Convention : Reuss Voigt Hill
#
# Bulk Modulus (GPa) = 65.89479 66.08259 65.98869
# Shear Modulus (GPa) = 22.39110 32.37162 27.38136
#
# Velocity S-wave (km/s) = 3.24560 3.90247 3.58909
# Velocity P-wave (km/s) = 6.71159 7.16898 6.94405
#
# Compressibility (1/GPa) = 0.01517571
#
# Stress axis : x y z
#
# Youngs Moduli (GPa) = 88.08208 88.09135 54.59911
#
# Poissons Ratio (x) = -0.10534 0.38546
# Poissons Ratio (y) = -0.10533 0.38538
# Poissons Ratio (z) = 0.62184 0.62178
#
# Static dielectric constant tensor:
#      x y z
#    x 1.814620 0.000000 0.000000 
#    y 0.000000 1.814630 0.000000 
#    z 0.000000 0.000000 1.787250 
# 
# From -- ./inp_files/11933.got.cif
#   From: 2010.05.17/outbox.cif.g08.bks.cpg/sg91_6_cif.got.tgz:11933.got - 2010.06.03 19:20:03.
