data_PCOD9548717
_publ_section_title
;
Structure prediction by ZEFSAII (Michael W. Deem and Ramdas Pophale) SiO2 
 PCOD9548717
Probable space group: P 41 2 2
;
_chemical_formula_sum "Si O2"
_cell_formula_units_Z 44
_cell_length_a 8.449872
_cell_length_b 8.449872
_cell_length_c 29.211569
_cell_angle_alpha 90.000000
_cell_angle_beta 90.000000
_cell_angle_gamma 90.000000
_cell_volume 2085.715866
_symmetry_space_group_name_H-M "P 41 2 2"
_symmetry_group_IT_number 91
_symmetry_cell_setting 'tetragonal'
loop_
_space_group_symop_operation_xyz
x,y,z
-y,x,1/4+z
-x,-y,1/2+z
y,-x,3/4+z
x,-y,1/2-z
-x,y,-z
y,x,3/4-z
-y,-x,1/4-z
loop_
_atom_site_type_symbol
_atom_site_label
_atom_site_fract_x
_atom_site_fract_y
_atom_site_fract_z
Si Si1 0.331907 0.272624 0.570766
Si Si2 0.064690 0.500000 0.250000
Si Si3 0.507930 0.185669 0.249802
Si Si4 0.175825 0.874282 0.482014
Si Si5 0.206676 0.556361 0.103858
Si Si6 0.948373 0.213884 0.373758
O O1 0.462658 0.175072 0.543179
O O2 0.282548 0.421991 0.540156
O O3 0.406469 0.284243 0.621039
O O4 0.169586 0.184461 0.583822
O O5 0.971178 0.665525 0.245050
O O6 0.697358 0.194828 0.248099
O O7 0.454155 0.237484 0.300170
O O8 0.464028 0.000000 0.250000
O O9 0.000000 0.929407 0.500000
O O10 0.187678 0.873583 0.426581
O O11 0.302891 0.697110 0.125000
O O12 0.026192 0.611000 0.116444
O O13 0.082189 0.082189 0.375000
#
# Coordination Sequence:
#
# PCOD9548717 Si02
#       6
#     8   4   8   8   8   8
#     4  12  24  43  72 102 138 187 244 298 372 443
#     4  12  26  42  70 106 142 184 250 306 366 450
#     4  11  24  43  71 101 141 193 243 302 374 448
#     4  11  25  46  69 102 147 194 241 303 379 451
#     4  11  23  42  65 100 141 180 236 299 359 442
#     4  11  23  43  69 101 141 186 239 302 366 444
#
# _framework density 21.095873000000001
#
# number of rings (size 3 to 8) (size 9 to 14) (size 15 to 20)
#    0.000    0.727    5.455    2.182    2.545    2.909 
#    0.000    0.000    0.000    0.000    0.000    0.000 
#    0.000    0.000    0.000    0.000    0.000    0.000 
#
# Total GULP energy -245094.159014 kJ/mol
# GULP energy per Si atom -5570.321796 kJ/mol
# Density = 2.104786 g / cm^3
# Si number density = 21.095873 Si / 1000 Ang^3
#
#
#
# Elastic Constant Matrix: (Units=GPa)
#
#
# Indices 1 2 3 4 5 6 
#
# 1 91.6524 48.7851 34.7633 0.0000 0.0000 0.0000
# 2 48.7851 91.6523 34.7639 0.0000 0.0000 0.0000
# 3 34.7633 34.7639 104.9724 0.0000 0.0000 0.0000
# 4 0.0000 0.0000 0.0000 34.7549 0.0000 0.0000
# 5 0.0000 0.0000 0.0000 0.0000 34.7547 0.0000
# 6 0.0000 0.0000 0.0000 0.0000 0.0000 33.0142
#
#
#
# Elastic Compliance Matrix: (Units=1/GPa)
#
#
# Indices 1 2 3 4 5 6 
#
# 1 0.015922 -0.007405 -0.002820 0.000000 0.000000 0.000000
# 2 -0.007405 0.015922 -0.002821 0.000000 0.000000 0.000000
# 3 -0.002820 -0.002821 0.011394 0.000000 0.000000 0.000000
# 4 0.000000 0.000000 0.000000 0.028773 0.000000 0.000000
# 5 0.000000 0.000000 0.000000 0.000000 0.028773 0.000000
# 6 0.000000 0.000000 0.000000 0.000000 0.000000 0.030290
#
#
# Mechanical properties :
#
#
# Convention : Reuss Voigt Hill
#
# Bulk Modulus (GPa) = 58.32188 58.32240 58.32214
# Shear Modulus (GPa) = 30.69672 31.83574 31.26623
#
# Velocity S-wave (km/s) = 3.81872 3.88893 3.85398
# Velocity P-wave (km/s) = 6.86656 6.91891 6.89279
#
# Compressibility (1/GPa) = 0.01714622
#
# Stress axis : x y z
#
# Youngs Moduli (GPa) = 62.80472 62.80438 87.76177
#
# Poissons Ratio (x) = 0.46509 0.24753
# Poissons Ratio (y) = 0.46509 0.24754
# Poissons Ratio (z) = 0.17714 0.17715
#
# Static dielectric constant tensor:
#      x y z
#    x 1.849010 0.000000 0.000000 
#    y 0.000000 1.849020 0.000000 
#    z 0.000000 0.000000 1.800630 
# 
# From -- ./inp_files/7861.got.cif
#   From: 2010.05.17/outbox.cif.g08.bks.cpg/sg91_4_cif.got.tgz:7861.got - 2010.06.03 19:20:03.
