data_PCOD9548578
_publ_section_title
;
Structure prediction by ZEFSAII (Michael W. Deem and Ramdas Pophale) SiO2 
 PCOD9548578
Probable space group: P 41 2 2
;
_chemical_formula_sum "Si O2"
_cell_formula_units_Z 32
_cell_length_a 8.114786
_cell_length_b 8.114786
_cell_length_c 19.766216
_cell_angle_alpha 90.000000
_cell_angle_beta 90.000000
_cell_angle_gamma 90.000000
_cell_volume 1301.600418
_symmetry_space_group_name_H-M "P 41 2 2"
_symmetry_group_IT_number 91
_symmetry_cell_setting 'tetragonal'
loop_
_space_group_symop_operation_xyz
x,y,z
-y,x,1/4+z
-x,-y,1/2+z
y,-x,3/4+z
x,-y,1/2-z
-x,y,-z
y,x,3/4-z
-y,-x,1/4-z
loop_
_atom_site_type_symbol
_atom_site_label
_atom_site_fract_x
_atom_site_fract_y
_atom_site_fract_z
Si Si1 0.327977 0.672024 0.625000
Si Si2 0.500000 0.507700 0.000000
Si Si3 0.368039 0.834682 0.052518
Si Si4 0.094834 0.089214 0.066698
Si Si5 0.572035 0.038275 0.327929
O O1 0.419730 0.601354 0.558512
O O2 0.135808 0.630605 0.611294
O O3 0.625118 0.641555 0.966026
O O4 0.204003 0.936626 0.043780
O O5 0.428442 0.886649 0.126630
O O6 0.500000 0.908032 0.000000
O O7 0.162635 0.269687 0.086998
O O8 0.980326 0.019675 0.125000
O O9 0.000000 0.140706 0.000000
O O10 0.524289 0.000000 0.250000
#
# Coordination Sequence:
#
# PCOD9548578 Si02
#       5
#     4   4   8   8   8
#     4  12  28  48  80 108 162 208 264 346 390 510
#     4  10  30  46  78 114 156 206 266 318 430 452
#     4  10  26  45  72 108 157 197 261 317 388 478
#     4  11  24  44  73 104 148 196 256 309 380 460
#     4  11  27  45  75 113 149 207 264 318 407 465
#
# _framework density 24.585117
#
# number of rings (size 3 to 8) (size 9 to 14) (size 15 to 20)
#    0.750    0.500    1.250    1.500   14.000    1.000 
#    0.000    0.000    0.000    0.000    0.000    0.000 
#    0.000    0.000    0.000    0.000    0.000    0.000 
#
# Total GULP energy -178806.815535 kJ/mol
# GULP energy per Si atom -5587.712985 kJ/mol
# Density = 2.452916 g / cm^3
# Si number density = 24.585117 Si / 1000 Ang^3
#
#
#
# Elastic Constant Matrix: (Units=GPa)
#
#
# Indices 1 2 3 4 5 6 
#
# 1 44.1634 16.6920 17.2074 0.0000 0.0000 0.0000
# 2 16.6920 44.1646 17.2077 0.0000 0.0000 0.0000
# 3 17.2074 17.2077 130.9123 0.0000 0.0000 0.0000
# 4 0.0000 0.0000 0.0000 35.4290 0.0000 0.0000
# 5 0.0000 0.0000 0.0000 0.0000 35.4288 0.0000
# 6 0.0000 0.0000 0.0000 0.0000 0.0000 36.2910
#
#
#
# Elastic Compliance Matrix: (Units=1/GPa)
#
#
# Indices 1 2 3 4 5 6 
#
# 1 0.027077 -0.009324 -0.002333 0.000000 0.000000 0.000000
# 2 -0.009324 0.027076 -0.002333 0.000000 0.000000 0.000000
# 3 -0.002333 -0.002333 0.008252 0.000000 0.000000 0.000000
# 4 0.000000 0.000000 0.000000 0.028225 0.000000 0.000000
# 5 0.000000 0.000000 0.000000 0.000000 0.028226 0.000000
# 6 0.000000 0.000000 0.000000 0.000000 0.000000 0.027555
#
#
# Mechanical properties :
#
#
# Convention : Reuss Voigt Hill
#
# Bulk Modulus (GPa) = 29.05096 35.71717 32.38407
# Shear Modulus (GPa) = 26.90095 32.63866 29.76981
#
# Velocity S-wave (km/s) = 3.31145 3.64755 3.48356
# Velocity P-wave (km/s) = 5.14423 5.68322 5.42043
#
# Compressibility (1/GPa) = 0.03442227
#
# Stress axis : x y z
#
# Youngs Moduli (GPa) = 36.93227 36.93326 121.18112
#
# Poissons Ratio (x) = 0.34438 0.28276
# Poissons Ratio (y) = 0.34437 0.28276
# Poissons Ratio (z) = 0.08618 0.08618
#
# Static dielectric constant tensor:
#      x y z
#    x 2.059090 0.000000 0.000000 
#    y 0.000000 2.059090 0.000000 
#    z 0.000000 0.000000 1.936010 
# 
# From -- ./inp_files/17161.got.cif
#   From: 2010.05.17/outbox.cif.g08.bks.cpg/sg91_9_cif.got.tgz:17161.got - 2010.06.03 19:20:03.
