data_PCOD9548483
_publ_section_title
;
Structure prediction by ZEFSAII (Michael W. Deem and Ramdas Pophale) SiO2 
 PCOD9548483
Probable space group: P 41 2 2
;
_chemical_formula_sum "Si O2"
_cell_formula_units_Z 40
_cell_length_a 8.427296
_cell_length_b 8.427296
_cell_length_c 25.504244
_cell_angle_alpha 90.000000
_cell_angle_beta 90.000000
_cell_angle_gamma 90.000000
_cell_volume 1811.294012
_symmetry_space_group_name_H-M "P 41 2 2"
_symmetry_group_IT_number 91
_symmetry_cell_setting 'tetragonal'
loop_
_space_group_symop_operation_xyz
x,y,z
-y,x,1/4+z
-x,-y,1/2+z
y,-x,3/4+z
x,-y,1/2-z
-x,y,-z
y,x,3/4-z
-y,-x,1/4-z
loop_
_atom_site_type_symbol
_atom_site_label
_atom_site_fract_x
_atom_site_fract_y
_atom_site_fract_z
Si Si1 0.322542 0.178874 0.228185
Si Si2 0.995449 0.421354 0.915056
Si Si3 0.509551 0.339815 0.675185
Si Si4 0.249794 0.500000 0.750000
Si Si5 0.813810 0.000000 0.250000
Si Si6 0.261052 0.981906 0.559047
O O1 0.377090 0.295778 0.274885
O O2 0.170139 0.256561 0.201167
O O3 0.284579 0.000000 0.250000
O O4 0.467135 0.133208 0.188588
O O5 0.836302 0.509392 0.898072
O O6 0.051714 0.314978 0.867665
O O7 0.920029 0.312542 0.961097
O O8 0.554830 0.445171 0.625000
O O9 0.360761 0.425289 0.704325
O O10 0.129130 0.370950 0.773299
O O11 0.922687 0.090752 0.209488
#
# Coordination Sequence:
#
# PCOD9548483 Si02
#       6
#     8   8   8   4   4   8
#     4  10  23  50  76 105 154 194 255 317 372 454
#     4  11  24  47  74 103 149 200 250 313 388 447
#     4  11  26  46  74 104 149 203 244 308 379 460
#     4  12  28  46  70 112 158 182 256 310 384 456
#     4  12  22  50  68 106 146 198 246 316 374 452
#     4  12  27  43  76 111 145 201 253 311 383 457
#
# _framework density 22.083656999999999
#
# number of rings (size 3 to 8) (size 9 to 14) (size 15 to 20)
#    0.000    0.800    6.000    0.600    8.400    1.600 
#    3.600    0.000    0.000    0.000    0.000    0.000 
#    0.000    0.000    0.000    0.000    0.000    0.000 
#
# Total GULP energy -222757.845766 kJ/mol
# GULP energy per Si atom -5568.946144 kJ/mol
# Density = 2.203339 g / cm^3
# Si number density = 22.083657 Si / 1000 Ang^3
#
#
#
# Elastic Constant Matrix: (Units=GPa)
#
#
# Indices 1 2 3 4 5 6 
#
# 1 86.3091 50.2753 65.3808 0.0000 0.0000 0.0000
# 2 50.2753 86.3086 65.3805 0.0000 0.0000 0.0000
# 3 65.3808 65.3805 149.2934 0.0000 0.0000 0.0000
# 4 0.0000 0.0000 0.0000 42.9835 0.0000 0.0000
# 5 0.0000 0.0000 0.0000 0.0000 42.9838 0.0000
# 6 0.0000 0.0000 0.0000 0.0000 0.0000 39.9958
#
#
#
# Elastic Compliance Matrix: (Units=1/GPa)
#
#
# Indices 1 2 3 4 5 6 
#
# 1 0.020180 -0.007572 -0.005521 0.000000 0.000000 0.000000
# 2 -0.007572 0.020180 -0.005521 0.000000 0.000000 0.000000
# 3 -0.005521 -0.005521 0.011534 0.000000 0.000000 0.000000
# 4 0.000000 0.000000 0.000000 0.023265 0.000000 0.000000
# 5 0.000000 0.000000 0.000000 0.000000 0.023265 0.000000
# 6 0.000000 0.000000 0.000000 0.000000 0.000000 0.025003
#
#
# Mechanical properties :
#
#
# Convention : Reuss Voigt Hill
#
# Bulk Modulus (GPa) = 68.19444 75.99825 72.09634
# Shear Modulus (GPa) = 30.20373 34.58423 32.39398
#
# Velocity S-wave (km/s) = 3.70225 3.96163 3.83414
# Velocity P-wave (km/s) = 7.01588 7.44410 7.23316
#
# Compressibility (1/GPa) = 0.01466395
#
# Stress axis : x y z
#
# Youngs Moduli (GPa) = 49.55509 49.55490 86.70001
#
# Poissons Ratio (x) = 0.37525 0.47869
# Poissons Ratio (y) = 0.37525 0.47868
# Poissons Ratio (z) = 0.27360 0.27360
#
# Static dielectric constant tensor:
#      x y z
#    x 1.676570 0.000000 0.000000 
#    y 0.000000 1.676560 0.000000 
#    z 0.000000 0.000000 1.803230 
# 
# From -- ./inp_files/12805.got.cif
#   From: 2010.05.17/outbox.cif.g08.bks.cpg/sg91_7_cif.got.tgz:12805.got - 2010.06.03 19:20:03.
