data_PCOD9548928
_publ_section_title
;
Structure prediction by ZEFSAII (Michael W. Deem and Ramdas Pophale) SiO2 
 PCOD9548928
Probable space group: P 41 21 2
;
_chemical_formula_sum "Si O2"
_cell_formula_units_Z 56
_cell_length_a 11.432432
_cell_length_b 11.432432
_cell_length_c 17.336512
_cell_angle_alpha 90.000000
_cell_angle_beta 90.000000
_cell_angle_gamma 90.000000
_cell_volume 2265.890812
_symmetry_space_group_name_H-M "P 41 21 2"
_symmetry_group_IT_number 92
_symmetry_cell_setting 'tetragonal'
loop_
_space_group_symop_operation_xyz
x,y,z
1/2-y,1/2+x,1/4+z
-x,-y,1/2+z
1/2+y,1/2-x,3/4+z
1/2+x,1/2-y,3/4-z
1/2-x,1/2+y,1/4-z
y,x,-z
-y,-x,1/2-z
loop_
_atom_site_type_symbol
_atom_site_label
_atom_site_fract_x
_atom_site_fract_y
_atom_site_fract_z
Si Si1 0.495457 0.047789 0.873772
Si Si2 0.338492 0.711778 0.579728
Si Si3 0.834416 0.494670 0.022235
Si Si4 0.232450 0.612427 0.309802
Si Si5 0.110642 0.810659 0.641315
Si Si6 0.047533 0.970320 0.341439
Si Si7 0.759025 0.896175 0.659240
O O1 0.407060 0.115193 0.933621
O O2 0.601212 0.136720 0.866094
O O3 0.425741 0.041968 0.794725
O O4 0.527502 0.922695 0.908355
O O5 0.254333 0.602047 0.555689
O O6 0.245677 0.795689 0.620534
O O7 0.454500 0.657840 0.620530
O O8 0.387873 0.762294 0.500005
O O9 0.757782 0.584152 0.970859
O O10 0.311352 0.688649 0.250000
O O11 0.259664 0.473913 0.322438
O O12 0.280566 0.669009 0.388799
O O13 0.059615 0.939810 0.648726
O O14 0.056006 0.943995 0.250000
O O15 0.000354 0.845418 0.371148
#
# Coordination Sequence:
#
# PCOD9548928 Si02
#       7
#     8   8   8   8   8   8   8
#     4  11  22  36  58  86 122 146 194 242 294 343
#     4  11  19  37  59  81 113 149 203 229 282 354
#     4  11  19  36  59  86 111 157 190 238 287 351
#     4  10  19  33  56  82 107 151 186 229 297 352
#     4  10  20  35  59  84 112 150 196 240 287 342
#     4   9  18  35  58  77 106 150 189 231 278 346
#     4  10  21  35  54  84 114 147 188 236 291 347
#
# _framework density 24.714341999999998
#
# number of rings (size 3 to 8) (size 9 to 14) (size 15 to 20)
#    0.000    1.714    8.571    0.857    0.000    2.857 
#    0.000    0.000    0.000    3.429    0.000    0.000 
#    0.000    0.000    0.000    0.000    0.000    0.000 
#
# Total GULP energy -312291.599585 kJ/mol
# GULP energy per Si atom -5576.635707 kJ/mol
# Density = 2.465809 g / cm^3
# Si number density = 24.714342 Si / 1000 Ang^3
#
#
#
# Elastic Constant Matrix: (Units=GPa)
#
#
# Indices 1 2 3 4 5 6 
#
# 1 73.2544 49.8973 10.7395 0.0000 0.0000 0.0000
# 2 49.8973 73.2541 10.7392 0.0000 0.0000 0.0000
# 3 10.7395 10.7392 48.6672 0.0000 0.0000 0.0000
# 4 0.0000 0.0000 0.0000 28.8061 0.0000 0.0000
# 5 0.0000 0.0000 0.0000 0.0000 28.8062 0.0000
# 6 0.0000 0.0000 0.0000 0.0000 0.0000 44.8757
#
#
#
# Elastic Compliance Matrix: (Units=1/GPa)
#
#
# Indices 1 2 3 4 5 6 
#
# 1 0.025629 -0.017184 -0.001864 0.000000 0.000000 0.000000
# 2 -0.017184 0.025629 -0.001863 0.000000 0.000000 0.000000
# 3 -0.001864 -0.001863 0.021370 0.000000 0.000000 0.000000
# 4 0.000000 0.000000 0.000000 0.034715 0.000000 0.000000
# 5 0.000000 0.000000 0.000000 0.000000 0.034715 0.000000
# 6 0.000000 0.000000 0.000000 0.000000 0.000000 0.022284
#
#
# Mechanical properties :
#
#
# Convention : Reuss Voigt Hill
#
# Bulk Modulus (GPa) = 32.46111 37.54752 35.00431
# Shear Modulus (GPa) = 23.10172 28.75092 25.92632
#
# Velocity S-wave (km/s) = 3.06068 3.41446 3.24240
# Velocity P-wave (km/s) = 5.06492 5.54710 5.31148
#
# Compressibility (1/GPa) = 0.03080609
#
# Stress axis : x y z
#
# Youngs Moduli (GPa) = 39.01768 39.01761 46.79419
#
# Poissons Ratio (x) = 0.67049 0.08721
# Poissons Ratio (y) = 0.67049 0.08720
# Poissons Ratio (z) = 0.07272 0.07271
#
# Static dielectric constant tensor:
#      x y z
#    x 2.010680 0.000000 0.000000 
#    y 0.000000 2.010680 0.000000 
#    z 0.000000 0.000000 2.047570 
# 
# From -- ./inp_files/3583.got.cif
#   From: 2010.05.17/outbox.cif.g08.bks.cpg/sg92_2_cif.got.tgz:3583.got - 2010.06.03 19:35:17.
