data_PCOD9548805
_publ_section_title
;
Structure prediction by ZEFSAII (Michael W. Deem and Ramdas Pophale) SiO2 
 PCOD9548805
Probable space group: P 41 2 2
;
_chemical_formula_sum "Si O2"
_cell_formula_units_Z 56
_cell_length_a 14.625146
_cell_length_b 14.625146
_cell_length_c 11.582735
_cell_angle_alpha 90.000000
_cell_angle_beta 90.000000
_cell_angle_gamma 90.000000
_cell_volume 2477.487893
_symmetry_space_group_name_H-M "P 41 2 2"
_symmetry_group_IT_number 91
_symmetry_cell_setting 'tetragonal'
loop_
_space_group_symop_operation_xyz
x,y,z
-y,x,1/4+z
-x,-y,1/2+z
y,-x,3/4+z
x,-y,1/2-z
-x,y,-z
y,x,3/4-z
-y,-x,1/4-z
loop_
_atom_site_type_symbol
_atom_site_label
_atom_site_fract_x
_atom_site_fract_y
_atom_site_fract_z
Si Si1 0.678364 0.468003 0.603134
Si Si2 0.238705 0.281782 0.751653
Si Si3 0.750746 0.033829 0.996700
Si Si4 0.681822 0.000000 0.750000
Si Si5 0.089959 0.319081 0.073804
Si Si6 0.565506 0.355802 0.892022
Si Si7 0.944755 0.944755 0.375000
Si Si8 0.476184 0.886982 0.125435
O O1 0.624798 0.375203 0.625000
O O2 0.618236 0.552729 0.646163
O O3 0.681286 0.489164 0.466576
O O4 0.780556 0.457217 0.644706
O O5 0.286666 0.286666 0.875000
O O6 0.131209 0.296864 0.770252
O O7 0.260007 0.179647 0.704536
O O8 0.281904 0.357805 0.671703
O O9 0.746781 0.028369 0.857334
O O10 0.844281 0.039862 0.070263
O O11 0.700836 0.944599 0.046744
O O12 0.608699 0.928007 0.803920
O O13 0.108256 0.426765 0.057568
O O14 0.000000 0.295209 0.000000
O O15 0.500000 0.373934 0.000000
O O16 0.000000 0.957313 0.500000
O O17 0.500000 0.930861 0.000000
#
# Coordination Sequence:
#
# PCOD9548805 Si02
#       8
#     8   8   8   4   8   8   4   8
#     4  12  25  44  69  95 138 191 246 303 372 448
#     4  12  24  43  70 105 143 191 249 304 391 470
#     4  12  25  49  74 112 157 196 258 325 399 491
#     4  12  28  46  74 114 154 202 258 332 404 482
#     4  12  23  44  79 104 145 201 246 319 387 466
#     4  12  25  42  64 101 139 187 244 310 366 441
#     4  12  28  54  86 122 156 208 264 330 422 508
#     4  12  25  47  69 106 148 194 256 313 387 465
#
# _framework density 22.603541
#
# number of rings (size 3 to 8) (size 9 to 14) (size 15 to 20)
#    0.000    0.000    5.714    5.571    1.000    0.000 
#    2.571    0.000    0.000    0.000    0.000    0.000 
#    0.000    0.000    0.000    0.000    0.000    0.000 
#
# Total GULP energy -312733.365320 kJ/mol
# GULP energy per Si atom -5584.524381 kJ/mol
# Density = 2.255209 g / cm^3
# Si number density = 22.603541 Si / 1000 Ang^3
#
#
#
# Elastic Constant Matrix: (Units=GPa)
#
#
# Indices 1 2 3 4 5 6 
#
# 1 94.4132 33.9165 21.0766 0.0000 0.0000 0.0000
# 2 33.9165 94.4139 21.0770 0.0000 0.0000 0.0000
# 3 21.0766 21.0770 145.4660 0.0000 0.0000 0.0000
# 4 0.0000 0.0000 0.0000 29.4738 0.0000 0.0000
# 5 0.0000 0.0000 0.0000 0.0000 29.4726 0.0000
# 6 0.0000 0.0000 0.0000 0.0000 0.0000 24.3113
#
#
#
# Elastic Compliance Matrix: (Units=1/GPa)
#
#
# Indices 1 2 3 4 5 6 
#
# 1 0.012356 -0.004174 -0.001185 0.000000 0.000000 0.000000
# 2 -0.004174 0.012356 -0.001185 0.000000 0.000000 0.000000
# 3 -0.001185 -0.001185 0.007218 0.000000 0.000000 0.000000
# 4 0.000000 0.000000 0.000000 0.033928 0.000000 0.000000
# 5 0.000000 0.000000 0.000000 0.000000 0.033930 0.000000
# 6 0.000000 0.000000 0.000000 0.000000 0.000000 0.041133
#
#
# Mechanical properties :
#
#
# Convention : Reuss Voigt Hill
#
# Bulk Modulus (GPa) = 53.07940 54.04816 53.56378
# Shear Modulus (GPa) = 31.19334 33.86642 32.52988
#
# Velocity S-wave (km/s) = 3.71889 3.87496 3.79773
# Velocity P-wave (km/s) = 6.47873 6.63202 6.55582
#
# Compressibility (1/GPa) = 0.01883970
#
# Stress axis : x y z
#
# Youngs Moduli (GPa) = 80.93360 80.93407 138.54279
#
# Poissons Ratio (x) = 0.33782 0.16424
# Poissons Ratio (y) = 0.33781 0.16424
# Poissons Ratio (z) = 0.09594 0.09595
#
# Static dielectric constant tensor:
#      x y z
#    x 1.839820 0.000000 0.000000 
#    y 0.000000 1.839810 0.000000 
#    z 0.000000 0.000000 1.893930 
# 
# From -- ./inp_files/10868.got.cif
#   From: 2010.05.17/outbox.cif.g08.bks.cpg/sg91_6_cif.got.tgz:10868.got - 2010.06.03 19:20:03.
