data_PCOD9548900
_publ_section_title
;
Structure prediction by ZEFSAII (Michael W. Deem and Ramdas Pophale) SiO2 
 PCOD9548900
Probable space group: P 41 21 2
;
_chemical_formula_sum "Si O2"
_cell_formula_units_Z 56
_cell_length_a 15.314422
_cell_length_b 15.314422
_cell_length_c 11.995032
_cell_angle_alpha 90.000000
_cell_angle_beta 90.000000
_cell_angle_gamma 90.000000
_cell_volume 2813.213102
_symmetry_space_group_name_H-M "P 41 21 2"
_symmetry_group_IT_number 92
_symmetry_cell_setting 'tetragonal'
loop_
_space_group_symop_operation_xyz
x,y,z
1/2-y,1/2+x,1/4+z
-x,-y,1/2+z
1/2+y,1/2-x,3/4+z
1/2+x,1/2-y,3/4-z
1/2-x,1/2+y,1/4-z
y,x,-z
-y,-x,1/2-z
loop_
_atom_site_type_symbol
_atom_site_label
_atom_site_fract_x
_atom_site_fract_y
_atom_site_fract_z
Si Si1 0.634100 0.832641 0.373485
Si Si2 0.865104 0.986832 0.449181
Si Si3 0.695069 0.935432 0.578557
Si Si4 0.222069 0.651326 0.937171
Si Si5 0.783687 0.917164 0.234983
Si Si6 0.178751 0.851575 0.473944
Si Si7 0.454544 0.694147 0.741765
O O1 0.642723 0.869086 0.498977
O O2 0.535536 0.835584 0.329135
O O3 0.693569 0.897014 0.298720
O O4 0.670448 0.732654 0.359092
O O5 0.956563 0.956563 0.500000
O O6 0.792747 0.938395 0.526583
O O7 0.849122 0.959460 0.323118
O O8 0.849756 0.088675 0.459593
O O9 0.695586 0.904886 0.705653
O O10 0.321809 0.680175 0.956289
O O11 0.230059 0.598611 0.822749
O O12 0.166531 0.739049 0.946746
O O13 0.778262 0.968567 0.119850
O O14 0.183493 0.951652 0.431225
O O15 0.393305 0.606696 0.750000
#
# Coordination Sequence:
#
# PCOD9548900 Si02
#       7
#     8   8   8   8   8   8   8
#     4   9  21  39  63  93 121 157 216 257 325 375
#     4  10  18  36  62  94 124 151 206 265 322 369
#     4  10  20  38  63  90 122 160 203 265 311 377
#     4  10  21  39  58  85 125 165 197 251 317 371
#     4   9  19  39  60  85 123 169 195 254 319 377
#     4  10  22  38  61  96 116 167 214 258 318 397
#     4  10  22  42  59  86 134 166 207 257 327 385
#
# _framework density 19.906065999999999
#
# number of rings (size 3 to 8) (size 9 to 14) (size 15 to 20)
#    0.000    2.286    1.429    0.429    2.000    0.571 
#   20.571    1.429    0.000    0.000    0.000    0.000 
#    0.000    0.000    0.000    0.000    0.000    0.000 
#
# Total GULP energy -312147.466707 kJ/mol
# GULP energy per Si atom -5574.061905 kJ/mol
# Density = 1.986076 g / cm^3
# Si number density = 19.906066 Si / 1000 Ang^3
#
#
#
# Elastic Constant Matrix: (Units=GPa)
#
#
# Indices 1 2 3 4 5 6 
#
# 1 53.0392 56.0561 25.5893 0.0000 0.0000 0.0000
# 2 56.0561 53.0398 25.5894 0.0000 0.0000 0.0000
# 3 25.5893 25.5894 103.7979 0.0000 0.0000 0.0000
# 4 0.0000 0.0000 0.0000 5.4583 0.0000 0.0000
# 5 0.0000 0.0000 0.0000 0.0000 5.4582 0.0000
# 6 0.0000 0.0000 0.0000 0.0000 0.0000 21.3073
#
#
#
# Elastic Compliance Matrix: (Units=1/GPa)
#
#
# Indices 1 2 3 4 5 6 
#
# 1 -0.160572 0.170936 -0.002555 0.000000 0.000000 0.000000
# 2 0.170936 -0.160570 -0.002555 0.000000 0.000000 0.000000
# 3 -0.002555 -0.002555 0.010894 0.000000 0.000000 0.000000
# 4 0.000000 0.000000 0.000000 0.183208 0.000000 0.000000
# 5 0.000000 0.000000 0.000000 0.000000 0.183211 0.000000
# 6 0.000000 0.000000 0.000000 0.000000 0.000000 0.046932
#
#
# Mechanical properties :
#
#
# Convention : Reuss Voigt Hill
#
# Bulk Modulus (GPa) = 46.72272 47.14963 46.93617
# Shear Modulus (GPa) = -22.58226 13.28756 -4.64735
#
# Velocity S-wave (km/s) = -3.37180 2.58643 -1.52961
# Velocity P-wave (km/s) = 2.89203 5.71463 4.52884
#
# Compressibility (1/GPa) = 0.02140286
#
# Stress axis : x y z
#
# Youngs Moduli (GPa) = -6.22774 -6.22781 91.79347
#
# Poissons Ratio (x) = 1.06456 0.23455
# Poissons Ratio (y) = 1.06454 0.23456
# Poissons Ratio (z) = -0.01591 -0.01591
#
# Static dielectric constant tensor:
#      x y z
#    x 1.723030 0.000000 0.000000 
#    y 0.000000 1.723030 0.000000 
#    z 0.000000 0.000000 1.717450 
# 
# From -- ./inp_files/2280.got.cif
#   From: 2010.05.17/outbox.cif.g08.bks.cpg/sg92_2_cif.got.tgz:2280.got - 2010.06.03 19:35:17.
