data_PCOD9548645
_publ_section_title
;
Structure prediction by ZEFSAII (Michael W. Deem and Ramdas Pophale) SiO2 
 PCOD9548645
Probable space group: P 41 2 2
;
_chemical_formula_sum "Si O2"
_cell_formula_units_Z 56
_cell_length_a 14.768706
_cell_length_b 14.768706
_cell_length_c 11.834521
_cell_angle_alpha 90.000000
_cell_angle_beta 90.000000
_cell_angle_gamma 90.000000
_cell_volume 2581.282724
_symmetry_space_group_name_H-M "P 41 2 2"
_symmetry_group_IT_number 91
_symmetry_cell_setting 'tetragonal'
loop_
_space_group_symop_operation_xyz
x,y,z
-y,x,1/4+z
-x,-y,1/2+z
y,-x,3/4+z
x,-y,1/2-z
-x,y,-z
y,x,3/4-z
-y,-x,1/4-z
loop_
_atom_site_type_symbol
_atom_site_label
_atom_site_fract_x
_atom_site_fract_y
_atom_site_fract_z
Si Si1 0.631617 0.097549 0.306287
Si Si2 0.855175 0.325719 0.310269
Si Si3 0.398394 0.956235 0.044125
Si Si4 0.797914 0.673780 0.948357
Si Si5 0.341987 0.393867 0.750155
Si Si6 0.512523 0.732792 0.136652
Si Si7 0.785613 0.082977 0.158858
O O1 0.659626 0.069004 0.432253
O O2 0.556927 0.174068 0.317348
O O3 0.714163 0.140019 0.235539
O O4 0.603822 0.000000 0.250000
O O5 0.825869 0.286516 0.431039
O O6 0.763527 0.375252 0.274185
O O7 0.897589 0.261268 0.214124
O O8 0.940152 0.391949 0.331151
O O9 0.364872 0.887569 0.138186
O O10 0.500000 0.941909 0.000000
O O11 0.749621 0.749621 0.875000
O O12 0.730609 0.585915 0.946797
O O13 0.359518 0.500000 0.750000
O O14 0.358485 0.358485 0.875000
O O15 0.414429 0.343240 0.669567
O O16 0.500000 0.735312 0.000000
O O17 0.884445 0.115556 0.125000
O O18 0.792413 0.000000 0.250000
#
# Coordination Sequence:
#
# PCOD9548645 Si02
#       7
#     8   8   8   8   8   8   8
#     4  11  21  40  71 105 138 176 240 303 370 429
#     4  12  25  43  71 105 141 185 243 312 377 437
#     4  12  24  43  69 101 142 187 234 308 379 440
#     4  12  27  43  66 106 149 201 247 298 372 451
#     4  12  28  48  69 103 147 197 257 316 362 426
#     4  12  24  46  71  99 144 202 251 304 372 444
#     4  11  24  43  73 105 137 182 235 294 358 439
#
# _framework density 21.69464
#
# number of rings (size 3 to 8) (size 9 to 14) (size 15 to 20)
#    0.000    0.286    5.714    4.714    4.000    1.143 
#    0.000    0.714    0.000    2.571    0.000    0.000 
#    0.000    0.000    0.000    0.000    0.000    0.000 
#
# Total GULP energy -312137.177791 kJ/mol
# GULP energy per Si atom -5573.878175 kJ/mol
# Density = 2.164526 g / cm^3
# Si number density = 21.694640 Si / 1000 Ang^3
#
#
#
# Elastic Constant Matrix: (Units=GPa)
#
#
# Indices 1 2 3 4 5 6 
#
# 1 88.6655 82.0063 55.7902 0.0000 0.0000 0.0000
# 2 82.0063 88.6724 55.7914 0.0000 0.0000 0.0000
# 3 55.7902 55.7914 131.7304 0.0000 0.0000 0.0000
# 4 0.0000 0.0000 0.0000 18.9898 0.0000 0.0000
# 5 0.0000 0.0000 0.0000 0.0000 18.9934 0.0000
# 6 0.0000 0.0000 0.0000 0.0000 0.0000 1.1798
#
#
#
# Elastic Compliance Matrix: (Units=1/GPa)
#
#
# Indices 1 2 3 4 5 6 
#
# 1 0.079100 -0.070994 -0.003432 0.000000 0.000000 0.000000
# 2 -0.070994 0.079093 -0.003431 0.000000 0.000000 0.000000
# 3 -0.003432 -0.003431 0.010498 0.000000 0.000000 0.000000
# 4 0.000000 0.000000 0.000000 0.052660 0.000000 0.000000
# 5 0.000000 0.000000 0.000000 0.000000 0.052650 0.000000
# 6 0.000000 0.000000 0.000000 0.000000 0.000000 0.847621
#
#
# Mechanical properties :
#
#
# Convention : Reuss Voigt Hill
#
# Bulk Modulus (GPa) = 77.06155 77.36047 77.21101
# Shear Modulus (GPa) = 3.90119 15.53129 9.71624
#
# Velocity S-wave (km/s) = 1.34243 2.67854 2.11857
# Velocity P-wave (km/s) = 6.16449 6.73070 6.45381
#
# Compressibility (1/GPa) = 0.01297664
#
# Stress axis : x y z
#
# Youngs Moduli (GPa) = 12.64227 12.64341 95.25623
#
# Poissons Ratio (x) = 0.89760 0.32696
# Poissons Ratio (y) = 0.89752 0.32681
# Poissons Ratio (z) = 0.04339 0.04338
#
# Static dielectric constant tensor:
#      x y z
#    x 1.898960 0.000000 0.000000 
#    y 0.000000 1.898960 0.000000 
#    z 0.000000 0.000000 1.761170 
# 
# From -- ./inp_files/20322.got.cif
#   From: 2010.05.17/outbox.cif.g08.bks.cpg/sg91_11_cif.got.tgz:20322.got - 2010.06.03 19:20:03.
