data_PCOD9548285
_publ_section_title
;
Structure prediction by ZEFSAII (Michael W. Deem and Ramdas Pophale) SiO2 
 PCOD9548285
Probable space group: P 41 2 2
;
_chemical_formula_sum "Si O2"
_cell_formula_units_Z 56
_cell_length_a 15.720266
_cell_length_b 15.720266
_cell_length_c 11.744597
_cell_angle_alpha 90.000000
_cell_angle_beta 90.000000
_cell_angle_gamma 90.000000
_cell_volume 2902.404241
_symmetry_space_group_name_H-M "P 41 2 2"
_symmetry_group_IT_number 91
_symmetry_cell_setting 'tetragonal'
loop_
_space_group_symop_operation_xyz
x,y,z
-y,x,1/4+z
-x,-y,1/2+z
y,-x,3/4+z
x,-y,1/2-z
-x,y,-z
y,x,3/4-z
-y,-x,1/4-z
loop_
_atom_site_type_symbol
_atom_site_label
_atom_site_fract_x
_atom_site_fract_y
_atom_site_fract_z
Si Si1 0.984912 0.842005 0.872851
Si Si2 0.400986 0.814271 0.481493
Si Si3 0.153258 0.273947 0.301129
Si Si4 0.097588 0.401530 0.488618
Si Si5 0.906529 0.142589 0.007250
Si Si6 0.770778 0.718899 0.549734
Si Si7 0.402522 0.093396 0.789094
O O1 0.920872 0.920872 0.875000
O O2 0.939743 0.771603 0.792485
O O3 0.074283 0.879218 0.835053
O O4 0.000000 0.808369 0.000000
O O5 0.500000 0.784098 0.500000
O O6 0.384043 0.852721 0.356104
O O7 0.325324 0.743480 0.486725
O O8 0.395289 0.891028 0.574613
O O9 0.208321 0.208321 0.375000
O O10 0.139030 0.357312 0.378518
O O11 0.204653 0.283001 0.183968
O O12 0.094498 0.503282 0.486645
O O13 0.000000 0.373547 0.500000
O O14 0.906948 0.093053 0.125000
O O15 0.832240 0.210171 0.003834
O O16 0.000000 0.180101 0.000000
O O17 0.816625 0.635405 0.503165
O O18 0.368272 0.000000 0.750000
#
# Coordination Sequence:
#
# PCOD9548285 Si02
#       7
#     8   8   8   8   8   8   8
#     4  11  22  36  52  75 112 161 214 251 296 355
#     4  10  22  42  63  87 122 162 212 265 323 386
#     4  11  22  37  57  88 119 154 208 258 310 368
#     4  10  22  39  64  89 124 166 205 260 318 378
#     4  12  23  36  52  78 117 165 212 256 304 362
#     4  12  24  38  60  87 121 159 209 263 322 384
#     4  10  23  41  60  93 126 163 206 255 326 388
#
# _framework density 19.294350000000001
#
# number of rings (size 3 to 8) (size 9 to 14) (size 15 to 20)
#    0.000    1.143    1.429    6.429    4.000    0.571 
#    0.000    0.000    0.000    0.000    0.000    4.000 
#    0.000    0.000    0.000    0.000    0.000    0.000 
#
# Total GULP energy -312071.167146 kJ/mol
# GULP energy per Si atom -5572.699413 kJ/mol
# Density = 1.925044 g / cm^3
# Si number density = 19.294350 Si / 1000 Ang^3
#
#
#
# Elastic Constant Matrix: (Units=GPa)
#
#
# Indices 1 2 3 4 5 6 
#
# 1 141.8592 12.5936 24.8008 0.0000 0.0000 0.0000
# 2 12.5936 141.8610 24.8050 0.0000 0.0000 0.0000
# 3 24.8008 24.8050 80.8977 0.0000 0.0000 0.0000
# 4 0.0000 0.0000 0.0000 24.2393 0.0000 0.0000
# 5 0.0000 0.0000 0.0000 0.0000 24.2400 0.0000
# 6 0.0000 0.0000 0.0000 0.0000 0.0000 25.4906
#
#
#
# Elastic Compliance Matrix: (Units=1/GPa)
#
#
# Indices 1 2 3 4 5 6 
#
# 1 0.007459 -0.000277 -0.002202 0.000000 0.000000 0.000000
# 2 -0.000277 0.007459 -0.002202 0.000000 0.000000 0.000000
# 3 -0.002202 -0.002202 0.013711 0.000000 0.000000 0.000000
# 4 0.000000 0.000000 0.000000 0.041255 0.000000 0.000000
# 5 0.000000 0.000000 0.000000 0.000000 0.041254 0.000000
# 6 0.000000 0.000000 0.000000 0.000000 0.000000 0.039230
#
#
# Mechanical properties :
#
#
# Convention : Reuss Voigt Hill
#
# Bulk Modulus (GPa) = 51.90154 54.33518 53.11836
# Shear Modulus (GPa) = 30.09276 34.95520 32.52398
#
# Velocity S-wave (km/s) = 3.95355 4.26100 4.11015
# Velocity P-wave (km/s) = 6.91368 7.24089 7.07918
#
# Compressibility (1/GPa) = 0.01926725
#
# Stress axis : x y z
#
# Youngs Moduli (GPa) = 134.07066 134.06986 72.93174
#
# Poissons Ratio (x) = 0.03716 0.16057
# Poissons Ratio (y) = 0.03716 0.16060
# Poissons Ratio (z) = 0.29518 0.29523
#
# Static dielectric constant tensor:
#      x y z
#    x 1.733370 0.000000 0.000000 
#    y 0.000000 1.733370 0.000000 
#    z 0.000000 0.000000 1.754110 
# 
# From -- ./inp_files/3942.got.cif
#   From: 2010.05.17/outbox.cif.g08.bks.cpg/sg91_2_cif.got.tgz:3942.got - 2010.06.03 19:20:03.
