data_PCOD9548617
_publ_section_title
;
Structure prediction by ZEFSAII (Michael W. Deem and Ramdas Pophale) SiO2 
 PCOD9548617
Probable space group: P 41 2 2
;
_chemical_formula_sum "Si O2"
_cell_formula_units_Z 64
_cell_length_a 23.495868
_cell_length_b 23.495868
_cell_length_c 10.591692
_cell_angle_alpha 90.000000
_cell_angle_beta 90.000000
_cell_angle_gamma 90.000000
_cell_volume 5847.205139
_symmetry_space_group_name_H-M "P 41 2 2"
_symmetry_group_IT_number 91
_symmetry_cell_setting 'tetragonal'
loop_
_space_group_symop_operation_xyz
x,y,z
-y,x,1/4+z
-x,-y,1/2+z
y,-x,3/4+z
x,-y,1/2-z
-x,y,-z
y,x,3/4-z
-y,-x,1/4-z
loop_
_atom_site_type_symbol
_atom_site_label
_atom_site_fract_x
_atom_site_fract_y
_atom_site_fract_z
Si Si1 0.075784 0.430571 0.248788
Si Si2 0.568822 0.866888 0.261807
Si Si3 0.376420 0.426041 0.503960
Si Si4 0.254532 0.570560 0.894483
Si Si5 0.562830 0.619938 0.254243
Si Si6 0.430750 0.944302 0.500941
Si Si7 0.868994 0.430105 0.488025
Si Si8 0.743135 0.567728 0.397975
O O1 0.075523 0.500000 0.250000
O O2 0.107333 0.412042 0.376361
O O3 0.009854 0.412431 0.245990
O O4 0.108482 0.412551 0.122480
O O5 0.586578 0.908107 0.376455
O O6 0.499463 0.867592 0.261766
O O7 0.586743 0.802082 0.288702
O O8 0.399443 0.399443 0.375000
O O9 0.310326 0.411510 0.529437
O O10 0.381618 0.494481 0.498016
O O11 0.411025 0.404160 0.625659
O O12 0.254681 0.501379 0.894153
O O13 0.259070 0.587588 0.747493
O O14 0.194820 0.588977 0.954694
O O15 0.584039 0.584039 0.375000
O O16 0.581978 0.685110 0.279677
O O17 0.500000 0.944687 0.500000
O O18 0.412951 0.911587 0.374224
#
# Coordination Sequence:
#
# PCOD9548617 Si02
#       8
#     8   8   8   8   8   8   8   8
#     4   9  16  21  28  49  73  88 106 131 152 164
#     4   9  15  23  35  49  65  87 110 130 147 168
#     4  11  23  34  45  61  74  82  97 127 168 210
#     4   9  16  29  43  53  66  84 106 127 149 187
#     4  11  21  34  49  59  70  86 101 124 160 211
#     4   9  14  21  32  46  67  92 112 127 145 169
#     4   9  15  23  36  48  64  89 110 127 147 173
#     4   9  16  28  44  55  63  83 111 126 144 187
#
# _framework density 10.945399999999999
#
# number of rings (size 3 to 8) (size 9 to 14) (size 15 to 20)
#    0.000    2.500    2.500    1.500    0.000    5.500 
#    0.000    3.750    0.000    0.000    0.000    0.000 
#    0.000    0.000    0.000    0.000    0.000    0.000 
#
# Total GULP energy -356402.698159 kJ/mol
# GULP energy per Si atom -5568.792159 kJ/mol
# Density = 1.092049 g / cm^3
# Si number density = 10.945400 Si / 1000 Ang^3
#
#
#
# Elastic Constant Matrix: (Units=GPa)
#
#
# Indices 1 2 3 4 5 6 
#
# 1 62.3810 18.2992 43.1619 0.0000 0.0000 0.0000
# 2 18.2992 62.3810 43.1619 0.0000 0.0000 0.0000
# 3 43.1619 43.1619 119.6929 0.0000 0.0000 0.0000
# 4 0.0000 0.0000 0.0000 3.9177 0.0000 0.0000
# 5 0.0000 0.0000 0.0000 0.0000 3.9177 0.0000
# 6 0.0000 0.0000 0.0000 0.0000 0.0000 -0.3994
#
#
#
# Elastic Compliance Matrix: (Units=1/GPa)
#
#
# Indices 1 2 3 4 5 6 
#
# 1 0.021433 -0.001252 -0.007277 0.000000 0.000000 0.000000
# 2 -0.001252 0.021433 -0.007277 0.000000 0.000000 0.000000
# 3 -0.007277 -0.007277 0.013603 0.000000 0.000000 0.000000
# 4 0.000000 0.000000 0.000000 0.255251 0.000000 0.000000
# 5 0.000000 0.000000 0.000000 0.000000 0.255251 0.000000
# 6 0.000000 0.000000 0.000000 0.000000 0.000000 -2.503990
#
#
# Mechanical properties :
#
#
# Convention : Reuss Voigt Hill
#
# Bulk Modulus (GPa) = 40.23210 50.41124 45.32167
# Shear Modulus (GPa) = -2.63557 10.80934 4.08688
#
# Velocity S-wave (km/s) = -1.55343 3.14597 1.93442
# Velocity P-wave (km/s) = 5.79822 7.70410 6.81808
#
# Compressibility (1/GPa) = 0.02485577
#
# Stress axis : x y z
#
# Youngs Moduli (GPa) = 46.65684 46.65684 73.51179
#
# Poissons Ratio (x) = 0.05842 0.53498
# Poissons Ratio (y) = 0.05842 0.53498
# Poissons Ratio (z) = 0.33954 0.33954
#
# Static dielectric constant tensor:
#      x y z
#    x 1.337840 0.000000 0.000000 
#    y 0.000000 1.337840 0.000000 
#    z 0.000000 0.000000 1.361140 
# 
# From -- ./inp_files/4083.got.cif
#   From: 2010.05.17/outbox.cif.g08.bks.cpg/sg91_3_cif.got.tgz:4083.got - 2010.06.03 19:20:03.
