data_PCOD9548971
_publ_section_title
;
Structure prediction by ZEFSAII (Michael W. Deem and Ramdas Pophale) SiO2 
 PCOD9548971
Probable space group: P 41 21 2
;
_chemical_formula_sum "Si O2"
_cell_formula_units_Z 24
_cell_length_a 14.420100
_cell_length_b 14.420100
_cell_length_c 5.277559
_cell_angle_alpha 90.000000
_cell_angle_beta 90.000000
_cell_angle_gamma 90.000000
_cell_volume 1097.411840
_symmetry_space_group_name_H-M "P 41 21 2"
_symmetry_group_IT_number 92
_symmetry_cell_setting 'tetragonal'
loop_
_space_group_symop_operation_xyz
x,y,z
1/2-y,1/2+x,1/4+z
-x,-y,1/2+z
1/2+y,1/2-x,3/4+z
1/2+x,1/2-y,3/4-z
1/2-x,1/2+y,1/4-z
y,x,-z
-y,-x,1/2-z
loop_
_atom_site_type_symbol
_atom_site_label
_atom_site_fract_x
_atom_site_fract_y
_atom_site_fract_z
Si Si1 0.351113 0.505067 0.669381
Si Si2 0.048843 0.761918 0.422758
Si Si3 0.862868 0.724976 0.644568
O O1 0.447124 0.552877 0.750000
O O2 0.307782 0.446999 0.897545
O O3 0.277751 0.590303 0.629364
O O4 0.341410 0.460609 0.389217
O O5 0.135459 0.695722 0.465248
O O6 0.952315 0.706442 0.465130
O O7 0.796932 0.796932 0.500000
#
# Coordination Sequence:
#
# PCOD9548971 Si02
#       3
#     8   8   8
#     4  10  19  39  57  85 119 165 198 249 302 366
#     4  10  22  34  61  90 120 161 204 252 309 374
#     4  10  22  40  62  89 125 162 208 251 319 371
#
# _framework density 21.86964
#
# number of rings (size 3 to 8) (size 9 to 14) (size 15 to 20)
#    2.000    0.000    3.333    1.000    4.667    0.000 
#    6.000    0.000    0.000    6.000    0.000    0.000 
#    0.000    0.000    0.000    0.000    0.000    0.000 
#
# Total GULP energy -133892.087276 kJ/mol
# GULP energy per Si atom -5578.836970 kJ/mol
# Density = 2.181986 g / cm^3
# Si number density = 21.869640 Si / 1000 Ang^3
#
#
#
# Elastic Constant Matrix: (Units=GPa)
#
#
# Indices 1 2 3 4 5 6 
#
# 1 67.7158 43.6358 16.4143 0.0000 0.0000 0.0000
# 2 43.6358 67.7152 16.4139 0.0000 0.0000 0.0000
# 3 16.4143 16.4139 121.1085 0.0000 0.0000 0.0000
# 4 0.0000 0.0000 0.0000 37.3686 0.0000 0.0000
# 5 0.0000 0.0000 0.0000 0.0000 37.3682 0.0000
# 6 0.0000 0.0000 0.0000 0.0000 0.0000 46.5359
#
#
#
# Elastic Compliance Matrix: (Units=1/GPa)
#
#
# Indices 1 2 3 4 5 6 
#
# 1 0.025442 -0.016087 -0.001268 0.000000 0.000000 0.000000
# 2 -0.016087 0.025442 -0.001268 0.000000 0.000000 0.000000
# 3 -0.001268 -0.001268 0.008601 0.000000 0.000000 0.000000
# 4 0.000000 0.000000 0.000000 0.026760 0.000000 0.000000
# 5 0.000000 0.000000 0.000000 0.000000 0.026761 0.000000
# 6 0.000000 0.000000 0.000000 0.000000 0.000000 0.021489
#
#
# Mechanical properties :
#
#
# Convention : Reuss Voigt Hill
#
# Bulk Modulus (GPa) = 44.96772 45.49638 45.23205
# Shear Modulus (GPa) = 27.90921 36.25957 32.08439
#
# Velocity S-wave (km/s) = 3.57622 4.07626 3.83440
# Velocity P-wave (km/s) = 6.13667 6.55767 6.35066
#
# Compressibility (1/GPa) = 0.02223818
#
# Stress axis : x y z
#
# Youngs Moduli (GPa) = 39.30585 39.30553 116.26939
#
# Poissons Ratio (x) = 0.63232 0.14741
# Poissons Ratio (y) = 0.63232 0.14740
# Poissons Ratio (z) = 0.04983 0.04983
#
# Static dielectric constant tensor:
#      x y z
#    x 1.830370 0.000000 0.000000 
#    y 0.000000 1.830370 0.000000 
#    z 0.000000 0.000000 1.800010 
# 
# From -- ./inp_files/198.got.cif
#   From: 2010.05.17/outbox.cif.g08.bks.cpg/sg92_1_cif.got.tgz:198.got - 2010.06.03 19:35:17.
