data_PCOD9548269
_publ_section_title
;
Structure prediction by ZEFSAII (Michael W. Deem and Ramdas Pophale) SiO2 
 PCOD9548269
Probable space group: P 41 2 2
;
_chemical_formula_sum "Si O2"
_cell_formula_units_Z 32
_cell_length_a 11.417774
_cell_length_b 11.417774
_cell_length_c 11.091467
_cell_angle_alpha 90.000000
_cell_angle_beta 90.000000
_cell_angle_gamma 90.000000
_cell_volume 1445.945341
_symmetry_space_group_name_H-M "P 41 2 2"
_symmetry_group_IT_number 91
_symmetry_cell_setting 'tetragonal'
loop_
_space_group_symop_operation_xyz
x,y,z
-y,x,1/4+z
-x,-y,1/2+z
y,-x,3/4+z
x,-y,1/2-z
-x,y,-z
y,x,3/4-z
-y,-x,1/4-z
loop_
_atom_site_type_symbol
_atom_site_label
_atom_site_fract_x
_atom_site_fract_y
_atom_site_fract_z
Si Si1 0.312421 0.486317 0.117962
Si Si2 0.230446 0.372845 0.585375
Si Si3 0.189245 0.810756 0.125000
Si Si4 0.000000 0.796676 0.500000
Si Si5 0.243001 0.055350 0.011900
O O1 0.253430 0.500000 0.250000
O O2 0.418573 0.581428 0.125000
O O3 0.364952 0.357802 0.104532
O O4 0.231280 0.517120 0.004739
O O5 0.222927 0.265510 0.490521
O O6 0.131273 0.347067 0.681704
O O7 0.055985 0.784188 0.155944
O O8 0.015336 0.730290 0.625877
O O9 0.119672 0.872855 0.488715
#
# Coordination Sequence:
#
# PCOD9548269 Si02
#       5
#     8   8   4   4   8
#     4   9  18  38  65  96 125 180 234 288 351 406
#     4  11  21  37  72 101 137 178 239 290 347 422
#     4  12  20  36  66 112 144 180 228 278 346 442
#     4  10  22  38  62  88 152 186 230 274 338 422
#     4  11  22  37  64 106 138 189 233 281 345 428
#
# _framework density 22.130849000000001
#
# number of rings (size 3 to 8) (size 9 to 14) (size 15 to 20)
#    0.000    1.500    6.250    2.250    0.000    0.000 
#    0.000    0.000   49.500    3.000    0.000    0.000 
#    0.000    0.000    0.000    0.000    0.000    0.000 
#
# Total GULP energy -178778.291416 kJ/mol
# GULP energy per Si atom -5586.821607 kJ/mol
# Density = 2.208048 g / cm^3
# Si number density = 22.130849 Si / 1000 Ang^3
#
#
#
# Elastic Constant Matrix: (Units=GPa)
#
#
# Indices 1 2 3 4 5 6 
#
# 1 0.3770 73.5976 51.9585 0.0000 0.0000 0.0000
# 2 73.5976 0.3720 51.9582 0.0000 0.0000 0.0000
# 3 51.9585 51.9582 148.3990 0.0000 0.0000 0.0000
# 4 0.0000 0.0000 0.0000 37.6386 0.0000 0.0000
# 5 0.0000 0.0000 0.0000 0.0000 37.6384 0.0000
# 6 0.0000 0.0000 0.0000 0.0000 0.0000 -15.6410
#
#
#
# Elastic Compliance Matrix: (Units=1/GPa)
#
#
# Indices 1 2 3 4 5 6 
#
# 1 0.006474 0.020131 -0.009315 0.000000 0.000000 0.000000
# 2 0.020131 0.006473 -0.009315 0.000000 0.000000 0.000000
# 3 -0.009315 -0.009315 0.013261 0.000000 0.000000 0.000000
# 4 0.000000 0.000000 0.000000 0.026568 0.000000 0.000000
# 5 0.000000 0.000000 0.000000 0.000000 0.026569 0.000000
# 6 0.000000 0.000000 0.000000 0.000000 0.000000 -0.063934
#
#
# Mechanical properties :
#
#
# Convention : Reuss Voigt Hill
#
# Bulk Modulus (GPa) = 34.23443 56.01962 45.12703
# Shear Modulus (GPa) = 225.77334 10.03612 117.90473
#
# Velocity S-wave (km/s) = 10.11133 2.13184 7.30697
# Velocity P-wave (km/s) = 12.32158 5.60603 9.57206
#
# Compressibility (1/GPa) = 0.02921036
#
# Stress axis : x y z
#
# Youngs Moduli (GPa) = 154.45231 154.49410 75.40736
#
# Poissons Ratio (x) = -3.11005 0.70243
# Poissons Ratio (y) = -3.10920 0.70238
# Poissons Ratio (z) = 1.43874 1.43904
#
# Static dielectric constant tensor:
#      x y z
#    x 1.817840 0.000000 0.000000 
#    y 0.000000 1.817840 0.000000 
#    z 0.000000 0.000000 1.745940 
# 
# From -- ./inp_files/10425.got.cif
#   From: 2010.05.17/outbox.cif.g08.bks.cpg/sg91_6_cif.got.tgz:10425.got - 2010.06.03 19:20:03.
