data_PCOD9548711
_publ_section_title
;
Structure prediction by ZEFSAII (Michael W. Deem and Ramdas Pophale) SiO2 
 PCOD9548711
Probable space group: P 41 2 2
;
_chemical_formula_sum "Si O2"
_cell_formula_units_Z 40
_cell_length_a 8.841339
_cell_length_b 8.841339
_cell_length_c 26.073352
_cell_angle_alpha 90.000000
_cell_angle_beta 90.000000
_cell_angle_gamma 90.000000
_cell_volume 2038.135031
_symmetry_space_group_name_H-M "P 41 2 2"
_symmetry_group_IT_number 91
_symmetry_cell_setting 'tetragonal'
loop_
_space_group_symop_operation_xyz
x,y,z
-y,x,1/4+z
-x,-y,1/2+z
y,-x,3/4+z
x,-y,1/2-z
-x,y,-z
y,x,3/4-z
-y,-x,1/4-z
loop_
_atom_site_type_symbol
_atom_site_label
_atom_site_fract_x
_atom_site_fract_y
_atom_site_fract_z
Si Si1 0.628330 0.836708 0.396395
Si Si2 0.994831 0.217583 0.590112
Si Si3 0.145441 0.034311 0.976753
Si Si4 0.455573 0.073864 0.693813
Si Si5 0.184645 0.307188 0.685313
O O1 0.674387 0.674387 0.375000
O O2 0.771577 0.891182 0.429146
O O3 0.487220 0.813101 0.433646
O O4 0.598670 0.956981 0.350889
O O5 0.128264 0.265351 0.628509
O O6 0.906451 0.365905 0.570156
O O7 0.075647 0.120086 0.545654
O O8 0.887493 0.112508 0.625000
O O9 0.257604 0.053423 0.024575
O O10 0.000000 0.119575 0.000000
O O11 0.342485 0.218591 0.694494
O O12 0.454029 0.000000 0.750000
#
# Coordination Sequence:
#
# PCOD9548711 Si02
#       5
#     8   8   8   8   8
#     4  11  23  40  63  94 131 172 226 278 338 406
#     4  11  23  40  64  96 131 171 216 283 331 405
#     4  12  21  38  69  96 128 168 226 281 333 394
#     4  11  24  41  63  95 129 177 221 273 343 402
#     4  11  23  39  65  92 130 176 221 277 338 405
#
# _framework density 19.625783999999999
#
# number of rings (size 3 to 8) (size 9 to 14) (size 15 to 20)
#    0.000    0.800    4.000    4.800    0.000    0.800 
#    0.000    0.000    0.000    0.000    0.000    0.000 
#    0.000    0.000    0.000    0.000    0.000    0.000 
#
# Total GULP energy -222936.639522 kJ/mol
# GULP energy per Si atom -5573.415988 kJ/mol
# Density = 1.958111 g / cm^3
# Si number density = 19.625784 Si / 1000 Ang^3
#
#
#
# Elastic Constant Matrix: (Units=GPa)
#
#
# Indices 1 2 3 4 5 6 
#
# 1 72.2206 59.4533 30.9737 0.0000 0.0000 0.0000
# 2 59.4533 72.2213 30.9743 0.0000 0.0000 0.0000
# 3 30.9737 30.9743 117.8311 0.0000 0.0000 0.0000
# 4 0.0000 0.0000 0.0000 32.0092 0.0000 0.0000
# 5 0.0000 0.0000 0.0000 0.0000 32.0091 0.0000
# 6 0.0000 0.0000 0.0000 0.0000 0.0000 2.9846
#
#
#
# Elastic Compliance Matrix: (Units=1/GPa)
#
#
# Indices 1 2 3 4 5 6 
#
# 1 0.043495 -0.034828 -0.002278 0.000000 0.000000 0.000000
# 2 -0.034828 0.043494 -0.002278 0.000000 0.000000 0.000000
# 3 -0.002278 -0.002278 0.009684 0.000000 0.000000 0.000000
# 4 0.000000 0.000000 0.000000 0.031241 0.000000 0.000000
# 5 0.000000 0.000000 0.000000 0.000000 0.031241 0.000000
# 6 0.000000 0.000000 0.000000 0.000000 0.000000 0.335057
#
#
# Mechanical properties :
#
#
# Convention : Reuss Voigt Hill
#
# Bulk Modulus (GPa) = 55.85163 56.11951 55.98557
# Shear Modulus (GPa) = 8.63633 22.79201 15.71417
#
# Velocity S-wave (km/s) = 2.10001 3.41153 2.83272
# Velocity P-wave (km/s) = 5.86516 6.64642 6.26798
#
# Compressibility (1/GPa) = 0.01790458
#
# Stress axis : x y z
#
# Youngs Moduli (GPa) = 22.99128 22.99142 103.25893
#
# Poissons Ratio (x) = 0.80075 0.23522
# Poissons Ratio (y) = 0.80075 0.23525
# Poissons Ratio (z) = 0.05237 0.05238
#
# Static dielectric constant tensor:
#      x y z
#    x 1.724960 0.000000 0.000000 
#    y 0.000000 1.724960 0.000000 
#    z 0.000000 0.000000 1.734920 
# 
# From -- ./inp_files/6739.got.cif
#   From: 2010.05.17/outbox.cif.g08.bks.cpg/sg91_4_cif.got.tgz:6739.got - 2010.06.03 19:20:03.
