data_PCOD9548964
_publ_section_title
;
Structure prediction by ZEFSAII (Michael W. Deem and Ramdas Pophale) SiO2 
 PCOD9548964
Probable space group: P 41 21 2
;
_chemical_formula_sum "Si O2"
_cell_formula_units_Z 44
_cell_length_a 9.123572
_cell_length_b 9.123572
_cell_length_c 27.234150
_cell_angle_alpha 90.000000
_cell_angle_beta 90.000000
_cell_angle_gamma 90.000000
_cell_volume 2266.958827
_symmetry_space_group_name_H-M "P 41 21 2"
_symmetry_group_IT_number 92
_symmetry_cell_setting 'tetragonal'
loop_
_space_group_symop_operation_xyz
x,y,z
1/2-y,1/2+x,1/4+z
-x,-y,1/2+z
1/2+y,1/2-x,3/4+z
1/2+x,1/2-y,3/4-z
1/2-x,1/2+y,1/4-z
y,x,-z
-y,-x,1/2-z
loop_
_atom_site_type_symbol
_atom_site_label
_atom_site_fract_x
_atom_site_fract_y
_atom_site_fract_z
Si Si1 0.808672 0.492763 0.287256
Si Si2 0.250823 0.759121 0.861637
Si Si3 0.389701 0.959834 0.573164
Si Si4 0.831078 0.500829 0.613724
Si Si5 0.482238 0.517762 0.250000
Si Si6 0.568957 0.325017 0.651535
O O1 0.809499 0.337662 0.316245
O O2 0.877647 0.497408 0.233305
O O3 0.895730 0.607523 0.320809
O O4 0.638548 0.527733 0.277310
O O5 0.423103 0.786963 0.852482
O O6 0.198727 0.670645 0.910064
O O7 0.190157 0.922406 0.869318
O O8 0.554414 0.976120 0.591904
O O9 0.672076 0.450433 0.629898
O O10 0.845953 0.670532 0.599863
O O11 0.471122 0.637613 0.207507
#
# Coordination Sequence:
#
# PCOD9548964 Si02
#       6
#     8   8   8   8   4   8
#     4  11  20  40  64  97 121 168 207 269 316 393
#     4  10  19  38  63  93 125 160 216 259 316 377
#     4  10  20  37  62  93 124 165 205 262 315 377
#     4  10  25  40  64  87 134 161 219 259 322 370
#     4  12  22  38  72  88 132 166 216 250 342 382
#     4  11  23  42  62  94 125 178 205 271 315 394
#
# _framework density 19.409262999999999
#
# number of rings (size 3 to 8) (size 9 to 14) (size 15 to 20)
#    0.000    1.455    3.636    1.091    2.545    1.455 
#    0.000    1.818    8.000    0.000    0.000    0.000 
#    0.000    0.000    0.000    0.000    0.000    0.000 
#
# Total GULP energy -245596.845843 kJ/mol
# GULP energy per Si atom -5581.746496 kJ/mol
# Density = 1.936509 g / cm^3
# Si number density = 19.409263 Si / 1000 Ang^3
#
#
#
# Elastic Constant Matrix: (Units=GPa)
#
#
# Indices 1 2 3 4 5 6 
#
# 1 57.2527 26.8007 50.6400 0.0000 0.0000 0.0000
# 2 26.8007 57.2527 50.6400 0.0000 0.0000 0.0000
# 3 50.6400 50.6400 97.4595 0.0000 0.0000 0.0000
# 4 0.0000 0.0000 0.0000 26.2928 0.0000 0.0000
# 5 0.0000 0.0000 0.0000 0.0000 26.2928 0.0000
# 6 0.0000 0.0000 0.0000 0.0000 0.0000 31.9691
#
#
#
# Elastic Compliance Matrix: (Units=1/GPa)
#
#
# Indices 1 2 3 4 5 6 
#
# 1 0.032328 -0.000510 -0.016533 0.000000 0.000000 0.000000
# 2 -0.000510 0.032328 -0.016533 0.000000 0.000000 0.000000
# 3 -0.016533 -0.016533 0.027442 0.000000 0.000000 0.000000
# 4 0.000000 0.000000 0.000000 0.038033 0.000000 0.000000
# 5 0.000000 0.000000 0.000000 0.000000 0.038033 0.000000
# 6 0.000000 0.000000 0.000000 0.000000 0.000000 0.031280
#
#
# Mechanical properties :
#
#
# Convention : Reuss Voigt Hill
#
# Bulk Modulus (GPa) = 40.08489 52.01404 46.04946
# Shear Modulus (GPa) = 18.18760 22.50322 20.34541
#
# Velocity S-wave (km/s) = 3.06446 3.40870 3.24115
# Velocity P-wave (km/s) = 5.76355 6.50761 6.14685
#
# Compressibility (1/GPa) = 0.02494706
#
# Stress axis : x y z
#
# Youngs Moduli (GPa) = 30.93248 30.93248 36.44095
#
# Poissons Ratio (x) = 0.01578 0.60247
# Poissons Ratio (y) = 0.01578 0.60247
# Poissons Ratio (z) = 0.51140 0.51140
#
# Static dielectric constant tensor:
#      x y z
#    x 1.686540 0.000000 0.000000 
#    y 0.000000 1.686540 0.000000 
#    z 0.000000 0.000000 1.669840 
# 
# From -- ./inp_files/4441.got.cif
#   From: 2010.05.17/outbox.cif.g08.bks.cpg/sg92_3_cif.got.tgz:4441.got - 2010.06.03 19:35:17.
