data_PCOD9548975
_publ_section_title
;
Structure prediction by ZEFSAII (Michael W. Deem and Ramdas Pophale) SiO2 
 PCOD9548975
Probable space group: P 41 21 2
;
_chemical_formula_sum "Si O2"
_cell_formula_units_Z 24
_cell_length_a 13.957929
_cell_length_b 13.957929
_cell_length_c 5.270448
_cell_angle_alpha 90.000000
_cell_angle_beta 90.000000
_cell_angle_gamma 90.000000
_cell_volume 1026.808612
_symmetry_space_group_name_H-M "P 41 21 2"
_symmetry_group_IT_number 92
_symmetry_cell_setting 'tetragonal'
loop_
_space_group_symop_operation_xyz
x,y,z
1/2-y,1/2+x,1/4+z
-x,-y,1/2+z
1/2+y,1/2-x,3/4+z
1/2+x,1/2-y,3/4-z
1/2-x,1/2+y,1/4-z
y,x,-z
-y,-x,1/2-z
loop_
_atom_site_type_symbol
_atom_site_label
_atom_site_fract_x
_atom_site_fract_y
_atom_site_fract_z
Si Si1 0.241272 0.608826 0.050946
Si Si2 0.568461 0.653201 0.240731
Si Si3 0.839588 0.684025 0.797467
O O1 0.319717 0.535697 0.155915
O O2 0.162731 0.617033 0.272385
O O3 0.289736 0.712178 0.000702
O O4 0.196933 0.586587 0.776438
O O5 0.622323 0.622323 0.500000
O O6 0.612897 0.753296 0.141926
O O7 0.581290 0.581290 0.000000
#
# Coordination Sequence:
#
# PCOD9548975 Si02
#       3
#     8   8   8
#     4  10  20  35  62  84 122 166 194 255 311 360
#     4  12  21  37  63  93 119 165 215 251 305 384
#     4  10  19  40  55  86 127 161 200 251 315 366
#
# _framework density 23.373391999999999
#
# number of rings (size 3 to 8) (size 9 to 14) (size 15 to 20)
#    0.000    1.333    6.667    2.000    0.000    0.000 
#    0.000   13.333    0.000    4.000    0.000    0.000 
#    0.000    0.000    0.000    0.000    0.000    0.000 
#
# Total GULP energy -133824.591765 kJ/mol
# GULP energy per Si atom -5576.024657 kJ/mol
# Density = 2.332019 g / cm^3
# Si number density = 23.373392 Si / 1000 Ang^3
#
#
#
# Elastic Constant Matrix: (Units=GPa)
#
#
# Indices 1 2 3 4 5 6 
#
# 1 -86.8352 164.8916 10.1934 0.0000 0.0000 0.0000
# 2 164.8916 -86.8352 10.1934 0.0000 0.0000 0.0000
# 3 10.1934 10.1934 220.0049 0.0000 0.0000 0.0000
# 4 0.0000 0.0000 0.0000 24.7880 0.0000 0.0000
# 5 0.0000 0.0000 0.0000 0.0000 24.7880 0.0000
# 6 0.0000 0.0000 0.0000 0.0000 0.0000 8.4887
#
#
#
# Elastic Compliance Matrix: (Units=1/GPa)
#
#
# Indices 1 2 3 4 5 6 
#
# 1 0.004498 0.008470 -0.000601 0.000000 0.000000 0.000000
# 2 0.008470 0.004498 -0.000601 0.000000 0.000000 0.000000
# 3 -0.000601 -0.000601 0.004601 0.000000 0.000000 0.000000
# 4 0.000000 0.000000 0.000000 0.040342 0.000000 0.000000
# 5 0.000000 0.000000 0.000000 0.000000 0.040342 0.000000
# 6 0.000000 0.000000 0.000000 0.000000 0.000000 0.117804
#
#
# Mechanical properties :
#
#
# Convention : Reuss Voigt Hill
#
# Bulk Modulus (GPa) = 35.54419 46.32126 40.93273
# Shear Modulus (GPa) = 24.16326 2.35001 13.25663
#
# Velocity S-wave (km/s) = 3.21875 1.00379 2.38411
# Velocity P-wave (km/s) = 5.39017 4.60483 5.01290
#
# Compressibility (1/GPa) = 0.02813399
#
# Stress axis : x y z
#
# Youngs Moduli (GPa) = 222.33050 222.33050 217.34264
#
# Poissons Ratio (x) = -1.88322 0.13059
# Poissons Ratio (y) = -1.88322 0.13059
# Poissons Ratio (z) = 0.13359 0.13359
#
# Static dielectric constant tensor:
#      x y z
#    x 1.971590 0.000000 0.000000 
#    y 0.000000 1.971590 0.000000 
#    z 0.000000 0.000000 1.493860 
# 
# From -- ./inp_files/210.got.cif
#   From: 2010.05.17/outbox.cif.g08.bks.cpg/sg92_1_cif.got.tgz:210.got - 2010.06.03 19:35:17.
