data_PCOD9548520
_publ_section_title
;
Structure prediction by ZEFSAII (Michael W. Deem and Ramdas Pophale) SiO2 
 PCOD9548520
Probable space group: P 41 2 2
;
_chemical_formula_sum "Si O2"
_cell_formula_units_Z 56
_cell_length_a 11.251189
_cell_length_b 11.251189
_cell_length_c 21.292799
_cell_angle_alpha 90.000000
_cell_angle_beta 90.000000
_cell_angle_gamma 90.000000
_cell_volume 2695.439539
_symmetry_space_group_name_H-M "P 41 2 2"
_symmetry_group_IT_number 91
_symmetry_cell_setting 'tetragonal'
loop_
_space_group_symop_operation_xyz
x,y,z
-y,x,1/4+z
-x,-y,1/2+z
y,-x,3/4+z
x,-y,1/2-z
-x,y,-z
y,x,3/4-z
-y,-x,1/4-z
loop_
_atom_site_type_symbol
_atom_site_label
_atom_site_fract_x
_atom_site_fract_y
_atom_site_fract_z
Si Si1 0.400908 0.733984 0.835463
Si Si2 0.357874 0.517109 0.684589
Si Si3 0.842362 0.346853 0.148367
Si Si4 0.832839 0.768157 0.977789
Si Si5 0.054180 0.054180 0.375000
Si Si6 0.218783 0.086795 0.601689
Si Si7 0.126060 0.498824 0.525913
Si Si8 0.335483 0.335483 0.375000
O O1 0.326910 0.614079 0.837582
O O2 0.316750 0.836488 0.861300
O O3 0.442067 0.771693 0.766072
O O4 0.525401 0.699267 0.870011
O O5 0.429202 0.500000 0.750000
O O6 0.422824 0.577177 0.625000
O O7 0.240393 0.591651 0.699827
O O8 0.759771 0.240230 0.125000
O O9 0.860831 0.449289 0.095549
O O10 0.964154 0.284411 0.163737
O O11 0.913534 0.850523 0.930829
O O12 0.721275 0.729446 0.935162
O O13 0.803689 0.849390 0.036146
O O14 0.872975 0.641962 0.009307
O O15 0.910968 0.071224 0.364647
O O16 0.000000 0.543639 0.500000
#
# Coordination Sequence:
#
# PCOD9548520 Si02
#       8
#     8   8   8   8   4   8   8   4
#     4  11  22  42  70 102 129 185 229 292 358 421
#     4  11  24  44  69  99 140 186 239 303 371 438
#     4  11  24  44  62  98 144 183 233 291 350 435
#     4  10  24  44  72 100 132 182 224 297 348 420
#     4  11  24  46  67 100 142 180 239 286 356 431
#     4  12  24  42  67 102 137 182 235 285 359 422
#     4  11  21  42  70  98 138 180 234 290 361 428
#     4   9  22  46  67  98 138 164 239 286 350 417
#
# _framework density 20.775832000000001
#
# number of rings (size 3 to 8) (size 9 to 14) (size 15 to 20)
#    0.000    1.143    2.857    3.857    0.000    4.000 
#    7.714    0.000    0.000    0.000    0.000    0.000 
#    0.000    0.000    0.000    0.000    0.000    0.000 
#
# Total GULP energy -312011.553569 kJ/mol
# GULP energy per Si atom -5571.634885 kJ/mol
# Density = 2.072855 g / cm^3
# Si number density = 20.775832 Si / 1000 Ang^3
#
#
#
# Elastic Constant Matrix: (Units=GPa)
#
#
# Indices 1 2 3 4 5 6 
#
# 1 291.1581 -119.7066 21.6968 0.0000 0.0000 0.0000
# 2 -119.7066 291.1773 21.7021 0.0000 0.0000 0.0000
# 3 21.6968 21.7021 80.5833 0.0000 0.0000 0.0000
# 4 0.0000 0.0000 0.0000 17.3448 0.0000 0.0000
# 5 0.0000 0.0000 0.0000 0.0000 17.3425 0.0000
# 6 0.0000 0.0000 0.0000 0.0000 0.0000 39.4793
#
#
#
# Elastic Compliance Matrix: (Units=1/GPa)
#
#
# Indices 1 2 3 4 5 6 
#
# 1 0.004346 0.001912 -0.001685 0.000000 0.000000 0.000000
# 2 0.001912 0.004346 -0.001685 0.000000 0.000000 0.000000
# 3 -0.001685 -0.001685 0.013317 0.000000 0.000000 0.000000
# 4 0.000000 0.000000 0.000000 0.057654 0.000000 0.000000
# 5 0.000000 0.000000 0.000000 0.000000 0.057662 0.000000
# 6 0.000000 0.000000 0.000000 0.000000 0.000000 0.025330
#
#
# Mechanical properties :
#
#
# Convention : Reuss Voigt Hill
#
# Bulk Modulus (GPa) = 52.37430 56.70037 54.53734
# Shear Modulus (GPa) = 29.08047 64.11508 46.59778
#
# Velocity S-wave (km/s) = 3.74535 5.56124 4.74105
# Velocity P-wave (km/s) = 6.63080 8.28174 7.50183
#
# Compressibility (1/GPa) = 0.01909333
#
# Stress axis : x y z
#
# Youngs Moduli (GPa) = 230.07283 230.08604 75.09091
#
# Poissons Ratio (x) = -0.44004 0.12655
# Poissons Ratio (y) = -0.44001 0.12656
# Poissons Ratio (z) = 0.38775 0.38779
#
# Static dielectric constant tensor:
#      x y z
#    x 1.801240 0.000000 0.000000 
#    y 0.000000 1.801230 0.000000 
#    z 0.000000 0.000000 1.771030 
# 
# From -- ./inp_files/17335.got.cif
#   From: 2010.05.17/outbox.cif.g08.bks.cpg/sg91_9_cif.got.tgz:17335.got - 2010.06.03 19:20:03.
