data_PCOD9548563
_publ_section_title
;
Structure prediction by ZEFSAII (Michael W. Deem and Ramdas Pophale) SiO2 
 PCOD9548563
Probable space group: P 41 2 2
;
_chemical_formula_sum "Si O2"
_cell_formula_units_Z 40
_cell_length_a 11.475614
_cell_length_b 11.475614
_cell_length_c 14.345548
_cell_angle_alpha 90.000000
_cell_angle_beta 90.000000
_cell_angle_gamma 90.000000
_cell_volume 1889.161152
_symmetry_space_group_name_H-M "P 41 2 2"
_symmetry_group_IT_number 91
_symmetry_cell_setting 'tetragonal'
loop_
_space_group_symop_operation_xyz
x,y,z
-y,x,1/4+z
-x,-y,1/2+z
y,-x,3/4+z
x,-y,1/2-z
-x,y,-z
y,x,3/4-z
-y,-x,1/4-z
loop_
_atom_site_type_symbol
_atom_site_label
_atom_site_fract_x
_atom_site_fract_y
_atom_site_fract_z
Si Si1 0.841190 0.337014 0.658632
Si Si2 0.000000 0.457693 0.500000
Si Si3 0.569767 0.160233 0.090553
Si Si4 0.000000 0.118827 0.000000
Si Si5 0.431507 0.568494 0.625000
Si Si6 0.500000 0.646343 0.000000
Si Si7 0.770016 0.000004 0.435718
O O1 0.781610 0.218390 0.625000
O O2 0.734883 0.421956 0.688825
O O3 0.922179 0.387139 0.575913
O O4 0.915442 0.305238 0.750221
O O5 0.093675 0.525755 0.565868
O O6 0.562606 0.299272 0.088645
O O7 0.700672 0.119432 0.075660
O O8 0.500000 0.115734 0.000000
O O9 0.044446 0.201637 0.082788
O O10 0.894252 0.034091 0.023911
O O11 0.435405 0.448598 0.565032
#
# Coordination Sequence:
#
# PCOD9548563 Si02
#       7
#     8   4   8   4   4   4   8
#     4  12  27  44  77 109 150 198 245 311 378 450
#     4  12  27  49  74 110 150 201 251 310 378 450
#     4  12  25  47  74 107 144 192 248 303 370 452
#     4  10  25  45  72 106 148 187 247 306 370 448
#     4  12  26  48  76 106 152 196 246 310 386 448
#     4  12  26  50  68 116 152 194 252 308 380 456
#     4  11  25  47  73 109 145 196 244 306 373 448
#
# _framework density 21.173418000000002
#
# number of rings (size 3 to 8) (size 9 to 14) (size 15 to 20)
#    0.000    0.400    4.000    4.200    5.600    1.600 
#    0.000    0.000    0.000    0.000    0.000    0.000 
#    0.000    0.000    0.000    0.000    0.000    0.000 
#
# Total GULP energy -223113.685452 kJ/mol
# GULP energy per Si atom -5577.842136 kJ/mol
# Density = 2.112523 g / cm^3
# Si number density = 21.173418 Si / 1000 Ang^3
#
#
#
# Elastic Constant Matrix: (Units=GPa)
#
#
# Indices 1 2 3 4 5 6 
#
# 1 128.6820 41.9671 50.0233 0.0000 0.0000 0.0000
# 2 41.9671 128.6821 50.0232 0.0000 0.0000 0.0000
# 3 50.0233 50.0232 126.4798 0.0000 0.0000 0.0000
# 4 0.0000 0.0000 0.0000 -329.6384 0.0000 0.0000
# 5 0.0000 0.0000 0.0000 0.0000 -329.7373 0.0000
# 6 0.0000 0.0000 0.0000 0.0000 0.0000 -43.4948
#
#
#
# Elastic Compliance Matrix: (Units=1/GPa)
#
#
# Indices 1 2 3 4 5 6 
#
# 1 0.009580 -0.001952 -0.003017 0.000000 0.000000 0.000000
# 2 -0.001952 0.009580 -0.003017 0.000000 0.000000 0.000000
# 3 -0.003017 -0.003017 0.010293 0.000000 0.000000 0.000000
# 4 0.000000 0.000000 0.000000 -0.003034 0.000000 0.000000
# 5 0.000000 0.000000 0.000000 0.000000 -0.003033 0.000000
# 6 0.000000 0.000000 0.000000 0.000000 0.000000 -0.022991
#
#
# Mechanical properties :
#
#
# Convention : Reuss Voigt Hill
#
# Bulk Modulus (GPa) = 74.17384 74.20791 74.19087
# Shear Modulus (GPa) = 239.66397 -124.45208 57.60595
#
# Velocity S-wave (km/s) = 10.65067 -7.67497 5.22167
# Velocity P-wave (km/s) = 13.65125 6.58911 8.45400
#
# Compressibility (1/GPa) = 0.01348184
#
# Stress axis : x y z
#
# Youngs Moduli (GPa) = 104.37893 104.37906 97.15263
#
# Poissons Ratio (x) = 0.20370 0.29314
# Poissons Ratio (y) = 0.20370 0.29313
# Poissons Ratio (z) = 0.31494 0.31494
#
# Static dielectric constant tensor:
#      x y z
#    x 1.779500 0.000000 0.000000 
#    y 0.000000 1.779500 0.000000 
#    z 0.000000 0.000000 1.852400 
# 
# From -- ./inp_files/20717.got.cif
#   From: 2010.05.17/outbox.cif.g08.bks.cpg/sg91_11_cif.got.tgz:20717.got - 2010.06.03 19:20:03.
