data_PCOD9548100
_publ_section_title
;
Structure prediction by ZEFSAII (Michael W. Deem and Ramdas Pophale) SiO2 
 PCOD9548100
Probable space group: P 41 2 2
;
_chemical_formula_sum "Si O2"
_cell_formula_units_Z 40
_cell_length_a 8.475875
_cell_length_b 8.475875
_cell_length_c 24.652304
_cell_angle_alpha 90.000000
_cell_angle_beta 90.000000
_cell_angle_gamma 90.000000
_cell_volume 1771.032786
_symmetry_space_group_name_H-M "P 41 2 2"
_symmetry_group_IT_number 91
_symmetry_cell_setting 'tetragonal'
loop_
_space_group_symop_operation_xyz
x,y,z
-y,x,1/4+z
-x,-y,1/2+z
y,-x,3/4+z
x,-y,1/2-z
-x,y,-z
y,x,3/4-z
-y,-x,1/4-z
loop_
_atom_site_type_symbol
_atom_site_label
_atom_site_fract_x
_atom_site_fract_y
_atom_site_fract_z
Si Si1 0.480159 0.815781 0.109670
Si Si2 0.303513 0.911681 0.592958
Si Si3 0.255743 0.011372 0.032459
Si Si4 0.737517 0.962336 0.809771
Si Si5 0.629613 0.754146 0.612640
O O1 0.394422 0.896227 0.057554
O O2 0.359667 0.825755 0.159651
O O3 0.583876 0.659367 0.111099
O O4 0.619862 0.939683 0.122669
O O5 0.156836 0.843165 0.625000
O O6 0.447536 0.786508 0.597280
O O7 0.265413 0.966906 0.531840
O O8 0.101374 0.916107 0.052860
O O9 0.281572 0.183407 0.058358
O O10 0.678957 0.000000 0.750000
O O11 0.698913 0.115795 0.845066
#
# Coordination Sequence:
#
# PCOD9548100 Si02
#       5
#     8   8   8   8   8
#     4  10  21  38  60  88 122 158 203 259 311 373
#     4  10  22  39  60  90 127 163 204 262 325 381
#     4  10  21  41  62  85 124 167 208 256 317 387
#     4  10  21  37  59  88 120 160 210 256 308 378
#     4  10  21  37  62  93 124 158 210 263 312 381
#
# _framework density 22.58569
#
# number of rings (size 3 to 8) (size 9 to 14) (size 15 to 20)
#    0.000    2.400    0.000    6.000    0.000    8.000 
#    0.000    0.000    0.000   14.400    0.000    0.000 
#    0.000    0.000    0.000    0.000    0.000    0.000 
#
# Total GULP energy -222874.705989 kJ/mol
# GULP energy per Si atom -5571.867650 kJ/mol
# Density = 2.253428 g / cm^3
# Si number density = 22.585690 Si / 1000 Ang^3
#
#
#
# Elastic Constant Matrix: (Units=GPa)
#
#
# Indices 1 2 3 4 5 6 
#
# 1 65.3549 53.4822 36.3636 0.0000 0.0000 0.0000
# 2 53.4822 65.3537 36.3631 0.0000 0.0000 0.0000
# 3 36.3636 36.3631 106.7652 0.0000 0.0000 0.0000
# 4 0.0000 0.0000 0.0000 21.9045 0.0000 0.0000
# 5 0.0000 0.0000 0.0000 0.0000 21.9044 0.0000
# 6 0.0000 0.0000 0.0000 0.0000 0.0000 64.6427
#
#
#
# Elastic Compliance Matrix: (Units=1/GPa)
#
#
# Indices 1 2 3 4 5 6 
#
# 1 0.047430 -0.036800 -0.003621 0.000000 0.000000 0.000000
# 2 -0.036800 0.047431 -0.003621 0.000000 0.000000 0.000000
# 3 -0.003621 -0.003621 0.011833 0.000000 0.000000 0.000000
# 4 0.000000 0.000000 0.000000 0.045653 0.000000 0.000000
# 5 0.000000 0.000000 0.000000 0.000000 0.045653 0.000000
# 6 0.000000 0.000000 0.000000 0.000000 0.000000 0.015470
#
#
# Mechanical properties :
#
#
# Convention : Reuss Voigt Hill
#
# Bulk Modulus (GPa) = 53.73082 54.43239 54.08161
# Shear Modulus (GPa) = 16.24662 29.10799 22.67731
#
# Velocity S-wave (km/s) = 2.68495 3.59385 3.17212
# Velocity P-wave (km/s) = 5.78389 6.43224 6.11666
#
# Compressibility (1/GPa) = 0.01861129
#
# Stress axis : x y z
#
# Youngs Moduli (GPa) = 21.08352 21.08318 84.51121
#
# Poissons Ratio (x) = 0.77586 0.30600
# Poissons Ratio (y) = 0.77587 0.30599
# Poissons Ratio (z) = 0.07634 0.07634
#
# Static dielectric constant tensor:
#      x y z
#    x 1.956840 0.000000 0.000000 
#    y 0.000000 1.956840 0.000000 
#    z 0.000000 0.000000 1.847970 
# 
# From -- ./inp_files/13183.got.cif
#   From: 2010.05.17/outbox.cif.g08.bks.cpg/sg91_7_cif.got.tgz:13183.got - 2010.06.03 19:20:03.
