data_PCOD9548445
_publ_section_title
;
Structure prediction by ZEFSAII (Michael W. Deem and Ramdas Pophale) SiO2 
 PCOD9548445
Probable space group: P 41 2 2
;
_chemical_formula_sum "Si O2"
_cell_formula_units_Z 32
_cell_length_a 13.676297
_cell_length_b 13.676297
_cell_length_c 9.040492
_cell_angle_alpha 90.000000
_cell_angle_beta 90.000000
_cell_angle_gamma 90.000000
_cell_volume 1690.943565
_symmetry_space_group_name_H-M "P 41 2 2"
_symmetry_group_IT_number 91
_symmetry_cell_setting 'tetragonal'
loop_
_space_group_symop_operation_xyz
x,y,z
-y,x,1/4+z
-x,-y,1/2+z
y,-x,3/4+z
x,-y,1/2-z
-x,y,-z
y,x,3/4-z
-y,-x,1/4-z
loop_
_atom_site_type_symbol
_atom_site_label
_atom_site_fract_x
_atom_site_fract_y
_atom_site_fract_z
Si Si1 0.264202 0.611904 0.717047
Si Si2 0.330648 0.114799 0.715452
Si Si3 0.000000 0.642953 0.000000
Si Si4 0.500000 0.920393 0.000000
Si Si5 0.249008 0.202570 0.208021
O O1 0.250057 0.500000 0.750000
O O2 0.360625 0.639375 0.625000
O O3 0.176167 0.653032 0.614735
O O4 0.262928 0.668989 0.870762
O O5 0.423400 0.135059 0.606833
O O6 0.232703 0.151862 0.633124
O O7 0.329251 0.000000 0.750000
O O8 0.092057 0.711708 0.963363
O O9 0.979648 0.571031 0.861126
O O10 0.235329 0.235329 0.375000
#
# Coordination Sequence:
#
# PCOD9548445 Si02
#       5
#     8   8   4   4   8
#     4  10  23  42  63  90 129 169 211 267 329 388
#     4  11  23  39  64  98 131 170 214 272 327 385
#     4  12  24  40  68  94 134 166 216 272 326 392
#     4  12  22  36  68 100 120 166 222 272 322 388
#     4  11  24  41  64  96 133 165 213 271 325 382
#
# _framework density 18.924344999999999
#
# number of rings (size 3 to 8) (size 9 to 14) (size 15 to 20)
#    0.000    1.000    3.750    3.000    3.500    0.000 
#    0.000    1.250    2.750    0.000    0.000    0.000 
#    0.000    0.000    0.000    0.000    0.000    0.000 
#
# Total GULP energy -178636.846348 kJ/mol
# GULP energy per Si atom -5582.401448 kJ/mol
# Density = 1.888127 g / cm^3
# Si number density = 18.924345 Si / 1000 Ang^3
#
#
#
# Elastic Constant Matrix: (Units=GPa)
#
#
# Indices 1 2 3 4 5 6 
#
# 1 83.0377 42.8388 35.4245 0.0000 0.0000 0.0000
# 2 42.8388 83.0427 35.4244 0.0000 0.0000 0.0000
# 3 35.4245 35.4244 92.5584 0.0000 0.0000 0.0000
# 4 0.0000 0.0000 0.0000 30.0005 0.0000 0.0000
# 5 0.0000 0.0000 0.0000 0.0000 30.0001 0.0000
# 6 0.0000 0.0000 0.0000 0.0000 0.0000 15.6193
#
#
#
# Elastic Compliance Matrix: (Units=1/GPa)
#
#
# Indices 1 2 3 4 5 6 
#
# 1 0.017501 -0.007375 -0.003875 0.000000 0.000000 0.000000
# 2 -0.007375 0.017499 -0.003875 0.000000 0.000000 0.000000
# 3 -0.003875 -0.003875 0.013770 0.000000 0.000000 0.000000
# 4 0.000000 0.000000 0.000000 0.033333 0.000000 0.000000
# 5 0.000000 0.000000 0.000000 0.000000 0.033333 0.000000
# 6 0.000000 0.000000 0.000000 0.000000 0.000000 0.064023
#
#
# Mechanical properties :
#
#
# Convention : Reuss Voigt Hill
#
# Bulk Modulus (GPa) = 53.99578 54.00159 53.99868
# Shear Modulus (GPa) = 23.16068 24.78739 23.97403
#
# Velocity S-wave (km/s) = 3.50216 3.62306 3.56312
# Velocity P-wave (km/s) = 6.70432 6.78967 6.74713
#
# Compressibility (1/GPa) = 0.01851997
#
# Stress axis : x y z
#
# Youngs Moduli (GPa) = 57.14076 57.14501 72.62032
#
# Poissons Ratio (x) = 0.42143 0.28144
# Poissons Ratio (y) = 0.42140 0.28140
# Poissons Ratio (z) = 0.22145 0.22143
#
# Static dielectric constant tensor:
#      x y z
#    x 1.675250 0.000000 0.000000 
#    y 0.000000 1.675250 0.000000 
#    z 0.000000 0.000000 1.686140 
# 
# From -- ./inp_files/19258.got.cif
#   From: 2010.05.17/outbox.cif.g08.bks.cpg/sg91_10_cif.got.tgz:19258.got - 2010.06.03 19:20:03.
