data_PCOD9548958
_publ_section_title
;
Structure prediction by ZEFSAII (Michael W. Deem and Ramdas Pophale) SiO2 
 PCOD9548958
Probable space group: P 41 21 2
;
_chemical_formula_sum "Si O2"
_cell_formula_units_Z 36
_cell_length_a 12.180359
_cell_length_b 12.180359
_cell_length_c 12.909919
_cell_angle_alpha 90.000000
_cell_angle_beta 90.000000
_cell_angle_gamma 90.000000
_cell_volume 1915.330369
_symmetry_space_group_name_H-M "P 41 21 2"
_symmetry_group_IT_number 92
_symmetry_cell_setting 'tetragonal'
loop_
_space_group_symop_operation_xyz
x,y,z
1/2-y,1/2+x,1/4+z
-x,-y,1/2+z
1/2+y,1/2-x,3/4+z
1/2+x,1/2-y,3/4-z
1/2-x,1/2+y,1/4-z
y,x,-z
-y,-x,1/2-z
loop_
_atom_site_type_symbol
_atom_site_label
_atom_site_fract_x
_atom_site_fract_y
_atom_site_fract_z
Si Si1 0.764604 0.402257 0.693995
Si Si2 0.270378 0.362194 0.286708
Si Si3 0.416577 0.292618 0.092284
Si Si4 0.134897 0.155063 0.725214
Si Si5 0.896866 0.103135 0.250000
O O1 0.673992 0.326009 0.750000
O O2 0.774962 0.518413 0.751630
O O3 0.874340 0.328809 0.688497
O O4 0.716169 0.409766 0.578615
O O5 0.355720 0.329429 0.196394
O O6 0.185311 0.261634 0.288600
O O7 0.329064 0.367270 0.397375
O O8 0.546418 0.302492 0.107605
O O9 0.372499 0.372499 0.000000
O O10 0.122555 0.025498 0.732435
#
# Coordination Sequence:
#
# PCOD9548958 Si02
#       5
#     8   8   8   8   4
#     4  10  19  37  63  90 117 153 212 263 297 354
#     4  11  24  38  61  95 123 163 208 254 313 371
#     4  10  20  37  65  92 115 150 213 267 297 348
#     4  11  22  39  64  92 121 164 212 253 312 368
#     4  12  24  40  60  86 132 172 198 246 318 384
#
# _framework density 18.795712999999999
#
# number of rings (size 3 to 8) (size 9 to 14) (size 15 to 20)
#    0.000    1.333    5.556    0.000    0.000    1.778 
#    0.000    6.667    0.000    0.000    0.000    0.000 
#    0.000    0.000    0.000    0.000    0.000    0.000 
#
# Total GULP energy -200886.604454 kJ/mol
# GULP energy per Si atom -5580.183457 kJ/mol
# Density = 1.875293 g / cm^3
# Si number density = 18.795713 Si / 1000 Ang^3
#
#
#
# Elastic Constant Matrix: (Units=GPa)
#
#
# Indices 1 2 3 4 5 6 
#
# 1 136.2744 77.7081 35.1002 0.0000 0.0000 0.0000
# 2 77.7081 136.2733 35.1006 0.0000 0.0000 0.0000
# 3 35.1002 35.1006 72.6090 0.0000 0.0000 0.0000
# 4 0.0000 0.0000 0.0000 16.1802 0.0000 0.0000
# 5 0.0000 0.0000 0.0000 0.0000 16.1819 0.0000
# 6 0.0000 0.0000 0.0000 0.0000 0.0000 23.8721
#
#
#
# Elastic Compliance Matrix: (Units=1/GPa)
#
#
# Indices 1 2 3 4 5 6 
#
# 1 0.011314 -0.005760 -0.002685 0.000000 0.000000 0.000000
# 2 -0.005760 0.011315 -0.002685 0.000000 0.000000 0.000000
# 3 -0.002685 -0.002685 0.016368 0.000000 0.000000 0.000000
# 4 0.000000 0.000000 0.000000 0.061804 0.000000 0.000000
# 5 0.000000 0.000000 0.000000 0.000000 0.061797 0.000000
# 6 0.000000 0.000000 0.000000 0.000000 0.000000 0.041890
#
#
# Mechanical properties :
#
#
# Convention : Reuss Voigt Hill
#
# Bulk Modulus (GPa) = 59.74883 71.21939 65.48411
# Shear Modulus (GPa) = 21.52130 24.39670 22.95900
#
# Velocity S-wave (km/s) = 3.38747 3.60668 3.49879
# Velocity P-wave (km/s) = 6.86713 7.43759 7.15804
#
# Compressibility (1/GPa) = 0.01673673
#
# Stress axis : x y z
#
# Youngs Moduli (GPa) = 88.38285 88.38177 61.09369
#
# Poissons Ratio (x) = 0.50911 0.16403
# Poissons Ratio (y) = 0.50911 0.16404
# Poissons Ratio (z) = 0.23730 0.23731
#
# Static dielectric constant tensor:
#      x y z
#    x 1.658520 0.000000 0.000000 
#    y 0.000000 1.658520 0.000000 
#    z 0.000000 0.000000 1.816520 
# 
# From -- ./inp_files/1986.got.cif
#   From: 2010.05.17/outbox.cif.g08.bks.cpg/sg92_1_cif.got.tgz:1986.got - 2010.06.03 19:35:17.
