data_PCOD9548577
_publ_section_title
;
Structure prediction by ZEFSAII (Michael W. Deem and Ramdas Pophale) SiO2 
 PCOD9548577
Probable space group: P 41 2 2
;
_chemical_formula_sum "Si O2"
_cell_formula_units_Z 32
_cell_length_a 8.690129
_cell_length_b 8.690129
_cell_length_c 18.494067
_cell_angle_alpha 90.000000
_cell_angle_beta 90.000000
_cell_angle_gamma 90.000000
_cell_volume 1396.641277
_symmetry_space_group_name_H-M "P 41 2 2"
_symmetry_group_IT_number 91
_symmetry_cell_setting 'tetragonal'
loop_
_space_group_symop_operation_xyz
x,y,z
-y,x,1/4+z
-x,-y,1/2+z
y,-x,3/4+z
x,-y,1/2-z
-x,y,-z
y,x,3/4-z
-y,-x,1/4-z
loop_
_atom_site_type_symbol
_atom_site_label
_atom_site_fract_x
_atom_site_fract_y
_atom_site_fract_z
Si Si1 0.689920 0.762092 0.158605
Si Si2 0.105654 0.357268 0.896998
Si Si3 0.500000 0.150261 0.000000
Si Si4 0.648321 0.351680 0.625000
Si Si5 0.823995 0.656990 0.021366
O O1 0.676673 0.939226 0.180653
O O2 0.752691 0.643419 0.218142
O O3 0.300052 0.723238 0.201347
O O4 0.799907 0.765348 0.089334
O O5 0.063289 0.440294 0.820625
O O6 0.198625 0.484654 0.944528
O O7 0.214282 0.214282 0.875000
O O8 0.468801 0.309596 0.628228
O O9 0.000000 0.661765 0.000000
#
# Coordination Sequence:
#
# PCOD9548577 Si02
#       5
#     8   8   4   4   8
#     4  11  26  44  73 106 142 192 244 306 370 448
#     4  11  25  47  70 101 149 193 244 303 379 454
#     4  10  26  44  72 106 142 186 246 308 374 438
#     4  12  24  40  76  96 144 184 242 304 362 434
#     4  11  25  45  67 106 143 185 244 307 370 442
#
# _framework density 22.912113000000002
#
# number of rings (size 3 to 8) (size 9 to 14) (size 15 to 20)
#    0.000    1.000    2.500    2.250   14.000    0.000 
#    6.750    0.000    0.000    0.000    0.000    0.000 
#    0.000    0.000    0.000    0.000    0.000    0.000 
#
# Total GULP energy -178714.881130 kJ/mol
# GULP energy per Si atom -5584.840035 kJ/mol
# Density = 2.285996 g / cm^3
# Si number density = 22.912113 Si / 1000 Ang^3
#
#
#
# Elastic Constant Matrix: (Units=GPa)
#
#
# Indices 1 2 3 4 5 6 
#
# 1 82.4417 44.7201 38.1787 0.0000 0.0000 0.0000
# 2 44.7201 82.4422 38.1785 0.0000 0.0000 0.0000
# 3 38.1787 38.1785 169.8898 0.0000 0.0000 0.0000
# 4 0.0000 0.0000 0.0000 38.8193 0.0000 0.0000
# 5 0.0000 0.0000 0.0000 0.0000 38.8193 0.0000
# 6 0.0000 0.0000 0.0000 0.0000 0.0000 18.5781
#
#
#
# Elastic Compliance Matrix: (Units=1/GPa)
#
#
# Indices 1 2 3 4 5 6 
#
# 1 0.017800 -0.008710 -0.002043 0.000000 0.000000 0.000000
# 2 -0.008710 0.017800 -0.002043 0.000000 0.000000 0.000000
# 3 -0.002043 -0.002043 0.006804 0.000000 0.000000 0.000000
# 4 0.000000 0.000000 0.000000 0.025760 0.000000 0.000000
# 5 0.000000 0.000000 0.000000 0.000000 0.025760 0.000000
# 6 0.000000 0.000000 0.000000 0.000000 0.000000 0.053827
#
#
# Mechanical properties :
#
#
# Convention : Reuss Voigt Hill
#
# Bulk Modulus (GPa) = 59.47391 64.10314 61.78852
# Shear Modulus (GPa) = 27.94109 33.48978 30.71543
#
# Velocity S-wave (km/s) = 3.49591 3.82732 3.66536
# Velocity P-wave (km/s) = 6.50453 6.89708 6.70368
#
# Compressibility (1/GPa) = 0.01681410
#
# Stress axis : x y z
#
# Youngs Moduli (GPa) = 56.17875 56.17921 146.96471
#
# Poissons Ratio (x) = 0.48930 0.30024
# Poissons Ratio (y) = 0.48929 0.30023
# Poissons Ratio (z) = 0.11477 0.11477
#
# Static dielectric constant tensor:
#      x y z
#    x 1.854760 0.000000 0.000000 
#    y 0.000000 1.854760 0.000000 
#    z 0.000000 0.000000 1.979450 
# 
# From -- ./inp_files/6683.got.cif
#   From: 2010.05.17/outbox.cif.g08.bks.cpg/sg91_4_cif.got.tgz:6683.got - 2010.06.03 19:20:03.
