data_PCOD9548522
_publ_section_title
;
Structure prediction by ZEFSAII (Michael W. Deem and Ramdas Pophale) SiO2 
 PCOD9548522
Probable space group: P 41 2 2
;
_chemical_formula_sum "Si O2"
_cell_formula_units_Z 48
_cell_length_a 8.763967
_cell_length_b 8.763967
_cell_length_c 27.803302
_cell_angle_alpha 90.000000
_cell_angle_beta 90.000000
_cell_angle_gamma 90.000000
_cell_volume 2135.491486
_symmetry_space_group_name_H-M "P 41 2 2"
_symmetry_group_IT_number 91
_symmetry_cell_setting 'tetragonal'
loop_
_space_group_symop_operation_xyz
x,y,z
-y,x,1/4+z
-x,-y,1/2+z
y,-x,3/4+z
x,-y,1/2-z
-x,y,-z
y,x,3/4-z
-y,-x,1/4-z
loop_
_atom_site_type_symbol
_atom_site_label
_atom_site_fract_x
_atom_site_fract_y
_atom_site_fract_z
Si Si1 0.470552 0.009464 0.141065
Si Si2 0.711868 0.288133 0.625000
Si Si3 0.874049 0.782852 0.579998
Si Si4 0.196112 0.784183 0.934729
Si Si5 0.517985 0.420900 0.443788
Si Si6 0.517863 0.236637 0.943233
Si Si7 0.000000 0.988448 0.000000
O O1 0.346873 0.884328 0.122273
O O2 0.617747 0.949895 0.168493
O O3 0.372854 0.104682 0.179144
O O4 0.529054 0.107849 0.095167
O O5 0.621563 0.358882 0.669791
O O6 0.875624 0.835747 0.635574
O O7 0.698454 0.754616 0.566115
O O8 0.944362 0.903438 0.543246
O O9 0.367639 0.718103 0.932063
O O10 0.136652 0.881484 0.979607
O O11 0.500000 0.423338 0.500000
O O12 0.555693 0.597497 0.431134
O O13 0.500000 0.201267 0.000000
#
# Coordination Sequence:
#
# PCOD9548522 Si02
#       7
#     8   4   8   8   8   8   4
#     4  11  25  43  76 102 152 191 253 304 387 436
#     4  12  22  44  72 104 142 190 244 310 354 452
#     4  11  25  49  68 110 145 198 245 313 376 454
#     4  11  27  49  71 111 145 198 247 312 377 457
#     4  11  24  46  75 106 148 187 254 310 376 445
#     4  10  24  44  74 110 144 194 252 311 371 452
#     4  12  30  46  74 100 166 194 252 300 392 462
#
# _framework density 22.477260999999999
#
# number of rings (size 3 to 8) (size 9 to 14) (size 15 to 20)
#    0.000    1.000    3.333    1.500    9.333    4.000 
#    3.000    0.000    0.000    0.000    0.000    0.000 
#    0.000    0.000    0.000    0.000    0.000    0.000 
#
# Total GULP energy -268128.465874 kJ/mol
# GULP energy per Si atom -5586.009706 kJ/mol
# Density = 2.242610 g / cm^3
# Si number density = 22.477261 Si / 1000 Ang^3
#
#
#
# Elastic Constant Matrix: (Units=GPa)
#
#
# Indices 1 2 3 4 5 6 
#
# 1 72.5434 19.7185 24.1482 0.0000 0.0000 0.0000
# 2 19.7185 72.5431 24.1482 0.0000 0.0000 0.0000
# 3 24.1482 24.1482 100.3763 0.0000 0.0000 0.0000
# 4 0.0000 0.0000 0.0000 27.7543 0.0000 0.0000
# 5 0.0000 0.0000 0.0000 0.0000 27.7547 0.0000
# 6 0.0000 0.0000 0.0000 0.0000 0.0000 19.6260
#
#
#
# Elastic Compliance Matrix: (Units=1/GPa)
#
#
# Indices 1 2 3 4 5 6 
#
# 1 0.015665 -0.003265 -0.002983 0.000000 0.000000 0.000000
# 2 -0.003265 0.015665 -0.002983 0.000000 0.000000 0.000000
# 3 -0.002983 -0.002983 0.011398 0.000000 0.000000 0.000000
# 4 0.000000 0.000000 0.000000 0.036030 0.000000 0.000000
# 5 0.000000 0.000000 0.000000 0.000000 0.036030 0.000000
# 6 0.000000 0.000000 0.000000 0.000000 0.000000 0.050953
#
#
# Mechanical properties :
#
#
# Convention : Reuss Voigt Hill
#
# Bulk Modulus (GPa) = 41.21047 42.38809 41.79928
# Shear Modulus (GPa) = 26.00192 26.85688 26.42940
#
# Velocity S-wave (km/s) = 3.40488 3.46041 3.43276
# Velocity P-wave (km/s) = 5.81650 5.90466 5.86075
#
# Compressibility (1/GPa) = 0.02426568
#
# Stress axis : x y z
#
# Youngs Moduli (GPa) = 63.83495 63.83466 87.73540
#
# Poissons Ratio (x) = 0.20842 0.26174
# Poissons Ratio (y) = 0.20843 0.26174
# Poissons Ratio (z) = 0.19043 0.19044
#
# Static dielectric constant tensor:
#      x y z
#    x 1.864050 0.000000 0.000000 
#    y 0.000000 1.864060 0.000000 
#    z 0.000000 0.000000 1.775110 
# 
# From -- ./inp_files/22306.got.cif
#   From: 2010.05.17/outbox.cif.g08.bks.cpg/sg91_12_cif.got.tgz:22306.got - 2010.06.03 19:20:03.
