data_PCOD9548868
_publ_section_title
;
Structure prediction by ZEFSAII (Michael W. Deem and Ramdas Pophale) SiO2 
 PCOD9548868
Probable space group: P 41 21 2
;
_chemical_formula_sum "Si O2"
_cell_formula_units_Z 52
_cell_length_a 12.631770
_cell_length_b 12.631770
_cell_length_c 19.207878
_cell_angle_alpha 90.000000
_cell_angle_beta 90.000000
_cell_angle_gamma 90.000000
_cell_volume 3064.840002
_symmetry_space_group_name_H-M "P 41 21 2"
_symmetry_group_IT_number 92
_symmetry_cell_setting 'tetragonal'
loop_
_space_group_symop_operation_xyz
x,y,z
1/2-y,1/2+x,1/4+z
-x,-y,1/2+z
1/2+y,1/2-x,3/4+z
1/2+x,1/2-y,3/4-z
1/2-x,1/2+y,1/4-z
y,x,-z
-y,-x,1/2-z
loop_
_atom_site_type_symbol
_atom_site_label
_atom_site_fract_x
_atom_site_fract_y
_atom_site_fract_z
Si Si1 0.771262 0.930916 0.787513
Si Si2 0.843724 0.317232 0.711684
Si Si3 0.514464 0.514464 0.000000
Si Si4 0.173918 0.068376 0.443488
Si Si5 0.248464 0.833230 0.448129
Si Si6 0.288609 0.484008 0.218484
Si Si7 0.060217 0.005853 0.900913
O O1 0.769251 0.908050 0.870430
O O2 0.725359 0.831656 0.746673
O O3 0.892243 0.962922 0.769526
O O4 0.705637 0.035796 0.768073
O O5 0.761818 0.238182 0.750000
O O6 0.836939 0.291497 0.629999
O O7 0.808594 0.437155 0.724659
O O8 0.579221 0.529610 0.928248
O O9 0.161821 0.161821 0.500000
O O10 0.222028 0.955699 0.469026
O O11 0.050875 0.045651 0.424108
O O12 0.136659 0.771851 0.447886
O O13 0.368912 0.535754 0.161386
O O14 0.350579 0.482105 0.292346
#
# Coordination Sequence:
#
# PCOD9548868 Si02
#       7
#     8   8   4   8   8   8   8
#     4  10  21  32  54  84 115 148 186 237 286 347
#     4  11  21  32  54  85 116 145 176 234 295 354
#     4  10  18  28  50  82 112 138 190 232 272 328
#     4   9  16  34  58  77 101 150 196 232 277 341
#     4  10  21  34  56  82 113 145 188 236 285 347
#     4  10  18  33  54  79 111 146 176 228 297 338
#     4   9  15  28  51  81 103 139 185 225 273 328
#
# _framework density 16.966628
#
# number of rings (size 3 to 8) (size 9 to 14) (size 15 to 20)
#    0.000    2.154    5.385    1.846    2.154    0.000 
#    0.000    0.000    8.462    0.000    0.000    0.000 
#    0.000    0.000    0.000    0.000    0.000    0.000 
#
# Total GULP energy -289593.222506 kJ/mol
# GULP energy per Si atom -5569.100433 kJ/mol
# Density = 1.692801 g / cm^3
# Si number density = 16.966628 Si / 1000 Ang^3
#
#
#
# Elastic Constant Matrix: (Units=GPa)
#
#
# Indices 1 2 3 4 5 6 
#
# 1 77.6727 9.3190 21.4074 0.0000 0.0000 0.0000
# 2 9.3190 77.6727 21.4074 0.0000 0.0000 0.0000
# 3 21.4074 21.4074 75.1232 0.0000 0.0000 0.0000
# 4 0.0000 0.0000 0.0000 18.6408 0.0000 0.0000
# 5 0.0000 0.0000 0.0000 0.0000 18.6408 0.0000
# 6 0.0000 0.0000 0.0000 0.0000 0.0000 17.1706
#
#
#
# Elastic Compliance Matrix: (Units=1/GPa)
#
#
# Indices 1 2 3 4 5 6 
#
# 1 0.014000 -0.000630 -0.003810 0.000000 0.000000 0.000000
# 2 -0.000630 0.014000 -0.003810 0.000000 0.000000 0.000000
# 3 -0.003810 -0.003810 0.015483 0.000000 0.000000 0.000000
# 4 0.000000 0.000000 0.000000 0.053646 0.000000 0.000000
# 5 0.000000 0.000000 0.000000 0.000000 0.053646 0.000000
# 6 0.000000 0.000000 0.000000 0.000000 0.000000 0.058239
#
#
# Mechanical properties :
#
#
# Convention : Reuss Voigt Hill
#
# Bulk Modulus (GPa) = 37.05953 37.19290 37.12622
# Shear Modulus (GPa) = 21.32119 22.77941 22.05030
#
# Velocity S-wave (km/s) = 3.54878 3.66813 3.60895
# Velocity P-wave (km/s) = 6.21947 6.31736 6.26860
#
# Compressibility (1/GPa) = 0.02698361
#
# Stress axis : x y z
#
# Youngs Moduli (GPa) = 71.42762 71.42762 64.58719
#
# Poissons Ratio (x) = 0.04497 0.24608
# Poissons Ratio (y) = 0.04497 0.24608
# Poissons Ratio (z) = 0.27215 0.27215
#
# Static dielectric constant tensor:
#      x y z
#    x 1.575600 0.000000 0.000000 
#    y 0.000000 1.575600 0.000000 
#    z 0.000000 0.000000 1.632790 
# 
# From -- ./inp_files/3576.got.cif
#   From: 2010.05.17/outbox.cif.g08.bks.cpg/sg92_2_cif.got.tgz:3576.got - 2010.06.03 19:35:17.
