data_PCOD9548496
_publ_section_title
;
Structure prediction by ZEFSAII (Michael W. Deem and Ramdas Pophale) SiO2 
 PCOD9548496
Probable space group: P 41 2 2
;
_chemical_formula_sum "Si O2"
_cell_formula_units_Z 48
_cell_length_a 18.633230
_cell_length_b 18.633230
_cell_length_c 6.699113
_cell_angle_alpha 90.000000
_cell_angle_beta 90.000000
_cell_angle_gamma 90.000000
_cell_volume 2325.913680
_symmetry_space_group_name_H-M "P 41 2 2"
_symmetry_group_IT_number 91
_symmetry_cell_setting 'tetragonal'
loop_
_space_group_symop_operation_xyz
x,y,z
-y,x,1/4+z
-x,-y,1/2+z
y,-x,3/4+z
x,-y,1/2-z
-x,y,-z
y,x,3/4-z
-y,-x,1/4-z
loop_
_atom_site_type_symbol
_atom_site_label
_atom_site_fract_x
_atom_site_fract_y
_atom_site_fract_z
Si Si1 0.940270 0.182290 0.122833
Si Si2 0.057861 0.818147 0.125323
Si Si3 0.433661 0.838589 0.874159
Si Si4 0.302268 0.184085 0.899811
Si Si5 0.959507 0.571888 0.321939
Si Si6 0.109390 0.660200 0.019244
O O1 0.888371 0.111630 0.125000
O O2 0.963853 0.176835 0.372151
O O3 0.889719 0.255028 0.123027
O O4 0.963329 0.181260 0.875755
O O5 0.117946 0.882055 0.125000
O O6 0.088355 0.736954 0.106411
O O7 0.366787 0.802600 0.756275
O O8 0.458749 0.889908 0.691621
O O9 0.500000 0.804316 0.000000
O O10 0.393258 0.881080 0.049469
O O11 0.246017 0.246017 0.875000
O O12 0.330521 0.178876 0.127100
O O13 0.998256 0.500000 0.250000
O O14 0.943493 0.624635 0.143247
O O15 0.000000 0.611528 0.500000
#
# Coordination Sequence:
#
# PCOD9548496 Si02
#       6
#     8   8   8   8   8   8
#     4  11  23  40  58  79 108 145 201 274 334 391
#     4  12  26  41  60  85 108 153 210 270 344 401
#     4  11  23  40  64  90 124 163 206 255 318 377
#     4  10  24  41  62  93 124 164 217 264 319 385
#     4  11  24  38  57  88 123 157 204 258 316 388
#     4  11  25  41  62  87 122 157 212 257 324 389
#
# _framework density 20.637052000000001
#
# number of rings (size 3 to 8) (size 9 to 14) (size 15 to 20)
#    0.000    1.000    3.333    2.500    7.000    4.667 
#    0.000    0.000    0.000    0.000    0.000    0.000 
#    0.000    0.000    0.000    0.000   44.333    0.000 
#
# Total GULP energy -267594.658839 kJ/mol
# GULP energy per Si atom -5574.888726 kJ/mol
# Density = 2.059008 g / cm^3
# Si number density = 20.637052 Si / 1000 Ang^3
#
#
#
# Elastic Constant Matrix: (Units=GPa)
#
#
# Indices 1 2 3 4 5 6 
#
# 1 98.3318 50.7446 52.3564 0.0000 0.0000 0.0000
# 2 50.7446 98.3275 52.3548 0.0000 0.0000 0.0000
# 3 52.3564 52.3548 194.1510 0.0000 0.0000 0.0000
# 4 0.0000 0.0000 0.0000 42.8781 0.0000 0.0000
# 5 0.0000 0.0000 0.0000 0.0000 42.8779 0.0000
# 6 0.0000 0.0000 0.0000 0.0000 0.0000 22.4534
#
#
#
# Elastic Compliance Matrix: (Units=1/GPa)
#
#
# Indices 1 2 3 4 5 6 
#
# 1 0.014645 -0.006370 -0.002232 0.000000 0.000000 0.000000
# 2 -0.006370 0.014646 -0.002232 0.000000 0.000000 0.000000
# 3 -0.002232 -0.002232 0.006354 0.000000 0.000000 0.000000
# 4 0.000000 0.000000 0.000000 0.023322 0.000000 0.000000
# 5 0.000000 0.000000 0.000000 0.000000 0.023322 0.000000
# 6 0.000000 0.000000 0.000000 0.000000 0.000000 0.044537
#
#
# Mechanical properties :
#
#
# Convention : Reuss Voigt Hill
#
# Bulk Modulus (GPa) = 71.53659 77.96910 74.75284
# Shear Modulus (GPa) = 32.64751 37.33217 34.98984
#
# Velocity S-wave (km/s) = 3.98173 4.25783 4.12210
# Velocity P-wave (km/s) = 7.47518 7.87625 7.67834
#
# Compressibility (1/GPa) = 0.01397886
#
# Stress axis : x y z
#
# Youngs Moduli (GPa) = 68.28266 68.27990 157.37590
#
# Poissons Ratio (x) = 0.43492 0.35121
# Poissons Ratio (y) = 0.43494 0.35120
# Poissons Ratio (z) = 0.15238 0.15237
#
# Static dielectric constant tensor:
#      x y z
#    x 1.744930 0.000000 0.000000 
#    y 0.000000 1.744930 0.000000 
#    z 0.000000 0.000000 1.850180 
# 
# From -- ./inp_files/1249.got.cif
#   From: 2010.05.17/outbox.cif.g08.bks.cpg/sg91_1_cif.got.tgz:1249.got - 2010.06.03 19:20:03.
