data_PCOD9548391
_publ_section_title
;
Structure prediction by ZEFSAII (Michael W. Deem and Ramdas Pophale) SiO2 
 PCOD9548391
Probable space group: P 41 2 2
;
_chemical_formula_sum "Si O2"
_cell_formula_units_Z 32
_cell_length_a 8.909237
_cell_length_b 8.909237
_cell_length_c 17.697789
_cell_angle_alpha 90.000000
_cell_angle_beta 90.000000
_cell_angle_gamma 90.000000
_cell_volume 1404.753222
_symmetry_space_group_name_H-M "P 41 2 2"
_symmetry_group_IT_number 91
_symmetry_cell_setting 'tetragonal'
loop_
_space_group_symop_operation_xyz
x,y,z
-y,x,1/4+z
-x,-y,1/2+z
y,-x,3/4+z
x,-y,1/2-z
-x,y,-z
y,x,3/4-z
-y,-x,1/4-z
loop_
_atom_site_type_symbol
_atom_site_label
_atom_site_fract_x
_atom_site_fract_y
_atom_site_fract_z
Si Si1 0.103608 0.733195 0.277663
Si Si2 0.164317 0.500000 0.750000
Si Si3 0.000000 0.711146 0.500000
Si Si4 0.279374 0.279374 0.375000
Si Si5 0.048510 0.048510 0.875000
Si Si6 0.284418 0.387889 0.084220
O O1 0.152858 0.737808 0.189852
O O2 0.224602 0.652545 0.331730
O O3 0.950436 0.631326 0.278796
O O4 0.082352 0.897461 0.316935
O O5 0.277421 0.580239 0.809852
O O6 0.043556 0.813470 0.569478
O O7 0.149010 0.633113 0.474209
O O8 0.434774 0.296039 0.330765
#
# Coordination Sequence:
#
# PCOD9548391 Si02
#       6
#     8   4   4   4   4   8
#     4  11  25  50  74 111 155 197 262 320 387 467
#     4  12  24  48  76 110 150 198 252 318 382 478
#     4  10  22  44  68 104 142 190 248 294 378 460
#     4  12  26  50  72 116 154 194 262 332 394 452
#     4  10  22  44  70 102 142 196 236 302 372 452
#     4  11  26  45  77 107 148 203 248 320 385 474
#
# _framework density 22.779800999999999
#
# number of rings (size 3 to 8) (size 9 to 14) (size 15 to 20)
#    0.000    1.000    5.000    0.000    3.500    6.000 
#    0.000    0.000    0.000    0.000    0.000    0.000 
#    0.000    0.000    0.000    0.000    0.000    0.000 
#
# Total GULP energy -178203.363200 kJ/mol
# GULP energy per Si atom -5568.855100 kJ/mol
# Density = 2.272795 g / cm^3
# Si number density = 22.779801 Si / 1000 Ang^3
#
#
#
# Elastic Constant Matrix: (Units=GPa)
#
#
# Indices 1 2 3 4 5 6 
#
# 1 80.7785 35.4790 33.3508 0.0000 0.0000 0.0000
# 2 35.4790 80.7785 33.3508 0.0000 0.0000 0.0000
# 3 33.3508 33.3508 122.0765 0.0000 0.0000 0.0000
# 4 0.0000 0.0000 0.0000 4.3667 0.0000 0.0000
# 5 0.0000 0.0000 0.0000 0.0000 4.3667 0.0000
# 6 0.0000 0.0000 0.0000 0.0000 0.0000 2452.8415
#
#
#
# Elastic Compliance Matrix: (Units=1/GPa)
#
#
# Indices 1 2 3 4 5 6 
#
# 1 0.016138 -0.005937 -0.002787 0.000000 0.000000 0.000000
# 2 -0.005937 0.016138 -0.002787 0.000000 0.000000 0.000000
# 3 -0.002787 -0.002787 0.009714 0.000000 0.000000 0.000000
# 4 0.000000 0.000000 0.000000 0.229006 0.000000 0.000000
# 5 0.000000 0.000000 0.000000 0.000000 0.229006 0.000000
# 6 0.000000 0.000000 0.000000 0.000000 0.000000 0.000408
#
#
# Mechanical properties :
#
#
# Convention : Reuss Voigt Hill
#
# Bulk Modulus (GPa) = 52.71972 54.22165 53.47068
# Shear Modulus (GPa) = 9.43834 504.41183 256.92509
#
# Velocity S-wave (km/s) = 2.03772 14.89665 10.63161
# Velocity P-wave (km/s) = 5.36002 17.88112 13.19970
#
# Compressibility (1/GPa) = 0.01896824
#
# Stress axis : x y z
#
# Youngs Moduli (GPa) = 61.96605 61.96605 102.94175
#
# Poissons Ratio (x) = 0.36792 0.28687
# Poissons Ratio (y) = 0.36792 0.28687
# Poissons Ratio (z) = 0.17268 0.17268
#
# Static dielectric constant tensor:
#      x y z
#    x 1.971980 0.000000 0.000000 
#    y 0.000000 1.971980 0.000000 
#    z 0.000000 0.000000 2.465170 
# 
# From -- ./inp_files/6095.got.cif
#   From: 2010.05.17/outbox.cif.g08.bks.cpg/sg91_4_cif.got.tgz:6095.got - 2010.06.03 19:20:03.
