data_PCOD9548085
_publ_section_title
;
Structure prediction by ZEFSAII (Michael W. Deem and Ramdas Pophale) SiO2 
 PCOD9548085
Probable space group: P 41 2 2
;
_chemical_formula_sum "Si O2"
_cell_formula_units_Z 24
_cell_length_a 16.020007
_cell_length_b 16.020007
_cell_length_c 5.122959
_cell_angle_alpha 90.000000
_cell_angle_beta 90.000000
_cell_angle_gamma 90.000000
_cell_volume 1314.759396
_symmetry_space_group_name_H-M "P 41 2 2"
_symmetry_group_IT_number 91
_symmetry_cell_setting 'tetragonal'
loop_
_space_group_symop_operation_xyz
x,y,z
-y,x,1/4+z
-x,-y,1/2+z
y,-x,3/4+z
x,-y,1/2-z
-x,y,-z
y,x,3/4-z
-y,-x,1/4-z
loop_
_atom_site_type_symbol
_atom_site_label
_atom_site_fract_x
_atom_site_fract_y
_atom_site_fract_z
Si Si1 0.211402 0.289964 0.630922
Si Si2 0.824177 0.947538 0.488588
Si Si3 0.907176 0.559528 0.002847
O O1 0.255676 0.255676 0.375000
O O2 0.130876 0.233277 0.693914
O O3 0.169268 0.378133 0.556884
O O4 0.274461 0.274461 0.875000
O O5 0.909387 0.909387 0.375000
O O6 0.785520 0.000000 0.250000
O O7 0.836851 0.000000 0.750000
O O8 0.896640 0.500000 0.750000
O O9 0.911862 0.500000 0.250000
O O10 0.000000 0.602434 0.000000
#
# Coordination Sequence:
#
# PCOD9548085 Si02
#       3
#     8   8   8
#     4  11  22  37  56  78 108 144 182 223 273 334
#     4  11  22  35  49  68  96 136 184 231 273 312
#     4  10  21  36  57  84 113 146 184 230 280 330
#
# _framework density 18.254292
#
# number of rings (size 3 to 8) (size 9 to 14) (size 15 to 20)
#    0.000    1.333    0.000    8.000    0.000    5.333 
#    0.000    1.667    0.000    0.000    0.000    0.000 
#    0.000   37.333    0.000    0.000    0.000    0.000 
#
# Total GULP energy -133935.501080 kJ/mol
# GULP energy per Si atom -5580.645878 kJ/mol
# Density = 1.821274 g / cm^3
# Si number density = 18.254292 Si / 1000 Ang^3
#
#
#
# Elastic Constant Matrix: (Units=GPa)
#
#
# Indices 1 2 3 4 5 6 
#
# 1 66.3286 35.3442 37.0803 0.0000 0.0000 0.0000
# 2 35.3442 66.3286 37.0803 0.0000 0.0000 0.0000
# 3 37.0803 37.0803 170.9366 0.0000 0.0000 0.0000
# 4 0.0000 0.0000 0.0000 -2.9051 0.0000 0.0000
# 5 0.0000 0.0000 0.0000 0.0000 -2.9051 0.0000
# 6 0.0000 0.0000 0.0000 0.0000 0.0000 766.3161
#
#
#
# Elastic Compliance Matrix: (Units=1/GPa)
#
#
# Indices 1 2 3 4 5 6 
#
# 1 0.021979 -0.010295 -0.002535 0.000000 0.000000 0.000000
# 2 -0.010295 0.021979 -0.002535 0.000000 0.000000 0.000000
# 3 -0.002535 -0.002535 0.006950 0.000000 0.000000 0.000000
# 4 0.000000 0.000000 0.000000 -0.344224 0.000000 0.000000
# 5 0.000000 0.000000 0.000000 0.000000 -0.344224 0.000000
# 6 0.000000 0.000000 0.000000 0.000000 0.000000 0.001305
#
#
# Mechanical properties :
#
#
# Convention : Reuss Voigt Hill
#
# Bulk Modulus (GPa) = 49.55449 58.06707 53.81078
# Shear Modulus (GPa) = -8.35032 165.04046 78.34507
#
# Velocity S-wave (km/s) = -2.14111 9.51883 6.55834
# Velocity P-wave (km/s) = 4.59273 12.35678 9.32157
#
# Compressibility (1/GPa) = 0.02017981
#
# Stress axis : x y z
#
# Youngs Moduli (GPa) = 45.49746 45.49746 143.89009
#
# Poissons Ratio (x) = 0.46840 0.36470
# Poissons Ratio (y) = 0.46840 0.36470
# Poissons Ratio (z) = 0.11532 0.11532
#
# Static dielectric constant tensor:
#      x y z
#    x 1.657630 0.000000 0.000000 
#    y 0.000000 1.657630 0.000000 
#    z 0.000000 0.000000 1.607680 
# 
# From -- ./inp_files/224.got.cif
#   From: 2010.05.17/outbox.cif.g08.bks.cpg/sg91_1_cif.got.tgz:224.got - 2010.06.03 19:20:03.
