data_PCOD9548251
_publ_section_title
;
Structure prediction by ZEFSAII (Michael W. Deem and Ramdas Pophale) SiO2 
 PCOD9548251
Probable space group: P 41 2 2
;
_chemical_formula_sum "Si O2"
_cell_formula_units_Z 60
_cell_length_a 11.879853
_cell_length_b 11.879853
_cell_length_c 21.523668
_cell_angle_alpha 90.000000
_cell_angle_beta 90.000000
_cell_angle_gamma 90.000000
_cell_volume 3037.654793
_symmetry_space_group_name_H-M "P 41 2 2"
_symmetry_group_IT_number 91
_symmetry_cell_setting 'tetragonal'
loop_
_space_group_symop_operation_xyz
x,y,z
-y,x,1/4+z
-x,-y,1/2+z
y,-x,3/4+z
x,-y,1/2-z
-x,y,-z
y,x,3/4-z
-y,-x,1/4-z
loop_
_atom_site_type_symbol
_atom_site_label
_atom_site_fract_x
_atom_site_fract_y
_atom_site_fract_z
Si Si1 0.290912 0.016969 0.565785
Si Si2 0.240891 0.367859 0.819117
Si Si3 0.108366 0.677076 0.901132
Si Si4 0.955619 0.930687 0.069266
Si Si5 0.520436 0.000000 0.750000
Si Si6 0.688061 0.630427 0.179194
Si Si7 0.171907 0.549168 0.396343
Si Si8 0.600482 0.932562 0.949679
O O1 0.353524 0.895424 0.571275
O O2 0.160733 0.003203 0.580984
O O3 0.352401 0.108012 0.608507
O O4 0.295275 0.072459 0.496581
O O5 0.295408 0.295408 0.875000
O O6 0.274115 0.333240 0.748666
O O7 0.291612 0.495377 0.824396
O O8 0.070839 0.799370 0.922369
O O9 0.233247 0.675982 0.875721
O O10 0.038356 0.627893 0.843027
O O11 0.080368 0.594666 0.956803
O O12 0.038427 0.961574 0.125000
O O13 0.000000 0.954474 0.000000
O O14 0.459999 0.911224 0.794735
O O15 0.573836 0.699949 0.165949
O O16 0.160005 0.441692 0.349728
O O17 0.500000 0.948240 0.000000
#
# Coordination Sequence:
#
# PCOD9548251 Si02
#       8
#     8   8   8   8   4   8   8   8
#     4  11  21  42  64  98 126 176 228 270 342 410
#     4  11  25  42  69  94 131 182 228 276 351 412
#     4  11  20  40  60  89 130 173 222 262 338 403
#     4  12  26  42  62  96 140 182 222 285 346 419
#     4  10  22  38  66  94 124 176 224 278 324 416
#     4  11  23  41  65  95 129 174 219 289 336 401
#     4  10  22  36  65  99 124 159 221 285 332 385
#     4   9  18  36  65  89 121 167 218 269 316 399
#
# _framework density 19.752078000000001
#
# number of rings (size 3 to 8) (size 9 to 14) (size 15 to 20)
#    0.000    1.333    3.333    3.600    5.600    0.000 
#    1.200    0.000   11.733    0.000    0.000    0.000 
#    0.000    0.000    0.000    0.000    0.000    0.000 
#
# Total GULP energy -334120.419026 kJ/mol
# GULP energy per Si atom -5568.673650 kJ/mol
# Density = 1.970712 g / cm^3
# Si number density = 19.752078 Si / 1000 Ang^3
#
#
#
# Elastic Constant Matrix: (Units=GPa)
#
#
# Indices 1 2 3 4 5 6 
#
# 1 52.2551 29.1413 19.1915 0.0000 0.0000 0.0000
# 2 29.1413 52.2560 19.1912 0.0000 0.0000 0.0000
# 3 19.1915 19.1912 116.6503 0.0000 0.0000 0.0000
# 4 0.0000 0.0000 0.0000 57.3180 0.0000 0.0000
# 5 0.0000 0.0000 0.0000 0.0000 57.3038 0.0000
# 6 0.0000 0.0000 0.0000 0.0000 0.0000 11.0531
#
#
#
# Elastic Compliance Matrix: (Units=1/GPa)
#
#
# Indices 1 2 3 4 5 6 
#
# 1 0.028291 -0.014972 -0.002191 0.000000 0.000000 0.000000
# 2 -0.014972 0.028291 -0.002191 0.000000 0.000000 0.000000
# 3 -0.002191 -0.002191 0.009294 0.000000 0.000000 0.000000
# 4 0.000000 0.000000 0.000000 0.017447 0.000000 0.000000
# 5 0.000000 0.000000 0.000000 0.000000 0.017451 0.000000
# 6 0.000000 0.000000 0.000000 0.000000 0.000000 0.090473
#
#
# Mechanical properties :
#
#
# Convention : Reuss Voigt Hill
#
# Bulk Modulus (GPa) = 36.81031 39.57883 38.19457
# Shear Modulus (GPa) = 20.91959 35.37746 28.14853
#
# Velocity S-wave (km/s) = 3.25793 4.23670 3.77913
# Velocity P-wave (km/s) = 5.72964 6.63432 6.19850
#
# Compressibility (1/GPa) = 0.02716630
#
# Stress axis : x y z
#
# Youngs Moduli (GPa) = 35.34659 35.34727 107.60065
#
# Poissons Ratio (x) = 0.52923 0.23578
# Poissons Ratio (y) = 0.52922 0.23577
# Poissons Ratio (z) = 0.07745 0.07745
#
# Static dielectric constant tensor:
#      x y z
#    x 1.703390 0.000000 0.000000 
#    y 0.000000 1.703400 0.000000 
#    z 0.000000 0.000000 1.817910 
# 
# From -- ./inp_files/6471.got.cif
#   From: 2010.05.17/outbox.cif.g08.bks.cpg/sg91_4_cif.got.tgz:6471.got - 2010.06.03 19:20:03.
