data_PCOD9548567
_publ_section_title
;
Structure prediction by ZEFSAII (Michael W. Deem and Ramdas Pophale) SiO2 
 PCOD9548567
Probable space group: P 41 2 2
;
_chemical_formula_sum "Si O2"
_cell_formula_units_Z 56
_cell_length_a 13.808042
_cell_length_b 13.808042
_cell_length_c 12.290206
_cell_angle_alpha 90.000000
_cell_angle_beta 90.000000
_cell_angle_gamma 90.000000
_cell_volume 2343.275550
_symmetry_space_group_name_H-M "P 41 2 2"
_symmetry_group_IT_number 91
_symmetry_cell_setting 'tetragonal'
loop_
_space_group_symop_operation_xyz
x,y,z
-y,x,1/4+z
-x,-y,1/2+z
y,-x,3/4+z
x,-y,1/2-z
-x,y,-z
y,x,3/4-z
-y,-x,1/4-z
loop_
_atom_site_type_symbol
_atom_site_label
_atom_site_fract_x
_atom_site_fract_y
_atom_site_fract_z
Si Si1 0.891614 0.452825 0.136677
Si Si2 0.108534 0.764251 0.690818
Si Si3 0.754216 0.239276 0.379129
Si Si4 0.672513 0.555577 0.636879
Si Si5 0.483033 0.326723 0.848223
Si Si6 0.225583 0.090618 0.448516
Si Si7 0.106120 0.369798 0.479352
O O1 0.933331 0.500000 0.250000
O O2 0.916388 0.338217 0.130882
O O3 0.776558 0.461063 0.146462
O O4 0.906352 0.522761 0.031225
O O5 0.139626 0.860375 0.625000
O O6 0.206636 0.746170 0.759090
O O7 0.023099 0.781578 0.778023
O O8 0.639860 0.249060 0.387117
O O9 0.782363 0.138374 0.432800
O O10 0.809725 0.319800 0.450672
O O11 0.667575 0.500000 0.750000
O O12 0.573327 0.611769 0.611750
O O13 0.688262 0.492748 0.530072
O O14 0.390826 0.390826 0.875000
O O15 0.143013 0.143013 0.375000
O O16 0.329845 0.120455 0.393506
O O17 0.000000 0.323281 0.500000
#
# Coordination Sequence:
#
# PCOD9548567 Si02
#       7
#     8   8   8   8   8   8   8
#     4  12  22  40  73 106 142 193 245 306 386 456
#     4  12  25  49  74 113 158 195 259 328 395 477
#     4  11  23  46  71 102 147 190 248 325 378 460
#     4  12  25  39  61  95 141 192 252 306 369 449
#     4  12  23  39  61  91 137 196 245 296 364 451
#     4  10  25  46  80 107 143 200 255 324 404 470
#     4  11  21  44  77 103 142 189 251 310 376 464
#
# _framework density 23.898171999999999
#
# number of rings (size 3 to 8) (size 9 to 14) (size 15 to 20)
#    0.000    0.571    4.286    4.714    2.000    1.714 
#    5.143    2.857    0.000    0.000    0.000    0.000 
#    0.000    0.000    0.000    0.000    0.000    0.000 
#
# Total GULP energy -312563.013370 kJ/mol
# GULP energy per Si atom -5581.482382 kJ/mol
# Density = 2.384378 g / cm^3
# Si number density = 23.898172 Si / 1000 Ang^3
#
#
#
# Elastic Constant Matrix: (Units=GPa)
#
#
# Indices 1 2 3 4 5 6 
#
# 1 66.2622 11.6040 26.0459 0.0000 0.0000 0.0000
# 2 11.6040 66.2594 26.0453 0.0000 0.0000 0.0000
# 3 26.0459 26.0453 96.1142 0.0000 0.0000 0.0000
# 4 0.0000 0.0000 0.0000 24.0470 0.0000 0.0000
# 5 0.0000 0.0000 0.0000 0.0000 24.0473 0.0000
# 6 0.0000 0.0000 0.0000 0.0000 0.0000 14.5183
#
#
#
# Elastic Compliance Matrix: (Units=1/GPa)
#
#
# Indices 1 2 3 4 5 6 
#
# 1 0.016991 -0.001305 -0.004251 0.000000 0.000000 0.000000
# 2 -0.001305 0.016992 -0.004251 0.000000 0.000000 0.000000
# 3 -0.004251 -0.004251 0.012708 0.000000 0.000000 0.000000
# 4 0.000000 0.000000 0.000000 0.041585 0.000000 0.000000
# 5 0.000000 0.000000 0.000000 0.000000 0.041585 0.000000
# 6 0.000000 0.000000 0.000000 0.000000 0.000000 0.068879
#
#
# Mechanical properties :
#
#
# Convention : Reuss Voigt Hill
#
# Bulk Modulus (GPa) = 36.93052 39.55850 38.24451
# Shear Modulus (GPa) = 21.98980 23.51855 22.75417
#
# Velocity S-wave (km/s) = 3.03668 3.14046 3.08901
# Velocity P-wave (km/s) = 5.27087 5.45334 5.36288
#
# Compressibility (1/GPa) = 0.02707787
#
# Stress axis : x y z
#
# Youngs Moduli (GPa) = 58.85498 58.85253 78.68984
#
# Poissons Ratio (x) = 0.07679 0.33449
# Poissons Ratio (y) = 0.07679 0.33450
# Poissons Ratio (z) = 0.25018 0.25017
#
# Static dielectric constant tensor:
#      x y z
#    x 1.953640 0.000000 0.000000 
#    y 0.000000 1.953640 0.000000 
#    z 0.000000 0.000000 1.959680 
# 
# From -- ./inp_files/15976.got.cif
#   From: 2010.05.17/outbox.cif.g08.bks.cpg/sg91_8_cif.got.tgz:15976.got - 2010.06.03 19:20:03.
