data_PCOD9548795
_publ_section_title
;
Structure prediction by ZEFSAII (Michael W. Deem and Ramdas Pophale) SiO2 
 PCOD9548795
Probable space group: P 41 2 2
;
_chemical_formula_sum "Si O2"
_cell_formula_units_Z 40
_cell_length_a 8.547745
_cell_length_b 8.547745
_cell_length_c 24.979529
_cell_angle_alpha 90.000000
_cell_angle_beta 90.000000
_cell_angle_gamma 90.000000
_cell_volume 1825.102923
_symmetry_space_group_name_H-M "P 41 2 2"
_symmetry_group_IT_number 91
_symmetry_cell_setting 'tetragonal'
loop_
_space_group_symop_operation_xyz
x,y,z
-y,x,1/4+z
-x,-y,1/2+z
y,-x,3/4+z
x,-y,1/2-z
-x,y,-z
y,x,3/4-z
-y,-x,1/4-z
loop_
_atom_site_type_symbol
_atom_site_label
_atom_site_fract_x
_atom_site_fract_y
_atom_site_fract_z
Si Si1 0.881669 0.318559 0.166267
Si Si2 0.391546 0.345810 0.058689
Si Si3 0.151231 0.848770 0.125000
Si Si4 0.500000 0.368062 0.500000
Si Si5 0.922070 0.841254 0.225702
Si Si6 0.816296 0.503060 0.640748
O O1 0.802633 0.197368 0.125000
O O2 0.746777 0.443083 0.185124
O O3 0.965775 0.249114 0.219451
O O4 0.024929 0.400554 0.136614
O O5 0.267422 0.211429 0.047472
O O6 0.333061 0.418878 0.113477
O O7 0.376803 0.494466 0.018062
O O8 0.138249 0.663473 0.115659
O O9 0.047764 0.877857 0.178638
O O10 0.491864 0.247496 0.450986
O O11 0.855892 0.000000 0.250000
#
# Coordination Sequence:
#
# PCOD9548795 Si02
#       6
#     8   8   4   4   8   8
#     4  12  26  48  80 110 151 207 255 327 395 467
#     4  12  25  46  74 112 149 195 263 317 383 471
#     4  12  26  50  70 112 150 206 246 322 392 474
#     4  12  22  44  76 110 142 198 256 326 380 456
#     4  12  28  48  72 108 156 200 255 313 399 473
#     4  12  26  46  75 108 153 194 261 317 394 464
#
# _framework density 21.916571000000001
#
# number of rings (size 3 to 8) (size 9 to 14) (size 15 to 20)
#    0.000    0.000    6.000    3.600    4.200    0.000 
#    0.000    3.000    0.000    0.000    0.000    0.000 
#    0.000    0.000    0.000    0.000    0.000    0.000 
#
# Total GULP energy -222727.066438 kJ/mol
# GULP energy per Si atom -5568.176661 kJ/mol
# Density = 2.186669 g / cm^3
# Si number density = 21.916571 Si / 1000 Ang^3
#
#
#
# Elastic Constant Matrix: (Units=GPa)
#
#
# Indices 1 2 3 4 5 6 
#
# 1 86.9833 55.0688 46.6343 0.0000 0.0000 0.0000
# 2 55.0688 86.9843 46.6340 0.0000 0.0000 0.0000
# 3 46.6343 46.6340 105.1812 0.0000 0.0000 0.0000
# 4 0.0000 0.0000 0.0000 34.1410 0.0000 0.0000
# 5 0.0000 0.0000 0.0000 0.0000 34.1406 0.0000
# 6 0.0000 0.0000 0.0000 0.0000 0.0000 39.0231
#
#
#
# Elastic Compliance Matrix: (Units=1/GPa)
#
#
# Indices 1 2 3 4 5 6 
#
# 1 0.020632 -0.010701 -0.004403 0.000000 0.000000 0.000000
# 2 -0.010701 0.020632 -0.004403 0.000000 0.000000 0.000000
# 3 -0.004403 -0.004403 0.013412 0.000000 0.000000 0.000000
# 4 0.000000 0.000000 0.000000 0.029290 0.000000 0.000000
# 5 0.000000 0.000000 0.000000 0.000000 0.029291 0.000000
# 6 0.000000 0.000000 0.000000 0.000000 0.000000 0.025626
#
#
# Mechanical properties :
#
#
# Convention : Reuss Voigt Hill
#
# Bulk Modulus (GPa) = 63.85265 63.98033 63.91649
# Shear Modulus (GPa) = 27.30501 30.18174 28.74338
#
# Velocity S-wave (km/s) = 3.53351 3.71498 3.62538
# Velocity P-wave (km/s) = 6.77091 6.90344 6.83750
#
# Compressibility (1/GPa) = 0.01566106
#
# Stress axis : x y z
#
# Youngs Moduli (GPa) = 48.46825 48.46921 74.56238
#
# Poissons Ratio (x) = 0.51869 0.32830
# Poissons Ratio (y) = 0.51868 0.32828
# Poissons Ratio (z) = 0.21341 0.21340
#
# Static dielectric constant tensor:
#      x y z
#    x 1.826660 0.000000 0.000000 
#    y 0.000000 1.826660 0.000000 
#    z 0.000000 0.000000 1.944470 
# 
# From -- ./inp_files/21735.got.cif
#   From: 2010.05.17/outbox.cif.g08.bks.cpg/sg91_11_cif.got.tgz:21735.got - 2010.06.03 19:20:03.
