data_PCOD9548210
_publ_section_title
;
Structure prediction by ZEFSAII (Michael W. Deem and Ramdas Pophale) SiO2 
 PCOD9548210
Probable space group: P 41 2 2
;
_chemical_formula_sum "Si O2"
_cell_formula_units_Z 48
_cell_length_a 8.657571
_cell_length_b 8.657571
_cell_length_c 30.473205
_cell_angle_alpha 90.000000
_cell_angle_beta 90.000000
_cell_angle_gamma 90.000000
_cell_volume 2284.074456
_symmetry_space_group_name_H-M "P 41 2 2"
_symmetry_group_IT_number 91
_symmetry_cell_setting 'tetragonal'
loop_
_space_group_symop_operation_xyz
x,y,z
-y,x,1/4+z
-x,-y,1/2+z
y,-x,3/4+z
x,-y,1/2-z
-x,y,-z
y,x,3/4-z
-y,-x,1/4-z
loop_
_atom_site_type_symbol
_atom_site_label
_atom_site_fract_x
_atom_site_fract_y
_atom_site_fract_z
Si Si1 0.132996 0.147293 0.707336
Si Si2 0.681798 0.060028 0.611618
Si Si3 0.759090 0.434749 0.799047
Si Si4 0.226071 0.226071 0.875000
Si Si5 0.539153 0.813345 0.677059
Si Si6 0.584707 0.000000 0.250000
Si Si7 0.009037 0.818068 0.703576
O O1 0.081192 0.252671 0.668020
O O2 0.110984 0.228778 0.754245
O O3 0.300962 0.070316 0.712409
O O4 0.012876 0.003376 0.704653
O O5 0.815323 0.184678 0.625000
O O6 0.555900 0.150035 0.580731
O O7 0.616577 0.962327 0.652914
O O8 0.728264 0.500000 0.750000
O O9 0.616948 0.355488 0.823877
O O10 0.856792 0.278192 0.791363
O O11 0.213330 0.376017 0.904185
O O12 0.081842 0.224090 0.842592
O O13 0.513148 0.867597 0.727121
#
# Coordination Sequence:
#
# PCOD9548210 Si02
#       7
#     8   8   8   4   8   4   8
#     4  10  21  43  74 102 127 175 239 292 333 403
#     4  12  28  45  71 106 139 183 236 299 351 410
#     4  12  27  47  65 104 145 188 223 284 363 426
#     4  12  22  46  68 108 132 184 238 284 342 426
#     4  12  28  44  73  99 146 187 230 290 352 427
#     4  10  24  46  72 102 132 188 238 288 346 422
#     4  10  21  42  74  97 133 173 239 285 334 408
#
# _framework density 21.015073999999998
#
# number of rings (size 3 to 8) (size 9 to 14) (size 15 to 20)
#    0.000    1.000    6.667    1.000    9.333    1.333 
#    3.000    0.833    0.000    0.000    0.000    0.000 
#    0.000    0.000    0.000    0.000    0.000    0.000 
#
# Total GULP energy -267530.303228 kJ/mol
# GULP energy per Si atom -5573.547984 kJ/mol
# Density = 2.096724 g / cm^3
# Si number density = 21.015074 Si / 1000 Ang^3
#
#
#
# Elastic Constant Matrix: (Units=GPa)
#
#
# Indices 1 2 3 4 5 6 
#
# 1 49.7571 12.4721 28.1076 0.0000 0.0000 0.0000
# 2 12.4721 49.7577 28.1072 0.0000 0.0000 0.0000
# 3 28.1076 28.1072 79.6451 0.0000 0.0000 0.0000
# 4 0.0000 0.0000 0.0000 46.7286 0.0000 0.0000
# 5 0.0000 0.0000 0.0000 0.0000 46.7287 0.0000
# 6 0.0000 0.0000 0.0000 0.0000 0.0000 16.1829
#
#
#
# Elastic Compliance Matrix: (Units=1/GPa)
#
#
# Indices 1 2 3 4 5 6 
#
# 1 0.025205 -0.001615 -0.008325 0.000000 0.000000 0.000000
# 2 -0.001615 0.025205 -0.008325 0.000000 0.000000 0.000000
# 3 -0.008325 -0.008325 0.018432 0.000000 0.000000 0.000000
# 4 0.000000 0.000000 0.000000 0.021400 0.000000 0.000000
# 5 0.000000 0.000000 0.000000 0.000000 0.021400 0.000000
# 6 0.000000 0.000000 0.000000 0.000000 0.000000 0.061794
#
#
# Mechanical properties :
#
#
# Convention : Reuss Voigt Hill
#
# Bulk Modulus (GPa) = 30.94897 35.17042 33.05970
# Shear Modulus (GPa) = 22.65140 29.29291 25.97215
#
# Velocity S-wave (km/s) = 3.28665 3.73755 3.51933
# Velocity P-wave (km/s) = 5.40016 5.94961 5.68153
#
# Compressibility (1/GPa) = 0.03231125
#
# Stress axis : x y z
#
# Youngs Moduli (GPa) = 39.67411 39.67495 54.25442
#
# Poissons Ratio (x) = 0.06408 0.45168
# Poissons Ratio (y) = 0.06408 0.45166
# Poissons Ratio (z) = 0.33030 0.33029
#
# Static dielectric constant tensor:
#      x y z
#    x 1.607900 0.000000 0.000000 
#    y 0.000000 1.607920 0.000000 
#    z 0.000000 0.000000 1.751970 
# 
# From -- ./inp_files/8037.got.cif
#   From: 2010.05.17/outbox.cif.g08.bks.cpg/sg91_5_cif.got.tgz:8037.got - 2010.06.03 19:20:03.
