data_PCOD9548584
_publ_section_title
;
Structure prediction by ZEFSAII (Michael W. Deem and Ramdas Pophale) SiO2 
 PCOD9548584
Probable space group: P 41 2 2
;
_chemical_formula_sum "Si O2"
_cell_formula_units_Z 32
_cell_length_a 7.876704
_cell_length_b 7.876704
_cell_length_c 20.662094
_cell_angle_alpha 90.000000
_cell_angle_beta 90.000000
_cell_angle_gamma 90.000000
_cell_volume 1281.927262
_symmetry_space_group_name_H-M "P 41 2 2"
_symmetry_group_IT_number 91
_symmetry_cell_setting 'tetragonal'
loop_
_space_group_symop_operation_xyz
x,y,z
-y,x,1/4+z
-x,-y,1/2+z
y,-x,3/4+z
x,-y,1/2-z
-x,y,-z
y,x,3/4-z
-y,-x,1/4-z
loop_
_atom_site_type_symbol
_atom_site_label
_atom_site_fract_x
_atom_site_fract_y
_atom_site_fract_z
Si Si1 0.801173 0.054696 0.064190
Si Si2 0.635015 0.364986 0.625000
Si Si3 0.241456 0.000000 0.250000
Si Si4 0.299488 0.322230 0.713429
Si Si5 0.421109 0.009241 0.385118
O O1 0.924319 0.075682 0.125000
O O2 0.856240 0.892267 0.022908
O O3 0.614890 0.028281 0.095568
O O4 0.801583 0.228279 0.020414
O O5 0.632725 0.025842 0.689507
O O6 0.809248 0.373310 0.664967
O O7 0.291820 0.500000 0.750000
O O8 0.471896 0.343136 0.671763
O O9 0.147271 0.315531 0.662400
#
# Coordination Sequence:
#
# PCOD9548584 Si02
#       5
#     8   4   4   8   8
#     4  11  28  50  81 117 169 222 281 357 445 521
#     4  12  26  44  84 114 156 212 274 348 428 496
#     4  12  28  48  86 116 164 218 290 356 438 536
#     4  10  26  48  75 116 157 208 276 339 420 513
#     4  11  27  50  76 119 158 213 278 352 428 510
#
# _framework density 24.962413999999999
#
# number of rings (size 3 to 8) (size 9 to 14) (size 15 to 20)
#    0.000    1.000    0.000    3.000   19.250    5.000 
#    0.000    0.000    0.000    0.000    0.000    0.000 
#    0.000    0.000    0.000    0.000    0.000    0.000 
#
# Total GULP energy -178621.827414 kJ/mol
# GULP energy per Si atom -5581.932107 kJ/mol
# Density = 2.490560 g / cm^3
# Si number density = 24.962414 Si / 1000 Ang^3
#
#
#
# Elastic Constant Matrix: (Units=GPa)
#
#
# Indices 1 2 3 4 5 6 
#
# 1 148.3401 43.3247 81.7441 0.0000 0.0000 0.0000
# 2 43.3247 148.3424 81.7455 0.0000 0.0000 0.0000
# 3 81.7441 81.7455 186.4073 0.0000 0.0000 0.0000
# 4 0.0000 0.0000 0.0000 47.7419 0.0000 0.0000
# 5 0.0000 0.0000 0.0000 0.0000 47.7423 0.0000
# 6 0.0000 0.0000 0.0000 0.0000 0.0000 30.4175
#
#
#
# Elastic Compliance Matrix: (Units=1/GPa)
#
#
# Indices 1 2 3 4 5 6 
#
# 1 0.008929 -0.000593 -0.003655 0.000000 0.000000 0.000000
# 2 -0.000593 0.008929 -0.003655 0.000000 0.000000 0.000000
# 3 -0.003655 -0.003655 0.008570 0.000000 0.000000 0.000000
# 4 0.000000 0.000000 0.000000 0.020946 0.000000 0.000000
# 5 0.000000 0.000000 0.000000 0.000000 0.020946 0.000000
# 6 0.000000 0.000000 0.000000 0.000000 0.000000 0.032876
#
#
# Mechanical properties :
#
#
# Convention : Reuss Voigt Hill
#
# Bulk Modulus (GPa) = 94.16161 99.63539 96.89850
# Shear Modulus (GPa) = 41.47874 43.59873 42.53873
#
# Velocity S-wave (km/s) = 4.08075 4.18374 4.13257
# Velocity P-wave (km/s) = 7.74640 7.95858 7.85321
#
# Compressibility (1/GPa) = 0.01062004
#
# Stress axis : x y z
#
# Youngs Moduli (GPa) = 111.99629 111.99741 116.67966
#
# Poissons Ratio (x) = 0.06647 0.42649
# Poissons Ratio (y) = 0.06647 0.42650
# Poissons Ratio (z) = 0.40938 0.40938
#
# Static dielectric constant tensor:
#      x y z
#    x 1.973120 0.000000 0.000000 
#    y 0.000000 1.973120 0.000000 
#    z 0.000000 0.000000 2.009810 
# 
# From -- ./inp_files/12695.got.cif
#   From: 2010.05.17/outbox.cif.g08.bks.cpg/sg91_7_cif.got.tgz:12695.got - 2010.06.03 19:20:03.
