data_PCOD9548134
_publ_section_title
;
Structure prediction by ZEFSAII (Michael W. Deem and Ramdas Pophale) SiO2 
 PCOD9548134
Probable space group: P 41 2 2
;
_chemical_formula_sum "Si O2"
_cell_formula_units_Z 44
_cell_length_a 9.071030
_cell_length_b 9.071030
_cell_length_c 25.234053
_cell_angle_alpha 90.000000
_cell_angle_beta 90.000000
_cell_angle_gamma 90.000000
_cell_volume 2076.348352
_symmetry_space_group_name_H-M "P 41 2 2"
_symmetry_group_IT_number 91
_symmetry_cell_setting 'tetragonal'
loop_
_space_group_symop_operation_xyz
x,y,z
-y,x,1/4+z
-x,-y,1/2+z
y,-x,3/4+z
x,-y,1/2-z
-x,y,-z
y,x,3/4-z
-y,-x,1/4-z
loop_
_atom_site_type_symbol
_atom_site_label
_atom_site_fract_x
_atom_site_fract_y
_atom_site_fract_z
Si Si1 0.206570 0.082917 0.076767
Si Si2 0.101929 0.560660 0.552064
Si Si3 0.353632 0.237630 0.979472
Si Si4 0.767838 0.760778 0.060365
Si Si5 0.056789 0.000000 0.250000
Si Si6 0.484014 0.041251 0.585631
O O1 0.338647 0.961861 0.081006
O O2 0.196816 0.158143 0.133403
O O3 0.053353 0.031004 0.051694
O O4 0.269660 0.193167 0.032851
O O5 0.229905 0.682442 0.554786
O O6 0.194290 0.408491 0.550689
O O7 0.000000 0.575468 0.500000
O O8 0.998826 0.554720 0.603749
O O9 0.416247 0.094358 0.948815
O O10 0.500000 0.322611 0.000000
O O11 0.599900 0.814277 0.065092
O O12 0.858100 0.849738 0.016247
#
# Coordination Sequence:
#
# PCOD9548134 Si02
#       6
#     8   8   8   8   4   8
#     4  10  23  38  63  93 121 160 219 256 309 380
#     4  11  23  39  61  92 127 161 208 265 313 371
#     4  10  21  39  59  90 120 163 214 259 304 383
#     4  11  23  40  60  93 126 163 204 260 316 379
#     4  12  22  38  62  92 128 158 208 264 312 374
#     4  10  22  41  64  87 126 167 210 256 316 380
#
# _framework density 21.191050000000001
#
# number of rings (size 3 to 8) (size 9 to 14) (size 15 to 20)
#    0.000    1.455    2.727    2.182    3.818    1.455 
#    3.273    0.000    0.000    4.364    0.000    0.000 
#    0.000    0.000    0.000    0.000    0.000    0.000 
#
# Total GULP energy -245649.753327 kJ/mol
# GULP energy per Si atom -5582.948939 kJ/mol
# Density = 2.114282 g / cm^3
# Si number density = 21.191050 Si / 1000 Ang^3
#
#
#
# Elastic Constant Matrix: (Units=GPa)
#
#
# Indices 1 2 3 4 5 6 
#
# 1 44.2216 32.6223 -4.5398 0.0000 0.0000 0.0000
# 2 32.6223 44.2216 -4.5398 0.0000 0.0000 0.0000
# 3 -4.5398 -4.5398 93.1295 0.0000 0.0000 0.0000
# 4 0.0000 0.0000 0.0000 23.8613 0.0000 0.0000
# 5 0.0000 0.0000 0.0000 0.0000 23.8613 0.0000
# 6 0.0000 0.0000 0.0000 0.0000 0.0000 61.7500
#
#
#
# Elastic Compliance Matrix: (Units=1/GPa)
#
#
# Indices 1 2 3 4 5 6 
#
# 1 0.049651 -0.036562 0.000638 0.000000 0.000000 0.000000
# 2 -0.036562 0.049651 0.000638 0.000000 0.000000 0.000000
# 3 0.000638 0.000638 0.010800 0.000000 0.000000 0.000000
# 4 0.000000 0.000000 0.000000 0.041909 0.000000 0.000000
# 5 0.000000 0.000000 0.000000 0.000000 0.041909 0.000000
# 6 0.000000 0.000000 0.000000 0.000000 0.000000 0.016194
#
#
# Mechanical properties :
#
#
# Convention : Reuss Voigt Hill
#
# Bulk Modulus (GPa) = 25.29745 25.40646 25.35196
# Shear Modulus (GPa) = 17.01484 32.42986 24.72235
#
# Velocity S-wave (km/s) = 2.83667 3.91622 3.41932
# Velocity P-wave (km/s) = 4.76368 5.69775 5.25152
#
# Compressibility (1/GPa) = 0.03952967
#
# Stress axis : x y z
#
# Youngs Moduli (GPa) = 20.14075 20.14075 92.59310
#
# Poissons Ratio (x) = 0.73638 -0.05908
# Poissons Ratio (y) = 0.73638 -0.05908
# Poissons Ratio (z) = -0.01285 -0.01285
#
# Static dielectric constant tensor:
#      x y z
#    x 1.819340 0.000000 0.000000 
#    y 0.000000 1.819340 0.000000 
#    z 0.000000 0.000000 1.762950 
# 
# From -- ./inp_files/7814.got.cif
#   From: 2010.05.17/outbox.cif.g08.bks.cpg/sg91_4_cif.got.tgz:7814.got - 2010.06.03 19:20:03.
