data_PCOD9548708
_publ_section_title
;
Structure prediction by ZEFSAII (Michael W. Deem and Ramdas Pophale) SiO2 
 PCOD9548708
Probable space group: P 41 2 2
;
_chemical_formula_sum "Si O2"
_cell_formula_units_Z 36
_cell_length_a 13.039933
_cell_length_b 13.039933
_cell_length_c 10.872901
_cell_angle_alpha 90.000000
_cell_angle_beta 90.000000
_cell_angle_gamma 90.000000
_cell_volume 1848.826484
_symmetry_space_group_name_H-M "P 41 2 2"
_symmetry_group_IT_number 91
_symmetry_cell_setting 'tetragonal'
loop_
_space_group_symop_operation_xyz
x,y,z
-y,x,1/4+z
-x,-y,1/2+z
y,-x,3/4+z
x,-y,1/2-z
-x,y,-z
y,x,3/4-z
-y,-x,1/4-z
loop_
_atom_site_type_symbol
_atom_site_label
_atom_site_fract_x
_atom_site_fract_y
_atom_site_fract_z
Si Si1 0.207019 0.840759 0.489172
Si Si2 0.065731 0.000000 0.250000
Si Si3 0.213837 0.911473 0.979055
Si Si4 0.577431 0.884661 0.893428
Si Si5 0.572989 0.866019 0.613948
O O1 0.203602 0.796399 0.625000
O O2 0.118329 0.781569 0.413928
O O3 0.314324 0.826375 0.420573
O O4 0.198358 0.966057 0.500146
O O5 0.134086 0.100617 0.254904
O O6 0.000553 0.000553 0.375000
O O7 0.307400 0.868407 0.056060
O O8 0.552961 0.841164 0.757820
O O9 0.570623 0.009242 0.887718
O O10 0.500000 0.849611 0.000000
O O11 0.500000 0.833570 0.500000
#
# Coordination Sequence:
#
# PCOD9548708 Si02
#       5
#     8   4   8   8   8
#     4  11  23  34  51  80 117 152 194 231 283 344
#     4  12  24  34  50  72 116 158 196 232 274 344
#     4  11  23  33  53  76 116 158 193 235 281 336
#     4   9  20  36  55  76 101 146 200 246 286 330
#     4   9  20  36  55  74 103 143 192 242 288 332
#
# _framework density 19.471810999999999
#
# number of rings (size 3 to 8) (size 9 to 14) (size 15 to 20)
#    0.000    1.778    2.222    1.333    6.222    0.000 
#    0.000    0.000    0.000    0.000    0.000    0.000 
#    0.000    1.778    0.000    0.000    0.000    0.000 
#
# Total GULP energy -200548.282579 kJ/mol
# GULP energy per Si atom -5570.785627 kJ/mol
# Density = 1.942749 g / cm^3
# Si number density = 19.471811 Si / 1000 Ang^3
#
#
#
# Elastic Constant Matrix: (Units=GPa)
#
#
# Indices 1 2 3 4 5 6 
#
# 1 77.5567 4.4248 46.7989 0.0000 0.0000 0.0000
# 2 4.4248 77.5573 46.7989 0.0000 0.0000 0.0000
# 3 46.7989 46.7989 213.1841 0.0000 0.0000 0.0000
# 4 0.0000 0.0000 0.0000 25.8025 0.0000 0.0000
# 5 0.0000 0.0000 0.0000 0.0000 25.8027 0.0000
# 6 0.0000 0.0000 0.0000 0.0000 0.0000 4.5485
#
#
#
# Elastic Compliance Matrix: (Units=1/GPa)
#
#
# Indices 1 2 3 4 5 6 
#
# 1 0.014976 0.001302 -0.003573 0.000000 0.000000 0.000000
# 2 0.001302 0.014976 -0.003573 0.000000 0.000000 0.000000
# 3 -0.003573 -0.003573 0.006260 0.000000 0.000000 0.000000
# 4 0.000000 0.000000 0.000000 0.038756 0.000000 0.000000
# 5 0.000000 0.000000 0.000000 0.000000 0.038756 0.000000
# 6 0.000000 0.000000 0.000000 0.000000 0.000000 0.219854
#
#
# Mechanical properties :
#
#
# Convention : Reuss Voigt Hill
#
# Bulk Modulus (GPa) = 40.78084 62.70482 51.74283
# Shear Modulus (GPa) = 14.14669 29.24911 21.69790
#
# Velocity S-wave (km/s) = 2.69833 3.87993 3.34177
# Velocity P-wave (km/s) = 5.54049 7.23496 6.44366
#
# Compressibility (1/GPa) = 0.02452132
#
# Stress axis : x y z
#
# Youngs Moduli (GPa) = 66.77490 66.77542 159.75428
#
# Poissons Ratio (x) = -0.08693 0.57085
# Poissons Ratio (y) = -0.08692 0.57084
# Poissons Ratio (z) = 0.23861 0.23861
#
# Static dielectric constant tensor:
#      x y z
#    x 1.709090 0.000000 0.000000 
#    y 0.000000 1.709090 0.000000 
#    z 0.000000 0.000000 1.880790 
# 
# From -- ./inp_files/20046.got.cif
#   From: 2010.05.17/outbox.cif.g08.bks.cpg/sg91_11_cif.got.tgz:20046.got - 2010.06.03 19:20:03.
