data_PCOD9548926
_publ_section_title
;
Structure prediction by ZEFSAII (Michael W. Deem and Ramdas Pophale) SiO2 
 PCOD9548926
Probable space group: P 41 21 2
;
_chemical_formula_sum "Si O2"
_cell_formula_units_Z 28
_cell_length_a 11.978026
_cell_length_b 11.978026
_cell_length_c 7.109160
_cell_angle_alpha 90.000000
_cell_angle_beta 90.000000
_cell_angle_gamma 90.000000
_cell_volume 1019.973272
_symmetry_space_group_name_H-M "P 41 21 2"
_symmetry_group_IT_number 92
_symmetry_cell_setting 'tetragonal'
loop_
_space_group_symop_operation_xyz
x,y,z
1/2-y,1/2+x,1/4+z
-x,-y,1/2+z
1/2+y,1/2-x,3/4+z
1/2+x,1/2-y,3/4-z
1/2-x,1/2+y,1/4-z
y,x,-z
-y,-x,1/2-z
loop_
_atom_site_type_symbol
_atom_site_label
_atom_site_fract_x
_atom_site_fract_y
_atom_site_fract_z
Si Si1 0.041536 0.958465 0.750000
Si Si2 0.000560 0.341954 0.634881
Si Si3 0.902740 0.769492 0.774019
Si Si4 0.274386 0.404321 0.232153
O O1 0.920686 0.902389 0.748731
O O2 0.095315 0.899207 0.564707
O O3 0.917672 0.421433 0.517523
O O4 0.067895 0.275479 0.477909
O O5 0.938567 0.257947 0.774510
O O6 0.998589 0.724881 0.625732
O O7 0.782687 0.716501 0.744648
#
# Coordination Sequence:
#
# PCOD9548926 Si02
#       4
#     4   8   8   8
#     4   8  20  36  48  76 104 148 188 220 274 324
#     4  12  18  26  48  78 109 141 166 214 278 346
#     4  10  19  33  48  74 110 139 179 223 272 321
#     4  10  19  33  48  74 110 139 179 223 272 321
#
# _framework density 27.451699999999999
#
# number of rings (size 3 to 8) (size 9 to 14) (size 15 to 20)
#    1.714    0.000    5.714    1.714    0.000    1.143 
#    0.000    0.000    0.000    0.000    0.000   12.000 
#    0.000    0.000    0.000    0.000    0.000    0.000 
#
# Total GULP energy -156567.557135 kJ/mol
# GULP energy per Si atom -5591.698469 kJ/mol
# Density = 2.738922 g / cm^3
# Si number density = 27.451700 Si / 1000 Ang^3
#
#
#
# Elastic Constant Matrix: (Units=GPa)
#
#
# Indices 1 2 3 4 5 6 
#
# 1 82.5039 64.7313 32.9003 0.0000 0.0000 0.0000
# 2 64.7313 82.5031 32.9001 0.0000 0.0000 0.0000
# 3 32.9003 32.9001 198.3339 0.0000 0.0000 0.0000
# 4 0.0000 0.0000 0.0000 48.5356 0.0000 0.0000
# 5 0.0000 0.0000 0.0000 0.0000 48.5356 0.0000
# 6 0.0000 0.0000 0.0000 0.0000 0.0000 53.1719
#
#
#
# Elastic Compliance Matrix: (Units=1/GPa)
#
#
# Indices 1 2 3 4 5 6 
#
# 1 0.031802 -0.024466 -0.001217 0.000000 0.000000 0.000000
# 2 -0.024466 0.031802 -0.001217 0.000000 0.000000 0.000000
# 3 -0.001217 -0.001217 0.005446 0.000000 0.000000 0.000000
# 4 0.000000 0.000000 0.000000 0.020603 0.000000 0.000000
# 5 0.000000 0.000000 0.000000 0.000000 0.020603 0.000000
# 6 0.000000 0.000000 0.000000 0.000000 0.000000 0.018807
#
#
# Mechanical properties :
#
#
# Convention : Reuss Voigt Hill
#
# Bulk Modulus (GPa) = 65.57527 69.37826 67.47677
# Shear Modulus (GPa) = 26.60348 45.56923 36.08635
#
# Velocity S-wave (km/s) = 3.11642 4.07870 3.62959
# Velocity P-wave (km/s) = 6.07361 6.89266 6.49606
#
# Compressibility (1/GPa) = 0.01524965
#
# Stress axis : x y z
#
# Youngs Moduli (GPa) = 31.44506 31.44478 183.63055
#
# Poissons Ratio (x) = 0.76933 0.22346
# Poissons Ratio (y) = 0.76933 0.22345
# Poissons Ratio (z) = 0.03826 0.03826
#
# Static dielectric constant tensor:
#      x y z
#    x 2.260610 0.000000 0.000000 
#    y 0.000000 2.260610 0.000000 
#    z 0.000000 0.000000 2.088110 
# 
# From -- ./inp_files/288.got.cif
#   From: 2010.05.17/outbox.cif.g08.bks.cpg/sg92_1_cif.got.tgz:288.got - 2010.06.03 19:35:17.
