data_PCOD9548250
_publ_section_title
;
Structure prediction by ZEFSAII (Michael W. Deem and Ramdas Pophale) SiO2 
 PCOD9548250
Probable space group: P 41 2 2
;
_chemical_formula_sum "Si O2"
_cell_formula_units_Z 48
_cell_length_a 12.155902
_cell_length_b 12.155902
_cell_length_c 16.060140
_cell_angle_alpha 90.000000
_cell_angle_beta 90.000000
_cell_angle_gamma 90.000000
_cell_volume 2373.141899
_symmetry_space_group_name_H-M "P 41 2 2"
_symmetry_group_IT_number 91
_symmetry_cell_setting 'tetragonal'
loop_
_space_group_symop_operation_xyz
x,y,z
-y,x,1/4+z
-x,-y,1/2+z
y,-x,3/4+z
x,-y,1/2-z
-x,y,-z
y,x,3/4-z
-y,-x,1/4-z
loop_
_atom_site_type_symbol
_atom_site_label
_atom_site_fract_x
_atom_site_fract_y
_atom_site_fract_z
Si Si1 0.693055 0.547638 0.656692
Si Si2 0.078580 0.366669 0.750525
Si Si3 0.078275 0.364810 0.100729
Si Si4 0.959549 0.399923 0.422094
Si Si5 0.221365 0.272690 0.963265
Si Si6 0.522065 0.285171 0.781449
O O1 0.706451 0.500000 0.750000
O O2 0.802951 0.619538 0.643288
O O3 0.583819 0.621076 0.666839
O O4 0.691971 0.475846 0.569905
O O5 0.089631 0.500000 0.750000
O O6 0.018036 0.342556 0.664696
O O7 0.196080 0.310142 0.742541
O O8 0.009741 0.328162 0.830453
O O9 0.031519 0.486889 0.079711
O O10 0.113517 0.296122 0.018812
O O11 0.832037 0.427806 0.439516
O O12 0.000000 0.331342 0.500000
O O13 0.211952 0.211952 0.875000
O O14 0.271550 0.393378 0.948639
#
# Coordination Sequence:
#
# PCOD9548250 Si02
#       6
#     8   8   8   8   8   8
#     4  11  22  39  56  83 127 177 208 243 315 388
#     4  10  22  36  61  91 126 166 211 264 317 369
#     4  10  22  38  59  86 126 151 214 264 308 377
#     4  11  18  36  61  84 117 159 208 269 305 363
#     4  11  22  36  58  87 125 157 204 260 317 367
#     4  11  24  37  58  86 129 163 212 259 311 384
#
# _framework density 20.226348999999999
#
# number of rings (size 3 to 8) (size 9 to 14) (size 15 to 20)
#    0.000    1.333    3.333    6.000    0.000    2.000 
#    0.000    0.000    0.000    0.000    0.000    0.000 
#   90.000    0.000    0.000    0.000    0.000    0.000 
#
# Total GULP energy -267291.409867 kJ/mol
# GULP energy per Si atom -5568.571039 kJ/mol
# Density = 2.018031 g / cm^3
# Si number density = 20.226349 Si / 1000 Ang^3
#
#
#
# Elastic Constant Matrix: (Units=GPa)
#
#
# Indices 1 2 3 4 5 6 
#
# 1 71.2451 34.8850 42.0270 0.0000 0.0000 0.0000
# 2 34.8850 71.2451 42.0270 0.0000 0.0000 0.0000
# 3 42.0270 42.0270 133.7455 0.0000 0.0000 0.0000
# 4 0.0000 0.0000 0.0000 33.0797 0.0000 0.0000
# 5 0.0000 0.0000 0.0000 0.0000 33.0797 0.0000
# 6 0.0000 0.0000 0.0000 0.0000 0.0000 -77.9877
#
#
#
# Elastic Compliance Matrix: (Units=1/GPa)
#
#
# Indices 1 2 3 4 5 6 
#
# 1 0.020023 -0.007479 -0.003942 0.000000 0.000000 0.000000
# 2 -0.007479 0.020023 -0.003942 0.000000 0.000000 0.000000
# 3 -0.003942 -0.003942 0.009954 0.000000 0.000000 0.000000
# 4 0.000000 0.000000 0.000000 0.030230 0.000000 0.000000
# 5 0.000000 0.000000 0.000000 0.000000 0.030230 0.000000
# 6 0.000000 0.000000 0.000000 0.000000 0.000000 -0.012823
#
#
# Mechanical properties :
#
#
# Convention : Reuss Voigt Hill
#
# Bulk Modulus (GPa) = 51.87933 57.12373 54.50153
# Shear Modulus (GPa) = 37.09495 8.12081 22.60788
#
# Velocity S-wave (km/s) = 4.28716 2.00591 3.34689
# Velocity P-wave (km/s) = 7.08600 5.80245 6.47610
#
# Compressibility (1/GPa) = 0.01927550
#
# Stress axis : x y z
#
# Youngs Moduli (GPa) = 49.94145 49.94145 100.46060
#
# Poissons Ratio (x) = 0.37352 0.39600
# Poissons Ratio (y) = 0.37352 0.39600
# Poissons Ratio (z) = 0.19686 0.19686
#
# Static dielectric constant tensor:
#      x y z
#    x 1.721040 0.000000 0.000000 
#    y 0.000000 1.721040 0.000000 
#    z 0.000000 0.000000 1.887930 
# 
# From -- ./inp_files/11950.got.cif
#   From: 2010.05.17/outbox.cif.g08.bks.cpg/sg91_6_cif.got.tgz:11950.got - 2010.06.03 19:20:03.
