data_PCOD9548447
_publ_section_title
;
Structure prediction by ZEFSAII (Michael W. Deem and Ramdas Pophale) SiO2 
 PCOD9548447
Probable space group: P 41 2 2
;
_chemical_formula_sum "Si O2"
_cell_formula_units_Z 48
_cell_length_a 12.476914
_cell_length_b 12.476914
_cell_length_c 16.197900
_cell_angle_alpha 90.000000
_cell_angle_beta 90.000000
_cell_angle_gamma 90.000000
_cell_volume 2521.581890
_symmetry_space_group_name_H-M "P 41 2 2"
_symmetry_group_IT_number 91
_symmetry_cell_setting 'tetragonal'
loop_
_space_group_symop_operation_xyz
x,y,z
-y,x,1/4+z
-x,-y,1/2+z
y,-x,3/4+z
x,-y,1/2-z
-x,y,-z
y,x,3/4-z
-y,-x,1/4-z
loop_
_atom_site_type_symbol
_atom_site_label
_atom_site_fract_x
_atom_site_fract_y
_atom_site_fract_z
Si Si1 0.901474 0.340162 0.101888
Si Si2 0.125124 0.553019 0.004288
Si Si3 0.880825 0.063424 0.532491
Si Si4 0.886672 0.560450 0.670613
Si Si5 0.784559 0.170155 0.997273
Si Si6 0.246168 0.245508 0.184889
O O1 0.839454 0.310951 0.185998
O O2 0.023759 0.362712 0.128702
O O3 0.866880 0.446841 0.052937
O O4 0.877802 0.238629 0.042840
O O5 0.145223 0.520724 0.098629
O O6 0.203324 0.644517 0.973356
O O7 0.000000 0.589211 0.000000
O O8 0.891123 0.108878 0.625000
O O9 0.824042 0.150786 0.475189
O O10 0.000000 0.044669 0.500000
O O11 0.820629 0.950053 0.525705
O O12 0.933724 0.500000 0.750000
O O13 0.787775 0.632343 0.699611
O O14 0.751881 0.227003 0.913186
#
# Coordination Sequence:
#
# PCOD9548447 Si02
#       6
#     8   8   8   8   8   8
#     4  10  23  42  66  94 130 174 231 271 319 396
#     4  10  24  41  66  96 132 173 226 277 321 401
#     4  12  26  36  57  95 141 177 207 257 333 415
#     4  11  25  42  65  95 131 180 228 275 335 395
#     4  11  24  39  65  97 133 178 216 275 333 400
#     4  12  25  42  64  94 135 174 225 272 343 400
#
# _framework density 19.035668000000001
#
# number of rings (size 3 to 8) (size 9 to 14) (size 15 to 20)
#    0.000    1.000    5.000    0.500   11.667    0.000 
#    0.000    0.000    0.000    4.000    0.000    0.000 
#    0.000    0.000    0.000    0.000    0.000    0.000 
#
# Total GULP energy -268218.967942 kJ/mol
# GULP energy per Si atom -5587.895165 kJ/mol
# Density = 1.899234 g / cm^3
# Si number density = 19.035668 Si / 1000 Ang^3
#
#
#
# Elastic Constant Matrix: (Units=GPa)
#
#
# Indices 1 2 3 4 5 6 
#
# 1 69.9531 27.6629 22.9323 0.0000 0.0000 0.0000
# 2 27.6629 69.9533 22.9327 0.0000 0.0000 0.0000
# 3 22.9323 22.9327 97.3383 0.0000 0.0000 0.0000
# 4 0.0000 0.0000 0.0000 25.7944 0.0000 0.0000
# 5 0.0000 0.0000 0.0000 0.0000 25.7941 0.0000
# 6 0.0000 0.0000 0.0000 0.0000 0.0000 -10.1552
#
#
#
# Elastic Compliance Matrix: (Units=1/GPa)
#
#
# Indices 1 2 3 4 5 6 
#
# 1 0.017583 -0.006063 -0.002714 0.000000 0.000000 0.000000
# 2 -0.006063 0.017583 -0.002714 0.000000 0.000000 0.000000
# 3 -0.002714 -0.002714 0.011552 0.000000 0.000000 0.000000
# 4 0.000000 0.000000 0.000000 0.038768 0.000000 0.000000
# 5 0.000000 0.000000 0.000000 0.000000 0.038769 0.000000
# 6 0.000000 0.000000 0.000000 0.000000 0.000000 -0.098471
#
#
# Mechanical properties :
#
#
# Convention : Reuss Voigt Hill
#
# Bulk Modulus (GPa) = 42.13139 42.70005 42.41572
# Shear Modulus (GPa) = 88.21927 19.20111 53.71019
#
# Velocity S-wave (km/s) = 6.81504 3.17944 5.31759
# Velocity P-wave (km/s) = 9.17100 5.99656 7.74810
#
# Compressibility (1/GPa) = 0.02373527
#
# Stress axis : x y z
#
# Youngs Moduli (GPa) = 56.87407 56.87409 86.56344
#
# Poissons Ratio (x) = 0.34485 0.23492
# Poissons Ratio (y) = 0.34485 0.23493
# Poissons Ratio (z) = 0.15435 0.15435
#
# Static dielectric constant tensor:
#      x y z
#    x 1.660070 0.000000 0.000000 
#    y 0.000000 1.660070 0.000000 
#    z 0.000000 0.000000 1.710220 
# 
# From -- ./inp_files/11948.got.cif
#   From: 2010.05.17/outbox.cif.g08.bks.cpg/sg91_6_cif.got.tgz:11948.got - 2010.06.03 19:20:03.
