data_PCOD9548544
_publ_section_title
;
Structure prediction by ZEFSAII (Michael W. Deem and Ramdas Pophale) SiO2 
 PCOD9548544
Probable space group: P 41 2 2
;
_chemical_formula_sum "Si O2"
_cell_formula_units_Z 40
_cell_length_a 8.436541
_cell_length_b 8.436541
_cell_length_c 23.780842
_cell_angle_alpha 90.000000
_cell_angle_beta 90.000000
_cell_angle_gamma 90.000000
_cell_volume 1692.606757
_symmetry_space_group_name_H-M "P 41 2 2"
_symmetry_group_IT_number 91
_symmetry_cell_setting 'tetragonal'
loop_
_space_group_symop_operation_xyz
x,y,z
-y,x,1/4+z
-x,-y,1/2+z
y,-x,3/4+z
x,-y,1/2-z
-x,y,-z
y,x,3/4-z
-y,-x,1/4-z
loop_
_atom_site_type_symbol
_atom_site_label
_atom_site_fract_x
_atom_site_fract_y
_atom_site_fract_z
Si Si1 0.058161 0.696902 0.851726
Si Si2 0.532071 0.789756 0.061096
Si Si3 0.702092 0.508056 0.413669
Si Si4 0.824310 0.268195 0.004075
Si Si5 0.940638 0.120110 0.802827
O O1 0.896405 0.615673 0.830289
O O2 0.134718 0.559751 0.890010
O O3 0.171434 0.750346 0.799102
O O4 0.053307 0.844309 0.894219
O O5 0.583731 0.638605 0.096359
O O6 0.695735 0.886992 0.052044
O O7 0.500000 0.722273 0.000000
O O8 0.649113 0.649113 0.375000
O O9 0.715926 0.588688 0.474491
O O10 0.000000 0.340962 0.000000
O O11 0.862159 0.129912 0.049876
O O12 0.903801 0.000000 0.750000
#
# Coordination Sequence:
#
# PCOD9548544 Si02
#       5
#     8   8   8   8   8
#     4  11  26  49  77 108 159 202 267 332 390 482
#     4  11  24  47  70 107 153 201 254 329 393 460
#     4  11  28  42  74 110 153 204 250 322 406 468
#     4  11  26  47  80 111 151 205 269 321 387 490
#     4  10  24  47  76 115 143 209 266 322 390 470
#
# _framework density 23.632186000000001
#
# number of rings (size 3 to 8) (size 9 to 14) (size 15 to 20)
#    0.000    1.200    2.000    1.200   11.200    7.200 
#    0.000    0.000    0.000    0.000    0.000    0.000 
#    0.000    0.000    0.000    0.000    0.000    0.000 
#
# Total GULP energy -222952.802201 kJ/mol
# GULP energy per Si atom -5573.820055 kJ/mol
# Density = 2.357840 g / cm^3
# Si number density = 23.632186 Si / 1000 Ang^3
#
#
#
# Elastic Constant Matrix: (Units=GPa)
#
#
# Indices 1 2 3 4 5 6 
#
# 1 -59.7496 175.2749 41.5263 0.0000 0.0000 0.0000
# 2 175.2749 -59.7496 41.5263 0.0000 0.0000 0.0000
# 3 41.5263 41.5263 91.7152 0.0000 0.0000 0.0000
# 4 0.0000 0.0000 0.0000 -82.9879 0.0000 0.0000
# 5 0.0000 0.0000 0.0000 0.0000 -82.9879 0.0000
# 6 0.0000 0.0000 0.0000 0.0000 0.0000 87.8060
#
#
#
# Elastic Compliance Matrix: (Units=1/GPa)
#
#
# Indices 1 2 3 4 5 6 
#
# 1 0.004289 0.008544 -0.005811 0.000000 0.000000 0.000000
# 2 0.008544 0.004289 -0.005811 0.000000 0.000000 0.000000
# 3 -0.005811 -0.005811 0.016165 0.000000 0.000000 0.000000
# 4 0.000000 0.000000 0.000000 -0.012050 0.000000 0.000000
# 5 0.000000 0.000000 0.000000 0.000000 -0.012050 0.000000
# 6 0.000000 0.000000 0.000000 0.000000 0.000000 0.011389
#
#
# Mechanical properties :
#
#
# Convention : Reuss Voigt Hill
#
# Bulk Modulus (GPa) = 53.79399 54.31899 54.05649
# Shear Modulus (GPa) = 205.05755 -34.70806 85.17474
#
# Velocity S-wave (km/s) = 9.32517 -3.83649 6.01000
# Velocity P-wave (km/s) = 11.77954 1.84667 8.43112
#
# Compressibility (1/GPa) = 0.01858944
#
# Stress axis : x y z
#
# Youngs Moduli (GPa) = 233.13847 233.13847 61.86142
#
# Poissons Ratio (x) = -1.99198 0.35946
# Poissons Ratio (y) = -1.99198 0.35946
# Poissons Ratio (z) = 1.35469 1.35469
#
# Static dielectric constant tensor:
#      x y z
#    x 1.993730 0.000000 0.000000 
#    y 0.000000 1.993730 0.000000 
#    z 0.000000 0.000000 1.939940 
# 
# From -- ./inp_files/6768.got.cif
#   From: 2010.05.17/outbox.cif.g08.bks.cpg/sg91_4_cif.got.tgz:6768.got - 2010.06.03 19:20:03.
