data_PCOD9548206
_publ_section_title
;
Structure prediction by ZEFSAII (Michael W. Deem and Ramdas Pophale) SiO2 
 PCOD9548206
Probable space group: P 41 2 2
;
_chemical_formula_sum "Si O2"
_cell_formula_units_Z 32
_cell_length_a 10.545824
_cell_length_b 10.545824
_cell_length_c 12.241451
_cell_angle_alpha 90.000000
_cell_angle_beta 90.000000
_cell_angle_gamma 90.000000
_cell_volume 1361.425675
_symmetry_space_group_name_H-M "P 41 2 2"
_symmetry_group_IT_number 91
_symmetry_cell_setting 'tetragonal'
loop_
_space_group_symop_operation_xyz
x,y,z
-y,x,1/4+z
-x,-y,1/2+z
y,-x,3/4+z
x,-y,1/2-z
-x,y,-z
y,x,3/4-z
-y,-x,1/4-z
loop_
_atom_site_type_symbol
_atom_site_label
_atom_site_fract_x
_atom_site_fract_y
_atom_site_fract_z
Si Si1 0.189226 0.457417 0.938590
Si Si2 0.783317 0.321004 0.267850
Si Si3 0.005887 0.191366 0.626046
Si Si4 0.807344 0.600051 0.846035
O O1 0.224005 0.576710 0.863868
O O2 0.137465 0.368554 0.838906
O O3 0.293272 0.360030 0.984598
O O4 0.138730 0.520256 0.049986
O O5 0.858273 0.203843 0.319391
O O6 0.947313 0.052688 0.625000
O O7 0.909569 0.290814 0.682923
O O8 0.000000 0.231378 0.500000
O O9 0.786653 0.500000 0.750000
O O10 0.679081 0.679081 0.875000
#
# Coordination Sequence:
#
# PCOD9548206 Si02
#       4
#     8   8   8   8
#     4  10  21  42  70 100 150 182 239 288 365 434
#     4  10  22  44  69 108 143 187 236 305 362 439
#     4  11  25  47  73  97 140 188 244 302 364 435
#     4  11  24  41  68 103 141 193 242 293 363 437
#
# _framework density 23.504771000000002
#
# number of rings (size 3 to 8) (size 9 to 14) (size 15 to 20)
#    0.000    1.500    2.500    1.500    7.000    0.000 
#   31.500    0.000    0.000    0.000    0.000    0.000 
#    0.000    0.000    0.000    0.000    0.000    0.000 
#
# Total GULP energy -178259.452640 kJ/mol
# GULP energy per Si atom -5570.607895 kJ/mol
# Density = 2.345127 g / cm^3
# Si number density = 23.504771 Si / 1000 Ang^3
#
#
#
# Elastic Constant Matrix: (Units=GPa)
#
#
# Indices 1 2 3 4 5 6 
#
# 1 48.1768 10.4022 17.5817 0.0000 0.0000 0.0000
# 2 10.4022 48.1773 17.5814 0.0000 0.0000 0.0000
# 3 17.5817 17.5814 130.7034 0.0000 0.0000 0.0000
# 4 0.0000 0.0000 0.0000 18.6361 0.0000 0.0000
# 5 0.0000 0.0000 0.0000 0.0000 18.6364 0.0000
# 6 0.0000 0.0000 0.0000 0.0000 0.0000 11.4494
#
#
#
# Elastic Compliance Matrix: (Units=1/GPa)
#
#
# Indices 1 2 3 4 5 6 
#
# 1 0.022522 -0.003951 -0.002498 0.000000 0.000000 0.000000
# 2 -0.003951 0.022521 -0.002498 0.000000 0.000000 0.000000
# 3 -0.002498 -0.002498 0.008323 0.000000 0.000000 0.000000
# 4 0.000000 0.000000 0.000000 0.053659 0.000000 0.000000
# 5 0.000000 0.000000 0.000000 0.000000 0.053658 0.000000
# 6 0.000000 0.000000 0.000000 0.000000 0.000000 0.087341
#
#
# Mechanical properties :
#
#
# Convention : Reuss Voigt Hill
#
# Bulk Modulus (GPa) = 28.19150 35.35424 31.77287
# Shear Modulus (GPa) = 18.00230 21.84387 19.92309
#
# Velocity S-wave (km/s) = 2.77049 3.05181 2.91455
# Velocity P-wave (km/s) = 4.71743 5.24328 4.98729
#
# Compressibility (1/GPa) = 0.03547168
#
# Stress axis : x y z
#
# Youngs Moduli (GPa) = 44.40170 44.40235 120.14977
#
# Poissons Ratio (x) = 0.17544 0.30014
# Poissons Ratio (y) = 0.17544 0.30013
# Poissons Ratio (z) = 0.11092 0.11091
#
# Static dielectric constant tensor:
#      x y z
#    x 1.923030 0.000000 0.000000 
#    y 0.000000 1.923030 0.000000 
#    z 0.000000 0.000000 1.970150 
# 
# From -- ./inp_files/3354.got.cif
#   From: 2010.05.17/outbox.cif.g08.bks.cpg/sg91_2_cif.got.tgz:3354.got - 2010.06.03 19:20:03.
