data_PCOD9548798
_publ_section_title
;
Structure prediction by ZEFSAII (Michael W. Deem and Ramdas Pophale) SiO2 
 PCOD9548798
Probable space group: P 41 2 2
;
_chemical_formula_sum "Si O2"
_cell_formula_units_Z 40
_cell_length_a 8.915816
_cell_length_b 8.915816
_cell_length_c 24.004092
_cell_angle_alpha 90.000000
_cell_angle_beta 90.000000
_cell_angle_gamma 90.000000
_cell_volume 1908.127879
_symmetry_space_group_name_H-M "P 41 2 2"
_symmetry_group_IT_number 91
_symmetry_cell_setting 'tetragonal'
loop_
_space_group_symop_operation_xyz
x,y,z
-y,x,1/4+z
-x,-y,1/2+z
y,-x,3/4+z
x,-y,1/2-z
-x,y,-z
y,x,3/4-z
-y,-x,1/4-z
loop_
_atom_site_type_symbol
_atom_site_label
_atom_site_fract_x
_atom_site_fract_y
_atom_site_fract_z
Si Si1 0.248241 0.102138 0.923315
Si Si2 0.392541 0.126875 0.295413
Si Si3 0.681354 0.672969 0.226913
Si Si4 0.580978 0.083138 0.899856
Si Si5 0.855565 0.657732 0.754054
O O1 0.125961 0.125961 0.875000
O O2 0.408078 0.129953 0.893268
O O3 0.241673 0.220752 0.974928
O O4 0.268382 0.936974 0.950476
O O5 0.527556 0.243905 0.286708
O O6 0.242405 0.217833 0.283336
O O7 0.415975 0.000000 0.250000
O O8 0.380516 0.033029 0.352021
O O9 0.667157 0.500000 0.250000
O O10 0.768762 0.670198 0.167381
O O11 0.602331 0.988959 0.956237
O O12 0.765187 0.500000 0.750000
#
# Coordination Sequence:
#
# PCOD9548798 Si02
#       5
#     8   8   8   8   8
#     4   9  17  37  65  89 116 158 207 254 308 375
#     4  12  23  36  58  93 123 153 205 262 311 372
#     4   9  20  40  64  87 117 159 209 259 309 373
#     4   9  20  38  59  84 119 161 203 250 306 369
#     4   9  20  39  61  87 123 163 200 249 314 379
#
# _framework density 20.962955999999998
#
# number of rings (size 3 to 8) (size 9 to 14) (size 15 to 20)
#    0.000    2.400    0.000    4.800    0.000    3.200 
#    0.000   20.000    0.000    4.800    0.000    0.000 
#    0.000    0.000    0.000    0.000    0.000    0.000 
#
# Total GULP energy -222780.694079 kJ/mol
# GULP energy per Si atom -5569.517352 kJ/mol
# Density = 2.091524 g / cm^3
# Si number density = 20.962956 Si / 1000 Ang^3
#
#
#
# Elastic Constant Matrix: (Units=GPa)
#
#
# Indices 1 2 3 4 5 6 
#
# 1 55.4321 30.6780 39.0609 0.0000 0.0000 0.0000
# 2 30.6780 55.4321 39.0609 0.0000 0.0000 0.0000
# 3 39.0609 39.0609 122.7325 0.0000 0.0000 0.0000
# 4 0.0000 0.0000 0.0000 44.1565 0.0000 0.0000
# 5 0.0000 0.0000 0.0000 0.0000 44.1565 0.0000
# 6 0.0000 0.0000 0.0000 0.0000 0.0000 53.3006
#
#
#
# Elastic Compliance Matrix: (Units=1/GPa)
#
#
# Indices 1 2 3 4 5 6 
#
# 1 0.028362 -0.012035 -0.005196 0.000000 0.000000 0.000000
# 2 -0.012035 0.028362 -0.005196 0.000000 0.000000 0.000000
# 3 -0.005196 -0.005196 0.011455 0.000000 0.000000 0.000000
# 4 0.000000 0.000000 0.000000 0.022647 0.000000 0.000000
# 5 0.000000 0.000000 0.000000 0.000000 0.022647 0.000000
# 6 0.000000 0.000000 0.000000 0.000000 0.000000 0.018762
#
#
# Mechanical properties :
#
#
# Convention : Reuss Voigt Hill
#
# Bulk Modulus (GPa) = 42.87309 50.13291 46.50300
# Shear Modulus (GPa) = 27.04674 36.64251 31.84462
#
# Velocity S-wave (km/s) = 3.59585 4.18540 3.90178
# Velocity P-wave (km/s) = 6.14300 6.87922 6.52151
#
# Compressibility (1/GPa) = 0.02332465
#
# Stress axis : x y z
#
# Youngs Moduli (GPa) = 35.25808 35.25808 87.29527
#
# Poissons Ratio (x) = 0.42433 0.45362
# Poissons Ratio (y) = 0.42433 0.45362
# Poissons Ratio (z) = 0.18321 0.18321
#
# Static dielectric constant tensor:
#      x y z
#    x 1.778790 0.000000 0.000000 
#    y 0.000000 1.778790 0.000000 
#    z 0.000000 0.000000 1.659290 
# 
# From -- ./inp_files/6761.got.cif
#   From: 2010.05.17/outbox.cif.g08.bks.cpg/sg91_4_cif.got.tgz:6761.got - 2010.06.03 19:20:03.
