data_PCOD9548026
_publ_section_title
;
Structure prediction by ZEFSAII (Michael W. Deem and Ramdas Pophale) SiO2 
 PCOD9548026
Probable space group: P 41 2 2
;
_chemical_formula_sum "Si O2"
_cell_formula_units_Z 48
_cell_length_a 11.494033
_cell_length_b 11.494033
_cell_length_c 17.180209
_cell_angle_alpha 90.000000
_cell_angle_beta 90.000000
_cell_angle_gamma 90.000000
_cell_volume 2269.725423
_symmetry_space_group_name_H-M "P 41 2 2"
_symmetry_group_IT_number 91
_symmetry_cell_setting 'tetragonal'
loop_
_space_group_symop_operation_xyz
x,y,z
-y,x,1/4+z
-x,-y,1/2+z
y,-x,3/4+z
x,-y,1/2-z
-x,y,-z
y,x,3/4-z
-y,-x,1/4-z
loop_
_atom_site_type_symbol
_atom_site_label
_atom_site_fract_x
_atom_site_fract_y
_atom_site_fract_z
Si Si1 0.122150 0.435990 0.327997
Si Si2 0.590876 0.695841 0.136553
Si Si3 0.193775 0.162210 0.145773
Si Si4 0.827398 0.053165 0.551450
Si Si5 0.532604 0.343888 0.194362
Si Si6 0.545760 0.084547 0.820875
O O1 0.156112 0.500000 0.250000
O O2 0.225255 0.475069 0.384779
O O3 0.106925 0.300291 0.316259
O O4 0.995866 0.480573 0.355070
O O5 0.703151 0.779760 0.125119
O O6 0.586572 0.634953 0.220818
O O7 0.601150 0.595197 0.071803
O O8 0.098996 0.143546 0.214708
O O9 0.316436 0.113195 0.178955
O O10 0.171368 0.085158 0.068375
O O11 0.900032 0.099969 0.625000
O O12 0.611183 0.388818 0.125000
O O13 0.518721 0.205468 0.183921
O O14 0.518911 0.000000 0.750000
#
# Coordination Sequence:
#
# PCOD9548026 Si02
#       6
#     8   8   8   8   8   8
#     4  11  22  37  67 102 129 173 226 283 325 397
#     4  11  24  44  65 100 137 177 229 278 342 408
#     4  10  22  40  66 101 133 172 226 281 345 399
#     4  11  22  38  68 100 136 173 224 286 347 392
#     4  11  25  43  66  95 141 181 216 272 348 410
#     4  10  20  40  67  93 127 172 225 275 325 394
#
# _framework density 21.147933999999999
#
# number of rings (size 3 to 8) (size 9 to 14) (size 15 to 20)
#    0.000    1.333    3.333    3.000    2.333    6.000 
#    0.000    0.000    7.333    0.000    0.000    0.000 
#    0.000    0.000    0.000    0.000    0.000    0.000 
#
# Total GULP energy -267999.586399 kJ/mol
# GULP energy per Si atom -5583.324717 kJ/mol
# Density = 2.109980 g / cm^3
# Si number density = 21.147934 Si / 1000 Ang^3
#
#
#
# Elastic Constant Matrix: (Units=GPa)
#
#
# Indices 1 2 3 4 5 6 
#
# 1 66.1632 33.4406 27.1867 0.0000 0.0000 0.0000
# 2 33.4406 66.1622 27.1868 0.0000 0.0000 0.0000
# 3 27.1867 27.1868 100.1757 0.0000 0.0000 0.0000
# 4 0.0000 0.0000 0.0000 34.0660 0.0000 0.0000
# 5 0.0000 0.0000 0.0000 0.0000 34.0661 0.0000
# 6 0.0000 0.0000 0.0000 0.0000 0.0000 21.9374
#
#
#
# Elastic Compliance Matrix: (Units=1/GPa)
#
#
# Indices 1 2 3 4 5 6 
#
# 1 0.021173 -0.009387 -0.003199 0.000000 0.000000 0.000000
# 2 -0.009387 0.021173 -0.003199 0.000000 0.000000 0.000000
# 3 -0.003199 -0.003199 0.011719 0.000000 0.000000 0.000000
# 4 0.000000 0.000000 0.000000 0.029355 0.000000 0.000000
# 5 0.000000 0.000000 0.000000 0.000000 0.029355 0.000000
# 6 0.000000 0.000000 0.000000 0.000000 0.000000 0.045584
#
#
# Mechanical properties :
#
#
# Convention : Reuss Voigt Hill
#
# Bulk Modulus (GPa) = 44.45211 45.34768 44.89989
# Shear Modulus (GPa) = 25.32592 27.65971 26.49282
#
# Velocity S-wave (km/s) = 3.46433 3.62043 3.54324
# Velocity P-wave (km/s) = 6.08830 6.24230 6.16578
#
# Compressibility (1/GPa) = 0.02249612
#
# Stress axis : x y z
#
# Youngs Moduli (GPa) = 47.23000 47.22917 85.33446
#
# Poissons Ratio (x) = 0.44335 0.27295
# Poissons Ratio (y) = 0.44336 0.27296
# Poissons Ratio (z) = 0.15107 0.15107
#
# Static dielectric constant tensor:
#      x y z
#    x 1.787740 0.000000 0.000000 
#    y 0.000000 1.787740 0.000000 
#    z 0.000000 0.000000 1.843160 
# 
# From -- ./inp_files/11958.got.cif
#   From: 2010.05.17/outbox.cif.g08.bks.cpg/sg91_6_cif.got.tgz:11958.got - 2010.06.03 19:20:03.
