data_PCOD9548897
_publ_section_title
;
Structure prediction by ZEFSAII (Michael W. Deem and Ramdas Pophale) SiO2 
 PCOD9548897
Probable space group: P 41 21 2
;
_chemical_formula_sum "Si O2"
_cell_formula_units_Z 48
_cell_length_a 12.556783
_cell_length_b 12.556783
_cell_length_c 15.655309
_cell_angle_alpha 90.000000
_cell_angle_beta 90.000000
_cell_angle_gamma 90.000000
_cell_volume 2468.416394
_symmetry_space_group_name_H-M "P 41 21 2"
_symmetry_group_IT_number 92
_symmetry_cell_setting 'tetragonal'
loop_
_space_group_symop_operation_xyz
x,y,z
1/2-y,1/2+x,1/4+z
-x,-y,1/2+z
1/2+y,1/2-x,3/4+z
1/2+x,1/2-y,3/4-z
1/2-x,1/2+y,1/4-z
y,x,-z
-y,-x,1/2-z
loop_
_atom_site_type_symbol
_atom_site_label
_atom_site_fract_x
_atom_site_fract_y
_atom_site_fract_z
Si Si1 0.055676 0.845729 0.417266
Si Si2 0.761692 0.705820 0.409530
Si Si3 0.049998 0.150645 0.106436
Si Si4 0.995237 0.624501 0.409235
Si Si5 0.050095 0.402082 0.328932
Si Si6 0.780876 0.611894 0.972383
O O1 0.182943 0.849185 0.409233
O O2 0.006527 0.836047 0.513417
O O3 0.975904 0.933589 0.378753
O O4 0.031344 0.735069 0.368709
O O5 0.703799 0.703799 0.500000
O O6 0.794779 0.831276 0.393334
O O7 0.870807 0.642120 0.423161
O O8 0.974184 0.206574 0.174069
O O9 0.011766 0.518549 0.356872
O O10 0.071295 0.612769 0.491790
O O11 0.125805 0.360876 0.404342
O O12 0.950633 0.330142 0.302942
O O13 0.712588 0.712588 0.000000
#
# Coordination Sequence:
#
# PCOD9548897 Si02
#       6
#     8   8   8   8   8   8
#     4  10  19  33  58  88 124 158 201 255 310 354
#     4  11  18  33  59  90 118 152 208 258 299 358
#     4  10  20  38  56  85 124 167 197 249 313 371
#     4  10  18  35  59  89 112 157 206 250 298 345
#     4  10  21  40  65  85 119 158 208 261 293 374
#     4  11  23  43  64  88 122 167 207 243 320 380
#
# _framework density 19.445665999999999
#
# number of rings (size 3 to 8) (size 9 to 14) (size 15 to 20)
#    0.000    1.667    5.000    3.000    0.000    0.667 
#    6.000    3.333    0.000    0.000    0.000    0.000 
#    0.000    0.000    0.000    0.000    0.000    0.000 
#
# Total GULP energy -267404.327741 kJ/mol
# GULP energy per Si atom -5570.923495 kJ/mol
# Density = 1.940141 g / cm^3
# Si number density = 19.445666 Si / 1000 Ang^3
#
#
#
# Elastic Constant Matrix: (Units=GPa)
#
#
# Indices 1 2 3 4 5 6 
#
# 1 54.0309 29.8184 12.2658 0.0000 0.0000 0.0000
# 2 29.8184 54.0309 12.2658 0.0000 0.0000 0.0000
# 3 12.2658 12.2658 31.5570 0.0000 0.0000 0.0000
# 4 0.0000 0.0000 0.0000 23.6143 0.0000 0.0000
# 5 0.0000 0.0000 0.0000 0.0000 23.6143 0.0000
# 6 0.0000 0.0000 0.0000 0.0000 0.0000 43.5850
#
#
#
# Elastic Compliance Matrix: (Units=1/GPa)
#
#
# Indices 1 2 3 4 5 6 
#
# 1 0.027379 -0.013922 -0.005230 0.000000 0.000000 0.000000
# 2 -0.013922 0.027379 -0.005230 0.000000 0.000000 0.000000
# 3 -0.005230 -0.005230 0.035755 0.000000 0.000000 0.000000
# 4 0.000000 0.000000 0.000000 0.042347 0.000000 0.000000
# 5 0.000000 0.000000 0.000000 0.000000 0.042347 0.000000
# 6 0.000000 0.000000 0.000000 0.000000 0.000000 0.022944
#
#
# Mechanical properties :
#
#
# Convention : Reuss Voigt Hill
#
# Bulk Modulus (GPa) = 23.95436 27.59100 25.77268
# Shear Modulus (GPa) = 19.16948 23.84730 21.50839
#
# Velocity S-wave (km/s) = 3.14315 3.50574 3.32938
# Velocity P-wave (km/s) = 5.05152 5.53231 5.29737
#
# Compressibility (1/GPa) = 0.04174605
#
# Stress axis : x y z
#
# Youngs Moduli (GPa) = 36.52479 36.52479 27.96845
#
# Poissons Ratio (x) = 0.50851 0.14628
# Poissons Ratio (y) = 0.50851 0.14628
# Poissons Ratio (z) = 0.19104 0.19104
#
# Static dielectric constant tensor:
#      x y z
#    x 1.738050 0.000000 0.000000 
#    y 0.000000 1.738050 0.000000 
#    z 0.000000 0.000000 1.721580 
# 
# From -- ./inp_files/3152.got.cif
#   From: 2010.05.17/outbox.cif.g08.bks.cpg/sg92_2_cif.got.tgz:3152.got - 2010.06.03 19:35:17.
