data_PCOD9548156
_publ_section_title
;
Structure prediction by ZEFSAII (Michael W. Deem and Ramdas Pophale) SiO2 
 PCOD9548156
Probable space group: P 41 2 2
;
_chemical_formula_sum "Si O2"
_cell_formula_units_Z 24
_cell_length_a 7.381369
_cell_length_b 7.381369
_cell_length_c 21.560210
_cell_angle_alpha 90.000000
_cell_angle_beta 90.000000
_cell_angle_gamma 90.000000
_cell_volume 1174.699597
_symmetry_space_group_name_H-M "P 41 2 2"
_symmetry_group_IT_number 91
_symmetry_cell_setting 'tetragonal'
loop_
_space_group_symop_operation_xyz
x,y,z
-y,x,1/4+z
-x,-y,1/2+z
y,-x,3/4+z
x,-y,1/2-z
-x,y,-z
y,x,3/4-z
-y,-x,1/4-z
loop_
_atom_site_type_symbol
_atom_site_label
_atom_site_fract_x
_atom_site_fract_y
_atom_site_fract_z
Si Si1 0.186794 0.904524 0.399334
Si Si2 0.232720 0.310444 0.773415
Si Si3 0.433179 0.029259 0.852447
O O1 0.235879 0.911091 0.472547
O O2 0.352152 0.980168 0.358937
O O3 0.151593 0.687829 0.395434
O O4 0.010083 0.010083 0.375000
O O5 0.318055 0.500000 0.750000
O O6 0.370150 0.154665 0.795088
O O7 0.130508 0.371317 0.835146
#
# Coordination Sequence:
#
# PCOD9548156 Si02
#       3
#     8   8   8
#     4  11  22  41  64  92 127 165 212 260 319 377
#     4   9  19  40  64  85 123 165 200 258 317 374
#     4  10  21  40  64  88 124 165 207 260 319 373
#
# _framework density 20.430754
#
# number of rings (size 3 to 8) (size 9 to 14) (size 15 to 20)
#    0.000    2.000    3.333    1.000    0.000    0.000 
#   24.000    1.667    0.000    0.000    0.000    0.000 
#    0.000    0.000    0.000    0.000    0.000    0.000 
#
# Total GULP energy -133622.516126 kJ/mol
# GULP energy per Si atom -5567.604839 kJ/mol
# Density = 2.038425 g / cm^3
# Si number density = 20.430754 Si / 1000 Ang^3
#
#
#
# Elastic Constant Matrix: (Units=GPa)
#
#
# Indices 1 2 3 4 5 6 
#
# 1 87.2268 18.7380 15.4882 0.0000 0.0000 0.0000
# 2 18.7380 87.2268 15.4882 0.0000 0.0000 0.0000
# 3 15.4882 15.4882 81.9936 0.0000 0.0000 0.0000
# 4 0.0000 0.0000 0.0000 18.7987 0.0000 0.0000
# 5 0.0000 0.0000 0.0000 0.0000 18.7987 0.0000
# 6 0.0000 0.0000 0.0000 0.0000 0.0000 12.7239
#
#
#
# Elastic Compliance Matrix: (Units=1/GPa)
#
#
# Indices 1 2 3 4 5 6 
#
# 1 0.012295 -0.002306 -0.001887 0.000000 0.000000 0.000000
# 2 -0.002306 0.012295 -0.001887 0.000000 0.000000 0.000000
# 3 -0.001887 -0.001887 0.012909 0.000000 0.000000 0.000000
# 4 0.000000 0.000000 0.000000 0.053195 0.000000 0.000000
# 5 0.000000 0.000000 0.000000 0.000000 0.053195 0.000000
# 6 0.000000 0.000000 0.000000 0.000000 0.000000 0.078592
#
#
# Mechanical properties :
#
#
# Convention : Reuss Voigt Hill
#
# Bulk Modulus (GPa) = 39.46489 39.54178 39.50333
# Shear Modulus (GPa) = 20.56877 23.84644 22.20760
#
# Velocity S-wave (km/s) = 3.17638 3.42011 3.30050
# Velocity P-wave (km/s) = 5.72808 5.91543 5.82251
#
# Compressibility (1/GPa) = 0.02533898
#
# Stress axis : x y z
#
# Youngs Moduli (GPa) = 81.33524 81.33524 77.46598
#
# Poissons Ratio (x) = 0.18757 0.14616
# Poissons Ratio (y) = 0.18757 0.14616
# Poissons Ratio (z) = 0.15346 0.15346
#
# Static dielectric constant tensor:
#      x y z
#    x 1.773210 0.000000 0.000000 
#    y 0.000000 1.773210 0.000000 
#    z 0.000000 0.000000 1.799800 
# 
# From -- ./inp_files/5164.got.cif
#   From: 2010.05.17/outbox.cif.g08.bks.cpg/sg91_3_cif.got.tgz:5164.got - 2010.06.03 19:20:03.
