data_PCOD9548419
_publ_section_title
;
Structure prediction by ZEFSAII (Michael W. Deem and Ramdas Pophale) SiO2 
 PCOD9548419
Probable space group: P 41 2 2
;
_chemical_formula_sum "Si O2"
_cell_formula_units_Z 20
_cell_length_a 7.995546
_cell_length_b 7.995546
_cell_length_c 11.380218
_cell_angle_alpha 90.000000
_cell_angle_beta 90.000000
_cell_angle_gamma 90.000000
_cell_volume 727.523178
_symmetry_space_group_name_H-M "P 41 2 2"
_symmetry_group_IT_number 91
_symmetry_cell_setting 'tetragonal'
loop_
_space_group_symop_operation_xyz
x,y,z
-y,x,1/4+z
-x,-y,1/2+z
y,-x,3/4+z
x,-y,1/2-z
-x,y,-z
y,x,3/4-z
-y,-x,1/4-z
loop_
_atom_site_type_symbol
_atom_site_label
_atom_site_fract_x
_atom_site_fract_y
_atom_site_fract_z
Si Si1 0.037767 0.500000 0.250000
Si Si2 0.105093 0.000000 0.750000
Si Si3 0.710839 0.710839 0.875000
Si Si4 0.587030 0.220010 0.203311
O O1 0.924140 0.525403 0.365017
O O2 0.144612 0.669647 0.221912
O O3 0.232918 0.842108 0.750490
O O4 0.008870 0.991131 0.625000
O O5 0.544679 0.735730 0.800327
O O6 0.619383 0.380618 0.125000
#
# Coordination Sequence:
#
# PCOD9548419 Si02
#       4
#     4   4   4   8
#     4  12  28  52  86 122 168 226 292 354 446 548
#     4  10  22  50  84 128 182 240 286 376 448 544
#     4  12  28  52  84 128 164 230 280 370 442 530
#     4  11  27  55  84 127 171 222 294 369 444 541
#
# _framework density 27.490534
#
# number of rings (size 3 to 8) (size 9 to 14) (size 15 to 20)
#    0.000    0.800    4.000    0.000    8.400    0.000 
#   14.400    2.000   17.600    0.000    0.000    0.000 
#    0.000    0.000    0.000    0.000    0.000    0.000 
#
# Total GULP energy -112100.136940 kJ/mol
# GULP energy per Si atom -5605.006847 kJ/mol
# Density = 2.742796 g / cm^3
# Si number density = 27.490534 Si / 1000 Ang^3
#
#
#
# Elastic Constant Matrix: (Units=GPa)
#
#
# Indices 1 2 3 4 5 6 
#
# 1 110.9606 54.5272 74.8353 0.0000 0.0000 0.0000
# 2 54.5272 110.9581 74.8349 0.0000 0.0000 0.0000
# 3 74.8353 74.8349 231.9753 0.0000 0.0000 0.0000
# 4 0.0000 0.0000 0.0000 69.9806 0.0000 0.0000
# 5 0.0000 0.0000 0.0000 0.0000 69.9810 0.0000
# 6 0.0000 0.0000 0.0000 0.0000 0.0000 52.6339
#
#
#
# Elastic Compliance Matrix: (Units=1/GPa)
#
#
# Indices 1 2 3 4 5 6 
#
# 1 0.013126 -0.004594 -0.002752 0.000000 0.000000 0.000000
# 2 -0.004594 0.013126 -0.002753 0.000000 0.000000 0.000000
# 3 -0.002752 -0.002753 0.006087 0.000000 0.000000 0.000000
# 4 0.000000 0.000000 0.000000 0.014290 0.000000 0.000000
# 5 0.000000 0.000000 0.000000 0.000000 0.014290 0.000000
# 6 0.000000 0.000000 0.000000 0.000000 0.000000 0.018999
#
#
# Mechanical properties :
#
#
# Convention : Reuss Voigt Hill
#
# Bulk Modulus (GPa) = 82.36436 95.80987 89.08712
# Shear Modulus (GPa) = 48.00174 55.16555 51.58365
#
# Velocity S-wave (km/s) = 4.18319 4.48449 4.33646
# Velocity P-wave (km/s) = 7.30467 7.85760 7.58617
#
# Compressibility (1/GPa) = 0.01214117
#
# Stress axis : x y z
#
# Youngs Moduli (GPa) = 76.18391 76.18199 164.29255
#
# Poissons Ratio (x) = 0.34999 0.45221
# Poissons Ratio (y) = 0.35000 0.45222
# Poissons Ratio (z) = 0.20969 0.20969
#
# Static dielectric constant tensor:
#      x y z
#    x 2.187500 0.000000 0.000000 
#    y 0.000000 2.187500 0.000000 
#    z 0.000000 0.000000 2.274910 
# 
# From -- ./inp_files/10252.got.cif
#   From: 2010.05.17/outbox.cif.g08.bks.cpg/sg91_6_cif.got.tgz:10252.got - 2010.06.03 19:20:03.
