data_PCOD9548545
_publ_section_title
;
Structure prediction by ZEFSAII (Michael W. Deem and Ramdas Pophale) SiO2 
 PCOD9548545
Probable space group: P 41 2 2
;
_chemical_formula_sum "Si O2"
_cell_formula_units_Z 48
_cell_length_a 11.480797
_cell_length_b 11.480797
_cell_length_c 15.262341
_cell_angle_alpha 90.000000
_cell_angle_beta 90.000000
_cell_angle_gamma 90.000000
_cell_volume 2011.709322
_symmetry_space_group_name_H-M "P 41 2 2"
_symmetry_group_IT_number 91
_symmetry_cell_setting 'tetragonal'
loop_
_space_group_symop_operation_xyz
x,y,z
-y,x,1/4+z
-x,-y,1/2+z
y,-x,3/4+z
x,-y,1/2-z
-x,y,-z
y,x,3/4-z
-y,-x,1/4-z
loop_
_atom_site_type_symbol
_atom_site_label
_atom_site_fract_x
_atom_site_fract_y
_atom_site_fract_z
Si Si1 0.868768 0.143733 0.493488
Si Si2 0.261725 0.680681 0.504003
Si Si3 0.120527 0.120599 0.707576
Si Si4 0.062310 0.516140 0.589350
Si Si5 0.468105 0.803729 0.899509
Si Si6 0.500000 0.223752 0.000000
Si Si7 0.281992 0.718009 0.125000
O O1 0.844160 0.124432 0.392544
O O2 0.769445 0.213310 0.542048
O O3 0.000000 0.194212 0.500000
O O4 0.872393 0.017332 0.537569
O O5 0.220258 0.814110 0.509094
O O6 0.158341 0.606587 0.550143
O O7 0.259679 0.633555 0.403952
O O8 0.395261 0.692232 0.531354
O O9 0.157798 0.000000 0.750000
O O10 0.140151 0.459779 0.668111
O O11 0.000000 0.463066 0.500000
O O12 0.942579 0.553876 0.637975
O O13 0.586117 0.753345 0.855829
O O14 0.500000 0.779649 0.000000
#
# Coordination Sequence:
#
# PCOD9548545 Si02
#       7
#     8   8   8   8   8   4   4
#     4  11  22  40  63 104 146 184 237 297 391 469
#     4  11  27  46  73 112 145 207 269 319 386 459
#     4  11  22  39  68 100 147 188 238 310 376 462
#     4  10  24  47  77 112 149 196 262 329 389 469
#     4  11  25  49  74 106 153 196 258 320 393 470
#     4  12  26  48  80 112 156 212 262 338 396 472
#     4  12  26  42  72 108 144 196 242 318 384 470
#
# _framework density 23.860306999999999
#
# number of rings (size 3 to 8) (size 9 to 14) (size 15 to 20)
#    0.000    1.000    2.500    4.500    2.333   12.667 
#    4.500    0.000    0.000    0.000    0.000    0.000 
#    0.000    0.000    0.000    0.000    0.000    0.000 
#
# Total GULP energy -267790.744802 kJ/mol
# GULP energy per Si atom -5578.973850 kJ/mol
# Density = 2.380600 g / cm^3
# Si number density = 23.860307 Si / 1000 Ang^3
#
#
#
# Elastic Constant Matrix: (Units=GPa)
#
#
# Indices 1 2 3 4 5 6 
#
# 1 104.5663 47.1584 7.2655 0.0000 0.0000 0.0000
# 2 47.1584 104.5658 7.2657 0.0000 0.0000 0.0000
# 3 7.2655 7.2657 116.0694 0.0000 0.0000 0.0000
# 4 0.0000 0.0000 0.0000 29.8707 0.0000 0.0000
# 5 0.0000 0.0000 0.0000 0.0000 29.8702 0.0000
# 6 0.0000 0.0000 0.0000 0.0000 0.0000 17.0674
#
#
#
# Elastic Compliance Matrix: (Units=1/GPa)
#
#
# Indices 1 2 3 4 5 6 
#
# 1 0.012025 -0.005394 -0.000415 0.000000 0.000000 0.000000
# 2 -0.005394 0.012025 -0.000415 0.000000 0.000000 0.000000
# 3 -0.000415 -0.000415 0.008667 0.000000 0.000000 0.000000
# 4 0.000000 0.000000 0.000000 0.033478 0.000000 0.000000
# 5 0.000000 0.000000 0.000000 0.000000 0.033478 0.000000
# 6 0.000000 0.000000 0.000000 0.000000 0.000000 0.058591
#
#
# Mechanical properties :
#
#
# Convention : Reuss Voigt Hill
#
# Bulk Modulus (GPa) = 49.33749 49.84229 49.58989
# Shear Modulus (GPa) = 28.17385 32.92911 30.55148
#
# Velocity S-wave (km/s) = 3.43998 3.71897 3.58219
# Velocity P-wave (km/s) = 6.04156 6.27499 6.15938
#
# Compressibility (1/GPa) = 0.02026856
#
# Stress axis : x y z
#
# Youngs Moduli (GPa) = 83.16053 83.16009 115.37356
#
# Poissons Ratio (x) = 0.44859 0.04788
# Poissons Ratio (y) = 0.44859 0.04789
# Poissons Ratio (z) = 0.03451 0.03452
#
# Static dielectric constant tensor:
#      x y z
#    x 1.946850 0.000000 0.000000 
#    y 0.000000 1.946850 0.000000 
#    z 0.000000 0.000000 1.977430 
# 
# From -- ./inp_files/21162.got.cif
#   From: 2010.05.17/outbox.cif.g08.bks.cpg/sg91_11_cif.got.tgz:21162.got - 2010.06.03 19:20:03.
