data_PCOD9548175
_publ_section_title
;
Structure prediction by ZEFSAII (Michael W. Deem and Ramdas Pophale) SiO2 
 PCOD9548175
Probable space group: P 41 2 2
;
_chemical_formula_sum "Si O2"
_cell_formula_units_Z 32
_cell_length_a 7.409985
_cell_length_b 7.409985
_cell_length_c 23.688713
_cell_angle_alpha 90.000000
_cell_angle_beta 90.000000
_cell_angle_gamma 90.000000
_cell_volume 1300.696956
_symmetry_space_group_name_H-M "P 41 2 2"
_symmetry_group_IT_number 91
_symmetry_cell_setting 'tetragonal'
loop_
_space_group_symop_operation_xyz
x,y,z
-y,x,1/4+z
-x,-y,1/2+z
y,-x,3/4+z
x,-y,1/2-z
-x,y,-z
y,x,3/4-z
-y,-x,1/4-z
loop_
_atom_site_type_symbol
_atom_site_label
_atom_site_fract_x
_atom_site_fract_y
_atom_site_fract_z
Si Si1 0.099532 0.985824 0.684136
Si Si2 0.700741 0.366312 0.493332
Si Si3 0.970832 0.403381 0.198263
Si Si4 0.964586 0.493855 0.579820
O O1 0.986646 0.013355 0.625000
O O2 0.135470 0.771794 0.680414
O O3 0.031434 0.000000 0.750000
O O4 0.293199 0.083231 0.679602
O O5 0.500000 0.445739 0.500000
O O6 0.666553 0.165321 0.470092
O O7 0.806859 0.376184 0.552456
O O8 0.847254 0.455087 0.451793
O O9 0.879226 0.500000 0.250000
O O10 0.005868 0.531838 0.145813
#
# Coordination Sequence:
#
# PCOD9548175 Si02
#       4
#     8   8   8   8
#     4  10  21  41  61  91 129 176 231 280 361 427
#     4  10  22  43  69  97 136 180 233 288 368 429
#     4  10  24  41  64 102 132 181 243 285 365 444
#     4  10  22  46  65  98 144 182 227 302 361 421
#
# _framework density 24.602191999999999
#
# number of rings (size 3 to 8) (size 9 to 14) (size 15 to 20)
#    0.000    2.000    2.500    0.000    3.500    9.000 
#   13.500    0.000    0.000    0.000    0.000    0.000 
#    0.000    0.000    0.000    0.000    0.000    0.000 
#
# Total GULP energy -178609.676047 kJ/mol
# GULP energy per Si atom -5581.552376 kJ/mol
# Density = 2.454620 g / cm^3
# Si number density = 24.602192 Si / 1000 Ang^3
#
#
#
# Elastic Constant Matrix: (Units=GPa)
#
#
# Indices 1 2 3 4 5 6 
#
# 1 92.7937 11.4452 26.0675 0.0000 0.0000 0.0000
# 2 11.4452 92.7939 26.0674 0.0000 0.0000 0.0000
# 3 26.0675 26.0674 197.4676 0.0000 0.0000 0.0000
# 4 0.0000 0.0000 0.0000 30.7409 0.0000 0.0000
# 5 0.0000 0.0000 0.0000 0.0000 30.7408 0.0000
# 6 0.0000 0.0000 0.0000 0.0000 0.0000 20.3834
#
#
#
# Elastic Compliance Matrix: (Units=1/GPa)
#
#
# Indices 1 2 3 4 5 6 
#
# 1 0.011282 -0.001011 -0.001356 0.000000 0.000000 0.000000
# 2 -0.001011 0.011282 -0.001356 0.000000 0.000000 0.000000
# 3 -0.001356 -0.001356 0.005422 0.000000 0.000000 0.000000
# 4 0.000000 0.000000 0.000000 0.032530 0.000000 0.000000
# 5 0.000000 0.000000 0.000000 0.000000 0.032530 0.000000
# 6 0.000000 0.000000 0.000000 0.000000 0.000000 0.049059
#
#
# Mechanical properties :
#
#
# Convention : Reuss Voigt Hill
#
# Bulk Modulus (GPa) = 48.68217 56.69061 52.68639
# Shear Modulus (GPa) = 31.96971 37.67135 34.82053
#
# Velocity S-wave (km/s) = 3.60872 3.91732 3.76619
# Velocity P-wave (km/s) = 6.09873 6.59951 6.35406
#
# Compressibility (1/GPa) = 0.02054140
#
# Stress axis : x y z
#
# Youngs Moduli (GPa) = 88.63554 88.63576 184.43002
#
# Poissons Ratio (x) = 0.08958 0.25007
# Poissons Ratio (y) = 0.08958 0.25007
# Poissons Ratio (z) = 0.12018 0.12018
#
# Static dielectric constant tensor:
#      x y z
#    x 1.965190 0.000000 0.000000 
#    y 0.000000 1.965190 0.000000 
#    z 0.000000 0.000000 2.125860 
# 
# From -- ./inp_files/6660.got.cif
#   From: 2010.05.17/outbox.cif.g08.bks.cpg/sg91_4_cif.got.tgz:6660.got - 2010.06.03 19:20:03.
