data_PCOD9548007
_publ_section_title
;
Structure prediction by ZEFSAII (Michael W. Deem and Ramdas Pophale) SiO2 
 PCOD9548007
Probable space group: P 41 2 2
;
_chemical_formula_sum "Si O2"
_cell_formula_units_Z 40
_cell_length_a 12.197312
_cell_length_b 12.197312
_cell_length_c 14.380371
_cell_angle_alpha 90.000000
_cell_angle_beta 90.000000
_cell_angle_gamma 90.000000
_cell_volume 2139.431355
_symmetry_space_group_name_H-M "P 41 2 2"
_symmetry_group_IT_number 91
_symmetry_cell_setting 'tetragonal'
loop_
_space_group_symop_operation_xyz
x,y,z
-y,x,1/4+z
-x,-y,1/2+z
y,-x,3/4+z
x,-y,1/2-z
-x,y,-z
y,x,3/4-z
-y,-x,1/4-z
loop_
_atom_site_type_symbol
_atom_site_label
_atom_site_fract_x
_atom_site_fract_y
_atom_site_fract_z
Si Si1 0.301218 0.301218 0.375000
Si Si2 0.192847 0.402452 0.065190
Si Si3 0.751579 0.000000 0.250000
Si Si4 0.183264 0.183264 0.875000
Si Si5 0.500000 0.245863 0.500000
Si Si6 0.870744 0.627292 0.022110
Si Si7 0.630236 0.770074 0.526178
O O1 0.406879 0.307505 0.441986
O O2 0.197749 0.303453 0.445141
O O3 0.095609 0.319998 0.044891
O O4 0.178118 0.440161 0.170666
O O5 0.311706 0.346852 0.050605
O O6 0.174623 0.505054 0.998130
O O7 0.817053 0.068647 0.176554
O O8 0.188907 0.291628 0.808593
O O9 0.841695 0.649279 0.129944
O O10 0.000000 0.632327 0.000000
O O11 0.500000 0.765997 0.500000
#
# Coordination Sequence:
#
# PCOD9548007 Si02
#       7
#     4   8   4   4   4   8   8
#     4  10  22  42  61  99 126 170 206 264 322 383
#     4  10  21  39  64  92 129 171 212 261 310 389
#     4  10  20  42  62  94 124 168 220 264 318 380
#     4  10  24  40  71  93 132 168 216 272 322 381
#     4  10  20  40  62  88 134 166 208 250 328 378
#     4  11  23  42  65  98 129 169 221 258 323 388
#     4  11  22  41  62  98 129 168 213 266 321 381
#
# _framework density 18.696556000000001
#
# number of rings (size 3 to 8) (size 9 to 14) (size 15 to 20)
#    0.000    1.600    3.000    2.400    0.000    3.200 
#    9.000    1.000    8.800    0.000    0.000    0.000 
#    0.000    0.000    0.000    0.000    0.000    0.000 
#
# Total GULP energy -222795.795273 kJ/mol
# GULP energy per Si atom -5569.894882 kJ/mol
# Density = 1.865400 g / cm^3
# Si number density = 18.696556 Si / 1000 Ang^3
#
#
#
# Elastic Constant Matrix: (Units=GPa)
#
#
# Indices 1 2 3 4 5 6 
#
# 1 79.9517 34.5287 41.5247 0.0000 0.0000 0.0000
# 2 34.5287 79.9517 41.5247 0.0000 0.0000 0.0000
# 3 41.5247 41.5247 128.8072 0.0000 0.0000 0.0000
# 4 0.0000 0.0000 0.0000 28.2578 0.0000 0.0000
# 5 0.0000 0.0000 0.0000 0.0000 28.2578 0.0000
# 6 0.0000 0.0000 0.0000 0.0000 0.0000 -1.7765
#
#
#
# Elastic Compliance Matrix: (Units=1/GPa)
#
#
# Indices 1 2 3 4 5 6 
#
# 1 0.016708 -0.005307 -0.003676 0.000000 0.000000 0.000000
# 2 -0.005307 0.016708 -0.003676 0.000000 0.000000 0.000000
# 3 -0.003676 -0.003676 0.010133 0.000000 0.000000 0.000000
# 4 0.000000 0.000000 0.000000 0.035388 0.000000 0.000000
# 5 0.000000 0.000000 0.000000 0.000000 0.035388 0.000000
# 6 0.000000 0.000000 0.000000 0.000000 0.000000 -0.562890
#
#
# Mechanical properties :
#
#
# Convention : Reuss Voigt Hill
#
# Bulk Modulus (GPa) = 54.84233 58.20744 56.52488
# Shear Modulus (GPa) = -11.98555 22.35665 5.18555
#
# Velocity S-wave (km/s) = -2.53466 3.46173 1.66720
# Velocity P-wave (km/s) = 4.56405 6.86865 5.83134
#
# Compressibility (1/GPa) = 0.01823409
#
# Stress axis : x y z
#
# Youngs Moduli (GPa) = 59.85003 59.85003 98.68321
#
# Poissons Ratio (x) = 0.31761 0.36272
# Poissons Ratio (y) = 0.31761 0.36272
# Poissons Ratio (z) = 0.21999 0.21999
#
# Static dielectric constant tensor:
#      x y z
#    x 1.659390 0.000000 0.000000 
#    y 0.000000 1.659390 0.000000 
#    z 0.000000 0.000000 1.742870 
# 
# From -- ./inp_files/11423.got.cif
#   From: 2010.05.17/outbox.cif.g08.bks.cpg/sg91_6_cif.got.tgz:11423.got - 2010.06.03 19:20:03.
