data_PCOD9548455
_publ_section_title
;
Structure prediction by ZEFSAII (Michael W. Deem and Ramdas Pophale) SiO2 
 PCOD9548455
Probable space group: P 41 2 2
;
_chemical_formula_sum "Si O2"
_cell_formula_units_Z 48
_cell_length_a 11.464659
_cell_length_b 11.464659
_cell_length_c 16.819002
_cell_angle_alpha 90.000000
_cell_angle_beta 90.000000
_cell_angle_gamma 90.000000
_cell_volume 2210.662813
_symmetry_space_group_name_H-M "P 41 2 2"
_symmetry_group_IT_number 91
_symmetry_cell_setting 'tetragonal'
loop_
_space_group_symop_operation_xyz
x,y,z
-y,x,1/4+z
-x,-y,1/2+z
y,-x,3/4+z
x,-y,1/2-z
-x,y,-z
y,x,3/4-z
-y,-x,1/4-z
loop_
_atom_site_type_symbol
_atom_site_label
_atom_site_fract_x
_atom_site_fract_y
_atom_site_fract_z
Si Si1 0.346461 0.827123 0.429316
Si Si2 0.500000 0.704703 0.000000
Si Si3 0.771305 0.057239 0.164047
Si Si4 0.606280 0.058234 0.665611
Si Si5 0.679516 0.320485 0.625000
Si Si6 0.408317 0.233211 0.888815
Si Si7 0.149578 0.353971 0.125469
O O1 0.455368 0.776802 0.379263
O O2 0.376383 0.812284 0.522554
O O3 0.238936 0.739857 0.413016
O O4 0.350966 0.962456 0.400273
O O5 0.407452 0.641140 0.054855
O O6 0.582285 0.785126 0.053876
O O7 0.880397 0.119604 0.125000
O O8 0.668688 0.153078 0.168955
O O9 0.791465 0.000000 0.250000
O O10 0.726427 0.959391 0.103909
O O11 0.660718 0.185360 0.648011
O O12 0.466578 0.088002 0.666922
O O13 0.637469 0.000000 0.750000
O O14 0.362671 0.362671 0.875000
#
# Coordination Sequence:
#
# PCOD9548455 Si02
#       7
#     8   4   8   8   4   8   8
#     4  11  24  42  71 107 139 194 234 303 364 449
#     4  10  24  46  68 100 138 194 240 302 360 450
#     4  11  23  43  71 103 138 184 238 296 361 434
#     4  11  24  44  74 102 146 195 248 301 375 449
#     4  10  24  46  74 106 146 198 256 308 380 454
#     4  10  23  43  70 103 142 176 242 299 367 434
#     4  11  23  42  71  97 142 186 238 291 369 436
#
# _framework density 21.712945999999999
#
# number of rings (size 3 to 8) (size 9 to 14) (size 15 to 20)
#    0.000    1.333    1.667    3.500    7.000    0.000 
#    7.500    0.833    0.000    0.000    0.000    0.000 
#    0.000    0.000    0.000    0.000    0.000    0.000 
#
# Total GULP energy -267726.408927 kJ/mol
# GULP energy per Si atom -5577.633519 kJ/mol
# Density = 2.166353 g / cm^3
# Si number density = 21.712946 Si / 1000 Ang^3
#
#
#
# Elastic Constant Matrix: (Units=GPa)
#
#
# Indices 1 2 3 4 5 6 
#
# 1 103.3626 79.6937 22.1363 0.0000 0.0000 0.0000
# 2 79.6937 103.3644 22.1368 0.0000 0.0000 0.0000
# 3 22.1363 22.1368 74.1252 0.0000 0.0000 0.0000
# 4 0.0000 0.0000 0.0000 30.1438 0.0000 0.0000
# 5 0.0000 0.0000 0.0000 0.0000 30.1438 0.0000
# 6 0.0000 0.0000 0.0000 0.0000 0.0000 43.1716
#
#
#
# Elastic Compliance Matrix: (Units=1/GPa)
#
#
# Indices 1 2 3 4 5 6 
#
# 1 0.024068 -0.018180 -0.001758 0.000000 0.000000 0.000000
# 2 -0.018180 0.024068 -0.001758 0.000000 0.000000 0.000000
# 3 -0.001758 -0.001758 0.014541 0.000000 0.000000 0.000000
# 4 0.000000 0.000000 0.000000 0.033174 0.000000 0.000000
# 5 0.000000 0.000000 0.000000 0.000000 0.033174 0.000000
# 6 0.000000 0.000000 0.000000 0.000000 0.000000 0.023163
#
#
# Mechanical properties :
#
#
# Convention : Reuss Voigt Hill
#
# Bulk Modulus (GPa) = 51.85791 58.75399 55.30595
# Shear Modulus (GPa) = 24.75121 31.15087 27.95104
#
# Velocity S-wave (km/s) = 3.37995 3.79181 3.59179
# Velocity P-wave (km/s) = 6.25838 6.80357 6.53666
#
# Compressibility (1/GPa) = 0.01928346
#
# Stress axis : x y z
#
# Youngs Moduli (GPa) = 41.54854 41.54924 68.77142
#
# Poissons Ratio (x) = 0.75536 0.12092
# Poissons Ratio (y) = 0.75535 0.12093
# Poissons Ratio (z) = 0.07306 0.07306
#
# Static dielectric constant tensor:
#      x y z
#    x 1.817200 0.000000 0.000000 
#    y 0.000000 1.817200 0.000000 
#    z 0.000000 0.000000 1.803190 
# 
# From -- ./inp_files/21137.got.cif
#   From: 2010.05.17/outbox.cif.g08.bks.cpg/sg91_11_cif.got.tgz:21137.got - 2010.06.03 19:20:03.
