data_PCOD9548314
_publ_section_title
;
Structure prediction by ZEFSAII (Michael W. Deem and Ramdas Pophale) SiO2 
 PCOD9548314
Probable space group: P 41 2 2
;
_chemical_formula_sum "Si O2"
_cell_formula_units_Z 28
_cell_length_a 7.661624
_cell_length_b 7.661624
_cell_length_c 22.232569
_cell_angle_alpha 90.000000
_cell_angle_beta 90.000000
_cell_angle_gamma 90.000000
_cell_volume 1305.062523
_symmetry_space_group_name_H-M "P 41 2 2"
_symmetry_group_IT_number 91
_symmetry_cell_setting 'tetragonal'
loop_
_space_group_symop_operation_xyz
x,y,z
-y,x,1/4+z
-x,-y,1/2+z
y,-x,3/4+z
x,-y,1/2-z
-x,y,-z
y,x,3/4-z
-y,-x,1/4-z
loop_
_atom_site_type_symbol
_atom_site_label
_atom_site_fract_x
_atom_site_fract_y
_atom_site_fract_z
Si Si1 0.521746 0.521746 0.375000
Si Si2 0.135962 0.617897 0.337156
Si Si3 0.500000 0.707431 0.500000
Si Si4 0.727473 0.981591 0.962367
Si Si5 0.968438 0.968438 0.375000
O O1 0.321887 0.580651 0.365492
O O2 0.557045 0.605809 0.440227
O O3 0.147209 0.688866 0.268127
O O4 0.050200 0.426657 0.335765
O O5 0.017829 0.766292 0.367635
O O6 0.331658 0.830237 0.486914
O O7 0.914389 0.971118 0.931876
#
# Coordination Sequence:
#
# PCOD9548314 Si02
#       5
#     4   8   4   8   4
#     4  12  21  43  70 104 142 194 248 312 392 450
#     4  10  23  40  70  99 140 186 240 309 369 451
#     4  10  22  40  68 100 144 188 248 316 368 464
#     4  10  23  42  65 101 147 186 248 316 367 456
#     4  12  21  45  72 100 142 200 240 308 380 436
#
# _framework density 21.454913000000001
#
# number of rings (size 3 to 8) (size 9 to 14) (size 15 to 20)
#    0.000    1.714    2.857    3.429    0.000    4.571 
#    0.000    0.000    0.000    0.000    0.000    0.000 
#    0.000    0.000    0.000    0.000    0.000    0.000 
#
# Total GULP energy -156025.094547 kJ/mol
# GULP energy per Si atom -5572.324805 kJ/mol
# Density = 2.140608 g / cm^3
# Si number density = 21.454913 Si / 1000 Ang^3
#
#
#
# Elastic Constant Matrix: (Units=GPa)
#
#
# Indices 1 2 3 4 5 6 
#
# 1 80.3588 40.5469 31.8671 0.0000 0.0000 0.0000
# 2 40.5469 80.3588 31.8671 0.0000 0.0000 0.0000
# 3 31.8671 31.8671 97.6383 0.0000 0.0000 0.0000
# 4 0.0000 0.0000 0.0000 21.6171 0.0000 0.0000
# 5 0.0000 0.0000 0.0000 0.0000 21.6171 0.0000
# 6 0.0000 0.0000 0.0000 0.0000 0.0000 17.9215
#
#
#
# Elastic Compliance Matrix: (Units=1/GPa)
#
#
# Indices 1 2 3 4 5 6 
#
# 1 0.017554 -0.007564 -0.003260 0.000000 0.000000 0.000000
# 2 -0.007564 0.017554 -0.003260 0.000000 0.000000 0.000000
# 3 -0.003260 -0.003260 0.012370 0.000000 0.000000 0.000000
# 4 0.000000 0.000000 0.000000 0.046260 0.000000 0.000000
# 5 0.000000 0.000000 0.000000 0.000000 0.046260 0.000000
# 6 0.000000 0.000000 0.000000 0.000000 0.000000 0.055799
#
#
# Mechanical properties :
#
#
# Convention : Reuss Voigt Hill
#
# Bulk Modulus (GPa) = 51.79270 51.87979 51.83625
# Shear Modulus (GPa) = 21.70120 22.50280 22.10200
#
# Velocity S-wave (km/s) = 3.18383 3.24210 3.21309
# Velocity P-wave (km/s) = 6.14071 6.18452 6.16265
#
# Compressibility (1/GPa) = 0.01930774
#
# Stress axis : x y z
#
# Youngs Moduli (GPa) = 56.96750 56.96750 80.83985
#
# Poissons Ratio (x) = 0.43092 0.26357
# Poissons Ratio (y) = 0.43092 0.26357
# Poissons Ratio (z) = 0.18574 0.18574
#
# Static dielectric constant tensor:
#      x y z
#    x 1.811450 0.000000 0.000000 
#    y 0.000000 1.811450 0.000000 
#    z 0.000000 0.000000 1.894880 
# 
# From -- ./inp_files/6599.got.cif
#   From: 2010.05.17/outbox.cif.g08.bks.cpg/sg91_4_cif.got.tgz:6599.got - 2010.06.03 19:20:03.
