data_PCOD9548064
_publ_section_title
;
Structure prediction by ZEFSAII (Michael W. Deem and Ramdas Pophale) SiO2 
 PCOD9548064
Probable space group: P 41 2 2
;
_chemical_formula_sum "Si O2"
_cell_formula_units_Z 20
_cell_length_a 7.273405
_cell_length_b 7.273405
_cell_length_c 15.523448
_cell_angle_alpha 90.000000
_cell_angle_beta 90.000000
_cell_angle_gamma 90.000000
_cell_volume 821.227971
_symmetry_space_group_name_H-M "P 41 2 2"
_symmetry_group_IT_number 91
_symmetry_cell_setting 'tetragonal'
loop_
_space_group_symop_operation_xyz
x,y,z
-y,x,1/4+z
-x,-y,1/2+z
y,-x,3/4+z
x,-y,1/2-z
-x,y,-z
y,x,3/4-z
-y,-x,1/4-z
loop_
_atom_site_type_symbol
_atom_site_label
_atom_site_fract_x
_atom_site_fract_y
_atom_site_fract_z
Si Si1 0.407094 0.880662 0.593487
Si Si2 0.244668 0.259298 0.566049
Si Si3 0.350872 0.350872 0.375000
O O1 0.500000 0.862448 0.500000
O O2 0.295221 0.704779 0.625000
O O3 0.589026 0.902025 0.653175
O O4 0.256538 0.044838 0.590382
O O5 0.268793 0.274048 0.463620
O O6 0.432535 0.321235 0.613504
#
# Coordination Sequence:
#
# PCOD9548064 Si02
#       3
#     8   8   4
#     4  12  26  48  75 111 149 197 257 315 387 463
#     4  11  24  46  76 108 148 200 252 315 388 465
#     4  10  20  46  74 104 140 202 244 304 394 452
#
# _framework density 24.353773
#
# number of rings (size 3 to 8) (size 9 to 14) (size 15 to 20)
#    0.000    0.800    6.000    2.400    0.000    6.400 
#    3.600    4.000    0.000    0.000    0.000    0.000 
#    0.000    0.000    0.000    0.000    0.000    0.000 
#
# Total GULP energy -111700.143643 kJ/mol
# GULP energy per Si atom -5585.007182 kJ/mol
# Density = 2.429834 g / cm^3
# Si number density = 24.353773 Si / 1000 Ang^3
#
#
#
# Elastic Constant Matrix: (Units=GPa)
#
#
# Indices 1 2 3 4 5 6 
#
# 1 131.8490 28.3701 40.2698 0.0000 0.0000 0.0000
# 2 28.3701 131.8490 40.2698 0.0000 0.0000 0.0000
# 3 40.2698 40.2698 110.3068 0.0000 0.0000 0.0000
# 4 0.0000 0.0000 0.0000 34.7686 0.0000 0.0000
# 5 0.0000 0.0000 0.0000 0.0000 34.7686 0.0000
# 6 0.0000 0.0000 0.0000 0.0000 0.0000 32.1491
#
#
#
# Elastic Compliance Matrix: (Units=1/GPa)
#
#
# Indices 1 2 3 4 5 6 
#
# 1 0.008654 -0.001010 -0.002791 0.000000 0.000000 0.000000
# 2 -0.001010 0.008654 -0.002791 0.000000 0.000000 0.000000
# 3 -0.002791 -0.002791 0.011103 0.000000 0.000000 0.000000
# 4 0.000000 0.000000 0.000000 0.028762 0.000000 0.000000
# 5 0.000000 0.000000 0.000000 0.000000 0.028762 0.000000
# 6 0.000000 0.000000 0.000000 0.000000 0.000000 0.031105
#
#
# Mechanical properties :
#
#
# Convention : Reuss Voigt Hill
#
# Bulk Modulus (GPa) = 65.66423 65.75825 65.71124
# Shear Modulus (GPa) = 36.95536 38.01024 37.48280
#
# Velocity S-wave (km/s) = 3.89966 3.95492 3.92739
# Velocity P-wave (km/s) = 6.87733 6.92207 6.89974
#
# Compressibility (1/GPa) = 0.01522899
#
# Stress axis : x y z
#
# Youngs Moduli (GPa) = 115.55276 115.55276 90.06375
#
# Poissons Ratio (x) = 0.11668 0.25134
# Poissons Ratio (y) = 0.11668 0.25134
# Poissons Ratio (z) = 0.32247 0.32247
#
# Static dielectric constant tensor:
#      x y z
#    x 2.121200 0.000000 0.000000 
#    y 0.000000 2.121200 0.000000 
#    z 0.000000 0.000000 1.875150 
# 
# From -- ./inp_files/4183.got.cif
#   From: 2010.05.17/outbox.cif.g08.bks.cpg/sg91_3_cif.got.tgz:4183.got - 2010.06.03 19:20:03.
