data_PCOD9548113
_publ_section_title
;
Structure prediction by ZEFSAII (Michael W. Deem and Ramdas Pophale) SiO2 
 PCOD9548113
Probable space group: P 41 2 2
;
_chemical_formula_sum "Si O2"
_cell_formula_units_Z 64
_cell_length_a 17.393216
_cell_length_b 17.393216
_cell_length_c 12.396264
_cell_angle_alpha 90.000000
_cell_angle_beta 90.000000
_cell_angle_gamma 90.000000
_cell_volume 3750.166909
_symmetry_space_group_name_H-M "P 41 2 2"
_symmetry_group_IT_number 91
_symmetry_cell_setting 'tetragonal'
loop_
_space_group_symop_operation_xyz
x,y,z
-y,x,1/4+z
-x,-y,1/2+z
y,-x,3/4+z
x,-y,1/2-z
-x,y,-z
y,x,3/4-z
-y,-x,1/4-z
loop_
_atom_site_type_symbol
_atom_site_label
_atom_site_fract_x
_atom_site_fract_y
_atom_site_fract_z
Si Si1 0.125144 0.376081 0.183030
Si Si2 0.416658 0.331419 0.296133
Si Si3 0.952323 0.620335 0.320105
Si Si4 0.450905 0.066484 0.164555
Si Si5 0.319277 0.428255 0.934785
Si Si6 0.453115 0.167572 0.353708
Si Si7 0.689086 0.285957 0.377279
Si Si8 0.323193 0.790470 0.563990
O O1 0.141677 0.459705 0.128919
O O2 0.128405 0.397100 0.310004
O O3 0.195268 0.320668 0.151326
O O4 0.038463 0.351039 0.156443
O O5 0.403118 0.403118 0.375000
O O6 0.483659 0.334796 0.208147
O O7 0.441619 0.257896 0.366495
O O8 0.336727 0.316614 0.234404
O O9 0.941031 0.540619 0.384234
O O10 0.943506 0.596020 0.194676
O O11 0.880016 0.675176 0.340290
O O12 0.436893 0.144205 0.230947
O O13 0.432542 0.000000 0.250000
O O14 0.391063 0.391063 0.875000
O O15 0.246683 0.402814 0.860422
O O16 0.306953 0.382036 0.047011
O O17 0.764555 0.309870 0.309129
O O18 0.256377 0.743624 0.625000
#
# Coordination Sequence:
#
# PCOD9548113 Si02
#       8
#     8   8   8   8   8   8   8   8
#     4  11  20  33  55  77 110 142 178 225 285 337
#     4  12  22  33  55  73  99 147 188 232 286 333
#     4  11  21  33  53  86 108 146 187 217 286 344
#     4  11  19  31  50  81 109 138 178 232 273 335
#     4   9  21  40  56  70  98 140 192 248 283 310
#     4  11  20  34  52  76 110 139 179 233 279 336
#     4  10  21  38  52  75 105 146 183 227 287 330
#     4   9  21  38  56  77 111 147 184 229 275 332
#
# _framework density 17.065905999999998
#
# number of rings (size 3 to 8) (size 9 to 14) (size 15 to 20)
#    0.000    1.750    5.000    2.250    1.750    3.500 
#    0.000    1.875    0.000    0.000    0.000    0.000 
#    0.000    0.000   12.750    0.000    0.000    0.125 
#
# Total GULP energy -357016.140474 kJ/mol
# GULP energy per Si atom -5578.377195 kJ/mol
# Density = 1.702706 g / cm^3
# Si number density = 17.065906 Si / 1000 Ang^3
#
#
#
# Elastic Constant Matrix: (Units=GPa)
#
#
# Indices 1 2 3 4 5 6 
#
# 1 79.6553 49.1718 14.3222 0.0000 0.0000 0.0000
# 2 49.1718 79.6574 14.3222 0.0000 0.0000 0.0000
# 3 14.3222 14.3222 56.2826 0.0000 0.0000 0.0000
# 4 0.0000 0.0000 0.0000 16.3762 0.0000 0.0000
# 5 0.0000 0.0000 0.0000 0.0000 16.3762 0.0000
# 6 0.0000 0.0000 0.0000 0.0000 0.0000 13.5983
#
#
#
# Elastic Compliance Matrix: (Units=1/GPa)
#
#
# Indices 1 2 3 4 5 6 
#
# 1 0.020516 -0.012288 -0.002094 0.000000 0.000000 0.000000
# 2 -0.012288 0.020515 -0.002094 0.000000 0.000000 0.000000
# 3 -0.002094 -0.002094 0.018833 0.000000 0.000000 0.000000
# 4 0.000000 0.000000 0.000000 0.061064 0.000000 0.000000
# 5 0.000000 0.000000 0.000000 0.000000 0.061064 0.000000
# 6 0.000000 0.000000 0.000000 0.000000 0.000000 0.073539
#
#
# Mechanical properties :
#
#
# Convention : Reuss Voigt Hill
#
# Bulk Modulus (GPa) = 37.15569 41.24751 39.20160
# Shear Modulus (GPa) = 16.80935 18.45541 17.63238
#
# Velocity S-wave (km/s) = 3.14182 3.29206 3.21782
# Velocity P-wave (km/s) = 5.91444 6.21870 6.06848
#
# Compressibility (1/GPa) = 0.02691378
#
# Stress axis : x y z
#
# Youngs Moduli (GPa) = 48.74262 48.74391 53.09816
#
# Poissons Ratio (x) = 0.59896 0.11118
# Poissons Ratio (y) = 0.59894 0.11117
# Poissons Ratio (z) = 0.10206 0.10205
#
# Static dielectric constant tensor:
#      x y z
#    x 1.594780 0.000000 0.000000 
#    y 0.000000 1.594780 0.000000 
#    z 0.000000 0.000000 1.646000 
# 
# From -- ./inp_files/16058.got.cif
#   From: 2010.05.17/outbox.cif.g08.bks.cpg/sg91_9_cif.got.tgz:16058.got - 2010.06.03 19:20:03.
