data_PCOD9548014
_publ_section_title
;
Structure prediction by ZEFSAII (Michael W. Deem and Ramdas Pophale) SiO2 
 PCOD9548014
Probable space group: P 41 2 2
;
_chemical_formula_sum "Si O2"
_cell_formula_units_Z 48
_cell_length_a 11.875302
_cell_length_b 11.875302
_cell_length_c 16.336952
_cell_angle_alpha 90.000000
_cell_angle_beta 90.000000
_cell_angle_gamma 90.000000
_cell_volume 2303.882675
_symmetry_space_group_name_H-M "P 41 2 2"
_symmetry_group_IT_number 91
_symmetry_cell_setting 'tetragonal'
loop_
_space_group_symop_operation_xyz
x,y,z
-y,x,1/4+z
-x,-y,1/2+z
y,-x,3/4+z
x,-y,1/2-z
-x,y,-z
y,x,3/4-z
-y,-x,1/4-z
loop_
_atom_site_type_symbol
_atom_site_label
_atom_site_fract_x
_atom_site_fract_y
_atom_site_fract_z
Si Si1 0.339085 0.938561 0.627610
Si Si2 0.698778 0.434459 0.335926
Si Si3 0.320993 0.079224 0.061546
Si Si4 0.743314 0.437880 0.009874
Si Si5 0.071647 0.563225 0.076281
Si Si6 0.942403 0.106505 0.912952
O O1 0.348812 0.902325 0.533665
O O2 0.356123 0.833401 0.690946
O O3 0.439737 0.021977 0.651666
O O4 0.221008 0.005595 0.626019
O O5 0.696458 0.500000 0.250000
O O6 0.826602 0.396815 0.355051
O O7 0.669675 0.506628 0.416732
O O8 0.628830 0.324935 0.309416
O O9 0.191137 0.102392 0.080483
O O10 0.359558 0.958046 0.096160
O O11 0.807130 0.536373 0.960203
O O12 0.000000 0.610688 0.000000
O O13 0.993336 0.993336 0.875000
O O14 0.000000 0.109638 0.000000
#
# Coordination Sequence:
#
# PCOD9548014 Si02
#       6
#     8   8   8   8   8   8
#     4  11  21  41  65  99 136 170 230 287 331 401
#     4  12  22  39  67 102 131 174 227 291 354 410
#     4  12  22  40  67  96 138 183 229 269 341 413
#     4  11  24  40  67 105 134 175 225 293 355 410
#     4  10  20  40  64  96 133 173 225 274 332 412
#     4  12  25  41  61  97 140 179 223 282 336 403
#
# _framework density 20.834395000000001
#
# number of rings (size 3 to 8) (size 9 to 14) (size 15 to 20)
#    0.000    0.667    6.667    4.500    0.000    0.667 
#    0.000    0.000    0.000   14.000    0.000    0.000 
#    0.000    0.000    0.000    0.000    0.000    0.000 
#
# Total GULP energy -267745.700942 kJ/mol
# GULP energy per Si atom -5578.035436 kJ/mol
# Density = 2.078698 g / cm^3
# Si number density = 20.834395 Si / 1000 Ang^3
#
#
#
# Elastic Constant Matrix: (Units=GPa)
#
#
# Indices 1 2 3 4 5 6 
#
# 1 65.0142 13.3581 22.5143 0.0000 0.0000 0.0000
# 2 13.3581 65.0142 22.5143 0.0000 0.0000 0.0000
# 3 22.5143 22.5143 55.7347 0.0000 0.0000 0.0000
# 4 0.0000 0.0000 0.0000 146.2071 0.0000 0.0000
# 5 0.0000 0.0000 0.0000 0.0000 146.2071 0.0000
# 6 0.0000 0.0000 0.0000 0.0000 0.0000 29.2562
#
#
#
# Elastic Compliance Matrix: (Units=1/GPa)
#
#
# Indices 1 2 3 4 5 6 
#
# 1 0.017987 -0.001371 -0.006712 0.000000 0.000000 0.000000
# 2 -0.001371 0.017987 -0.006712 0.000000 0.000000 0.000000
# 3 -0.006712 -0.006712 0.023365 0.000000 0.000000 0.000000
# 4 0.000000 0.000000 0.000000 0.006840 0.000000 0.000000
# 5 0.000000 0.000000 0.000000 0.000000 0.006840 0.000000
# 6 0.000000 0.000000 0.000000 0.000000 0.000000 0.034181
#
#
# Mechanical properties :
#
#
# Convention : Reuss Voigt Hill
#
# Bulk Modulus (GPa) = 33.61515 33.61519 33.61517
# Shear Modulus (GPa) = 34.08148 72.82584 53.45366
#
# Velocity S-wave (km/s) = 4.04892 5.91866 5.07071
# Velocity P-wave (km/s) = 6.16667 7.92949 7.10298
#
# Compressibility (1/GPa) = 0.02974849
#
# Stress axis : x y z
#
# Youngs Moduli (GPa) = 55.59442 55.59442 42.79916
#
# Poissons Ratio (x) = 0.07624 0.28727
# Poissons Ratio (y) = 0.07624 0.28727
# Poissons Ratio (z) = 0.37316 0.37316
#
# Static dielectric constant tensor:
#      x y z
#    x 1.709680 0.000000 0.000000 
#    y 0.000000 1.709680 0.000000 
#    z 0.000000 0.000000 1.728510 
# 
# From -- ./inp_files/5571.got.cif
#   From: 2010.05.17/outbox.cif.g08.bks.cpg/sg91_3_cif.got.tgz:5571.got - 2010.06.03 19:20:03.
