data_PCOD9548011
_publ_section_title
;
Structure prediction by ZEFSAII (Michael W. Deem and Ramdas Pophale) SiO2 
 PCOD9548011
Probable space group: P 41 2 2
;
_chemical_formula_sum "Si O2"
_cell_formula_units_Z 36
_cell_length_a 13.704118
_cell_length_b 13.704118
_cell_length_c 10.316955
_cell_angle_alpha 90.000000
_cell_angle_beta 90.000000
_cell_angle_gamma 90.000000
_cell_volume 1937.553554
_symmetry_space_group_name_H-M "P 41 2 2"
_symmetry_group_IT_number 91
_symmetry_cell_setting 'tetragonal'
loop_
_space_group_symop_operation_xyz
x,y,z
-y,x,1/4+z
-x,-y,1/2+z
y,-x,3/4+z
x,-y,1/2-z
-x,y,-z
y,x,3/4-z
-y,-x,1/4-z
loop_
_atom_site_type_symbol
_atom_site_label
_atom_site_fract_x
_atom_site_fract_y
_atom_site_fract_z
Si Si1 0.500000 0.252274 0.500000
Si Si2 0.750040 0.835914 0.664849
Si Si3 0.904491 0.000000 0.750000
Si Si4 0.386905 0.059014 0.957667
Si Si5 0.856959 0.358582 0.925292
Si Si6 0.308468 0.691533 0.125000
O O1 0.457064 0.190355 0.618729
O O2 0.405404 0.310410 0.458235
O O3 0.677161 0.893695 0.571036
O O4 0.794874 0.739806 0.595299
O O5 0.695623 0.789448 0.788913
O O6 0.835012 0.909382 0.710130
O O7 0.968069 0.031932 0.625000
O O8 0.375236 0.119937 0.825187
O O9 0.347346 0.953367 0.913669
O O10 0.500000 0.052417 0.000000
#
# Coordination Sequence:
#
# PCOD9548011 Si02
#       6
#     4   8   4   8   8   4
#     4  10  20  40  64  88 120 158 210 262 318 400
#     4  11  23  40  61  90 127 167 212 266 322 389
#     4  12  26  42  64  92 132 184 230 264 322 398
#     4  11  22  36  63  92 124 161 215 269 313 385
#     4  10  22  39  59  92 123 169 203 266 327 372
#     4  10  22  40  68  88 122 162 210 266 334 386
#
# _framework density 18.580131999999999
#
# number of rings (size 3 to 8) (size 9 to 14) (size 15 to 20)
#    0.000    1.333    2.222    3.333    3.111    5.333 
#    0.000    0.000   19.556    0.000    0.000    0.000 
#    0.000    0.000    0.000    0.000    0.000    0.000 
#
# Total GULP energy -200928.432364 kJ/mol
# GULP energy per Si atom -5581.345343 kJ/mol
# Density = 1.853784 g / cm^3
# Si number density = 18.580132 Si / 1000 Ang^3
#
#
#
# Elastic Constant Matrix: (Units=GPa)
#
#
# Indices 1 2 3 4 5 6 
#
# 1 73.7806 27.0427 36.5024 0.0000 0.0000 0.0000
# 2 27.0427 73.7810 36.5023 0.0000 0.0000 0.0000
# 3 36.5024 36.5023 102.2811 0.0000 0.0000 0.0000
# 4 0.0000 0.0000 0.0000 30.7575 0.0000 0.0000
# 5 0.0000 0.0000 0.0000 0.0000 30.7577 0.0000
# 6 0.0000 0.0000 0.0000 0.0000 0.0000 -9.5211
#
#
#
# Elastic Compliance Matrix: (Units=1/GPa)
#
#
# Indices 1 2 3 4 5 6 
#
# 1 0.017385 -0.004011 -0.004773 0.000000 0.000000 0.000000
# 2 -0.004011 0.017385 -0.004773 0.000000 0.000000 0.000000
# 3 -0.004773 -0.004773 0.013184 0.000000 0.000000 0.000000
# 4 0.000000 0.000000 0.000000 0.032512 0.000000 0.000000
# 5 0.000000 0.000000 0.000000 0.000000 0.032512 0.000000
# 6 0.000000 0.000000 0.000000 0.000000 0.000000 -0.105029
#
#
# Mechanical properties :
#
#
# Convention : Reuss Voigt Hill
#
# Bulk Modulus (GPa) = 47.98390 49.99306 48.98848
# Shear Modulus (GPa) = 119.01949 20.38517 69.70233
#
# Velocity S-wave (km/s) = 8.01227 3.31592 6.13155
# Velocity P-wave (km/s) = 10.55825 6.45179 8.74935
#
# Compressibility (1/GPa) = 0.02084032
#
# Stress axis : x y z
#
# Youngs Moduli (GPa) = 57.52013 57.52053 75.85038
#
# Poissons Ratio (x) = 0.23070 0.36204
# Poissons Ratio (y) = 0.23070 0.36204
# Poissons Ratio (z) = 0.27455 0.27455
#
# Static dielectric constant tensor:
#      x y z
#    x 1.619930 0.000000 0.000000 
#    y 0.000000 1.619930 0.000000 
#    z 0.000000 0.000000 1.652880 
# 
# From -- ./inp_files/14944.got.cif
#   From: 2010.05.17/outbox.cif.g08.bks.cpg/sg91_8_cif.got.tgz:14944.got - 2010.06.03 19:20:03.
