data_PCOD9548422
_publ_section_title
;
Structure prediction by ZEFSAII (Michael W. Deem and Ramdas Pophale) SiO2 
 PCOD9548422
Probable space group: P 41 2 2
;
_chemical_formula_sum "Si O2"
_cell_formula_units_Z 24
_cell_length_a 8.683041
_cell_length_b 8.683041
_cell_length_c 11.883695
_cell_angle_alpha 90.000000
_cell_angle_beta 90.000000
_cell_angle_gamma 90.000000
_cell_volume 895.973573
_symmetry_space_group_name_H-M "P 41 2 2"
_symmetry_group_IT_number 91
_symmetry_cell_setting 'tetragonal'
loop_
_space_group_symop_operation_xyz
x,y,z
-y,x,1/4+z
-x,-y,1/2+z
y,-x,3/4+z
x,-y,1/2-z
-x,y,-z
y,x,3/4-z
-y,-x,1/4-z
loop_
_atom_site_type_symbol
_atom_site_label
_atom_site_fract_x
_atom_site_fract_y
_atom_site_fract_z
Si Si1 0.794612 0.794612 0.875000
Si Si2 0.459272 0.240505 0.633316
Si Si3 0.748002 0.023700 0.076450
Si Si4 0.270896 0.500000 0.750000
O O1 0.796652 0.626315 0.936225
O O2 0.935461 0.790673 0.789191
O O3 0.500000 0.241322 0.500000
O O4 0.381973 0.396256 0.673935
O O5 0.333465 0.108437 0.650006
O O6 0.896901 0.103099 0.125000
O O7 0.619134 0.155495 0.059902
#
# Coordination Sequence:
#
# PCOD9548422 Si02
#       4
#     4   8   8   4
#     4  10  22  54  88 114 176 224 276 356 432 498
#     4  10  25  51  87 125 167 228 285 352 426 510
#     4  11  26  53  85 129 174 222 284 358 437 509
#     4  12  26  50  90 128 170 218 296 354 422 518
#
# _framework density 26.786507
#
# number of rings (size 3 to 8) (size 9 to 14) (size 15 to 20)
#    0.000    1.333    5.000    0.000    9.333    1.333 
#    9.000    5.000    0.000    0.000    0.000    0.000 
#    0.000    0.000    0.000    0.000    0.000    0.000 
#
# Total GULP energy -134780.520407 kJ/mol
# GULP energy per Si atom -5615.855017 kJ/mol
# Density = 2.672554 g / cm^3
# Si number density = 26.786507 Si / 1000 Ang^3
#
#
#
# Elastic Constant Matrix: (Units=GPa)
#
#
# Indices 1 2 3 4 5 6 
#
# 1 54.8255 300.4124 71.6769 0.0000 0.0000 0.0000
# 2 300.4124 54.8412 71.6837 0.0000 0.0000 0.0000
# 3 71.6769 71.6837 79.6119 0.0000 0.0000 0.0000
# 4 0.0000 0.0000 0.0000 61.8051 0.0000 0.0000
# 5 0.0000 0.0000 0.0000 0.0000 61.8049 0.0000
# 6 0.0000 0.0000 0.0000 0.0000 0.0000 86.2909
#
#
#
# Elastic Compliance Matrix: (Units=1/GPa)
#
#
# Indices 1 2 3 4 5 6 
#
# 1 0.000175 0.004247 -0.003981 0.000000 0.000000 0.000000
# 2 0.004247 0.000175 -0.003981 0.000000 0.000000 0.000000
# 3 -0.003981 -0.003981 0.019730 0.000000 0.000000 0.000000
# 4 0.000000 0.000000 0.000000 0.016180 0.000000 0.000000
# 5 0.000000 0.000000 0.000000 0.000000 0.016180 0.000000
# 6 0.000000 0.000000 0.000000 0.000000 0.000000 0.011589
#
#
# Mechanical properties :
#
#
# Convention : Reuss Voigt Hill
#
# Bulk Modulus (GPa) = 79.05947 119.64719 99.35333
# Shear Modulus (GPa) = 66.07254 25.01388 45.54321
#
# Velocity S-wave (km/s) = 4.97191 3.05917 4.12786
# Velocity P-wave (km/s) = 7.90814 7.56584 7.73888
#
# Compressibility (1/GPa) = 0.01264871
#
# Stress axis : x y z
#
# Youngs Moduli (GPa) = 5723.69495 5721.63204 50.68507
#
# Poissons Ratio (x) = -24.29835 0.20178
# Poissons Ratio (y) = -24.30711 0.20177
# Poissons Ratio (z) = 22.78680 22.77693
#
# Static dielectric constant tensor:
#      x y z
#    x 2.064230 0.000000 0.000000 
#    y 0.000000 2.064220 0.000000 
#    z 0.000000 0.000000 2.185300 
# 
# From -- ./inp_files/20500.got.cif
#   From: 2010.05.17/outbox.cif.g08.bks.cpg/sg91_11_cif.got.tgz:20500.got - 2010.06.03 19:20:03.
