data_PCOD9548094
_publ_section_title
;
Structure prediction by ZEFSAII (Michael W. Deem and Ramdas Pophale) SiO2 
 PCOD9548094
Probable space group: P 41 2 2
;
_chemical_formula_sum "Si O2"
_cell_formula_units_Z 48
_cell_length_a 20.760181
_cell_length_b 20.760181
_cell_length_c 5.250292
_cell_angle_alpha 90.000000
_cell_angle_beta 90.000000
_cell_angle_gamma 90.000000
_cell_volume 2262.797702
_symmetry_space_group_name_H-M "P 41 2 2"
_symmetry_group_IT_number 91
_symmetry_cell_setting 'tetragonal'
loop_
_space_group_symop_operation_xyz
x,y,z
-y,x,1/4+z
-x,-y,1/2+z
y,-x,3/4+z
x,-y,1/2-z
-x,y,-z
y,x,3/4-z
-y,-x,1/4-z
loop_
_atom_site_type_symbol
_atom_site_label
_atom_site_fract_x
_atom_site_fract_y
_atom_site_fract_z
Si Si1 0.340843 0.762657 0.154349
Si Si2 0.613225 0.275704 0.153108
Si Si3 0.867606 0.764719 0.890790
Si Si4 0.712874 0.070999 0.124530
Si Si5 0.343413 0.500000 0.750000
Si Si6 0.431182 0.568819 0.125000
Si Si7 0.045312 0.429057 0.752103
O O1 0.307034 0.692967 0.125000
O O2 0.390654 0.758835 0.381349
O O3 0.284535 0.811267 0.225786
O O4 0.369779 0.773142 0.877837
O O5 0.671773 0.328228 0.125000
O O6 0.543439 0.305784 0.202940
O O7 0.834920 0.834920 0.875000
O O8 0.887012 0.740905 0.608350
O O9 0.919577 0.754679 0.116183
O O10 0.638258 0.082923 0.040691
O O11 0.714530 0.000000 0.250000
O O12 0.380915 0.442303 0.602273
O O13 0.427176 0.500000 0.250000
O O14 0.078580 0.500000 0.750000
O O15 0.000000 0.421979 0.500000
O O16 0.000000 0.432864 0.000000
#
# Coordination Sequence:
#
# PCOD9548094 Si02
#       7
#     8   8   8   8   4   4   8
#     4   9  20  38  59  77 100 140 198 241 284 355
#     4  10  21  37  55  76  96 133 184 245 302 366
#     4  11  22  39  64  91 127 175 217 256 311 375
#     4  11  21  36  62  99 136 168 214 270 319 375
#     4  12  26  34  58  72 106 134 184 242 324 392
#     4  12  22  38  46  74 102 134 166 234 314 402
#     4   9  17  31  53  82 120 165 208 252 316 389
#
# _framework density 21.212679000000001
#
# number of rings (size 3 to 8) (size 9 to 14) (size 15 to 20)
#    0.000    1.667    0.833    5.000    5.833    2.667 
#    0.000    0.000   11.000    0.000    0.000    0.000 
#    0.000   18.667    0.000    0.000    0.000    0.000 
#
# Total GULP energy -267336.603342 kJ/mol
# GULP energy per Si atom -5569.512570 kJ/mol
# Density = 2.116440 g / cm^3
# Si number density = 21.212679 Si / 1000 Ang^3
#
#
#
# Elastic Constant Matrix: (Units=GPa)
#
#
# Indices 1 2 3 4 5 6 
#
# 1 53.9693 21.2423 23.8491 0.0000 0.0000 0.0000
# 2 21.2423 53.9701 23.8489 0.0000 0.0000 0.0000
# 3 23.8491 23.8489 139.5575 0.0000 0.0000 0.0000
# 4 0.0000 0.0000 0.0000 -20.0602 0.0000 0.0000
# 5 0.0000 0.0000 0.0000 0.0000 -19.7188 0.0000
# 6 0.0000 0.0000 0.0000 0.0000 0.0000 27.9427
#
#
#
# Elastic Compliance Matrix: (Units=1/GPa)
#
#
# Indices 1 2 3 4 5 6 
#
# 1 0.022734 -0.007822 -0.002548 0.000000 0.000000 0.000000
# 2 -0.007822 0.022733 -0.002548 0.000000 0.000000 0.000000
# 3 -0.002548 -0.002548 0.008036 0.000000 0.000000 0.000000
# 4 0.000000 0.000000 0.000000 -0.049850 0.000000 0.000000
# 5 0.000000 0.000000 0.000000 0.000000 -0.050713 0.000000
# 6 0.000000 0.000000 0.000000 0.000000 0.000000 0.035788
#
#
# Mechanical properties :
#
#
# Convention : Reuss Voigt Hill
#
# Bulk Modulus (GPa) = 36.14418 42.81972 39.48195
# Shear Modulus (GPa) = 210.19741 9.53653 109.86697
#
# Velocity S-wave (km/s) = 9.96522 2.12260 7.20455
# Velocity P-wave (km/s) = 12.22634 5.12220 9.37338
#
# Compressibility (1/GPa) = 0.02766697
#
# Stress axis : x y z
#
# Youngs Moduli (GPa) = 43.98731 43.98809 124.43288
#
# Poissons Ratio (x) = 0.34407 0.31710
# Poissons Ratio (y) = 0.34406 0.31708
# Poissons Ratio (z) = 0.11209 0.11209
#
# Static dielectric constant tensor:
#      x y z
#    x 1.842700 0.000000 0.000000 
#    y 0.000000 1.842370 0.000000 
#    z 0.000000 0.000000 1.747940 
# 
# From -- ./inp_files/14385.got.cif
#   From: 2010.05.17/outbox.cif.g08.bks.cpg/sg91_8_cif.got.tgz:14385.got - 2010.06.03 19:20:03.
