data_PCOD9548872
_publ_section_title
;
Structure prediction by ZEFSAII (Michael W. Deem and Ramdas Pophale) SiO2 
 PCOD9548872
Probable space group: P 41 21 2
;
_chemical_formula_sum "Si O2"
_cell_formula_units_Z 32
_cell_length_a 13.239629
_cell_length_b 13.239629
_cell_length_c 8.495492
_cell_angle_alpha 90.000000
_cell_angle_beta 90.000000
_cell_angle_gamma 90.000000
_cell_volume 1489.155899
_symmetry_space_group_name_H-M "P 41 21 2"
_symmetry_group_IT_number 92
_symmetry_cell_setting 'tetragonal'
loop_
_space_group_symop_operation_xyz
x,y,z
1/2-y,1/2+x,1/4+z
-x,-y,1/2+z
1/2+y,1/2-x,3/4+z
1/2+x,1/2-y,3/4-z
1/2-x,1/2+y,1/4-z
y,x,-z
-y,-x,1/2-z
loop_
_atom_site_type_symbol
_atom_site_label
_atom_site_fract_x
_atom_site_fract_y
_atom_site_fract_z
Si Si1 0.560429 0.560429 0.000000
Si Si2 0.426490 0.922184 0.554193
Si Si3 0.965962 0.254252 0.851195
Si Si4 0.205151 0.878451 0.480412
Si Si5 0.395465 0.604536 0.250000
O O1 0.650565 0.567530 0.125084
O O2 0.460711 0.569371 0.101428
O O3 0.466717 0.914750 0.731058
O O4 0.510609 0.868861 0.443114
O O5 0.321218 0.863708 0.528481
O O6 0.864316 0.219448 0.941741
O O7 0.947466 0.206335 0.676787
O O8 0.062528 0.213495 0.950232
#
# Coordination Sequence:
#
# PCOD9548872 Si02
#       5
#     4   8   8   8   4
#     4  10  18  32  54  80 112 144 184 236 288 346
#     4  10  22  39  58  82 115 154 192 235 287 348
#     4   9  19  35  56  81 114 148 190 238 284 341
#     4   9  19  36  54  79 114 148 188 239 285 336
#     4  10  18  30  54  84 110 148 188 234 292 338
#
# _framework density 21.488683999999999
#
# number of rings (size 3 to 8) (size 9 to 14) (size 15 to 20)
#    0.000    2.500    0.000    3.000    0.000    8.000 
#    0.000    5.000    0.000    0.000    0.000    0.000 
#    0.000    0.000    0.000    0.000    0.000    0.000 
#
# Total GULP energy -178221.388359 kJ/mol
# GULP energy per Si atom -5569.418386 kJ/mol
# Density = 2.143977 g / cm^3
# Si number density = 21.488684 Si / 1000 Ang^3
#
#
#
# Elastic Constant Matrix: (Units=GPa)
#
#
# Indices 1 2 3 4 5 6 
#
# 1 63.1120 -9.1711 -4.1556 0.0000 0.0000 0.0000
# 2 -9.1711 63.1125 -4.1545 0.0000 0.0000 0.0000
# 3 -4.1556 -4.1545 51.5697 0.0000 0.0000 0.0000
# 4 0.0000 0.0000 0.0000 28.7557 0.0000 0.0000
# 5 0.0000 0.0000 0.0000 0.0000 28.7557 0.0000
# 6 0.0000 0.0000 0.0000 0.0000 0.0000 10.3807
#
#
#
# Elastic Compliance Matrix: (Units=1/GPa)
#
#
# Indices 1 2 3 4 5 6 
#
# 1 0.016303 0.002469 0.001513 0.000000 0.000000 0.000000
# 2 0.002469 0.016303 0.001512 0.000000 0.000000 0.000000
# 3 0.001513 0.001512 0.019635 0.000000 0.000000 0.000000
# 4 0.000000 0.000000 0.000000 0.034776 0.000000 0.000000
# 5 0.000000 0.000000 0.000000 0.000000 0.034776 0.000000
# 6 0.000000 0.000000 0.000000 0.000000 0.000000 0.096333
#
#
# Mechanical properties :
#
#
# Convention : Reuss Voigt Hill
#
# Bulk Modulus (GPa) = 15.81572 15.87021 15.84296
# Shear Modulus (GPa) = 21.90926 26.59679 24.25302
#
# Velocity S-wave (km/s) = 3.19654 3.52193 3.36317
# Velocity P-wave (km/s) = 4.58255 4.89286 4.74025
#
# Compressibility (1/GPa) = 0.06322824
#
# Stress axis : x y z
#
# Youngs Moduli (GPa) = 61.33778 61.33842 50.92963
#
# Poissons Ratio (x) = -0.15142 -0.07704
# Poissons Ratio (y) = -0.15142 -0.07702
# Poissons Ratio (z) = -0.09278 -0.09276
#
# Static dielectric constant tensor:
#      x y z
#    x 1.823070 0.000000 0.000000 
#    y 0.000000 1.823070 0.000000 
#    z 0.000000 0.000000 1.762750 
# 
# From -- ./inp_files/1157.got.cif
#   From: 2010.05.17/outbox.cif.g08.bks.cpg/sg92_1_cif.got.tgz:1157.got - 2010.06.03 19:35:17.
