data_PCOD9548382
_publ_section_title
;
Structure prediction by ZEFSAII (Michael W. Deem and Ramdas Pophale) SiO2 
 PCOD9548382
Probable space group: P 41 2 2
;
_chemical_formula_sum "Si O2"
_cell_formula_units_Z 60
_cell_length_a 17.791403
_cell_length_b 17.791403
_cell_length_c 9.009945
_cell_angle_alpha 90.000000
_cell_angle_beta 90.000000
_cell_angle_gamma 90.000000
_cell_volume 2851.954117
_symmetry_space_group_name_H-M "P 41 2 2"
_symmetry_group_IT_number 91
_symmetry_cell_setting 'tetragonal'
loop_
_space_group_symop_operation_xyz
x,y,z
-y,x,1/4+z
-x,-y,1/2+z
y,-x,3/4+z
x,-y,1/2-z
-x,y,-z
y,x,3/4-z
-y,-x,1/4-z
loop_
_atom_site_type_symbol
_atom_site_label
_atom_site_fract_x
_atom_site_fract_y
_atom_site_fract_z
Si Si1 0.888348 0.424426 0.343855
Si Si2 0.420040 0.176831 0.425256
Si Si3 0.724193 0.660941 0.609684
Si Si4 0.029279 0.330059 0.291025
Si Si5 0.183936 0.079401 0.277437
Si Si6 0.753955 0.000000 0.250000
Si Si7 0.830151 0.800468 0.541547
Si Si8 0.589089 0.257122 0.040635
O O1 0.905319 0.500000 0.250000
O O2 0.844481 0.430403 0.501441
O O3 0.827615 0.384112 0.240720
O O4 0.964546 0.379942 0.363177
O O5 0.500000 0.181268 0.500000
O O6 0.377823 0.252215 0.484305
O O7 0.378143 0.103494 0.491188
O O8 0.785320 0.728660 0.603518
O O9 0.732153 0.605826 0.465549
O O10 0.641434 0.693909 0.570570
O O11 0.058848 0.260287 0.387990
O O12 0.991350 0.297726 0.143461
O O13 0.134130 0.134130 0.375000
O O14 0.196392 0.125531 0.128310
O O15 0.144560 0.000000 0.250000
O O16 0.796498 0.078417 0.287213
O O17 0.805021 0.805021 0.375000
O O18 0.500000 0.263903 0.000000
#
# Coordination Sequence:
#
# PCOD9548382 Si02
#       8
#     8   8   8   8   8   4   8   8
#     4  11  25  43  68 102 142 191 234 293 371 446
#     4  12  25  42  65 105 146 186 234 296 362 441
#     4  11  23  44  69 105 143 186 242 298 362 448
#     4  12  26  42  71  96 142 190 239 301 369 446
#     4  12  26  48  63  94 132 177 240 300 359 417
#     4  12  24  44  70 102 130 186 246 306 366 446
#     4  12  25  44  73 102 137 185 247 309 367 443
#     4  10  22  43  73 105 142 187 237 304 370 446
#
# _framework density 21.038208000000001
#
# number of rings (size 3 to 8) (size 9 to 14) (size 15 to 20)
#    0.000    0.533    4.000    4.800    5.600    0.533 
#    1.200    0.000    0.000    3.200    0.000    0.000 
#    0.000    0.000    0.000    0.000    0.000    0.000 
#
# Total GULP energy -334882.536895 kJ/mol
# GULP energy per Si atom -5581.375615 kJ/mol
# Density = 2.099032 g / cm^3
# Si number density = 21.038208 Si / 1000 Ang^3
#
#
#
# Elastic Constant Matrix: (Units=GPa)
#
#
# Indices 1 2 3 4 5 6 
#
# 1 120.0761 43.1513 40.1816 0.0000 0.0000 0.0000
# 2 43.1513 120.0761 40.1816 0.0000 0.0000 0.0000
# 3 40.1816 40.1816 102.7168 0.0000 0.0000 0.0000
# 4 0.0000 0.0000 0.0000 152.6212 0.0000 0.0000
# 5 0.0000 0.0000 0.0000 0.0000 152.6212 0.0000
# 6 0.0000 0.0000 0.0000 0.0000 0.0000 31.4461
#
#
#
# Elastic Compliance Matrix: (Units=1/GPa)
#
#
# Indices 1 2 3 4 5 6 
#
# 1 0.010294 -0.002706 -0.002968 0.000000 0.000000 0.000000
# 2 -0.002706 0.010294 -0.002968 0.000000 0.000000 0.000000
# 3 -0.002968 -0.002968 0.012058 0.000000 0.000000 0.000000
# 4 0.000000 0.000000 0.000000 0.006552 0.000000 0.000000
# 5 0.000000 0.000000 0.000000 0.000000 0.006552 0.000000
# 6 0.000000 0.000000 0.000000 0.000000 0.000000 0.031800
#
#
# Mechanical properties :
#
#
# Convention : Reuss Voigt Hill
#
# Bulk Modulus (GPa) = 65.10256 65.54422 65.32339
# Shear Modulus (GPa) = 50.02241 81.96134 65.99187
#
# Velocity S-wave (km/s) = 4.88145 6.24843 5.60676
# Velocity P-wave (km/s) = 7.92360 9.12577 8.54585
#
# Compressibility (1/GPa) = 0.01536038
#
# Stress axis : x y z
#
# Youngs Moduli (GPa) = 97.14622 97.14622 82.93385
#
# Poissons Ratio (x) = 0.26287 0.24617
# Poissons Ratio (y) = 0.26287 0.24617
# Poissons Ratio (z) = 0.28836 0.28836
#
# Static dielectric constant tensor:
#      x y z
#    x 1.521890 0.000000 0.000000 
#    y 0.000000 1.521890 0.000000 
#    z 0.000000 0.000000 1.819210 
# 
# From -- ./inp_files/19717.got.cif
#   From: 2010.05.17/outbox.cif.g08.bks.cpg/sg91_10_cif.got.tgz:19717.got - 2010.06.03 19:20:03.
