data_PCOD9548555
_publ_section_title
;
Structure prediction by ZEFSAII (Michael W. Deem and Ramdas Pophale) SiO2 
 PCOD9548555
Probable space group: P 41 2 2
;
_chemical_formula_sum "Si O2"
_cell_formula_units_Z 48
_cell_length_a 11.002065
_cell_length_b 11.002065
_cell_length_c 17.428365
_cell_angle_alpha 90.000000
_cell_angle_beta 90.000000
_cell_angle_gamma 90.000000
_cell_volume 2109.624010
_symmetry_space_group_name_H-M "P 41 2 2"
_symmetry_group_IT_number 91
_symmetry_cell_setting 'tetragonal'
loop_
_space_group_symop_operation_xyz
x,y,z
-y,x,1/4+z
-x,-y,1/2+z
y,-x,3/4+z
x,-y,1/2-z
-x,y,-z
y,x,3/4-z
-y,-x,1/4-z
loop_
_atom_site_type_symbol
_atom_site_label
_atom_site_fract_x
_atom_site_fract_y
_atom_site_fract_z
Si Si1 0.614369 0.984977 0.342015
Si Si2 0.740966 0.259035 0.125000
Si Si3 0.000000 0.936803 0.500000
Si Si4 0.600402 0.373528 0.708675
Si Si5 0.177383 0.899897 0.905904
Si Si6 0.363242 0.843491 0.329832
Si Si7 0.322833 0.374031 0.721422
O O1 0.698025 0.878537 0.378394
O O2 0.473038 0.939000 0.344445
O O3 0.633476 0.000000 0.250000
O O4 0.673813 0.095570 0.392220
O O5 0.672169 0.296931 0.201975
O O6 0.941866 0.866016 0.571604
O O7 0.885116 0.008374 0.465439
O O8 0.642365 0.500000 0.750000
O O9 0.655230 0.344771 0.625000
O O10 0.605910 0.256776 0.764544
O O11 0.457501 0.394300 0.690707
O O12 0.115811 0.773866 0.933955
O O13 0.336252 0.767531 0.406628
O O14 0.270233 0.500000 0.750000
#
# Coordination Sequence:
#
# PCOD9548555 Si02
#       7
#     8   4   4   8   8   8   8
#     4  12  26  44  74 110 149 193 256 325 382 463
#     4  12  22  42  74 110 144 190 254 324 382 444
#     4  10  24  52  76  98 144 194 264 320 382 458
#     4  11  22  40  65 102 151 199 234 297 389 473
#     4  11  26  48  75 108 142 203 256 326 389 463
#     4  12  26  44  73 109 150 201 249 323 386 469
#     4  11  20  36  64 106 142 184 242 299 376 447
#
# _framework density 22.752866999999998
#
# number of rings (size 3 to 8) (size 9 to 14) (size 15 to 20)
#    0.000    0.667    5.833    2.000    5.833    0.000 
#    3.000    1.667    0.000    0.000    0.000    0.000 
#    0.000    0.000    0.000    0.000    0.000    0.000 
#
# Total GULP energy -267381.284052 kJ/mol
# GULP energy per Si atom -5570.443418 kJ/mol
# Density = 2.270108 g / cm^3
# Si number density = 22.752867 Si / 1000 Ang^3
#
#
#
# Elastic Constant Matrix: (Units=GPa)
#
#
# Indices 1 2 3 4 5 6 
#
# 1 78.3055 35.2624 16.3745 0.0000 0.0000 0.0000
# 2 35.2624 78.3061 16.3753 0.0000 0.0000 0.0000
# 3 16.3745 16.3753 94.3567 0.0000 0.0000 0.0000
# 4 0.0000 0.0000 0.0000 24.6101 0.0000 0.0000
# 5 0.0000 0.0000 0.0000 0.0000 24.6100 0.0000
# 6 0.0000 0.0000 0.0000 0.0000 0.0000 24.8628
#
#
#
# Elastic Compliance Matrix: (Units=1/GPa)
#
#
# Indices 1 2 3 4 5 6 
#
# 1 0.016251 -0.006982 -0.001608 0.000000 0.000000 0.000000
# 2 -0.006982 0.016251 -0.001609 0.000000 0.000000 0.000000
# 3 -0.001608 -0.001609 0.011156 0.000000 0.000000 0.000000
# 4 0.000000 0.000000 0.000000 0.040634 0.000000 0.000000
# 5 0.000000 0.000000 0.000000 0.000000 0.040634 0.000000
# 6 0.000000 0.000000 0.000000 0.000000 0.000000 0.040221
#
#
# Mechanical properties :
#
#
# Convention : Reuss Voigt Hill
#
# Bulk Modulus (GPa) = 42.99166 42.99921 42.99543
# Shear Modulus (GPa) = 25.86691 27.01367 26.44029
#
# Velocity S-wave (km/s) = 3.37540 3.44941 3.41260
# Velocity P-wave (km/s) = 5.84185 5.89949 5.87074
#
# Compressibility (1/GPa) = 0.02326033
#
# Stress axis : x y z
#
# Youngs Moduli (GPa) = 61.53546 61.53568 89.63469
#
# Poissons Ratio (x) = 0.42962 0.14418
# Poissons Ratio (y) = 0.42962 0.14419
# Poissons Ratio (z) = 0.09898 0.09899
#
# Static dielectric constant tensor:
#      x y z
#    x 1.991050 0.000000 0.000000 
#    y 0.000000 1.991050 0.000000 
#    z 0.000000 0.000000 1.765260 
# 
# From -- ./inp_files/5618.got.cif
#   From: 2010.05.17/outbox.cif.g08.bks.cpg/sg91_3_cif.got.tgz:5618.got - 2010.06.03 19:20:03.
