data_PCOD9548279
_publ_section_title
;
Structure prediction by ZEFSAII (Michael W. Deem and Ramdas Pophale) SiO2 
 PCOD9548279
Probable space group: P 41 2 2
;
_chemical_formula_sum "Si O2"
_cell_formula_units_Z 60
_cell_length_a 18.488920
_cell_length_b 18.488920
_cell_length_c 9.653054
_cell_angle_alpha 90.000000
_cell_angle_beta 90.000000
_cell_angle_gamma 90.000000
_cell_volume 3299.801551
_symmetry_space_group_name_H-M "P 41 2 2"
_symmetry_group_IT_number 91
_symmetry_cell_setting 'tetragonal'
loop_
_space_group_symop_operation_xyz
x,y,z
-y,x,1/4+z
-x,-y,1/2+z
y,-x,3/4+z
x,-y,1/2-z
-x,y,-z
y,x,3/4-z
-y,-x,1/4-z
loop_
_atom_site_type_symbol
_atom_site_label
_atom_site_fract_x
_atom_site_fract_y
_atom_site_fract_z
Si Si1 0.304600 0.769150 0.751287
Si Si2 0.068075 0.341423 0.585207
Si Si3 0.420216 0.652882 0.260900
Si Si4 0.246084 0.533907 0.401954
Si Si5 0.113685 0.502461 0.596602
Si Si6 0.664444 0.067517 0.155992
Si Si7 0.226306 0.705523 0.990992
Si Si8 0.420178 0.500000 0.750000
O O1 0.284524 0.715477 0.625000
O O2 0.379907 0.751245 0.830348
O O3 0.310949 0.852587 0.704903
O O4 0.241573 0.756042 0.860183
O O5 0.069305 0.429087 0.585030
O O6 0.061756 0.316765 0.744183
O O7 0.143908 0.319380 0.516395
O O8 0.000000 0.314679 0.500000
O O9 0.497895 0.684694 0.220372
O O10 0.363437 0.719441 0.269066
O O11 0.436217 0.621501 0.414468
O O12 0.394194 0.605807 0.125000
O O13 0.242572 0.500000 0.250000
O O14 0.175477 0.507469 0.483059
O O15 0.149027 0.500000 0.750000
O O16 0.069553 0.576608 0.588015
O O17 0.689254 0.000000 0.250000
O O18 0.250450 0.749551 0.125000
O O19 0.466757 0.466757 0.875000
#
# Coordination Sequence:
#
# PCOD9548279 Si02
#       8
#     8   8   8   8   8   8   8   4
#     4  11  24  41  64  89 125 165 208 255 314 375
#     4  11  22  37  61  87 124 160 201 246 305 363
#     4  11  26  42  63  86 115 150 208 261 315 370
#     4  11  23  37  61  89 119 156 208 256 309 370
#     4   9  20  37  55  86 122 160 198 245 295 368
#     4  10  22  39  59  88 122 162 207 249 300 373
#     4  11  24  42  61  93 124 158 200 256 309 368
#     4  12  30  46  62  78 108 148 202 274 332 370
#
# _framework density 18.182912999999999
#
# number of rings (size 3 to 8) (size 9 to 14) (size 15 to 20)
#    0.000    1.333    2.667    2.400    8.400    1.067 
#    0.000    0.667    0.000    0.000    0.000    0.000 
#    0.000    3.200    0.000    0.000    0.000    0.000 
#
# Total GULP energy -334856.154488 kJ/mol
# GULP energy per Si atom -5580.935908 kJ/mol
# Density = 1.814153 g / cm^3
# Si number density = 18.182913 Si / 1000 Ang^3
#
#
#
# Elastic Constant Matrix: (Units=GPa)
#
#
# Indices 1 2 3 4 5 6 
#
# 1 72.3199 46.8479 46.4490 0.0000 0.0000 0.0000
# 2 46.8479 72.3224 46.4482 0.0000 0.0000 0.0000
# 3 46.4490 46.4482 126.3489 0.0000 0.0000 0.0000
# 4 0.0000 0.0000 0.0000 27.1765 0.0000 0.0000
# 5 0.0000 0.0000 0.0000 0.0000 27.1754 0.0000
# 6 0.0000 0.0000 0.0000 0.0000 0.0000 5.9962
#
#
#
# Elastic Compliance Matrix: (Units=1/GPa)
#
#
# Indices 1 2 3 4 5 6 
#
# 1 0.025510 -0.013747 -0.004324 0.000000 0.000000 0.000000
# 2 -0.013747 0.025509 -0.004324 0.000000 0.000000 0.000000
# 3 -0.004324 -0.004324 0.011094 0.000000 0.000000 0.000000
# 4 0.000000 0.000000 0.000000 0.036796 0.000000 0.000000
# 5 0.000000 0.000000 0.000000 0.000000 0.036798 0.000000
# 6 0.000000 0.000000 0.000000 0.000000 0.000000 0.166773
#
#
# Mechanical properties :
#
#
# Convention : Reuss Voigt Hill
#
# Bulk Modulus (GPa) = 57.72984 61.16459 59.44722
# Shear Modulus (GPa) = 14.16248 20.81935 17.49092
#
# Velocity S-wave (km/s) = 2.79389 3.38745 3.10488
# Velocity P-wave (km/s) = 6.49817 7.00081 6.75416
#
# Compressibility (1/GPa) = 0.01732206
#
# Stress axis : x y z
#
# Youngs Moduli (GPa) = 39.19997 39.20217 90.14030
#
# Poissons Ratio (x) = 0.53892 0.38981
# Poissons Ratio (y) = 0.53889 0.38974
# Poissons Ratio (z) = 0.16952 0.16950
#
# Static dielectric constant tensor:
#      x y z
#    x 1.644460 0.000000 0.000000 
#    y 0.000000 1.644460 0.000000 
#    z 0.000000 0.000000 1.695790 
# 
# From -- ./inp_files/10077.got.cif
#   From: 2010.05.17/outbox.cif.g08.bks.cpg/sg91_6_cif.got.tgz:10077.got - 2010.06.03 19:20:03.
