data_PCOD9548808
_publ_section_title
;
Structure prediction by ZEFSAII (Michael W. Deem and Ramdas Pophale) SiO2 
 PCOD9548808
Probable space group: P 41 2 2
;
_chemical_formula_sum "Si O2"
_cell_formula_units_Z 48
_cell_length_a 8.477748
_cell_length_b 8.477748
_cell_length_c 28.681861
_cell_angle_alpha 90.000000
_cell_angle_beta 90.000000
_cell_angle_gamma 90.000000
_cell_volume 2061.428770
_symmetry_space_group_name_H-M "P 41 2 2"
_symmetry_group_IT_number 91
_symmetry_cell_setting 'tetragonal'
loop_
_space_group_symop_operation_xyz
x,y,z
-y,x,1/4+z
-x,-y,1/2+z
y,-x,3/4+z
x,-y,1/2-z
-x,y,-z
y,x,3/4-z
-y,-x,1/4-z
loop_
_atom_site_type_symbol
_atom_site_label
_atom_site_fract_x
_atom_site_fract_y
_atom_site_fract_z
Si Si1 0.500000 0.913665 0.000000
Si Si2 0.000000 0.359356 0.000000
Si Si3 0.712911 0.726100 0.806241
Si Si4 0.296328 0.840942 0.465561
Si Si5 0.436439 0.497511 0.676733
Si Si6 0.389508 0.197853 0.206177
Si Si7 0.033084 0.810215 0.883157
O O1 0.435775 0.811130 0.043516
O O2 0.354195 0.035348 0.995416
O O3 0.934575 0.474646 0.040621
O O4 0.144952 0.255164 0.017651
O O5 0.549041 0.655443 0.824449
O O6 0.699297 0.801779 0.755161
O O7 0.757187 0.874329 0.838699
O O8 0.434962 0.722984 0.449445
O O9 0.254979 0.936192 0.418430
O O10 0.429895 0.570106 0.625000
O O11 0.518659 0.636522 0.705417
O O12 0.265314 0.169829 0.164944
O O13 0.996321 0.996321 0.875000
#
# Coordination Sequence:
#
# PCOD9548808 Si02
#       7
#     4   4   8   8   8   8   8
#     4  12  26  44  74 106 144 196 252 314 376 454
#     4  12  26  48  76 106 156 206 246 318 406 472
#     4  12  24  45  78 108 140 199 261 316 368 452
#     4  12  27  48  73 112 157 197 249 321 399 476
#     4  12  24  44  78 113 144 194 263 321 369 448
#     4  12  23  45  78 110 145 194 259 317 380 452
#     4  12  25  46  70 106 157 195 248 310 383 465
#
# _framework density 23.284822999999999
#
# number of rings (size 3 to 8) (size 9 to 14) (size 15 to 20)
#    0.000    0.000    8.333    1.500    0.000    1.333 
#    3.000    0.833    0.000    0.000    0.000    0.000 
#    0.000    0.000    0.000    0.000    0.000    0.000 
#
# Total GULP energy -267727.918893 kJ/mol
# GULP energy per Si atom -5577.664977 kJ/mol
# Density = 2.323183 g / cm^3
# Si number density = 23.284823 Si / 1000 Ang^3
#
#
#
# Elastic Constant Matrix: (Units=GPa)
#
#
# Indices 1 2 3 4 5 6 
#
# 1 96.3011 55.3108 21.0963 0.0000 0.0000 0.0000
# 2 55.3108 96.3012 21.0963 0.0000 0.0000 0.0000
# 3 21.0963 21.0963 95.7065 0.0000 0.0000 0.0000
# 4 0.0000 0.0000 0.0000 28.7191 0.0000 0.0000
# 5 0.0000 0.0000 0.0000 0.0000 28.7191 0.0000
# 6 0.0000 0.0000 0.0000 0.0000 0.0000 57.6883
#
#
#
# Elastic Compliance Matrix: (Units=1/GPa)
#
#
# Indices 1 2 3 4 5 6 
#
# 1 0.015711 -0.008685 -0.001549 0.000000 0.000000 0.000000
# 2 -0.008685 0.015711 -0.001549 0.000000 0.000000 0.000000
# 3 -0.001549 -0.001549 0.011131 0.000000 0.000000 0.000000
# 4 0.000000 0.000000 0.000000 0.034820 0.000000 0.000000
# 5 0.000000 0.000000 0.000000 0.000000 0.034820 0.000000
# 6 0.000000 0.000000 0.000000 0.000000 0.000000 0.017335
#
#
# Mechanical properties :
#
#
# Convention : Reuss Voigt Hill
#
# Bulk Modulus (GPa) = 52.66067 53.70174 53.18120
# Shear Modulus (GPa) = 31.36301 35.74566 33.55434
#
# Velocity S-wave (km/s) = 3.67404 3.92235 3.80022
# Velocity P-wave (km/s) = 6.37676 6.60501 6.49189
#
# Compressibility (1/GPa) = 0.01898950
#
# Stress axis : x y z
#
# Youngs Moduli (GPa) = 63.64802 63.64806 89.83554
#
# Poissons Ratio (x) = 0.55276 0.13915
# Poissons Ratio (y) = 0.55276 0.13915
# Poissons Ratio (z) = 0.09859 0.09858
#
# Static dielectric constant tensor:
#      x y z
#    x 1.953260 0.000000 0.000000 
#    y 0.000000 1.953260 0.000000 
#    z 0.000000 0.000000 1.948610 
# 
# From -- ./inp_files/18235.got.cif
#   From: 2010.05.17/outbox.cif.g08.bks.cpg/sg91_10_cif.got.tgz:18235.got - 2010.06.03 19:20:03.
