data_PCOD9548804
_publ_section_title
;
Structure prediction by ZEFSAII (Michael W. Deem and Ramdas Pophale) SiO2 
 PCOD9548804
Probable space group: P 41 2 2
;
_chemical_formula_sum "Si O2"
_cell_formula_units_Z 24
_cell_length_a 13.714292
_cell_length_b 13.714292
_cell_length_c 5.237194
_cell_angle_alpha 90.000000
_cell_angle_beta 90.000000
_cell_angle_gamma 90.000000
_cell_volume 985.020901
_symmetry_space_group_name_H-M "P 41 2 2"
_symmetry_group_IT_number 91
_symmetry_cell_setting 'tetragonal'
loop_
_space_group_symop_operation_xyz
x,y,z
-y,x,1/4+z
-x,-y,1/2+z
y,-x,3/4+z
x,-y,1/2-z
-x,y,-z
y,x,3/4-z
-y,-x,1/4-z
loop_
_atom_site_type_symbol
_atom_site_label
_atom_site_fract_x
_atom_site_fract_y
_atom_site_fract_z
Si Si1 0.421461 0.701599 0.332573
Si Si2 0.280658 0.936853 0.992692
Si Si3 0.133626 0.500000 0.250000
Si Si4 0.763871 0.236130 0.125000
O O1 0.500000 0.643540 0.500000
O O2 0.486789 0.788130 0.221826
O O3 0.339758 0.761016 0.486256
O O4 0.365509 0.634492 0.125000
O O5 0.235171 0.836183 0.871831
O O6 0.253901 0.000000 0.750000
O O7 0.398529 0.923938 0.996531
O O8 0.253924 0.000000 0.250000
#
# Coordination Sequence:
#
# PCOD9548804 Si02
#       4
#     8   8   4   4
#     4  12  23  44  76 104 155 228 290 354 431 503
#     4  12  27  45  75 118 159 215 282 353 438 516
#     4  12  24  42  74 108 154 212 282 360 424 504
#     4  12  26  46  78 110 168 216 280 360 434 534
#
# _framework density 24.364964000000001
#
# number of rings (size 3 to 8) (size 9 to 14) (size 15 to 20)
#    0.000    0.000    6.667    3.000    0.000    0.000 
#    0.000    0.000   51.333    0.000    0.000    7.000 
#    0.000    2.667    0.000    0.333    0.000    0.000 
#
# Total GULP energy -133601.742230 kJ/mol
# GULP energy per Si atom -5566.739260 kJ/mol
# Density = 2.430951 g / cm^3
# Si number density = 24.364964 Si / 1000 Ang^3
#
#
#
# Elastic Constant Matrix: (Units=GPa)
#
#
# Indices 1 2 3 4 5 6 
#
# 1 119.6236 15.8217 71.3169 0.0000 0.0000 0.0000
# 2 15.8217 119.6249 71.3167 0.0000 0.0000 0.0000
# 3 71.3169 71.3167 226.2558 0.0000 0.0000 0.0000
# 4 0.0000 0.0000 0.0000 -84.0898 0.0000 0.0000
# 5 0.0000 0.0000 0.0000 0.0000 -84.1047 0.0000
# 6 0.0000 0.0000 0.0000 0.0000 0.0000 30.5274
#
#
#
# Elastic Compliance Matrix: (Units=1/GPa)
#
#
# Indices 1 2 3 4 5 6 
#
# 1 0.010343 0.000709 -0.003483 0.000000 0.000000 0.000000
# 2 0.000709 0.010342 -0.003483 0.000000 0.000000 0.000000
# 3 -0.003483 -0.003483 0.006616 0.000000 0.000000 0.000000
# 4 0.000000 0.000000 0.000000 -0.011892 0.000000 0.000000
# 5 0.000000 0.000000 0.000000 0.000000 -0.011890 0.000000
# 6 0.000000 0.000000 0.000000 0.000000 0.000000 0.032758
#
#
# Mechanical properties :
#
#
# Convention : Reuss Voigt Hill
#
# Bulk Modulus (GPa) = 67.63765 86.93500 77.28632
# Shear Modulus (GPa) = 93.07433 -7.06352 43.00541
#
# Velocity S-wave (km/s) = 6.18733 -1.70451 4.20581
# Velocity P-wave (km/s) = 8.88057 5.64659 7.44139
#
# Compressibility (1/GPa) = 0.01478467
#
# Stress axis : x y z
#
# Youngs Moduli (GPa) = 96.68791 96.68929 151.15444
#
# Poissons Ratio (x) = -0.06853 0.52654
# Poissons Ratio (y) = -0.06853 0.52653
# Poissons Ratio (z) = 0.33681 0.33681
#
# Static dielectric constant tensor:
#      x y z
#    x 2.257420 0.000000 0.000000 
#    y 0.000000 2.257360 0.000000 
#    z 0.000000 0.000000 2.009750 
# 
# From -- ./inp_files/18345.got.cif
#   From: 2010.05.17/outbox.cif.g08.bks.cpg/sg91_10_cif.got.tgz:18345.got - 2010.06.03 19:20:03.
