data_PCOD9548461
_publ_section_title
;
Structure prediction by ZEFSAII (Michael W. Deem and Ramdas Pophale) SiO2 
 PCOD9548461
Probable space group: P 41 2 2
;
_chemical_formula_sum "Si O2"
_cell_formula_units_Z 36
_cell_length_a 11.713276
_cell_length_b 11.713276
_cell_length_c 12.044454
_cell_angle_alpha 90.000000
_cell_angle_beta 90.000000
_cell_angle_gamma 90.000000
_cell_volume 1652.509142
_symmetry_space_group_name_H-M "P 41 2 2"
_symmetry_group_IT_number 91
_symmetry_cell_setting 'tetragonal'
loop_
_space_group_symop_operation_xyz
x,y,z
-y,x,1/4+z
-x,-y,1/2+z
y,-x,3/4+z
x,-y,1/2-z
-x,y,-z
y,x,3/4-z
-y,-x,1/4-z
loop_
_atom_site_type_symbol
_atom_site_label
_atom_site_fract_x
_atom_site_fract_y
_atom_site_fract_z
Si Si1 0.577036 0.000000 0.750000
Si Si2 0.273722 0.884546 0.063741
Si Si3 0.688534 0.290739 0.381671
Si Si4 0.462078 0.780181 0.673386
Si Si5 0.129727 0.744974 0.715621
O O1 0.648112 0.925789 0.835726
O O2 0.503277 0.909540 0.684801
O O3 0.159344 0.840657 0.125000
O O4 0.327506 0.778894 0.995436
O O5 0.265246 0.995466 0.984824
O O6 0.595417 0.260898 0.288090
O O7 0.704351 0.426536 0.398076
O O8 0.808114 0.238932 0.333533
O O9 0.365506 0.799460 0.580176
O O10 0.159241 0.840760 0.625000
#
# Coordination Sequence:
#
# PCOD9548461 Si02
#       5
#     4   8   8   8   8
#     4  12  24  44  74 100 140 198 238 304 372 442
#     4  12  23  44  70 106 145 182 249 304 367 437
#     4  11  24  43  72 108 143 188 248 300 363 451
#     4  11  23  44  75 106 143 194 245 302 370 446
#     4  10  23  44  73 103 146 192 238 295 372 452
#
# _framework density 21.785053000000001
#
# number of rings (size 3 to 8) (size 9 to 14) (size 15 to 20)
#    0.000    0.889    4.444    2.000    0.000    5.333 
#    0.000    8.889   48.889    0.000    0.000    0.000 
#    0.000    0.000    0.000    0.000    0.000    0.000 
#
# Total GULP energy -201069.860946 kJ/mol
# GULP energy per Si atom -5585.273915 kJ/mol
# Density = 2.173547 g / cm^3
# Si number density = 21.785053 Si / 1000 Ang^3
#
#
#
# Elastic Constant Matrix: (Units=GPa)
#
#
# Indices 1 2 3 4 5 6 
#
# 1 60.7876 57.9794 36.0039 0.0000 0.0000 0.0000
# 2 57.9794 60.7728 35.9991 0.0000 0.0000 0.0000
# 3 36.0039 35.9991 105.6230 0.0000 0.0000 0.0000
# 4 0.0000 0.0000 0.0000 32.7939 0.0000 0.0000
# 5 0.0000 0.0000 0.0000 0.0000 32.7950 0.0000
# 6 0.0000 0.0000 0.0000 0.0000 0.0000 41.8318
#
#
#
# Elastic Compliance Matrix: (Units=1/GPa)
#
#
# Indices 1 2 3 4 5 6 
#
# 1 0.183806 -0.173214 -0.003618 0.000000 0.000000 0.000000
# 2 -0.173214 0.183850 -0.003617 0.000000 0.000000 0.000000
# 3 -0.003618 -0.003617 0.011934 0.000000 0.000000 0.000000
# 4 0.000000 0.000000 0.000000 0.030493 0.000000 0.000000
# 5 0.000000 0.000000 0.000000 0.000000 0.030492 0.000000
# 6 0.000000 0.000000 0.000000 0.000000 0.000000 0.023905
#
#
# Mechanical properties :
#
#
# Convention : Reuss Voigt Hill
#
# Bulk Modulus (GPa) = 53.50297 54.12759 53.81528
# Shear Modulus (GPa) = 6.01242 27.96418 16.98830
#
# Velocity S-wave (km/s) = 1.66309 3.58668 2.79555
# Velocity P-wave (km/s) = 5.31983 6.48479 5.93098
#
# Compressibility (1/GPa) = 0.01869055
#
# Stress axis : x y z
#
# Youngs Moduli (GPa) = 5.44050 5.43922 83.79553
#
# Poissons Ratio (x) = 0.94215 0.30321
# Poissons Ratio (y) = 0.94237 0.30308
# Poissons Ratio (z) = 0.01969 0.01967
#
# Static dielectric constant tensor:
#      x y z
#    x 1.785700 0.000000 0.000000 
#    y 0.000000 1.785700 0.000000 
#    z 0.000000 0.000000 1.958270 
# 
# From -- ./inp_files/3533.got.cif
#   From: 2010.05.17/outbox.cif.g08.bks.cpg/sg91_2_cif.got.tgz:3533.got - 2010.06.03 19:20:03.
