data_PCOD9548177
_publ_section_title
;
Structure prediction by ZEFSAII (Michael W. Deem and Ramdas Pophale) SiO2 
 PCOD9548177
Probable space group: P 41 2 2
;
_chemical_formula_sum "Si O2"
_cell_formula_units_Z 64
_cell_length_a 11.497919
_cell_length_b 11.497919
_cell_length_c 22.880867
_cell_angle_alpha 90.000000
_cell_angle_beta 90.000000
_cell_angle_gamma 90.000000
_cell_volume 3024.899613
_symmetry_space_group_name_H-M "P 41 2 2"
_symmetry_group_IT_number 91
_symmetry_cell_setting 'tetragonal'
loop_
_space_group_symop_operation_xyz
x,y,z
-y,x,1/4+z
-x,-y,1/2+z
y,-x,3/4+z
x,-y,1/2-z
-x,y,-z
y,x,3/4-z
-y,-x,1/4-z
loop_
_atom_site_type_symbol
_atom_site_label
_atom_site_fract_x
_atom_site_fract_y
_atom_site_fract_z
Si Si1 0.683649 0.312495 0.779596
Si Si2 0.897910 0.228159 0.272140
Si Si3 0.583255 0.244426 0.903807
Si Si4 0.506903 0.154853 0.404235
Si Si5 0.118350 0.680496 0.521089
Si Si6 0.463601 0.312636 0.709141
Si Si7 0.852377 0.238814 0.686644
Si Si8 0.090005 0.638663 0.651098
O O1 0.626735 0.254520 0.837013
O O2 0.768384 0.411955 0.803710
O O3 0.579438 0.359000 0.739062
O O4 0.759446 0.225993 0.739066
O O5 0.841437 0.328590 0.312429
O O6 0.798678 0.131559 0.265750
O O7 0.915782 0.281462 0.207751
O O8 0.021666 0.190399 0.296591
O O9 0.596000 0.371411 0.933360
O O10 0.455564 0.192262 0.908830
O O11 0.501512 0.227778 0.344272
O O12 0.378390 0.136296 0.428752
O O13 0.568862 0.031207 0.395856
O O14 0.230745 0.604679 0.504938
O O15 0.111708 0.701702 0.589826
O O16 0.000000 0.619701 0.500000
O O17 0.810030 0.189971 0.625000
#
# Coordination Sequence:
#
# PCOD9548177 Si02
#       8
#     8   8   8   8   8   8   8   8
#     4  11  22  41  66 100 140 175 228 283 349 420
#     4  11  25  42  64  99 133 176 238 294 337 426
#     4  10  23  39  67  95 137 181 225 287 337 416
#     4  11  22  38  69 100 132 185 235 280 348 426
#     4  11  23  42  69  96 134 180 231 289 356 416
#     4  10  21  41  63 101 142 178 229 281 347 426
#     4  12  24  42  68  99 138 183 230 283 353 424
#     4  12  21  41  71  98 129 185 236 288 349 414
#
# _framework density 21.157727999999999
#
# number of rings (size 3 to 8) (size 9 to 14) (size 15 to 20)
#    0.000    1.000    6.250    1.125    0.000    0.000 
#    0.000    9.375    2.750    0.000    0.000    0.000 
#    0.000    0.000    0.000    0.000    0.000    0.000 
#
# Total GULP energy -358037.235932 kJ/mol
# GULP energy per Si atom -5594.331811 kJ/mol
# Density = 2.110957 g / cm^3
# Si number density = 21.157728 Si / 1000 Ang^3
#
#
#
# Elastic Constant Matrix: (Units=GPa)
#
#
# Indices 1 2 3 4 5 6 
#
# 1 67.4504 7.9903 7.4610 0.0000 0.0000 0.0000
# 2 7.9903 67.4494 7.4607 0.0000 0.0000 0.0000
# 3 7.4610 7.4607 113.9034 0.0000 0.0000 0.0000
# 4 0.0000 0.0000 0.0000 28.5547 0.0000 0.0000
# 5 0.0000 0.0000 0.0000 0.0000 28.5550 0.0000
# 6 0.0000 0.0000 0.0000 0.0000 0.0000 19.0821
#
#
#
# Elastic Compliance Matrix: (Units=1/GPa)
#
#
# Indices 1 2 3 4 5 6 
#
# 1 0.015124 -0.001694 -0.000880 0.000000 0.000000 0.000000
# 2 -0.001694 0.015124 -0.000880 0.000000 0.000000 0.000000
# 3 -0.000880 -0.000880 0.008895 0.000000 0.000000 0.000000
# 4 0.000000 0.000000 0.000000 0.035021 0.000000 0.000000
# 5 0.000000 0.000000 0.000000 0.000000 0.035020 0.000000
# 6 0.000000 0.000000 0.000000 0.000000 0.000000 0.052405
#
#
# Mechanical properties :
#
#
# Convention : Reuss Voigt Hill
#
# Bulk Modulus (GPa) = 31.02213 32.73634 31.87923
# Shear Modulus (GPa) = 27.89549 30.29776 29.09663
#
# Velocity S-wave (km/s) = 3.63499 3.78828 3.71243
# Velocity P-wave (km/s) = 5.68434 5.88565 5.78587
#
# Compressibility (1/GPa) = 0.03223506
#
# Stress axis : x y z
#
# Youngs Moduli (GPa) = 66.12125 66.12032 112.42768
#
# Poissons Ratio (x) = 0.11203 0.09890
# Poissons Ratio (y) = 0.11203 0.09890
# Poissons Ratio (z) = 0.05816 0.05816
#
# Static dielectric constant tensor:
#      x y z
#    x 1.755590 0.000000 0.000000 
#    y 0.000000 1.755590 0.000000 
#    z 0.000000 0.000000 1.760730 
# 
# From -- ./inp_files/21858.got.cif
#   From: 2010.05.17/outbox.cif.g08.bks.cpg/sg91_11_cif.got.tgz:21858.got - 2010.06.03 19:20:03.
