data_PCOD9548204
_publ_section_title
;
Structure prediction by ZEFSAII (Michael W. Deem and Ramdas Pophale) SiO2 
 PCOD9548204
Probable space group: P 41 2 2
;
_chemical_formula_sum "Si O2"
_cell_formula_units_Z 24
_cell_length_a 8.068768
_cell_length_b 8.068768
_cell_length_c 15.057173
_cell_angle_alpha 90.000000
_cell_angle_beta 90.000000
_cell_angle_gamma 90.000000
_cell_volume 980.297505
_symmetry_space_group_name_H-M "P 41 2 2"
_symmetry_group_IT_number 91
_symmetry_cell_setting 'tetragonal'
loop_
_space_group_symop_operation_xyz
x,y,z
-y,x,1/4+z
-x,-y,1/2+z
y,-x,3/4+z
x,-y,1/2-z
-x,y,-z
y,x,3/4-z
-y,-x,1/4-z
loop_
_atom_site_type_symbol
_atom_site_label
_atom_site_fract_x
_atom_site_fract_y
_atom_site_fract_z
Si Si1 0.740957 0.259044 0.125000
Si Si2 0.180382 0.907300 0.957909
Si Si3 0.699797 0.699797 0.875000
Si Si4 0.815678 0.638774 0.547055
O O1 0.626725 0.292261 0.207906
O O2 0.919148 0.259295 0.175753
O O3 0.203346 0.808155 0.864163
O O4 0.259452 0.805077 0.036982
O O5 0.000000 0.940645 0.000000
O O6 0.514846 0.757891 0.854194
O O7 0.000000 0.632034 0.500000
#
# Coordination Sequence:
#
# PCOD9548204 Si02
#       4
#     4   8   4   8
#     4  10  21  42  69  98 128 168 223 280 333 388
#     4  11  21  39  70 101 129 168 224 277 327 392
#     4  12  23  40  63  94 138 180 215 262 333 404
#     4  10  23  41  65 100 137 176 222 273 331 396
#
# _framework density 24.482365999999999
#
# number of rings (size 3 to 8) (size 9 to 14) (size 15 to 20)
#    0.000    1.333    0.000    8.000    0.000    0.000 
#    0.000   11.667    0.000    0.000    0.000    0.000 
#    0.000    0.000    0.000    0.000    0.000    0.000 
#
# Total GULP energy -133744.932665 kJ/mol
# GULP energy per Si atom -5572.705528 kJ/mol
# Density = 2.442664 g / cm^3
# Si number density = 24.482366 Si / 1000 Ang^3
#
#
#
# Elastic Constant Matrix: (Units=GPa)
#
#
# Indices 1 2 3 4 5 6 
#
# 1 -20.9574 84.1439 44.4812 0.0000 0.0000 0.0000
# 2 84.1439 -20.9593 44.4817 0.0000 0.0000 0.0000
# 3 44.4812 44.4817 215.2847 0.0000 0.0000 0.0000
# 4 0.0000 0.0000 0.0000 198.1284 0.0000 0.0000
# 5 0.0000 0.0000 0.0000 0.0000 198.1239 0.0000
# 6 0.0000 0.0000 0.0000 0.0000 0.0000 10.3735
#
#
#
# Elastic Compliance Matrix: (Units=1/GPa)
#
#
# Indices 1 2 3 4 5 6 
#
# 1 0.006403 0.015917 -0.004612 0.000000 0.000000 0.000000
# 2 0.015917 0.006402 -0.004611 0.000000 0.000000 0.000000
# 3 -0.004612 -0.004611 0.006551 0.000000 0.000000 0.000000
# 4 0.000000 0.000000 0.000000 0.005047 0.000000 0.000000
# 5 0.000000 0.000000 0.000000 0.000000 0.005047 0.000000
# 6 0.000000 0.000000 0.000000 0.000000 0.000000 0.096399
#
#
# Mechanical properties :
#
#
# Convention : Reuss Voigt Hill
#
# Bulk Modulus (GPa) = 30.54082 57.73129 44.13606
# Shear Modulus (GPa) = 40.52654 81.34258 60.93456
#
# Velocity S-wave (km/s) = 4.07300 5.77036 4.99432
# Velocity P-wave (km/s) = 5.88394 8.24791 7.16411
#
# Compressibility (1/GPa) = 0.03274306
#
# Stress axis : x y z
#
# Youngs Moduli (GPa) = 156.18666 156.19759 152.65640
#
# Poissons Ratio (x) = -2.48618 0.70399
# Poissons Ratio (y) = -2.48601 0.70397
# Poissons Ratio (z) = 0.72027 0.72030
#
# Static dielectric constant tensor:
#      x y z
#    x 2.025930 0.000000 0.000000 
#    y 0.000000 2.025940 0.000000 
#    z 0.000000 0.000000 1.951260 
# 
# From -- ./inp_files/11082.got.cif
#   From: 2010.05.17/outbox.cif.g08.bks.cpg/sg91_6_cif.got.tgz:11082.got - 2010.06.03 19:20:03.
