data_PCOD9548289
_publ_section_title
;
Structure prediction by ZEFSAII (Michael W. Deem and Ramdas Pophale) SiO2 
 PCOD9548289
Probable space group: P 41 2 2
;
_chemical_formula_sum "Si O2"
_cell_formula_units_Z 60
_cell_length_a 15.249575
_cell_length_b 15.249575
_cell_length_c 13.998803
_cell_angle_alpha 90.000000
_cell_angle_beta 90.000000
_cell_angle_gamma 90.000000
_cell_volume 3255.415166
_symmetry_space_group_name_H-M "P 41 2 2"
_symmetry_group_IT_number 91
_symmetry_cell_setting 'tetragonal'
loop_
_space_group_symop_operation_xyz
x,y,z
-y,x,1/4+z
-x,-y,1/2+z
y,-x,3/4+z
x,-y,1/2-z
-x,y,-z
y,x,3/4-z
-y,-x,1/4-z
loop_
_atom_site_type_symbol
_atom_site_label
_atom_site_fract_x
_atom_site_fract_y
_atom_site_fract_z
Si Si1 0.849027 0.500000 0.750000
Si Si2 0.942857 0.928232 0.167222
Si Si3 0.751736 0.644578 0.218413
Si Si4 0.442330 0.005740 0.136287
Si Si5 0.047743 0.745774 0.397726
Si Si6 0.812205 0.521975 0.386904
Si Si7 0.383736 0.787542 0.835454
Si Si8 0.934866 0.272477 0.281945
O O1 0.790695 0.566233 0.686919
O O2 0.916710 0.538232 0.829233
O O3 0.846964 0.932865 0.117944
O O4 0.954004 0.827502 0.192416
O O5 0.929011 0.000000 0.250000
O O6 0.032104 0.967897 0.125000
O O7 0.762348 0.590373 0.317378
O O8 0.770861 0.572819 0.136281
O O9 0.665111 0.697843 0.193072
O O10 0.831004 0.713939 0.225326
O O11 0.508079 0.085500 0.108329
O O12 0.343922 0.032805 0.107603
O O13 0.449974 0.000000 0.250000
O O14 0.134862 0.688117 0.406265
O O15 0.000000 0.742941 0.500000
O O16 0.982821 0.708118 0.317838
O O17 0.807457 0.552834 0.495712
#
# Coordination Sequence:
#
# PCOD9548289 Si02
#       8
#     4   8   8   8   8   8   8   8
#     4  12  24  38  64  94 130 176 208 270 332 400
#     4  11  22  37  55  79 127 179 224 262 303 356
#     4  10  22  40  64  98 129 157 206 273 333 399
#     4  11  22  40  63  93 130 167 219 275 326 377
#     4  11  23  34  57  90 124 165 212 269 317 369
#     4  10  22  39  68  95 127 165 204 279 338 390
#     4  12  23  40  65  95 127 169 215 262 337 398
#     4  11  21  39  58  86 124 170 218 262 313 367
#
# _framework density 18.430828999999999
#
# number of rings (size 3 to 8) (size 9 to 14) (size 15 to 20)
#    0.000    1.067    5.333    2.800    1.867    0.533 
#    0.000    0.667    0.000    4.800    0.000    0.000 
#    0.000    0.000    0.000    0.000    0.000    0.000 
#
# Total GULP energy -334533.844319 kJ/mol
# GULP energy per Si atom -5575.564072 kJ/mol
# Density = 1.838888 g / cm^3
# Si number density = 18.430829 Si / 1000 Ang^3
#
#
#
# Elastic Constant Matrix: (Units=GPa)
#
#
# Indices 1 2 3 4 5 6 
#
# 1 101.9006 45.9800 49.0948 0.0000 0.0000 0.0000
# 2 45.9800 101.9010 49.0950 0.0000 0.0000 0.0000
# 3 49.0948 49.0950 115.8220 0.0000 0.0000 0.0000
# 4 0.0000 0.0000 0.0000 29.0788 0.0000 0.0000
# 5 0.0000 0.0000 0.0000 0.0000 29.0795 0.0000
# 6 0.0000 0.0000 0.0000 0.0000 0.0000 25.6717
#
#
#
# Elastic Compliance Matrix: (Units=1/GPa)
#
#
# Indices 1 2 3 4 5 6 
#
# 1 0.013647 -0.004236 -0.003989 0.000000 0.000000 0.000000
# 2 -0.004236 0.013647 -0.003989 0.000000 0.000000 0.000000
# 3 -0.003989 -0.003989 0.012016 0.000000 0.000000 0.000000
# 4 0.000000 0.000000 0.000000 0.034389 0.000000 0.000000
# 5 0.000000 0.000000 0.000000 0.000000 0.034388 0.000000
# 6 0.000000 0.000000 0.000000 0.000000 0.000000 0.038953
#
#
# Mechanical properties :
#
#
# Convention : Reuss Voigt Hill
#
# Bulk Modulus (GPa) = 67.19931 67.55146 67.37539
# Shear Modulus (GPa) = 28.34008 28.46293 28.40150
#
# Velocity S-wave (km/s) = 3.92554 3.93404 3.92979
# Velocity P-wave (km/s) = 7.55552 7.57406 7.56480
#
# Compressibility (1/GPa) = 0.01488111
#
# Stress axis : x y z
#
# Youngs Moduli (GPa) = 73.27795 73.27812 83.22400
#
# Poissons Ratio (x) = 0.31039 0.33199
# Poissons Ratio (y) = 0.31039 0.33199
# Poissons Ratio (z) = 0.29231 0.29232
#
# Static dielectric constant tensor:
#      x y z
#    x 1.656730 0.000000 0.000000 
#    y 0.000000 1.656730 0.000000 
#    z 0.000000 0.000000 1.660030 
# 
# From -- ./inp_files/11590.got.cif
#   From: 2010.05.17/outbox.cif.g08.bks.cpg/sg91_6_cif.got.tgz:11590.got - 2010.06.03 19:20:03.
