data_PCOD9548754
_publ_section_title
;
Structure prediction by ZEFSAII (Michael W. Deem and Ramdas Pophale) SiO2 
 PCOD9548754
Probable space group: P 41 2 2
;
_chemical_formula_sum "Si O2"
_cell_formula_units_Z 36
_cell_length_a 11.302339
_cell_length_b 11.302339
_cell_length_c 12.505219
_cell_angle_alpha 90.000000
_cell_angle_beta 90.000000
_cell_angle_gamma 90.000000
_cell_volume 1597.452526
_symmetry_space_group_name_H-M "P 41 2 2"
_symmetry_group_IT_number 91
_symmetry_cell_setting 'tetragonal'
loop_
_space_group_symop_operation_xyz
x,y,z
-y,x,1/4+z
-x,-y,1/2+z
y,-x,3/4+z
x,-y,1/2-z
-x,y,-z
y,x,3/4-z
-y,-x,1/4-z
loop_
_atom_site_type_symbol
_atom_site_label
_atom_site_fract_x
_atom_site_fract_y
_atom_site_fract_z
Si Si1 0.222816 0.410978 0.845407
Si Si2 0.500000 0.154207 0.500000
Si Si3 0.238363 0.149016 0.557337
Si Si4 0.908191 0.179603 0.232854
Si Si5 0.858108 0.599376 0.982200
O O1 0.246502 0.500000 0.750000
O O2 0.340083 0.340083 0.875000
O O3 0.132709 0.311270 0.803053
O O4 0.175614 0.489210 0.942414
O O5 0.377372 0.120023 0.560384
O O6 0.569457 0.183950 0.612054
O O7 0.180306 0.140891 0.674756
O O8 0.207254 0.280883 0.519440
O O9 0.182689 0.045011 0.485121
O O10 0.894943 0.105058 0.125000
O O11 0.000000 0.617059 0.000000
#
# Coordination Sequence:
#
# PCOD9548754 Si02
#       5
#     8   4   8   8   8
#     4  11  24  48  78 108 144 196 250 308 369 442
#     4  12  26  46  66 102 142 190 250 304 364 446
#     4  12  26  47  73 108 149 198 254 309 382 446
#     4  11  24  45  78 111 150 199 250 306 380 456
#     4  12  27  46  74 107 148 198 251 310 381 448
#
# _framework density 22.535879000000001
#
# number of rings (size 3 to 8) (size 9 to 14) (size 15 to 20)
#    0.000    0.444    2.222    6.667    3.111    1.778 
#    2.000    0.000    0.000    0.000    0.000    0.000 
#    0.000    0.000    0.000    0.000    0.000    0.000 
#
# Total GULP energy -200700.160005 kJ/mol
# GULP energy per Si atom -5575.004445 kJ/mol
# Density = 2.248459 g / cm^3
# Si number density = 22.535879 Si / 1000 Ang^3
#
#
#
# Elastic Constant Matrix: (Units=GPa)
#
#
# Indices 1 2 3 4 5 6 
#
# 1 100.3751 7.1533 2.2798 0.0000 0.0000 0.0000
# 2 7.1533 100.3757 2.2803 0.0000 0.0000 0.0000
# 3 2.2798 2.2803 112.8357 0.0000 0.0000 0.0000
# 4 0.0000 0.0000 0.0000 101.6394 0.0000 0.0000
# 5 0.0000 0.0000 0.0000 0.0000 101.6225 0.0000
# 6 0.0000 0.0000 0.0000 0.0000 0.0000 -105.6880
#
#
#
# Elastic Compliance Matrix: (Units=1/GPa)
#
#
# Indices 1 2 3 4 5 6 
#
# 1 0.010017 -0.000710 -0.000188 0.000000 0.000000 0.000000
# 2 -0.000710 0.010017 -0.000188 0.000000 0.000000 0.000000
# 3 -0.000188 -0.000188 0.008870 0.000000 0.000000 0.000000
# 4 0.000000 0.000000 0.000000 0.009839 0.000000 0.000000
# 5 0.000000 0.000000 0.000000 0.000000 0.009840 0.000000
# 6 0.000000 0.000000 0.000000 0.000000 0.000000 -0.009462
#
#
# Mechanical properties :
#
#
# Convention : Reuss Voigt Hill
#
# Bulk Modulus (GPa) = 37.40646 37.44594 37.42620
# Shear Modulus (GPa) = 99.59191 39.63962 69.61576
#
# Velocity S-wave (km/s) = 6.65496 4.19854 5.56400
# Velocity P-wave (km/s) = 8.69977 6.33687 7.61058
#
# Compressibility (1/GPa) = 0.02673335
#
# Stress axis : x y z
#
# Youngs Moduli (GPa) = 99.82555 99.82614 112.73902
#
# Poissons Ratio (x) = 0.07084 0.02120
# Poissons Ratio (y) = 0.07084 0.02121
# Poissons Ratio (z) = 0.01877 0.01878
#
# Static dielectric constant tensor:
#      x y z
#    x 1.828680 0.000000 0.000000 
#    y 0.000000 1.828680 0.000000 
#    z 0.000000 0.000000 1.816660 
# 
# From -- ./inp_files/15655.got.cif
#   From: 2010.05.17/outbox.cif.g08.bks.cpg/sg91_8_cif.got.tgz:15655.got - 2010.06.03 19:20:03.
