data_PCOD9548057
_publ_section_title
;
Structure prediction by ZEFSAII (Michael W. Deem and Ramdas Pophale) SiO2 
 PCOD9548057
Probable space group: P 41 2 2
;
_chemical_formula_sum "Si O2"
_cell_formula_units_Z 28
_cell_length_a 10.895898
_cell_length_b 10.895898
_cell_length_c 11.420150
_cell_angle_alpha 90.000000
_cell_angle_beta 90.000000
_cell_angle_gamma 90.000000
_cell_volume 1355.806983
_symmetry_space_group_name_H-M "P 41 2 2"
_symmetry_group_IT_number 91
_symmetry_cell_setting 'tetragonal'
loop_
_space_group_symop_operation_xyz
x,y,z
-y,x,1/4+z
-x,-y,1/2+z
y,-x,3/4+z
x,-y,1/2-z
-x,y,-z
y,x,3/4-z
-y,-x,1/4-z
loop_
_atom_site_type_symbol
_atom_site_label
_atom_site_fract_x
_atom_site_fract_y
_atom_site_fract_z
Si Si1 0.114870 0.500000 0.750000
Si Si2 0.071103 0.705142 0.324161
Si Si3 0.738476 0.738476 0.875000
Si Si4 0.043935 0.956066 0.625000
Si Si5 0.854842 0.492455 0.507936
O O1 0.185775 0.500949 0.627244
O O2 0.023532 0.383876 0.757332
O O3 0.170358 0.757108 0.233889
O O4 0.136436 0.620818 0.422313
O O5 0.990935 0.814080 0.375620
O O6 0.603030 0.771610 0.828312
O O7 0.000000 0.008978 0.500000
O O8 0.000000 0.452784 0.500000
#
# Coordination Sequence:
#
# PCOD9548057 Si02
#       5
#     4   8   4   4   8
#     4  10  20  44  64  88 140 184 236 278 346 426
#     4  11  23  42  64  99 139 188 232 290 355 427
#     4  12  21  38  72 100 129 188 245 292 344 432
#     4  12  27  42  64 106 153 182 231 296 374 438
#     4  10  21  42  63  98 134 183 243 287 347 415
#
# _framework density 20.651909
#
# number of rings (size 3 to 8) (size 9 to 14) (size 15 to 20)
#    0.000    1.143    5.714    3.429    4.000    1.143 
#    0.000    0.000    0.000    0.000   29.714    0.000 
#    0.000    0.000    0.000    0.000    0.000    0.000 
#
# Total GULP energy -156213.186496 kJ/mol
# GULP energy per Si atom -5579.042375 kJ/mol
# Density = 2.060490 g / cm^3
# Si number density = 20.651909 Si / 1000 Ang^3
#
#
#
# Elastic Constant Matrix: (Units=GPa)
#
#
# Indices 1 2 3 4 5 6 
#
# 1 97.4836 53.6354 55.9341 0.0000 0.0000 0.0000
# 2 53.6354 97.4818 55.9335 0.0000 0.0000 0.0000
# 3 55.9341 55.9335 185.6150 0.0000 0.0000 0.0000
# 4 0.0000 0.0000 0.0000 33.8225 0.0000 0.0000
# 5 0.0000 0.0000 0.0000 0.0000 33.8220 0.0000
# 6 0.0000 0.0000 0.0000 0.0000 0.0000 27.4293
#
#
#
# Elastic Compliance Matrix: (Units=1/GPa)
#
#
# Indices 1 2 3 4 5 6 
#
# 1 0.015662 -0.007145 -0.002567 0.000000 0.000000 0.000000
# 2 -0.007145 0.015662 -0.002567 0.000000 0.000000 0.000000
# 3 -0.002567 -0.002567 0.006934 0.000000 0.000000 0.000000
# 4 0.000000 0.000000 0.000000 0.029566 0.000000 0.000000
# 5 0.000000 0.000000 0.000000 0.000000 0.029567 0.000000
# 6 0.000000 0.000000 0.000000 0.000000 0.000000 0.036457
#
#
# Mechanical properties :
#
#
# Convention : Reuss Voigt Hill
#
# Bulk Modulus (GPa) = 72.97946 79.06517 76.02232
# Shear Modulus (GPa) = 30.68023 33.35324 32.01674
#
# Velocity S-wave (km/s) = 3.85851 4.02309 3.94166
# Velocity P-wave (km/s) = 7.43407 7.74262 7.58991
#
# Compressibility (1/GPa) = 0.01370249
#
# Stress axis : x y z
#
# Youngs Moduli (GPa) = 63.84981 63.84872 144.20913
#
# Poissons Ratio (x) = 0.45617 0.37013
# Poissons Ratio (y) = 0.45618 0.37013
# Poissons Ratio (z) = 0.16388 0.16388
#
# Static dielectric constant tensor:
#      x y z
#    x 1.759110 0.000000 0.000000 
#    y 0.000000 1.759110 0.000000 
#    z 0.000000 0.000000 1.830150 
# 
# From -- ./inp_files/19957.got.cif
#   From: 2010.05.17/outbox.cif.g08.bks.cpg/sg91_10_cif.got.tgz:19957.got - 2010.06.03 19:20:03.
