data_PCOD9548255
_publ_section_title
;
Structure prediction by ZEFSAII (Michael W. Deem and Ramdas Pophale) SiO2 
 PCOD9548255
Probable space group: P 41 2 2
;
_chemical_formula_sum "Si O2"
_cell_formula_units_Z 60
_cell_length_a 12.024003
_cell_length_b 12.024003
_cell_length_c 20.394551
_cell_angle_alpha 90.000000
_cell_angle_beta 90.000000
_cell_angle_gamma 90.000000
_cell_volume 2948.575824
_symmetry_space_group_name_H-M "P 41 2 2"
_symmetry_group_IT_number 91
_symmetry_cell_setting 'tetragonal'
loop_
_space_group_symop_operation_xyz
x,y,z
-y,x,1/4+z
-x,-y,1/2+z
y,-x,3/4+z
x,-y,1/2-z
-x,y,-z
y,x,3/4-z
-y,-x,1/4-z
loop_
_atom_site_type_symbol
_atom_site_label
_atom_site_fract_x
_atom_site_fract_y
_atom_site_fract_z
Si Si1 0.683994 0.055763 0.532020
Si Si2 0.093539 0.937711 0.191347
Si Si3 0.729692 0.903129 0.646582
Si Si4 0.094538 0.703177 0.366612
Si Si5 0.195257 0.555053 0.996486
Si Si6 0.474734 0.771736 0.104174
Si Si7 0.562057 0.529022 0.061777
Si Si8 0.000000 0.627215 0.500000
O O1 0.808077 0.099606 0.546957
O O2 0.688279 0.033438 0.454038
O O3 0.597255 0.151086 0.554859
O O4 0.671943 0.948527 0.579962
O O5 0.032132 0.967869 0.125000
O O6 0.036703 0.000000 0.250000
O O7 0.213118 0.989265 0.178466
O O8 0.825716 0.811625 0.633297
O O9 0.650620 0.858194 0.702588
O O10 0.173910 0.595181 0.365651
O O11 0.020841 0.695113 0.432520
O O12 0.311700 0.536924 0.960225
O O13 0.222533 0.580471 0.073135
O O14 0.108070 0.452891 0.993302
O O15 0.502229 0.648232 0.077770
O O16 0.545181 0.454820 0.125000
O O17 0.500000 0.477599 0.000000
#
# Coordination Sequence:
#
# PCOD9548255 Si02
#       8
#     8   8   8   8   8   8   8   4
#     4  11  24  39  67  99 135 181 225 288 350 415
#     4  10  22  37  57  94 133 167 218 264 339 398
#     4  11  23  39  65  99 136 181 227 284 345 417
#     4  11  22  45  65  95 139 174 235 286 341 411
#     4  11  24  44  70  97 140 179 229 292 346 418
#     4  11  24  41  69 101 140 175 219 291 357 416
#     4  12  24  42  66 103 140 181 226 280 359 423
#     4  10  26  46  70  96 130 186 236 284 350 412
#
# _framework density 20.348807999999998
#
# number of rings (size 3 to 8) (size 9 to 14) (size 15 to 20)
#    0.000    1.067    4.000    2.800    4.667    1.600 
#    4.800    4.667    0.000    0.000    0.000    0.000 
#    0.000    0.000    0.000    0.000    0.000    0.000 
#
# Total GULP energy -334797.326660 kJ/mol
# GULP energy per Si atom -5579.955444 kJ/mol
# Density = 2.030249 g / cm^3
# Si number density = 20.348808 Si / 1000 Ang^3
#
#
#
# Elastic Constant Matrix: (Units=GPa)
#
#
# Indices 1 2 3 4 5 6 
#
# 1 71.4680 23.3299 40.3966 0.0000 0.0000 0.0000
# 2 23.3299 71.4681 40.3968 0.0000 0.0000 0.0000
# 3 40.3966 40.3968 207.5336 0.0000 0.0000 0.0000
# 4 0.0000 0.0000 0.0000 22.8338 0.0000 0.0000
# 5 0.0000 0.0000 0.0000 0.0000 22.8357 0.0000
# 6 0.0000 0.0000 0.0000 0.0000 0.0000 13.9175
#
#
#
# Elastic Compliance Matrix: (Units=1/GPa)
#
#
# Indices 1 2 3 4 5 6 
#
# 1 0.016710 -0.004063 -0.002462 0.000000 0.000000 0.000000
# 2 -0.004063 0.016710 -0.002462 0.000000 0.000000 0.000000
# 3 -0.002462 -0.002462 0.005777 0.000000 0.000000 0.000000
# 4 0.000000 0.000000 0.000000 0.043795 0.000000 0.000000
# 5 0.000000 0.000000 0.000000 0.000000 0.043791 0.000000
# 6 0.000000 0.000000 0.000000 0.000000 0.000000 0.071852
#
#
# Mechanical properties :
#
#
# Convention : Reuss Voigt Hill
#
# Bulk Modulus (GPa) = 47.11741 62.07959 54.59850
# Shear Modulus (GPa) = 22.35306 28.34050 25.34678
#
# Velocity S-wave (km/s) = 3.31795 3.73599 3.53316
# Velocity P-wave (km/s) = 6.15496 7.01314 6.59802
#
# Compressibility (1/GPa) = 0.02122358
#
# Stress axis : x y z
#
# Youngs Moduli (GPa) = 59.84374 59.84380 173.10469
#
# Poissons Ratio (x) = 0.24317 0.42613
# Poissons Ratio (y) = 0.24317 0.42614
# Poissons Ratio (z) = 0.14732 0.14732
#
# Static dielectric constant tensor:
#      x y z
#    x 1.778790 0.000000 0.000000 
#    y 0.000000 1.778780 0.000000 
#    z 0.000000 0.000000 1.816220 
# 
# From -- ./inp_files/17375.got.cif
#   From: 2010.05.17/outbox.cif.g08.bks.cpg/sg91_9_cif.got.tgz:17375.got - 2010.06.03 19:20:03.
