data_PCOD9548705
_publ_section_title
;
Structure prediction by ZEFSAII (Michael W. Deem and Ramdas Pophale) SiO2 
 PCOD9548705
Probable space group: P 41 2 2
;
_chemical_formula_sum "Si O2"
_cell_formula_units_Z 40
_cell_length_a 8.091874
_cell_length_b 8.091874
_cell_length_c 25.009627
_cell_angle_alpha 90.000000
_cell_angle_beta 90.000000
_cell_angle_gamma 90.000000
_cell_volume 1637.590982
_symmetry_space_group_name_H-M "P 41 2 2"
_symmetry_group_IT_number 91
_symmetry_cell_setting 'tetragonal'
loop_
_space_group_symop_operation_xyz
x,y,z
-y,x,1/4+z
-x,-y,1/2+z
y,-x,3/4+z
x,-y,1/2-z
-x,y,-z
y,x,3/4-z
-y,-x,1/4-z
loop_
_atom_site_type_symbol
_atom_site_label
_atom_site_fract_x
_atom_site_fract_y
_atom_site_fract_z
Si Si1 0.023991 0.691968 0.860651
Si Si2 0.529374 0.750968 0.059962
Si Si3 0.738659 0.543548 0.415487
Si Si4 0.701028 0.215601 0.997573
Si Si5 0.926294 0.120859 0.797763
O O1 0.855082 0.622877 0.834182
O O2 0.092896 0.537726 0.895495
O O3 0.151249 0.734235 0.812307
O O4 0.035235 0.843004 0.901525
O O5 0.601228 0.598695 0.092462
O O6 0.691133 0.863396 0.051775
O O7 0.500000 0.692347 0.000000
O O8 0.688176 0.688176 0.375000
O O9 0.729459 0.604597 0.476698
O O10 0.832980 0.114489 0.034103
O O11 0.500000 0.185171 0.000000
O O12 0.870537 0.000000 0.750000
#
# Coordination Sequence:
#
# PCOD9548705 Si02
#       5
#     8   8   8   8   8
#     4  11  24  48  72 104 160 196 256 334 398 474
#     4  11  22  46  71 102 147 200 248 329 386 467
#     4  11  24  41  75 111 140 200 258 308 400 470
#     4  12  22  51  71 104 156 192 255 328 390 475
#     4  11  25  46  71 112 143 202 259 312 405 475
#
# _framework density 24.426124999999999
#
# number of rings (size 3 to 8) (size 9 to 14) (size 15 to 20)
#    0.000    0.800    6.000    0.600    0.000    2.400 
#   25.200    1.000    0.000    0.000    0.000    0.000 
#    0.000    0.000    0.000    0.000    0.000    0.000 
#
# Total GULP energy -222939.589860 kJ/mol
# GULP energy per Si atom -5573.489746 kJ/mol
# Density = 2.437053 g / cm^3
# Si number density = 24.426125 Si / 1000 Ang^3
#
#
#
# Elastic Constant Matrix: (Units=GPa)
#
#
# Indices 1 2 3 4 5 6 
#
# 1 37.7268 32.4614 26.2514 0.0000 0.0000 0.0000
# 2 32.4614 37.7268 26.2514 0.0000 0.0000 0.0000
# 3 26.2514 26.2514 92.1998 0.0000 0.0000 0.0000
# 4 0.0000 0.0000 0.0000 22.5034 0.0000 0.0000
# 5 0.0000 0.0000 0.0000 0.0000 22.5034 0.0000
# 6 0.0000 0.0000 0.0000 0.0000 0.0000 190.5497
#
#
#
# Elastic Compliance Matrix: (Units=1/GPa)
#
#
# Indices 1 2 3 4 5 6 
#
# 1 0.104010 -0.085907 -0.005154 0.000000 0.000000 0.000000
# 2 -0.085907 0.104010 -0.005154 0.000000 0.000000 0.000000
# 3 -0.005154 -0.005154 0.013781 0.000000 0.000000 0.000000
# 4 0.000000 0.000000 0.000000 0.044438 0.000000 0.000000
# 5 0.000000 0.000000 0.000000 0.000000 0.044438 0.000000
# 6 0.000000 0.000000 0.000000 0.000000 0.000000 0.005248
#
#
# Mechanical properties :
#
#
# Convention : Reuss Voigt Hill
#
# Bulk Modulus (GPa) = 34.04860 37.50908 35.77884
# Shear Modulus (GPa) = 9.64977 52.62392 31.13684
#
# Velocity S-wave (km/s) = 1.98977 4.64660 3.57422
# Velocity P-wave (km/s) = 4.38732 6.64660 5.63142
#
# Compressibility (1/GPa) = 0.02936979
#
# Stress axis : x y z
#
# Youngs Moduli (GPa) = 9.61443 9.61443 72.56301
#
# Poissons Ratio (x) = 0.82595 0.37401
# Poissons Ratio (y) = 0.82595 0.37401
# Poissons Ratio (z) = 0.04956 0.04956
#
# Static dielectric constant tensor:
#      x y z
#    x 2.012580 0.000000 0.000000 
#    y 0.000000 2.012580 0.000000 
#    z 0.000000 0.000000 2.116470 
# 
# From -- ./inp_files/12740.got.cif
#   From: 2010.05.17/outbox.cif.g08.bks.cpg/sg91_7_cif.got.tgz:12740.got - 2010.06.03 19:20:03.
