data_PCOD9548624
_publ_section_title
;
Structure prediction by ZEFSAII (Michael W. Deem and Ramdas Pophale) SiO2 
 PCOD9548624
Probable space group: P 41 2 2
;
_chemical_formula_sum "Si O2"
_cell_formula_units_Z 48
_cell_length_a 14.042962
_cell_length_b 14.042962
_cell_length_c 13.196330
_cell_angle_alpha 90.000000
_cell_angle_beta 90.000000
_cell_angle_gamma 90.000000
_cell_volume 2602.379377
_symmetry_space_group_name_H-M "P 41 2 2"
_symmetry_group_IT_number 91
_symmetry_cell_setting 'tetragonal'
loop_
_space_group_symop_operation_xyz
x,y,z
-y,x,1/4+z
-x,-y,1/2+z
y,-x,3/4+z
x,-y,1/2-z
-x,y,-z
y,x,3/4-z
-y,-x,1/4-z
loop_
_atom_site_type_symbol
_atom_site_label
_atom_site_fract_x
_atom_site_fract_y
_atom_site_fract_z
Si Si1 0.491681 0.646701 0.881561
Si Si2 0.218070 0.347374 0.444621
Si Si3 0.096315 0.626295 0.488550
Si Si4 0.599124 0.142673 0.026693
Si Si5 0.447313 0.945283 0.094637
Si Si6 0.286644 0.714714 0.409899
O O1 0.545363 0.545363 0.875000
O O2 0.553803 0.722469 0.817251
O O3 0.382854 0.652036 0.847239
O O4 0.500000 0.674021 0.000000
O O5 0.274209 0.274209 0.375000
O O6 0.114399 0.365075 0.398181
O O7 0.227510 0.308982 0.557441
O O8 0.126430 0.601848 0.603209
O O9 0.062702 0.532857 0.426066
O O10 0.179888 0.678089 0.428074
O O11 0.000000 0.687427 0.500000
O O12 0.683121 0.212462 0.996690
O O13 0.590344 0.044966 0.956657
O O14 0.500000 0.193621 0.000000
O O15 0.500000 0.895408 0.000000
#
# Coordination Sequence:
#
# PCOD9548624 Si02
#       6
#     8   8   8   8   8   8
#     4  11  21  37  55  84 124 178 223 255 309 375
#     4  11  21  35  63  93 122 165 219 270 323 376
#     4  12  23  42  65  87 125 171 212 266 335 389
#     4  11  25  40  61  96 130 169 213 275 332 388
#     4  11  21  39  67  91 124 167 219 281 331 374
#     4  12  25  40  60  92 132 171 219 265 319 399
#
# _framework density 18.444659000000001
#
# number of rings (size 3 to 8) (size 9 to 14) (size 15 to 20)
#    0.000    0.667    8.333    3.000    0.000    0.667 
#    0.000    0.000    0.000    0.000    0.000    2.333 
#    0.000    0.000    0.000    0.000    0.000    0.000 
#
# Total GULP energy -267450.613102 kJ/mol
# GULP energy per Si atom -5571.887773 kJ/mol
# Density = 1.840268 g / cm^3
# Si number density = 18.444659 Si / 1000 Ang^3
#
#
#
# Elastic Constant Matrix: (Units=GPa)
#
#
# Indices 1 2 3 4 5 6 
#
# 1 75.9450 24.2395 25.2954 0.0000 0.0000 0.0000
# 2 24.2395 75.9450 25.2954 0.0000 0.0000 0.0000
# 3 25.2954 25.2954 137.7976 0.0000 0.0000 0.0000
# 4 0.0000 0.0000 0.0000 25.5920 0.0000 0.0000
# 5 0.0000 0.0000 0.0000 0.0000 25.5920 0.0000
# 6 0.0000 0.0000 0.0000 0.0000 0.0000 3.1976
#
#
#
# Elastic Compliance Matrix: (Units=1/GPa)
#
#
# Indices 1 2 3 4 5 6 
#
# 1 0.015171 -0.004169 -0.002020 0.000000 0.000000 0.000000
# 2 -0.004169 0.015171 -0.002020 0.000000 0.000000 0.000000
# 3 -0.002020 -0.002020 0.007998 0.000000 0.000000 0.000000
# 4 0.000000 0.000000 0.000000 0.039075 0.000000 0.000000
# 5 0.000000 0.000000 0.000000 0.000000 0.039075 0.000000
# 6 0.000000 0.000000 0.000000 0.000000 0.000000 0.312738
#
#
# Mechanical properties :
#
#
# Convention : Reuss Voigt Hill
#
# Bulk Modulus (GPa) = 45.61386 48.81650 47.21518
# Shear Modulus (GPa) = 11.03870 25.20011 18.11941
#
# Velocity S-wave (km/s) = 2.44903 3.70030 3.13767
# Velocity P-wave (km/s) = 5.72545 6.69180 6.22740
#
# Compressibility (1/GPa) = 0.02192316
#
# Stress axis : x y z
#
# Youngs Moduli (GPa) = 65.91588 65.91588 125.02394
#
# Poissons Ratio (x) = 0.27483 0.25249
# Poissons Ratio (y) = 0.27483 0.25249
# Poissons Ratio (z) = 0.13312 0.13312
#
# Static dielectric constant tensor:
#      x y z
#    x 1.739050 0.000000 0.000000 
#    y 0.000000 1.739050 0.000000 
#    z 0.000000 0.000000 1.691450 
# 
# From -- ./inp_files/3835.got.cif
#   From: 2010.05.17/outbox.cif.g08.bks.cpg/sg91_2_cif.got.tgz:3835.got - 2010.06.03 19:20:03.
