data_PCOD9548257
_publ_section_title
;
Structure prediction by ZEFSAII (Michael W. Deem and Ramdas Pophale) SiO2 
 PCOD9548257
Probable space group: P 41 2 2
;
_chemical_formula_sum "Si O2"
_cell_formula_units_Z 48
_cell_length_a 16.941001
_cell_length_b 16.941001
_cell_length_c 9.503674
_cell_angle_alpha 90.000000
_cell_angle_beta 90.000000
_cell_angle_gamma 90.000000
_cell_volume 2727.530820
_symmetry_space_group_name_H-M "P 41 2 2"
_symmetry_group_IT_number 91
_symmetry_cell_setting 'tetragonal'
loop_
_space_group_symop_operation_xyz
x,y,z
-y,x,1/4+z
-x,-y,1/2+z
y,-x,3/4+z
x,-y,1/2-z
-x,y,-z
y,x,3/4-z
-y,-x,1/4-z
loop_
_atom_site_type_symbol
_atom_site_label
_atom_site_fract_x
_atom_site_fract_y
_atom_site_fract_z
Si Si1 0.725846 0.197159 0.259123
Si Si2 0.081105 0.594412 0.589273
Si Si3 0.196843 0.274622 0.513190
Si Si4 0.407174 0.081954 0.171216
Si Si5 0.196196 0.948710 0.875340
Si Si6 0.842351 0.057998 0.870141
O O1 0.784264 0.215737 0.125000
O O2 0.645488 0.158007 0.205502
O O3 0.739526 0.272567 0.358534
O O4 0.752834 0.129781 0.370902
O O5 0.070543 0.612633 0.755467
O O6 0.096224 0.501060 0.571661
O O7 0.000000 0.608333 0.500000
O O8 0.238878 0.238878 0.375000
O O9 0.154203 0.359337 0.509145
O O10 0.120610 0.220212 0.557446
O O11 0.388382 0.000000 0.250000
O O12 0.110162 0.916093 0.832876
O O13 0.227559 0.000000 0.750000
O O14 0.193275 0.002428 0.010946
O O15 0.870533 0.000000 0.750000
#
# Coordination Sequence:
#
# PCOD9548257 Si02
#       6
#     8   8   8   8   8   8
#     4  11  21  37  56  78 106 143 185 229 277 340
#     4  10  22  37  61  86 114 150 189 234 290 346
#     4  11  23  37  55  78 110 144 182 228 281 339
#     4  10  22  39  57  86 118 149 186 236 289 349
#     4  11  22  32  47  66  92 127 176 228 272 312
#     4  11  22  35  47  66  91 133 178 225 275 318
#
# _framework density 17.598334999999999
#
# number of rings (size 3 to 8) (size 9 to 14) (size 15 to 20)
#    0.000    1.333    1.667    6.000    4.667    2.000 
#    0.000    0.000    0.000    0.000    0.000    0.000 
#    0.000    4.000    0.000    0.000    0.000    0.000 
#
# Total GULP energy -267320.966142 kJ/mol
# GULP energy per Si atom -5569.186795 kJ/mol
# Density = 1.755828 g / cm^3
# Si number density = 17.598335 Si / 1000 Ang^3
#
#
#
# Elastic Constant Matrix: (Units=GPa)
#
#
# Indices 1 2 3 4 5 6 
#
# 1 82.2634 40.7942 39.1314 0.0000 0.0000 0.0000
# 2 40.7942 82.2640 39.1318 0.0000 0.0000 0.0000
# 3 39.1314 39.1318 109.0478 0.0000 0.0000 0.0000
# 4 0.0000 0.0000 0.0000 23.2376 0.0000 0.0000
# 5 0.0000 0.0000 0.0000 0.0000 23.2374 0.0000
# 6 0.0000 0.0000 0.0000 0.0000 0.0000 28.5844
#
#
#
# Elastic Compliance Matrix: (Units=1/GPa)
#
#
# Indices 1 2 3 4 5 6 
#
# 1 0.017322 -0.006792 -0.003778 0.000000 0.000000 0.000000
# 2 -0.006792 0.017322 -0.003778 0.000000 0.000000 0.000000
# 3 -0.003778 -0.003778 0.011882 0.000000 0.000000 0.000000
# 4 0.000000 0.000000 0.000000 0.043034 0.000000 0.000000
# 5 0.000000 0.000000 0.000000 0.000000 0.043034 0.000000
# 6 0.000000 0.000000 0.000000 0.000000 0.000000 0.034984
#
#
# Mechanical properties :
#
#
# Convention : Reuss Voigt Hill
#
# Bulk Modulus (GPa) = 56.09486 56.85445 56.47466
# Shear Modulus (GPa) = 24.72579 25.31308 25.01944
#
# Velocity S-wave (km/s) = 3.75241 3.79671 3.77463
# Velocity P-wave (km/s) = 7.12168 7.18310 7.15246
#
# Compressibility (1/GPa) = 0.01782695
#
# Stress axis : x y z
#
# Youngs Moduli (GPa) = 57.73100 57.73128 84.16060
#
# Poissons Ratio (x) = 0.39213 0.31799
# Poissons Ratio (y) = 0.39213 0.31800
# Poissons Ratio (z) = 0.21813 0.21813
#
# Static dielectric constant tensor:
#      x y z
#    x 1.642920 0.000000 0.000000 
#    y 0.000000 1.642920 0.000000 
#    z 0.000000 0.000000 1.644220 
# 
# From -- ./inp_files/15189.got.cif
#   From: 2010.05.17/outbox.cif.g08.bks.cpg/sg91_8_cif.got.tgz:15189.got - 2010.06.03 19:20:03.
