data_PCOD9548208
_publ_section_title
;
Structure prediction by ZEFSAII (Michael W. Deem and Ramdas Pophale) SiO2 
 PCOD9548208
Probable space group: P 41 2 2
;
_chemical_formula_sum "Si O2"
_cell_formula_units_Z 40
_cell_length_a 13.858506
_cell_length_b 13.858506
_cell_length_c 9.608486
_cell_angle_alpha 90.000000
_cell_angle_beta 90.000000
_cell_angle_gamma 90.000000
_cell_volume 1845.388416
_symmetry_space_group_name_H-M "P 41 2 2"
_symmetry_group_IT_number 91
_symmetry_cell_setting 'tetragonal'
loop_
_space_group_symop_operation_xyz
x,y,z
-y,x,1/4+z
-x,-y,1/2+z
y,-x,3/4+z
x,-y,1/2-z
-x,y,-z
y,x,3/4-z
-y,-x,1/4-z
loop_
_atom_site_type_symbol
_atom_site_label
_atom_site_fract_x
_atom_site_fract_y
_atom_site_fract_z
Si Si1 0.851017 0.206957 0.272163
Si Si2 0.073973 0.797825 0.226860
Si Si3 0.417457 0.793885 0.385236
Si Si4 0.414987 0.871573 0.075595
Si Si5 0.392073 0.333617 0.522698
O O1 0.803345 0.133449 0.380559
O O2 0.842408 0.316100 0.325425
O O3 0.962512 0.178017 0.255739
O O4 0.799500 0.200501 0.125000
O O5 0.128322 0.871678 0.125000
O O6 0.080816 0.689478 0.166768
O O7 0.500000 0.808309 0.500000
O O8 0.442159 0.834011 0.230414
O O9 0.390554 0.678912 0.373588
O O10 0.500000 0.931308 0.000000
O O11 0.402231 0.781477 0.965877
O O12 0.500000 0.373065 0.500000
O O13 0.339943 0.339943 0.375000
#
# Coordination Sequence:
#
# PCOD9548208 Si02
#       5
#     8   8   8   8   8
#     4  12  28  45  70 106 145 185 239 300 373 427
#     4  12  24  48  75 100 140 190 239 302 360 440
#     4  11  24  42  67 104 145 183 234 300 358 430
#     4  10  21  42  71  97 132 188 230 277 359 431
#     4   9  18  35  59  87 127 178 225 266 338 407
#
# _framework density 21.675654999999999
#
# number of rings (size 3 to 8) (size 9 to 14) (size 15 to 20)
#    0.000    1.200    4.000    1.800    2.800    5.600 
#    0.000    0.000    0.000    0.000    0.000    0.000 
#    0.000    0.000    0.000    0.000    0.000    0.000 
#
# Total GULP energy -223288.335137 kJ/mol
# GULP energy per Si atom -5582.208378 kJ/mol
# Density = 2.162632 g / cm^3
# Si number density = 21.675655 Si / 1000 Ang^3
#
#
#
# Elastic Constant Matrix: (Units=GPa)
#
#
# Indices 1 2 3 4 5 6 
#
# 1 98.2443 10.4740 31.2329 0.0000 0.0000 0.0000
# 2 10.4740 98.2426 31.2335 0.0000 0.0000 0.0000
# 3 31.2329 31.2335 124.6061 0.0000 0.0000 0.0000
# 4 0.0000 0.0000 0.0000 20.6392 0.0000 0.0000
# 5 0.0000 0.0000 0.0000 0.0000 20.6387 0.0000
# 6 0.0000 0.0000 0.0000 0.0000 0.0000 -4.5610
#
#
#
# Elastic Compliance Matrix: (Units=1/GPa)
#
#
# Indices 1 2 3 4 5 6 
#
# 1 0.011070 -0.000324 -0.002693 0.000000 0.000000 0.000000
# 2 -0.000324 0.011070 -0.002694 0.000000 0.000000 0.000000
# 3 -0.002693 -0.002694 0.009376 0.000000 0.000000 0.000000
# 4 0.000000 0.000000 0.000000 0.048452 0.000000 0.000000
# 5 0.000000 0.000000 0.000000 0.000000 0.048453 0.000000
# 6 0.000000 0.000000 0.000000 0.000000 0.000000 -0.219250
#
#
# Mechanical properties :
#
#
# Convention : Reuss Voigt Hill
#
# Bulk Modulus (GPa) = 49.76818 51.88597 50.82708
# Shear Modulus (GPa) = -68.76524 23.88688 -22.43918
#
# Velocity S-wave (km/s) = -5.63857 3.32326 -3.22098
# Velocity P-wave (km/s) = 4.40240 6.22212 3.10916
#
# Compressibility (1/GPa) = 0.02009316
#
# Stress axis : x y z
#
# Youngs Moduli (GPa) = 90.33832 90.33626 106.66024
#
# Poissons Ratio (x) = 0.02926 0.28728
# Poissons Ratio (y) = 0.02926 0.28729
# Poissons Ratio (z) = 0.24332 0.24332
#
# Static dielectric constant tensor:
#      x y z
#    x 1.851750 0.000000 0.000000 
#    y 0.000000 1.851750 0.000000 
#    z 0.000000 0.000000 1.967750 
# 
# From -- ./inp_files/2392.got.cif
#   From: 2010.05.17/outbox.cif.g08.bks.cpg/sg91_2_cif.got.tgz:2392.got - 2010.06.03 19:20:03.
