data_PCOD9548230
_publ_section_title
;
Structure prediction by ZEFSAII (Michael W. Deem and Ramdas Pophale) SiO2 
 PCOD9548230
Probable space group: P 41 2 2
;
_chemical_formula_sum "Si O2"
_cell_formula_units_Z 36
_cell_length_a 8.640376
_cell_length_b 8.640376
_cell_length_c 21.517588
_cell_angle_alpha 90.000000
_cell_angle_beta 90.000000
_cell_angle_gamma 90.000000
_cell_volume 1606.419146
_symmetry_space_group_name_H-M "P 41 2 2"
_symmetry_group_IT_number 91
_symmetry_cell_setting 'tetragonal'
loop_
_space_group_symop_operation_xyz
x,y,z
-y,x,1/4+z
-x,-y,1/2+z
y,-x,3/4+z
x,-y,1/2-z
-x,y,-z
y,x,3/4-z
-y,-x,1/4-z
loop_
_atom_site_type_symbol
_atom_site_label
_atom_site_fract_x
_atom_site_fract_y
_atom_site_fract_z
Si Si1 0.884936 0.115065 0.625000
Si Si2 0.395127 0.344317 0.059977
Si Si3 0.813291 0.933621 0.187384
Si Si4 0.799439 0.617597 0.948727
Si Si5 0.490576 0.114514 0.835076
O O1 0.799016 0.191384 0.684173
O O2 0.068915 0.122073 0.634937
O O3 0.223661 0.277299 0.047380
O O4 0.355311 0.525486 0.068473
O O5 0.470843 0.246924 0.115707
O O6 0.500000 0.324948 0.000000
O O7 0.892065 0.000000 0.250000
O O8 0.690220 0.066792 0.168922
O O9 0.943499 0.563250 0.905070
O O10 0.834952 0.566396 0.019271
#
# Coordination Sequence:
#
# PCOD9548230 Si02
#       5
#     4   8   8   8   8
#     4  12  26  42  72 106 140 194 240 300 376 442
#     4  11  24  44  72 103 138 193 241 300 366 442
#     4  11  24  43  69 105 139 184 248 295 360 434
#     4  10  23  45  63 102 148 182 236 300 369 427
#     4  10  21  46  69  95 145 188 232 306 358 427
#
# _framework density 22.410091999999999
#
# number of rings (size 3 to 8) (size 9 to 14) (size 15 to 20)
#    0.000    1.333    6.667    0.000    6.222    2.667 
#    4.000    1.111    0.000    0.000    0.000    0.000 
#    0.000    0.000    0.000    0.000    0.000    0.000 
#
# Total GULP energy -200648.017624 kJ/mol
# GULP energy per Si atom -5573.556045 kJ/mol
# Density = 2.235909 g / cm^3
# Si number density = 22.410092 Si / 1000 Ang^3
#
#
#
# Elastic Constant Matrix: (Units=GPa)
#
#
# Indices 1 2 3 4 5 6 
#
# 1 89.9391 43.1587 63.4783 0.0000 0.0000 0.0000
# 2 43.1587 89.9383 63.4779 0.0000 0.0000 0.0000
# 3 63.4783 63.4779 123.6256 0.0000 0.0000 0.0000
# 4 0.0000 0.0000 0.0000 31.4707 0.0000 0.0000
# 5 0.0000 0.0000 0.0000 0.0000 31.4706 0.0000
# 6 0.0000 0.0000 0.0000 0.0000 0.0000 33.9598
#
#
#
# Elastic Compliance Matrix: (Units=1/GPa)
#
#
# Indices 1 2 3 4 5 6 
#
# 1 0.018051 -0.003326 -0.007561 0.000000 0.000000 0.000000
# 2 -0.003326 0.018051 -0.007561 0.000000 0.000000 0.000000
# 3 -0.007561 -0.007561 0.015854 0.000000 0.000000 0.000000
# 4 0.000000 0.000000 0.000000 0.031776 0.000000 0.000000
# 5 0.000000 0.000000 0.000000 0.000000 0.031776 0.000000
# 6 0.000000 0.000000 0.000000 0.000000 0.000000 0.029447
#
#
# Mechanical properties :
#
#
# Convention : Reuss Voigt Hill
#
# Bulk Modulus (GPa) = 66.39952 71.52585 68.96268
# Shear Modulus (GPa) = 26.75663 28.27277 27.51470
#
# Velocity S-wave (km/s) = 3.45911 3.55577 3.50777
# Velocity P-wave (km/s) = 6.75630 6.98885 6.87356
#
# Compressibility (1/GPa) = 0.01506035
#
# Stress axis : x y z
#
# Youngs Moduli (GPa) = 55.39848 55.39800 63.07641
#
# Poissons Ratio (x) = 0.18423 0.47693
# Poissons Ratio (y) = 0.18423 0.47693
# Poissons Ratio (z) = 0.41888 0.41887
#
# Static dielectric constant tensor:
#      x y z
#    x 1.908800 0.000000 0.000000 
#    y 0.000000 1.908800 0.000000 
#    z 0.000000 0.000000 1.857050 
# 
# From -- ./inp_files/21369.got.cif
#   From: 2010.05.17/outbox.cif.g08.bks.cpg/sg91_11_cif.got.tgz:21369.got - 2010.06.03 19:20:03.
