data_PCOD9548505
_publ_section_title
;
Structure prediction by ZEFSAII (Michael W. Deem and Ramdas Pophale) SiO2 
 PCOD9548505
Probable space group: P 41 2 2
;
_chemical_formula_sum "Si O2"
_cell_formula_units_Z 28
_cell_length_a 10.515732
_cell_length_b 10.515732
_cell_length_c 10.612487
_cell_angle_alpha 90.000000
_cell_angle_beta 90.000000
_cell_angle_gamma 90.000000
_cell_volume 1173.535387
_symmetry_space_group_name_H-M "P 41 2 2"
_symmetry_group_IT_number 91
_symmetry_cell_setting 'tetragonal'
loop_
_space_group_symop_operation_xyz
x,y,z
-y,x,1/4+z
-x,-y,1/2+z
y,-x,3/4+z
x,-y,1/2-z
-x,y,-z
y,x,3/4-z
-y,-x,1/4-z
loop_
_atom_site_type_symbol
_atom_site_label
_atom_site_fract_x
_atom_site_fract_y
_atom_site_fract_z
Si Si1 0.642563 0.642563 0.875000
Si Si2 0.165714 0.728053 0.307061
Si Si3 0.442280 0.249921 0.134662
Si Si4 0.000000 0.573949 0.500000
Si Si5 0.000000 0.065397 0.500000
O O1 0.780350 0.639474 0.805788
O O2 0.548898 0.652056 0.755323
O O3 0.291302 0.753167 0.389376
O O4 0.059240 0.661436 0.389405
O O5 0.136198 0.866396 0.251843
O O6 0.493357 0.115079 0.187629
O O7 0.500000 0.280699 0.000000
O O8 0.985702 0.985702 0.375000
#
# Coordination Sequence:
#
# PCOD9548505 Si02
#       5
#     4   8   8   4   4
#     4   8  22  46  64 104 154 198 264 326 416 470
#     4  10  24  44  67 111 152 205 266 325 414 485
#     4  10  24  42  74 104 157 200 262 334 396 479
#     4  12  26  42  82 116 152 207 281 328 394 518
#     4  12  22  38  62  94 164 207 245 326 408 488
#
# _framework density 23.859528999999998
#
# number of rings (size 3 to 8) (size 9 to 14) (size 15 to 20)
#    1.714    0.000    1.429    1.714    8.000    1.143 
#    0.000    0.000    0.000    6.857    0.000    0.000 
#    0.000    0.000    0.000    0.000    0.000    0.000 
#
# Total GULP energy -156003.658587 kJ/mol
# GULP energy per Si atom -5571.559235 kJ/mol
# Density = 2.380522 g / cm^3
# Si number density = 23.859529 Si / 1000 Ang^3
#
#
#
# Elastic Constant Matrix: (Units=GPa)
#
#
# Indices 1 2 3 4 5 6 
#
# 1 101.9664 36.9250 54.9372 0.0000 0.0000 0.0000
# 2 36.9250 101.9664 54.9372 0.0000 0.0000 0.0000
# 3 54.9372 54.9372 223.0205 0.0000 0.0000 0.0000
# 4 0.0000 0.0000 0.0000 49.8422 0.0000 0.0000
# 5 0.0000 0.0000 0.0000 0.0000 49.8422 0.0000
# 6 0.0000 0.0000 0.0000 0.0000 0.0000 -30.3603
#
#
#
# Elastic Compliance Matrix: (Units=1/GPa)
#
#
# Indices 1 2 3 4 5 6 
#
# 1 0.012159 -0.003216 -0.002203 0.000000 0.000000 0.000000
# 2 -0.003216 0.012159 -0.002203 0.000000 0.000000 0.000000
# 3 -0.002203 -0.002203 0.005569 0.000000 0.000000 0.000000
# 4 0.000000 0.000000 0.000000 0.020063 0.000000 0.000000
# 5 0.000000 0.000000 0.000000 0.000000 0.020063 0.000000
# 6 0.000000 0.000000 0.000000 0.000000 0.000000 -0.032938
#
#
# Mechanical properties :
#
#
# Convention : Reuss Voigt Hill
#
# Bulk Modulus (GPa) = 68.29285 80.06133 74.17709
# Shear Modulus (GPa) = 87.41281 32.54176 59.97729
#
# Velocity S-wave (km/s) = 6.05937 3.69709 5.01919
# Velocity P-wave (km/s) = 8.81134 7.20089 8.04650
#
# Compressibility (1/GPa) = 0.01464282
#
# Stress axis : x y z
#
# Youngs Moduli (GPa) = 82.24593 82.24593 179.56066
#
# Poissons Ratio (x) = 0.26452 0.39554
# Poissons Ratio (y) = 0.26452 0.39554
# Poissons Ratio (z) = 0.18117 0.18117
#
# Static dielectric constant tensor:
#      x y z
#    x 1.851660 0.000000 0.000000 
#    y 0.000000 1.851660 0.000000 
#    z 0.000000 0.000000 1.963980 
# 
# From -- ./inp_files/15571.got.cif
#   From: 2010.05.17/outbox.cif.g08.bks.cpg/sg91_8_cif.got.tgz:15571.got - 2010.06.03 19:20:03.
