data_PCOD9548486
_publ_section_title
;
Structure prediction by ZEFSAII (Michael W. Deem and Ramdas Pophale) SiO2 
 PCOD9548486
Probable space group: P 41 2 2
;
_chemical_formula_sum "Si O2"
_cell_formula_units_Z 24
_cell_length_a 10.976720
_cell_length_b 10.976720
_cell_length_c 9.035645
_cell_angle_alpha 90.000000
_cell_angle_beta 90.000000
_cell_angle_gamma 90.000000
_cell_volume 1088.690246
_symmetry_space_group_name_H-M "P 41 2 2"
_symmetry_group_IT_number 91
_symmetry_cell_setting 'tetragonal'
loop_
_space_group_symop_operation_xyz
x,y,z
-y,x,1/4+z
-x,-y,1/2+z
y,-x,3/4+z
x,-y,1/2-z
-x,y,-z
y,x,3/4-z
-y,-x,1/4-z
loop_
_atom_site_type_symbol
_atom_site_label
_atom_site_fract_x
_atom_site_fract_y
_atom_site_fract_z
Si Si1 0.000000 0.145531 0.500000
Si Si2 0.290148 0.748828 0.294007
Si Si3 0.699714 0.124358 0.214422
Si Si4 0.828395 0.500000 0.250000
O O1 0.886720 0.232665 0.451854
O O2 0.060340 0.060340 0.375000
O O3 0.194455 0.667655 0.385979
O O4 0.414538 0.751807 0.388073
O O5 0.293850 0.706151 0.125000
O O6 0.785301 0.214700 0.125000
O O7 0.766407 0.000000 0.250000
O O8 0.586760 0.096219 0.108448
#
# Coordination Sequence:
#
# PCOD9548486 Si02
#       4
#     4   8   8   4
#     4  10  24  36  60  92 138 176 212 256 324 396
#     4  10  24  41  63  98 132 173 216 267 329 384
#     4  10  24  41  65  94 132 174 219 266 327 384
#     4  10  24  42  66  92 134 172 222 268 322 390
#
# _framework density 22.044837000000001
#
# number of rings (size 3 to 8) (size 9 to 14) (size 15 to 20)
#    0.000    2.000    0.000    0.000   23.333    1.333 
#    0.000    0.000    0.000   54.000    0.000    0.000 
#    0.000    0.000    0.000    0.000    0.000    0.000 
#
# Total GULP energy -133983.834631 kJ/mol
# GULP energy per Si atom -5582.659776 kJ/mol
# Density = 2.199466 g / cm^3
# Si number density = 22.044837 Si / 1000 Ang^3
#
#
#
# Elastic Constant Matrix: (Units=GPa)
#
#
# Indices 1 2 3 4 5 6 
#
# 1 73.7564 18.8536 44.8055 0.0000 0.0000 0.0000
# 2 18.8536 73.7530 44.8041 0.0000 0.0000 0.0000
# 3 44.8055 44.8041 189.0920 0.0000 0.0000 0.0000
# 4 0.0000 0.0000 0.0000 23.3480 0.0000 0.0000
# 5 0.0000 0.0000 0.0000 0.0000 23.3479 0.0000
# 6 0.0000 0.0000 0.0000 0.0000 0.0000 -19.7807
#
#
#
# Elastic Compliance Matrix: (Units=1/GPa)
#
#
# Indices 1 2 3 4 5 6 
#
# 1 0.016112 -0.002102 -0.003320 0.000000 0.000000 0.000000
# 2 -0.002102 0.016113 -0.003320 0.000000 0.000000 0.000000
# 3 -0.003320 -0.003320 0.006862 0.000000 0.000000 0.000000
# 4 0.000000 0.000000 0.000000 0.042830 0.000000 0.000000
# 5 0.000000 0.000000 0.000000 0.000000 0.042830 0.000000
# 6 0.000000 0.000000 0.000000 0.000000 0.000000 -0.050554
#
#
# Mechanical properties :
#
#
# Convention : Reuss Voigt Hill
#
# Bulk Modulus (GPa) = 46.28871 61.50309 53.89590
# Shear Modulus (GPa) = 50.56786 20.59226 35.58006
#
# Velocity S-wave (km/s) = 4.79463 3.05963 4.02180
# Velocity P-wave (km/s) = 7.18988 6.35936 6.78733
#
# Compressibility (1/GPa) = 0.02160354
#
# Stress axis : x y z
#
# Youngs Moduli (GPa) = 62.06501 62.06236 145.73795
#
# Poissons Ratio (x) = 0.13046 0.48381
# Poissons Ratio (y) = 0.13047 0.48381
# Poissons Ratio (z) = 0.20604 0.20603
#
# Static dielectric constant tensor:
#      x y z
#    x 1.827780 0.000000 0.000000 
#    y 0.000000 1.827780 0.000000 
#    z 0.000000 0.000000 1.880090 
# 
# From -- ./inp_files/1906.got.cif
#   From: 2010.05.17/outbox.cif.g08.bks.cpg/sg91_1_cif.got.tgz:1906.got - 2010.06.03 19:20:03.
