data_PCOD9548849
_publ_section_title
;
Structure prediction by ZEFSAII (Michael W. Deem and Ramdas Pophale) SiO2 
 PCOD9548849
Probable space group: P 41 21 2
;
_chemical_formula_sum "Si O2"
_cell_formula_units_Z 64
_cell_length_a 21.005828
_cell_length_b 21.005828
_cell_length_c 7.965908
_cell_angle_alpha 90.000000
_cell_angle_beta 90.000000
_cell_angle_gamma 90.000000
_cell_volume 3514.915562
_symmetry_space_group_name_H-M "P 41 21 2"
_symmetry_group_IT_number 92
_symmetry_cell_setting 'tetragonal'
loop_
_space_group_symop_operation_xyz
x,y,z
1/2-y,1/2+x,1/4+z
-x,-y,1/2+z
1/2+y,1/2-x,3/4+z
1/2+x,1/2-y,3/4-z
1/2-x,1/2+y,1/4-z
y,x,-z
-y,-x,1/2-z
loop_
_atom_site_type_symbol
_atom_site_label
_atom_site_fract_x
_atom_site_fract_y
_atom_site_fract_z
Si Si1 0.828366 0.639993 0.297716
Si Si2 0.257450 0.057340 0.206043
Si Si3 0.559444 0.059360 0.392424
Si Si4 0.503638 0.815453 0.776142
Si Si5 0.761216 0.245945 0.954558
Si Si6 0.939977 0.748771 0.669434
Si Si7 0.846087 0.845476 0.195382
Si Si8 0.335760 0.865830 0.064223
O O1 0.885827 0.689989 0.283818
O O2 0.837219 0.575725 0.198594
O O3 0.763361 0.676151 0.249559
O O4 0.825709 0.618610 0.491604
O O5 0.189808 0.092152 0.233098
O O6 0.277133 0.010754 0.355425
O O7 0.256512 0.031755 0.016583
O O8 0.506867 0.057875 0.542275
O O9 0.537816 0.119865 0.280902
O O10 0.628395 0.078081 0.467324
O O11 0.485348 0.769807 0.929222
O O12 0.751061 0.248940 0.750000
O O13 0.831436 0.271189 0.998080
O O14 0.710611 0.293462 0.038298
O O15 0.905180 0.815934 0.706287
O O16 0.885884 0.693413 0.681511
O O17 0.858094 0.858094 0.000000
#
# Coordination Sequence:
#
# PCOD9548849 Si02
#       8
#     8   8   8   8   8   8   8   8
#     4   9  18  30  52  72  96 132 178 227 269 322
#     4  10  19  33  51  68  99 138 174 221 272 307
#     4  11  25  38  51  70 102 144 195 246 274 318
#     4  11  21  34  48  72  99 137 184 221 269 322
#     4   8  15  31  50  73  95 124 170 227 279 328
#     4   9  18  32  47  74 100 127 172 220 266 320
#     4  10  15  26  50  76  97 124 169 219 263 319
#     4   8  17  33  53  70  93 130 182 226 271 321
#
# _framework density 18.208120000000001
#
# number of rings (size 3 to 8) (size 9 to 14) (size 15 to 20)
#    0.000    2.500    1.250    3.375    1.750    3.000 
#    0.000    1.250    0.000    0.000    0.000    0.000 
#    0.000    0.000    0.000    0.000  242.250    3.250 
#
# Total GULP energy -356677.893452 kJ/mol
# GULP energy per Si atom -5573.092085 kJ/mol
# Density = 1.816668 g / cm^3
# Si number density = 18.208120 Si / 1000 Ang^3
#
#
#
# Elastic Constant Matrix: (Units=GPa)
#
#
# Indices 1 2 3 4 5 6 
#
# 1 30.5626 23.0572 21.7538 0.0000 0.0000 0.0000
# 2 23.0572 30.5623 21.7540 0.0000 0.0000 0.0000
# 3 21.7538 21.7540 88.0555 0.0000 0.0000 0.0000
# 4 0.0000 0.0000 0.0000 15.5015 0.0000 0.0000
# 5 0.0000 0.0000 0.0000 0.0000 15.5015 0.0000
# 6 0.0000 0.0000 0.0000 0.0000 0.0000 21.4435
#
#
#
# Elastic Compliance Matrix: (Units=1/GPa)
#
#
# Indices 1 2 3 4 5 6 
#
# 1 0.078282 -0.054957 -0.005762 0.000000 0.000000 0.000000
# 2 -0.054957 0.078283 -0.005763 0.000000 0.000000 0.000000
# 3 -0.005762 -0.005763 0.014204 0.000000 0.000000 0.000000
# 4 0.000000 0.000000 0.000000 0.064510 0.000000 0.000000
# 5 0.000000 0.000000 0.000000 0.000000 0.064510 0.000000
# 6 0.000000 0.000000 0.000000 0.000000 0.000000 0.046634
#
#
# Mechanical properties :
#
#
# Convention : Reuss Voigt Hill
#
# Bulk Modulus (GPa) = 26.45159 31.36781 28.90970
# Shear Modulus (GPa) = 10.16286 15.99701 13.07994
#
# Velocity S-wave (km/s) = 2.36508 2.96727 2.68313
# Velocity P-wave (km/s) = 4.69223 5.38557 5.05081
#
# Compressibility (1/GPa) = 0.03780490
#
# Stress axis : x y z
#
# Youngs Moduli (GPa) = 12.77439 12.77417 70.40410
#
# Poissons Ratio (x) = 0.70203 0.40568
# Poissons Ratio (y) = 0.70204 0.40573
# Poissons Ratio (z) = 0.07361 0.07362
#
# Static dielectric constant tensor:
#      x y z
#    x 1.646560 0.000000 0.000000 
#    y 0.000000 1.646560 0.000000 
#    z 0.000000 0.000000 1.671560 
# 
# From -- ./inp_files/1737.got.cif
#   From: 2010.05.17/outbox.cif.g08.bks.cpg/sg92_1_cif.got.tgz:1737.got - 2010.06.03 19:35:17.
