data_PCOD9548986
_publ_section_title
;
Structure prediction by ZEFSAII (Michael W. Deem and Ramdas Pophale) SiO2 
 PCOD9548986
Probable space group: P 41 21 2
;
_chemical_formula_sum "Si O2"
_cell_formula_units_Z 40
_cell_length_a 14.472146
_cell_length_b 14.472146
_cell_length_c 8.688555
_cell_angle_alpha 90.000000
_cell_angle_beta 90.000000
_cell_angle_gamma 90.000000
_cell_volume 1819.757110
_symmetry_space_group_name_H-M "P 41 21 2"
_symmetry_group_IT_number 92
_symmetry_cell_setting 'tetragonal'
loop_
_space_group_symop_operation_xyz
x,y,z
1/2-y,1/2+x,1/4+z
-x,-y,1/2+z
1/2+y,1/2-x,3/4+z
1/2+x,1/2-y,3/4-z
1/2-x,1/2+y,1/4-z
y,x,-z
-y,-x,1/2-z
loop_
_atom_site_type_symbol
_atom_site_label
_atom_site_fract_x
_atom_site_fract_y
_atom_site_fract_z
Si Si1 0.160026 0.014041 0.483489
Si Si2 0.147215 0.147215 0.000000
Si Si3 0.746828 0.098371 0.218245
Si Si4 0.846850 0.153151 0.750000
Si Si5 0.264919 0.968884 0.040316
Si Si6 0.212996 0.624145 0.999347
O O1 0.064169 0.064169 0.500000
O O2 0.229168 0.079004 0.388913
O O3 0.199533 0.988325 0.648427
O O4 0.147009 0.923814 0.381543
O O5 0.177643 0.210910 0.854349
O O6 0.037827 0.175445 0.999135
O O7 0.820088 0.179913 0.250000
O O8 0.700599 0.069737 0.378582
O O9 0.683071 0.134428 0.080057
O O10 0.758619 0.116650 0.653249
O O11 0.323305 0.042795 0.138542
#
# Coordination Sequence:
#
# PCOD9548986 Si02
#       6
#     8   4   8   4   8   8
#     4  11  23  35  60  92 134 166 212 276 333 397
#     4   8  18  39  60  82 134 177 200 256 336 390
#     4  12  23  37  65  99 129 175 226 268 332 404
#     4  10  20  33  54  90 130 165 208 254 340 384
#     4   9  20  38  58  92 131 174 207 270 329 385
#     4   9  22  42  57  88 136 172 219 264 331 400
#
# _framework density 21.980954000000001
#
# number of rings (size 3 to 8) (size 9 to 14) (size 15 to 20)
#    1.200    0.800    2.000    1.800    2.800    0.800 
#    0.000    0.000    0.000    2.400    0.000    0.000 
#    0.000    0.000    0.000    0.000    0.000    0.000 
#
# Total GULP energy -222769.746822 kJ/mol
# GULP energy per Si atom -5569.243671 kJ/mol
# Density = 2.193092 g / cm^3
# Si number density = 21.980954 Si / 1000 Ang^3
#
#
#
# Elastic Constant Matrix: (Units=GPa)
#
#
# Indices 1 2 3 4 5 6 
#
# 1 39.1103 24.0572 34.5313 0.0000 0.0000 0.0000
# 2 24.0572 39.1110 34.5305 0.0000 0.0000 0.0000
# 3 34.5313 34.5305 153.8065 0.0000 0.0000 0.0000
# 4 0.0000 0.0000 0.0000 34.6042 0.0000 0.0000
# 5 0.0000 0.0000 0.0000 0.0000 34.5996 0.0000
# 6 0.0000 0.0000 0.0000 0.0000 0.0000 29.0757
#
#
#
# Elastic Compliance Matrix: (Units=1/GPa)
#
#
# Indices 1 2 3 4 5 6 
#
# 1 0.043706 -0.022725 -0.004711 0.000000 0.000000 0.000000
# 2 -0.022725 0.043705 -0.004710 0.000000 0.000000 0.000000
# 3 -0.004711 -0.004710 0.008617 0.000000 0.000000 0.000000
# 4 0.000000 0.000000 0.000000 0.028898 0.000000 0.000000
# 5 0.000000 0.000000 0.000000 0.000000 0.028902 0.000000
# 6 0.000000 0.000000 0.000000 0.000000 0.000000 0.034393
#
#
# Mechanical properties :
#
#
# Convention : Reuss Voigt Hill
#
# Bulk Modulus (GPa) = 31.50930 46.47397 38.99163
# Shear Modulus (GPa) = 19.00490 28.91650 23.96070
#
# Velocity S-wave (km/s) = 2.94361 3.63095 3.30520
# Velocity P-wave (km/s) = 5.09108 6.22633 5.68710
#
# Compressibility (1/GPa) = 0.03173667
#
# Stress axis : x y z
#
# Youngs Moduli (GPa) = 22.88015 22.88092 116.05384
#
# Poissons Ratio (x) = 0.51996 0.54669
# Poissons Ratio (y) = 0.51994 0.54661
# Poissons Ratio (z) = 0.10778 0.10777
#
# Static dielectric constant tensor:
#      x y z
#    x 1.815060 0.000000 0.000000 
#    y 0.000000 1.815070 0.000000 
#    z 0.000000 0.000000 2.079010 
# 
# From -- ./inp_files/1392.got.cif
#   From: 2010.05.17/outbox.cif.g08.bks.cpg/sg92_1_cif.got.tgz:1392.got - 2010.06.03 19:35:17.
