data_PCOD9548742
_publ_section_title
;
Structure prediction by ZEFSAII (Michael W. Deem and Ramdas Pophale) SiO2 
 PCOD9548742
Probable space group: P 41 2 2
;
_chemical_formula_sum "Si O2"
_cell_formula_units_Z 32
_cell_length_a 9.734227
_cell_length_b 9.734227
_cell_length_c 14.007774
_cell_angle_alpha 90.000000
_cell_angle_beta 90.000000
_cell_angle_gamma 90.000000
_cell_volume 1327.309081
_symmetry_space_group_name_H-M "P 41 2 2"
_symmetry_group_IT_number 91
_symmetry_cell_setting 'tetragonal'
loop_
_space_group_symop_operation_xyz
x,y,z
-y,x,1/4+z
-x,-y,1/2+z
y,-x,3/4+z
x,-y,1/2-z
-x,y,-z
y,x,3/4-z
-y,-x,1/4-z
loop_
_atom_site_type_symbol
_atom_site_label
_atom_site_fract_x
_atom_site_fract_y
_atom_site_fract_z
Si Si1 0.920404 0.634806 0.588840
Si Si2 0.058292 0.654961 0.873015
Si Si3 0.653918 0.319247 0.012402
Si Si4 0.153558 0.128972 0.492250
O O1 0.769464 0.600620 0.547338
O O2 0.918146 0.743560 0.672808
O O3 0.000000 0.699532 0.500000
O O4 0.997644 0.504271 0.883104
O O5 0.171100 0.656006 0.789387
O O6 0.132432 0.713469 0.968356
O O7 0.937114 0.762902 0.846599
O O8 0.686444 0.313557 0.125000
O O9 0.500000 0.375660 0.000000
O O10 0.000000 0.066354 0.500000
#
# Coordination Sequence:
#
# PCOD9548742 Si02
#       4
#     8   8   8   8
#     4  11  24  45  74 101 140 191 236 294 364 428
#     4  11  24  45  71 105 146 187 241 303 364 430
#     4  11  24  45  73 105 143 189 243 300 362 437
#     4  11  24  39  65 101 139 181 233 293 352 421
#
# _framework density 24.108927000000001
#
# number of rings (size 3 to 8) (size 9 to 14) (size 15 to 20)
#    0.000    1.000    0.000    6.750    0.000   12.000 
#    0.000   10.000    0.000    0.000    0.000    0.000 
#    0.000    0.000    0.000    0.000    0.000    0.000 
#
# Total GULP energy -178881.264417 kJ/mol
# GULP energy per Si atom -5590.039513 kJ/mol
# Density = 2.405405 g / cm^3
# Si number density = 24.108927 Si / 1000 Ang^3
#
#
#
# Elastic Constant Matrix: (Units=GPa)
#
#
# Indices 1 2 3 4 5 6 
#
# 1 126.6486 42.8751 35.6786 0.0000 0.0000 0.0000
# 2 42.8751 126.6488 35.6789 0.0000 0.0000 0.0000
# 3 35.6786 35.6789 98.6117 0.0000 0.0000 0.0000
# 4 0.0000 0.0000 0.0000 -8.3749 0.0000 0.0000
# 5 0.0000 0.0000 0.0000 0.0000 -8.3751 0.0000
# 6 0.0000 0.0000 0.0000 0.0000 0.0000 45.1385
#
#
#
# Elastic Compliance Matrix: (Units=1/GPa)
#
#
# Indices 1 2 3 4 5 6 
#
# 1 0.009448 -0.002489 -0.002518 0.000000 0.000000 0.000000
# 2 -0.002489 0.009448 -0.002518 0.000000 0.000000 0.000000
# 3 -0.002518 -0.002518 0.011963 0.000000 0.000000 0.000000
# 4 0.000000 0.000000 0.000000 -0.119404 0.000000 0.000000
# 5 0.000000 0.000000 0.000000 0.000000 -0.119401 0.000000
# 6 0.000000 0.000000 0.000000 0.000000 0.000000 0.022154
#
#
# Mechanical properties :
#
#
# Convention : Reuss Voigt Hill
#
# Bulk Modulus (GPa) = 63.25467 64.48604 63.87035
# Shear Modulus (GPa) = -30.21622 21.52278 -4.34672
#
# Velocity S-wave (km/s) = -3.54407 2.99110 -1.34420
# Velocity P-wave (km/s) = 3.08978 6.22373 4.91333
#
# Compressibility (1/GPa) = 0.01580911
#
# Stress axis : x y z
#
# Youngs Moduli (GPa) = 105.84477 105.84472 83.59341
#
# Poissons Ratio (x) = 0.26346 0.21046
# Poissons Ratio (y) = 0.26346 0.21047
# Poissons Ratio (z) = 0.26649 0.26649
#
# Static dielectric constant tensor:
#      x y z
#    x 1.951710 0.000000 0.000000 
#    y 0.000000 1.951710 0.000000 
#    z 0.000000 0.000000 2.069850 
# 
# From -- ./inp_files/11180.got.cif
#   From: 2010.05.17/outbox.cif.g08.bks.cpg/sg91_6_cif.got.tgz:11180.got - 2010.06.03 19:20:03.
