data_PCOD9548036
_publ_section_title
;
Structure prediction by ZEFSAII (Michael W. Deem and Ramdas Pophale) SiO2 
 PCOD9548036
Probable space group: P 41 2 2
;
_chemical_formula_sum "Si O2"
_cell_formula_units_Z 36
_cell_length_a 9.794136
_cell_length_b 9.794136
_cell_length_c 16.386325
_cell_angle_alpha 90.000000
_cell_angle_beta 90.000000
_cell_angle_gamma 90.000000
_cell_volume 1571.859864
_symmetry_space_group_name_H-M "P 41 2 2"
_symmetry_group_IT_number 91
_symmetry_cell_setting 'tetragonal'
loop_
_space_group_symop_operation_xyz
x,y,z
-y,x,1/4+z
-x,-y,1/2+z
y,-x,3/4+z
x,-y,1/2-z
-x,y,-z
y,x,3/4-z
-y,-x,1/4-z
loop_
_atom_site_type_symbol
_atom_site_label
_atom_site_fract_x
_atom_site_fract_y
_atom_site_fract_z
Si Si1 0.169010 0.790947 0.887054
Si Si2 0.890000 0.665354 0.885811
Si Si3 0.535943 0.666084 0.096663
Si Si4 0.089241 0.225185 0.797945
Si Si5 0.040924 0.500000 0.750000
O O1 0.305807 0.701514 0.892404
O O2 0.137167 0.823792 0.791620
O O3 0.037949 0.708991 0.920798
O O4 0.192681 0.929695 0.936339
O O5 0.802815 0.802815 0.875000
O O6 0.773991 0.550959 0.904468
O O7 0.947099 0.594844 0.804388
O O8 0.480896 0.519105 0.125000
O O9 0.500000 0.679072 0.000000
O O10 0.160698 0.160698 0.875000
O O11 0.119786 0.387899 0.801114
#
# Coordination Sequence:
#
# PCOD9548036 Si02
#       5
#     8   8   8   8   4
#     4  11  23  45  77 112 146 194 252 323 381 449
#     4  10  20  40  75 100 138 195 244 303 380 442
#     4  11  23  49  72 106 155 199 253 313 377 474
#     4  11  23  43  72 104 155 192 249 318 387 452
#     4  10  20  44  68 100 148 186 236 322 372 448
#
# _framework density 22.902806000000002
#
# number of rings (size 3 to 8) (size 9 to 14) (size 15 to 20)
#    0.000    1.333    3.333    2.667    0.000    1.778 
#   16.000   13.333    0.000    0.000    0.000    0.000 
#    0.000    0.000    0.000    0.000    0.000    0.000 
#
# Total GULP energy -200612.797673 kJ/mol
# GULP energy per Si atom -5572.577713 kJ/mol
# Density = 2.285068 g / cm^3
# Si number density = 22.902806 Si / 1000 Ang^3
#
#
#
# Elastic Constant Matrix: (Units=GPa)
#
#
# Indices 1 2 3 4 5 6 
#
# 1 104.4241 88.6070 37.0610 0.0000 0.0000 0.0000
# 2 88.6070 104.4259 37.0603 0.0000 0.0000 0.0000
# 3 37.0610 37.0603 137.8136 0.0000 0.0000 0.0000
# 4 0.0000 0.0000 0.0000 -17.6596 0.0000 0.0000
# 5 0.0000 0.0000 0.0000 0.0000 -17.6818 0.0000
# 6 0.0000 0.0000 0.0000 0.0000 0.0000 36.5876
#
#
#
# Elastic Compliance Matrix: (Units=1/GPa)
#
#
# Indices 1 2 3 4 5 6 
#
# 1 0.034499 -0.028721 -0.001554 0.000000 0.000000 0.000000
# 2 -0.028721 0.034498 -0.001553 0.000000 0.000000 0.000000
# 3 -0.001554 -0.001553 0.008092 0.000000 0.000000 0.000000
# 4 0.000000 0.000000 0.000000 -0.056626 0.000000 0.000000
# 5 0.000000 0.000000 0.000000 0.000000 -0.056555 0.000000
# 6 0.000000 0.000000 0.000000 0.000000 0.000000 0.027332
#
#
# Mechanical properties :
#
#
# Convention : Reuss Voigt Hill
#
# Bulk Modulus (GPa) = 74.45137 74.68003 74.56570
# Shear Modulus (GPa) = 84.21585 12.51161 48.36373
#
# Velocity S-wave (km/s) = 6.07049 2.33982 4.60030
# Velocity P-wave (km/s) = 9.03950 6.32280 7.80033
#
# Compressibility (1/GPa) = 0.01343159
#
# Stress axis : x y z
#
# Youngs Moduli (GPa) = 28.98676 28.98741 123.58287
#
# Poissons Ratio (x) = 0.83255 0.19202
# Poissons Ratio (y) = 0.83253 0.19196
# Poissons Ratio (z) = 0.04504 0.04503
#
# Static dielectric constant tensor:
#      x y z
#    x 1.961890 0.000000 0.000000 
#    y 0.000000 1.961910 0.000000 
#    z 0.000000 0.000000 1.687280 
# 
# From -- ./inp_files/17201.got.cif
#   From: 2010.05.17/outbox.cif.g08.bks.cpg/sg91_9_cif.got.tgz:17201.got - 2010.06.03 19:20:03.
