data_PCOD9548420
_publ_section_title
;
Structure prediction by ZEFSAII (Michael W. Deem and Ramdas Pophale) SiO2 
 PCOD9548420
Probable space group: P 41 2 2
;
_chemical_formula_sum "Si O2"
_cell_formula_units_Z 16
_cell_length_a 7.268988
_cell_length_b 7.268988
_cell_length_c 11.143053
_cell_angle_alpha 90.000000
_cell_angle_beta 90.000000
_cell_angle_gamma 90.000000
_cell_volume 588.778713
_symmetry_space_group_name_H-M "P 41 2 2"
_symmetry_group_IT_number 91
_symmetry_cell_setting 'tetragonal'
loop_
_space_group_symop_operation_xyz
x,y,z
-y,x,1/4+z
-x,-y,1/2+z
y,-x,3/4+z
x,-y,1/2-z
-x,y,-z
y,x,3/4-z
-y,-x,1/4-z
loop_
_atom_site_type_symbol
_atom_site_label
_atom_site_fract_x
_atom_site_fract_y
_atom_site_fract_z
Si Si1 0.766234 0.354493 0.837565
Si Si2 0.095325 0.000000 0.250000
Si Si3 0.500000 0.868115 0.500000
O O1 0.666568 0.500000 0.750000
O O2 0.659475 0.264727 0.949132
O O3 0.978321 0.428843 0.847338
O O4 0.784960 0.179647 0.750956
O O5 0.988892 0.988892 0.375000
#
# Coordination Sequence:
#
# PCOD9548420 Si02
#       3
#     8   4   4
#     4  10  23  47  97 128 183 254 317 398 485 579
#     4  12  22  48  94 130 182 256 318 388 490 582
#     4  10  22  50  96 134 182 258 326 398 488 596
#
# _framework density 27.174894999999999
#
# number of rings (size 3 to 8) (size 9 to 14) (size 15 to 20)
#    1.500    0.000    5.000    0.000    0.000    0.000 
#    0.000   12.500   49.500    0.000    0.000    0.000 
#    0.000    0.000    0.000    0.000    0.000    0.000 
#
# Total GULP energy -89166.131673 kJ/mol
# GULP energy per Si atom -5572.883230 kJ/mol
# Density = 2.711304 g / cm^3
# Si number density = 27.174895 Si / 1000 Ang^3
#
#
#
# Elastic Constant Matrix: (Units=GPa)
#
#
# Indices 1 2 3 4 5 6 
#
# 1 168.6590 58.8572 53.5840 0.0000 0.0000 0.0000
# 2 58.8572 168.6590 53.5840 0.0000 0.0000 0.0000
# 3 53.5840 53.5840 169.9960 0.0000 0.0000 0.0000
# 4 0.0000 0.0000 0.0000 40.3190 0.0000 0.0000
# 5 0.0000 0.0000 0.0000 0.0000 40.3190 0.0000
# 6 0.0000 0.0000 0.0000 0.0000 0.0000 28.0143
#
#
#
# Elastic Compliance Matrix: (Units=1/GPa)
#
#
# Indices 1 2 3 4 5 6 
#
# 1 0.007134 -0.001973 -0.001627 0.000000 0.000000 0.000000
# 2 -0.001973 0.007134 -0.001627 0.000000 0.000000 0.000000
# 3 -0.001627 -0.001627 0.006908 0.000000 0.000000 0.000000
# 4 0.000000 0.000000 0.000000 0.024802 0.000000 0.000000
# 5 0.000000 0.000000 0.000000 0.000000 0.024802 0.000000
# 6 0.000000 0.000000 0.000000 0.000000 0.000000 0.035696
#
#
# Mechanical properties :
#
#
# Convention : Reuss Voigt Hill
#
# Bulk Modulus (GPa) = 93.25295 93.26270 93.25782
# Shear Modulus (GPa) = 41.49182 44.48306 42.98744
#
# Velocity S-wave (km/s) = 3.91172 4.05027 3.98160
# Velocity P-wave (km/s) = 7.40219 7.50113 7.45182
#
# Compressibility (1/GPa) = 0.01072352
#
# Stress axis : x y z
#
# Youngs Moduli (GPa) = 140.16414 140.16414 144.75616
#
# Poissons Ratio (x) = 0.27652 0.23552
# Poissons Ratio (y) = 0.27652 0.23552
# Poissons Ratio (z) = 0.22805 0.22805
#
# Static dielectric constant tensor:
#      x y z
#    x 2.210810 0.000000 0.000000 
#    y 0.000000 2.210810 0.000000 
#    z 0.000000 0.000000 2.405510 
# 
# From -- ./inp_files/15449.got.cif
#   From: 2010.05.17/outbox.cif.g08.bks.cpg/sg91_8_cif.got.tgz:15449.got - 2010.06.03 19:20:03.
