data_PCOD9548371
_publ_section_title
;
Structure prediction by ZEFSAII (Michael W. Deem and Ramdas Pophale) SiO2 
 PCOD9548371
Probable space group: P 41 2 2
;
_chemical_formula_sum "Si O2"
_cell_formula_units_Z 40
_cell_length_a 13.307425
_cell_length_b 13.307425
_cell_length_c 10.407407
_cell_angle_alpha 90.000000
_cell_angle_beta 90.000000
_cell_angle_gamma 90.000000
_cell_volume 1843.022313
_symmetry_space_group_name_H-M "P 41 2 2"
_symmetry_group_IT_number 91
_symmetry_cell_setting 'tetragonal'
loop_
_space_group_symop_operation_xyz
x,y,z
-y,x,1/4+z
-x,-y,1/2+z
y,-x,3/4+z
x,-y,1/2-z
-x,y,-z
y,x,3/4-z
-y,-x,1/4-z
loop_
_atom_site_type_symbol
_atom_site_label
_atom_site_fract_x
_atom_site_fract_y
_atom_site_fract_z
Si Si1 0.017578 0.612324 0.267219
Si Si2 0.907835 0.000000 0.750000
Si Si3 0.642719 0.792688 0.550777
Si Si4 0.000000 0.731142 0.500000
Si Si5 0.500000 0.395141 0.000000
Si Si6 0.272884 0.137112 0.301120
Si Si7 0.180596 0.180596 0.875000
O O1 0.055152 0.500000 0.250000
O O2 0.894833 0.607705 0.273766
O O3 0.056063 0.659294 0.399721
O O4 0.055951 0.681047 0.149664
O O5 0.828618 0.092036 0.763842
O O6 0.972499 0.027502 0.625000
O O7 0.586568 0.687223 0.535193
O O8 0.647152 0.829621 0.696404
O O9 0.754262 0.781837 0.494716
O O10 0.066943 0.799005 0.591210
O O11 0.539481 0.460520 0.125000
O O12 0.234754 0.234754 0.375000
#
# Coordination Sequence:
#
# PCOD9548371 Si02
#       7
#     8   4   8   4   4   8   4
#     4  11  23  40  71 105 136 186 246 302 363 436
#     4  10  22  43  65 100 148 202 246 289 345 422
#     4  11  22  44  73  99 140 184 234 306 368 429
#     4  10  24  41  69 104 146 192 248 299 361 440
#     4  12  28  52  80 108 144 190 242 314 402 470
#     4  11  23  43  67  99 148 190 234 298 363 427
#     4  10  22  44  70 102 146 194 244 298 358 436
#
# _framework density 21.703482000000001
#
# number of rings (size 3 to 8) (size 9 to 14) (size 15 to 20)
#    0.000    1.200    4.000    1.200    2.800    0.800 
#    5.400    4.000   17.600    0.000    0.000    0.000 
#    0.000    0.000    0.000    0.000    0.000    0.000 
#
# Total GULP energy -223190.472642 kJ/mol
# GULP energy per Si atom -5579.761816 kJ/mol
# Density = 2.165408 g / cm^3
# Si number density = 21.703482 Si / 1000 Ang^3
#
#
#
# Elastic Constant Matrix: (Units=GPa)
#
#
# Indices 1 2 3 4 5 6 
#
# 1 74.5988 41.4103 41.2445 0.0000 0.0000 0.0000
# 2 41.4103 74.5982 41.2442 0.0000 0.0000 0.0000
# 3 41.2445 41.2442 127.8513 0.0000 0.0000 0.0000
# 4 0.0000 0.0000 0.0000 26.0394 0.0000 0.0000
# 5 0.0000 0.0000 0.0000 0.0000 26.0391 0.0000
# 6 0.0000 0.0000 0.0000 0.0000 0.0000 26.6571
#
#
#
# Elastic Compliance Matrix: (Units=1/GPa)
#
#
# Indices 1 2 3 4 5 6 
#
# 1 0.020658 -0.009473 -0.003609 0.000000 0.000000 0.000000
# 2 -0.009473 0.020659 -0.003609 0.000000 0.000000 0.000000
# 3 -0.003609 -0.003609 0.010150 0.000000 0.000000 0.000000
# 4 0.000000 0.000000 0.000000 0.038403 0.000000 0.000000
# 5 0.000000 0.000000 0.000000 0.000000 0.038404 0.000000
# 6 0.000000 0.000000 0.000000 0.000000 0.000000 0.037513
#
#
# Mechanical properties :
#
#
# Convention : Reuss Voigt Hill
#
# Bulk Modulus (GPa) = 55.28690 58.31625 56.80158
# Shear Modulus (GPa) = 24.36697 25.95710 25.16203
#
# Velocity S-wave (km/s) = 3.35434 3.46206 3.40862
# Velocity P-wave (km/s) = 6.36641 6.55050 6.45911
#
# Compressibility (1/GPa) = 0.01808747
#
# Stress axis : x y z
#
# Youngs Moduli (GPa) = 48.40632 48.40600 98.52432
#
# Poissons Ratio (x) = 0.45853 0.35553
# Poissons Ratio (y) = 0.45854 0.35553
# Poissons Ratio (z) = 0.17468 0.17467
#
# Static dielectric constant tensor:
#      x y z
#    x 1.826110 0.000000 0.000000 
#    y 0.000000 1.826110 0.000000 
#    z 0.000000 0.000000 1.846140 
# 
# From -- ./inp_files/19491.got.cif
#   From: 2010.05.17/outbox.cif.g08.bks.cpg/sg91_10_cif.got.tgz:19491.got - 2010.06.03 19:20:03.
