data_PCOD9548182
_publ_section_title
;
Structure prediction by ZEFSAII (Michael W. Deem and Ramdas Pophale) SiO2 
 PCOD9548182
Probable space group: P 41 2 2
;
_chemical_formula_sum "Si O2"
_cell_formula_units_Z 48
_cell_length_a 11.796696
_cell_length_b 11.796696
_cell_length_c 16.551942
_cell_angle_alpha 90.000000
_cell_angle_beta 90.000000
_cell_angle_gamma 90.000000
_cell_volume 2303.401957
_symmetry_space_group_name_H-M "P 41 2 2"
_symmetry_group_IT_number 91
_symmetry_cell_setting 'tetragonal'
loop_
_space_group_symop_operation_xyz
x,y,z
-y,x,1/4+z
-x,-y,1/2+z
y,-x,3/4+z
x,-y,1/2-z
-x,y,-z
y,x,3/4-z
-y,-x,1/4-z
loop_
_atom_site_type_symbol
_atom_site_label
_atom_site_fract_x
_atom_site_fract_y
_atom_site_fract_z
Si Si1 0.137997 0.700669 0.343134
Si Si2 0.500000 0.742619 0.000000
Si Si3 0.625235 0.334937 0.031438
Si Si4 0.113247 0.272729 0.836102
Si Si5 0.308861 0.129436 0.239461
Si Si6 0.680923 0.680923 0.875000
Si Si7 0.155679 0.573092 0.507967
O O1 0.181505 0.590994 0.296132
O O2 0.231815 0.798710 0.324649
O O3 0.114766 0.652091 0.433709
O O4 0.015069 0.734736 0.308672
O O5 0.425937 0.676571 0.065419
O O6 0.629941 0.370060 0.125000
O O7 0.683491 0.210166 0.024470
O O8 0.500000 0.332590 0.000000
O O9 0.709186 0.424160 0.990632
O O10 0.155519 0.155519 0.875000
O O11 0.128728 0.361521 0.909515
O O12 0.311217 0.205517 0.320695
O O13 0.444484 0.120879 0.224235
O O14 0.267033 0.000000 0.250000
#
# Coordination Sequence:
#
# PCOD9548182 Si02
#       7
#     8   4   8   8   8   4   8
#     4  11  22  40  66  94 122 175 207 265 339 373
#     4  10  22  40  66  96 134 166 218 268 326 418
#     4   9  21  40  60  92 126 159 206 259 313 377
#     4   9  21  41  63  94 125 157 220 265 311 390
#     4  11  24  44  64  93 131 170 225 271 327 403
#     4  10  22  46  64 100 130 174 224 266 344 402
#     4  10  21  41  66  92 123 170 213 261 327 391
#
# _framework density 20.838742
#
# number of rings (size 3 to 8) (size 9 to 14) (size 15 to 20)
#    0.000    2.333    1.667    1.500    5.833    0.000 
#   21.000    0.000    1.833    0.000    0.000    1.167 
#    0.000    0.000    0.000    0.000    0.000    0.000 
#
# Total GULP energy -267370.188937 kJ/mol
# GULP energy per Si atom -5570.212270 kJ/mol
# Density = 2.079131 g / cm^3
# Si number density = 20.838742 Si / 1000 Ang^3
#
#
#
# Elastic Constant Matrix: (Units=GPa)
#
#
# Indices 1 2 3 4 5 6 
#
# 1 108.2815 70.4512 15.9956 0.0000 0.0000 0.0000
# 2 70.4512 108.2814 15.9961 0.0000 0.0000 0.0000
# 3 15.9956 15.9961 47.8554 0.0000 0.0000 0.0000
# 4 0.0000 0.0000 0.0000 11.2106 0.0000 0.0000
# 5 0.0000 0.0000 0.0000 0.0000 11.2106 0.0000
# 6 0.0000 0.0000 0.0000 0.0000 0.0000 4.4331
#
#
#
# Elastic Compliance Matrix: (Units=1/GPa)
#
#
# Indices 1 2 3 4 5 6 
#
# 1 0.016192 -0.010241 -0.001989 0.000000 0.000000 0.000000
# 2 -0.010241 0.016192 -0.001989 0.000000 0.000000 0.000000
# 3 -0.001989 -0.001989 0.022226 0.000000 0.000000 0.000000
# 4 0.000000 0.000000 0.000000 0.089201 0.000000 0.000000
# 5 0.000000 0.000000 0.000000 0.000000 0.089201 0.000000
# 6 0.000000 0.000000 0.000000 0.000000 0.000000 0.225574
#
#
# Mechanical properties :
#
#
# Convention : Reuss Voigt Hill
#
# Bulk Modulus (GPa) = 38.20956 52.14491 45.17723
# Shear Modulus (GPa) = 10.08573 16.16923 13.12748
#
# Velocity S-wave (km/s) = 2.20236 2.78856 2.51261
# Velocity P-wave (km/s) = 4.98426 5.95361 5.49037
#
# Compressibility (1/GPa) = 0.02617146
#
# Stress axis : x y z
#
# Youngs Moduli (GPa) = 61.75742 61.75717 44.99222
#
# Poissons Ratio (x) = 0.63248 0.08949
# Poissons Ratio (y) = 0.63248 0.08950
# Poissons Ratio (z) = 0.12283 0.12285
#
# Static dielectric constant tensor:
#      x y z
#    x 1.794420 0.000000 0.000000 
#    y 0.000000 1.794420 0.000000 
#    z 0.000000 0.000000 1.868200 
# 
# From -- ./inp_files/16941.got.cif
#   From: 2010.05.17/outbox.cif.g08.bks.cpg/sg91_9_cif.got.tgz:16941.got - 2010.06.03 19:20:03.
