data_PCOD9548076
_publ_section_title
;
Structure prediction by ZEFSAII (Michael W. Deem and Ramdas Pophale) SiO2 
 PCOD9548076
Probable space group: P 41 2 2
;
_chemical_formula_sum "Si O2"
_cell_formula_units_Z 48
_cell_length_a 9.378894
_cell_length_b 9.378894
_cell_length_c 31.391847
_cell_angle_alpha 90.000000
_cell_angle_beta 90.000000
_cell_angle_gamma 90.000000
_cell_volume 2761.341526
_symmetry_space_group_name_H-M "P 41 2 2"
_symmetry_group_IT_number 91
_symmetry_cell_setting 'tetragonal'
loop_
_space_group_symop_operation_xyz
x,y,z
-y,x,1/4+z
-x,-y,1/2+z
y,-x,3/4+z
x,-y,1/2-z
-x,y,-z
y,x,3/4-z
-y,-x,1/4-z
loop_
_atom_site_type_symbol
_atom_site_label
_atom_site_fract_x
_atom_site_fract_y
_atom_site_fract_z
Si Si1 0.330830 0.864608 0.450217
Si Si2 0.165183 0.829869 0.199373
Si Si3 0.668554 0.331447 0.125000
Si Si4 0.836710 0.831528 0.701844
Si Si5 0.669511 0.866307 0.453064
Si Si6 0.332465 0.668599 0.370817
Si Si7 0.329690 0.670311 0.125000
O O1 0.500464 0.899615 0.447086
O O2 0.310585 0.811483 0.498681
O O3 0.292279 0.747753 0.414889
O O4 0.239252 0.008003 0.444330
O O5 0.208982 0.809934 0.248871
O O6 0.267460 0.751033 0.166192
O O7 0.161607 0.999917 0.192016
O O8 0.755991 0.289487 0.166640
O O9 0.688984 0.498298 0.116643
O O10 0.742048 0.746474 0.668363
O O11 0.993674 0.764455 0.698763
O O12 0.303633 0.499597 0.371644
#
# Coordination Sequence:
#
# PCOD9548076 Si02
#       7
#     8   8   4   8   8   8   4
#     4   9  18  35  56  77 104 137 175 215 257 309
#     4  10  21  37  55  78 107 138 175 217 260 309
#     4   9  20  35  52  78 108 137 174 219 262 308
#     4  10  21  36  55  78 105 139 176 216 262 310
#     4   9  18  34  56  78 102 138 176 212 259 311
#     4  10  21  35  53  79 108 139 175 216 262 310
#     4  11  22  35  54  80 108 141 176 213 262 312
#
# _framework density 17.382853999999998
#
# number of rings (size 3 to 8) (size 9 to 14) (size 15 to 20)
#    0.000    2.333    0.000    2.000    0.000    6.667 
#    0.000    3.333    0.000    4.000    0.000    0.000 
#    0.000    0.000    0.000    0.000    0.000    0.000 
#
# Total GULP energy -267754.290311 kJ/mol
# GULP energy per Si atom -5578.214381 kJ/mol
# Density = 1.734329 g / cm^3
# Si number density = 17.382854 Si / 1000 Ang^3
#
#
#
# Elastic Constant Matrix: (Units=GPa)
#
#
# Indices 1 2 3 4 5 6 
#
# 1 88.1792 64.5646 99.5070 0.0000 0.0000 0.0000
# 2 64.5646 88.1788 99.5066 0.0000 0.0000 0.0000
# 3 99.5070 99.5066 167.9552 0.0000 0.0000 0.0000
# 4 0.0000 0.0000 0.0000 35.3716 0.0000 0.0000
# 5 0.0000 0.0000 0.0000 0.0000 35.3715 0.0000
# 6 0.0000 0.0000 0.0000 0.0000 0.0000 23.9657
#
#
#
# Elastic Compliance Matrix: (Units=1/GPa)
#
#
# Indices 1 2 3 4 5 6 
#
# 1 0.035527 -0.006821 -0.017007 0.000000 0.000000 0.000000
# 2 -0.006821 0.035526 -0.017007 0.000000 0.000000 0.000000
# 3 -0.017007 -0.017007 0.026106 0.000000 0.000000 0.000000
# 4 0.000000 0.000000 0.000000 0.028271 0.000000 0.000000
# 5 0.000000 0.000000 0.000000 0.000000 0.028271 0.000000
# 6 0.000000 0.000000 0.000000 0.000000 0.000000 0.041726
#
#
# Mechanical properties :
#
#
# Convention : Reuss Voigt Hill
#
# Bulk Modulus (GPa) = 64.56015 96.82995 80.69505
# Shear Modulus (GPa) = 17.71412 24.32410 21.01911
#
# Velocity S-wave (km/s) = 3.19573 3.74480 3.48111
# Velocity P-wave (km/s) = 7.13006 8.63269 7.91710
#
# Compressibility (1/GPa) = 0.01548943
#
# Stress axis : x y z
#
# Youngs Moduli (GPa) = 28.14793 28.14806 38.30530
#
# Poissons Ratio (x) = 0.19199 0.65147
# Poissons Ratio (y) = 0.19199 0.65146
# Poissons Ratio (z) = 0.47872 0.47871
#
# Static dielectric constant tensor:
#      x y z
#    x 1.575360 0.000000 0.000000 
#    y 0.000000 1.575360 0.000000 
#    z 0.000000 0.000000 1.594660 
# 
# From -- ./inp_files/8003.got.cif
#   From: 2010.05.17/outbox.cif.g08.bks.cpg/sg91_5_cif.got.tgz:8003.got - 2010.06.03 19:20:03.
