data_PCOD9548511
_publ_section_title
;
Structure prediction by ZEFSAII (Michael W. Deem and Ramdas Pophale) SiO2 
 PCOD9548511
Probable space group: P 41 2 2
;
_chemical_formula_sum "Si O2"
_cell_formula_units_Z 24
_cell_length_a 7.090851
_cell_length_b 7.090851
_cell_length_c 20.541858
_cell_angle_alpha 90.000000
_cell_angle_beta 90.000000
_cell_angle_gamma 90.000000
_cell_volume 1032.848069
_symmetry_space_group_name_H-M "P 41 2 2"
_symmetry_group_IT_number 91
_symmetry_cell_setting 'tetragonal'
loop_
_space_group_symop_operation_xyz
x,y,z
-y,x,1/4+z
-x,-y,1/2+z
y,-x,3/4+z
x,-y,1/2-z
-x,y,-z
y,x,3/4-z
-y,-x,1/4-z
loop_
_atom_site_type_symbol
_atom_site_label
_atom_site_fract_x
_atom_site_fract_y
_atom_site_fract_z
Si Si1 0.776693 0.415733 0.997495
Si Si2 0.270211 0.665870 0.886807
Si Si3 0.372450 0.029579 0.942619
O O1 0.677331 0.556886 0.047475
O O2 0.735737 0.207408 0.026724
O O3 0.700732 0.411228 0.923747
O O4 0.528107 0.111085 0.892615
O O5 0.453848 0.000000 0.750000
O O6 0.233624 0.879354 0.910244
O O7 0.500000 0.942883 0.000000
#
# Coordination Sequence:
#
# PCOD9548511 Si02
#       3
#     8   8   8
#     4  11  24  45  76 108 157 206 259 329 395 468
#     4  11  23  45  73 108 152 207 256 321 396 465
#     4  10  24  43  72 109 149 200 260 323 393 467
#
# _framework density 23.236715
#
# number of rings (size 3 to 8) (size 9 to 14) (size 15 to 20)
#    0.000    1.333    3.333    1.000    0.000    8.000 
#    0.000    3.333    0.000    0.000    0.000    0.000 
#    0.000    0.000    0.000    0.000    0.000    0.000 
#
# Total GULP energy -133899.935738 kJ/mol
# GULP energy per Si atom -5579.163989 kJ/mol
# Density = 2.318383 g / cm^3
# Si number density = 23.236715 Si / 1000 Ang^3
#
#
#
# Elastic Constant Matrix: (Units=GPa)
#
#
# Indices 1 2 3 4 5 6 
#
# 1 72.4778 3.0450 36.3124 0.0000 0.0000 0.0000
# 2 3.0450 72.4778 36.3124 0.0000 0.0000 0.0000
# 3 36.3124 36.3124 186.9046 0.0000 0.0000 0.0000
# 4 0.0000 0.0000 0.0000 27.9530 0.0000 0.0000
# 5 0.0000 0.0000 0.0000 0.0000 27.9530 0.0000
# 6 0.0000 0.0000 0.0000 0.0000 0.0000 -0.2644
#
#
#
# Elastic Compliance Matrix: (Units=1/GPa)
#
#
# Indices 1 2 3 4 5 6 
#
# 1 0.015343 0.000940 -0.003164 0.000000 0.000000 0.000000
# 2 0.000940 0.015343 -0.003164 0.000000 0.000000 0.000000
# 3 -0.003164 -0.003164 0.006580 0.000000 0.000000 0.000000
# 4 0.000000 0.000000 0.000000 0.035774 0.000000 0.000000
# 5 0.000000 0.000000 0.000000 0.000000 0.035774 0.000000
# 6 0.000000 0.000000 0.000000 0.000000 0.000000 -3.782524
#
#
# Mechanical properties :
#
#
# Convention : Reuss Voigt Hill
#
# Bulk Modulus (GPa) = 37.74758 53.68885 45.71821
# Shear Modulus (GPa) = -1.36832 28.20767 13.41967
#
# Velocity S-wave (km/s) = -0.76821 3.48793 2.40577
# Velocity P-wave (km/s) = 3.93614 6.27504 5.23781
#
# Compressibility (1/GPa) = 0.02649176
#
# Stress axis : x y z
#
# Youngs Moduli (GPa) = 65.17713 65.17713 151.98572
#
# Poissons Ratio (x) = -0.06129 0.48081
# Poissons Ratio (y) = -0.06129 0.48081
# Poissons Ratio (z) = 0.20619 0.20619
#
# Static dielectric constant tensor:
#      x y z
#    x 1.873000 0.000000 0.000000 
#    y 0.000000 1.873000 0.000000 
#    z 0.000000 0.000000 1.938250 
# 
# From -- ./inp_files/17059.got.cif
#   From: 2010.05.17/outbox.cif.g08.bks.cpg/sg91_9_cif.got.tgz:17059.got - 2010.06.03 19:20:03.
