data_PCOD9548332
_publ_section_title
;
Structure prediction by ZEFSAII (Michael W. Deem and Ramdas Pophale) SiO2 
 PCOD9548332
Probable space group: P 41 2 2
;
_chemical_formula_sum "Si O2"
_cell_formula_units_Z 40
_cell_length_a 18.071315
_cell_length_b 18.071315
_cell_length_c 4.902570
_cell_angle_alpha 90.000000
_cell_angle_beta 90.000000
_cell_angle_gamma 90.000000
_cell_volume 1601.044178
_symmetry_space_group_name_H-M "P 41 2 2"
_symmetry_group_IT_number 91
_symmetry_cell_setting 'tetragonal'
loop_
_space_group_symop_operation_xyz
x,y,z
-y,x,1/4+z
-x,-y,1/2+z
y,-x,3/4+z
x,-y,1/2-z
-x,y,-z
y,x,3/4-z
-y,-x,1/4-z
loop_
_atom_site_type_symbol
_atom_site_label
_atom_site_fract_x
_atom_site_fract_y
_atom_site_fract_z
Si Si1 0.500000 0.112449 0.000000
Si Si2 0.000000 0.114084 0.500000
Si Si3 0.000000 0.380563 0.000000
Si Si4 0.419601 0.580400 0.625000
Si Si5 0.867169 0.287947 0.817024
Si Si6 0.644897 0.644897 0.875000
Si Si7 0.199498 0.637745 0.834218
Si Si8 0.135143 0.864858 0.625000
O O1 0.556766 0.166231 0.843527
O O2 0.438434 0.057839 0.877350
O O3 0.054265 0.148533 0.729745
O O4 0.939705 0.060296 0.625000
O O5 0.051811 0.325404 0.170044
O O6 0.410406 0.500000 0.750000
O O7 0.364286 0.586736 0.369225
O O8 0.842218 0.300230 0.509957
O O9 0.814944 0.337326 0.021976
O O10 0.862379 0.204014 0.915802
O O11 0.639319 0.718743 0.697799
#
# Coordination Sequence:
#
# PCOD9548332 Si02
#       8
#     4   4   4   4   8   4   8   4
#     4  10  22  44  74 108 158 190 260 310 394 462
#     4  12  26  49  69 106 142 200 266 336 404 463
#     4  10  22  41  69 104 140 198 240 314 376 465
#     4  12  27  51  72 112 144 196 247 313 364 446
#     4  11  26  45  73 107 153 198 256 314 401 463
#     4  12  25  46  80 105 157 194 260 301 386 458
#     4  11  25  47  72 114 151 201 247 318 386 478
#     4  12  28  45  78 103 155 202 273 338 400 492
#
# _framework density 24.983696999999999
#
# number of rings (size 3 to 8) (size 9 to 14) (size 15 to 20)
#    0.000    0.800    1.000    4.800    7.000    4.800 
#    7.200    0.000    0.000    0.000    0.000    0.000 
#    0.000    0.000    0.000    0.000    0.000    0.000 
#
# Total GULP energy -223512.367373 kJ/mol
# GULP energy per Si atom -5587.809184 kJ/mol
# Density = 2.492683 g / cm^3
# Si number density = 24.983697 Si / 1000 Ang^3
#
#
#
# Elastic Constant Matrix: (Units=GPa)
#
#
# Indices 1 2 3 4 5 6 
#
# 1 87.2538 98.6006 23.8971 0.0000 0.0000 0.0000
# 2 98.6006 87.2551 23.8974 0.0000 0.0000 0.0000
# 3 23.8971 23.8974 75.9893 0.0000 0.0000 0.0000
# 4 0.0000 0.0000 0.0000 13.5474 0.0000 0.0000
# 5 0.0000 0.0000 0.0000 0.0000 13.5271 0.0000
# 6 0.0000 0.0000 0.0000 0.0000 0.0000 2.3752
#
#
#
# Elastic Compliance Matrix: (Units=1/GPa)
#
#
# Indices 1 2 3 4 5 6 
#
# 1 -0.041141 0.046995 -0.001841 0.000000 0.000000 0.000000
# 2 0.046995 -0.041140 -0.001841 0.000000 0.000000 0.000000
# 3 -0.001841 -0.001841 0.014318 0.000000 0.000000 0.000000
# 4 0.000000 0.000000 0.000000 0.073815 0.000000 0.000000
# 5 0.000000 0.000000 0.000000 0.000000 0.073925 0.000000
# 6 0.000000 0.000000 0.000000 0.000000 0.000000 0.421024
#
#
# Mechanical properties :
#
#
# Convention : Reuss Voigt Hill
#
# Bulk Modulus (GPa) = 53.58564 60.36537 56.97551
# Shear Modulus (GPa) = 11.89356 12.83015 12.36185
#
# Velocity S-wave (km/s) = 2.18423 2.26860 2.22682
# Velocity P-wave (km/s) = 5.27787 5.57462 5.42828
#
# Compressibility (1/GPa) = 0.01866171
#
# Stress axis : x y z
#
# Youngs Moduli (GPa) = -24.30667 -24.30702 69.84389
#
# Poissons Ratio (x) = 1.14230 0.12858
# Poissons Ratio (y) = 1.14228 0.12858
# Poissons Ratio (z) = -0.04475 -0.04475
#
# Static dielectric constant tensor:
#      x y z
#    x 2.029520 0.000000 0.000000 
#    y 0.000000 2.029540 0.000000 
#    z 0.000000 0.000000 1.567830 
# 
# From -- ./inp_files/14155.got.cif
#   From: 2010.05.17/outbox.cif.g08.bks.cpg/sg91_8_cif.got.tgz:14155.got - 2010.06.03 19:20:03.
