data_PCOD9548613
_publ_section_title
;
Structure prediction by ZEFSAII (Michael W. Deem and Ramdas Pophale) SiO2 
 PCOD9548613
Probable space group: P 41 2 2
;
_chemical_formula_sum "Si O2"
_cell_formula_units_Z 56
_cell_length_a 14.208462
_cell_length_b 14.208462
_cell_length_c 12.439324
_cell_angle_alpha 90.000000
_cell_angle_beta 90.000000
_cell_angle_gamma 90.000000
_cell_volume 2511.255610
_symmetry_space_group_name_H-M "P 41 2 2"
_symmetry_group_IT_number 91
_symmetry_cell_setting 'tetragonal'
loop_
_space_group_symop_operation_xyz
x,y,z
-y,x,1/4+z
-x,-y,1/2+z
y,-x,3/4+z
x,-y,1/2-z
-x,y,-z
y,x,3/4-z
-y,-x,1/4-z
loop_
_atom_site_type_symbol
_atom_site_label
_atom_site_fract_x
_atom_site_fract_y
_atom_site_fract_z
Si Si1 0.182793 0.029287 0.373611
Si Si2 0.662908 0.254234 0.388013
Si Si3 0.142647 0.275747 0.699844
Si Si4 0.902255 0.442297 0.446046
Si Si5 0.812078 0.658932 0.856638
Si Si6 0.475604 0.620106 0.380839
Si Si7 0.215193 0.610527 0.594586
O O1 0.083295 0.083295 0.375000
O O2 0.262873 0.106127 0.400117
O O3 0.199683 0.000000 0.250000
O O4 0.195752 0.937759 0.450678
O O5 0.776677 0.251037 0.387201
O O6 0.616934 0.201984 0.488209
O O7 0.635921 0.366022 0.391646
O O8 0.645896 0.200604 0.276018
O O9 0.089204 0.361206 0.641926
O O10 0.196653 0.315198 0.807613
O O11 0.835226 0.409307 0.544769
O O12 0.858210 0.529062 0.384855
O O13 0.000000 0.465166 0.500000
O O14 0.714305 0.714305 0.875000
O O15 0.500000 0.654135 0.500000
O O16 0.512486 0.512486 0.375000
O O17 0.553614 0.685738 0.323826
#
# Coordination Sequence:
#
# PCOD9548613 Si02
#       7
#     8   8   8   8   8   8   8
#     4  11  22  43  75 110 136 182 232 289 365 438
#     4  12  25  42  68 103 139 191 249 293 362 433
#     4  12  20  43  72  95 132 187 231 286 356 437
#     4  12  23  43  67  99 134 178 241 293 359 422
#     4  11  20  41  68  96 134 175 235 296 351 423
#     4  12  21  43  68  95 142 193 248 300 352 424
#     4  12  25  41  66 101 138 193 241 287 356 427
#
# _framework density 22.299603000000001
#
# number of rings (size 3 to 8) (size 9 to 14) (size 15 to 20)
#    0.000    0.286    8.571    1.714    0.000    1.714 
#    5.143    1.429    0.000    0.000    0.000    0.000 
#    0.000    0.000    0.000    0.000    0.000    0.000 
#
# Total GULP energy -312222.215404 kJ/mol
# GULP energy per Si atom -5575.396704 kJ/mol
# Density = 2.224885 g / cm^3
# Si number density = 22.299603 Si / 1000 Ang^3
#
#
#
# Elastic Constant Matrix: (Units=GPa)
#
#
# Indices 1 2 3 4 5 6 
#
# 1 44.1667 69.4458 20.4099 0.0000 0.0000 0.0000
# 2 69.4458 44.1667 20.4099 0.0000 0.0000 0.0000
# 3 20.4099 20.4099 123.4656 0.0000 0.0000 0.0000
# 4 0.0000 0.0000 0.0000 23.3096 0.0000 0.0000
# 5 0.0000 0.0000 0.0000 0.0000 23.3096 0.0000
# 6 0.0000 0.0000 0.0000 0.0000 0.0000 36.8618
#
#
#
# Elastic Compliance Matrix: (Units=1/GPa)
#
#
# Indices 1 2 3 4 5 6 
#
# 1 -0.015100 0.024458 -0.001547 0.000000 0.000000 0.000000
# 2 0.024458 -0.015100 -0.001547 0.000000 0.000000 0.000000
# 3 -0.001547 -0.001547 0.008611 0.000000 0.000000 0.000000
# 4 0.000000 0.000000 0.000000 0.042901 0.000000 0.000000
# 5 0.000000 0.000000 0.000000 0.000000 0.042901 0.000000
# 6 0.000000 0.000000 0.000000 0.000000 0.000000 0.027128
#
#
# Mechanical properties :
#
#
# Convention : Reuss Voigt Hill
#
# Bulk Modulus (GPa) = 47.30696 48.03668 47.67182
# Shear Modulus (GPa) = 89.83529 23.46513 56.65021
#
# Velocity S-wave (km/s) = 6.35398 3.24739 5.04572
# Velocity P-wave (km/s) = 8.66551 5.97067 7.44110
#
# Compressibility (1/GPa) = 0.02113854
#
# Stress axis : x y z
#
# Youngs Moduli (GPa) = -66.22336 -66.22336 116.13259
#
# Poissons Ratio (x) = 1.61969 0.17964
# Poissons Ratio (y) = 1.61969 0.17964
# Poissons Ratio (z) = -0.10244 -0.10244
#
# Static dielectric constant tensor:
#      x y z
#    x 1.889250 0.000000 0.000000 
#    y 0.000000 1.889250 0.000000 
#    z 0.000000 0.000000 1.957060 
# 
# From -- ./inp_files/20317.got.cif
#   From: 2010.05.17/outbox.cif.g08.bks.cpg/sg91_11_cif.got.tgz:20317.got - 2010.06.03 19:20:03.
