data_PCOD9548192
_publ_section_title
;
Structure prediction by ZEFSAII (Michael W. Deem and Ramdas Pophale) SiO2 
 PCOD9548192
Probable space group: P 41 2 2
;
_chemical_formula_sum "Si O2"
_cell_formula_units_Z 48
_cell_length_a 9.150544
_cell_length_b 9.150544
_cell_length_c 26.516682
_cell_angle_alpha 90.000000
_cell_angle_beta 90.000000
_cell_angle_gamma 90.000000
_cell_volume 2220.306895
_symmetry_space_group_name_H-M "P 41 2 2"
_symmetry_group_IT_number 91
_symmetry_cell_setting 'tetragonal'
loop_
_space_group_symop_operation_xyz
x,y,z
-y,x,1/4+z
-x,-y,1/2+z
y,-x,3/4+z
x,-y,1/2-z
-x,y,-z
y,x,3/4-z
-y,-x,1/4-z
loop_
_atom_site_type_symbol
_atom_site_label
_atom_site_fract_x
_atom_site_fract_y
_atom_site_fract_z
Si Si1 0.184021 0.562817 0.630301
Si Si2 0.705968 0.117177 0.016920
Si Si3 0.104344 0.416259 0.406545
Si Si4 0.693930 0.718814 0.173363
Si Si5 0.992132 0.884780 0.425471
Si Si6 0.787381 0.130452 0.555887
O O1 0.311692 0.688309 0.625000
O O2 0.111108 0.607754 0.683672
O O3 0.265580 0.409653 0.635962
O O4 0.046839 0.513106 0.593983
O O5 0.872512 0.154848 0.033226
O O6 0.666888 0.246698 0.978110
O O7 0.711845 0.959873 0.989369
O O8 0.234162 0.530443 0.413912
O O9 0.111464 0.322858 0.353937
O O10 0.148984 0.293352 0.447820
O O11 0.785265 0.867966 0.165962
O O12 0.063898 0.040261 0.435484
O O13 0.899966 0.899966 0.375000
#
# Coordination Sequence:
#
# PCOD9548192 Si02
#       6
#     8   8   8   8   8   8
#     4  12  25  43  69 103 141 192 232 280 364 437
#     4  11  23  42  70  99 136 179 239 293 341 420
#     4  11  22  42  68  94 134 184 226 288 358 414
#     4  11  23  39  64  96 140 176 222 291 338 425
#     4  11  19  41  68 101 130 177 231 292 339 405
#     4  10  21  41  71  95 131 177 227 298 352 390
#
# _framework density 21.618634
#
# number of rings (size 3 to 8) (size 9 to 14) (size 15 to 20)
#    0.000    1.000    5.000    5.000    2.333    0.000 
#    0.000   10.000    7.333    0.000    0.000    0.000 
#    0.000    0.000    0.000    0.000    0.000    0.000 
#
# Total GULP energy -267263.475176 kJ/mol
# GULP energy per Si atom -5567.989066 kJ/mol
# Density = 2.156943 g / cm^3
# Si number density = 21.618634 Si / 1000 Ang^3
#
#
#
# Elastic Constant Matrix: (Units=GPa)
#
#
# Indices 1 2 3 4 5 6 
#
# 1 76.4100 102.1680 15.5447 0.0000 0.0000 0.0000
# 2 102.1680 76.4112 15.5456 0.0000 0.0000 0.0000
# 3 15.5447 15.5456 43.7285 0.0000 0.0000 0.0000
# 4 0.0000 0.0000 0.0000 18.7059 0.0000 0.0000
# 5 0.0000 0.0000 0.0000 0.0000 18.7058 0.0000
# 6 0.0000 0.0000 0.0000 0.0000 0.0000 38.4525
#
#
#
# Elastic Compliance Matrix: (Units=1/GPa)
#
#
# Indices 1 2 3 4 5 6 
#
# 1 -0.016427 0.022396 -0.002122 0.000000 0.000000 0.000000
# 2 0.022396 -0.016427 -0.002122 0.000000 0.000000 0.000000
# 3 -0.002122 -0.002122 0.024377 0.000000 0.000000 0.000000
# 4 0.000000 0.000000 0.000000 0.053459 0.000000 0.000000
# 5 0.000000 0.000000 0.000000 0.000000 0.053459 0.000000
# 6 0.000000 0.000000 0.000000 0.000000 0.000000 0.026006
#
#
# Mechanical properties :
#
#
# Convention : Reuss Voigt Hill
#
# Bulk Modulus (GPa) = 35.93571 51.45183 43.69377
# Shear Modulus (GPa) = 51.32534 19.39228 35.35881
#
# Velocity S-wave (km/s) = 4.87779 2.99827 4.04861
# Velocity P-wave (km/s) = 6.95574 5.98645 6.48922
#
# Compressibility (1/GPa) = 0.02782748
#
# Stress axis : x y z
#
# Youngs Moduli (GPa) = -60.87415 -60.87470 41.02213
#
# Poissons Ratio (x) = 1.36338 0.08706
# Poissons Ratio (y) = 1.36337 0.08703
# Poissons Ratio (z) = -0.12920 -0.12915
#
# Static dielectric constant tensor:
#      x y z
#    x 1.825060 0.000000 0.000000 
#    y 0.000000 1.825060 0.000000 
#    z 0.000000 0.000000 1.943150 
# 
# From -- ./inp_files/22267.got.cif
#   From: 2010.05.17/outbox.cif.g08.bks.cpg/sg91_12_cif.got.tgz:22267.got - 2010.06.03 19:20:03.
