data_PCOD9548361
_publ_section_title
;
Structure prediction by ZEFSAII (Michael W. Deem and Ramdas Pophale) SiO2 
 PCOD9548361
Probable space group: P 41 2 2
;
_chemical_formula_sum "Si O2"
_cell_formula_units_Z 48
_cell_length_a 8.031919
_cell_length_b 8.031919
_cell_length_c 32.485150
_cell_angle_alpha 90.000000
_cell_angle_beta 90.000000
_cell_angle_gamma 90.000000
_cell_volume 2095.672993
_symmetry_space_group_name_H-M "P 41 2 2"
_symmetry_group_IT_number 91
_symmetry_cell_setting 'tetragonal'
loop_
_space_group_symop_operation_xyz
x,y,z
-y,x,1/4+z
-x,-y,1/2+z
y,-x,3/4+z
x,-y,1/2-z
-x,y,-z
y,x,3/4-z
-y,-x,1/4-z
loop_
_atom_site_type_symbol
_atom_site_label
_atom_site_fract_x
_atom_site_fract_y
_atom_site_fract_z
Si Si1 0.486554 0.523222 0.797471
Si Si2 0.753303 0.782267 0.324729
Si Si3 0.031873 0.391219 0.713565
Si Si4 0.102976 0.167578 0.225202
Si Si5 0.614739 0.795729 0.087881
Si Si6 0.848710 0.311565 0.931919
O O1 0.530406 0.500000 0.750000
O O2 0.344512 0.386956 0.811912
O O3 0.634948 0.493541 0.829231
O O4 0.437250 0.716389 0.799455
O O5 0.779138 0.779138 0.375000
O O6 0.925904 0.813300 0.299198
O O7 0.662314 0.955220 0.311819
O O8 0.120068 0.500000 0.750000
O O9 0.138702 0.234990 0.697692
O O10 0.886009 0.310098 0.740357
O O11 0.953591 0.505670 0.678302
O O12 0.229540 0.220583 0.190091
O O13 0.119572 0.000000 0.250000
O O14 0.674419 0.822543 0.133378
#
# Coordination Sequence:
#
# PCOD9548361 Si02
#       6
#     8   8   8   8   8   8
#     4  12  27  47  71 104 149 191 241 301 372 446
#     4  12  25  46  73 109 140 184 249 304 361 437
#     4  10  22  42  71  94 133 185 231 287 364 424
#     4  11  21  42  68  98 135 181 235 288 353 432
#     4  11  25  45  67  99 145 186 229 302 371 431
#     4  12  24  44  74 105 135 189 243 301 360 433
#
# _framework density 22.904337999999999
#
# number of rings (size 3 to 8) (size 9 to 14) (size 15 to 20)
#    0.000    0.667    3.333    6.500    2.333    0.000 
#    6.000    3.333    0.000    0.000    0.000    0.000 
#    0.000    0.000    0.000    0.000    0.000    0.000 
#
# Total GULP energy -267743.488183 kJ/mol
# GULP energy per Si atom -5577.989337 kJ/mol
# Density = 2.285221 g / cm^3
# Si number density = 22.904338 Si / 1000 Ang^3
#
#
#
# Elastic Constant Matrix: (Units=GPa)
#
#
# Indices 1 2 3 4 5 6 
#
# 1 72.8587 4.4756 -2.5140 0.0000 0.0000 0.0000
# 2 4.4756 72.8587 -2.5140 0.0000 0.0000 0.0000
# 3 -2.5140 -2.5140 98.8757 0.0000 0.0000 0.0000
# 4 0.0000 0.0000 0.0000 29.5917 0.0000 0.0000
# 5 0.0000 0.0000 0.0000 0.0000 29.5917 0.0000
# 6 0.0000 0.0000 0.0000 0.0000 0.0000 21.3978
#
#
#
# Elastic Compliance Matrix: (Units=1/GPa)
#
#
# Indices 1 2 3 4 5 6 
#
# 1 0.013788 -0.000836 0.000329 0.000000 0.000000 0.000000
# 2 -0.000836 0.013788 0.000329 0.000000 0.000000 0.000000
# 3 0.000329 0.000329 0.010130 0.000000 0.000000 0.000000
# 4 0.000000 0.000000 0.000000 0.033793 0.000000 0.000000
# 5 0.000000 0.000000 0.000000 0.000000 0.033793 0.000000
# 6 0.000000 0.000000 0.000000 0.000000 0.000000 0.046734
#
#
# Mechanical properties :
#
#
# Convention : Reuss Voigt Hill
#
# Bulk Modulus (GPa) = 26.77210 27.05425 26.91318
# Shear Modulus (GPa) = 30.33403 32.45925 31.39664
#
# Velocity S-wave (km/s) = 3.64315 3.76861 3.70641
# Velocity P-wave (km/s) = 5.42317 5.54744 5.48565
#
# Compressibility (1/GPa) = 0.03735232
#
# Stress axis : x y z
#
# Youngs Moduli (GPa) = 72.52737 72.52737 98.71226
#
# Poissons Ratio (x) = 0.06060 -0.03251
# Poissons Ratio (y) = 0.06060 -0.03251
# Poissons Ratio (z) = -0.02388 -0.02388
#
# Static dielectric constant tensor:
#      x y z
#    x 1.990990 0.000000 0.000000 
#    y 0.000000 1.990990 0.000000 
#    z 0.000000 0.000000 1.987430 
# 
# From -- ./inp_files/18146.got.cif
#   From: 2010.05.17/outbox.cif.g08.bks.cpg/sg91_10_cif.got.tgz:18146.got - 2010.06.03 19:20:03.
