data_PCOD9548339
_publ_section_title
;
Structure prediction by ZEFSAII (Michael W. Deem and Ramdas Pophale) SiO2 
 PCOD9548339
Probable space group: P 41 2 2
;
_chemical_formula_sum "Si O2"
_cell_formula_units_Z 56
_cell_length_a 15.427314
_cell_length_b 15.427314
_cell_length_c 12.656309
_cell_angle_alpha 90.000000
_cell_angle_beta 90.000000
_cell_angle_gamma 90.000000
_cell_volume 3012.227073
_symmetry_space_group_name_H-M "P 41 2 2"
_symmetry_group_IT_number 91
_symmetry_cell_setting 'tetragonal'
loop_
_space_group_symop_operation_xyz
x,y,z
-y,x,1/4+z
-x,-y,1/2+z
y,-x,3/4+z
x,-y,1/2-z
-x,y,-z
y,x,3/4-z
-y,-x,1/4-z
loop_
_atom_site_type_symbol
_atom_site_label
_atom_site_fract_x
_atom_site_fract_y
_atom_site_fract_z
Si Si1 0.857897 0.500000 0.250000
Si Si2 0.165209 0.128656 0.575734
Si Si3 0.047043 0.776675 0.771006
Si Si4 0.765358 0.234643 0.625000
Si Si5 0.806465 0.669368 0.351150
Si Si6 0.828476 0.411674 0.726537
Si Si7 0.096676 0.664269 0.446397
Si Si8 0.404561 0.999262 0.372328
O O1 0.804379 0.586242 0.275495
O O2 0.924078 0.530259 0.157945
O O3 0.082059 0.164994 0.634288
O O4 0.185892 0.194881 0.478696
O O5 0.236870 0.122876 0.669307
O O6 0.171112 0.030777 0.533147
O O7 0.123613 0.739733 0.694872
O O8 0.010225 0.686663 0.817431
O O9 0.782297 0.333936 0.662001
O O10 0.718269 0.718269 0.375000
O O11 0.841947 0.632893 0.461032
O O12 0.776267 0.500000 0.750000
O O13 0.875047 0.377222 0.834266
O O14 0.908173 0.441114 0.653735
O O15 0.000000 0.657728 0.500000
O O16 0.387698 0.000000 0.250000
#
# Coordination Sequence:
#
# PCOD9548339 Si02
#       8
#     4   8   8   4   8   8   8   8
#     4  10  24  36  56  98 120 154 208 254 312 386
#     4  11  22  38  63  80 119 173 214 258 309 369
#     4  11  22  39  60  84 118 169 218 255 310 363
#     4  10  22  42  60  86 128 162 206 258 328 394
#     4  11  22  39  61  86 126 159 201 262 321 376
#     4  11  23  38  60  92 120 161 204 253 323 382
#     4  11  20  37  60  85 122 160 201 254 306 365
#     4  11  21  36  59  87 124 157 200 259 314 362
#
# _framework density 18.590895
#
# number of rings (size 3 to 8) (size 9 to 14) (size 15 to 20)
#    0.000    1.143    6.429    1.714    2.000    0.000 
#    0.000    0.000   14.143    0.000    0.000    0.000 
#    8.571    0.000    0.000    0.000    0.000    0.000 
#
# Total GULP energy -311902.604202 kJ/mol
# GULP energy per Si atom -5569.689361 kJ/mol
# Density = 1.854858 g / cm^3
# Si number density = 18.590895 Si / 1000 Ang^3
#
#
#
# Elastic Constant Matrix: (Units=GPa)
#
#
# Indices 1 2 3 4 5 6 
#
# 1 80.8719 62.4048 26.2420 0.0000 0.0000 0.0000
# 2 62.4048 80.8722 26.2424 0.0000 0.0000 0.0000
# 3 26.2420 26.2424 80.0108 0.0000 0.0000 0.0000
# 4 0.0000 0.0000 0.0000 19.2199 0.0000 0.0000
# 5 0.0000 0.0000 0.0000 0.0000 19.2198 0.0000
# 6 0.0000 0.0000 0.0000 0.0000 0.0000 15.2306
#
#
#
# Elastic Compliance Matrix: (Units=1/GPa)
#
#
# Indices 1 2 3 4 5 6 
#
# 1 0.031041 -0.023109 -0.002602 0.000000 0.000000 0.000000
# 2 -0.023109 0.031041 -0.002602 0.000000 0.000000 0.000000
# 3 -0.002602 -0.002602 0.014205 0.000000 0.000000 0.000000
# 4 0.000000 0.000000 0.000000 0.052029 0.000000 0.000000
# 5 0.000000 0.000000 0.000000 0.000000 0.052030 0.000000
# 6 0.000000 0.000000 0.000000 0.000000 0.000000 0.065657
#
#
# Mechanical properties :
#
#
# Convention : Reuss Voigt Hill
#
# Bulk Modulus (GPa) = 50.85668 52.39259 51.62464
# Shear Modulus (GPa) = 16.17169 19.19177 17.68173
#
# Velocity S-wave (km/s) = 2.95256 3.21646 3.08733
# Velocity P-wave (km/s) = 6.24808 6.48361 6.36694
#
# Compressibility (1/GPa) = 0.01966310
#
# Stress axis : x y z
#
# Youngs Moduli (GPa) = 32.21529 32.21530 70.39785
#
# Poissons Ratio (x) = 0.74445 0.18315
# Poissons Ratio (y) = 0.74445 0.18317
# Poissons Ratio (z) = 0.08381 0.08382
#
# Static dielectric constant tensor:
#      x y z
#    x 1.680870 0.000000 0.000000 
#    y 0.000000 1.680870 0.000000 
#    z 0.000000 0.000000 1.692280 
# 
# From -- ./inp_files/10881.got.cif
#   From: 2010.05.17/outbox.cif.g08.bks.cpg/sg91_6_cif.got.tgz:10881.got - 2010.06.03 19:20:03.
