data_PCOD9548067
_publ_section_title
;
Structure prediction by ZEFSAII (Michael W. Deem and Ramdas Pophale) SiO2 
 PCOD9548067
Probable space group: P 41 2 2
;
_chemical_formula_sum "Si O2"
_cell_formula_units_Z 48
_cell_length_a 12.694830
_cell_length_b 12.694830
_cell_length_c 18.948599
_cell_angle_alpha 90.000000
_cell_angle_beta 90.000000
_cell_angle_gamma 90.000000
_cell_volume 3053.731747
_symmetry_space_group_name_H-M "P 41 2 2"
_symmetry_group_IT_number 91
_symmetry_cell_setting 'tetragonal'
loop_
_space_group_symop_operation_xyz
x,y,z
-y,x,1/4+z
-x,-y,1/2+z
y,-x,3/4+z
x,-y,1/2-z
-x,y,-z
y,x,3/4-z
-y,-x,1/4-z
loop_
_atom_site_type_symbol
_atom_site_label
_atom_site_fract_x
_atom_site_fract_y
_atom_site_fract_z
Si Si1 0.896024 0.712401 0.952013
Si Si2 0.923412 0.242805 0.706553
Si Si3 0.112251 0.136463 0.035603
Si Si4 0.817185 0.309242 0.075007
Si Si5 0.121172 0.479858 0.027840
Si Si6 0.948567 0.316253 0.859978
O O1 0.824309 0.815519 0.961303
O O2 0.923809 0.701891 0.869273
O O3 0.843534 0.600200 0.969407
O O4 0.000000 0.724787 0.000000
O O5 0.933474 0.313360 0.776463
O O6 0.026375 0.168900 0.704452
O O7 0.094783 0.206877 0.105607
O O8 0.170040 0.212400 0.979725
O O9 0.000000 0.115517 0.000000
O O10 0.721161 0.278840 0.125000
O O11 0.927758 0.317599 0.118004
O O12 0.811327 0.412888 0.027622
O O13 0.110158 0.411978 0.099818
O O14 0.000000 0.480682 0.000000
#
# Coordination Sequence:
#
# PCOD9548067 Si02
#       6
#     8   8   8   8   8   8
#     4  10  21  33  41  59  96 137 165 188 230 283
#     4  11  19  28  45  65  91 128 167 194 222 284
#     4   9  17  25  40  68 102 126 150 197 242 278
#     4   9  14  27  48  71  94 118 155 195 242 289
#     4   8  17  32  46  62  95 132 153 187 239 283
#     4   9  17  28  45  69  93 124 158 195 234 278
#
# _framework density 15.718474000000001
#
# number of rings (size 3 to 8) (size 9 to 14) (size 15 to 20)
#    0.000    2.667    1.667    3.500    0.000    2.000 
#    0.000    0.000    0.000    0.000    0.000    0.000 
#   15.000    0.000    0.000    0.000    0.000    0.000 
#
# Total GULP energy -267271.614739 kJ/mol
# GULP energy per Si atom -5568.158640 kJ/mol
# Density = 1.568270 g / cm^3
# Si number density = 15.718474 Si / 1000 Ang^3
#
#
#
# Elastic Constant Matrix: (Units=GPa)
#
#
# Indices 1 2 3 4 5 6 
#
# 1 63.0863 26.1825 21.9095 0.0000 0.0000 0.0000
# 2 26.1825 63.0857 21.9092 0.0000 0.0000 0.0000
# 3 21.9095 21.9092 105.9219 0.0000 0.0000 0.0000
# 4 0.0000 0.0000 0.0000 10.0208 0.0000 0.0000
# 5 0.0000 0.0000 0.0000 0.0000 10.0214 0.0000
# 6 0.0000 0.0000 0.0000 0.0000 0.0000 3.2753
#
#
#
# Elastic Compliance Matrix: (Units=1/GPa)
#
#
# Indices 1 2 3 4 5 6 
#
# 1 0.019783 -0.007315 -0.002579 0.000000 0.000000 0.000000
# 2 -0.007315 0.019783 -0.002579 0.000000 0.000000 0.000000
# 3 -0.002579 -0.002579 0.010508 0.000000 0.000000 0.000000
# 4 0.000000 0.000000 0.000000 0.099792 0.000000 0.000000
# 5 0.000000 0.000000 0.000000 0.000000 0.099786 0.000000
# 6 0.000000 0.000000 0.000000 0.000000 0.000000 0.305319
#
#
# Mechanical properties :
#
#
# Convention : Reuss Voigt Hill
#
# Bulk Modulus (GPa) = 39.79602 41.34404 40.57003
# Shear Modulus (GPa) = 8.49918 15.46970 11.98444
#
# Velocity S-wave (km/s) = 2.32785 3.14056 2.76423
# Velocity P-wave (km/s) = 5.70948 6.28576 6.00453
#
# Compressibility (1/GPa) = 0.02512814
#
# Stress axis : x y z
#
# Youngs Moduli (GPa) = 50.54901 50.54862 95.16740
#
# Poissons Ratio (x) = 0.36975 0.24543
# Poissons Ratio (y) = 0.36976 0.24543
# Poissons Ratio (z) = 0.13036 0.13036
#
# Static dielectric constant tensor:
#      x y z
#    x 1.520840 0.000000 0.000000 
#    y 0.000000 1.520840 0.000000 
#    z 0.000000 0.000000 1.560330 
# 
# From -- ./inp_files/5585.got.cif
#   From: 2010.05.17/outbox.cif.g08.bks.cpg/sg91_3_cif.got.tgz:5585.got - 2010.06.03 19:20:03.
