data_PCOD9548082
_publ_section_title
;
Structure prediction by ZEFSAII (Michael W. Deem and Ramdas Pophale) SiO2 
 PCOD9548082
Probable space group: P 41 2 2
;
_chemical_formula_sum "Si O2"
_cell_formula_units_Z 60
_cell_length_a 11.782438
_cell_length_b 11.782438
_cell_length_c 19.076997
_cell_angle_alpha 90.000000
_cell_angle_beta 90.000000
_cell_angle_gamma 90.000000
_cell_volume 2648.380233
_symmetry_space_group_name_H-M "P 41 2 2"
_symmetry_group_IT_number 91
_symmetry_cell_setting 'tetragonal'
loop_
_space_group_symop_operation_xyz
x,y,z
-y,x,1/4+z
-x,-y,1/2+z
y,-x,3/4+z
x,-y,1/2-z
-x,y,-z
y,x,3/4-z
-y,-x,1/4-z
loop_
_atom_site_type_symbol
_atom_site_label
_atom_site_fract_x
_atom_site_fract_y
_atom_site_fract_z
Si Si1 0.803577 0.759010 0.231934
Si Si2 0.160183 0.885334 0.235257
Si Si3 0.617388 0.604837 0.533539
Si Si4 0.951610 0.528893 0.331354
Si Si5 0.702637 0.480129 0.098075
Si Si6 0.878945 0.121056 0.125000
Si Si7 0.707375 0.973121 0.891239
Si Si8 0.248684 0.902154 0.886190
O O1 0.730540 0.647878 0.243357
O O2 0.836823 0.816403 0.304497
O O3 0.908048 0.733842 0.180730
O O4 0.721032 0.836146 0.184147
O O5 0.254752 0.053707 0.312372
O O6 0.176744 0.810425 0.305121
O O7 0.106691 0.788561 0.186706
O O8 0.084494 0.000000 0.250000
O O9 0.500000 0.565223 0.500000
O O10 0.701700 0.525068 0.487365
O O11 0.585839 0.633430 0.615065
O O12 0.933360 0.500000 0.250000
O O13 0.832494 0.526775 0.374023
O O14 0.033552 0.427628 0.356760
O O15 0.020119 0.647220 0.337955
O O16 0.629111 0.370890 0.125000
O O17 0.009861 0.149492 0.116467
#
# Coordination Sequence:
#
# PCOD9548082 Si02
#       8
#     8   8   8   8   8   4   8   8
#     4  12  24  41  62 103 140 187 228 297 366 436
#     4  11  23  42  65 102 137 194 245 285 354 445
#     4  10  22  37  66  99 137 178 230 299 364 437
#     4  12  22  42  68 106 141 198 237 295 374 438
#     4  10  21  35  64 104 140 180 233 299 366 438
#     4  12  26  38  64 100 148 190 222 302 374 428
#     4  11  24  40  70  98 141 193 250 283 354 451
#     4  12  27  40  67 102 152 189 239 298 365 442
#
# _framework density 22.655358
#
# number of rings (size 3 to 8) (size 9 to 14) (size 15 to 20)
#    0.000    0.800    5.333    2.400    9.333    0.000 
#    0.000    4.000    0.000    4.000   10.400    0.000 
#    0.000    0.000    0.000    0.000    0.000    0.000 
#
# Total GULP energy -334074.950354 kJ/mol
# GULP energy per Si atom -5567.915839 kJ/mol
# Density = 2.260379 g / cm^3
# Si number density = 22.655358 Si / 1000 Ang^3
#
#
#
# Elastic Constant Matrix: (Units=GPa)
#
#
# Indices 1 2 3 4 5 6 
#
# 1 74.9757 19.5402 43.8514 0.0000 0.0000 0.0000
# 2 19.5402 74.9751 43.8515 0.0000 0.0000 0.0000
# 3 43.8514 43.8515 152.6952 0.0000 0.0000 0.0000
# 4 0.0000 0.0000 0.0000 32.9526 0.0000 0.0000
# 5 0.0000 0.0000 0.0000 0.0000 32.9524 0.0000
# 6 0.0000 0.0000 0.0000 0.0000 0.0000 19.1464
#
#
#
# Elastic Compliance Matrix: (Units=1/GPa)
#
#
# Indices 1 2 3 4 5 6 
#
# 1 0.016231 -0.001808 -0.004142 0.000000 0.000000 0.000000
# 2 -0.001808 0.016232 -0.004142 0.000000 0.000000 0.000000
# 3 -0.004142 -0.004142 0.008928 0.000000 0.000000 0.000000
# 4 0.000000 0.000000 0.000000 0.030347 0.000000 0.000000
# 5 0.000000 0.000000 0.000000 0.000000 0.030347 0.000000
# 6 0.000000 0.000000 0.000000 0.000000 0.000000 0.052229
#
#
# Mechanical properties :
#
#
# Convention : Reuss Voigt Hill
#
# Bulk Modulus (GPa) = 47.15443 57.45915 52.30679
# Shear Modulus (GPa) = 27.53800 30.03713 28.78756
#
# Velocity S-wave (km/s) = 3.49021 3.64514 3.56852
# Velocity P-wave (km/s) = 6.09107 6.56760 6.33382
#
# Compressibility (1/GPa) = 0.02120692
#
# Stress axis : x y z
#
# Youngs Moduli (GPa) = 61.60872 61.60809 112.00455
#
# Poissons Ratio (x) = 0.11136 0.46396
# Poissons Ratio (y) = 0.11136 0.46396
# Poissons Ratio (z) = 0.25520 0.25520
#
# Static dielectric constant tensor:
#      x y z
#    x 1.921770 0.000000 0.000000 
#    y 0.000000 1.921770 0.000000 
#    z 0.000000 0.000000 1.948850 
# 
# From -- ./inp_files/21588.got.cif
#   From: 2010.05.17/outbox.cif.g08.bks.cpg/sg91_11_cif.got.tgz:21588.got - 2010.06.03 19:20:03.
