data_PCOD9548745
_publ_section_title
;
Structure prediction by ZEFSAII (Michael W. Deem and Ramdas Pophale) SiO2 
 PCOD9548745
Probable space group: P 41 2 2
;
_chemical_formula_sum "Si O2"
_cell_formula_units_Z 24
_cell_length_a 9.277401
_cell_length_b 9.277401
_cell_length_c 11.514329
_cell_angle_alpha 90.000000
_cell_angle_beta 90.000000
_cell_angle_gamma 90.000000
_cell_volume 991.040247
_symmetry_space_group_name_H-M "P 41 2 2"
_symmetry_group_IT_number 91
_symmetry_cell_setting 'tetragonal'
loop_
_space_group_symop_operation_xyz
x,y,z
-y,x,1/4+z
-x,-y,1/2+z
y,-x,3/4+z
x,-y,1/2-z
-x,y,-z
y,x,3/4-z
-y,-x,1/4-z
loop_
_atom_site_type_symbol
_atom_site_label
_atom_site_fract_x
_atom_site_fract_y
_atom_site_fract_z
Si Si1 0.712723 0.926776 0.427733
Si Si2 0.409768 0.198911 0.138980
Si Si3 0.447138 0.210691 0.630480
O O1 0.855335 0.855335 0.375000
O O2 0.689834 0.915166 0.567688
O O3 0.576016 0.829127 0.390831
O O4 0.669017 0.079698 0.373282
O O5 0.353090 0.353932 0.099707
O O6 0.423786 0.810360 0.221596
O O7 0.500000 0.215700 0.500000
#
# Coordination Sequence:
#
# PCOD9548745 Si02
#       3
#     8   8   8
#     4  11  24  43  75  98 135 189 228 284 350 428
#     4  11  24  42  69  98 139 177 231 286 348 411
#     4  12  25  44  70 103 141 181 235 293 355 411
#
# _framework density 24.216978999999998
#
# number of rings (size 3 to 8) (size 9 to 14) (size 15 to 20)
#    0.000    0.667    6.667    2.000    0.000    2.667 
#    0.000    0.000   14.667    0.000    0.000    0.000 
#    0.000    0.000    0.000    0.000    0.000    0.000 
#
# Total GULP energy -133971.389369 kJ/mol
# GULP energy per Si atom -5582.141224 kJ/mol
# Density = 2.416186 g / cm^3
# Si number density = 24.216979 Si / 1000 Ang^3
#
#
#
# Elastic Constant Matrix: (Units=GPa)
#
#
# Indices 1 2 3 4 5 6 
#
# 1 42.5252 57.9432 7.2811 0.0000 0.0000 0.0000
# 2 57.9432 42.5252 7.2811 0.0000 0.0000 0.0000
# 3 7.2811 7.2811 155.1893 0.0000 0.0000 0.0000
# 4 0.0000 0.0000 0.0000 22.9313 0.0000 0.0000
# 5 0.0000 0.0000 0.0000 0.0000 22.9313 0.0000
# 6 0.0000 0.0000 0.0000 0.0000 0.0000 31.6846
#
#
#
# Elastic Compliance Matrix: (Units=1/GPa)
#
#
# Indices 1 2 3 4 5 6 
#
# 1 -0.027419 0.037440 -0.000470 0.000000 0.000000 0.000000
# 2 0.037440 -0.027419 -0.000470 0.000000 0.000000 0.000000
# 3 -0.000470 -0.000470 0.006488 0.000000 0.000000 0.000000
# 4 0.000000 0.000000 0.000000 0.043608 0.000000 0.000000
# 5 0.000000 0.000000 0.000000 0.000000 0.043608 0.000000
# 6 0.000000 0.000000 0.000000 0.000000 0.000000 0.031561
#
#
# Mechanical properties :
#
#
# Convention : Reuss Voigt Hill
#
# Bulk Modulus (GPa) = 40.56765 42.80561 41.68663
# Shear Modulus (GPa) = 885.83277 26.69176 456.26226
#
# Velocity S-wave (km/s) = 19.14638 3.32353 13.74100
# Velocity P-wave (km/s) = 22.48481 5.69579 16.40135
#
# Compressibility (1/GPa) = 0.02465018
#
# Stress axis : x y z
#
# Youngs Moduli (GPa) = -36.47112 -36.47112 154.13401
#
# Poissons Ratio (x) = 1.36550 0.07247
# Poissons Ratio (y) = 1.36550 0.07247
# Poissons Ratio (z) = -0.01715 -0.01715
#
# Static dielectric constant tensor:
#      x y z
#    x 1.932610 0.000000 0.000000 
#    y 0.000000 1.932610 0.000000 
#    z 0.000000 0.000000 2.233370 
# 
# From -- ./inp_files/5178.got.cif
#   From: 2010.05.17/outbox.cif.g08.bks.cpg/sg91_3_cif.got.tgz:5178.got - 2010.06.03 19:20:03.
