data_PCOD9548283
_publ_section_title
;
Structure prediction by ZEFSAII (Michael W. Deem and Ramdas Pophale) SiO2 
 PCOD9548283
Probable space group: P 41 2 2
;
_chemical_formula_sum "Si O2"
_cell_formula_units_Z 32
_cell_length_a 9.018297
_cell_length_b 9.018297
_cell_length_c 17.391489
_cell_angle_alpha 90.000000
_cell_angle_beta 90.000000
_cell_angle_gamma 90.000000
_cell_volume 1414.444249
_symmetry_space_group_name_H-M "P 41 2 2"
_symmetry_group_IT_number 91
_symmetry_cell_setting 'tetragonal'
loop_
_space_group_symop_operation_xyz
x,y,z
-y,x,1/4+z
-x,-y,1/2+z
y,-x,3/4+z
x,-y,1/2-z
-x,y,-z
y,x,3/4-z
-y,-x,1/4-z
loop_
_atom_site_type_symbol
_atom_site_label
_atom_site_fract_x
_atom_site_fract_y
_atom_site_fract_z
Si Si1 0.026108 0.403702 0.408616
Si Si2 0.409028 0.751282 0.921600
Si Si3 0.472914 0.260180 0.909346
Si Si4 0.091581 0.093187 0.577982
O O1 0.910078 0.503724 0.362321
O O2 0.989502 0.236273 0.382885
O O3 0.000000 0.409286 0.500000
O O4 0.182905 0.473369 0.388939
O O5 0.346863 0.598448 0.888922
O O6 0.261825 0.855459 0.931439
O O7 0.500000 0.736661 0.000000
O O8 0.320629 0.320629 0.875000
O O9 0.500000 0.282848 0.000000
O O10 0.000000 0.075165 0.500000
O O11 0.054836 0.945164 0.625000
#
# Coordination Sequence:
#
# PCOD9548283 Si02
#       4
#     8   8   8   8
#     4  10  22  40  61  90 127 169 214 266 329 397
#     4  11  23  40  64  92 126 171 218 267 325 395
#     4  11  23  39  61  92 127 167 216 272 327 388
#     4  10  22  39  62  92 126 165 211 263 320 384
#
# _framework density 22.623728
#
# number of rings (size 3 to 8) (size 9 to 14) (size 15 to 20)
#    0.000    1.500    0.000    4.500    0.000    9.000 
#    0.000    0.000    0.000    0.000    0.000    0.000 
#    0.000    0.000    0.000    0.000    0.000    0.000 
#
# Total GULP energy -178888.679740 kJ/mol
# GULP energy per Si atom -5590.271242 kJ/mol
# Density = 2.257224 g / cm^3
# Si number density = 22.623728 Si / 1000 Ang^3
#
#
#
# Elastic Constant Matrix: (Units=GPa)
#
#
# Indices 1 2 3 4 5 6 
#
# 1 58.6821 51.5029 16.8154 0.0000 0.0000 0.0000
# 2 51.5029 58.6835 16.8155 0.0000 0.0000 0.0000
# 3 16.8154 16.8155 94.5497 0.0000 0.0000 0.0000
# 4 0.0000 0.0000 0.0000 28.7573 0.0000 0.0000
# 5 0.0000 0.0000 0.0000 0.0000 28.7573 0.0000
# 6 0.0000 0.0000 0.0000 0.0000 0.0000 59.4102
#
#
#
# Elastic Compliance Matrix: (Units=1/GPa)
#
#
# Indices 1 2 3 4 5 6 
#
# 1 0.074438 -0.064840 -0.001707 0.000000 0.000000 0.000000
# 2 -0.064840 0.074436 -0.001707 0.000000 0.000000 0.000000
# 3 -0.001707 -0.001707 0.011184 0.000000 0.000000 0.000000
# 4 0.000000 0.000000 0.000000 0.034774 0.000000 0.000000
# 5 0.000000 0.000000 0.000000 0.000000 0.034774 0.000000
# 6 0.000000 0.000000 0.000000 0.000000 0.000000 0.016832
#
#
# Mechanical properties :
#
#
# Convention : Reuss Voigt Hill
#
# Bulk Modulus (GPa) = 42.46344 42.46477 42.46411
# Shear Modulus (GPa) = 12.79448 31.83707 22.31578
#
# Velocity S-wave (km/s) = 2.38068 3.75539 3.14409
# Velocity P-wave (km/s) = 5.13488 6.13308 5.65605
#
# Compressibility (1/GPa) = 0.02354967
#
# Stress axis : x y z
#
# Youngs Moduli (GPa) = 13.43408 13.43441 89.41730
#
# Poissons Ratio (x) = 0.87109 0.15262
# Poissons Ratio (y) = 0.87107 0.15260
# Poissons Ratio (z) = 0.02293 0.02293
#
# Static dielectric constant tensor:
#      x y z
#    x 1.922780 0.000000 0.000000 
#    y 0.000000 1.922780 0.000000 
#    z 0.000000 0.000000 1.826220 
# 
# From -- ./inp_files/17126.got.cif
#   From: 2010.05.17/outbox.cif.g08.bks.cpg/sg91_9_cif.got.tgz:17126.got - 2010.06.03 19:20:03.
