data_PCOD9548219
_publ_section_title
;
Structure prediction by ZEFSAII (Michael W. Deem and Ramdas Pophale) SiO2 
 PCOD9548219
Probable space group: P 41 2 2
;
_chemical_formula_sum "Si O2"
_cell_formula_units_Z 40
_cell_length_a 15.555721
_cell_length_b 15.555721
_cell_length_c 8.107308
_cell_angle_alpha 90.000000
_cell_angle_beta 90.000000
_cell_angle_gamma 90.000000
_cell_volume 1961.810085
_symmetry_space_group_name_H-M "P 41 2 2"
_symmetry_group_IT_number 91
_symmetry_cell_setting 'tetragonal'
loop_
_space_group_symop_operation_xyz
x,y,z
-y,x,1/4+z
-x,-y,1/2+z
y,-x,3/4+z
x,-y,1/2-z
-x,y,-z
y,x,3/4-z
-y,-x,1/4-z
loop_
_atom_site_type_symbol
_atom_site_label
_atom_site_fract_x
_atom_site_fract_y
_atom_site_fract_z
Si Si1 0.739769 0.536914 0.063518
Si Si2 0.834181 0.738602 0.739546
Si Si3 0.576871 0.082898 0.634379
Si Si4 0.896869 0.948050 0.101023
Si Si5 0.692551 0.359447 0.941249
O O1 0.749993 0.500000 0.250000
O O2 0.674421 0.616088 0.076521
O O3 0.831453 0.565336 0.993640
O O4 0.706223 0.461025 0.946361
O O5 0.763405 0.763405 0.875000
O O6 0.905236 0.671035 0.802619
O O7 0.875178 0.830386 0.695589
O O8 0.781057 0.688685 0.600710
O O9 0.500000 0.079601 0.500000
O O10 0.573421 0.000000 0.750000
O O11 0.983156 0.912196 0.199325
O O12 0.853616 0.000000 0.250000
O O13 0.666348 0.333653 0.125000
#
# Coordination Sequence:
#
# PCOD9548219 Si02
#       5
#     8   8   8   8   8
#     4  10  21  44  71  99 139 174 225 279 337 405
#     4  12  26  41  70 100 133 179 225 277 342 406
#     4  12  26  45  68  98 136 182 225 279 339 408
#     4  10  26  46  68  94 133 172 222 285 344 398
#     4  10  22  42  74 100 137 178 222 279 337 403
#
# _framework density 20.389333000000001
#
# number of rings (size 3 to 8) (size 9 to 14) (size 15 to 20)
#    0.000    1.200    4.000    0.600   11.200    0.800 
#    3.600    0.000   35.200    0.000    0.000    0.000 
#    0.000    0.000    0.000    0.000    0.000    0.000 
#
# Total GULP energy -223163.566856 kJ/mol
# GULP energy per Si atom -5579.089171 kJ/mol
# Density = 2.034293 g / cm^3
# Si number density = 20.389333 Si / 1000 Ang^3
#
#
#
# Elastic Constant Matrix: (Units=GPa)
#
#
# Indices 1 2 3 4 5 6 
#
# 1 131.1703 74.0958 49.9537 0.0000 0.0000 0.0000
# 2 74.0958 131.1699 49.9526 0.0000 0.0000 0.0000
# 3 49.9537 49.9526 61.5486 0.0000 0.0000 0.0000
# 4 0.0000 0.0000 0.0000 35.5234 0.0000 0.0000
# 5 0.0000 0.0000 0.0000 0.0000 35.5233 0.0000
# 6 0.0000 0.0000 0.0000 0.0000 0.0000 43.1332
#
#
#
# Elastic Compliance Matrix: (Units=1/GPa)
#
#
# Indices 1 2 3 4 5 6 
#
# 1 0.012787 -0.004734 -0.006536 0.000000 0.000000 0.000000
# 2 -0.004734 0.012787 -0.006535 0.000000 0.000000 0.000000
# 3 -0.006536 -0.006535 0.026856 0.000000 0.000000 0.000000
# 4 0.000000 0.000000 0.000000 0.028150 0.000000 0.000000
# 5 0.000000 0.000000 0.000000 0.000000 0.028151 0.000000
# 6 0.000000 0.000000 0.000000 0.000000 0.000000 0.023184
#
#
# Mechanical properties :
#
#
# Convention : Reuss Voigt Hill
#
# Bulk Modulus (GPa) = 59.45677 74.65479 67.05578
# Shear Modulus (GPa) = 28.87973 32.82845 30.85409
#
# Velocity S-wave (km/s) = 3.76761 4.01693 3.89427
# Velocity P-wave (km/s) = 6.93906 7.62945 7.29243
#
# Compressibility (1/GPa) = 0.01681894
#
# Stress axis : x y z
#
# Youngs Moduli (GPa) = 78.20468 78.20579 37.23562
#
# Poissons Ratio (x) = 0.37024 0.24337
# Poissons Ratio (y) = 0.37023 0.24335
# Poissons Ratio (z) = 0.51113 0.51111
#
# Static dielectric constant tensor:
#      x y z
#    x 1.717400 0.000000 0.000000 
#    y 0.000000 1.717400 0.000000 
#    z 0.000000 0.000000 1.778780 
# 
# From -- ./inp_files/2410.got.cif
#   From: 2010.05.17/outbox.cif.g08.bks.cpg/sg91_2_cif.got.tgz:2410.got - 2010.06.03 19:20:03.
