data_PCOD9548374
_publ_section_title
;
Structure prediction by ZEFSAII (Michael W. Deem and Ramdas Pophale) SiO2 
 PCOD9548374
Probable space group: P 41 2 2
;
_chemical_formula_sum "Si O2"
_cell_formula_units_Z 60
_cell_length_a 10.892555
_cell_length_b 10.892555
_cell_length_c 24.245323
_cell_angle_alpha 90.000000
_cell_angle_beta 90.000000
_cell_angle_gamma 90.000000
_cell_volume 2876.653129
_symmetry_space_group_name_H-M "P 41 2 2"
_symmetry_group_IT_number 91
_symmetry_cell_setting 'tetragonal'
loop_
_space_group_symop_operation_xyz
x,y,z
-y,x,1/4+z
-x,-y,1/2+z
y,-x,3/4+z
x,-y,1/2-z
-x,y,-z
y,x,3/4-z
-y,-x,1/4-z
loop_
_atom_site_type_symbol
_atom_site_label
_atom_site_fract_x
_atom_site_fract_y
_atom_site_fract_z
Si Si1 0.674201 0.500000 0.750000
Si Si2 0.691587 0.537196 0.525367
Si Si3 0.915666 0.573451 0.450683
Si Si4 0.039727 0.341287 0.620835
Si Si5 0.226600 0.431399 0.364196
Si Si6 0.628712 0.195283 0.976723
Si Si7 0.974042 0.914509 0.067583
Si Si8 0.160492 0.826200 0.566230
O O1 0.581950 0.613832 0.759052
O O2 0.752630 0.497756 0.806491
O O3 0.778952 0.564499 0.474108
O O4 0.770168 0.515149 0.581054
O O5 0.614002 0.659930 0.536090
O O6 0.930384 0.477009 0.402304
O O7 0.940602 0.718687 0.442459
O O8 0.000000 0.526586 0.500000
O O9 0.123543 0.325827 0.673696
O O10 0.063486 0.226492 0.580204
O O11 0.896714 0.352016 0.636762
O O12 0.340834 0.340834 0.375000
O O13 0.500000 0.147081 0.000000
O O14 0.735373 0.178369 0.020982
O O15 0.886855 0.034560 0.070252
O O16 0.057439 0.942562 0.125000
O O17 0.000000 0.914412 0.000000
O O18 0.213565 0.786436 0.625000
#
# Coordination Sequence:
#
# PCOD9548374 Si02
#       8
#     4   8   8   8   8   8   8   8
#     4  10  22  44  66  96 126 184 224 290 356 426
#     4  10  22  43  67  94 129 179 233 282 348 426
#     4  11  22  41  66  93 136 177 232 289 351 422
#     4  12  25  42  68 108 140 184 230 305 366 436
#     4  10  23  43  67  97 139 177 228 287 355 430
#     4  11  24  44  67 102 138 180 236 304 355 431
#     4  11  24  45  71 102 145 199 246 300 371 460
#     4  10  23  44  66  96 132 188 238 292 353 434
#
# _framework density 20.857569999999999
#
# number of rings (size 3 to 8) (size 9 to 14) (size 15 to 20)
#    0.000    1.333    2.000    2.800    2.800    3.200 
#    4.800    0.000    0.000    0.000    0.000    0.000 
#    0.000    0.000    0.000    0.000    0.000    0.000 
#
# Total GULP energy -334030.916680 kJ/mol
# GULP energy per Si atom -5567.181945 kJ/mol
# Density = 2.081010 g / cm^3
# Si number density = 20.857570 Si / 1000 Ang^3
#
#
#
# Elastic Constant Matrix: (Units=GPa)
#
#
# Indices 1 2 3 4 5 6 
#
# 1 57.0041 34.0269 32.3970 0.0000 0.0000 0.0000
# 2 34.0269 57.0046 32.3975 0.0000 0.0000 0.0000
# 3 32.3970 32.3975 138.8726 0.0000 0.0000 0.0000
# 4 0.0000 0.0000 0.000050755.7978 0.0000 0.0000
# 5 0.0000 0.0000 0.0000 0.000046877.0037 0.0000
# 6 0.0000 0.0000 0.0000 0.0000 0.0000 -2.3417
#
#
#
# Elastic Compliance Matrix: (Units=1/GPa)
#
#
# Indices 1 2 3 4 5 6 
#
# 1 0.028347 -0.015174 -0.003073 0.000000 0.000000 0.000000
# 2 -0.015174 0.028347 -0.003073 0.000000 0.000000 0.000000
# 3 -0.003073 -0.003073 0.008635 0.000000 0.000000 0.000000
# 4 0.000000 0.000000 0.000000 0.000020 0.000000 0.000000
# 5 0.000000 0.000000 0.000000 0.000000 0.000021 0.000000
# 6 0.000000 0.000000 0.000000 0.000000 0.000000 -0.427035
#
#
# Mechanical properties :
#
#
# Convention : Reuss Voigt Hill
#
# Bulk Modulus (GPa) = 44.07664 50.05823 47.06744
# Shear Modulus (GPa) = -16.05327 19536.36261 9760.15467
#
# Velocity S-wave (km/s) = -2.77729 96.88597 68.48057
# Velocity P-wave (km/s) = 3.30055 111.98173 79.21743
#
# Compressibility (1/GPa) = 0.02268775
#
# Stress axis : x y z
#
# Youngs Moduli (GPa) = 35.27736 35.27758 115.81278
#
# Poissons Ratio (x) = 0.53531 0.35588
# Poissons Ratio (y) = 0.53530 0.35590
# Poissons Ratio (z) = 0.10840 0.10841
#
# Static dielectric constant tensor:
#      x y z
#    x 1.331210 0.000000 0.000000 
#    y 0.000000 1.365750 0.000000 
#    z 0.000000 0.000000 1.797520 
# 
# From -- ./inp_files/12551.got.cif
#   From: 2010.05.17/outbox.cif.g08.bks.cpg/sg91_7_cif.got.tgz:12551.got - 2010.06.03 19:20:03.
