data_PCOD9548784
_publ_section_title
;
Structure prediction by ZEFSAII (Michael W. Deem and Ramdas Pophale) SiO2 
 PCOD9548784
Probable space group: P 41 2 2
;
_chemical_formula_sum "Si O2"
_cell_formula_units_Z 28
_cell_length_a 7.973188
_cell_length_b 7.973188
_cell_length_c 18.480388
_cell_angle_alpha 90.000000
_cell_angle_beta 90.000000
_cell_angle_gamma 90.000000
_cell_volume 1174.830179
_symmetry_space_group_name_H-M "P 41 2 2"
_symmetry_group_IT_number 91
_symmetry_cell_setting 'tetragonal'
loop_
_space_group_symop_operation_xyz
x,y,z
-y,x,1/4+z
-x,-y,1/2+z
y,-x,3/4+z
x,-y,1/2-z
-x,y,-z
y,x,3/4-z
-y,-x,1/4-z
loop_
_atom_site_type_symbol
_atom_site_label
_atom_site_fract_x
_atom_site_fract_y
_atom_site_fract_z
Si Si1 0.552737 0.176928 0.793330
Si Si2 0.167741 0.172333 0.956251
Si Si3 0.751472 0.500000 0.750000
Si Si4 0.704674 0.035451 0.586974
O O1 0.360856 0.237596 0.800758
O O2 0.647941 0.329978 0.757286
O O3 0.649915 0.875312 0.633663
O O4 0.561366 0.000000 0.750000
O O5 0.122106 0.122106 0.875000
O O6 0.000000 0.198079 0.000000
O O7 0.256195 0.033009 0.005891
O O8 0.855214 0.537707 0.823307
O O9 0.849689 0.150312 0.625000
#
# Coordination Sequence:
#
# PCOD9548784 Si02
#       4
#     8   8   4   8
#     4  11  27  50  74 118 158 205 268 325 402 476
#     4  11  27  47  77 109 153 204 259 331 397 477
#     4  12  28  48  82 114 162 208 264 332 398 476
#     4  12  27  47  82 116 157 208 268 329 402 475
#
# _framework density 23.833228999999999
#
# number of rings (size 3 to 8) (size 9 to 14) (size 15 to 20)
#    0.000    0.571    2.857    2.571   16.000    4.571 
#    0.000    0.000    0.000    0.000    0.000    0.000 
#    0.000    0.000    0.000    0.000    0.000    0.000 
#
# Total GULP energy -156362.539548 kJ/mol
# GULP energy per Si atom -5584.376412 kJ/mol
# Density = 2.377898 g / cm^3
# Si number density = 23.833229 Si / 1000 Ang^3
#
#
#
# Elastic Constant Matrix: (Units=GPa)
#
#
# Indices 1 2 3 4 5 6 
#
# 1 94.5176 45.6727 34.2542 0.0000 0.0000 0.0000
# 2 45.6727 94.5172 34.2540 0.0000 0.0000 0.0000
# 3 34.2542 34.2540 159.1021 0.0000 0.0000 0.0000
# 4 0.0000 0.0000 0.0000 40.7470 0.0000 0.0000
# 5 0.0000 0.0000 0.0000 0.0000 40.7463 0.0000
# 6 0.0000 0.0000 0.0000 0.0000 0.0000 -1.3863
#
#
#
# Elastic Compliance Matrix: (Units=1/GPa)
#
#
# Indices 1 2 3 4 5 6 
#
# 1 0.014222 -0.006251 -0.001716 0.000000 0.000000 0.000000
# 2 -0.006251 0.014222 -0.001716 0.000000 0.000000 0.000000
# 3 -0.001716 -0.001716 0.007024 0.000000 0.000000 0.000000
# 4 0.000000 0.000000 0.000000 0.024542 0.000000 0.000000
# 5 0.000000 0.000000 0.000000 0.000000 0.024542 0.000000
# 6 0.000000 0.000000 0.000000 0.000000 0.000000 -0.721344
#
#
# Mechanical properties :
#
#
# Convention : Reuss Voigt Hill
#
# Bulk Modulus (GPa) = 62.10090 64.05542 63.07816
# Shear Modulus (GPa) = -8.16918 31.61847 11.72464
#
# Velocity S-wave (km/s) = -1.85340 3.64628 2.22039
# Velocity P-wave (km/s) = 4.64035 6.68296 5.75304
#
# Compressibility (1/GPa) = 0.01610283
#
# Stress axis : x y z
#
# Youngs Moduli (GPa) = 70.31135 70.31115 142.36272
#
# Poissons Ratio (x) = 0.43948 0.24434
# Poissons Ratio (y) = 0.43949 0.24434
# Poissons Ratio (z) = 0.12068 0.12068
#
# Static dielectric constant tensor:
#      x y z
#    x 1.866480 0.000000 0.000000 
#    y 0.000000 1.866470 0.000000 
#    z 0.000000 0.000000 1.995370 
# 
# From -- ./inp_files/21289.got.cif
#   From: 2010.05.17/outbox.cif.g08.bks.cpg/sg91_11_cif.got.tgz:21289.got - 2010.06.03 19:20:03.
