data_PCOD9548766
_publ_section_title
;
Structure prediction by ZEFSAII (Michael W. Deem and Ramdas Pophale) SiO2 
 PCOD9548766
Probable space group: P 41 2 2
;
_chemical_formula_sum "Si O2"
_cell_formula_units_Z 44
_cell_length_a 8.218423
_cell_length_b 8.218423
_cell_length_c 27.499496
_cell_angle_alpha 90.000000
_cell_angle_beta 90.000000
_cell_angle_gamma 90.000000
_cell_volume 1857.384065
_symmetry_space_group_name_H-M "P 41 2 2"
_symmetry_group_IT_number 91
_symmetry_cell_setting 'tetragonal'
loop_
_space_group_symop_operation_xyz
x,y,z
-y,x,1/4+z
-x,-y,1/2+z
y,-x,3/4+z
x,-y,1/2-z
-x,y,-z
y,x,3/4-z
-y,-x,1/4-z
loop_
_atom_site_type_symbol
_atom_site_label
_atom_site_fract_x
_atom_site_fract_y
_atom_site_fract_z
Si Si1 0.937624 0.120267 0.067831
Si Si2 0.600274 0.500000 0.750000
Si Si3 0.762755 0.053921 0.802041
Si Si4 0.146269 0.686404 0.842284
Si Si5 0.629504 0.334122 0.067363
Si Si6 0.780127 0.315695 0.669975
O O1 0.131703 0.164834 0.068411
O O2 0.797930 0.245787 0.051956
O O3 0.894103 0.949052 0.042052
O O4 0.908354 0.091647 0.125000
O O5 0.492040 0.391679 0.785217
O O6 0.709765 0.383472 0.718579
O O7 0.785960 0.878632 0.827286
O O8 0.683193 0.000000 0.750000
O O9 0.698642 0.162989 0.847952
O O10 0.248076 0.548425 0.814856
O O11 0.961449 0.623453 0.836528
O O12 0.643734 0.356267 0.125000
O O13 0.657005 0.342996 0.625000
#
# Coordination Sequence:
#
# PCOD9548766 Si02
#       6
#     8   4   8   8   8   8
#     4   8  18  41  65  94 129 174 224 278 344 412
#     4  12  26  42  62 100 146 184 230 286 356 434
#     4   9  18  35  68 101 125 172 236 282 341 422
#     4   9  20  43  72  91 137 182 224 294 355 401
#     4  11  25  44  65 103 140 177 232 290 357 426
#     4   9  21  44  65  94 132 182 232 280 345 425
#
# _framework density 23.689230999999999
#
# number of rings (size 3 to 8) (size 9 to 14) (size 15 to 20)
#    0.000    2.545    0.000    2.727    2.545    5.091 
#   26.182    0.000    0.000    0.000    0.000    0.000 
#    0.000    0.000    0.000    0.000    0.000    0.000 
#
# Total GULP energy -245236.115089 kJ/mol
# GULP energy per Si atom -5573.548070 kJ/mol
# Density = 2.363531 g / cm^3
# Si number density = 23.689231 Si / 1000 Ang^3
#
#
#
# Elastic Constant Matrix: (Units=GPa)
#
#
# Indices 1 2 3 4 5 6 
#
# 1 80.7390 46.8469 17.9719 0.0000 0.0000 0.0000
# 2 46.8469 80.7387 17.9720 0.0000 0.0000 0.0000
# 3 17.9719 17.9720 79.1023 0.0000 0.0000 0.0000
# 4 0.0000 0.0000 0.0000 17.1903 0.0000 0.0000
# 5 0.0000 0.0000 0.0000 0.0000 17.1906 0.0000
# 6 0.0000 0.0000 0.0000 0.0000 0.0000 27.7859
#
#
#
# Elastic Compliance Matrix: (Units=1/GPa)
#
#
# Indices 1 2 3 4 5 6 
#
# 1 0.018940 -0.010566 -0.001903 0.000000 0.000000 0.000000
# 2 -0.010566 0.018940 -0.001903 0.000000 0.000000 0.000000
# 3 -0.001903 -0.001903 0.013506 0.000000 0.000000 0.000000
# 4 0.000000 0.000000 0.000000 0.058172 0.000000 0.000000
# 5 0.000000 0.000000 0.000000 0.000000 0.058171 0.000000
# 6 0.000000 0.000000 0.000000 0.000000 0.000000 0.035989
#
#
# Mechanical properties :
#
#
# Convention : Reuss Voigt Hill
#
# Bulk Modulus (GPa) = 44.16191 45.12907 44.64549
# Shear Modulus (GPa) = 20.83260 22.95265 21.89262
#
# Velocity S-wave (km/s) = 2.96871 3.11610 3.04330
# Velocity P-wave (km/s) = 5.51667 5.66027 5.58893
#
# Compressibility (1/GPa) = 0.02264395
#
# Stress axis : x y z
#
# Youngs Moduli (GPa) = 52.79923 52.79900 74.03919
#
# Poissons Ratio (x) = 0.55787 0.14086
# Poissons Ratio (y) = 0.55787 0.14086
# Poissons Ratio (z) = 0.10045 0.10045
#
# Static dielectric constant tensor:
#      x y z
#    x 1.906600 0.000000 0.000000 
#    y 0.000000 1.906600 0.000000 
#    z 0.000000 0.000000 1.987880 
# 
# From -- ./inp_files/22212.got.cif
#   From: 2010.05.17/outbox.cif.g08.bks.cpg/sg91_12_cif.got.tgz:22212.got - 2010.06.03 19:20:03.
