data_PCOD9548840
_publ_section_title
;
Structure prediction by ZEFSAII (Michael W. Deem and Ramdas Pophale) SiO2 
 PCOD9548840
Probable space group: P 41 2 2
;
_chemical_formula_sum "Si O2"
_cell_formula_units_Z 40
_cell_length_a 15.000000
_cell_length_b 15.000000
_cell_length_c 9.000000
_cell_angle_alpha 90.000000
_cell_angle_beta 90.000000
_cell_angle_gamma 90.000000
_cell_volume 2025.000000
_symmetry_space_group_name_H-M "P 41 2 2"
_symmetry_group_IT_number 91
_symmetry_cell_setting 'tetragonal'
loop_
_space_group_symop_operation_xyz
x,y,z
-y,x,1/4+z
-x,-y,1/2+z
y,-x,3/4+z
x,-y,1/2-z
-x,y,-z
y,x,3/4-z
-y,-x,1/4-z
loop_
_atom_site_type_symbol
_atom_site_label
_atom_site_fract_x
_atom_site_fract_y
_atom_site_fract_z
Si Si1 0.282536 0.386599 0.497093
Si Si2 0.385795 0.500000 0.750000
Si Si3 0.286512 0.000000 0.250000
Si Si4 0.407808 0.119059 0.463618
Si Si5 0.249483 0.163589 0.071660
Si Si6 0.106961 0.701589 0.505976
O O1 0.355392 0.355392 0.375000
O O2 0.325130 0.440892 0.635536
O O3 0.204830 0.428186 0.391439
O O4 0.232716 0.302653 0.573691
O O5 0.444105 0.555896 0.625000
O O6 0.345763 0.945196 0.132492
O O7 0.233764 0.927199 0.341514
O O8 0.500000 0.071278 0.500000
O O9 0.363853 0.139110 0.623900
O O10 0.310099 0.141958 0.925539
O O11 0.155113 0.206020 0.032796
O O12 0.000000 0.702473 0.500000
#
# Coordination Sequence:
#
# PCOD9548840 Si02
#       6
#     8   4   4   8   8   8
#     4  11  25  44  70  96 132 178 232 271 344 403
#     4  12  30  48  70  98 138 176 228 290 338 402
#     4  10  22  42  60  98 136 178 216 288 340 406
#     4  11  25  40  65  97 133 172 222 283 337 401
#     4  10  23  41  69  96 132 182 227 272 342 407
#     4  11  22  42  69  95 132 177 227 280 335 409
#
# _framework density 19.753086
#
# number of rings (size 3 to 8) (size 9 to 14) (size 15 to 20)
#    0.000    1.200    4.000    0.600    9.800    0.000 
#    3.600    0.000    8.800    0.000    0.000    0.000 
#    0.000    0.000    0.000    0.000    0.000    0.000 
#
# Total GULP energy -222876.954339 kJ/mol
# GULP energy per Si atom -5571.923858 kJ/mol
# Density = 1.970813 g / cm^3
# Si number density = 19.753086 Si / 1000 Ang^3
#
#
#
# Elastic Constant Matrix: (Units=GPa)
#
#
# Indices 1 2 3 4 5 6 
#
# 1 62.6740 31.5517 32.8389 0.0000 0.0000 0.0000
# 2 31.5517 62.6741 32.8389 0.0000 0.0000 0.0000
# 3 32.8389 32.8389 149.1654 0.0000 0.0000 0.0000
# 4 0.0000 0.0000 0.0000 36.6760 0.0000 0.0000
# 5 0.0000 0.0000 0.0000 0.0000 36.6760 0.0000
# 6 0.0000 0.0000 0.0000 0.0000 0.0000 1.7553
#
#
#
# Elastic Compliance Matrix: (Units=1/GPa)
#
#
# Indices 1 2 3 4 5 6 
#
# 1 0.022334 -0.009797 -0.002760 0.000000 0.000000 0.000000
# 2 -0.009797 0.022334 -0.002760 0.000000 0.000000 0.000000
# 3 -0.002760 -0.002760 0.007919 0.000000 0.000000 0.000000
# 4 0.000000 0.000000 0.000000 0.027266 0.000000 0.000000
# 5 0.000000 0.000000 0.000000 0.000000 0.027266 0.000000
# 6 0.000000 0.000000 0.000000 0.000000 0.000000 0.569687
#
#
# Mechanical properties :
#
#
# Convention : Reuss Voigt Hill
#
# Bulk Modulus (GPa) = 45.55279 52.10804 48.83041
# Shear Modulus (GPa) = 6.99538 26.84042 16.91790
#
# Velocity S-wave (km/s) = 1.88391 3.69018 2.92972
# Velocity P-wave (km/s) = 5.27667 6.67784 6.01818
#
# Compressibility (1/GPa) = 0.02195255
#
# Stress axis : x y z
#
# Youngs Moduli (GPa) = 44.77494 44.77507 126.27588
#
# Poissons Ratio (x) = 0.43868 0.34851
# Poissons Ratio (y) = 0.43867 0.34851
# Poissons Ratio (z) = 0.12358 0.12358
#
# Static dielectric constant tensor:
#      x y z
#    x 1.701750 0.000000 0.000000 
#    y 0.000000 1.701750 0.000000 
#    z 0.000000 0.000000 1.728290 
# 
# From -- ./inp_files/2457.got.cif
#   From: 2010.05.17/outbox.ucp.g08.bks.cvg/sg91_2_cif.got.tgz:2457.got - 2010.06.11 10:36:11.
