data_PCOD9548527
_publ_section_title
;
Structure prediction by ZEFSAII (Michael W. Deem and Ramdas Pophale) SiO2 
 PCOD9548527
Probable space group: P 41 2 2
;
_chemical_formula_sum "Si O2"
_cell_formula_units_Z 40
_cell_length_a 8.356178
_cell_length_b 8.356178
_cell_length_c 24.528092
_cell_angle_alpha 90.000000
_cell_angle_beta 90.000000
_cell_angle_gamma 90.000000
_cell_volume 1712.691458
_symmetry_space_group_name_H-M "P 41 2 2"
_symmetry_group_IT_number 91
_symmetry_cell_setting 'tetragonal'
loop_
_space_group_symop_operation_xyz
x,y,z
-y,x,1/4+z
-x,-y,1/2+z
y,-x,3/4+z
x,-y,1/2-z
-x,y,-z
y,x,3/4-z
-y,-x,1/4-z
loop_
_atom_site_type_symbol
_atom_site_label
_atom_site_fract_x
_atom_site_fract_y
_atom_site_fract_z
Si Si1 0.813406 0.352114 0.984950
Si Si2 0.861476 0.558053 0.809232
Si Si3 0.812012 0.724974 0.001095
Si Si4 0.305480 0.322167 0.129297
Si Si5 0.630522 0.807984 0.416324
O O1 0.791207 0.281759 0.924909
O O2 0.767698 0.540874 0.985816
O O3 0.695985 0.262904 0.027099
O O4 0.000000 0.340628 0.000000
O O5 0.798533 0.500000 0.750000
O O6 0.851690 0.743069 0.793307
O O7 0.740057 0.502885 0.855156
O O8 0.023092 0.459260 0.822040
O O9 0.767253 0.743136 0.065131
O O10 0.000000 0.735805 0.000000
O O11 0.486604 0.285744 0.113665
O O12 0.780843 0.780843 0.375000
#
# Coordination Sequence:
#
# PCOD9548527 Si02
#       5
#     8   8   8   8   8
#     4  11  24  44  73 112 151 194 258 318 380 462
#     4  10  24  45  69 107 145 191 250 308 375 458
#     4  10  24  46  71 108 153 195 255 310 385 467
#     4  11  24  42  72 107 145 199 246 315 378 447
#     4  12  24  45  72 105 145 196 256 310 388 456
#
# _framework density 23.355055
#
# number of rings (size 3 to 8) (size 9 to 14) (size 15 to 20)
#    0.000    1.200    2.000    3.000    5.600    1.600 
#    0.000   15.000    0.000    0.000    0.000    0.000 
#    0.000    0.000    0.000    0.000    0.000    0.000 
#
# Total GULP energy -223072.049194 kJ/mol
# GULP energy per Si atom -5576.801230 kJ/mol
# Density = 2.330190 g / cm^3
# Si number density = 23.355055 Si / 1000 Ang^3
#
#
#
# Elastic Constant Matrix: (Units=GPa)
#
#
# Indices 1 2 3 4 5 6 
#
# 1 129.3629 54.8751 61.0837 0.0000 0.0000 0.0000
# 2 54.8751 129.3629 61.0837 0.0000 0.0000 0.0000
# 3 61.0837 61.0837 181.7677 0.0000 0.0000 0.0000
# 4 0.0000 0.0000 0.0000 37.6419 0.0000 0.0000
# 5 0.0000 0.0000 0.0000 0.0000 37.6419 0.0000
# 6 0.0000 0.0000 0.0000 0.0000 0.0000 54.7339
#
#
#
# Elastic Compliance Matrix: (Units=1/GPa)
#
#
# Indices 1 2 3 4 5 6 
#
# 1 0.010205 -0.003220 -0.002347 0.000000 0.000000 0.000000
# 2 -0.003220 0.010205 -0.002347 0.000000 0.000000 0.000000
# 3 -0.002347 -0.002347 0.007079 0.000000 0.000000 0.000000
# 4 0.000000 0.000000 0.000000 0.026566 0.000000 0.000000
# 5 0.000000 0.000000 0.000000 0.000000 0.026566 0.000000
# 6 0.000000 0.000000 0.000000 0.000000 0.000000 0.018270
#
#
# Mechanical properties :
#
#
# Convention : Reuss Voigt Hill
#
# Bulk Modulus (GPa) = 85.77052 88.28652 87.02852
# Shear Modulus (GPa) = 42.15643 43.56695 42.86169
#
# Velocity S-wave (km/s) = 4.25317 4.32373 4.28860
# Velocity P-wave (km/s) = 7.80535 7.92529 7.86555
#
# Compressibility (1/GPa) = 0.01165902
#
# Stress axis : x y z
#
# Youngs Moduli (GPa) = 97.99562 97.99562 141.26337
#
# Poissons Ratio (x) = 0.31559 0.33155
# Poissons Ratio (y) = 0.31559 0.33155
# Poissons Ratio (z) = 0.23000 0.23000
#
# Static dielectric constant tensor:
#      x y z
#    x 2.065320 0.000000 0.000000 
#    y 0.000000 2.065320 0.000000 
#    z 0.000000 0.000000 1.866360 
# 
# From -- ./inp_files/17505.got.cif
#   From: 2010.05.17/outbox.cif.g08.bks.cpg/sg91_9_cif.got.tgz:17505.got - 2010.06.03 19:20:03.
