data_PCOD9548406
_publ_section_title
;
Structure prediction by ZEFSAII (Michael W. Deem and Ramdas Pophale) SiO2 
 PCOD9548406
Probable space group: P 41 2 2
;
_chemical_formula_sum "Si O2"
_cell_formula_units_Z 48
_cell_length_a 9.007893
_cell_length_b 9.007893
_cell_length_c 25.051580
_cell_angle_alpha 90.000000
_cell_angle_beta 90.000000
_cell_angle_gamma 90.000000
_cell_volume 2032.738719
_symmetry_space_group_name_H-M "P 41 2 2"
_symmetry_group_IT_number 91
_symmetry_cell_setting 'tetragonal'
loop_
_space_group_symop_operation_xyz
x,y,z
-y,x,1/4+z
-x,-y,1/2+z
y,-x,3/4+z
x,-y,1/2-z
-x,y,-z
y,x,3/4-z
-y,-x,1/4-z
loop_
_atom_site_type_symbol
_atom_site_label
_atom_site_fract_x
_atom_site_fract_y
_atom_site_fract_z
Si Si1 0.321491 0.000000 0.250000
Si Si2 0.272703 0.955834 0.128465
Si Si3 0.228789 0.747320 0.687915
Si Si4 0.500000 0.315634 0.500000
Si Si5 0.910227 0.205479 0.923242
Si Si6 0.728143 0.538282 0.518854
Si Si7 0.054850 0.594763 0.323648
O O1 0.250490 0.006903 0.190403
O O2 0.428204 0.139549 0.255408
O O3 0.172095 0.051122 0.087364
O O4 0.442176 0.963931 0.107482
O O5 0.210891 0.789110 0.125000
O O6 0.256443 0.743558 0.625000
O O7 0.376512 0.687635 0.715072
O O8 0.094547 0.642324 0.706993
O O9 0.200497 0.924309 0.699214
O O10 0.599226 0.426565 0.535467
O O11 0.412223 0.200554 0.537508
O O12 0.796769 0.327199 0.947101
O O13 0.936813 0.270782 0.864683
#
# Coordination Sequence:
#
# PCOD9548406 Si02
#       7
#     4   8   8   4   8   8   8
#     4  12  22  50  74 102 148 194 240 302 376 450
#     4  12  26  45  74 109 146 193 244 306 375 445
#     4  10  22  45  72 101 135 177 244 299 347 422
#     4  12  30  42  66 106 152 190 232 296 380 434
#     4  11  24  46  74 103 137 184 247 301 355 428
#     4  12  24  47  71 105 139 196 242 290 367 441
#     4  11  25  46  68 105 146 183 238 299 365 437
#
# _framework density 23.613461999999998
#
# number of rings (size 3 to 8) (size 9 to 14) (size 15 to 20)
#    0.000    0.667    3.333    4.500    4.667    0.000 
#    6.000    0.000    0.000    0.000    0.000    0.000 
#    0.000    0.000    0.000    0.000    0.000    0.000 
#
# Total GULP energy -267944.083754 kJ/mol
# GULP energy per Si atom -5582.168412 kJ/mol
# Density = 2.355972 g / cm^3
# Si number density = 23.613462 Si / 1000 Ang^3
#
#
#
# Elastic Constant Matrix: (Units=GPa)
#
#
# Indices 1 2 3 4 5 6 
#
# 1 90.6292 74.1084 7.6529 0.0000 0.0000 0.0000
# 2 74.1084 90.6309 7.6529 0.0000 0.0000 0.0000
# 3 7.6529 7.6529 51.0182 0.0000 0.0000 0.0000
# 4 0.0000 0.0000 0.0000 17.6228 0.0000 0.0000
# 5 0.0000 0.0000 0.0000 0.0000 17.6238 0.0000
# 6 0.0000 0.0000 0.0000 0.0000 0.0000 40.7943
#
#
#
# Elastic Compliance Matrix: (Units=1/GPa)
#
#
# Indices 1 2 3 4 5 6 
#
# 1 0.033342 -0.027185 -0.000923 0.000000 0.000000 0.000000
# 2 -0.027185 0.033341 -0.000923 0.000000 0.000000 0.000000
# 3 -0.000923 -0.000923 0.019878 0.000000 0.000000 0.000000
# 4 0.000000 0.000000 0.000000 0.056745 0.000000 0.000000
# 5 0.000000 0.000000 0.000000 0.000000 0.056741 0.000000
# 6 0.000000 0.000000 0.000000 0.000000 0.000000 0.024513
#
#
# Mechanical properties :
#
#
# Convention : Reuss Voigt Hill
#
# Bulk Modulus (GPa) = 35.09235 45.67852 40.38544
# Shear Modulus (GPa) = 17.11609 24.73246 20.92428
#
# Velocity S-wave (km/s) = 2.69521 3.23985 2.98000
# Velocity P-wave (km/s) = 4.95772 5.77769 5.38334
#
# Compressibility (1/GPa) = 0.02849624
#
# Stress axis : x y z
#
# Youngs Moduli (GPa) = 29.99251 29.99311 50.30713
#
# Poissons Ratio (x) = 0.81537 0.04646
# Poissons Ratio (y) = 0.81536 0.04645
# Poissons Ratio (z) = 0.02770 0.02770
#
# Static dielectric constant tensor:
#      x y z
#    x 2.098540 0.000000 0.000000 
#    y 0.000000 2.098540 0.000000 
#    z 0.000000 0.000000 1.988360 
# 
# From -- ./inp_files/8021.got.cif
#   From: 2010.05.17/outbox.cif.g08.bks.cpg/sg91_5_cif.got.tgz:8021.got - 2010.06.03 19:20:03.
