data_PCOD9548553
_publ_section_title
;
Structure prediction by ZEFSAII (Michael W. Deem and Ramdas Pophale) SiO2 
 PCOD9548553
Probable space group: P 41 2 2
;
_chemical_formula_sum "Si O2"
_cell_formula_units_Z 36
_cell_length_a 11.314933
_cell_length_b 11.314933
_cell_length_c 11.258246
_cell_angle_alpha 90.000000
_cell_angle_beta 90.000000
_cell_angle_gamma 90.000000
_cell_volume 1441.367440
_symmetry_space_group_name_H-M "P 41 2 2"
_symmetry_group_IT_number 91
_symmetry_cell_setting 'tetragonal'
loop_
_space_group_symop_operation_xyz
x,y,z
-y,x,1/4+z
-x,-y,1/2+z
y,-x,3/4+z
x,-y,1/2-z
-x,y,-z
y,x,3/4-z
-y,-x,1/4-z
loop_
_atom_site_type_symbol
_atom_site_label
_atom_site_fract_x
_atom_site_fract_y
_atom_site_fract_z
Si Si1 0.848836 0.169550 0.875036
Si Si2 0.375965 0.728925 0.454159
Si Si3 0.439797 0.065267 0.623296
Si Si4 0.904785 0.904785 0.875000
Si Si5 0.527673 0.685590 0.795511
O O1 0.739215 0.192540 0.963524
O O2 0.918158 0.295842 0.870154
O O3 0.826404 0.136231 0.736461
O O4 0.895006 0.041227 0.914819
O O5 0.500000 0.774361 0.500000
O O6 0.387266 0.709757 0.313439
O O7 0.354038 0.598802 0.503696
O O8 0.500000 0.019805 0.500000
O O9 0.499147 0.194118 0.637086
O O10 0.465735 0.000000 0.750000
O O11 0.585278 0.585278 0.875000
#
# Coordination Sequence:
#
# PCOD9548553 Si02
#       5
#     8   8   8   4   8
#     4  10  25  46  79 113 153 208 278 338 398 492
#     4  11  23  40  68 113 153 203 251 320 400 480
#     4  11  27  48  75 115 159 205 262 341 415 487
#     4  10  24  50  80 112 148 214 288 338 404 482
#     4  11  22  42  71 103 150 202 255 309 388 486
#
# _framework density 24.976282999999999
#
# number of rings (size 3 to 8) (size 9 to 14) (size 15 to 20)
#    0.000    1.333    0.000    5.333    7.778    4.444 
#    0.000    2.222    0.000    0.000    0.000    0.000 
#    0.000    0.000    0.000    0.000    0.000    0.000 
#
# Total GULP energy -201105.878247 kJ/mol
# GULP energy per Si atom -5586.274396 kJ/mol
# Density = 2.491944 g / cm^3
# Si number density = 24.976283 Si / 1000 Ang^3
#
#
#
# Elastic Constant Matrix: (Units=GPa)
#
#
# Indices 1 2 3 4 5 6 
#
# 1 134.7971 74.8807 29.0309 0.0000 0.0000 0.0000
# 2 74.8807 134.7971 29.0309 0.0000 0.0000 0.0000
# 3 29.0309 29.0309 116.2224 0.0000 0.0000 0.0000
# 4 0.0000 0.0000 0.0000 18.7054 0.0000 0.0000
# 5 0.0000 0.0000 0.0000 0.0000 18.7054 0.0000
# 6 0.0000 0.0000 0.0000 0.0000 0.0000 -63.1533
#
#
#
# Elastic Compliance Matrix: (Units=1/GPa)
#
#
# Indices 1 2 3 4 5 6 
#
# 1 0.010907 -0.005783 -0.001280 0.000000 0.000000 0.000000
# 2 -0.005783 0.010907 -0.001280 0.000000 0.000000 0.000000
# 3 -0.001280 -0.001280 0.009244 0.000000 0.000000 0.000000
# 4 0.000000 0.000000 0.000000 0.053460 0.000000 0.000000
# 5 0.000000 0.000000 0.000000 0.000000 0.053460 0.000000
# 6 0.000000 0.000000 0.000000 0.000000 0.000000 -0.015834
#
#
# Mechanical properties :
#
#
# Convention : Reuss Voigt Hill
#
# Bulk Modulus (GPa) = 69.58205 72.41131 70.99668
# Shear Modulus (GPa) = 34.81418 11.70977 23.26197
#
# Velocity S-wave (km/s) = 3.73753 2.16761 3.05513
# Velocity P-wave (km/s) = 6.82241 5.94304 6.39785
#
# Compressibility (1/GPa) = 0.01437152
#
# Stress axis : x y z
#
# Youngs Moduli (GPa) = 91.68620 91.68620 108.18345
#
# Poissons Ratio (x) = 0.53024 0.13846
# Poissons Ratio (y) = 0.53024 0.13846
# Poissons Ratio (z) = 0.11734 0.11734
#
# Static dielectric constant tensor:
#      x y z
#    x 2.064720 0.000000 0.000000 
#    y 0.000000 2.064720 0.000000 
#    z 0.000000 0.000000 1.859280 
# 
# From -- ./inp_files/20043.got.cif
#   From: 2010.05.17/outbox.cif.g08.bks.cpg/sg91_11_cif.got.tgz:20043.got - 2010.06.03 19:20:03.
