data_PCOD9548546
_publ_section_title
;
Structure prediction by ZEFSAII (Michael W. Deem and Ramdas Pophale) SiO2 
 PCOD9548546
Probable space group: P 41 2 2
;
_chemical_formula_sum "Si O2"
_cell_formula_units_Z 40
_cell_length_a 10.795453
_cell_length_b 10.795453
_cell_length_c 16.393759
_cell_angle_alpha 90.000000
_cell_angle_beta 90.000000
_cell_angle_gamma 90.000000
_cell_volume 1910.558272
_symmetry_space_group_name_H-M "P 41 2 2"
_symmetry_group_IT_number 91
_symmetry_cell_setting 'tetragonal'
loop_
_space_group_symop_operation_xyz
x,y,z
-y,x,1/4+z
-x,-y,1/2+z
y,-x,3/4+z
x,-y,1/2-z
-x,y,-z
y,x,3/4-z
-y,-x,1/4-z
loop_
_atom_site_type_symbol
_atom_site_label
_atom_site_fract_x
_atom_site_fract_y
_atom_site_fract_z
Si Si1 0.754646 0.275287 0.535164
Si Si2 0.000000 0.436403 0.500000
Si Si3 0.566594 0.106625 0.086806
Si Si4 0.000000 0.083712 0.000000
Si Si5 0.395344 0.604657 0.625000
Si Si6 0.500000 0.591933 0.000000
Si Si7 0.797712 0.065423 0.406313
O O1 0.780234 0.219767 0.625000
O O2 0.613229 0.328352 0.537626
O O3 0.756077 0.183397 0.457784
O O4 0.872952 0.363738 0.521230
O O5 0.042083 0.505284 0.583489
O O6 0.582743 0.254105 0.097804
O O7 0.698410 0.042003 0.084304
O O8 0.500000 0.083025 0.000000
O O9 0.080473 0.169210 0.061088
O O10 0.916800 0.991425 0.051157
O O11 0.425993 0.500912 0.558460
#
# Coordination Sequence:
#
# PCOD9548546 Si02
#       7
#     8   4   8   4   4   4   8
#     4  12  28  46  78 109 154 198 256 314 389 458
#     4  12  28  50  72 120 150 202 256 320 382 474
#     4  12  27  46  77 108 149 195 252 311 383 456
#     4  10  24  48  70 108 140 190 246 300 386 446
#     4  12  24  50  74 108 152 198 258 312 384 462
#     4  12  26  48  72 112 154 204 252 314 380 456
#     4  11  26  45  75 105 146 189 245 312 374 455
#
# _framework density 20.936288999999999
#
# number of rings (size 3 to 8) (size 9 to 14) (size 15 to 20)
#    0.000    0.400    4.000    3.600   12.600    0.000 
#    3.600    0.000    0.000    0.000    0.000    0.000 
#    0.000    0.000    0.000    0.000    0.000    0.000 
#
# Total GULP energy -223177.732858 kJ/mol
# GULP energy per Si atom -5579.443321 kJ/mol
# Density = 2.088864 g / cm^3
# Si number density = 20.936289 Si / 1000 Ang^3
#
#
#
# Elastic Constant Matrix: (Units=GPa)
#
#
# Indices 1 2 3 4 5 6 
#
# 1 87.2193 29.8847 31.1200 0.0000 0.0000 0.0000
# 2 29.8847 87.2197 31.1203 0.0000 0.0000 0.0000
# 3 31.1200 31.1203 137.7675 0.0000 0.0000 0.0000
# 4 0.0000 0.0000 0.0000 35.0064 0.0000 0.0000
# 5 0.0000 0.0000 0.0000 0.0000 35.0071 0.0000
# 6 0.0000 0.0000 0.0000 0.0000 0.0000 17.3320
#
#
#
# Elastic Compliance Matrix: (Units=1/GPa)
#
#
# Indices 1 2 3 4 5 6 
#
# 1 0.013573 -0.003868 -0.002192 0.000000 0.000000 0.000000
# 2 -0.003868 0.013573 -0.002192 0.000000 0.000000 0.000000
# 3 -0.002192 -0.002192 0.008249 0.000000 0.000000 0.000000
# 4 0.000000 0.000000 0.000000 0.028566 0.000000 0.000000
# 5 0.000000 0.000000 0.000000 0.000000 0.028566 0.000000
# 6 0.000000 0.000000 0.000000 0.000000 0.000000 0.057697
#
#
# Mechanical properties :
#
#
# Convention : Reuss Voigt Hill
#
# Bulk Modulus (GPa) = 52.93966 55.16182 54.05074
# Shear Modulus (GPa) = 28.89750 32.14120 30.51935
#
# Velocity S-wave (km/s) = 3.71921 3.92240 3.82216
# Velocity P-wave (km/s) = 6.61698 6.84969 6.73434
#
# Compressibility (1/GPa) = 0.01888943
#
# Stress axis : x y z
#
# Youngs Moduli (GPa) = 73.67569 73.67601 121.22728
#
# Poissons Ratio (x) = 0.28501 0.26575
# Poissons Ratio (y) = 0.28501 0.26575
# Poissons Ratio (z) = 0.16151 0.16151
#
# Static dielectric constant tensor:
#      x y z
#    x 1.805300 0.000000 0.000000 
#    y 0.000000 1.805280 0.000000 
#    z 0.000000 0.000000 1.851520 
# 
# From -- ./inp_files/20718.got.cif
#   From: 2010.05.17/outbox.cif.g08.bks.cpg/sg91_11_cif.got.tgz:20718.got - 2010.06.03 19:20:03.
