data_PCOD9548137
_publ_section_title
;
Structure prediction by ZEFSAII (Michael W. Deem and Ramdas Pophale) SiO2 
 PCOD9548137
Probable space group: P 41 2 2
;
_chemical_formula_sum "Si O2"
_cell_formula_units_Z 64
_cell_length_a 11.695147
_cell_length_b 11.695147
_cell_length_c 22.742162
_cell_angle_alpha 90.000000
_cell_angle_beta 90.000000
_cell_angle_gamma 90.000000
_cell_volume 3110.592487
_symmetry_space_group_name_H-M "P 41 2 2"
_symmetry_group_IT_number 91
_symmetry_cell_setting 'tetragonal'
loop_
_space_group_symop_operation_xyz
x,y,z
-y,x,1/4+z
-x,-y,1/2+z
y,-x,3/4+z
x,-y,1/2-z
-x,y,-z
y,x,3/4-z
-y,-x,1/4-z
loop_
_atom_site_type_symbol
_atom_site_label
_atom_site_fract_x
_atom_site_fract_y
_atom_site_fract_z
Si Si1 0.678847 0.036418 0.314122
Si Si2 0.951450 0.313528 0.739946
Si Si3 0.849883 0.663561 0.878686
Si Si4 0.431230 0.806223 0.911167
Si Si5 0.359756 0.783828 0.669289
Si Si6 0.763930 0.370932 0.397949
Si Si7 0.876877 0.243336 0.499050
Si Si8 0.246370 0.200907 0.027601
O O1 0.603411 0.120012 0.353704
O O2 0.791180 0.115405 0.302778
O O3 0.631507 0.000000 0.250000
O O4 0.685367 0.912730 0.344255
O O5 0.950418 0.341902 0.669781
O O6 0.894083 0.403429 0.785415
O O7 0.858167 0.213291 0.745257
O O8 0.080557 0.275471 0.753077
O O9 0.782294 0.782294 0.875000
O O10 0.773561 0.561603 0.851792
O O11 0.873840 0.663186 0.948031
O O12 0.353998 0.693306 0.916779
O O13 0.303736 0.696265 0.625000
O O14 0.495845 0.774206 0.662302
O O15 0.248273 0.692876 0.517258
O O16 0.856079 0.306385 0.437974
O O17 0.780229 0.335926 0.330207
O O18 0.000000 0.188145 0.500000
#
# Coordination Sequence:
#
# PCOD9548137 Si02
#       8
#     8   8   8   8   8   8   8   8
#     4   9  21  37  61  92 119 162 210 258 318 386
#     4  10  21  40  59  94 127 162 215 265 331 396
#     4  10  22  37  60  90 122 163 214 261 323 390
#     4  10  21  39  62  89 126 167 216 268 327 391
#     4  11  24  41  62  94 126 170 220 263 332 400
#     4  10  24  40  62  93 126 166 218 269 322 397
#     4  10  22  36  61  93 125 165 209 264 325 393
#     4  10  22  42  64  94 132 166 216 271 331 391
#
# _framework density 20.574857999999999
#
# number of rings (size 3 to 8) (size 9 to 14) (size 15 to 20)
#    0.000    2.000    0.000    1.875    8.750    2.500 
#    2.250    1.875    8.250    0.000    0.000    0.000 
#    0.000    0.000    0.000    0.000    0.000    0.000 
#
# Total GULP energy -356327.895877 kJ/mol
# GULP energy per Si atom -5567.623373 kJ/mol
# Density = 2.052803 g / cm^3
# Si number density = 20.574858 Si / 1000 Ang^3
#
#
#
# Elastic Constant Matrix: (Units=GPa)
#
#
# Indices 1 2 3 4 5 6 
#
# 1 78.7522 32.2773 30.0038 0.0000 0.0000 0.0000
# 2 32.2773 78.7541 30.0047 0.0000 0.0000 0.0000
# 3 30.0038 30.0047 104.3581 0.0000 0.0000 0.0000
# 4 0.0000 0.0000 0.0000 26.2299 0.0000 0.0000
# 5 0.0000 0.0000 0.0000 0.0000 26.2299 0.0000
# 6 0.0000 0.0000 0.0000 0.0000 0.0000 -2.6641
#
#
#
# Elastic Compliance Matrix: (Units=1/GPa)
#
#
# Indices 1 2 3 4 5 6 
#
# 1 0.016090 -0.005426 -0.003066 0.000000 0.000000 0.000000
# 2 -0.005426 0.016090 -0.003066 0.000000 0.000000 0.000000
# 3 -0.003066 -0.003066 0.011345 0.000000 0.000000 0.000000
# 4 0.000000 0.000000 0.000000 0.038124 0.000000 0.000000
# 5 0.000000 0.000000 0.000000 0.000000 0.038124 0.000000
# 6 0.000000 0.000000 0.000000 0.000000 0.000000 -0.375364
#
#
# Mechanical properties :
#
#
# Convention : Reuss Voigt Hill
#
# Bulk Modulus (GPa) = 48.99834 49.60403 49.30119
# Shear Modulus (GPa) = -22.15622 21.26439 -0.44592
#
# Velocity S-wave (km/s) = -3.28511 3.21832 -0.46605
# Velocity P-wave (km/s) = 3.07849 6.16210 4.87076
#
# Compressibility (1/GPa) = 0.02040885
#
# Stress axis : x y z
#
# Youngs Moduli (GPa) = 62.14962 62.15084 88.14173
#
# Poissons Ratio (x) = 0.33726 0.27023
# Poissons Ratio (y) = 0.33725 0.27024
# Poissons Ratio (z) = 0.19054 0.19055
#
# Static dielectric constant tensor:
#      x y z
#    x 1.747060 0.000000 0.000000 
#    y 0.000000 1.747060 0.000000 
#    z 0.000000 0.000000 1.820440 
# 
# From -- ./inp_files/17660.got.cif
#   From: 2010.05.17/outbox.cif.g08.bks.cpg/sg91_9_cif.got.tgz:17660.got - 2010.06.03 19:20:03.
