data_PCOD9548596
_publ_section_title
;
Structure prediction by ZEFSAII (Michael W. Deem and Ramdas Pophale) SiO2 
 PCOD9548596
Probable space group: P 41 2 2
;
_chemical_formula_sum "Si O2"
_cell_formula_units_Z 64
_cell_length_a 16.784656
_cell_length_b 16.784656
_cell_length_c 13.266271
_cell_angle_alpha 90.000000
_cell_angle_beta 90.000000
_cell_angle_gamma 90.000000
_cell_volume 3737.435913
_symmetry_space_group_name_H-M "P 41 2 2"
_symmetry_group_IT_number 91
_symmetry_cell_setting 'tetragonal'
loop_
_space_group_symop_operation_xyz
x,y,z
-y,x,1/4+z
-x,-y,1/2+z
y,-x,3/4+z
x,-y,1/2-z
-x,y,-z
y,x,3/4-z
-y,-x,1/4-z
loop_
_atom_site_type_symbol
_atom_site_label
_atom_site_fract_x
_atom_site_fract_y
_atom_site_fract_z
Si Si1 0.799734 0.324829 0.592918
Si Si2 0.622625 0.047914 0.551195
Si Si3 0.674799 0.554826 0.997821
Si Si4 0.175912 0.526798 0.579892
Si Si5 0.648359 0.121467 0.872100
Si Si6 0.604500 0.588749 0.199897
Si Si7 0.548507 0.938986 0.159198
Si Si8 0.239515 0.670133 0.704656
O O1 0.754056 0.245945 0.625000
O O2 0.865995 0.341333 0.676356
O O3 0.730257 0.391700 0.574459
O O4 0.850679 0.325912 0.489146
O O5 0.538391 0.052450 0.610249
O O6 0.607549 0.043119 0.431958
O O7 0.665369 0.969117 0.594771
O O8 0.619989 0.485660 0.955074
O O9 0.736616 0.507240 0.067782
O O10 0.626072 0.601215 0.082340
O O11 0.128542 0.449538 0.621601
O O12 0.144289 0.550726 0.469234
O O13 0.185768 0.602259 0.650626
O O14 0.686637 0.186178 0.947293
O O15 0.605467 0.500000 0.250000
O O16 0.674025 0.636483 0.259766
O O17 0.559628 0.000000 0.250000
O O18 0.260675 0.739326 0.625000
#
# Coordination Sequence:
#
# PCOD9548596 Si02
#       8
#     8   8   8   8   8   8   8   8
#     4  11  24  42  57  81 113 155 196 242 307 359
#     4  11  22  37  62  83 113 151 189 236 302 362
#     4  11  23  35  52  68 106 146 204 259 301 339
#     4  11  19  32  52  78 108 144 191 246 296 348
#     4  11  21  38  58  82 114 149 196 243 294 364
#     4  12  20  36  51  72  99 149 211 266 296 336
#     4  11  20  33  54  86 112 142 187 240 291 354
#     4  12  21  32  56  82 110 153 198 248 303 349
#
# _framework density 17.124040000000001
#
# number of rings (size 3 to 8) (size 9 to 14) (size 15 to 20)
#    0.000    0.750    8.750    1.875    1.750    3.000 
#    0.000    0.000    0.000    0.000    0.000    0.000 
#    0.000    4.000    0.000    0.000    0.000    0.000 
#
# Total GULP energy -356661.003304 kJ/mol
# GULP energy per Si atom -5572.828177 kJ/mol
# Density = 1.708507 g / cm^3
# Si number density = 17.124040 Si / 1000 Ang^3
#
#
#
# Elastic Constant Matrix: (Units=GPa)
#
#
# Indices 1 2 3 4 5 6 
#
# 1 233.2908 -146.2206 27.3893 0.0000 0.0000 0.0000
# 2 -146.2206 233.2663 27.3239 0.0000 0.0000 0.0000
# 3 27.3893 27.3239 83.1489 0.0000 0.0000 0.0000
# 4 0.0000 0.0000 0.0000 25.2675 0.0000 0.0000
# 5 0.0000 0.0000 0.0000 0.0000 25.2670 0.0000
# 6 0.0000 0.0000 0.0000 0.0000 0.0000 8.1997
#
#
#
# Elastic Compliance Matrix: (Units=1/GPa)
#
#
# Indices 1 2 3 4 5 6 
#
# 1 0.008558 0.005923 -0.004765 0.000000 0.000000 0.000000
# 2 0.005923 0.008558 -0.004763 0.000000 0.000000 0.000000
# 3 -0.004765 -0.004763 0.015162 0.000000 0.000000 0.000000
# 4 0.000000 0.000000 0.000000 0.039576 0.000000 0.000000
# 5 0.000000 0.000000 0.000000 0.000000 0.039577 0.000000
# 6 0.000000 0.000000 0.000000 0.000000 0.000000 0.121955
#
#
# Mechanical properties :
#
#
# Convention : Reuss Voigt Hill
#
# Bulk Modulus (GPa) = 39.89462 40.74347 40.31905
# Shear Modulus (GPa) = 20.08409 54.49441 37.28925
#
# Velocity S-wave (km/s) = 3.42842 5.64734 4.67153
# Velocity P-wave (km/s) = 6.24661 8.14666 7.25907
#
# Compressibility (1/GPa) = 0.02506604
#
# Stress axis : x y z
#
# Youngs Moduli (GPa) = 116.84594 116.85556 65.95620
#
# Poissons Ratio (x) = -0.69212 0.31431
# Poissons Ratio (y) = -0.69206 0.31416
# Poissons Ratio (z) = 0.55682 0.55660
#
# Static dielectric constant tensor:
#      x y z
#    x 1.646330 0.000000 0.000000 
#    y 0.000000 1.646330 0.000000 
#    z 0.000000 0.000000 1.640530 
# 
# From -- ./inp_files/20433.got.cif
#   From: 2010.05.17/outbox.cif.g08.bks.cpg/sg91_11_cif.got.tgz:20433.got - 2010.06.03 19:20:03.
