data_PCOD9548190
_publ_section_title
;
Structure prediction by ZEFSAII (Michael W. Deem and Ramdas Pophale) SiO2 
 PCOD9548190
Probable space group: P 41 2 2
;
_chemical_formula_sum "Si O2"
_cell_formula_units_Z 48
_cell_length_a 8.619841
_cell_length_b 8.619841
_cell_length_c 26.444174
_cell_angle_alpha 90.000000
_cell_angle_beta 90.000000
_cell_angle_gamma 90.000000
_cell_volume 1964.845996
_symmetry_space_group_name_H-M "P 41 2 2"
_symmetry_group_IT_number 91
_symmetry_cell_setting 'tetragonal'
loop_
_space_group_symop_operation_xyz
x,y,z
-y,x,1/4+z
-x,-y,1/2+z
y,-x,3/4+z
x,-y,1/2-z
-x,y,-z
y,x,3/4-z
-y,-x,1/4-z
loop_
_atom_site_type_symbol
_atom_site_label
_atom_site_fract_x
_atom_site_fract_y
_atom_site_fract_z
Si Si1 0.500000 0.170408 0.500000
Si Si2 0.262019 0.096086 0.992089
Si Si3 0.979951 0.560738 0.915079
Si Si4 0.682839 0.000000 0.250000
Si Si5 0.270823 0.589865 0.361392
Si Si6 0.440394 0.233186 0.904507
Si Si7 0.093609 0.107948 0.588123
O O1 0.458325 0.266103 0.551481
O O2 0.642580 0.051600 0.512902
O O3 0.383033 0.201836 0.960701
O O4 0.142991 0.014968 0.953446
O O5 0.146666 0.215666 0.019119
O O6 0.074945 0.516885 0.864797
O O7 0.019490 0.733115 0.932244
O O8 0.804220 0.537265 0.898132
O O9 0.040534 0.435229 0.955048
O O10 0.428812 0.645593 0.387451
O O11 0.161516 0.743366 0.362373
O O12 0.286164 0.286164 0.875000
O O13 0.973316 0.026685 0.625000
#
# Coordination Sequence:
#
# PCOD9548190 Si02
#       7
#     4   8   8   4   8   8   8
#     4  10  22  44  68 108 140 182 242 302 362 434
#     4  11  23  42  73 103 139 186 247 299 364 435
#     4  11  23  42  67 100 141 179 238 294 366 421
#     4  12  26  40  70 108 138 188 240 310 356 450
#     4  10  23  41  70  98 139 188 229 300 360 434
#     4  11  21  44  69  96 138 185 230 285 360 442
#     4  10  21  41  70  99 133 187 234 295 355 432
#
# _framework density 24.429393999999998
#
# number of rings (size 3 to 8) (size 9 to 14) (size 15 to 20)
#    0.000    1.333    5.000    1.500    2.333    2.667 
#    0.000    9.167    0.000    0.000    0.000    0.000 
#    0.000    0.000    0.000    0.000    0.000    0.000 
#
# Total GULP energy -268103.882227 kJ/mol
# GULP energy per Si atom -5585.497546 kJ/mol
# Density = 2.437379 g / cm^3
# Si number density = 24.429394 Si / 1000 Ang^3
#
#
#
# Elastic Constant Matrix: (Units=GPa)
#
#
# Indices 1 2 3 4 5 6 
#
# 1 96.7268 44.9007 32.2945 0.0000 0.0000 0.0000
# 2 44.9007 96.7259 32.2943 0.0000 0.0000 0.0000
# 3 32.2945 32.2943 65.9201 0.0000 0.0000 0.0000
# 4 0.0000 0.0000 0.0000 25.7801 0.0000 0.0000
# 5 0.0000 0.0000 0.0000 0.0000 25.7802 0.0000
# 6 0.0000 0.0000 0.0000 0.0000 0.0000 3.9521
#
#
#
# Elastic Compliance Matrix: (Units=1/GPa)
#
#
# Indices 1 2 3 4 5 6 
#
# 1 0.014194 -0.005102 -0.004454 0.000000 0.000000 0.000000
# 2 -0.005102 0.014194 -0.004454 0.000000 0.000000 0.000000
# 3 -0.004454 -0.004454 0.019534 0.000000 0.000000 0.000000
# 4 0.000000 0.000000 0.000000 0.038790 0.000000 0.000000
# 5 0.000000 0.000000 0.000000 0.000000 0.038789 0.000000
# 6 0.000000 0.000000 0.000000 0.000000 0.000000 0.253027
#
#
# Mechanical properties :
#
#
# Convention : Reuss Voigt Hill
#
# Bulk Modulus (GPa) = 50.24762 53.15019 51.69891
# Shear Modulus (GPa) = 12.10119 21.09471 16.59795
#
# Velocity S-wave (km/s) = 2.22807 2.94172 2.60941
# Velocity P-wave (km/s) = 5.21845 5.77427 5.50338
#
# Compressibility (1/GPa) = 0.01990144
#
# Stress axis : x y z
#
# Youngs Moduli (GPa) = 70.45352 70.45297 51.19226
#
# Poissons Ratio (x) = 0.35943 0.22802
# Poissons Ratio (y) = 0.35943 0.22802
# Poissons Ratio (z) = 0.31382 0.31382
#
# Static dielectric constant tensor:
#      x y z
#    x 2.011330 0.000000 0.000000 
#    y 0.000000 2.011330 0.000000 
#    z 0.000000 0.000000 3.043430 
# 
# From -- ./inp_files/8012.got.cif
#   From: 2010.05.17/outbox.cif.g08.bks.cpg/sg91_5_cif.got.tgz:8012.got - 2010.06.03 19:20:03.
