data_PCOD9548791
_publ_section_title
;
Structure prediction by ZEFSAII (Michael W. Deem and Ramdas Pophale) SiO2 
 PCOD9548791
Probable space group: P 41 2 2
;
_chemical_formula_sum "Si O2"
_cell_formula_units_Z 48
_cell_length_a 8.713215
_cell_length_b 8.713215
_cell_length_c 29.458970
_cell_angle_alpha 90.000000
_cell_angle_beta 90.000000
_cell_angle_gamma 90.000000
_cell_volume 2236.528409
_symmetry_space_group_name_H-M "P 41 2 2"
_symmetry_group_IT_number 91
_symmetry_cell_setting 'tetragonal'
loop_
_space_group_symop_operation_xyz
x,y,z
-y,x,1/4+z
-x,-y,1/2+z
y,-x,3/4+z
x,-y,1/2-z
-x,y,-z
y,x,3/4-z
-y,-x,1/4-z
loop_
_atom_site_type_symbol
_atom_site_label
_atom_site_fract_x
_atom_site_fract_y
_atom_site_fract_z
Si Si1 0.200439 0.800658 0.176209
Si Si2 0.988188 0.240220 0.246419
Si Si3 0.800717 0.573808 0.676519
Si Si4 0.246798 0.000000 0.750000
Si Si5 0.551938 0.179100 0.323184
Si Si6 0.500000 0.778567 0.500000
Si Si7 0.449298 0.448781 0.823518
O O1 0.155281 0.844719 0.125000
O O2 0.199058 0.612881 0.179416
O O3 0.372720 0.860941 0.182587
O O4 0.089465 0.846977 0.216407
O O5 0.866213 0.122450 0.226221
O O6 0.888065 0.372322 0.271840
O O7 0.094112 0.332780 0.211178
O O8 0.849948 0.606080 0.624776
O O9 0.620883 0.611971 0.685110
O O10 0.348319 0.908781 0.786413
O O11 0.551408 0.364996 0.320177
O O12 0.409635 0.672991 0.535487
O O13 0.407113 0.407113 0.875000
#
# Coordination Sequence:
#
# PCOD9548791 Si02
#       7
#     8   8   8   4   8   4   8
#     4   9  19  40  68  93 120 175 240 275 312 392
#     4  12  24  40  63  99 137 174 211 270 348 405
#     4   9  19  39  70  94 117 174 238 275 316 391
#     4  12  26  42  58  98 148 178 204 274 356 398
#     4   9  20  41  65  90 130 174 226 280 317 396
#     4  12  22  38  66  98 136 168 216 284 336 392
#     4   9  20  40  66  96 122 169 234 280 320 383
#
# _framework density 21.461831
#
# number of rings (size 3 to 8) (size 9 to 14) (size 15 to 20)
#    0.000    2.000    3.333    2.000    4.667    1.333 
#    6.000    0.000    0.000    0.000    0.000    0.000 
#    0.000    0.000    0.000    0.000    0.000    0.000 
#
# Total GULP energy -267861.832421 kJ/mol
# GULP energy per Si atom -5580.454842 kJ/mol
# Density = 2.141298 g / cm^3
# Si number density = 21.461831 Si / 1000 Ang^3
#
#
#
# Elastic Constant Matrix: (Units=GPa)
#
#
# Indices 1 2 3 4 5 6 
#
# 1 74.9478 46.7120 68.6488 0.0000 0.0000 0.0000
# 2 46.7120 74.9475 68.6488 0.0000 0.0000 0.0000
# 3 68.6488 68.6488 141.2300 0.0000 0.0000 0.0000
# 4 0.0000 0.0000 0.0000 18.0375 0.0000 0.0000
# 5 0.0000 0.0000 0.0000 0.0000 18.0376 0.0000
# 6 0.0000 0.0000 0.0000 0.0000 0.0000 36.9119
#
#
#
# Elastic Compliance Matrix: (Units=1/GPa)
#
#
# Indices 1 2 3 4 5 6 
#
# 1 0.026812 -0.008604 -0.008850 0.000000 0.000000 0.000000
# 2 -0.008604 0.026812 -0.008850 0.000000 0.000000 0.000000
# 3 -0.008850 -0.008850 0.015685 0.000000 0.000000 0.000000
# 4 0.000000 0.000000 0.000000 0.055440 0.000000 0.000000
# 5 0.000000 0.000000 0.000000 0.000000 0.055440 0.000000
# 6 0.000000 0.000000 0.000000 0.000000 0.000000 0.027092
#
#
# Mechanical properties :
#
#
# Convention : Reuss Voigt Hill
#
# Bulk Modulus (GPa) = 59.88583 73.23829 66.56206
# Shear Modulus (GPa) = 18.83553 21.73843 20.28698
#
# Velocity S-wave (km/s) = 2.96569 3.18604 3.07784
# Velocity P-wave (km/s) = 6.30009 6.90894 6.61153
#
# Compressibility (1/GPa) = 0.01669844
#
# Stress axis : x y z
#
# Youngs Moduli (GPa) = 37.29698 37.29681 63.75716
#
# Poissons Ratio (x) = 0.32091 0.56427
# Poissons Ratio (y) = 0.32092 0.56427
# Poissons Ratio (z) = 0.33009 0.33009
#
# Static dielectric constant tensor:
#      x y z
#    x 1.811420 0.000000 0.000000 
#    y 0.000000 1.811420 0.000000 
#    z 0.000000 0.000000 1.772720 
# 
# From -- ./inp_files/18217.got.cif
#   From: 2010.05.17/outbox.cif.g08.bks.cpg/sg91_10_cif.got.tgz:18217.got - 2010.06.03 19:20:03.
