data_PCOD9548170
_publ_section_title
;
Structure prediction by ZEFSAII (Michael W. Deem and Ramdas Pophale) SiO2 
 PCOD9548170
Probable space group: P 41 2 2
;
_chemical_formula_sum "Si O2"
_cell_formula_units_Z 36
_cell_length_a 11.914152
_cell_length_b 11.914152
_cell_length_c 12.368034
_cell_angle_alpha 90.000000
_cell_angle_beta 90.000000
_cell_angle_gamma 90.000000
_cell_volume 1755.605543
_symmetry_space_group_name_H-M "P 41 2 2"
_symmetry_group_IT_number 91
_symmetry_cell_setting 'tetragonal'
loop_
_space_group_symop_operation_xyz
x,y,z
-y,x,1/4+z
-x,-y,1/2+z
y,-x,3/4+z
x,-y,1/2-z
-x,y,-z
y,x,3/4-z
-y,-x,1/4-z
loop_
_atom_site_type_symbol
_atom_site_label
_atom_site_fract_x
_atom_site_fract_y
_atom_site_fract_z
Si Si1 0.095474 0.500000 0.250000
Si Si2 0.866230 0.586628 0.976316
Si Si3 0.790707 0.810910 0.634184
Si Si4 0.972609 0.725981 0.310800
Si Si5 0.357626 0.223734 0.795707
O O1 0.156914 0.443316 0.351485
O O2 0.020142 0.601014 0.294568
O O3 0.828702 0.708693 0.015024
O O4 0.805846 0.487791 0.043019
O O5 0.000000 0.577970 0.000000
O O6 0.764120 0.907805 0.546784
O O7 0.759322 0.695096 0.572454
O O8 0.921183 0.803591 0.664096
O O9 0.883552 0.711200 0.407050
O O10 0.324600 0.324600 0.875000
#
# Coordination Sequence:
#
# PCOD9548170 Si02
#       5
#     4   8   8   8   8
#     4  12  22  40  70  88 132 170 226 288 314 386
#     4  12  22  41  64  97 127 171 226 275 320 395
#     4  11  23  39  66  96 132 176 223 266 335 409
#     4  11  21  40  65  98 129 177 218 274 337 397
#     4  10  21  40  69  96 128 171 220 279 328 392
#
# _framework density 20.505747
#
# number of rings (size 3 to 8) (size 9 to 14) (size 15 to 20)
#    0.000    0.889    6.667    0.667    0.000    3.556 
#    0.000    8.889    0.000    2.667    0.000    0.000 
#    0.000    0.000    0.000    0.000    0.000    0.000 
#
# Total GULP energy -201153.806630 kJ/mol
# GULP energy per Si atom -5587.605740 kJ/mol
# Density = 2.045908 g / cm^3
# Si number density = 20.505747 Si / 1000 Ang^3
#
#
#
# Elastic Constant Matrix: (Units=GPa)
#
#
# Indices 1 2 3 4 5 6 
#
# 1 64.5120 8.6396 19.2950 0.0000 0.0000 0.0000
# 2 8.6396 64.5120 19.2950 0.0000 0.0000 0.0000
# 3 19.2950 19.2950 94.3721 0.0000 0.0000 0.0000
# 4 0.0000 0.0000 0.0000 33.1117 0.0000 0.0000
# 5 0.0000 0.0000 0.0000 0.0000 33.1117 0.0000
# 6 0.0000 0.0000 0.0000 0.0000 0.0000 22.7370
#
#
#
# Elastic Compliance Matrix: (Units=1/GPa)
#
#
# Indices 1 2 3 4 5 6 
#
# 1 0.016610 -0.001287 -0.003133 0.000000 0.000000 0.000000
# 2 -0.001287 0.016610 -0.003133 0.000000 0.000000 0.000000
# 3 -0.003133 -0.003133 0.011877 0.000000 0.000000 0.000000
# 4 0.000000 0.000000 0.000000 0.030201 0.000000 0.000000
# 5 0.000000 0.000000 0.000000 0.000000 0.030201 0.000000
# 6 0.000000 0.000000 0.000000 0.000000 0.000000 0.043981
#
#
# Mechanical properties :
#
#
# Convention : Reuss Voigt Hill
#
# Bulk Modulus (GPa) = 33.34243 35.31725 34.32984
# Shear Modulus (GPa) = 28.63936 29.53650 29.08793
#
# Velocity S-wave (km/s) = 3.74123 3.79938 3.77042
# Velocity P-wave (km/s) = 5.91251 6.04215 5.97768
#
# Compressibility (1/GPa) = 0.02999181
#
# Stress axis : x y z
#
# Youngs Moduli (GPa) = 60.20309 60.20309 84.19325
#
# Poissons Ratio (x) = 0.07751 0.26377
# Poissons Ratio (y) = 0.07751 0.26377
# Poissons Ratio (z) = 0.18861 0.18861
#
# Static dielectric constant tensor:
#      x y z
#    x 1.726590 0.000000 0.000000 
#    y 0.000000 1.726590 0.000000 
#    z 0.000000 0.000000 1.796620 
# 
# From -- ./inp_files/3541.got.cif
#   From: 2010.05.17/outbox.cif.g08.bks.cpg/sg91_2_cif.got.tgz:3541.got - 2010.06.03 19:20:03.
