data_PCOD9548965
_publ_section_title
;
Structure prediction by ZEFSAII (Michael W. Deem and Ramdas Pophale) SiO2 
 PCOD9548965
Probable space group: P 41 21 2
;
_chemical_formula_sum "Si O2"
_cell_formula_units_Z 48
_cell_length_a 9.404295
_cell_length_b 9.404295
_cell_length_c 26.742469
_cell_angle_alpha 90.000000
_cell_angle_beta 90.000000
_cell_angle_gamma 90.000000
_cell_volume 2365.124402
_symmetry_space_group_name_H-M "P 41 21 2"
_symmetry_group_IT_number 92
_symmetry_cell_setting 'tetragonal'
loop_
_space_group_symop_operation_xyz
x,y,z
1/2-y,1/2+x,1/4+z
-x,-y,1/2+z
1/2+y,1/2-x,3/4+z
1/2+x,1/2-y,3/4-z
1/2-x,1/2+y,1/4-z
y,x,-z
-y,-x,1/2-z
loop_
_atom_site_type_symbol
_atom_site_label
_atom_site_fract_x
_atom_site_fract_y
_atom_site_fract_z
Si Si1 0.976223 0.710707 0.678094
Si Si2 0.952652 0.741795 0.974737
Si Si3 0.648438 0.190976 0.950133
Si Si4 0.975681 0.707940 0.401603
Si Si5 0.112257 0.335608 0.013215
Si Si6 0.892237 0.025631 0.411427
O O1 0.093442 0.614453 0.705705
O O2 0.056094 0.821805 0.642104
O O3 0.851953 0.793840 0.708917
O O4 0.880390 0.616606 0.639868
O O5 0.018241 0.842179 0.931614
O O6 0.825173 0.825173 0.000000
O O7 0.076865 0.729911 0.016352
O O8 0.642643 0.171389 0.889789
O O9 0.486430 0.157485 0.965365
O O10 0.955310 0.657092 0.458304
O O11 0.982047 0.879111 0.404123
O O12 0.018317 0.230414 0.048081
O O13 0.256271 0.256271 0.000000
#
# Coordination Sequence:
#
# PCOD9548965 Si02
#       6
#     8   8   8   8   8   8
#     4  11  23  41  67 101 130 175 229 285 337 411
#     4  12  26  44  66  96 142 187 219 278 355 409
#     4  11  23  39  68  96 133 170 223 284 332 405
#     4  10  20  40  66  94 125 170 227 276 331 397
#     4  10  19  38  65  93 125 170 224 274 329 392
#     4  10  22  42  67  94 133 178 229 273 340 415
#
# _framework density 20.294917999999999
#
# number of rings (size 3 to 8) (size 9 to 14) (size 15 to 20)
#    0.000    1.333    3.333    3.500    0.000    2.000 
#    0.000    0.000    0.000    0.000    0.000    0.000 
#    0.000    0.000    0.000    0.000    0.000    0.000 
#
# Total GULP energy -267326.951475 kJ/mol
# GULP energy per Si atom -5569.311489 kJ/mol
# Density = 2.024873 g / cm^3
# Si number density = 20.294918 Si / 1000 Ang^3
#
#
#
# Elastic Constant Matrix: (Units=GPa)
#
#
# Indices 1 2 3 4 5 6 
#
# 1 79.7529 32.2350 13.0461 0.0000 0.0000 0.0000
# 2 32.2350 79.7529 13.0461 0.0000 0.0000 0.0000
# 3 13.0461 13.0461 55.4429 0.0000 0.0000 0.0000
# 4 0.0000 0.0000 0.0000 37.6550 0.0000 0.0000
# 5 0.0000 0.0000 0.0000 0.0000 37.6550 0.0000
# 6 0.0000 0.0000 0.0000 0.0000 0.0000 19.8339
#
#
#
# Elastic Compliance Matrix: (Units=1/GPa)
#
#
# Indices 1 2 3 4 5 6 
#
# 1 0.015246 -0.005799 -0.002223 0.000000 0.000000 0.000000
# 2 -0.005799 0.015246 -0.002223 0.000000 0.000000 0.000000
# 3 -0.002223 -0.002223 0.019083 0.000000 0.000000 0.000000
# 4 0.000000 0.000000 0.000000 0.026557 0.000000 0.000000
# 5 0.000000 0.000000 0.000000 0.000000 0.026557 0.000000
# 6 0.000000 0.000000 0.000000 0.000000 0.000000 0.050419
#
#
# Mechanical properties :
#
#
# Convention : Reuss Voigt Hill
#
# Bulk Modulus (GPa) = 34.38136 36.84477 35.61307
# Shear Modulus (GPa) = 27.27885 29.47021 28.37453
#
# Velocity S-wave (km/s) = 3.67020 3.81477 3.74319
# Velocity P-wave (km/s) = 5.91085 6.13167 6.02228
#
# Compressibility (1/GPa) = 0.02908553
#
# Stress axis : x y z
#
# Youngs Moduli (GPa) = 65.59057 65.59057 52.40325
#
# Poissons Ratio (x) = 0.38033 0.11650
# Poissons Ratio (y) = 0.38033 0.11650
# Poissons Ratio (z) = 0.14581 0.14581
#
# Static dielectric constant tensor:
#      x y z
#    x 1.783900 0.000000 0.000000 
#    y 0.000000 1.783900 0.000000 
#    z 0.000000 0.000000 1.889250 
# 
# From -- ./inp_files/4482.got.cif
#   From: 2010.05.17/outbox.cif.g08.bks.cpg/sg92_3_cif.got.tgz:4482.got - 2010.06.03 19:35:17.
