data_PCOD9548327
_publ_section_title
;
Structure prediction by ZEFSAII (Michael W. Deem and Ramdas Pophale) SiO2 
 PCOD9548327
Probable space group: P 41 2 2
;
_chemical_formula_sum "Si O2"
_cell_formula_units_Z 40
_cell_length_a 8.744756
_cell_length_b 8.744756
_cell_length_c 24.179745
_cell_angle_alpha 90.000000
_cell_angle_beta 90.000000
_cell_angle_gamma 90.000000
_cell_volume 1849.043416
_symmetry_space_group_name_H-M "P 41 2 2"
_symmetry_group_IT_number 91
_symmetry_cell_setting 'tetragonal'
loop_
_space_group_symop_operation_xyz
x,y,z
-y,x,1/4+z
-x,-y,1/2+z
y,-x,3/4+z
x,-y,1/2-z
-x,y,-z
y,x,3/4-z
-y,-x,1/4-z
loop_
_atom_site_type_symbol
_atom_site_label
_atom_site_fract_x
_atom_site_fract_y
_atom_site_fract_z
Si Si1 0.208349 0.349378 0.325590
Si Si2 0.799067 0.674713 0.624565
Si Si3 0.828419 0.354148 0.476626
Si Si4 0.605720 0.150965 0.947752
Si Si5 0.617721 0.152635 0.147172
O O1 0.228173 0.228173 0.375000
O O2 0.261362 0.511301 0.352013
O O3 0.309174 0.291638 0.274251
O O4 0.030697 0.361265 0.307097
O O5 0.757939 0.792814 0.674302
O O6 0.751524 0.746479 0.565386
O O7 0.975434 0.637828 0.614968
O O8 0.817417 0.529209 0.454469
O O9 0.000000 0.331504 0.500000
O O10 0.505923 0.210200 0.896662
O O11 0.500000 0.176596 0.000000
O O12 0.769366 0.230635 0.125000
#
# Coordination Sequence:
#
# PCOD9548327 Si02
#       5
#     8   8   8   8   8
#     4  11  22  41  66  94 128 168 220 273 326 397
#     4  10  22  41  66  96 130 171 220 274 331 400
#     4  11  23  42  66  93 130 175 222 276 336 405
#     4  10  22  42  63  91 131 169 212 268 325 389
#     4  10  23  42  62  92 130 167 217 275 331 395
#
# _framework density 21.632807
#
# number of rings (size 3 to 8) (size 9 to 14) (size 15 to 20)
#    0.000    1.600    0.000    6.600    0.000    8.800 
#    0.000    6.000    0.000    0.000    0.000    0.000 
#    0.000    0.000    0.000    0.000    0.000    0.000 
#
# Total GULP energy -222879.536435 kJ/mol
# GULP energy per Si atom -5571.988411 kJ/mol
# Density = 2.158357 g / cm^3
# Si number density = 21.632807 Si / 1000 Ang^3
#
#
#
# Elastic Constant Matrix: (Units=GPa)
#
#
# Indices 1 2 3 4 5 6 
#
# 1 61.5498 52.1558 47.3796 0.0000 0.0000 0.0000
# 2 52.1558 61.5541 47.3791 0.0000 0.0000 0.0000
# 3 47.3796 47.3791 127.8286 0.0000 0.0000 0.0000
# 4 0.0000 0.0000 0.0000 -0.9866 0.0000 0.0000
# 5 0.0000 0.0000 0.0000 0.0000 -0.9936 0.0000
# 6 0.0000 0.0000 0.0000 0.0000 0.0000 15.2571
#
#
#
# Elastic Compliance Matrix: (Units=1/GPa)
#
#
# Indices 1 2 3 4 5 6 
#
# 1 0.059579 -0.046851 -0.004718 0.000000 0.000000 0.000000
# 2 -0.046851 0.059573 -0.004715 0.000000 0.000000 0.000000
# 3 -0.004718 -0.004715 0.011319 0.000000 0.000000 0.000000
# 4 0.000000 0.000000 0.000000 -1.013574 0.000000 0.000000
# 5 0.000000 0.000000 0.000000 0.000000 -1.006392 0.000000
# 6 0.000000 0.000000 0.000000 0.000000 0.000000 0.065543
#
#
# Mechanical properties :
#
#
# Convention : Reuss Voigt Hill
#
# Bulk Modulus (GPa) = 55.85564 60.52908 58.19236
# Shear Modulus (GPa) = -2.93183 9.58990 3.32903
#
# Velocity S-wave (km/s) = -1.16542 2.10776 1.24186
# Velocity P-wave (km/s) = 4.90561 5.82791 5.38653
#
# Compressibility (1/GPa) = 0.01790329
#
# Stress axis : x y z
#
# Youngs Moduli (GPa) = 16.78445 16.78624 88.34486
#
# Poissons Ratio (x) = 0.78645 0.41680
# Poissons Ratio (y) = 0.78637 0.41655
# Poissons Ratio (z) = 0.07919 0.07915
#
# Static dielectric constant tensor:
#      x y z
#    x 1.943020 0.000000 0.000000 
#    y 0.000000 1.943020 0.000000 
#    z 0.000000 0.000000 1.902720 
# 
# From -- ./inp_files/6797.got.cif
#   From: 2010.05.17/outbox.cif.g08.bks.cpg/sg91_4_cif.got.tgz:6797.got - 2010.06.03 19:20:03.
