data_PCOD9548606
_publ_section_title
;
Structure prediction by ZEFSAII (Michael W. Deem and Ramdas Pophale) SiO2 
 PCOD9548606
Probable space group: P 41 2 2
;
_chemical_formula_sum "Si O2"
_cell_formula_units_Z 48
_cell_length_a 14.397964
_cell_length_b 14.397964
_cell_length_c 12.734951
_cell_angle_alpha 90.000000
_cell_angle_beta 90.000000
_cell_angle_gamma 90.000000
_cell_volume 2639.972755
_symmetry_space_group_name_H-M "P 41 2 2"
_symmetry_group_IT_number 91
_symmetry_cell_setting 'tetragonal'
loop_
_space_group_symop_operation_xyz
x,y,z
-y,x,1/4+z
-x,-y,1/2+z
y,-x,3/4+z
x,-y,1/2-z
-x,y,-z
y,x,3/4-z
-y,-x,1/4-z
loop_
_atom_site_type_symbol
_atom_site_label
_atom_site_fract_x
_atom_site_fract_y
_atom_site_fract_z
Si Si1 0.333738 0.594483 0.811378
Si Si2 0.130367 0.512969 0.431778
Si Si3 0.332162 0.540255 0.052274
Si Si4 0.277254 0.108747 0.756522
Si Si5 0.162762 0.720355 0.751120
Si Si6 0.939545 0.560512 0.152475
O O1 0.315737 0.500000 0.750000
O O2 0.438858 0.623704 0.788421
O O3 0.259840 0.667820 0.769640
O O4 0.323560 0.583215 0.936376
O O5 0.231003 0.477955 0.398142
O O6 0.125108 0.625199 0.444122
O O7 0.112225 0.473446 0.548618
O O8 0.046593 0.468301 0.365489
O O9 0.396376 0.603625 0.125000
O O10 0.191506 0.174103 0.721837
O O11 0.256634 0.000000 0.750000
O O12 0.290529 0.134098 0.879544
O O13 0.085968 0.666523 0.820452
O O14 0.904873 0.500000 0.250000
#
# Coordination Sequence:
#
# PCOD9548606 Si02
#       6
#     8   8   8   8   8   8
#     4  12  23  37  60  83 124 174 219 263 315 395
#     4  11  21  36  60  84 127 162 213 258 310 393
#     4  12  25  40  52  87 129 175 218 258 321 389
#     4  11  21  39  62 100 124 156 215 280 332 380
#     4  11  22  36  65  93 124 162 211 268 337 389
#     4  11  20  37  59  90 122 158 207 266 324 381
#
# _framework density 18.182006000000001
#
# number of rings (size 3 to 8) (size 9 to 14) (size 15 to 20)
#    0.000    0.667    6.667    3.500    2.333    1.333 
#    3.000    0.000    0.000    0.000   21.667    0.000 
#    0.000    0.000    0.000    0.000    0.000    0.000 
#
# Total GULP energy -268114.462812 kJ/mol
# GULP energy per Si atom -5585.717975 kJ/mol
# Density = 1.814062 g / cm^3
# Si number density = 18.182006 Si / 1000 Ang^3
#
#
#
# Elastic Constant Matrix: (Units=GPa)
#
#
# Indices 1 2 3 4 5 6 
#
# 1 109.3606 54.5503 27.7305 0.0000 0.0000 0.0000
# 2 54.5503 109.3651 27.7307 0.0000 0.0000 0.0000
# 3 27.7305 27.7307 68.7834 0.0000 0.0000 0.0000
# 4 0.0000 0.0000 0.0000 18.6595 0.0000 0.0000
# 5 0.0000 0.0000 0.0000 0.0000 18.6593 0.0000
# 6 0.0000 0.0000 0.0000 0.0000 0.0000 33.2787
#
#
#
# Elastic Compliance Matrix: (Units=1/GPa)
#
#
# Indices 1 2 3 4 5 6 
#
# 1 0.012655 -0.005590 -0.002848 0.000000 0.000000 0.000000
# 2 -0.005590 0.012654 -0.002848 0.000000 0.000000 0.000000
# 3 -0.002848 -0.002848 0.016835 0.000000 0.000000 0.000000
# 4 0.000000 0.000000 0.000000 0.053592 0.000000 0.000000
# 5 0.000000 0.000000 0.000000 0.000000 0.053593 0.000000
# 6 0.000000 0.000000 0.000000 0.000000 0.000000 0.030049
#
#
# Mechanical properties :
#
#
# Convention : Reuss Voigt Hill
#
# Bulk Modulus (GPa) = 51.09494 56.39243 53.74368
# Shear Modulus (GPa) = 23.98393 25.95268 24.96830
#
# Velocity S-wave (km/s) = 3.63589 3.78217 3.70975
# Velocity P-wave (km/s) = 6.76677 7.08209 6.92622
#
# Compressibility (1/GPa) = 0.01957141
#
# Stress axis : x y z
#
# Youngs Moduli (GPa) = 79.02319 79.02673 59.40058
#
# Poissons Ratio (x) = 0.44174 0.16918
# Poissons Ratio (y) = 0.44172 0.16917
# Poissons Ratio (z) = 0.22507 0.22507
#
# Static dielectric constant tensor:
#      x y z
#    x 1.653390 0.000000 0.000000 
#    y 0.000000 1.653390 0.000000 
#    z 0.000000 0.000000 1.622410 
# 
# From -- ./inp_files/3836.got.cif
#   From: 2010.05.17/outbox.cif.g08.bks.cpg/sg91_2_cif.got.tgz:3836.got - 2010.06.03 19:20:03.
