data_PCOD9548636
_publ_section_title
;
Structure prediction by ZEFSAII (Michael W. Deem and Ramdas Pophale) SiO2 
 PCOD9548636
Probable space group: P 41 2 2
;
_chemical_formula_sum "Si O2"
_cell_formula_units_Z 44
_cell_length_a 20.472763
_cell_length_b 20.472763
_cell_length_c 5.615797
_cell_angle_alpha 90.000000
_cell_angle_beta 90.000000
_cell_angle_gamma 90.000000
_cell_volume 2353.771599
_symmetry_space_group_name_H-M "P 41 2 2"
_symmetry_group_IT_number 91
_symmetry_cell_setting 'tetragonal'
loop_
_space_group_symop_operation_xyz
x,y,z
-y,x,1/4+z
-x,-y,1/2+z
y,-x,3/4+z
x,-y,1/2-z
-x,y,-z
y,x,3/4-z
-y,-x,1/4-z
loop_
_atom_site_type_symbol
_atom_site_label
_atom_site_fract_x
_atom_site_fract_y
_atom_site_fract_z
Si Si1 0.929198 0.431754 0.486908
Si Si2 0.554823 0.786725 0.684220
Si Si3 0.569539 0.569539 0.375000
Si Si4 0.648309 0.928954 0.235195
Si Si5 0.211225 0.318512 0.878382
Si Si6 0.396694 0.689268 0.957049
O O1 0.859951 0.467633 0.502840
O O2 0.927180 0.385728 0.723735
O O3 0.000000 0.466493 0.500000
O O4 0.928937 0.398540 0.222208
O O5 0.500000 0.764665 0.500000
O O6 0.631021 0.793453 0.596972
O O7 0.557088 0.731142 0.877740
O O8 0.500000 0.573994 0.500000
O O9 0.629542 0.575118 0.557334
O O10 0.687688 0.861747 0.268590
O O11 0.682480 0.000000 0.250000
O O12 0.249746 0.249746 0.875000
O O13 0.258024 0.362195 0.041563
O O14 0.342621 0.657380 0.125000
#
# Coordination Sequence:
#
# PCOD9548636 Si02
#       6
#     8   8   4   8   8   8
#     4   9  18  36  59  84 121 164 202 244 295 363
#     4  11  24  40  60  91 118 154 198 251 309 373
#     4  12  32  54  68  88 108 152 200 268 344 402
#     4   9  18  34  60  87 120 162 204 247 298 364
#     4  11  21  39  59  90 119 156 196 250 312 364
#     4  12  24  45  69  87 115 142 197 255 317 389
#
# _framework density 18.693404000000001
#
# number of rings (size 3 to 8) (size 9 to 14) (size 15 to 20)
#    0.000    1.455    4.545    0.000    1.273    5.091 
#    0.000    7.273    0.000    0.000    0.000    0.000 
#    0.000    0.000    0.000   14.727    0.000    0.000 
#
# Total GULP energy -245438.268086 kJ/mol
# GULP energy per Si atom -5578.142456 kJ/mol
# Density = 1.865086 g / cm^3
# Si number density = 18.693404 Si / 1000 Ang^3
#
#
#
# Elastic Constant Matrix: (Units=GPa)
#
#
# Indices 1 2 3 4 5 6 
#
# 1 140.9249 43.8709 37.1266 0.0000 0.0000 0.0000
# 2 43.8709 140.9223 37.1234 0.0000 0.0000 0.0000
# 3 37.1266 37.1234 78.8523 0.0000 0.0000 0.0000
# 4 0.0000 0.0000 0.0000 28.9873 0.0000 0.0000
# 5 0.0000 0.0000 0.0000 0.0000 28.9849 0.0000
# 6 0.0000 0.0000 0.0000 0.0000 0.0000 27.3145
#
#
#
# Elastic Compliance Matrix: (Units=1/GPa)
#
#
# Indices 1 2 3 4 5 6 
#
# 1 0.008489 -0.001815 -0.003142 0.000000 0.000000 0.000000
# 2 -0.001815 0.008489 -0.003142 0.000000 0.000000 0.000000
# 3 -0.003142 -0.003142 0.015641 0.000000 0.000000 0.000000
# 4 0.000000 0.000000 0.000000 0.034498 0.000000 0.000000
# 5 0.000000 0.000000 0.000000 0.000000 0.034501 0.000000
# 6 0.000000 0.000000 0.000000 0.000000 0.000000 0.036611
#
#
# Mechanical properties :
#
#
# Convention : Reuss Voigt Hill
#
# Bulk Modulus (GPa) = 60.90202 66.32679 63.61441
# Shear Modulus (GPa) = 31.26965 33.22924 32.24944
#
# Velocity S-wave (km/s) = 4.09438 4.22072 4.15803
# Velocity P-wave (km/s) = 7.41634 7.70137 7.56020
#
# Compressibility (1/GPa) = 0.01641982
#
# Stress axis : x y z
#
# Youngs Moduli (GPa) = 117.80186 117.80234 63.93560
#
# Poissons Ratio (x) = 0.21380 0.20091
# Poissons Ratio (y) = 0.21379 0.20088
# Poissons Ratio (z) = 0.37018 0.37013
#
# Static dielectric constant tensor:
#      x y z
#    x 1.625410 0.000000 0.000000 
#    y 0.000000 1.625420 0.000000 
#    z 0.000000 0.000000 1.746190 
# 
# From -- ./inp_files/8842.got.cif
#   From: 2010.05.17/outbox.cif.g08.bks.cpg/sg91_5_cif.got.tgz:8842.got - 2010.06.03 19:20:03.
