data_PCOD9548425
_publ_section_title
;
Structure prediction by ZEFSAII (Michael W. Deem and Ramdas Pophale) SiO2 
 PCOD9548425
Probable space group: P 41 2 2
;
_chemical_formula_sum "Si O2"
_cell_formula_units_Z 48
_cell_length_a 13.947875
_cell_length_b 13.947875
_cell_length_c 12.946020
_cell_angle_alpha 90.000000
_cell_angle_beta 90.000000
_cell_angle_gamma 90.000000
_cell_volume 2518.560378
_symmetry_space_group_name_H-M "P 41 2 2"
_symmetry_group_IT_number 91
_symmetry_cell_setting 'tetragonal'
loop_
_space_group_symop_operation_xyz
x,y,z
-y,x,1/4+z
-x,-y,1/2+z
y,-x,3/4+z
x,-y,1/2-z
-x,y,-z
y,x,3/4-z
-y,-x,1/4-z
loop_
_atom_site_type_symbol
_atom_site_label
_atom_site_fract_x
_atom_site_fract_y
_atom_site_fract_z
Si Si1 0.447238 0.139680 0.663594
Si Si2 0.350843 0.112858 0.283691
Si Si3 0.065466 0.181756 0.310733
Si Si4 0.918688 0.571446 0.348170
Si Si5 0.745752 0.220574 0.403161
Si Si6 0.215786 0.867937 0.531893
O O1 0.560759 0.155917 0.651538
O O2 0.445889 0.132496 0.790542
O O3 0.370111 0.207504 0.605162
O O4 0.428232 0.032425 0.621149
O O5 0.263505 0.097339 0.360081
O O6 0.310675 0.192377 0.201083
O O7 0.374247 0.000000 0.250000
O O8 0.087066 0.087066 0.375000
O O9 0.128965 0.206807 0.210780
O O10 0.955195 0.187274 0.288937
O O11 0.900335 0.500000 0.250000
O O12 0.888409 0.677027 0.316511
O O13 0.772254 0.214638 0.283636
O O14 0.143472 0.856529 0.625000
#
# Coordination Sequence:
#
# PCOD9548425 Si02
#       6
#     8   8   8   8   8   8
#     4  11  22  36  61  93 121 156 210 260 315 371
#     4  11  20  38  66  89 123 166 208 262 326 375
#     4  10  23  39  58  81 118 166 214 255 303 370
#     4  11  21  36  60  88 118 158 203 264 314 358
#     4  11  23  38  57  90 131 155 207 263 305 377
#     4  12  22  36  58  80 123 165 202 254 307 363
#
# _framework density 19.058508
#
# number of rings (size 3 to 8) (size 9 to 14) (size 15 to 20)
#    0.000    1.000    6.667    2.000    0.000    0.667 
#    0.000    2.500    0.000    0.000    0.000    0.000 
#   70.000    0.000    0.000    0.000    0.000    0.000 
#
# Total GULP energy -267226.844530 kJ/mol
# GULP energy per Si atom -5567.225928 kJ/mol
# Density = 1.901513 g / cm^3
# Si number density = 19.058508 Si / 1000 Ang^3
#
#
#
# Elastic Constant Matrix: (Units=GPa)
#
#
# Indices 1 2 3 4 5 6 
#
# 1 4.9011 61.6991 12.1647 0.0000 0.0000 0.0000
# 2 61.6991 4.8928 12.1595 0.0000 0.0000 0.0000
# 3 12.1647 12.1595 70.0524 0.0000 0.0000 0.0000
# 4 0.0000 0.0000 0.0000 35.6086 0.0000 0.0000
# 5 0.0000 0.0000 0.0000 0.0000 35.6081 0.0000
# 6 0.0000 0.0000 0.0000 0.0000 0.0000 -7.1009
#
#
#
# Elastic Compliance Matrix: (Units=1/GPa)
#
#
# Indices 1 2 3 4 5 6 
#
# 1 -0.000785 0.016819 -0.002783 0.000000 0.000000 0.000000
# 2 0.016819 -0.000787 -0.002784 0.000000 0.000000 0.000000
# 3 -0.002783 -0.002784 0.015242 0.000000 0.000000 0.000000
# 4 0.000000 0.000000 0.000000 0.028083 0.000000 0.000000
# 5 0.000000 0.000000 0.000000 0.000000 0.028084 0.000000
# 6 0.000000 0.000000 0.000000 0.000000 0.000000 -0.140827
#
#
# Mechanical properties :
#
#
# Convention : Reuss Voigt Hill
#
# Bulk Modulus (GPa) = 27.64513 27.98811 27.81662
# Shear Modulus (GPa) = -61.39715 12.41135 -24.49290
#
# Velocity S-wave (km/s) = -5.68199 2.55468 -3.58878
# Velocity P-wave (km/s) = 5.33946 4.83933 1.59542
#
# Compressibility (1/GPa) = 0.03617273
#
# Stress axis : x y z
#
# Youngs Moduli (GPa) = -1273.40572 -1270.46611 65.61018
#
# Poissons Ratio (x) = 21.36769 0.18259
# Poissons Ratio (y) = 21.41713 0.18266
# Poissons Ratio (z) = -3.54387 -3.53697
#
# Static dielectric constant tensor:
#      x y z
#    x 1.654800 0.000000 0.000000 
#    y 0.000000 1.654810 0.000000 
#    z 0.000000 0.000000 1.756560 
# 
# From -- ./inp_files/3828.got.cif
#   From: 2010.05.17/outbox.cif.g08.bks.cpg/sg91_2_cif.got.tgz:3828.got - 2010.06.03 19:20:03.
