data_PCOD9548065
_publ_section_title
;
Structure prediction by ZEFSAII (Michael W. Deem and Ramdas Pophale) SiO2 
 PCOD9548065
Probable space group: P 41 2 2
;
_chemical_formula_sum "Si O2"
_cell_formula_units_Z 40
_cell_length_a 15.174162
_cell_length_b 15.174162
_cell_length_c 8.245946
_cell_angle_alpha 90.000000
_cell_angle_beta 90.000000
_cell_angle_gamma 90.000000
_cell_volume 1898.671883
_symmetry_space_group_name_H-M "P 41 2 2"
_symmetry_group_IT_number 91
_symmetry_cell_setting 'tetragonal'
loop_
_space_group_symop_operation_xyz
x,y,z
-y,x,1/4+z
-x,-y,1/2+z
y,-x,3/4+z
x,-y,1/2-z
-x,y,-z
y,x,3/4-z
-y,-x,1/4-z
loop_
_atom_site_type_symbol
_atom_site_label
_atom_site_fract_x
_atom_site_fract_y
_atom_site_fract_z
Si Si1 0.308685 0.883506 0.009695
Si Si2 0.420051 0.579950 0.625000
Si Si3 0.488883 0.744021 0.306182
Si Si4 0.859311 0.900420 0.209427
Si Si5 0.000000 0.203633 0.500000
Si Si6 0.500000 0.875069 0.000000
Si Si7 0.315129 0.684872 0.125000
O O1 0.317566 0.778420 0.031745
O O2 0.265699 0.928669 0.165455
O O3 0.234096 0.900964 0.878289
O O4 0.406064 0.922749 0.987028
O O5 0.426643 0.500000 0.750000
O O6 0.327437 0.566382 0.537102
O O7 0.500000 0.769852 0.500000
O O8 0.398347 0.692850 0.249305
O O9 0.496524 0.818761 0.168698
O O10 0.848154 0.848154 0.375000
O O11 0.940059 0.857425 0.113288
O O12 0.883651 0.000000 0.250000
#
# Coordination Sequence:
#
# PCOD9548065 Si02
#       7
#     8   4   8   8   4   4   4
#     4  11  24  46  70 100 142 189 235 295 354 442
#     4  10  21  30  50  88 124 167 218 298 350 414
#     4  10  23  38  64  97 134 182 244 297 367 424
#     4  12  26  41  73 112 148 183 235 306 375 457
#     4  12  24  46  70 106 146 190 234 296 394 428
#     4  10  26  48  70  94 140 196 248 296 356 428
#     4  10  21  42  70  94 144 193 226 298 370 442
#
# _framework density 21.067356
#
# number of rings (size 3 to 8) (size 9 to 14) (size 15 to 20)
#    0.000    1.200    4.000    0.600   14.000    1.600 
#    1.800    0.000    2.200    0.000    0.000    0.000 
#    0.000    0.000    0.000    0.000    0.000    0.000 
#
# Total GULP energy -222993.740223 kJ/mol
# GULP energy per Si atom -5574.843506 kJ/mol
# Density = 2.101941 g / cm^3
# Si number density = 21.067356 Si / 1000 Ang^3
#
#
#
# Elastic Constant Matrix: (Units=GPa)
#
#
# Indices 1 2 3 4 5 6 
#
# 1 89.5625 17.9001 24.7241 0.0000 0.0000 0.0000
# 2 17.9001 89.5623 24.7242 0.0000 0.0000 0.0000
# 3 24.7241 24.7242 113.1473 0.0000 0.0000 0.0000
# 4 0.0000 0.0000 0.0000 439.3517 0.0000 0.0000
# 5 0.0000 0.0000 0.0000 0.0000 439.3444 0.0000
# 6 0.0000 0.0000 0.0000 0.0000 0.0000 9.8593
#
#
#
# Elastic Compliance Matrix: (Units=1/GPa)
#
#
# Indices 1 2 3 4 5 6 
#
# 1 0.012150 -0.001804 -0.002261 0.000000 0.000000 0.000000
# 2 -0.001804 0.012150 -0.002261 0.000000 0.000000 0.000000
# 3 -0.002261 -0.002261 0.009826 0.000000 0.000000 0.000000
# 4 0.000000 0.000000 0.000000 0.002276 0.000000 0.000000
# 5 0.000000 0.000000 0.000000 0.000000 0.002276 0.000000
# 6 0.000000 0.000000 0.000000 0.000000 0.000000 0.101427
#
#
# Mechanical properties :
#
#
# Convention : Reuss Voigt Hill
#
# Bulk Modulus (GPa) = 46.56602 47.44097 47.00350
# Shear Modulus (GPa) = 31.26661 192.70600 111.98630
#
# Velocity S-wave (km/s) = 3.85661 9.57444 7.29875
# Velocity P-wave (km/s) = 6.47941 12.03305 9.66377
#
# Compressibility (1/GPa) = 0.02147488
#
# Stress axis : x y z
#
# Youngs Moduli (GPa) = 82.30409 82.30392 101.77063
#
# Poissons Ratio (x) = 0.14850 0.23007
# Poissons Ratio (y) = 0.14850 0.23007
# Poissons Ratio (z) = 0.18606 0.18606
#
# Static dielectric constant tensor:
#      x y z
#    x 1.757990 0.000000 0.000000 
#    y 0.000000 1.757990 0.000000 
#    z 0.000000 0.000000 1.823020 
# 
# From -- ./inp_files/2492.got.cif
#   From: 2010.05.17/outbox.cif.g08.bks.cpg/sg91_2_cif.got.tgz:2492.got - 2010.06.03 19:20:03.
