data_PCOD9548493
_publ_section_title
;
Structure prediction by ZEFSAII (Michael W. Deem and Ramdas Pophale) SiO2 
 PCOD9548493
Probable space group: P 41 2 2
;
_chemical_formula_sum "Si O2"
_cell_formula_units_Z 36
_cell_length_a 11.500933
_cell_length_b 11.500933
_cell_length_c 11.521817
_cell_angle_alpha 90.000000
_cell_angle_beta 90.000000
_cell_angle_gamma 90.000000
_cell_volume 1524.007555
_symmetry_space_group_name_H-M "P 41 2 2"
_symmetry_group_IT_number 91
_symmetry_cell_setting 'tetragonal'
loop_
_space_group_symop_operation_xyz
x,y,z
-y,x,1/4+z
-x,-y,1/2+z
y,-x,3/4+z
x,-y,1/2-z
-x,y,-z
y,x,3/4-z
-y,-x,1/4-z
loop_
_atom_site_type_symbol
_atom_site_label
_atom_site_fract_x
_atom_site_fract_y
_atom_site_fract_z
Si Si1 0.669776 0.415142 0.851395
Si Si2 0.733813 0.458369 0.096886
Si Si3 0.155310 0.239789 0.252769
Si Si4 0.000000 0.904975 0.000000
Si Si5 0.725801 0.073776 0.129251
O O1 0.622504 0.500000 0.750000
O O2 0.577580 0.318569 0.895681
O O3 0.777142 0.343167 0.804411
O O4 0.721054 0.484125 0.959662
O O5 0.639448 0.360553 0.125000
O O6 0.856145 0.396738 0.123302
O O7 0.216922 0.216922 0.375000
O O8 0.019009 0.262820 0.225429
O O9 0.168502 0.109141 0.206065
O O10 0.033609 0.966392 0.125000
O O11 0.830552 0.169449 0.125000
O O12 0.734413 0.000000 0.250000
#
# Coordination Sequence:
#
# PCOD9548493 Si02
#       5
#     8   8   8   4   8
#     4  12  24  46  74 102 147 196 250 315 383 454
#     4  11  24  44  73 104 137 190 252 306 375 451
#     4  11  25  42  66 104 139 190 249 302 380 454
#     4  10  24  40  64  96 136 184 238 290 372 456
#     4  11  25  44  72 101 145 191 243 305 373 453
#
# _framework density 23.621931
#
# number of rings (size 3 to 8) (size 9 to 14) (size 15 to 20)
#    0.000    0.889    2.222    4.667    9.333    0.000 
#    2.000    6.667    0.000    0.000    0.000    0.000 
#    0.000    0.000    0.000    0.000    0.000    0.000 
#
# Total GULP energy -200607.938799 kJ/mol
# GULP energy per Si atom -5572.442744 kJ/mol
# Density = 2.356817 g / cm^3
# Si number density = 23.621931 Si / 1000 Ang^3
#
#
#
# Elastic Constant Matrix: (Units=GPa)
#
#
# Indices 1 2 3 4 5 6 
#
# 1 55.6174 83.0595 23.4761 0.0000 0.0000 0.0000
# 2 83.0595 55.6171 23.4753 0.0000 0.0000 0.0000
# 3 23.4761 23.4753 127.8758 0.0000 0.0000 0.0000
# 4 0.0000 0.0000 0.0000 -9.7626 0.0000 0.0000
# 5 0.0000 0.0000 0.0000 0.0000 -9.7615 0.0000
# 6 0.0000 0.0000 0.0000 0.0000 0.0000 56.9078
#
#
#
# Elastic Compliance Matrix: (Units=1/GPa)
#
#
# Indices 1 2 3 4 5 6 
#
# 1 -0.014376 0.022065 -0.001411 0.000000 0.000000 0.000000
# 2 0.022065 -0.014376 -0.001412 0.000000 0.000000 0.000000
# 3 -0.001411 -0.001412 0.008338 0.000000 0.000000 0.000000
# 4 0.000000 0.000000 0.000000 -0.102431 0.000000 0.000000
# 5 0.000000 0.000000 0.000000 0.000000 -0.102443 0.000000
# 6 0.000000 0.000000 0.000000 0.000000 0.000000 0.017572
#
#
# Mechanical properties :
#
#
# Convention : Reuss Voigt Hill
#
# Bulk Modulus (GPa) = 55.34033 55.45912 55.39972
# Shear Modulus (GPa) = -20.81823 14.75000 -3.03411
#
# Velocity S-wave (km/s) = -2.97191 2.50155 -1.13456
# Velocity P-wave (km/s) = 3.42083 5.64557 4.66768
#
# Compressibility (1/GPa) = 0.01807000
#
# Stress axis : x y z
#
# Youngs Moduli (GPa) = -69.56226 -69.56231 119.92766
#
# Poissons Ratio (x) = 1.53486 0.16927
# Poissons Ratio (y) = 1.53486 0.16930
# Poissons Ratio (z) = -0.09818 -0.09820
#
# Static dielectric constant tensor:
#      x y z
#    x 1.951160 0.000000 0.000000 
#    y 0.000000 1.951150 0.000000 
#    z 0.000000 0.000000 1.877610 
# 
# From -- ./inp_files/10487.got.cif
#   From: 2010.05.17/outbox.cif.g08.bks.cpg/sg91_6_cif.got.tgz:10487.got - 2010.06.03 19:20:03.
