data_PCOD9548861
_publ_section_title
;
Structure prediction by ZEFSAII (Michael W. Deem and Ramdas Pophale) SiO2 
 PCOD9548861
Probable space group: P 41 21 2
;
_chemical_formula_sum "Si O2"
_cell_formula_units_Z 44
_cell_length_a 16.248881
_cell_length_b 16.248881
_cell_length_c 7.101888
_cell_angle_alpha 90.000000
_cell_angle_beta 90.000000
_cell_angle_gamma 90.000000
_cell_volume 1875.084031
_symmetry_space_group_name_H-M "P 41 21 2"
_symmetry_group_IT_number 92
_symmetry_cell_setting 'tetragonal'
loop_
_space_group_symop_operation_xyz
x,y,z
1/2-y,1/2+x,1/4+z
-x,-y,1/2+z
1/2+y,1/2-x,3/4+z
1/2+x,1/2-y,3/4-z
1/2-x,1/2+y,1/4-z
y,x,-z
-y,-x,1/2-z
loop_
_atom_site_type_symbol
_atom_site_label
_atom_site_fract_x
_atom_site_fract_y
_atom_site_fract_z
Si Si1 0.339977 0.866615 0.547009
Si Si2 0.994842 0.741991 0.140266
Si Si3 0.110420 0.494957 0.373389
Si Si4 0.823763 0.176238 0.250000
Si Si5 0.491226 0.712045 0.057355
Si Si6 0.948727 0.915090 0.217686
O O1 0.413586 0.802914 0.538726
O O2 0.314737 0.923627 0.369644
O O3 0.373988 0.927444 0.711722
O O4 0.255393 0.823029 0.614221
O O5 0.996532 0.829599 0.243429
O O6 0.986169 0.763280 0.915804
O O7 0.051051 0.564384 0.456213
O O8 0.202935 0.525406 0.336409
O O9 0.914425 0.183052 0.158201
O O10 0.431563 0.635205 0.080647
O O11 0.921349 0.921349 0.000000
O O12 0.010323 0.989678 0.250000
#
# Coordination Sequence:
#
# PCOD9548861 Si02
#       6
#     8   8   8   4   8   8
#     4  10  17  30  51  82 108 139 193 242 281 334
#     4   9  19  30  53  83 106 149 190 239 289 342
#     4  10  18  31  53  78 115 147 192 241 292 348
#     4   8  16  24  44  76 108 128 170 244 272 310
#     4   9  17  30  50  81 108 142 190 238 285 331
#     4  10  20  35  59  84 115 151 193 237 291 355
#
# _framework density 23.465615
#
# number of rings (size 3 to 8) (size 9 to 14) (size 15 to 20)
#    0.000    2.909    4.545    0.000    3.818    0.000 
#    0.000    0.000    4.000    1.091    0.000    0.000 
#    0.000    0.000    0.000    0.000    0.000    0.000 
#
# Total GULP energy -245728.560136 kJ/mol
# GULP energy per Si atom -5584.740003 kJ/mol
# Density = 2.341221 g / cm^3
# Si number density = 23.465615 Si / 1000 Ang^3
#
#
#
# Elastic Constant Matrix: (Units=GPa)
#
#
# Indices 1 2 3 4 5 6 
#
# 1 131.7279 95.6488 56.1646 0.0000 0.0000 0.0000
# 2 95.6488 131.7237 56.1657 0.0000 0.0000 0.0000
# 3 56.1646 56.1657 66.4078 0.0000 0.0000 0.0000
# 4 0.0000 0.0000 0.0000 8.5920 0.0000 0.0000
# 5 0.0000 0.0000 0.0000 0.0000 8.5963 0.0000
# 6 0.0000 0.0000 0.0000 0.0000 0.0000 39.2360
#
#
#
# Elastic Compliance Matrix: (Units=1/GPa)
#
#
# Indices 1 2 3 4 5 6 
#
# 1 0.017636 -0.010082 -0.006389 0.000000 0.000000 0.000000
# 2 -0.010082 0.017637 -0.006390 0.000000 0.000000 0.000000
# 3 -0.006389 -0.006390 0.025866 0.000000 0.000000 0.000000
# 4 0.000000 0.000000 0.000000 0.116387 0.000000 0.000000
# 5 0.000000 0.000000 0.000000 0.000000 0.116330 0.000000
# 6 0.000000 0.000000 0.000000 0.000000 0.000000 0.025487
#
#
# Mechanical properties :
#
#
# Convention : Reuss Voigt Hill
#
# Bulk Modulus (GPa) = 64.85959 82.86862 73.86410
# Shear Modulus (GPa) = 13.50606 19.41018 16.45812
#
# Velocity S-wave (km/s) = 2.40170 2.87919 2.65122
# Velocity P-wave (km/s) = 5.94905 6.81502 6.39671
#
# Compressibility (1/GPa) = 0.01541792
#
# Stress axis : x y z
#
# Youngs Moduli (GPa) = 56.70243 56.69836 38.66037
#
# Poissons Ratio (x) = 0.57163 0.24699
# Poissons Ratio (y) = 0.57167 0.24705
# Poissons Ratio (z) = 0.36225 0.36231
#
# Static dielectric constant tensor:
#      x y z
#    x 1.887020 0.000000 0.000000 
#    y 0.000000 1.887020 0.000000 
#    z 0.000000 0.000000 2.067730 
# 
# From -- ./inp_files/2125.got.cif
#   From: 2010.05.17/outbox.cif.g08.bks.cpg/sg92_2_cif.got.tgz:2125.got - 2010.06.03 19:35:17.
