data_PCOD9548331
_publ_section_title
;
Structure prediction by ZEFSAII (Michael W. Deem and Ramdas Pophale) SiO2 
 PCOD9548331
Probable space group: P 41 2 2
;
_chemical_formula_sum "Si O2"
_cell_formula_units_Z 40
_cell_length_a 8.375926
_cell_length_b 8.375926
_cell_length_c 24.272508
_cell_angle_alpha 90.000000
_cell_angle_beta 90.000000
_cell_angle_gamma 90.000000
_cell_volume 1702.865381
_symmetry_space_group_name_H-M "P 41 2 2"
_symmetry_group_IT_number 91
_symmetry_cell_setting 'tetragonal'
loop_
_space_group_symop_operation_xyz
x,y,z
-y,x,1/4+z
-x,-y,1/2+z
y,-x,3/4+z
x,-y,1/2-z
-x,y,-z
y,x,3/4-z
-y,-x,1/4-z
loop_
_atom_site_type_symbol
_atom_site_label
_atom_site_fract_x
_atom_site_fract_y
_atom_site_fract_z
Si Si1 0.191889 0.359014 0.425314
Si Si2 0.778671 0.675373 0.723744
Si Si3 0.250790 0.117007 0.920630
Si Si4 0.162149 0.588854 0.881448
Si Si5 0.313300 0.317637 0.727736
O O1 0.304267 0.304267 0.375000
O O2 0.205047 0.234033 0.474963
O O3 0.251783 0.521948 0.453835
O O4 0.013698 0.377838 0.403802
O O5 0.763878 0.500000 0.750000
O O6 0.644250 0.713519 0.678139
O O7 0.946707 0.699726 0.694325
O O8 0.112591 0.112591 0.875000
O O9 0.404934 0.173593 0.885616
O O10 0.222246 0.234428 0.971944
O O11 0.195525 0.679685 0.824450
O O12 0.331422 0.500000 0.750000
#
# Coordination Sequence:
#
# PCOD9548331 Si02
#       5
#     8   8   8   8   8
#     4  12  24  42  71 104 141 182 232 288 345 413
#     4  12  25  46  71 101 139 182 231 285 345 411
#     4  11  24  45  70  97 139 183 227 286 347 411
#     4  11  24  44  68 101 138 178 231 290 347 406
#     4  10  22  41  69 101 134 181 235 285 344 409
#
# _framework density 23.489818
#
# number of rings (size 3 to 8) (size 9 to 14) (size 15 to 20)
#    0.000    0.800    0.000    9.000    0.000    5.600 
#    0.000   12.000    0.000    0.000    0.000    0.000 
#    0.000    0.000    0.000    0.000    0.000    0.000 
#
# Total GULP energy -224154.973661 kJ/mol
# GULP energy per Si atom -5603.874342 kJ/mol
# Density = 2.343635 g / cm^3
# Si number density = 23.489818 Si / 1000 Ang^3
#
#
#
# Elastic Constant Matrix: (Units=GPa)
#
#
# Indices 1 2 3 4 5 6 
#
# 1 24.3264 133.3546 77.8578 0.0000 0.0000 0.0000
# 2 133.3546 24.3264 77.8578 0.0000 0.0000 0.0000
# 3 77.8578 77.8578 214.4148 0.0000 0.0000 0.0000
# 4 0.0000 0.0000 0.0000 55.6673 0.0000 0.0000
# 5 0.0000 0.0000 0.0000 0.0000 55.6673 0.0000
# 6 0.0000 0.0000 0.0000 0.0000 0.0000 8.8906
#
#
#
# Elastic Compliance Matrix: (Units=1/GPa)
#
#
# Indices 1 2 3 4 5 6 
#
# 1 0.000358 0.009530 -0.003590 0.000000 0.000000 0.000000
# 2 0.009530 0.000358 -0.003590 0.000000 0.000000 0.000000
# 3 -0.003590 -0.003590 0.007271 0.000000 0.000000 0.000000
# 4 0.000000 0.000000 0.000000 0.017964 0.000000 0.000000
# 5 0.000000 0.000000 0.000000 0.000000 0.017964 0.000000
# 6 0.000000 0.000000 0.000000 0.000000 0.000000 0.112478
#
#
# Mechanical properties :
#
#
# Convention : Reuss Voigt Hill
#
# Bulk Modulus (GPa) = 78.83348 93.46754 86.15051
# Shear Modulus (GPa) = 32.06714 22.31153 27.18933
#
# Velocity S-wave (km/s) = 3.69880 3.08529 3.40589
# Velocity P-wave (km/s) = 7.20244 7.25045 7.22648
#
# Compressibility (1/GPa) = 0.01268497
#
# Stress axis : x y z
#
# Youngs Moduli (GPa) = 2795.07906 2795.07906 137.52748
#
# Poissons Ratio (x) = -26.63630 0.49377
# Poissons Ratio (y) = -26.63630 0.49377
# Poissons Ratio (z) = 10.03523 10.03523
#
# Static dielectric constant tensor:
#      x y z
#    x 1.912020 0.000000 0.000000 
#    y 0.000000 1.912020 0.000000 
#    z 0.000000 0.000000 1.888320 
# 
# From -- ./inp_files/12741.got.cif
#   From: 2010.05.17/outbox.cif.g08.bks.cpg/sg91_7_cif.got.tgz:12741.got - 2010.06.03 19:20:03.
