data_PCOD9548684
_publ_section_title
;
Structure prediction by ZEFSAII (Michael W. Deem and Ramdas Pophale) SiO2 
 PCOD9548684
Probable space group: P 41 2 2
;
_chemical_formula_sum "Si O2"
_cell_formula_units_Z 56
_cell_length_a 15.109102
_cell_length_b 15.109102
_cell_length_c 10.194773
_cell_angle_alpha 90.000000
_cell_angle_beta 90.000000
_cell_angle_gamma 90.000000
_cell_volume 2327.313380
_symmetry_space_group_name_H-M "P 41 2 2"
_symmetry_group_IT_number 91
_symmetry_cell_setting 'tetragonal'
loop_
_space_group_symop_operation_xyz
x,y,z
-y,x,1/4+z
-x,-y,1/2+z
y,-x,3/4+z
x,-y,1/2-z
-x,y,-z
y,x,3/4-z
-y,-x,1/4-z
loop_
_atom_site_type_symbol
_atom_site_label
_atom_site_fract_x
_atom_site_fract_y
_atom_site_fract_z
Si Si1 0.529670 0.212478 0.802367
Si Si2 0.028955 0.572831 0.850309
Si Si3 0.768379 0.064505 0.991311
Si Si4 0.181476 0.126372 0.522865
Si Si5 0.687757 0.619630 0.549314
Si Si6 0.239385 0.760616 0.625000
Si Si7 0.350970 0.776916 0.050121
Si Si8 0.631042 0.500000 0.250000
O O1 0.555024 0.132971 0.892991
O O2 0.428501 0.226813 0.765270
O O3 0.582230 0.197120 0.665736
O O4 0.538813 0.301710 0.887823
O O5 0.988628 0.500000 0.750000
O O6 0.024542 0.675891 0.813122
O O7 0.000000 0.557857 0.000000
O O8 0.818547 0.122175 0.877508
O O9 0.823084 0.979371 0.038967
O O10 0.749225 0.134253 0.107432
O O11 0.147470 0.147470 0.375000
O O12 0.286465 0.154780 0.526112
O O13 0.706324 0.717924 0.496254
O O14 0.707983 0.606069 0.700178
O O15 0.594090 0.579074 0.499118
O O16 0.278789 0.721212 0.125000
#
# Coordination Sequence:
#
# PCOD9548684 Si02
#       8
#     8   8   8   8   8   4   8   4
#     4  12  23  41  71 101 139 191 246 312 389 469
#     4  12  26  48  78 115 157 203 265 335 407 486
#     4  12  26  50  75 110 156 200 265 327 408 486
#     4  11  24  46  76 107 145 199 250 323 399 481
#     4  12  24  44  69 104 142 195 252 316 388 468
#     4  12  24  46  72 102 148 204 250 318 400 476
#     4  11  22  41  71 100 140 188 250 307 383 463
#     4  12  22  42  70  98 140 194 248 304 380 470
#
# _framework density 24.062078
#
# number of rings (size 3 to 8) (size 9 to 14) (size 15 to 20)
#    0.000    0.286    5.000    6.000    0.000    2.857 
#    6.429    1.429    0.000    0.000    0.000    0.000 
#    0.000    0.000    0.000    0.000    0.000    0.000 
#
# Total GULP energy -311898.393180 kJ/mol
# GULP energy per Si atom -5569.614164 kJ/mol
# Density = 2.400731 g / cm^3
# Si number density = 24.062078 Si / 1000 Ang^3
#
#
#
# Elastic Constant Matrix: (Units=GPa)
#
#
# Indices 1 2 3 4 5 6 
#
# 1 104.5474 35.9869 24.5197 0.0000 0.0000 0.0000
# 2 35.9869 104.5473 24.5198 0.0000 0.0000 0.0000
# 3 24.5197 24.5198 100.6198 0.0000 0.0000 0.0000
# 4 0.0000 0.0000 0.0000 36.8405 0.0000 0.0000
# 5 0.0000 0.0000 0.0000 0.0000 36.8404 0.0000
# 6 0.0000 0.0000 0.0000 0.0000 0.0000 14.3145
#
#
#
# Elastic Compliance Matrix: (Units=1/GPa)
#
#
# Indices 1 2 3 4 5 6 
#
# 1 0.011181 -0.003404 -0.001895 0.000000 0.000000 0.000000
# 2 -0.003404 0.011181 -0.001895 0.000000 0.000000 0.000000
# 3 -0.001895 -0.001895 0.010862 0.000000 0.000000 0.000000
# 4 0.000000 0.000000 0.000000 0.027144 0.000000 0.000000
# 5 0.000000 0.000000 0.000000 0.000000 0.027144 0.000000
# 6 0.000000 0.000000 0.000000 0.000000 0.000000 0.069859
#
#
# Mechanical properties :
#
#
# Convention : Reuss Voigt Hill
#
# Bulk Modulus (GPa) = 53.09137 53.30748 53.19943
# Shear Modulus (GPa) = 28.08356 32.57827 30.33092
#
# Velocity S-wave (km/s) = 3.42003 3.68357 3.55424
# Velocity P-wave (km/s) = 6.14066 6.34774 6.24506
#
# Compressibility (1/GPa) = 0.01883545
#
# Stress axis : x y z
#
# Youngs Moduli (GPa) = 89.43475 89.43454 92.06358
#
# Poissons Ratio (x) = 0.30446 0.17447
# Poissons Ratio (y) = 0.30447 0.17448
# Poissons Ratio (z) = 0.16949 0.16949
#
# Static dielectric constant tensor:
#      x y z
#    x 2.220290 0.000000 0.000000 
#    y 0.000000 2.220260 0.000000 
#    z 0.000000 0.000000 2.119080 
# 
# From -- ./inp_files/3959.got.cif
#   From: 2010.05.17/outbox.cif.g08.bks.cpg/sg91_2_cif.got.tgz:3959.got - 2010.06.03 19:20:03.
