data_PCOD9548818
_publ_section_title
;
Structure prediction by ZEFSAII (Michael W. Deem and Ramdas Pophale) SiO2 
 PCOD9548818
Probable space group: P 41 2 2
;
_chemical_formula_sum "Si O2"
_cell_formula_units_Z 24
_cell_length_a 5.198682
_cell_length_b 5.198682
_cell_length_c 35.036437
_cell_angle_alpha 90.000000
_cell_angle_beta 90.000000
_cell_angle_gamma 90.000000
_cell_volume 946.905066
_symmetry_space_group_name_H-M "P 41 2 2"
_symmetry_group_IT_number 91
_symmetry_cell_setting 'tetragonal'
loop_
_space_group_symop_operation_xyz
x,y,z
-y,x,1/4+z
-x,-y,1/2+z
y,-x,3/4+z
x,-y,1/2-z
-x,y,-z
y,x,3/4-z
-y,-x,1/4-z
loop_
_atom_site_type_symbol
_atom_site_label
_atom_site_fract_x
_atom_site_fract_y
_atom_site_fract_z
Si Si1 0.050186 0.513315 0.707865
Si Si2 0.698123 0.319820 0.853633
Si Si3 0.321309 0.967262 0.819083
O O1 0.935758 0.500000 0.750000
O O2 0.171257 0.791861 0.698819
O O3 0.841303 0.483782 0.674439
O O4 0.263467 0.287934 0.705046
O O5 0.459283 0.459283 0.875000
O O6 0.601921 0.086042 0.827431
O O7 0.880806 0.243514 0.888246
#
# Coordination Sequence:
#
# PCOD9548818 Si02
#       3
#     8   8   8
#     4  12  29  51  77 122 172 214 277 351 429 500
#     4  12  25  47  84 119 155 222 281 345 406 509
#     4  12  25  50  79 115 160 222 274 339 412 501
#
# _framework density 25.34573
#
# number of rings (size 3 to 8) (size 9 to 14) (size 15 to 20)
#    0.000    0.000    6.667    2.000    4.667    2.667 
#    6.000    0.000    0.000    0.000    0.000    0.000 
#    0.000    0.000    0.000    0.000    0.000    0.000 
#
# Total GULP energy -134284.857124 kJ/mol
# GULP energy per Si atom -5595.202380 kJ/mol
# Density = 2.528804 g / cm^3
# Si number density = 25.345730 Si / 1000 Ang^3
#
#
#
# Elastic Constant Matrix: (Units=GPa)
#
#
# Indices 1 2 3 4 5 6 
#
# 1 92.5176 46.3904 9.1608 0.0000 0.0000 0.0000
# 2 46.3904 92.5176 9.1608 0.0000 0.0000 0.0000
# 3 9.1608 9.1608 124.4053 0.0000 0.0000 0.0000
# 4 0.0000 0.0000 0.0000 23.5879 0.0000 0.0000
# 5 0.0000 0.0000 0.0000 0.0000 23.5879 0.0000
# 6 0.0000 0.0000 0.0000 0.0000 0.0000 45.0776
#
#
#
# Elastic Compliance Matrix: (Units=1/GPa)
#
#
# Indices 1 2 3 4 5 6 
#
# 1 0.014474 -0.007205 -0.000535 0.000000 0.000000 0.000000
# 2 -0.007205 0.014474 -0.000535 0.000000 0.000000 0.000000
# 3 -0.000535 -0.000535 0.008117 0.000000 0.000000 0.000000
# 4 0.000000 0.000000 0.000000 0.042395 0.000000 0.000000
# 5 0.000000 0.000000 0.000000 0.000000 0.042395 0.000000
# 6 0.000000 0.000000 0.000000 0.000000 0.000000 0.022184
#
#
# Mechanical properties :
#
#
# Convention : Reuss Voigt Hill
#
# Bulk Modulus (GPa) = 48.74465 48.76271 48.75368
# Shear Modulus (GPa) = 29.86354 34.76591 32.31472
#
# Velocity S-wave (km/s) = 3.43628 3.70762 3.57453
# Velocity P-wave (km/s) = 5.91758 6.13265 6.02607
#
# Compressibility (1/GPa) = 0.02051507
#
# Stress axis : x y z
#
# Youngs Moduli (GPa) = 69.08747 69.08747 123.19697
#
# Poissons Ratio (x) = 0.49776 0.06595
# Poissons Ratio (y) = 0.49776 0.06595
# Poissons Ratio (z) = 0.03698 0.03698
#
# Static dielectric constant tensor:
#      x y z
#    x 2.064770 0.000000 0.000000 
#    y 0.000000 2.064770 0.000000 
#    z 0.000000 0.000000 1.989230 
# 
# From -- ./inp_files/7580.got.cif
#   From: 2010.05.17/outbox.cif.g08.bks.cpg/sg91_4_cif.got.tgz:7580.got - 2010.06.03 19:20:03.
