data_PCOD9548033
_publ_section_title
;
Structure prediction by ZEFSAII (Michael W. Deem and Ramdas Pophale) SiO2 
 PCOD9548033
Probable space group: P 41 2 2
;
_chemical_formula_sum "Si O2"
_cell_formula_units_Z 24
_cell_length_a 13.963085
_cell_length_b 13.963085
_cell_length_c 5.339668
_cell_angle_alpha 90.000000
_cell_angle_beta 90.000000
_cell_angle_gamma 90.000000
_cell_volume 1041.063017
_symmetry_space_group_name_H-M "P 41 2 2"
_symmetry_group_IT_number 91
_symmetry_cell_setting 'tetragonal'
loop_
_space_group_symop_operation_xyz
x,y,z
-y,x,1/4+z
-x,-y,1/2+z
y,-x,3/4+z
x,-y,1/2-z
-x,y,-z
y,x,3/4-z
-y,-x,1/4-z
loop_
_atom_site_type_symbol
_atom_site_label
_atom_site_fract_x
_atom_site_fract_y
_atom_site_fract_z
Si Si1 0.330360 0.897928 0.387933
Si Si2 0.290776 0.441527 0.500900
Si Si3 0.219663 0.000000 0.750000
Si Si4 0.132806 0.132806 0.375000
O O1 0.399754 0.810059 0.349587
O O2 0.228660 0.865307 0.282599
O O3 0.356191 0.000000 0.250000
O O4 0.296179 0.919357 0.670051
O O5 0.267090 0.500000 0.250000
O O6 0.363370 0.363370 0.375000
O O7 0.329676 0.500000 0.750000
O O8 0.149368 0.038727 0.537957
#
# Coordination Sequence:
#
# PCOD9548033 Si02
#       4
#     8   8   4   4
#     4  10  23  43  76 108 153 198 260 315 391 458
#     4  12  29  51  84 118 156 208 257 324 402 470
#     4  10  22  38  74 106 146 210 256 320 366 478
#     4  10  20  40  70  98 154 200 252 312 384 444
#
# _framework density 23.053360000000001
#
# number of rings (size 3 to 8) (size 9 to 14) (size 15 to 20)
#    0.000    1.333    1.667    2.000    9.333    5.333 
#    0.000    0.000  132.000    0.000    0.000    0.000 
#    0.000    0.000    0.000    0.000    0.000    0.000 
#
# Total GULP energy -133652.502388 kJ/mol
# GULP energy per Si atom -5568.854266 kJ/mol
# Density = 2.300089 g / cm^3
# Si number density = 23.053360 Si / 1000 Ang^3
#
#
#
# Elastic Constant Matrix: (Units=GPa)
#
#
# Indices 1 2 3 4 5 6 
#
# 1 94.4208 75.4176 50.0507 0.0000 0.0000 0.0000
# 2 75.4176 94.4208 50.0507 0.0000 0.0000 0.0000
# 3 50.0507 50.0507 126.4570 0.0000 0.0000 0.0000
# 4 0.0000 0.0000 0.0000 15.7658 0.0000 0.0000
# 5 0.0000 0.0000 0.0000 0.0000 15.7658 0.0000
# 6 0.0000 0.0000 0.0000 0.0000 0.0000 5.2267
#
#
#
# Elastic Compliance Matrix: (Units=1/GPa)
#
#
# Indices 1 2 3 4 5 6 
#
# 1 0.030151 -0.022472 -0.003039 0.000000 0.000000 0.000000
# 2 -0.022472 0.030151 -0.003039 0.000000 0.000000 0.000000
# 3 -0.003039 -0.003039 0.010314 0.000000 0.000000 0.000000
# 4 0.000000 0.000000 0.000000 0.063428 0.000000 0.000000
# 5 0.000000 0.000000 0.000000 0.000000 0.063428 0.000000
# 6 0.000000 0.000000 0.000000 0.000000 0.000000 0.191324
#
#
# Mechanical properties :
#
#
# Convention : Reuss Voigt Hill
#
# Bulk Modulus (GPa) = 73.99299 74.03740 74.01519
# Shear Modulus (GPa) = 11.10118 16.67032 13.88575
#
# Velocity S-wave (km/s) = 2.19679 2.69200 2.45691
# Velocity P-wave (km/s) = 6.21294 6.46900 6.34226
#
# Compressibility (1/GPa) = 0.01351479
#
# Stress axis : x y z
#
# Youngs Moduli (GPa) = 33.16638 33.16638 96.95760
#
# Poissons Ratio (x) = 0.74530 0.29470
# Poissons Ratio (y) = 0.74530 0.29470
# Poissons Ratio (z) = 0.10081 0.10081
#
# Static dielectric constant tensor:
#      x y z
#    x 1.894460 0.000000 0.000000 
#    y 0.000000 1.894460 0.000000 
#    z 0.000000 0.000000 2.492650 
# 
# From -- ./inp_files/18344.got.cif
#   From: 2010.05.17/outbox.cif.g08.bks.cpg/sg91_10_cif.got.tgz:18344.got - 2010.06.03 19:20:03.
