data_PCOD9548649
_publ_section_title
;
Structure prediction by ZEFSAII (Michael W. Deem and Ramdas Pophale) SiO2 
 PCOD9548649
Probable space group: P 41 2 2
;
_chemical_formula_sum "Si O2"
_cell_formula_units_Z 40
_cell_length_a 11.596377
_cell_length_b 11.596377
_cell_length_c 15.628606
_cell_angle_alpha 90.000000
_cell_angle_beta 90.000000
_cell_angle_gamma 90.000000
_cell_volume 2101.671788
_symmetry_space_group_name_H-M "P 41 2 2"
_symmetry_group_IT_number 91
_symmetry_cell_setting 'tetragonal'
loop_
_space_group_symop_operation_xyz
x,y,z
-y,x,1/4+z
-x,-y,1/2+z
y,-x,3/4+z
x,-y,1/2-z
-x,y,-z
y,x,3/4-z
-y,-x,1/4-z
loop_
_atom_site_type_symbol
_atom_site_label
_atom_site_fract_x
_atom_site_fract_y
_atom_site_fract_z
Si Si1 0.416427 0.872701 0.288426
Si Si2 0.974535 0.713840 0.646912
Si Si3 0.323992 0.828839 0.735572
Si Si4 0.866096 0.824474 0.974647
Si Si5 0.154238 0.621318 0.766414
O O1 0.542003 0.812492 0.289894
O O2 0.307110 0.820565 0.237742
O O3 0.369924 0.879294 0.384949
O O4 0.439846 0.000000 0.250000
O O5 0.077668 0.736283 0.577952
O O6 0.038521 0.625883 0.709878
O O7 0.876712 0.670809 0.582572
O O8 0.916023 0.806371 0.710604
O O9 0.241025 0.720157 0.737763
O O10 0.855598 0.855598 0.875000
O O11 0.000000 0.820852 0.000000
O O12 0.213188 0.500000 0.750000
#
# Coordination Sequence:
#
# PCOD9548649 Si02
#       5
#     8   8   8   8   8
#     4  11  21  42  64  92 130 169 214 260 317 387
#     4  11  22  40  62  96 129 165 209 264 320 382
#     4  11  23  41  66  97 127 166 220 271 314 383
#     4  11  25  43  64  96 134 173 207 261 331 397
#     4  12  23  40  67  95 124 172 218 263 323 379
#
# _framework density 19.032468999999999
#
# number of rings (size 3 to 8) (size 9 to 14) (size 15 to 20)
#    0.000    0.800    6.000    3.000    0.000    1.600 
#    0.000    0.000    4.400    0.000    0.000    0.000 
#    0.000    0.000    0.000    0.000    0.000    0.000 
#
# Total GULP energy -222897.464126 kJ/mol
# GULP energy per Si atom -5572.436603 kJ/mol
# Density = 1.898915 g / cm^3
# Si number density = 19.032469 Si / 1000 Ang^3
#
#
#
# Elastic Constant Matrix: (Units=GPa)
#
#
# Indices 1 2 3 4 5 6 
#
# 1 81.6379 41.8760 30.1725 0.0000 0.0000 0.0000
# 2 41.8760 81.6379 30.1725 0.0000 0.0000 0.0000
# 3 30.1725 30.1725 140.2730 0.0000 0.0000 0.0000
# 4 0.0000 0.0000 0.0000 26.9641 0.0000 0.0000
# 5 0.0000 0.0000 0.0000 0.0000 26.9641 0.0000
# 6 0.0000 0.0000 0.0000 0.0000 0.0000 -31.1928
#
#
#
# Elastic Compliance Matrix: (Units=1/GPa)
#
#
# Indices 1 2 3 4 5 6 
#
# 1 0.017098 -0.008051 -0.001946 0.000000 0.000000 0.000000
# 2 -0.008051 0.017098 -0.001946 0.000000 0.000000 0.000000
# 3 -0.001946 -0.001946 0.007966 0.000000 0.000000 0.000000
# 4 0.000000 0.000000 0.000000 0.037086 0.000000 0.000000
# 5 0.000000 0.000000 0.000000 0.000000 0.037086 0.000000
# 6 0.000000 0.000000 0.000000 0.000000 0.000000 -0.032059
#
#
# Mechanical properties :
#
#
# Convention : Reuss Voigt Hill
#
# Bulk Modulus (GPa) = 54.71612 56.44341 55.57977
# Shear Modulus (GPa) = 43.76155 17.96893 30.86524
#
# Velocity S-wave (km/s) = 4.80031 3.07599 4.03142
# Velocity P-wave (km/s) = 7.71591 6.50664 7.13693
#
# Compressibility (1/GPa) = 0.01827615
#
# Stress axis : x y z
#
# Youngs Moduli (GPa) = 58.48520 58.48520 125.53167
#
# Poissons Ratio (x) = 0.47088 0.24428
# Poissons Ratio (y) = 0.47088 0.24428
# Poissons Ratio (z) = 0.11381 0.11381
#
# Static dielectric constant tensor:
#      x y z
#    x 1.692540 0.000000 0.000000 
#    y 0.000000 1.692540 0.000000 
#    z 0.000000 0.000000 1.702770 
# 
# From -- ./inp_files/4747.got.cif
#   From: 2010.05.17/outbox.cif.g08.bks.cpg/sg91_3_cif.got.tgz:4747.got - 2010.06.03 19:20:03.
