data_PCOD9548531
_publ_section_title
;
Structure prediction by ZEFSAII (Michael W. Deem and Ramdas Pophale) SiO2 
 PCOD9548531
Probable space group: P 41 2 2
;
_chemical_formula_sum "Si O2"
_cell_formula_units_Z 56
_cell_length_a 15.138607
_cell_length_b 15.138607
_cell_length_c 10.815752
_cell_angle_alpha 90.000000
_cell_angle_beta 90.000000
_cell_angle_gamma 90.000000
_cell_volume 2478.726159
_symmetry_space_group_name_H-M "P 41 2 2"
_symmetry_group_IT_number 91
_symmetry_cell_setting 'tetragonal'
loop_
_space_group_symop_operation_xyz
x,y,z
-y,x,1/4+z
-x,-y,1/2+z
y,-x,3/4+z
x,-y,1/2-z
-x,y,-z
y,x,3/4-z
-y,-x,1/4-z
loop_
_atom_site_type_symbol
_atom_site_label
_atom_site_fract_x
_atom_site_fract_y
_atom_site_fract_z
Si Si1 0.399285 0.329777 0.742776
Si Si2 0.317020 0.598629 0.005007
Si Si3 0.026724 0.650007 0.205485
Si Si4 0.615723 0.879367 0.207982
Si Si5 0.573330 0.889141 0.704505
Si Si6 0.005642 0.840853 0.135156
Si Si7 0.102169 0.824615 0.499877
O O1 0.351342 0.367834 0.624859
O O2 0.501143 0.355932 0.729353
O O3 0.392903 0.225338 0.719590
O O4 0.359731 0.359731 0.875000
O O5 0.342794 0.657207 0.125000
O O6 0.213458 0.588880 0.978812
O O7 0.075664 0.607159 0.322604
O O8 0.033699 0.757209 0.219319
O O9 0.926896 0.619120 0.170284
O O10 0.071921 0.616084 0.079893
O O11 0.532061 0.909254 0.291243
O O12 0.718747 0.895308 0.238255
O O13 0.074798 0.925203 0.125000
O O14 0.903314 0.863139 0.161554
O O15 0.000000 0.800297 0.000000
O O16 0.152452 0.847549 0.625000
O O17 0.000000 0.848265 0.500000
#
# Coordination Sequence:
#
# PCOD9548531 Si02
#       7
#     8   8   8   8   8   8   8
#     4  11  25  46  71 111 150 194 248 315 382 465
#     4  11  24  44  76 106 151 195 249 316 382 464
#     4  11  23  45  70 102 141 190 250 308 375 450
#     4  11  25  46  73 101 146 195 251 310 378 457
#     4  10  24  46  67 106 141 188 258 319 376 452
#     4  12  24  43  70 106 143 185 242 303 369 446
#     4  12  26  46  70 103 144 192 237 297 369 448
#
# _framework density 22.59225
#
# number of rings (size 3 to 8) (size 9 to 14) (size 15 to 20)
#    0.000    0.857    1.429    6.000    4.000    5.714 
#    5.143    4.286    0.000    0.000    0.000    0.000 
#    0.000    0.000    0.000    0.000    0.000    0.000 
#
# Total GULP energy -312328.198467 kJ/mol
# GULP energy per Si atom -5577.289258 kJ/mol
# Density = 2.254083 g / cm^3
# Si number density = 22.592250 Si / 1000 Ang^3
#
#
#
# Elastic Constant Matrix: (Units=GPa)
#
#
# Indices 1 2 3 4 5 6 
#
# 1 142.1591 23.8498 37.9943 0.0000 0.0000 0.0000
# 2 23.8498 142.1488 37.9864 0.0000 0.0000 0.0000
# 3 37.9943 37.9864 108.9617 0.0000 0.0000 0.0000
# 4 0.0000 0.0000 0.0000 35.7642 0.0000 0.0000
# 5 0.0000 0.0000 0.0000 0.0000 35.7643 0.0000
# 6 0.0000 0.0000 0.0000 0.0000 0.0000 34.6013
#
#
#
# Elastic Compliance Matrix: (Units=1/GPa)
#
#
# Indices 1 2 3 4 5 6 
#
# 1 0.007810 -0.000642 -0.002499 0.000000 0.000000 0.000000
# 2 -0.000642 0.007810 -0.002499 0.000000 0.000000 0.000000
# 3 -0.002499 -0.002499 0.010920 0.000000 0.000000 0.000000
# 4 0.000000 0.000000 0.000000 0.027961 0.000000 0.000000
# 5 0.000000 0.000000 0.000000 0.000000 0.027961 0.000000
# 6 0.000000 0.000000 0.000000 0.000000 0.000000 0.028901
#
#
# Mechanical properties :
#
#
# Convention : Reuss Voigt Hill
#
# Bulk Modulus (GPa) = 65.53346 65.88118 65.70732
# Shear Modulus (GPa) = 39.14473 40.78856 39.96665
#
# Velocity S-wave (km/s) = 4.16704 4.25364 4.21056
# Velocity P-wave (km/s) = 7.22650 7.30403 7.26537
#
# Compressibility (1/GPa) = 0.01525938
#
# Stress axis : x y z
#
# Youngs Moduli (GPa) = 128.03836 128.03359 91.57330
#
# Poissons Ratio (x) = 0.08226 0.22888
# Poissons Ratio (y) = 0.08226 0.22883
# Poissons Ratio (z) = 0.32002 0.31994
#
# Static dielectric constant tensor:
#      x y z
#    x 1.995180 0.000000 0.000000 
#    y 0.000000 1.995250 0.000000 
#    z 0.000000 0.000000 1.823810 
# 
# From -- ./inp_files/20339.got.cif
#   From: 2010.05.17/outbox.cif.g08.bks.cpg/sg91_11_cif.got.tgz:20339.got - 2010.06.03 19:20:03.
