data_PCOD9548215
_publ_section_title
;
Structure prediction by ZEFSAII (Michael W. Deem and Ramdas Pophale) SiO2 
 PCOD9548215
Probable space group: P 41 2 2
;
_chemical_formula_sum "Si O2"
_cell_formula_units_Z 56
_cell_length_a 13.918390
_cell_length_b 13.918390
_cell_length_c 12.460611
_cell_angle_alpha 90.000000
_cell_angle_beta 90.000000
_cell_angle_gamma 90.000000
_cell_volume 2413.889253
_symmetry_space_group_name_H-M "P 41 2 2"
_symmetry_group_IT_number 91
_symmetry_cell_setting 'tetragonal'
loop_
_space_group_symop_operation_xyz
x,y,z
-y,x,1/4+z
-x,-y,1/2+z
y,-x,3/4+z
x,-y,1/2-z
-x,y,-z
y,x,3/4-z
-y,-x,1/4-z
loop_
_atom_site_type_symbol
_atom_site_label
_atom_site_fract_x
_atom_site_fract_y
_atom_site_fract_z
Si Si1 0.181530 0.099942 0.202986
Si Si2 0.432290 0.139543 0.593909
Si Si3 0.282131 0.291097 0.247047
Si Si4 0.417204 0.758882 0.689548
Si Si5 0.862303 0.968759 0.474600
Si Si6 0.043313 0.663686 0.615551
Si Si7 0.353917 0.577474 0.818891
O O1 0.264618 0.178918 0.220047
O O2 0.077207 0.112715 0.258834
O O3 0.220031 0.000000 0.250000
O O4 0.144051 0.097184 0.079909
O O5 0.500000 0.171491 0.500000
O O6 0.331873 0.182930 0.553473
O O7 0.461266 0.188343 0.705435
O O8 0.424728 0.024991 0.602395
O O9 0.297329 0.297329 0.375000
O O10 0.363143 0.352412 0.182425
O O11 0.356088 0.844188 0.639132
O O12 0.498510 0.724674 0.607500
O O13 0.330813 0.642488 0.511418
O O14 0.925527 0.925527 0.375000
O O15 0.753066 0.973129 0.439081
O O16 0.000000 0.690166 0.500000
O O17 0.420459 0.500000 0.750000
#
# Coordination Sequence:
#
# PCOD9548215 Si02
#       7
#     8   8   8   8   8   8   8
#     4  12  25  43  63 102 146 194 244 304 352 441
#     4  10  21  43  74 101 137 183 236 291 358 437
#     4  11  24  45  72 101 144 191 242 293 369 445
#     4  10  24  45  70 103 145 182 232 307 369 441
#     4  12  24  38  68  96 141 194 247 294 365 429
#     4  10  22  42  67 100 141 186 240 299 366 439
#     4  11  25  46  72 103 143 184 240 305 373 436
#
# _framework density 23.199075000000001
#
# number of rings (size 3 to 8) (size 9 to 14) (size 15 to 20)
#    0.000    1.143    1.429    4.714    6.000    0.571 
#    0.000   12.143    0.000    0.000    0.000    0.000 
#    0.000    0.000    0.000    0.000    0.000    0.000 
#
# Total GULP energy -311739.918781 kJ/mol
# GULP energy per Si atom -5566.784264 kJ/mol
# Density = 2.314627 g / cm^3
# Si number density = 23.199075 Si / 1000 Ang^3
#
#
#
# Elastic Constant Matrix: (Units=GPa)
#
#
# Indices 1 2 3 4 5 6 
#
# 1 17.5370 93.9519 22.6971 0.0000 0.0000 0.0000
# 2 93.9519 17.5370 22.6971 0.0000 0.0000 0.0000
# 3 22.6971 22.6971 139.6501 0.0000 0.0000 0.0000
# 4 0.0000 0.0000 0.0000 13.2687 0.0000 0.0000
# 5 0.0000 0.0000 0.0000 0.0000 13.2687 0.0000
# 6 0.0000 0.0000 0.0000 0.0000 0.0000 9.8786
#
#
#
# Elastic Compliance Matrix: (Units=1/GPa)
#
#
# Indices 1 2 3 4 5 6 
#
# 1 -0.001741 0.011346 -0.001561 0.000000 0.000000 0.000000
# 2 0.011346 -0.001741 -0.001561 0.000000 0.000000 0.000000
# 3 -0.001561 -0.001561 0.007668 0.000000 0.000000 0.000000
# 4 0.000000 0.000000 0.000000 0.075365 0.000000 0.000000
# 5 0.000000 0.000000 0.000000 0.000000 0.075365 0.000000
# 6 0.000000 0.000000 0.000000 0.000000 0.000000 0.101229
#
#
# Mechanical properties :
#
#
# Convention : Reuss Voigt Hill
#
# Bulk Modulus (GPa) = 48.46363 50.37960 49.42162
# Shear Modulus (GPa) = 20.27757 9.64172 14.95964
#
# Velocity S-wave (km/s) = 2.95967 2.04086 2.54212
# Velocity P-wave (km/s) = 5.71097 5.22655 5.47412
#
# Compressibility (1/GPa) = 0.02063403
#
# Stress axis : x y z
#
# Youngs Moduli (GPa) = -574.49239 -574.49239 130.40862
#
# Poissons Ratio (x) = 6.51807 0.20358
# Poissons Ratio (y) = 6.51807 0.20358
# Poissons Ratio (z) = -0.89684 -0.89684
#
# Static dielectric constant tensor:
#      x y z
#    x 1.891330 0.000000 0.000000 
#    y 0.000000 1.891330 0.000000 
#    z 0.000000 0.000000 1.637540 
# 
# From -- ./inp_files/3923.got.cif
#   From: 2010.05.17/outbox.cif.g08.bks.cpg/sg91_2_cif.got.tgz:3923.got - 2010.06.03 19:20:03.
