data_PCOD9548181
_publ_section_title
;
Structure prediction by ZEFSAII (Michael W. Deem and Ramdas Pophale) SiO2 
 PCOD9548181
Probable space group: P 41 2 2
;
_chemical_formula_sum "Si O2"
_cell_formula_units_Z 48
_cell_length_a 12.048904
_cell_length_b 12.048904
_cell_length_c 17.652003
_cell_angle_alpha 90.000000
_cell_angle_beta 90.000000
_cell_angle_gamma 90.000000
_cell_volume 2562.648734
_symmetry_space_group_name_H-M "P 41 2 2"
_symmetry_group_IT_number 91
_symmetry_cell_setting 'tetragonal'
loop_
_space_group_symop_operation_xyz
x,y,z
-y,x,1/4+z
-x,-y,1/2+z
y,-x,3/4+z
x,-y,1/2-z
-x,y,-z
y,x,3/4-z
-y,-x,1/4-z
loop_
_atom_site_type_symbol
_atom_site_label
_atom_site_fract_x
_atom_site_fract_y
_atom_site_fract_z
Si Si1 0.858844 0.887976 0.135245
Si Si2 0.500000 0.921993 0.500000
Si Si3 0.364427 0.789345 0.374142
Si Si4 0.017786 0.000000 0.250000
Si Si5 0.990813 0.370813 0.111131
Si Si6 0.588634 0.449799 0.931568
Si Si7 0.526914 0.166814 0.248630
O O1 0.807910 0.765646 0.133470
O O2 0.755702 0.972132 0.140695
O O3 0.939193 0.913771 0.205387
O O4 0.931683 0.911560 0.060803
O O5 0.426158 0.850047 0.443080
O O6 0.582486 0.988364 0.445615
O O7 0.401772 0.661893 0.381650
O O8 0.409832 0.838726 0.295126
O O9 0.872925 0.388203 0.068142
O O10 0.079069 0.445748 0.064420
O O11 0.546800 0.546800 0.875000
O O12 0.500000 0.437749 0.000000
O O13 0.709996 0.462656 0.968727
#
# Coordination Sequence:
#
# PCOD9548181 Si02
#       7
#     8   4   8   4   8   8   8
#     4  11  22  41  63  91 123 168 207 277 318 390
#     4  10  22  38  60  94 120 164 212 272 310 398
#     4  11  22  38  64  90 127 163 212 261 333 380
#     4  10  24  40  62  92 124 160 220 262 334 376
#     4  10  21  41  66  91 126 163 222 264 328 380
#     4  12  23  40  63  94 131 166 212 262 329 400
#     4  10  22  41  61  93 125 169 204 270 317 394
#
# _framework density 18.730620999999999
#
# number of rings (size 3 to 8) (size 9 to 14) (size 15 to 20)
#    0.000    1.333    4.167    2.000    0.000    2.667 
#    4.500    0.000    0.000    0.000    0.000    0.000 
#    0.000    0.000    0.000    0.000    0.000    0.000 
#
# Total GULP energy -267803.953955 kJ/mol
# GULP energy per Si atom -5579.249041 kJ/mol
# Density = 1.868799 g / cm^3
# Si number density = 18.730621 Si / 1000 Ang^3
#
#
#
# Elastic Constant Matrix: (Units=GPa)
#
#
# Indices 1 2 3 4 5 6 
#
# 1 69.2537 32.9128 24.5445 0.0000 0.0000 0.0000
# 2 32.9128 69.2537 24.5445 0.0000 0.0000 0.0000
# 3 24.5445 24.5445 90.6434 0.0000 0.0000 0.0000
# 4 0.0000 0.0000 0.0000 24.8316 0.0000 0.0000
# 5 0.0000 0.0000 0.0000 0.0000 24.8316 0.0000
# 6 0.0000 0.0000 0.0000 0.0000 0.0000 14.7721
#
#
#
# Elastic Compliance Matrix: (Units=1/GPa)
#
#
# Indices 1 2 3 4 5 6 
#
# 1 0.019385 -0.008133 -0.003047 0.000000 0.000000 0.000000
# 2 -0.008133 0.019385 -0.003047 0.000000 0.000000 0.000000
# 3 -0.003047 -0.003047 0.012682 0.000000 0.000000 0.000000
# 4 0.000000 0.000000 0.000000 0.040271 0.000000 0.000000
# 5 0.000000 0.000000 0.000000 0.000000 0.040271 0.000000
# 6 0.000000 0.000000 0.000000 0.000000 0.000000 0.067695
#
#
# Mechanical properties :
#
#
# Convention : Reuss Voigt Hill
#
# Bulk Modulus (GPa) = 43.48044 43.68381 43.58212
# Shear Modulus (GPa) = 21.20369 22.69697 21.95033
#
# Velocity S-wave (km/s) = 3.36822 3.48481 3.42701
# Velocity P-wave (km/s) = 6.19601 6.29004 6.24320
#
# Compressibility (1/GPa) = 0.02299885
#
# Stress axis : x y z
#
# Youngs Moduli (GPa) = 51.58745 51.58745 78.85025
#
# Poissons Ratio (x) = 0.41954 0.24024
# Poissons Ratio (y) = 0.41954 0.24024
# Poissons Ratio (z) = 0.15718 0.15718
#
# Static dielectric constant tensor:
#      x y z
#    x 1.646530 0.000000 0.000000 
#    y 0.000000 1.646530 0.000000 
#    z 0.000000 0.000000 1.662200 
# 
# From -- ./inp_files/5647.got.cif
#   From: 2010.05.17/outbox.cif.g08.bks.cpg/sg91_3_cif.got.tgz:5647.got - 2010.06.03 19:20:03.
