data_PCOD9548650
_publ_section_title
;
Structure prediction by ZEFSAII (Michael W. Deem and Ramdas Pophale) SiO2 
 PCOD9548650
Probable space group: P 41 2 2
;
_chemical_formula_sum "Si O2"
_cell_formula_units_Z 48
_cell_length_a 8.689470
_cell_length_b 8.689470
_cell_length_c 30.177902
_cell_angle_alpha 90.000000
_cell_angle_beta 90.000000
_cell_angle_gamma 90.000000
_cell_volume 2278.639493
_symmetry_space_group_name_H-M "P 41 2 2"
_symmetry_group_IT_number 91
_symmetry_cell_setting 'tetragonal'
loop_
_space_group_symop_operation_xyz
x,y,z
-y,x,1/4+z
-x,-y,1/2+z
y,-x,3/4+z
x,-y,1/2-z
-x,y,-z
y,x,3/4-z
-y,-x,1/4-z
loop_
_atom_site_type_symbol
_atom_site_label
_atom_site_fract_x
_atom_site_fract_y
_atom_site_fract_z
Si Si1 0.189232 0.460420 0.952709
Si Si2 0.479840 0.535581 0.175141
Si Si3 0.752932 0.041542 0.490993
Si Si4 0.000000 0.281442 0.500000
Si Si5 0.731549 0.747403 0.538833
Si Si6 0.500000 0.741061 0.000000
Si Si7 0.946233 0.159890 0.079264
O O1 0.353300 0.511542 0.934133
O O2 0.126104 0.330897 0.919617
O O3 0.077441 0.603456 0.964027
O O4 0.213691 0.364170 0.998559
O O5 0.431172 0.568829 0.125000
O O6 0.645914 0.611011 0.184270
O O7 0.364813 0.587379 0.214255
O O8 0.619060 0.151915 0.473610
O O9 0.867645 0.161727 0.515349
O O10 0.672524 0.908507 0.519677
O O11 0.856160 0.945314 0.456502
O O12 0.880754 0.803357 0.565247
O O13 0.926362 0.073639 0.125000
#
# Coordination Sequence:
#
# PCOD9548650 Si02
#       7
#     8   8   8   4   8   4   8
#     4  11  21  42  69  96 133 187 236 286 348 438
#     4  12  26  44  69 104 141 190 239 290 361 430
#     4  11  24  42  69  98 134 187 233 294 369 419
#     4  12  18  40  72  96 126 178 246 276 360 424
#     4  11  22  44  68  97 136 185 233 292 351 426
#     4  12  26  44  70 100 146 186 230 304 358 434
#     4  11  24  41  67 102 135 183 238 298 354 433
#
# _framework density 21.065204000000001
#
# number of rings (size 3 to 8) (size 9 to 14) (size 15 to 20)
#    0.000    0.667    6.667    1.500    7.000    0.000 
#    0.000    0.833    0.000    0.000    0.000    0.000 
#    0.000    0.000    0.000    0.000    0.000    0.000 
#
# Total GULP energy -267788.145614 kJ/mol
# GULP energy per Si atom -5578.919700 kJ/mol
# Density = 2.101726 g / cm^3
# Si number density = 21.065204 Si / 1000 Ang^3
#
#
#
# Elastic Constant Matrix: (Units=GPa)
#
#
# Indices 1 2 3 4 5 6 
#
# 1 100.5280 46.6543 17.0184 0.0000 0.0000 0.0000
# 2 46.6543 100.5278 17.0177 0.0000 0.0000 0.0000
# 3 17.0184 17.0177 72.4432 0.0000 0.0000 0.0000
# 4 0.0000 0.0000 0.0000 13.9128 0.0000 0.0000
# 5 0.0000 0.0000 0.0000 0.0000 13.9139 0.0000
# 6 0.0000 0.0000 0.0000 0.0000 0.0000 49.5894
#
#
#
# Elastic Compliance Matrix: (Units=1/GPa)
#
#
# Indices 1 2 3 4 5 6 
#
# 1 0.012873 -0.005689 -0.001688 0.000000 0.000000 0.000000
# 2 -0.005689 0.012873 -0.001688 0.000000 0.000000 0.000000
# 3 -0.001688 -0.001688 0.014597 0.000000 0.000000 0.000000
# 4 0.000000 0.000000 0.000000 0.071876 0.000000 0.000000
# 5 0.000000 0.000000 0.000000 0.000000 0.071871 0.000000
# 6 0.000000 0.000000 0.000000 0.000000 0.000000 0.020166
#
#
# Mechanical properties :
#
#
# Convention : Reuss Voigt Hill
#
# Bulk Modulus (GPa) = 45.01466 48.31998 46.66732
# Shear Modulus (GPa) = 21.75906 28.33713 25.04810
#
# Velocity S-wave (km/s) = 3.21742 3.67169 3.45204
# Velocity P-wave (km/s) = 5.93448 6.40025 6.17176
#
# Compressibility (1/GPa) = 0.02221498
#
# Stress axis : x y z
#
# Youngs Moduli (GPa) = 77.68025 77.68031 68.50777
#
# Poissons Ratio (x) = 0.44190 0.11563
# Poissons Ratio (y) = 0.44190 0.11562
# Poissons Ratio (z) = 0.13111 0.13110
#
# Static dielectric constant tensor:
#      x y z
#    x 1.791250 0.000000 0.000000 
#    y 0.000000 1.791250 0.000000 
#    z 0.000000 0.000000 1.734820 
# 
# From -- ./inp_files/22305.got.cif
#   From: 2010.05.17/outbox.cif.g08.bks.cpg/sg91_12_cif.got.tgz:22305.got - 2010.06.03 19:20:03.
