data_PCOD9548757
_publ_section_title
;
Structure prediction by ZEFSAII (Michael W. Deem and Ramdas Pophale) SiO2 
 PCOD9548757
Probable space group: P 41 2 2
;
_chemical_formula_sum "Si O2"
_cell_formula_units_Z 60
_cell_length_a 14.308362
_cell_length_b 14.308362
_cell_length_c 12.325376
_cell_angle_alpha 90.000000
_cell_angle_beta 90.000000
_cell_angle_gamma 90.000000
_cell_volume 2523.364653
_symmetry_space_group_name_H-M "P 41 2 2"
_symmetry_group_IT_number 91
_symmetry_cell_setting 'tetragonal'
loop_
_space_group_symop_operation_xyz
x,y,z
-y,x,1/4+z
-x,-y,1/2+z
y,-x,3/4+z
x,-y,1/2-z
-x,y,-z
y,x,3/4-z
-y,-x,1/4-z
loop_
_atom_site_type_symbol
_atom_site_label
_atom_site_fract_x
_atom_site_fract_y
_atom_site_fract_z
Si Si1 0.560251 0.326020 0.205901
Si Si2 0.892224 0.147079 0.967963
Si Si3 0.364434 0.600214 0.296027
Si Si4 0.538234 0.046204 0.379434
Si Si5 0.170028 0.062369 0.474642
Si Si6 0.717989 0.717989 0.875000
Si Si7 0.328361 0.916615 0.175064
Si Si8 0.137134 0.645849 0.538538
O O1 0.592234 0.407767 0.125000
O O2 0.449182 0.327071 0.212725
O O3 0.594600 0.339543 0.328609
O O4 0.604608 0.230970 0.162089
O O5 0.885631 0.155009 0.837701
O O6 0.849515 0.046754 0.995348
O O7 0.860092 0.242495 0.026785
O O8 0.000000 0.139853 0.000000
O O9 0.397578 0.500000 0.250000
O O10 0.286896 0.633748 0.210739
O O11 0.500000 0.041079 0.500000
O O12 0.439533 0.073556 0.321382
O O13 0.607535 0.125066 0.334752
O O14 0.595822 0.951137 0.348776
O O15 0.106077 0.106077 0.375000
O O16 0.278237 0.067518 0.440050
O O17 0.811690 0.706577 0.945473
O O18 0.290291 0.000000 0.250000
#
# Coordination Sequence:
#
# PCOD9548757 Si02
#       8
#     8   8   8   8   8   4   8   8
#     4  12  27  46  75 110 161 201 260 329 405 476
#     4  12  25  48  74 105 154 203 256 323 395 478
#     4  12  25  47  78 111 153 202 262 324 396 484
#     4  11  24  47  76  97 150 198 251 325 393 460
#     4  12  26  45  76 113 155 203 261 325 397 475
#     4  12  28  46  80 120 150 208 268 326 402 482
#     4  12  26  46  74 111 152 194 260 326 393 459
#     4  11  26  50  70 113 149 201 269 318 396 491
#
# _framework density 23.777775999999999
#
# number of rings (size 3 to 8) (size 9 to 14) (size 15 to 20)
#    0.000    0.267    4.667    5.200    3.733    2.133 
#    0.000    0.000    0.000    0.000    0.000    0.000 
#    0.000    0.000    0.000    0.000    0.000    0.000 
#
# Total GULP energy -335251.004565 kJ/mol
# GULP energy per Si atom -5587.516743 kJ/mol
# Density = 2.372366 g / cm^3
# Si number density = 23.777776 Si / 1000 Ang^3
#
#
#
# Elastic Constant Matrix: (Units=GPa)
#
#
# Indices 1 2 3 4 5 6 
#
# 1 108.9045 27.2125 -0.1026 0.0000 0.0000 0.0000
# 2 27.2125 108.9044 -0.1025 0.0000 0.0000 0.0000
# 3 -0.1026 -0.1025 100.0776 0.0000 0.0000 0.0000
# 4 0.0000 0.0000 0.0000 81.2154 0.0000 0.0000
# 5 0.0000 0.0000 0.0000 0.0000 81.2269 0.0000
# 6 0.0000 0.0000 0.0000 0.0000 0.0000 23.7489
#
#
#
# Elastic Compliance Matrix: (Units=1/GPa)
#
#
# Indices 1 2 3 4 5 6 
#
# 1 0.009794 -0.002447 0.000008 0.000000 0.000000 0.000000
# 2 -0.002447 0.009794 0.000008 0.000000 0.000000 0.000000
# 3 0.000008 0.000008 0.009992 0.000000 0.000000 0.000000
# 4 0.000000 0.000000 0.000000 0.012313 0.000000 0.000000
# 5 0.000000 0.000000 0.000000 0.000000 0.012311 0.000000
# 6 0.000000 0.000000 0.000000 0.000000 0.000000 0.042107
#
#
# Mechanical properties :
#
#
# Convention : Reuss Voigt Hill
#
# Bulk Modulus (GPa) = 40.46019 41.32235 40.89127
# Shear Modulus (GPa) = 45.69789 56.63018 51.16403
#
# Velocity S-wave (km/s) = 4.38867 4.88550 4.64374
# Velocity P-wave (km/s) = 6.53709 7.01716 6.78137
#
# Compressibility (1/GPa) = 0.02471565
#
# Stress axis : x y z
#
# Youngs Moduli (GPa) = 102.10473 102.10462 100.07746
#
# Poissons Ratio (x) = 0.24987 -0.00075
# Poissons Ratio (y) = 0.24987 -0.00075
# Poissons Ratio (z) = -0.00077 -0.00077
#
# Static dielectric constant tensor:
#      x y z
#    x 0.860070 0.000000 0.000000 
#    y 0.000000 0.859920 0.000000 
#    z 0.000000 0.000000 1.988300 
# 
# From -- ./inp_files/20855.got.cif
#   From: 2010.05.17/outbox.cif.g08.bks.cpg/sg91_11_cif.got.tgz:20855.got - 2010.06.03 19:20:03.
