data_PCOD9548490
_publ_section_title
;
Structure prediction by ZEFSAII (Michael W. Deem and Ramdas Pophale) SiO2 
 PCOD9548490
Probable space group: P 41 2 2
;
_chemical_formula_sum "Si O2"
_cell_formula_units_Z 48
_cell_length_a 18.765852
_cell_length_b 18.765852
_cell_length_c 6.891709
_cell_angle_alpha 90.000000
_cell_angle_beta 90.000000
_cell_angle_gamma 90.000000
_cell_volume 2426.964954
_symmetry_space_group_name_H-M "P 41 2 2"
_symmetry_group_IT_number 91
_symmetry_cell_setting 'tetragonal'
loop_
_space_group_symop_operation_xyz
x,y,z
-y,x,1/4+z
-x,-y,1/2+z
y,-x,3/4+z
x,-y,1/2-z
-x,y,-z
y,x,3/4-z
-y,-x,1/4-z
loop_
_atom_site_type_symbol
_atom_site_label
_atom_site_fract_x
_atom_site_fract_y
_atom_site_fract_z
Si Si1 0.841686 0.268186 0.582871
Si Si2 0.376583 0.546716 0.932861
Si Si3 0.578528 0.020059 0.459244
Si Si4 0.748488 0.648882 0.246091
Si Si5 0.288542 0.500000 0.250000
Si Si6 0.697963 0.000000 0.750000
Si Si7 0.820147 0.610043 0.634856
O O1 0.807372 0.192629 0.625000
O O2 0.798261 0.312897 0.416438
O O3 0.925557 0.263597 0.537921
O O4 0.828080 0.311073 0.782648
O O5 0.408058 0.500000 0.750000
O O6 0.316081 0.601059 0.848851
O O7 0.418887 0.581114 0.125000
O O8 0.334003 0.488142 0.057476
O O9 0.500000 0.991185 0.500000
O O10 0.576303 0.105382 0.453502
O O11 0.600681 0.000000 0.250000
O O12 0.640326 0.986862 0.583630
O O13 0.707724 0.707724 0.375000
O O14 0.797915 0.607976 0.407709
O O15 0.239650 0.430993 0.257859
#
# Coordination Sequence:
#
# PCOD9548490 Si02
#       7
#     8   8   8   8   4   4   8
#     4  11  22  41  64  95 130 167 216 266 322 389
#     4  12  27  43  67  93 121 163 220 286 349 410
#     4  11  21  36  53  81 129 177 210 250 306 384
#     4  12  22  39  65  96 120 158 209 272 332 380
#     4  12  22  42  64  88 120 162 214 272 332 396
#     4  10  24  40  60  90 132 174 214 260 320 388
#     4  11  22  36  60  92 122 163 219 263 314 388
#
# _framework density 19.777788000000001
#
# number of rings (size 3 to 8) (size 9 to 14) (size 15 to 20)
#    0.000    0.667    6.667    2.500    0.000    0.000 
#    3.000    0.000    1.833    1.000    0.000    1.167 
#    0.000    0.000    0.000    0.000    0.000    0.000 
#
# Total GULP energy -267258.718271 kJ/mol
# GULP energy per Si atom -5567.889964 kJ/mol
# Density = 1.973277 g / cm^3
# Si number density = 19.777788 Si / 1000 Ang^3
#
#
#
# Elastic Constant Matrix: (Units=GPa)
#
#
# Indices 1 2 3 4 5 6 
#
# 1 72.8333 41.3524 12.5301 0.0000 0.0000 0.0000
# 2 41.3524 72.8345 12.5311 0.0000 0.0000 0.0000
# 3 12.5301 12.5311 83.4817 0.0000 0.0000 0.0000
# 4 0.0000 0.0000 0.0000 21.3803 0.0000 0.0000
# 5 0.0000 0.0000 0.0000 0.0000 21.3787 0.0000
# 6 0.0000 0.0000 0.0000 0.0000 0.0000 -3.4469
#
#
#
# Elastic Compliance Matrix: (Units=1/GPa)
#
#
# Indices 1 2 3 4 5 6 
#
# 1 0.020410 -0.011354 -0.001359 0.000000 0.000000 0.000000
# 2 -0.011354 0.020410 -0.001359 0.000000 0.000000 0.000000
# 3 -0.001359 -0.001359 0.012387 0.000000 0.000000 0.000000
# 4 0.000000 0.000000 0.000000 0.046772 0.000000 0.000000
# 5 0.000000 0.000000 0.000000 0.000000 0.046776 0.000000
# 6 0.000000 0.000000 0.000000 0.000000 0.000000 -0.290118
#
#
# Mechanical properties :
#
#
# Convention : Reuss Voigt Hill
#
# Bulk Modulus (GPa) = 39.90192 40.21963 40.06077
# Shear Modulus (GPa) = -46.78878 18.71148 -14.03865
#
# Velocity S-wave (km/s) = -4.86915 3.07919 -2.66713
# Velocity P-wave (km/s) = 3.37528 5.74646 3.28856
#
# Compressibility (1/GPa) = 0.02506145
#
# Stress axis : x y z
#
# Youngs Moduli (GPa) = 48.99451 48.99512 80.73151
#
# Poissons Ratio (x) = 0.55631 0.10973
# Poissons Ratio (y) = 0.55630 0.10975
# Poissons Ratio (z) = 0.06659 0.06661
#
# Static dielectric constant tensor:
#      x y z
#    x 1.695030 0.000000 0.000000 
#    y 0.000000 1.695030 0.000000 
#    z 0.000000 0.000000 1.754600 
# 
# From -- ./inp_files/8950.got.cif
#   From: 2010.05.17/outbox.cif.g08.bks.cpg/sg91_5_cif.got.tgz:8950.got - 2010.06.03 19:20:03.
