data_PCOD9548988
_publ_section_title
;
Structure prediction by ZEFSAII (Michael W. Deem and Ramdas Pophale) SiO2 
 PCOD9548988
Probable space group: P 41 21 2
;
_chemical_formula_sum "Si O2"
_cell_formula_units_Z 40
_cell_length_a 20.779619
_cell_length_b 20.779619
_cell_length_c 5.136155
_cell_angle_alpha 90.000000
_cell_angle_beta 90.000000
_cell_angle_gamma 90.000000
_cell_volume 2217.753546
_symmetry_space_group_name_H-M "P 41 21 2"
_symmetry_group_IT_number 92
_symmetry_cell_setting 'tetragonal'
loop_
_space_group_symop_operation_xyz
x,y,z
1/2-y,1/2+x,1/4+z
-x,-y,1/2+z
1/2+y,1/2-x,3/4+z
1/2+x,1/2-y,3/4-z
1/2-x,1/2+y,1/4-z
y,x,-z
-y,-x,1/2-z
loop_
_atom_site_type_symbol
_atom_site_label
_atom_site_fract_x
_atom_site_fract_y
_atom_site_fract_z
Si Si1 0.560114 0.812792 0.421988
Si Si2 0.056866 0.421002 0.301437
Si Si3 0.304355 0.244096 0.755190
Si Si4 0.213641 0.520437 0.585018
Si Si5 0.365121 0.694890 0.999897
O O1 0.572914 0.889997 0.428149
O O2 0.623589 0.780593 0.299606
O O3 0.535626 0.785218 0.697197
O O4 0.505936 0.800932 0.203470
O O5 0.071609 0.482401 0.477191
O O6 0.062428 0.349445 0.417203
O O7 0.284451 0.284451 0.500000
O O8 0.256585 0.182627 0.766582
O O9 0.287740 0.287740 0.000000
O O10 0.275894 0.564602 0.551178
O O11 0.348931 0.651070 0.250000
O O12 0.344793 0.655208 0.750000
#
# Coordination Sequence:
#
# PCOD9548988 Si02
#       5
#     8   8   8   8   8
#     4  11  22  35  54  79 109 142 190 236 271 320
#     4  10  20  34  48  72 106 154 192 228 268 306
#     4  10  20  36  55  76 106 144 185 225 281 336
#     4  11  22  35  54  79 109 142 190 236 271 320
#     4  10  20  36  55  76 106 144 185 225 281 336
#
# _framework density 18.036269000000001
#
# number of rings (size 3 to 8) (size 9 to 14) (size 15 to 20)
#    0.000    1.600    2.000    3.600    0.000    4.800 
#    0.000    0.000    0.000    0.000    0.000    0.000 
#    0.000   44.800    0.000    0.000    0.000    0.000 
#
# Total GULP energy -222970.212175 kJ/mol
# GULP energy per Si atom -5574.255304 kJ/mol
# Density = 1.799522 g / cm^3
# Si number density = 18.036269 Si / 1000 Ang^3
#
#
#
# Elastic Constant Matrix: (Units=GPa)
#
#
# Indices 1 2 3 4 5 6 
#
# 1 320.3334 -272.3603 7.7159 0.0000 0.0000 0.0000
# 2 -272.3603 320.9771 8.4171 0.0000 0.0000 0.0000
# 3 7.7159 8.4171 87.2304 0.0000 0.0000 0.0000
# 4 0.0000 0.0000 0.0000 2.2750 0.0000 0.0000
# 5 0.0000 0.0000 0.0000 0.0000 2.2830 0.0000
# 6 0.0000 0.0000 0.0000 0.0000 0.0000 29.4613
#
#
#
# Elastic Compliance Matrix: (Units=1/GPa)
#
#
# Indices 1 2 3 4 5 6 
#
# 1 0.011536 0.009840 -0.001970 0.000000 0.000000 0.000000
# 2 0.009840 0.011517 -0.001982 0.000000 0.000000 0.000000
# 3 -0.001970 -0.001982 0.011829 0.000000 0.000000 0.000000
# 4 0.000000 0.000000 0.000000 0.439564 0.000000 0.000000
# 5 0.000000 0.000000 0.000000 0.000000 0.438029 0.000000
# 6 0.000000 0.000000 0.000000 0.000000 0.000000 0.033943
#
#
# Mechanical properties :
#
#
# Convention : Reuss Voigt Hill
#
# Bulk Modulus (GPa) = 21.43227 24.00960 22.72094
# Shear Modulus (GPa) = 5.26209 72.45506 38.85857
#
# Velocity S-wave (km/s) = 1.70992 6.34500 4.64666
# Velocity P-wave (km/s) = 3.97582 8.18654 6.43532
#
# Compressibility (1/GPa) = 0.04665861
#
# Stress axis : x y z
#
# Youngs Moduli (GPa) = 86.68887 86.82826 84.53546
#
# Poissons Ratio (x) = -0.85438 0.16652
# Poissons Ratio (y) = -0.85301 0.16752
# Poissons Ratio (z) = 0.17076 0.17207
#
# Static dielectric constant tensor:
#      x y z
#    x 1.845820 0.000000 0.000000 
#    y 0.000000 1.845870 0.000000 
#    z 0.000000 0.000000 1.640650 
# 
# From -- ./inp_files/428.got.cif
#   From: 2010.05.17/outbox.cif.g08.bks.cpg/sg92_1_cif.got.tgz:428.got - 2010.06.03 19:35:17.
