data_PCOD9548557
_publ_section_title
;
Structure prediction by ZEFSAII (Michael W. Deem and Ramdas Pophale) SiO2 
 PCOD9548557
Probable space group: P 41 2 2
;
_chemical_formula_sum "Si O2"
_cell_formula_units_Z 16
_cell_length_a 6.920597
_cell_length_b 6.920597
_cell_length_c 10.816694
_cell_angle_alpha 90.000000
_cell_angle_beta 90.000000
_cell_angle_gamma 90.000000
_cell_volume 518.061912
_symmetry_space_group_name_H-M "P 41 2 2"
_symmetry_group_IT_number 91
_symmetry_cell_setting 'tetragonal'
loop_
_space_group_symop_operation_xyz
x,y,z
-y,x,1/4+z
-x,-y,1/2+z
y,-x,3/4+z
x,-y,1/2-z
-x,y,-z
y,x,3/4-z
-y,-x,1/4-z
loop_
_atom_site_type_symbol
_atom_site_label
_atom_site_fract_x
_atom_site_fract_y
_atom_site_fract_z
Si Si1 0.749253 0.749253 0.875000
Si Si2 0.404796 0.404796 0.875000
Si Si3 0.662923 0.961190 0.120406
O O1 0.489185 0.500000 0.750000
O O2 0.858887 0.778160 0.741061
O O3 0.528582 0.169295 0.642008
O O4 0.175923 0.420711 0.856071
O O5 0.773749 0.000000 0.250000
#
# Coordination Sequence:
#
# PCOD9548557 Si02
#       3
#     4   4   8
#     4  10  24  55  91 138 214 261 361 434 524 639
#     4  12  28  59  97 152 206 277 355 432 544 645
#     4  11  27  53  96 150 198 279 342 434 534 631
#
# _framework density 30.884340000000002
#
# number of rings (size 3 to 8) (size 9 to 14) (size 15 to 20)
#    0.000    1.000    5.000    0.000    7.000    2.000 
#    0.000   10.000    0.000    0.000    0.000    0.000 
#    0.000    0.000    0.000    0.000    0.000    0.000 
#
# Total GULP energy -89150.156980 kJ/mol
# GULP energy per Si atom -5571.884811 kJ/mol
# Density = 3.081405 g / cm^3
# Si number density = 30.884340 Si / 1000 Ang^3
#
#
#
# Elastic Constant Matrix: (Units=GPa)
#
#
# Indices 1 2 3 4 5 6 
#
# 1 225.3655 121.0368 114.7950 0.0000 0.0000 0.0000
# 2 121.0368 225.3655 114.7950 0.0000 0.0000 0.0000
# 3 114.7950 114.7950 391.6385 0.0000 0.0000 0.0000
# 4 0.0000 0.0000 0.0000 60.5811 0.0000 0.0000
# 5 0.0000 0.0000 0.0000 0.0000 60.5811 0.0000
# 6 0.0000 0.0000 0.0000 0.0000 0.0000 41.0857
#
#
#
# Elastic Compliance Matrix: (Units=1/GPa)
#
#
# Indices 1 2 3 4 5 6 
#
# 1 0.006584 -0.003001 -0.001050 0.000000 0.000000 0.000000
# 2 -0.003001 0.006584 -0.001050 0.000000 0.000000 0.000000
# 3 -0.001050 -0.001050 0.003169 0.000000 0.000000 0.000000
# 4 0.000000 0.000000 0.000000 0.016507 0.000000 0.000000
# 5 0.000000 0.000000 0.000000 0.000000 0.016507 0.000000
# 6 0.000000 0.000000 0.000000 0.000000 0.000000 0.024339
#
#
# Mechanical properties :
#
#
# Convention : Reuss Voigt Hill
#
# Bulk Modulus (GPa) = 163.02579 171.51365 167.26972
# Shear Modulus (GPa) = 58.18177 65.23245 61.70711
#
# Velocity S-wave (km/s) = 4.34505 4.60080 4.47476
# Velocity P-wave (km/s) = 8.83590 9.15849 8.99864
#
# Compressibility (1/GPa) = 0.00613400
#
# Stress axis : x y z
#
# Youngs Moduli (GPa) = 151.88381 151.88381 315.55418
#
# Poissons Ratio (x) = 0.45582 0.33139
# Poissons Ratio (y) = 0.45582 0.33139
# Poissons Ratio (z) = 0.15951 0.15951
#
# Static dielectric constant tensor:
#      x y z
#    x 2.528540 0.000000 0.000000 
#    y 0.000000 2.528540 0.000000 
#    z 0.000000 0.000000 3.037340 
# 
# From -- ./inp_files/2977.got.cif
#   From: 2010.05.17/outbox.cif.g08.bks.cpg/sg91_2_cif.got.tgz:2977.got - 2010.06.03 19:20:03.
