data_PCOD9548610
_publ_section_title
;
Structure prediction by ZEFSAII (Michael W. Deem and Ramdas Pophale) SiO2 
 PCOD9548610
Probable space group: P 41 2 2
;
_chemical_formula_sum "Si O2"
_cell_formula_units_Z 40
_cell_length_a 11.084945
_cell_length_b 11.084945
_cell_length_c 17.368718
_cell_angle_alpha 90.000000
_cell_angle_beta 90.000000
_cell_angle_gamma 90.000000
_cell_volume 2134.198691
_symmetry_space_group_name_H-M "P 41 2 2"
_symmetry_group_IT_number 91
_symmetry_cell_setting 'tetragonal'
loop_
_space_group_symop_operation_xyz
x,y,z
-y,x,1/4+z
-x,-y,1/2+z
y,-x,3/4+z
x,-y,1/2-z
-x,y,-z
y,x,3/4-z
-y,-x,1/4-z
loop_
_atom_site_type_symbol
_atom_site_label
_atom_site_fract_x
_atom_site_fract_y
_atom_site_fract_z
Si Si1 0.962778 0.128717 0.911276
Si Si2 0.494414 0.379420 0.696111
Si Si3 0.141592 0.677567 0.654501
Si Si4 0.541562 0.129636 0.788787
Si Si5 0.307786 0.783097 0.424927
O O1 0.833714 0.191922 0.919030
O O2 0.041964 0.219900 0.859218
O O3 0.997334 0.997334 0.875000
O O4 0.000000 0.123207 0.000000
O O5 0.494001 0.500000 0.750000
O O6 0.580719 0.419282 0.625000
O O7 0.531721 0.251734 0.736678
O O8 0.355410 0.352495 0.672377
O O9 0.267414 0.732587 0.625000
O O10 0.116163 0.574199 0.593915
O O11 0.159645 0.648162 0.743959
O O12 0.645042 0.152002 0.849784
O O13 0.557288 0.000000 0.750000
#
# Coordination Sequence:
#
# PCOD9548610 Si02
#       5
#     8   8   8   8   8
#     4  11  21  41  68  98 131 178 231 292 352 424
#     4  12  24  44  72 103 142 190 245 301 368 435
#     4  11  20  39  73  98 123 168 233 300 338 407
#     4  12  26  45  65 101 146 182 231 303 362 431
#     4  12  24  41  69 106 131 179 242 294 360 437
#
# _framework density 18.742397
#
# number of rings (size 3 to 8) (size 9 to 14) (size 15 to 20)
#    0.000    0.400    8.000    3.600    0.000    0.800 
#    3.600    0.000    0.000    0.000    0.000    0.000 
#    0.000    0.000    0.000    0.000    0.000    0.000 
#
# Total GULP energy -222821.589834 kJ/mol
# GULP energy per Si atom -5570.539746 kJ/mol
# Density = 1.869974 g / cm^3
# Si number density = 18.742397 Si / 1000 Ang^3
#
#
#
# Elastic Constant Matrix: (Units=GPa)
#
#
# Indices 1 2 3 4 5 6 
#
# 1 107.5597 41.6813 69.5606 0.0000 0.0000 0.0000
# 2 41.6813 107.5614 69.5603 0.0000 0.0000 0.0000
# 3 69.5606 69.5603 161.6614 0.0000 0.0000 0.0000
# 4 0.0000 0.0000 0.0000 37.5125 0.0000 0.0000
# 5 0.0000 0.0000 0.0000 0.0000 37.5117 0.0000
# 6 0.0000 0.0000 0.0000 0.0000 0.0000 51.8906
#
#
#
# Elastic Compliance Matrix: (Units=1/GPa)
#
#
# Indices 1 2 3 4 5 6 
#
# 1 0.013184 -0.001996 -0.004814 0.000000 0.000000 0.000000
# 2 -0.001996 0.013184 -0.004814 0.000000 0.000000 0.000000
# 3 -0.004814 -0.004814 0.010329 0.000000 0.000000 0.000000
# 4 0.000000 0.000000 0.000000 0.026658 0.000000 0.000000
# 5 0.000000 0.000000 0.000000 0.000000 0.026658 0.000000
# 6 0.000000 0.000000 0.000000 0.000000 0.000000 0.019271
#
#
# Mechanical properties :
#
#
# Convention : Reuss Voigt Hill
#
# Bulk Modulus (GPa) = 74.35736 82.04300 78.20018
# Shear Modulus (GPa) = 36.49263 38.44830 37.47047
#
# Velocity S-wave (km/s) = 4.41734 4.53416 4.47613
# Velocity P-wave (km/s) = 8.11028 8.44278 8.27820
#
# Compressibility (1/GPa) = 0.01344857
#
# Stress axis : x y z
#
# Youngs Moduli (GPa) = 75.85010 75.85205 96.81818
#
# Poissons Ratio (x) = 0.15137 0.46610
# Poissons Ratio (y) = 0.15136 0.46608
# Poissons Ratio (z) = 0.36516 0.36515
#
# Static dielectric constant tensor:
#      x y z
#    x 1.169440 0.000000 0.000000 
#    y 0.000000 1.169640 0.000000 
#    z 0.000000 0.000000 1.681150 
# 
# From -- ./inp_files/11356.got.cif
#   From: 2010.05.17/outbox.cif.g08.bks.cpg/sg91_6_cif.got.tgz:11356.got - 2010.06.03 19:20:03.
