data_PCOD9548760
_publ_section_title
;
Structure prediction by ZEFSAII (Michael W. Deem and Ramdas Pophale) SiO2 
 PCOD9548760
Probable space group: P 41 2 2
;
_chemical_formula_sum "Si O2"
_cell_formula_units_Z 24
_cell_length_a 9.165400
_cell_length_b 9.165400
_cell_length_c 12.702465
_cell_angle_alpha 90.000000
_cell_angle_beta 90.000000
_cell_angle_gamma 90.000000
_cell_volume 1067.064947
_symmetry_space_group_name_H-M "P 41 2 2"
_symmetry_group_IT_number 91
_symmetry_cell_setting 'tetragonal'
loop_
_space_group_symop_operation_xyz
x,y,z
-y,x,1/4+z
-x,-y,1/2+z
y,-x,3/4+z
x,-y,1/2-z
-x,y,-z
y,x,3/4-z
-y,-x,1/4-z
loop_
_atom_site_type_symbol
_atom_site_label
_atom_site_fract_x
_atom_site_fract_y
_atom_site_fract_z
Si Si1 0.768961 0.551198 0.932948
Si Si2 0.755197 0.172443 0.244021
Si Si3 0.083862 0.390319 0.656384
O O1 0.640503 0.640503 0.875000
O O2 0.916651 0.573602 0.866812
O O3 0.745789 0.378974 0.949326
O O4 0.820657 0.595935 0.050655
O O5 0.775903 0.224098 0.125000
O O6 0.899028 0.225593 0.303420
O O7 0.728957 0.000000 0.250000
O O8 0.132263 0.500000 0.750000
#
# Coordination Sequence:
#
# PCOD9548760 Si02
#       3
#     8   8   8
#     4  11  26  46  73 109 146 194 249 315 375 459
#     4  12  25  49  76 108 147 199 251 316 385 457
#     4  11  24  49  73 103 152 192 249 312 387 458
#
# _framework density 22.491602
#
# number of rings (size 3 to 8) (size 9 to 14) (size 15 to 20)
#    0.000    0.667    6.667    0.000    9.333    1.333 
#    6.000    0.000    0.000    0.000    0.000    0.000 
#    0.000    0.000    0.000    0.000    0.000    0.000 
#
# Total GULP energy -134051.618423 kJ/mol
# GULP energy per Si atom -5585.484101 kJ/mol
# Density = 2.244041 g / cm^3
# Si number density = 22.491602 Si / 1000 Ang^3
#
#
#
# Elastic Constant Matrix: (Units=GPa)
#
#
# Indices 1 2 3 4 5 6 
#
# 1 78.5495 73.7525 68.0688 0.0000 0.0000 0.0000
# 2 73.7525 78.5500 68.0686 0.0000 0.0000 0.0000
# 3 68.0688 68.0686 138.2478 0.0000 0.0000 0.0000
# 4 0.0000 0.0000 0.0000 44.5094 0.0000 0.0000
# 5 0.0000 0.0000 0.0000 0.0000 44.5098 0.0000
# 6 0.0000 0.0000 0.0000 0.0000 0.0000 31.9073
#
#
#
# Elastic Compliance Matrix: (Units=1/GPa)
#
#
# Indices 1 2 3 4 5 6 
#
# 1 0.110090 -0.098362 -0.005775 0.000000 0.000000 0.000000
# 2 -0.098362 0.110089 -0.005774 0.000000 0.000000 0.000000
# 3 -0.005775 -0.005774 0.012919 0.000000 0.000000 0.000000
# 4 0.000000 0.000000 0.000000 0.022467 0.000000 0.000000
# 5 0.000000 0.000000 0.000000 0.000000 0.022467 0.000000
# 6 0.000000 0.000000 0.000000 0.000000 0.000000 0.031341
#
#
# Mechanical properties :
#
#
# Convention : Reuss Voigt Hill
#
# Bulk Modulus (GPa) = 75.31640 79.45855 77.38748
# Shear Modulus (GPa) = 9.36996 29.88247 19.62622
#
# Velocity S-wave (km/s) = 2.04329 3.64896 2.95719
# Velocity P-wave (km/s) = 6.25507 7.29095 6.79278
#
# Compressibility (1/GPa) = 0.01327732
#
# Stress axis : x y z
#
# Youngs Moduli (GPa) = 9.08345 9.08358 77.40378
#
# Poissons Ratio (x) = 0.89348 0.44697
# Poissons Ratio (y) = 0.89347 0.44689
# Poissons Ratio (z) = 0.05245 0.05244
#
# Static dielectric constant tensor:
#      x y z
#    x 1.860040 0.000000 0.000000 
#    y 0.000000 1.860040 0.000000 
#    z 0.000000 0.000000 1.853870 
# 
# From -- ./inp_files/4282.got.cif
#   From: 2010.05.17/outbox.cif.g08.bks.cpg/sg91_3_cif.got.tgz:4282.got - 2010.06.03 19:20:03.
