data_PCOD9548679
_publ_section_title
;
Structure prediction by ZEFSAII (Michael W. Deem and Ramdas Pophale) SiO2 
 PCOD9548679
Probable space group: P 41 2 2
;
_chemical_formula_sum "Si O2"
_cell_formula_units_Z 48
_cell_length_a 8.190121
_cell_length_b 8.190121
_cell_length_c 34.515450
_cell_angle_alpha 90.000000
_cell_angle_beta 90.000000
_cell_angle_gamma 90.000000
_cell_volume 2315.230185
_symmetry_space_group_name_H-M "P 41 2 2"
_symmetry_group_IT_number 91
_symmetry_cell_setting 'tetragonal'
loop_
_space_group_symop_operation_xyz
x,y,z
-y,x,1/4+z
-x,-y,1/2+z
y,-x,3/4+z
x,-y,1/2-z
-x,y,-z
y,x,3/4-z
-y,-x,1/4-z
loop_
_atom_site_type_symbol
_atom_site_label
_atom_site_fract_x
_atom_site_fract_y
_atom_site_fract_z
Si Si1 0.782156 0.984443 0.403989
Si Si2 0.014343 0.772845 0.953821
Si Si3 0.928054 0.510071 0.903989
Si Si4 0.664920 0.893443 0.923936
Si Si5 0.202225 0.462672 0.795258
Si Si6 0.563487 0.534687 0.920596
O O1 0.921074 0.921074 0.375000
O O2 0.705647 0.855487 0.434389
O O3 0.845602 0.126634 0.431895
O O4 0.640320 0.025184 0.372876
O O5 0.035099 0.587966 0.937723
O O6 0.842324 0.853753 0.940317
O O7 0.000000 0.776011 0.000000
O O8 0.909209 0.654840 0.872370
O O9 0.752896 0.483367 0.922790
O O10 0.558231 0.726653 0.932453
O O11 0.590160 0.064584 0.938425
O O12 0.191404 0.500000 0.750000
O O13 0.392406 0.475198 0.806606
O O14 0.521205 0.521205 0.875000
#
# Coordination Sequence:
#
# PCOD9548679 Si02
#       6
#     8   8   8   8   8   8
#     4  11  24  40  62  98 129 173 220 270 341 407
#     4  11  22  41  66  98 129 168 220 280 340 399
#     4   9  21  40  65  90 118 177 222 262 329 415
#     4   9  20  41  65  84 123 173 224 259 331 419
#     4  11  23  39  60  95 129 168 217 280 338 390
#     4   9  19  39  64  89 119 170 222 267 325 401
#
# _framework density 20.732281
#
# number of rings (size 3 to 8) (size 9 to 14) (size 15 to 20)
#    0.000    2.000    0.000    4.000    7.000    0.667 
#    9.000    0.000    0.000    0.000    0.000    0.000 
#    0.000    0.000    0.000    0.000    0.000    0.000 
#
# Total GULP energy -267214.021494 kJ/mol
# GULP energy per Si atom -5566.958781 kJ/mol
# Density = 2.068509 g / cm^3
# Si number density = 20.732281 Si / 1000 Ang^3
#
#
#
# Elastic Constant Matrix: (Units=GPa)
#
#
# Indices 1 2 3 4 5 6 
#
# 1 47.2248 20.9419 31.2005 0.0000 0.0000 0.0000
# 2 20.9419 47.2248 31.2005 0.0000 0.0000 0.0000
# 3 31.2005 31.2005 94.4260 0.0000 0.0000 0.0000
# 4 0.0000 0.0000 0.0000 9.0028 0.0000 0.0000
# 5 0.0000 0.0000 0.0000 0.0000 9.0028 0.0000
# 6 0.0000 0.0000 0.0000 0.0000 0.0000 25.7191
#
#
#
# Elastic Compliance Matrix: (Units=1/GPa)
#
#
# Indices 1 2 3 4 5 6 
#
# 1 0.029539 -0.008508 -0.006949 0.000000 0.000000 0.000000
# 2 -0.008508 0.029539 -0.006949 0.000000 0.000000 0.000000
# 3 -0.006949 -0.006949 0.015183 0.000000 0.000000 0.000000
# 4 0.000000 0.000000 0.000000 0.111077 0.000000 0.000000
# 5 0.000000 0.000000 0.000000 0.000000 0.111077 0.000000
# 6 0.000000 0.000000 0.000000 0.000000 0.000000 0.038882
#
#
# Mechanical properties :
#
#
# Convention : Reuss Voigt Hill
#
# Bulk Modulus (GPa) = 33.95763 39.50682 36.73223
# Shear Modulus (GPa) = 12.82296 15.78046 14.30171
#
# Velocity S-wave (km/s) = 2.48967 2.76190 2.62931
# Velocity P-wave (km/s) = 4.96782 5.40997 5.19361
#
# Compressibility (1/GPa) = 0.02944846
#
# Stress axis : x y z
#
# Youngs Moduli (GPa) = 33.85304 33.85304 65.86452
#
# Poissons Ratio (x) = 0.28802 0.45771
# Poissons Ratio (y) = 0.28802 0.45771
# Poissons Ratio (z) = 0.23525 0.23525
#
# Static dielectric constant tensor:
#      x y z
#    x 1.832400 0.000000 0.000000 
#    y 0.000000 1.832400 0.000000 
#    z 0.000000 0.000000 1.111030 
# 
# From -- ./inp_files/13589.got.cif
#   From: 2010.05.17/outbox.cif.g08.bks.cpg/sg91_7_cif.got.tgz:13589.got - 2010.06.03 19:20:03.
