data_PCOD9548337
_publ_section_title
;
Structure prediction by ZEFSAII (Michael W. Deem and Ramdas Pophale) SiO2 
 PCOD9548337
Probable space group: P 41 2 2
;
_chemical_formula_sum "Si O2"
_cell_formula_units_Z 56
_cell_length_a 14.521945
_cell_length_b 14.521945
_cell_length_c 12.520427
_cell_angle_alpha 90.000000
_cell_angle_beta 90.000000
_cell_angle_gamma 90.000000
_cell_volume 2640.393869
_symmetry_space_group_name_H-M "P 41 2 2"
_symmetry_group_IT_number 91
_symmetry_cell_setting 'tetragonal'
loop_
_space_group_symop_operation_xyz
x,y,z
-y,x,1/4+z
-x,-y,1/2+z
y,-x,3/4+z
x,-y,1/2-z
-x,y,-z
y,x,3/4-z
-y,-x,1/4-z
loop_
_atom_site_type_symbol
_atom_site_label
_atom_site_fract_x
_atom_site_fract_y
_atom_site_fract_z
Si Si1 0.214871 0.893268 0.219724
Si Si2 0.335870 0.485653 0.408056
Si Si3 0.441672 0.671191 0.391315
Si Si4 0.234437 0.742882 0.834345
Si Si5 0.417232 0.866958 0.123152
Si Si6 0.829299 0.170702 0.125000
Si Si7 0.000000 0.237300 0.000000
Si Si8 0.891180 0.383440 0.873987
O O1 0.151323 0.848678 0.125000
O O2 0.210298 0.828918 0.325005
O O3 0.322617 0.885097 0.184903
O O4 0.193937 0.000000 0.250000
O O5 0.407697 0.407697 0.375000
O O6 0.383918 0.578390 0.370545
O O7 0.319612 0.500548 0.534616
O O8 0.240029 0.446757 0.364853
O O9 0.500000 0.665644 0.500000
O O10 0.364678 0.750188 0.395086
O O11 0.189208 0.755585 0.718461
O O12 0.333636 0.795318 0.841048
O O13 0.513411 0.907349 0.168165
O O14 0.396277 0.896521 0.002477
O O15 0.820864 0.076717 0.190059
O O16 0.961530 0.307156 0.912203
#
# Coordination Sequence:
#
# PCOD9548337 Si02
#       8
#     8   8   8   8   8   4   4   8
#     4  12  27  48  80 109 147 183 245 313 380 437
#     4  12  23  38  62  95 141 196 247 293 345 421
#     4  12  25  38  59 100 147 191 246 293 350 423
#     4  11  23  45  69  99 140 197 232 294 360 432
#     4  11  22  40  71 107 139 190 235 295 354 430
#     4  10  26  44  80  94 140 184 236 296 370 446
#     4  10  24  48  72 104 138 186 242 296 374 450
#     4  10  22  41  72 101 142 180 238 284 356 437
#
# _framework density 21.208956000000001
#
# number of rings (size 3 to 8) (size 9 to 14) (size 15 to 20)
#    0.000    0.857    4.286    3.000    7.000    0.000 
#    0.000    0.000   20.429    0.000    0.000    0.000 
#    0.000    0.000    0.000    0.000    0.000    0.000 
#
# Total GULP energy -312581.829856 kJ/mol
# GULP energy per Si atom -5581.818390 kJ/mol
# Density = 2.116068 g / cm^3
# Si number density = 21.208956 Si / 1000 Ang^3
#
#
#
# Elastic Constant Matrix: (Units=GPa)
#
#
# Indices 1 2 3 4 5 6 
#
# 1 92.5263 34.8020 32.9036 0.0000 0.0000 0.0000
# 2 34.8020 92.5268 32.9035 0.0000 0.0000 0.0000
# 3 32.9036 32.9035 127.2617 0.0000 0.0000 0.0000
# 4 0.0000 0.0000 0.0000 3.1064 0.0000 0.0000
# 5 0.0000 0.0000 0.0000 0.0000 3.1019 0.0000
# 6 0.0000 0.0000 0.0000 0.0000 0.0000 9.9956
#
#
#
# Elastic Compliance Matrix: (Units=1/GPa)
#
#
# Indices 1 2 3 4 5 6 
#
# 1 0.013194 -0.004129 -0.002344 0.000000 0.000000 0.000000
# 2 -0.004129 0.013194 -0.002344 0.000000 0.000000 0.000000
# 3 -0.002344 -0.002344 0.009070 0.000000 0.000000 0.000000
# 4 0.000000 0.000000 0.000000 0.321919 0.000000 0.000000
# 5 0.000000 0.000000 0.000000 0.000000 0.322386 0.000000
# 6 0.000000 0.000000 0.000000 0.000000 0.000000 0.100044
#
#
# Mechanical properties :
#
#
# Convention : Reuss Voigt Hill
#
# Bulk Modulus (GPa) = 56.10168 57.05922 56.58045
# Shear Modulus (GPa) = 6.22369 17.35448 11.78908
#
# Velocity S-wave (km/s) = 1.71489 2.86363 2.36021
# Velocity P-wave (km/s) = 5.51638 6.15594 5.84491
#
# Compressibility (1/GPa) = 0.01782478
#
# Stress axis : x y z
#
# Youngs Moduli (GPa) = 75.78980 75.79028 110.25613
#
# Poissons Ratio (x) = 0.31296 0.25842
# Poissons Ratio (y) = 0.31296 0.25841
# Poissons Ratio (z) = 0.17763 0.17763
#
# Static dielectric constant tensor:
#      x y z
#    x 1.807480 0.000000 0.000000 
#    y 0.000000 1.807480 0.000000 
#    z 0.000000 0.000000 1.740690 
# 
# From -- ./inp_files/16000.got.cif
#   From: 2010.05.17/outbox.cif.g08.bks.cpg/sg91_8_cif.got.tgz:16000.got - 2010.06.03 19:20:03.
