data_PCOD9548030
_publ_section_title
;
Structure prediction by ZEFSAII (Michael W. Deem and Ramdas Pophale) SiO2 
 PCOD9548030
Probable space group: P 41 2 2
;
_chemical_formula_sum "Si O2"
_cell_formula_units_Z 60
_cell_length_a 17.284895
_cell_length_b 17.284895
_cell_length_c 9.366129
_cell_angle_alpha 90.000000
_cell_angle_beta 90.000000
_cell_angle_gamma 90.000000
_cell_volume 2798.295837
_symmetry_space_group_name_H-M "P 41 2 2"
_symmetry_group_IT_number 91
_symmetry_cell_setting 'tetragonal'
loop_
_space_group_symop_operation_xyz
x,y,z
-y,x,1/4+z
-x,-y,1/2+z
y,-x,3/4+z
x,-y,1/2-z
-x,y,-z
y,x,3/4-z
-y,-x,1/4-z
loop_
_atom_site_type_symbol
_atom_site_label
_atom_site_fract_x
_atom_site_fract_y
_atom_site_fract_z
Si Si1 0.756120 0.500000 0.250000
Si Si2 0.889120 0.331504 0.207806
Si Si3 0.911296 0.627155 0.971772
Si Si4 0.333037 0.284527 0.015266
Si Si5 0.680631 0.180827 0.442474
Si Si6 0.055065 0.832986 0.713374
Si Si7 0.123039 0.847282 0.287561
Si Si8 0.545700 0.120669 0.240762
O O1 0.716341 0.422738 0.310390
O O2 0.808857 0.525376 0.384006
O O3 0.880191 0.356300 0.371397
O O4 0.798269 0.312230 0.186860
O O5 0.937742 0.256137 0.172786
O O6 0.927807 0.401743 0.120273
O O7 0.854687 0.665222 0.852949
O O8 0.912003 0.534183 0.949693
O O9 0.000000 0.654598 0.000000
O O10 0.270645 0.307329 0.138510
O O11 0.337129 0.337129 0.875000
O O12 0.763097 0.143594 0.401443
O O13 0.606661 0.149055 0.357494
O O14 0.112264 0.887736 0.625000
O O15 0.086147 0.835405 0.874432
O O16 0.968088 0.860736 0.701205
O O17 0.149390 0.850611 0.125000
#
# Coordination Sequence:
#
# PCOD9548030 Si02
#       8
#     4   8   8   8   8   8   8   8
#     4  10  20  40  70 104 138 178 226 298 360 438
#     4  11  21  42  68  88 134 180 231 289 358 430
#     4  12  26  42  62 101 151 187 231 295 367 436
#     4  11  20  41  75 104 134 181 237 285 354 446
#     4  12  25  42  70 104 131 187 244 292 348 454
#     4  12  25  43  65  93 123 168 241 303 350 422
#     4  12  27  44  64  91 130 179 230 292 371 416
#     4  11  22  43  68  97 137 181 233 283 366 433
#
# _framework density 21.441621000000001
#
# number of rings (size 3 to 8) (size 9 to 14) (size 15 to 20)
#    0.000    0.533    6.667    4.000    0.000    4.800 
#    0.000    0.000    0.000    0.000    3.467    0.000 
#    0.000    0.000    0.000    0.000    0.000    0.000 
#
# Total GULP energy -334486.115269 kJ/mol
# GULP energy per Si atom -5574.768588 kJ/mol
# Density = 2.139282 g / cm^3
# Si number density = 21.441621 Si / 1000 Ang^3
#
#
#
# Elastic Constant Matrix: (Units=GPa)
#
#
# Indices 1 2 3 4 5 6 
#
# 1 124.0749 -27.0043 9.8573 0.0000 0.0000 0.0000
# 2 -27.0043 124.1015 9.8621 0.0000 0.0000 0.0000
# 3 9.8573 9.8621 78.8407 0.0000 0.0000 0.0000
# 4 0.0000 0.0000 0.0000 30.9906 0.0000 0.0000
# 5 0.0000 0.0000 0.0000 0.0000 30.9900 0.0000
# 6 0.0000 0.0000 0.0000 0.0000 0.0000 37.1171
#
#
#
# Elastic Compliance Matrix: (Units=1/GPa)
#
#
# Indices 1 2 3 4 5 6 
#
# 1 0.008595 0.001975 -0.001322 0.000000 0.000000 0.000000
# 2 0.001975 0.008593 -0.001322 0.000000 0.000000 0.000000
# 3 -0.001322 -0.001322 0.013014 0.000000 0.000000 0.000000
# 4 0.000000 0.000000 0.000000 0.032268 0.000000 0.000000
# 5 0.000000 0.000000 0.000000 0.000000 0.032268 0.000000
# 6 0.000000 0.000000 0.000000 0.000000 0.000000 0.026942
#
#
# Mechanical properties :
#
#
# Convention : Reuss Voigt Hill
#
# Bulk Modulus (GPa) = 34.64383 34.71636 34.68010
# Shear Modulus (GPa) = 37.69660 42.10635 39.90147
#
# Velocity S-wave (km/s) = 4.19752 4.43625 4.31854
# Velocity P-wave (km/s) = 6.29957 6.51664 6.40903
#
# Compressibility (1/GPa) = 0.02886517
#
# Stress axis : x y z
#
# Youngs Moduli (GPa) = 116.35301 116.37700 76.83799
#
# Poissons Ratio (x) = -0.22987 0.10155
# Poissons Ratio (y) = -0.22982 0.10157
# Poissons Ratio (z) = 0.15378 0.15383
#
# Static dielectric constant tensor:
#      x y z
#    x 1.694930 0.000000 0.000000 
#    y 0.000000 1.694920 0.000000 
#    z 0.000000 0.000000 1.903750 
# 
# From -- ./inp_files/2797.got.cif
#   From: 2010.05.17/outbox.cif.g08.bks.cpg/sg91_2_cif.got.tgz:2797.got - 2010.06.03 19:20:03.
