data_PCOD9548434
_publ_section_title
;
Structure prediction by ZEFSAII (Michael W. Deem and Ramdas Pophale) SiO2 
 PCOD9548434
Probable space group: P 41 2 2
;
_chemical_formula_sum "Si O2"
_cell_formula_units_Z 60
_cell_length_a 12.132738
_cell_length_b 12.132738
_cell_length_c 21.021103
_cell_angle_alpha 90.000000
_cell_angle_beta 90.000000
_cell_angle_gamma 90.000000
_cell_volume 3094.376391
_symmetry_space_group_name_H-M "P 41 2 2"
_symmetry_group_IT_number 91
_symmetry_cell_setting 'tetragonal'
loop_
_space_group_symop_operation_xyz
x,y,z
-y,x,1/4+z
-x,-y,1/2+z
y,-x,3/4+z
x,-y,1/2-z
-x,y,-z
y,x,3/4-z
-y,-x,1/4-z
loop_
_atom_site_type_symbol
_atom_site_label
_atom_site_fract_x
_atom_site_fract_y
_atom_site_fract_z
Si Si1 0.120112 0.982367 0.824872
Si Si2 0.152320 0.738646 0.849936
Si Si3 0.608690 0.789376 0.103760
Si Si4 0.474751 0.705923 0.759344
Si Si5 0.034801 0.637816 0.626331
Si Si6 0.083201 0.427418 0.551798
Si Si7 0.625416 0.761397 0.474233
Si Si8 0.369818 0.500000 0.250000
O O1 0.051298 0.051298 0.875000
O O2 0.245781 0.013634 0.842552
O O3 0.100275 0.000000 0.750000
O O4 0.097498 0.855583 0.840435
O O5 0.263002 0.757377 0.890959
O O6 0.082596 0.648553 0.886523
O O7 0.187159 0.695441 0.781336
O O8 0.562945 0.762907 0.174705
O O9 0.606901 0.920123 0.087591
O O10 0.545609 0.710200 0.055149
O O11 0.550465 0.794110 0.723338
O O12 0.364569 0.671418 0.718822
O O13 0.548472 0.598055 0.771739
O O14 0.043362 0.547351 0.571972
O O15 0.148660 0.634017 0.667265
O O16 0.000000 0.380462 0.500000
O O17 0.500000 0.752947 0.500000
#
# Coordination Sequence:
#
# PCOD9548434 Si02
#       8
#     8   8   8   8   8   8   8   4
#     4  11  25  45  72 100 134 179 226 287 342 404
#     4  10  23  43  63  94 132 165 216 275 330 389
#     4  10  23  41  62  87 132 168 214 270 322 392
#     4  11  24  41  61  98 131 170 213 274 334 401
#     4  11  24  40  64 100 129 172 223 274 331 404
#     4  12  23  41  67  89 132 178 216 268 333 400
#     4  11  22  40  63  97 133 165 218 278 338 395
#     4  12  22  40  68  90 126 176 218 264 334 398
#
# _framework density 19.390013
#
# number of rings (size 3 to 8) (size 9 to 14) (size 15 to 20)
#    0.000    1.067    4.667    1.600    6.533    0.533 
#    2.400    0.000    2.933    0.000    0.000    0.000 
#    0.000    0.000    0.000    0.000    0.000    0.000 
#
# Total GULP energy -334903.708429 kJ/mol
# GULP energy per Si atom -5581.728474 kJ/mol
# Density = 1.934588 g / cm^3
# Si number density = 19.390013 Si / 1000 Ang^3
#
#
#
# Elastic Constant Matrix: (Units=GPa)
#
#
# Indices 1 2 3 4 5 6 
#
# 1 89.2204 24.1142 30.1293 0.0000 0.0000 0.0000
# 2 24.1142 89.2204 30.1293 0.0000 0.0000 0.0000
# 3 30.1293 30.1293 70.0850 0.0000 0.0000 0.0000
# 4 0.0000 0.0000 0.0000 16.0890 0.0000 0.0000
# 5 0.0000 0.0000 0.0000 0.0000 16.0890 0.0000
# 6 0.0000 0.0000 0.0000 0.0000 0.0000 -86.3233
#
#
#
# Elastic Compliance Matrix: (Units=1/GPa)
#
#
# Indices 1 2 3 4 5 6 
#
# 1 0.013399 -0.001961 -0.004917 0.000000 0.000000 0.000000
# 2 -0.001961 0.013399 -0.004917 0.000000 0.000000 0.000000
# 3 -0.004917 -0.004917 0.018496 0.000000 0.000000 0.000000
# 4 0.000000 0.000000 0.000000 0.062154 0.000000 0.000000
# 5 0.000000 0.000000 0.000000 0.000000 0.062154 0.000000
# 6 0.000000 0.000000 0.000000 0.000000 0.000000 -0.011584
#
#
# Mechanical properties :
#
#
# Convention : Reuss Voigt Hill
#
# Bulk Modulus (GPa) = 46.07583 46.36348 46.21966
# Shear Modulus (GPa) = 26.47712 0.11445 13.29578
#
# Velocity S-wave (km/s) = 3.69928 0.24321 2.62143
# Velocity P-wave (km/s) = 6.48540 4.90324 5.74901
#
# Compressibility (1/GPa) = 0.02170335
#
# Stress axis : x y z
#
# Youngs Moduli (GPa) = 74.63443 74.63443 54.06560
#
# Poissons Ratio (x) = 0.14635 0.26584
# Poissons Ratio (y) = 0.14635 0.26584
# Poissons Ratio (z) = 0.36698 0.36698
#
# Static dielectric constant tensor:
#      x y z
#    x 1.619690 0.000000 0.000000 
#    y 0.000000 1.619690 0.000000 
#    z 0.000000 0.000000 1.727930 
# 
# From -- ./inp_files/21579.got.cif
#   From: 2010.05.17/outbox.cif.g08.bks.cpg/sg91_11_cif.got.tgz:21579.got - 2010.06.03 19:20:03.
