data_PCOD9548709
_publ_section_title
;
Structure prediction by ZEFSAII (Michael W. Deem and Ramdas Pophale) SiO2 
 PCOD9548709
Probable space group: P 41 2 2
;
_chemical_formula_sum "Si O2"
_cell_formula_units_Z 24
_cell_length_a 15.676295
_cell_length_b 15.676295
_cell_length_c 4.829799
_cell_angle_alpha 90.000000
_cell_angle_beta 90.000000
_cell_angle_gamma 90.000000
_cell_volume 1186.904871
_symmetry_space_group_name_H-M "P 41 2 2"
_symmetry_group_IT_number 91
_symmetry_cell_setting 'tetragonal'
loop_
_space_group_symop_operation_xyz
x,y,z
-y,x,1/4+z
-x,-y,1/2+z
y,-x,3/4+z
x,-y,1/2-z
-x,y,-z
y,x,3/4-z
-y,-x,1/4-z
loop_
_atom_site_type_symbol
_atom_site_label
_atom_site_fract_x
_atom_site_fract_y
_atom_site_fract_z
Si Si1 0.818226 0.323179 0.103292
Si Si2 0.589385 0.900164 0.833831
Si Si3 0.166681 0.909484 0.383790
O O1 0.725579 0.274422 0.125000
O O2 0.840227 0.401082 0.311907
O O3 0.883092 0.251764 0.212829
O O4 0.852184 0.348536 0.801663
O O5 0.607486 0.000000 0.750000
O O6 0.500000 0.903042 0.000000
O O7 0.097075 0.902926 0.625000
O O8 0.169690 0.000000 0.250000
O O9 0.152143 0.847858 0.125000
#
# Coordination Sequence:
#
# PCOD9548709 Si02
#       3
#     8   8   8
#     4  11  23  40  60  86 120 158 199 243 298 366
#     4  12  24  40  63  93 125 160 201 250 308 364
#     4  11  23  38  55  75 103 148 199 247 295 336
#
# _framework density 20.220659000000001
#
# number of rings (size 3 to 8) (size 9 to 14) (size 15 to 20)
#    0.000    0.667    0.000   11.000    0.000    6.667 
#    0.000    0.000    0.000    0.000    0.000    0.000 
#    0.000   37.333    0.000    0.000    0.000    0.000 
#
# Total GULP energy -133905.261113 kJ/mol
# GULP energy per Si atom -5579.385880 kJ/mol
# Density = 2.017464 g / cm^3
# Si number density = 20.220659 Si / 1000 Ang^3
#
#
#
# Elastic Constant Matrix: (Units=GPa)
#
#
# Indices 1 2 3 4 5 6 
#
# 1 93.6855 28.4643 29.9746 0.0000 0.0000 0.0000
# 2 28.4643 93.6827 29.9730 0.0000 0.0000 0.0000
# 3 29.9746 29.9730 132.9462 0.0000 0.0000 0.0000
# 4 0.0000 0.0000 0.0000 47.8059 0.0000 0.0000
# 5 0.0000 0.0000 0.0000 0.0000 47.8059 0.0000
# 6 0.0000 0.0000 0.0000 0.0000 0.0000 22.4050
#
#
#
# Elastic Compliance Matrix: (Units=1/GPa)
#
#
# Indices 1 2 3 4 5 6 
#
# 1 0.012269 -0.003064 -0.002075 0.000000 0.000000 0.000000
# 2 -0.003064 0.012269 -0.002075 0.000000 0.000000 0.000000
# 3 -0.002075 -0.002075 0.008458 0.000000 0.000000 0.000000
# 4 0.000000 0.000000 0.000000 0.020918 0.000000 0.000000
# 5 0.000000 0.000000 0.000000 0.000000 0.020918 0.000000
# 6 0.000000 0.000000 0.000000 0.000000 0.000000 0.044633
#
#
# Mechanical properties :
#
#
# Convention : Reuss Voigt Hill
#
# Bulk Modulus (GPa) = 53.85993 55.23756 54.54874
# Shear Modulus (GPa) = 35.69328 39.06354 37.37841
#
# Velocity S-wave (km/s) = 4.20597 4.40006 4.30411
# Velocity P-wave (km/s) = 7.09090 7.29320 7.19276
#
# Compressibility (1/GPa) = 0.01856668
#
# Stress axis : x y z
#
# Youngs Moduli (GPa) = 81.50692 81.50497 118.23583
#
# Poissons Ratio (x) = 0.24971 0.24540
# Poissons Ratio (y) = 0.24971 0.24538
# Poissons Ratio (z) = 0.16917 0.16915
#
# Static dielectric constant tensor:
#      x y z
#    x 1.823070 0.000000 0.000000 
#    y 0.000000 1.823040 0.000000 
#    z 0.000000 0.000000 1.856170 
# 
# From -- ./inp_files/13773.got.cif
#   From: 2010.05.17/outbox.cif.g08.bks.cpg/sg91_7_cif.got.tgz:13773.got - 2010.06.03 19:20:03.
