data_PCOD9548782
_publ_section_title
;
Structure prediction by ZEFSAII (Michael W. Deem and Ramdas Pophale) SiO2 
 PCOD9548782
Probable space group: P 41 2 2
;
_chemical_formula_sum "Si O2"
_cell_formula_units_Z 20
_cell_length_a 12.652749
_cell_length_b 12.652749
_cell_length_c 4.824092
_cell_angle_alpha 90.000000
_cell_angle_beta 90.000000
_cell_angle_gamma 90.000000
_cell_volume 772.298813
_symmetry_space_group_name_H-M "P 41 2 2"
_symmetry_group_IT_number 91
_symmetry_cell_setting 'tetragonal'
loop_
_space_group_symop_operation_xyz
x,y,z
-y,x,1/4+z
-x,-y,1/2+z
y,-x,3/4+z
x,-y,1/2-z
-x,y,-z
y,x,3/4-z
-y,-x,1/4-z
loop_
_atom_site_type_symbol
_atom_site_label
_atom_site_fract_x
_atom_site_fract_y
_atom_site_fract_z
Si Si1 0.614648 0.283181 0.361074
Si Si2 0.105321 0.247706 0.181320
Si Si3 0.425822 0.000000 0.250000
O O1 0.500000 0.262997 0.500000
O O2 0.680376 0.319625 0.625000
O O3 0.681816 0.184063 0.241243
O O4 0.626321 0.373680 0.125000
O O5 0.153792 0.153792 0.375000
O O6 0.083556 0.343137 0.391165
O O7 0.000000 0.219076 0.000000
O O8 0.500000 0.965205 0.500000
#
# Coordination Sequence:
#
# PCOD9548782 Si02
#       3
#     8   8   4
#     4  11  26  47  77 118 162 211 271 341 419 505
#     4  11  28  48  83 121 172 218 291 355 425 507
#     4  12  26  48  84 122 162 220 278 344 422 502
#
# _framework density 25.896709000000001
#
# number of rings (size 3 to 8) (size 9 to 14) (size 15 to 20)
#    0.000    0.800    2.000    2.400   11.200    1.600 
#    0.000    0.000    4.400    2.400    0.000    0.000 
#    0.000    0.000    0.000    0.000    0.000    0.000 
#
# Total GULP energy -111450.504263 kJ/mol
# GULP energy per Si atom -5572.525213 kJ/mol
# Density = 2.583777 g / cm^3
# Si number density = 25.896709 Si / 1000 Ang^3
#
#
#
# Elastic Constant Matrix: (Units=GPa)
#
#
# Indices 1 2 3 4 5 6 
#
# 1 155.2224 91.1967 62.1426 0.0000 0.0000 0.0000
# 2 91.1967 155.2225 62.1423 0.0000 0.0000 0.0000
# 3 62.1426 62.1423 157.6902 0.0000 0.0000 0.0000
# 4 0.0000 0.0000 0.0000 67.1550 0.0000 0.0000
# 5 0.0000 0.0000 0.0000 0.0000 67.1548 0.0000
# 6 0.0000 0.0000 0.0000 0.0000 0.0000 47.2419
#
#
#
# Elastic Compliance Matrix: (Units=1/GPa)
#
#
# Indices 1 2 3 4 5 6 
#
# 1 0.010342 -0.005277 -0.001996 0.000000 0.000000 0.000000
# 2 -0.005277 0.010342 -0.001996 0.000000 0.000000 0.000000
# 3 -0.001996 -0.001996 0.007915 0.000000 0.000000 0.000000
# 4 0.000000 0.000000 0.000000 0.014891 0.000000 0.000000
# 5 0.000000 0.000000 0.000000 0.000000 0.014891 0.000000
# 6 0.000000 0.000000 0.000000 0.000000 0.000000 0.021168
#
#
# Mechanical properties :
#
#
# Convention : Reuss Voigt Hill
#
# Bulk Modulus (GPa) = 99.39835 99.89982 99.64909
# Shear Modulus (GPa) = 49.29076 53.15390 51.22233
#
# Velocity S-wave (km/s) = 4.36748 4.53541 4.45224
# Velocity P-wave (km/s) = 7.99370 8.12936 8.06181
#
# Compressibility (1/GPa) = 0.01006053
#
# Stress axis : x y z
#
# Youngs Moduli (GPa) = 96.69524 96.69547 126.34777
#
# Poissons Ratio (x) = 0.51026 0.25218
# Poissons Ratio (y) = 0.51026 0.25218
# Poissons Ratio (z) = 0.19300 0.19300
#
# Static dielectric constant tensor:
#      x y z
#    x 2.034990 0.000000 0.000000 
#    y 0.000000 2.034950 0.000000 
#    z 0.000000 0.000000 1.875250 
# 
# From -- ./inp_files/184.got.cif
#   From: 2010.05.17/outbox.cif.g08.bks.cpg/sg91_1_cif.got.tgz:184.got - 2010.06.03 19:20:03.
