data_PCOD9548154
_publ_section_title
;
Structure prediction by ZEFSAII (Michael W. Deem and Ramdas Pophale) SiO2 
 PCOD9548154
Probable space group: P 41 2 2
;
_chemical_formula_sum "Si O2"
_cell_formula_units_Z 40
_cell_length_a 7.551181
_cell_length_b 7.551181
_cell_length_c 35.288230
_cell_angle_alpha 90.000000
_cell_angle_beta 90.000000
_cell_angle_gamma 90.000000
_cell_volume 2012.146678
_symmetry_space_group_name_H-M "P 41 2 2"
_symmetry_group_IT_number 91
_symmetry_cell_setting 'tetragonal'
loop_
_space_group_symop_operation_xyz
x,y,z
-y,x,1/4+z
-x,-y,1/2+z
y,-x,3/4+z
x,-y,1/2-z
-x,y,-z
y,x,3/4-z
-y,-x,1/4-z
loop_
_atom_site_type_symbol
_atom_site_label
_atom_site_fract_x
_atom_site_fract_y
_atom_site_fract_z
Si Si1 0.286562 0.028490 0.006572
Si Si2 0.698258 0.573392 0.515020
Si Si3 0.840707 0.163303 0.667689
Si Si4 0.171466 0.297833 0.541365
Si Si5 0.476252 0.428554 0.415964
O O1 0.203329 0.897506 0.975766
O O2 0.242978 0.234298 0.001884
O O3 0.500000 0.009547 0.000000
O O4 0.213189 0.975040 0.048143
O O5 0.500000 0.539511 0.500000
O O6 0.816160 0.424386 0.495511
O O7 0.652293 0.556285 0.559280
O O8 0.895785 0.104216 0.625000
O O9 0.742617 0.351189 0.662634
O O10 0.715977 0.006288 0.684083
O O11 0.338720 0.367783 0.565745
O O12 0.509163 0.509163 0.375000
#
# Coordination Sequence:
#
# PCOD9548154 Si02
#       5
#     8   8   8   8   8
#     4  11  20  40  66  88 124 162 208 258 304 368
#     4   9  20  37  65  91 114 163 208 246 307 363
#     4  11  24  40  61  91 125 164 199 254 319 364
#     4  11  21  43  61  89 124 159 206 257 302 371
#     4  10  21  40  63  88 123 163 199 256 311 358
#
# _framework density 19.879266999999999
#
# number of rings (size 3 to 8) (size 9 to 14) (size 15 to 20)
#    0.000    1.600    4.000    1.200    2.800    0.000 
#    7.200    0.000    0.000    0.000    0.000    0.000 
#    0.000    0.000    0.000    0.000    0.000    0.000 
#
# Total GULP energy -222696.262242 kJ/mol
# GULP energy per Si atom -5567.406556 kJ/mol
# Density = 1.983402 g / cm^3
# Si number density = 19.879267 Si / 1000 Ang^3
#
#
#
# Elastic Constant Matrix: (Units=GPa)
#
#
# Indices 1 2 3 4 5 6 
#
# 1 70.5486 40.3447 36.2668 0.0000 0.0000 0.0000
# 2 40.3447 70.5488 36.2668 0.0000 0.0000 0.0000
# 3 36.2668 36.2668 137.8256 0.0000 0.0000 0.0000
# 4 0.0000 0.0000 0.0000 13.4757 0.0000 0.0000
# 5 0.0000 0.0000 0.0000 0.0000 13.4757 0.0000
# 6 0.0000 0.0000 0.0000 0.0000 0.0000 5.0315
#
#
#
# Elastic Compliance Matrix: (Units=1/GPa)
#
#
# Indices 1 2 3 4 5 6 
#
# 1 0.022000 -0.011108 -0.002866 0.000000 0.000000 0.000000
# 2 -0.011108 0.022000 -0.002866 0.000000 0.000000 0.000000
# 3 -0.002866 -0.002866 0.008764 0.000000 0.000000 0.000000
# 4 0.000000 0.000000 0.000000 0.074208 0.000000 0.000000
# 5 0.000000 0.000000 0.000000 0.000000 0.074208 0.000000
# 6 0.000000 0.000000 0.000000 0.000000 0.000000 0.198747
#
#
# Mechanical properties :
#
#
# Convention : Reuss Voigt Hill
#
# Bulk Modulus (GPa) = 52.39986 56.07549 54.23767
# Shear Modulus (GPa) = 11.36445 17.46624 14.41535
#
# Velocity S-wave (km/s) = 2.39356 2.96736 2.69577
# Velocity P-wave (km/s) = 5.83568 6.32531 6.08542
#
# Compressibility (1/GPa) = 0.01908402
#
# Stress axis : x y z
#
# Youngs Moduli (GPa) = 45.45388 45.45407 114.10411
#
# Poissons Ratio (x) = 0.50490 0.32704
# Poissons Ratio (y) = 0.50490 0.32704
# Poissons Ratio (z) = 0.13028 0.13028
#
# Static dielectric constant tensor:
#      x y z
#    x 1.709290 0.000000 0.000000 
#    y 0.000000 1.709290 0.000000 
#    z 0.000000 0.000000 1.823480 
# 
# From -- ./inp_files/22157.got.cif
#   From: 2010.05.17/outbox.cif.g08.bks.cpg/sg91_12_cif.got.tgz:22157.got - 2010.06.03 19:20:03.
