data_PCOD9548424
_publ_section_title
;
Structure prediction by ZEFSAII (Michael W. Deem and Ramdas Pophale) SiO2 
 PCOD9548424
Probable space group: P 41 2 2
;
_chemical_formula_sum "Si O2"
_cell_formula_units_Z 48
_cell_length_a 17.844372
_cell_length_b 17.844372
_cell_length_c 9.153014
_cell_angle_alpha 90.000000
_cell_angle_beta 90.000000
_cell_angle_gamma 90.000000
_cell_volume 2914.517473
_symmetry_space_group_name_H-M "P 41 2 2"
_symmetry_group_IT_number 91
_symmetry_cell_setting 'tetragonal'
loop_
_space_group_symop_operation_xyz
x,y,z
-y,x,1/4+z
-x,-y,1/2+z
y,-x,3/4+z
x,-y,1/2-z
-x,y,-z
y,x,3/4-z
-y,-x,1/4-z
loop_
_atom_site_type_symbol
_atom_site_label
_atom_site_fract_x
_atom_site_fract_y
_atom_site_fract_z
Si Si1 0.647985 0.943051 0.617824
Si Si2 0.795541 0.453255 0.400799
Si Si3 0.827681 0.735429 0.277363
Si Si4 0.198144 0.388213 0.029394
Si Si5 0.953217 0.435680 0.857541
Si Si6 0.290700 0.306975 0.547140
O O1 0.596087 0.871678 0.663831
O O2 0.720697 0.908828 0.538140
O O3 0.661311 0.000000 0.750000
O O4 0.604972 0.985986 0.491133
O O5 0.794733 0.500000 0.250000
O O6 0.794699 0.522776 0.509676
O O7 0.727856 0.394366 0.421422
O O8 0.806664 0.806664 0.375000
O O9 0.804799 0.663236 0.381189
O O10 0.775389 0.735130 0.134643
O O11 0.115038 0.381757 0.097999
O O12 0.267622 0.361415 0.126850
O O13 0.923598 0.500000 0.750000
O O14 0.000000 0.463310 0.000000
O O15 0.292905 0.292905 0.375000
#
# Coordination Sequence:
#
# PCOD9548424 Si02
#       6
#     8   8   8   8   8   8
#     4  11  21  33  52  82 118 147 185 232 275 337
#     4  11  20  37  56  76 107 146 193 227 283 351
#     4   9  19  38  54  71 108 154 196 219 271 339
#     4  11  21  36  55  75 105 148 183 229 289 342
#     4  12  22  32  49  80 115 144 181 224 279 345
#     4  10  23  35  52  80 100 136 198 239 277 333
#
# _framework density 16.469279
#
# number of rings (size 3 to 8) (size 9 to 14) (size 15 to 20)
#    0.000    1.333    5.000    3.000    7.000    0.000 
#    0.000    0.000    0.000    0.000    8.667    0.000 
#    0.000    0.000    0.000    0.000  456.000   34.667 
#
# Total GULP energy -267250.038749 kJ/mol
# GULP energy per Si atom -5567.709141 kJ/mol
# Density = 1.643179 g / cm^3
# Si number density = 16.469279 Si / 1000 Ang^3
#
#
#
# Elastic Constant Matrix: (Units=GPa)
#
#
# Indices 1 2 3 4 5 6 
#
# 1 64.5243 49.8105 40.6746 0.0000 0.0000 0.0000
# 2 49.8105 64.5243 40.6746 0.0000 0.0000 0.0000
# 3 40.6746 40.6746 113.9546 0.0000 0.0000 0.0000
# 4 0.0000 0.0000 0.0000 25.0306 0.0000 0.0000
# 5 0.0000 0.0000 0.0000 0.0000 25.0306 0.0000
# 6 0.0000 0.0000 0.0000 0.0000 0.0000 15.3938
#
#
#
# Elastic Compliance Matrix: (Units=1/GPa)
#
#
# Indices 1 2 3 4 5 6 
#
# 1 0.039844 -0.028120 -0.004185 0.000000 0.000000 0.000000
# 2 -0.028120 0.039844 -0.004185 0.000000 0.000000 0.000000
# 3 -0.004185 -0.004185 0.011763 0.000000 0.000000 0.000000
# 4 0.000000 0.000000 0.000000 0.039951 0.000000 0.000000
# 5 0.000000 0.000000 0.000000 0.000000 0.039951 0.000000
# 6 0.000000 0.000000 0.000000 0.000000 0.000000 0.064961
#
#
# Mechanical properties :
#
#
# Convention : Reuss Voigt Hill
#
# Bulk Modulus (GPa) = 54.13738 56.14695 55.14216
# Shear Modulus (GPa) = 15.85043 20.54721 18.19882
#
# Velocity S-wave (km/s) = 3.10566 3.53598 3.32778
# Velocity P-wave (km/s) = 6.76781 7.12999 6.95126
#
# Compressibility (1/GPa) = 0.01847153
#
# Stress axis : x y z
#
# Youngs Moduli (GPa) = 25.09818 25.09818 85.01455
#
# Poissons Ratio (x) = 0.70576 0.35575
# Poissons Ratio (y) = 0.70576 0.35575
# Poissons Ratio (z) = 0.10503 0.10503
#
# Static dielectric constant tensor:
#      x y z
#    x 1.590370 0.000000 0.000000 
#    y 0.000000 1.590370 0.000000 
#    z 0.000000 0.000000 1.629350 
# 
# From -- ./inp_files/9918.got.cif
#   From: 2010.05.17/outbox.cif.g08.bks.cpg/sg91_5_cif.got.tgz:9918.got - 2010.06.03 19:20:03.
