data_PCOD9548871
_publ_section_title
;
Structure prediction by ZEFSAII (Michael W. Deem and Ramdas Pophale) SiO2 
 PCOD9548871
Probable space group: P 41 21 2
;
_chemical_formula_sum "Si O2"
_cell_formula_units_Z 44
_cell_length_a 16.448655
_cell_length_b 16.448655
_cell_length_c 6.475972
_cell_angle_alpha 90.000000
_cell_angle_beta 90.000000
_cell_angle_gamma 90.000000
_cell_volume 1752.127660
_symmetry_space_group_name_H-M "P 41 21 2"
_symmetry_group_IT_number 92
_symmetry_cell_setting 'tetragonal'
loop_
_space_group_symop_operation_xyz
x,y,z
1/2-y,1/2+x,1/4+z
-x,-y,1/2+z
1/2+y,1/2-x,3/4+z
1/2+x,1/2-y,3/4-z
1/2-x,1/2+y,1/4-z
y,x,-z
-y,-x,1/2-z
loop_
_atom_site_type_symbol
_atom_site_label
_atom_site_fract_x
_atom_site_fract_y
_atom_site_fract_z
Si Si1 0.946285 0.053716 0.750000
Si Si2 0.574889 0.701604 0.734906
Si Si3 0.823883 0.933697 0.686307
Si Si4 0.830280 0.697855 0.110344
Si Si5 0.065138 0.267552 0.226399
Si Si6 0.453359 0.896091 0.349235
O O1 0.894454 0.086063 0.947650
O O2 0.916819 0.961493 0.725878
O O3 0.520144 0.718619 0.521567
O O4 0.658549 0.744478 0.813298
O O5 0.505862 0.727271 0.892987
O O6 0.795652 0.914782 0.455634
O O7 0.787957 0.859182 0.817979
O O8 0.887315 0.644823 0.256295
O O9 0.862528 0.697221 0.873494
O O10 0.026624 0.341335 0.097564
O O11 0.524979 0.916437 0.499448
#
# Coordination Sequence:
#
# PCOD9548871 Si02
#       6
#     4   8   8   8   8   8
#     4   8  18  36  48  64  90 130 164 210 244 296
#     4   9  18  31  48  63  92 123 165 207 243 289
#     4   8  18  32  47  67  87 124 164 201 240 294
#     4  10  18  31  44  63  90 119 160 205 246 287
#     4  10  18  30  46  64  88 122 161 207 248 282
#     4  11  23  28  40  61  91 128 167 202 236 279
#
# _framework density 25.112328999999999
#
# number of rings (size 3 to 8) (size 9 to 14) (size 15 to 20)
#    1.091    1.455    0.000    4.364    5.091    2.182 
#    0.000    0.000    0.000    0.000    0.000    0.000 
#    0.000    0.000    0.000    9.818    0.000    0.000 
#
# Total GULP energy -245022.137102 kJ/mol
# GULP energy per Si atom -5568.684934 kJ/mol
# Density = 2.505517 g / cm^3
# Si number density = 25.112329 Si / 1000 Ang^3
#
#
#
# Elastic Constant Matrix: (Units=GPa)
#
#
# Indices 1 2 3 4 5 6 
#
# 1 109.6140 -0.0775 30.6211 0.0000 0.0000 0.0000
# 2 -0.0775 109.6137 30.6217 0.0000 0.0000 0.0000
# 3 30.6211 30.6217 132.2925 0.0000 0.0000 0.0000
# 4 0.0000 0.0000 0.0000 129.5035 0.0000 0.0000
# 5 0.0000 0.0000 0.0000 0.0000 129.4316 0.0000
# 6 0.0000 0.0000 0.0000 0.0000 0.0000 45.9633
#
#
#
# Elastic Compliance Matrix: (Units=1/GPa)
#
#
# Indices 1 2 3 4 5 6 
#
# 1 0.009801 0.000685 -0.002427 0.000000 0.000000 0.000000
# 2 0.000685 0.009802 -0.002427 0.000000 0.000000 0.000000
# 3 -0.002427 -0.002427 0.008683 0.000000 0.000000 0.000000
# 4 0.000000 0.000000 0.000000 0.007722 0.000000 0.000000
# 5 0.000000 0.000000 0.000000 0.000000 0.007726 0.000000
# 6 0.000000 0.000000 0.000000 0.000000 0.000000 0.021757
#
#
# Mechanical properties :
#
#
# Convention : Reuss Voigt Hill
#
# Bulk Modulus (GPa) = 50.13396 52.65008 51.39202
# Shear Modulus (GPa) = 62.12875 80.33667 71.23271
#
# Velocity S-wave (km/s) = 4.97936 5.66219 5.33172
# Velocity P-wave (km/s) = 7.28464 7.98489 7.64279
#
# Compressibility (1/GPa) = 0.01994656
#
# Stress axis : x y z
#
# Youngs Moduli (GPa) = 102.02550 102.02498 115.17180
#
# Poissons Ratio (x) = -0.06989 0.27955
# Poissons Ratio (y) = -0.06989 0.27956
# Poissons Ratio (z) = 0.24764 0.24765
#
# Static dielectric constant tensor:
#      x y z
#    x -0.125770 0.000000 0.000000 
#    y 0.000000 -0.123960 0.000000 
#    z 0.000000 0.000000 2.136840 
# 
# From -- ./inp_files/601.got.cif
#   From: 2010.05.17/outbox.cif.g08.bks.cpg/sg92_1_cif.got.tgz:601.got - 2010.06.03 19:35:17.
