data_PCOD9548869
_publ_section_title
;
Structure prediction by ZEFSAII (Michael W. Deem and Ramdas Pophale) SiO2 
 PCOD9548869
Probable space group: P 41 21 2
;
_chemical_formula_sum "Si O2"
_cell_formula_units_Z 32
_cell_length_a 15.360259
_cell_length_b 15.360259
_cell_length_c 5.016009
_cell_angle_alpha 90.000000
_cell_angle_beta 90.000000
_cell_angle_gamma 90.000000
_cell_volume 1183.464907
_symmetry_space_group_name_H-M "P 41 21 2"
_symmetry_group_IT_number 92
_symmetry_cell_setting 'tetragonal'
loop_
_space_group_symop_operation_xyz
x,y,z
1/2-y,1/2+x,1/4+z
-x,-y,1/2+z
1/2+y,1/2-x,3/4+z
1/2+x,1/2-y,3/4-z
1/2-x,1/2+y,1/4-z
y,x,-z
-y,-x,1/2-z
loop_
_atom_site_type_symbol
_atom_site_label
_atom_site_fract_x
_atom_site_fract_y
_atom_site_fract_z
Si Si1 0.800415 0.063245 0.120694
Si Si2 0.560434 0.121116 0.832351
Si Si3 0.286198 0.286198 0.000000
Si Si4 0.545661 0.454340 0.250000
Si Si5 0.325780 0.155044 0.584694
O O1 0.876871 0.123130 0.250000
O O2 0.716014 0.087530 0.294756
O O3 0.778710 0.114048 0.846989
O O4 0.853096 0.974576 0.068430
O O5 0.577190 0.164879 0.545420
O O6 0.598433 0.026351 0.746829
O O7 0.612446 0.180149 0.045158
O O8 0.268028 0.223302 0.752385
O O9 0.514618 0.514618 0.500000
#
# Coordination Sequence:
#
# PCOD9548869 Si02
#       5
#     8   8   4   4   8
#     4   9  18  32  56  91 128 166 220 260 311 383
#     4  12  25  44  68  96 125 161 221 292 346 385
#     4  10  18  38  60 100 129 170 221 258 308 418
#     4  10  18  28  50  84 127 166 205 266 314 352
#     4  11  22  38  66  95 128 165 211 277 327 405
#
# _framework density 27.039248000000001
#
# number of rings (size 3 to 8) (size 9 to 14) (size 15 to 20)
#    0.000    1.500    3.750    3.000    0.000    0.000 
#    0.000    0.000    0.000    6.000    0.000    0.000 
#    0.000    0.000    0.000    0.000    0.000    0.000 
#
# Total GULP energy -178245.471344 kJ/mol
# GULP energy per Si atom -5570.170979 kJ/mol
# Density = 2.697771 g / cm^3
# Si number density = 27.039248 Si / 1000 Ang^3
#
#
#
# Elastic Constant Matrix: (Units=GPa)
#
#
# Indices 1 2 3 4 5 6 
#
# 1 73.1874 -33.2439 3.8267 0.0000 0.0000 0.0000
# 2 -33.2439 73.1870 3.8269 0.0000 0.0000 0.0000
# 3 3.8267 3.8269 217.2237 0.0000 0.0000 0.0000
# 4 0.0000 0.0000 0.0000 16.6544 0.0000 0.0000
# 5 0.0000 0.0000 0.0000 0.0000 16.6545 0.0000
# 6 0.0000 0.0000 0.0000 0.0000 0.0000 28.6016
#
#
#
# Elastic Compliance Matrix: (Units=1/GPa)
#
#
# Indices 1 2 3 4 5 6 
#
# 1 0.017258 0.007862 -0.000443 0.000000 0.000000 0.000000
# 2 0.007862 0.017258 -0.000443 0.000000 0.000000 0.000000
# 3 -0.000443 -0.000443 0.004619 0.000000 0.000000 0.000000
# 4 0.000000 0.000000 0.000000 0.060044 0.000000 0.000000
# 5 0.000000 0.000000 0.000000 0.000000 0.060044 0.000000
# 6 0.000000 0.000000 0.000000 0.000000 0.000000 0.034963
#
#
# Mechanical properties :
#
#
# Convention : Reuss Voigt Hill
#
# Bulk Modulus (GPa) = 18.83611 34.71305 26.77458
# Shear Modulus (GPa) = 25.26167 38.32800 31.79483
#
# Velocity S-wave (km/s) = 3.05988 3.76905 3.43283
# Velocity P-wave (km/s) = 4.41193 5.63976 5.06320
#
# Compressibility (1/GPa) = 0.05308953
#
# Stress axis : x y z
#
# Youngs Moduli (GPa) = 57.94427 57.94394 216.49049
#
# Poissons Ratio (x) = -0.45557 0.09580
# Poissons Ratio (y) = -0.45557 0.09581
# Poissons Ratio (z) = 0.02564 0.02564
#
# Static dielectric constant tensor:
#      x y z
#    x 2.251160 0.000000 0.000000 
#    y 0.000000 2.251170 0.000000 
#    z 0.000000 0.000000 2.125190 
# 
# From -- ./inp_files/383.got.cif
#   From: 2010.05.17/outbox.cif.g08.bks.cpg/sg92_1_cif.got.tgz:383.got - 2010.06.03 19:35:17.
