data_PCOD9548653
_publ_section_title
;
Structure prediction by ZEFSAII (Michael W. Deem and Ramdas Pophale) SiO2 
 PCOD9548653
Probable space group: P 41 2 2
;
_chemical_formula_sum "Si O2"
_cell_formula_units_Z 60
_cell_length_a 11.848309
_cell_length_b 11.848309
_cell_length_c 20.363686
_cell_angle_alpha 90.000000
_cell_angle_beta 90.000000
_cell_angle_gamma 90.000000
_cell_volume 2858.703646
_symmetry_space_group_name_H-M "P 41 2 2"
_symmetry_group_IT_number 91
_symmetry_cell_setting 'tetragonal'
loop_
_space_group_symop_operation_xyz
x,y,z
-y,x,1/4+z
-x,-y,1/2+z
y,-x,3/4+z
x,-y,1/2-z
-x,y,-z
y,x,3/4-z
-y,-x,1/4-z
loop_
_atom_site_type_symbol
_atom_site_label
_atom_site_fract_x
_atom_site_fract_y
_atom_site_fract_z
Si Si1 0.885401 0.538326 0.543797
Si Si2 0.059421 0.929919 0.432127
Si Si3 0.523589 0.049335 0.568935
Si Si4 0.684629 0.868023 0.731843
Si Si5 0.292251 0.707750 0.625000
Si Si6 0.538638 0.804179 0.603346
Si Si7 0.241601 0.753526 0.770516
Si Si8 0.771485 0.867004 0.939087
O O1 0.904448 0.545944 0.620718
O O2 0.838788 0.413934 0.532690
O O3 0.803540 0.634338 0.522587
O O4 0.000000 0.545851 0.500000
O O5 0.162033 0.836119 0.434108
O O6 0.000000 0.899162 0.500000
O O7 0.127083 0.045162 0.441970
O O8 0.966944 0.966944 0.375000
O O9 0.500000 0.105818 0.500000
O O10 0.657707 0.064779 0.573294
O O11 0.492552 0.918355 0.570825
O O12 0.618572 0.847838 0.663786
O O13 0.790056 0.787870 0.746462
O O14 0.714417 0.000000 0.750000
O O15 0.428778 0.732725 0.625961
O O16 0.224667 0.748027 0.691000
O O17 0.628452 0.755359 0.551564
O O18 0.791329 0.791329 0.875000
#
# Coordination Sequence:
#
# PCOD9548653 Si02
#       8
#     8   8   8   8   4   8   8   8
#     4  11  22  44  70  95 135 191 240 281 364 445
#     4  11  27  42  65 106 151 192 235 295 367 451
#     4  12  24  40  65 106 136 178 238 299 356 433
#     4  11  21  42  72  96 136 188 241 279 359 454
#     4  12  26  48  76 100 134 190 258 320 368 442
#     4  12  25  46  73 103 132 189 243 305 371 435
#     4  12  26  46  72 104 143 190 242 311 374 447
#     4  11  22  40  66  98 138 181 229 290 357 431
#
# _framework density 20.988536
#
# number of rings (size 3 to 8) (size 9 to 14) (size 15 to 20)
#    0.000    0.533    6.667    2.000    6.533    0.000 
#    0.000    1.333    0.000    0.000    0.000    0.000 
#    0.000    0.000    0.000    0.000    0.000    0.000 
#
# Total GULP energy -334047.444392 kJ/mol
# GULP energy per Si atom -5567.457407 kJ/mol
# Density = 2.094077 g / cm^3
# Si number density = 20.988536 Si / 1000 Ang^3
#
#
#
# Elastic Constant Matrix: (Units=GPa)
#
#
# Indices 1 2 3 4 5 6 
#
# 1 59.6585 33.9748 9.2028 0.0000 0.0000 0.0000
# 2 33.9748 59.6580 9.2028 0.0000 0.0000 0.0000
# 3 9.2028 9.2028 109.2920 0.0000 0.0000 0.0000
# 4 0.0000 0.0000 0.0000 14.9402 0.0000 0.0000
# 5 0.0000 0.0000 0.0000 0.0000 14.9402 0.0000
# 6 0.0000 0.0000 0.0000 0.0000 0.0000 24.4013
#
#
#
# Elastic Compliance Matrix: (Units=1/GPa)
#
#
# Indices 1 2 3 4 5 6 
#
# 1 0.024898 -0.014038 -0.000914 0.000000 0.000000 0.000000
# 2 -0.014038 0.024898 -0.000914 0.000000 0.000000 0.000000
# 3 -0.000914 -0.000914 0.009304 0.000000 0.000000 0.000000
# 4 0.000000 0.000000 0.000000 0.066933 0.000000 0.000000
# 5 0.000000 0.000000 0.000000 0.000000 0.066933 0.000000
# 6 0.000000 0.000000 0.000000 0.000000 0.000000 0.040981
#
#
# Mechanical properties :
#
#
# Convention : Reuss Voigt Hill
#
# Bulk Modulus (GPa) = 36.54229 37.04104 36.79166
# Shear Modulus (GPa) = 18.19485 22.60488 20.39987
#
# Velocity S-wave (km/s) = 2.94750 3.28534 3.12100
# Velocity P-wave (km/s) = 5.38814 5.66373 5.52765
#
# Compressibility (1/GPa) = 0.02736555
#
# Stress axis : x y z
#
# Youngs Moduli (GPa) = 40.16450 40.16417 107.48300
#
# Poissons Ratio (x) = 0.56382 0.09828
# Poissons Ratio (y) = 0.56383 0.09829
# Poissons Ratio (z) = 0.03673 0.03673
#
# Static dielectric constant tensor:
#      x y z
#    x 1.807800 0.000000 0.000000 
#    y 0.000000 1.807800 0.000000 
#    z 0.000000 0.000000 1.887140 
# 
# From -- ./inp_files/6452.got.cif
#   From: 2010.05.17/outbox.cif.g08.bks.cpg/sg91_4_cif.got.tgz:6452.got - 2010.06.03 19:20:03.
