data_PCOD9548533
_publ_section_title
;
Structure prediction by ZEFSAII (Michael W. Deem and Ramdas Pophale) SiO2 
 PCOD9548533
Probable space group: P 41 2 2
;
_chemical_formula_sum "Si O2"
_cell_formula_units_Z 60
_cell_length_a 11.794459
_cell_length_b 11.794459
_cell_length_c 20.397263
_cell_angle_alpha 90.000000
_cell_angle_beta 90.000000
_cell_angle_gamma 90.000000
_cell_volume 2837.448225
_symmetry_space_group_name_H-M "P 41 2 2"
_symmetry_group_IT_number 91
_symmetry_cell_setting 'tetragonal'
loop_
_space_group_symop_operation_xyz
x,y,z
-y,x,1/4+z
-x,-y,1/2+z
y,-x,3/4+z
x,-y,1/2-z
-x,y,-z
y,x,3/4-z
-y,-x,1/4-z
loop_
_atom_site_type_symbol
_atom_site_label
_atom_site_fract_x
_atom_site_fract_y
_atom_site_fract_z
Si Si1 0.780315 0.809183 0.581648
Si Si2 0.176520 0.416515 0.908062
Si Si3 0.969735 0.316162 0.854006
Si Si4 0.338332 0.886156 0.291992
Si Si5 0.782739 0.721678 0.804029
Si Si6 0.699839 0.618461 0.271280
Si Si7 0.896051 0.500000 0.750000
Si Si8 0.869299 0.013280 0.506515
O O1 0.850983 0.702808 0.609129
O O2 0.739474 0.881662 0.643830
O O3 0.674014 0.771209 0.537729
O O4 0.858955 0.890186 0.538608
O O5 0.129271 0.535124 0.932343
O O6 0.222554 0.413342 0.833610
O O7 0.281011 0.379960 0.953309
O O8 0.071005 0.330952 0.905117
O O9 0.963398 0.424758 0.804496
O O10 0.988226 0.203376 0.810579
O O11 0.300994 0.778688 0.248464
O O12 0.326252 0.000000 0.250000
O O13 0.729350 0.729350 0.875000
O O14 0.821245 0.595627 0.785584
O O15 0.894651 0.801040 0.799510
O O16 0.643954 0.500000 0.250000
O O17 0.000000 0.045631 0.500000
#
# Coordination Sequence:
#
# PCOD9548533 Si02
#       8
#     8   8   8   8   8   8   4   8
#     4  12  25  44  71 104 150 190 242 300 375 448
#     4  11  27  46  74 107 140 194 251 305 370 444
#     4  11  26  44  71 108 148 191 243 299 369 453
#     4  12  26  46  73 109 142 191 254 306 364 458
#     4  11  25  46  71 105 143 192 240 303 368 443
#     4  11  25  47  72 101 146 192 240 307 375 436
#     4  10  24  46  70 106 144 194 242 302 374 432
#     4  11  25  41  67 105 152 188 228 294 374 439
#
# _framework density 21.145759999999999
#
# number of rings (size 3 to 8) (size 9 to 14) (size 15 to 20)
#    0.000    0.800    5.333    1.200   12.133    0.000 
#    1.200    0.000    0.000    0.000    0.000    0.000 
#    0.000    0.000    0.000    0.000    0.000    0.000 
#
# Total GULP energy -335496.666364 kJ/mol
# GULP energy per Si atom -5591.611106 kJ/mol
# Density = 2.109763 g / cm^3
# Si number density = 21.145760 Si / 1000 Ang^3
#
#
#
# Elastic Constant Matrix: (Units=GPa)
#
#
# Indices 1 2 3 4 5 6 
#
# 1 124.6203 41.6181 37.1220 0.0000 0.0000 0.0000
# 2 41.6181 124.6203 37.1220 0.0000 0.0000 0.0000
# 3 37.1220 37.1220 86.5923 0.0000 0.0000 0.0000
# 4 0.0000 0.0000 0.0000 30.6782 0.0000 0.0000
# 5 0.0000 0.0000 0.0000 0.0000 30.6782 0.0000
# 6 0.0000 0.0000 0.0000 0.0000 0.0000 20.8319
#
#
#
# Elastic Compliance Matrix: (Units=1/GPa)
#
#
# Indices 1 2 3 4 5 6 
#
# 1 0.009744 -0.002304 -0.003189 0.000000 0.000000 0.000000
# 2 -0.002304 0.009744 -0.003189 0.000000 0.000000 0.000000
# 3 -0.003189 -0.003189 0.014283 0.000000 0.000000 0.000000
# 4 0.000000 0.000000 0.000000 0.032596 0.000000 0.000000
# 5 0.000000 0.000000 0.000000 0.000000 0.032596 0.000000
# 6 0.000000 0.000000 0.000000 0.000000 0.000000 0.048003
#
#
# Mechanical properties :
#
#
# Convention : Reuss Voigt Hill
#
# Bulk Modulus (GPa) = 60.95733 63.06194 62.00963
# Shear Modulus (GPa) = 29.44621 31.10239 30.27430
#
# Velocity S-wave (km/s) = 3.73572 3.83934 3.78788
# Velocity P-wave (km/s) = 6.89182 7.03855 6.96558
#
# Compressibility (1/GPa) = 0.01640492
#
# Stress axis : x y z
#
# Youngs Moduli (GPa) = 102.62836 102.62836 70.01319
#
# Poissons Ratio (x) = 0.23645 0.22331
# Poissons Ratio (y) = 0.23645 0.22331
# Poissons Ratio (z) = 0.32733 0.32733
#
# Static dielectric constant tensor:
#      x y z
#    x 1.753290 0.000000 0.000000 
#    y 0.000000 1.753290 0.000000 
#    z 0.000000 0.000000 1.783590 
# 
# From -- ./inp_files/12515.got.cif
#   From: 2010.05.17/outbox.cif.g08.bks.cpg/sg91_7_cif.got.tgz:12515.got - 2010.06.03 19:20:03.
