data_PCOD9548874
_publ_section_title
;
Structure prediction by ZEFSAII (Michael W. Deem and Ramdas Pophale) SiO2 
 PCOD9548874
Probable space group: P 41 21 2
;
_chemical_formula_sum "Si O2"
_cell_formula_units_Z 64
_cell_length_a 17.062075
_cell_length_b 17.062075
_cell_length_c 11.544017
_cell_angle_alpha 90.000000
_cell_angle_beta 90.000000
_cell_angle_gamma 90.000000
_cell_volume 3360.629621
_symmetry_space_group_name_H-M "P 41 21 2"
_symmetry_group_IT_number 92
_symmetry_cell_setting 'tetragonal'
loop_
_space_group_symop_operation_xyz
x,y,z
1/2-y,1/2+x,1/4+z
-x,-y,1/2+z
1/2+y,1/2-x,3/4+z
1/2+x,1/2-y,3/4-z
1/2-x,1/2+y,1/4-z
y,x,-z
-y,-x,1/2-z
loop_
_atom_site_type_symbol
_atom_site_label
_atom_site_fract_x
_atom_site_fract_y
_atom_site_fract_z
Si Si1 0.557959 0.152202 0.170923
Si Si2 0.795969 0.547111 0.117545
Si Si3 0.611984 0.281116 0.001916
Si Si4 0.402460 0.734890 0.017154
Si Si5 0.125270 0.710458 0.463390
Si Si6 0.417496 0.137369 0.024106
Si Si7 0.247313 0.839430 0.445164
Si Si8 0.042529 0.263102 0.983813
O O1 0.635929 0.101198 0.186896
O O2 0.508443 0.162746 0.286537
O O3 0.501043 0.113072 0.074398
O O4 0.576622 0.236997 0.113024
O O5 0.751846 0.487816 0.033539
O O6 0.741451 0.606362 0.191245
O O7 0.683727 0.223697 0.966615
O O8 0.556441 0.281689 0.888063
O O9 0.654357 0.363271 0.024834
O O10 0.346047 0.808533 0.982198
O O11 0.405208 0.733714 0.157909
O O12 0.088450 0.661326 0.358128
O O13 0.171240 0.787942 0.421621
O O14 0.046818 0.736522 0.527653
O O15 0.392018 0.215912 0.094012
O O16 0.351276 0.072317 0.041286
#
# Coordination Sequence:
#
# PCOD9548874 Si02
#       8
#     8   8   8   8   8   8   8   8
#     4  10  20  35  55  78 110 146 180 215 280 325
#     4  10  22  36  51  78 115 151 181 216 264 334
#     4   9  17  36  56  77 103 143 186 230 267 314
#     4  10  22  34  51  80 115 146 184 220 264 330
#     4  10  18  31  54  83 105 138 183 227 269 319
#     4   9  17  31  52  82 108 137 171 227 275 326
#     4   8  17  33  52  75 107 140 182 221 264 314
#     4  10  19  32  54  84 111 134 180 228 286 312
#
# _framework density 19.044049999999999
#
# number of rings (size 3 to 8) (size 9 to 14) (size 15 to 20)
#    0.000    2.500    1.250    1.500    1.750    4.500 
#    0.000    0.625    0.000    0.000   19.500    0.000 
#    0.000    0.000    0.000    0.000    0.000    0.000 
#
# Total GULP energy -356466.345609 kJ/mol
# GULP energy per Si atom -5569.786650 kJ/mol
# Density = 1.900070 g / cm^3
# Si number density = 19.044050 Si / 1000 Ang^3
#
#
#
# Elastic Constant Matrix: (Units=GPa)
#
#
# Indices 1 2 3 4 5 6 
#
# 1 49.0270 18.3326 0.8666 0.0000 0.0000 0.0000
# 2 18.3326 49.0270 0.8666 0.0000 0.0000 0.0000
# 3 0.8666 0.8666 32.2921 0.0000 0.0000 0.0000
# 4 0.0000 0.0000 0.0000 19.6924 0.0000 0.0000
# 5 0.0000 0.0000 0.0000 0.0000 19.6924 0.0000
# 6 0.0000 0.0000 0.0000 0.0000 0.0000 24.6873
#
#
#
# Elastic Compliance Matrix: (Units=1/GPa)
#
#
# Indices 1 2 3 4 5 6 
#
# 1 0.023718 -0.008862 -0.000399 0.000000 0.000000 0.000000
# 2 -0.008862 0.023718 -0.000399 0.000000 0.000000 0.000000
# 3 -0.000399 -0.000399 0.030989 0.000000 0.000000 0.000000
# 4 0.000000 0.000000 0.000000 0.050781 0.000000 0.000000
# 5 0.000000 0.000000 0.000000 0.000000 0.050781 0.000000
# 6 0.000000 0.000000 0.000000 0.000000 0.000000 0.040507
#
#
# Mechanical properties :
#
#
# Convention : Reuss Voigt Hill
#
# Bulk Modulus (GPa) = 16.91879 18.94198 17.93038
# Shear Modulus (GPa) = 19.26688 20.16643 19.71665
#
# Velocity S-wave (km/s) = 3.18417 3.25766 3.22113
# Velocity P-wave (km/s) = 4.73518 4.91099 4.82389
#
# Compressibility (1/GPa) = 0.05910587
#
# Stress axis : x y z
#
# Youngs Moduli (GPa) = 42.16271 42.16271 32.26982
#
# Poissons Ratio (x) = 0.37363 0.01287
# Poissons Ratio (y) = 0.37363 0.01287
# Poissons Ratio (z) = 0.01681 0.01681
#
# Static dielectric constant tensor:
#      x y z
#    x 1.687210 0.000000 0.000000 
#    y 0.000000 1.687210 0.000000 
#    z 0.000000 0.000000 1.720790 
# 
# From -- ./inp_files/2352.got.cif
#   From: 2010.05.17/outbox.cif.g08.bks.cpg/sg92_2_cif.got.tgz:2352.got - 2010.06.03 19:35:17.
