data_PCOD9548468
_publ_section_title
;
Structure prediction by ZEFSAII (Michael W. Deem and Ramdas Pophale) SiO2 
 PCOD9548468
Probable space group: P 41 2 2
;
_chemical_formula_sum "Si O2"
_cell_formula_units_Z 56
_cell_length_a 14.862023
_cell_length_b 14.862023
_cell_length_c 11.955984
_cell_angle_alpha 90.000000
_cell_angle_beta 90.000000
_cell_angle_gamma 90.000000
_cell_volume 2640.834490
_symmetry_space_group_name_H-M "P 41 2 2"
_symmetry_group_IT_number 91
_symmetry_cell_setting 'tetragonal'
loop_
_space_group_symop_operation_xyz
x,y,z
-y,x,1/4+z
-x,-y,1/2+z
y,-x,3/4+z
x,-y,1/2-z
-x,y,-z
y,x,3/4-z
-y,-x,1/4-z
loop_
_atom_site_type_symbol
_atom_site_label
_atom_site_fract_x
_atom_site_fract_y
_atom_site_fract_z
Si Si1 0.242746 0.757255 0.625000
Si Si2 0.500000 0.461663 0.500000
Si Si3 0.591670 0.959367 0.135661
Si Si4 0.141533 0.402738 0.744659
Si Si5 0.897925 0.205151 0.531513
Si Si6 0.356754 0.315321 0.257167
Si Si7 0.128762 0.409839 0.481931
Si Si8 0.810177 0.735200 0.616579
O O1 0.333415 0.792546 0.559002
O O2 0.246546 0.819765 0.734708
O O3 0.493287 0.506714 0.625000
O O4 0.588603 0.401077 0.503243
O O5 0.492559 0.920267 0.170559
O O6 0.658946 0.881183 0.097279
O O7 0.629443 0.000000 0.250000
O O8 0.590132 0.045531 0.056425
O O9 0.187571 0.500000 0.750000
O O10 0.113784 0.391474 0.614507
O O11 0.860752 0.139249 0.625000
O O12 0.890761 0.310858 0.567293
O O13 0.830113 0.186870 0.429116
O O14 0.000000 0.187879 0.500000
O O15 0.305291 0.305291 0.375000
O O16 0.428837 0.235512 0.266312
O O17 0.287842 0.301705 0.155780
#
# Coordination Sequence:
#
# PCOD9548468 Si02
#       8
#     4   4   8   8   8   8   8   8
#     4  12  22  44  68 102 156 190 240 300 368 460
#     4  10  24  48  66 102 142 190 256 300 342 440
#     4  12  25  41  69 114 145 185 242 305 376 448
#     4  12  25  43  68 108 147 192 246 302 378 453
#     4  11  26  48  77 105 141 194 257 308 380 457
#     4  10  23  45  69  99 141 196 251 294 357 430
#     4  11  23  46  69 107 151 189 235 309 382 445
#     4  11  24  43  71 107 141 198 236 306 380 441
#
# _framework density 21.205417000000001
#
# number of rings (size 3 to 8) (size 9 to 14) (size 15 to 20)
#    0.000    0.857    5.714    2.143    6.000    1.143 
#    2.571    0.714    1.571    0.000    0.000    0.000 
#    0.000    0.000    0.000    0.000    0.000    0.000 
#
# Total GULP energy -311994.763046 kJ/mol
# GULP energy per Si atom -5571.335054 kJ/mol
# Density = 2.115715 g / cm^3
# Si number density = 21.205417 Si / 1000 Ang^3
#
#
#
# Elastic Constant Matrix: (Units=GPa)
#
#
# Indices 1 2 3 4 5 6 
#
# 1 144.0740 71.4402 40.7164 0.0000 0.0000 0.0000
# 2 71.4402 144.0738 40.7158 0.0000 0.0000 0.0000
# 3 40.7164 40.7158 131.2661 0.0000 0.0000 0.0000
# 4 0.0000 0.0000 0.0000 31.0845 0.0000 0.0000
# 5 0.0000 0.0000 0.0000 0.0000 31.0843 0.0000
# 6 0.0000 0.0000 0.0000 0.0000 0.0000 37.0372
#
#
#
# Elastic Compliance Matrix: (Units=1/GPa)
#
#
# Indices 1 2 3 4 5 6 
#
# 1 0.009512 -0.004256 -0.001630 0.000000 0.000000 0.000000
# 2 -0.004256 0.009512 -0.001630 0.000000 0.000000 0.000000
# 3 -0.001630 -0.001630 0.008630 0.000000 0.000000 0.000000
# 4 0.000000 0.000000 0.000000 0.032170 0.000000 0.000000
# 5 0.000000 0.000000 0.000000 0.000000 0.032171 0.000000
# 6 0.000000 0.000000 0.000000 0.000000 0.000000 0.027000
#
#
# Mechanical properties :
#
#
# Convention : Reuss Voigt Hill
#
# Bulk Modulus (GPa) = 79.23706 80.57317 79.90512
# Shear Modulus (GPa) = 36.17060 37.61065 36.89062
#
# Velocity S-wave (km/s) = 4.13452 4.21602 4.17547
# Velocity P-wave (km/s) = 7.76144 7.85995 7.81085
#
# Compressibility (1/GPa) = 0.01262036
#
# Stress axis : x y z
#
# Youngs Moduli (GPa) = 105.13144 105.13156 115.88150
#
# Poissons Ratio (x) = 0.44742 0.18893
# Poissons Ratio (y) = 0.44742 0.18892
# Poissons Ratio (z) = 0.17140 0.17140
#
# Static dielectric constant tensor:
#      x y z
#    x 1.792630 0.000000 0.000000 
#    y 0.000000 1.792640 0.000000 
#    z 0.000000 0.000000 1.871310 
# 
# From -- ./inp_files/20370.got.cif
#   From: 2010.05.17/outbox.cif.g08.bks.cpg/sg91_11_cif.got.tgz:20370.got - 2010.06.03 19:20:03.
