data_PCOD9548023
_publ_section_title
;
Structure prediction by ZEFSAII (Michael W. Deem and Ramdas Pophale) SiO2 
 PCOD9548023
Probable space group: P 41 2 2
;
_chemical_formula_sum "Si O2"
_cell_formula_units_Z 40
_cell_length_a 8.979995
_cell_length_b 8.979995
_cell_length_c 22.909986
_cell_angle_alpha 90.000000
_cell_angle_beta 90.000000
_cell_angle_gamma 90.000000
_cell_volume 1847.468378
_symmetry_space_group_name_H-M "P 41 2 2"
_symmetry_group_IT_number 91
_symmetry_cell_setting 'tetragonal'
loop_
_space_group_symop_operation_xyz
x,y,z
-y,x,1/4+z
-x,-y,1/2+z
y,-x,3/4+z
x,-y,1/2-z
-x,y,-z
y,x,3/4-z
-y,-x,1/4-z
loop_
_atom_site_type_symbol
_atom_site_label
_atom_site_fract_x
_atom_site_fract_y
_atom_site_fract_z
Si Si1 0.698628 0.500000 0.750000
Si Si2 0.007096 0.442514 0.067671
Si Si3 0.500000 0.806044 0.500000
Si Si4 0.556503 0.663249 0.316592
Si Si5 0.357768 0.944951 0.079902
Si Si6 0.101379 0.046168 0.680603
O O1 0.592353 0.385915 0.784171
O O2 0.803643 0.598000 0.791439
O O3 0.833747 0.431808 0.084162
O O4 0.078946 0.569462 0.106944
O O5 0.078190 0.278733 0.075086
O O6 0.000000 0.482611 0.000000
O O7 0.374807 0.696280 0.525197
O O8 0.560219 0.914512 0.549643
O O9 0.567678 0.567678 0.375000
O O10 0.187791 0.995442 0.079214
O O11 0.081702 0.000000 0.750000
O O12 0.062058 0.937943 0.625000
#
# Coordination Sequence:
#
# PCOD9548023 Si02
#       6
#     4   8   4   8   8   8
#     4  10  28  42  70 106 150 184 236 300 366 428
#     4  11  25  43  73 103 139 188 243 294 359 439
#     4  10  20  40  66  98 132 176 238 286 360 412
#     4  11  22  42  70 103 138 187 242 301 352 431
#     4  11  25  43  69 101 144 187 230 299 362 429
#     4  11  27  46  70 103 142 190 241 297 365 442
#
# _framework density 21.651250000000001
#
# number of rings (size 3 to 8) (size 9 to 14) (size 15 to 20)
#    0.000    1.200    2.000    3.000    8.400    6.400 
#    0.000    0.000    0.000    0.000    0.000    0.000 
#    0.000    0.000    0.000    0.000    0.000    0.000 
#
# Total GULP energy -223509.890350 kJ/mol
# GULP energy per Si atom -5587.747259 kJ/mol
# Density = 2.160197 g / cm^3
# Si number density = 21.651250 Si / 1000 Ang^3
#
#
#
# Elastic Constant Matrix: (Units=GPa)
#
#
# Indices 1 2 3 4 5 6 
#
# 1 77.6615 32.7096 35.4493 0.0000 0.0000 0.0000
# 2 32.7096 77.6614 35.4494 0.0000 0.0000 0.0000
# 3 35.4493 35.4494 150.6067 0.0000 0.0000 0.0000
# 4 0.0000 0.0000 0.0000 29.7762 0.0000 0.0000
# 5 0.0000 0.0000 0.0000 0.0000 29.7761 0.0000
# 6 0.0000 0.0000 0.0000 0.0000 0.0000 3.6742
#
#
#
# Elastic Compliance Matrix: (Units=1/GPa)
#
#
# Indices 1 2 3 4 5 6 
#
# 1 0.016460 -0.005786 -0.002512 0.000000 0.000000 0.000000
# 2 -0.005786 0.016460 -0.002512 0.000000 0.000000 0.000000
# 3 -0.002512 -0.002512 0.007823 0.000000 0.000000 0.000000
# 4 0.000000 0.000000 0.000000 0.033584 0.000000 0.000000
# 5 0.000000 0.000000 0.000000 0.000000 0.033584 0.000000
# 6 0.000000 0.000000 0.000000 0.000000 0.000000 0.272166
#
#
# Mechanical properties :
#
#
# Convention : Reuss Voigt Hill
#
# Bulk Modulus (GPa) = 52.29794 57.01626 54.65710
# Shear Modulus (GPa) = 12.25274 26.13339 19.19306
#
# Velocity S-wave (km/s) = 2.38147 3.47798 2.98059
# Velocity P-wave (km/s) = 5.63640 6.52070 6.09461
#
# Compressibility (1/GPa) = 0.01912121
#
# Stress axis : x y z
#
# Youngs Moduli (GPa) = 60.75286 60.75267 127.83517
#
# Poissons Ratio (x) = 0.35151 0.32118
# Poissons Ratio (y) = 0.35151 0.32119
# Poissons Ratio (z) = 0.15264 0.15264
#
# Static dielectric constant tensor:
#      x y z
#    x 1.688710 0.000000 0.000000 
#    y 0.000000 1.688720 0.000000 
#    z 0.000000 0.000000 1.770780 
# 
# From -- ./inp_files/6842.got.cif
#   From: 2010.05.17/outbox.cif.g08.bks.cpg/sg91_4_cif.got.tgz:6842.got - 2010.06.03 19:20:03.
