data_PCOD9548968
_publ_section_title
;
Structure prediction by ZEFSAII (Michael W. Deem and Ramdas Pophale) SiO2 
 PCOD9548968
Probable space group: P 41 21 2
;
_chemical_formula_sum "Si O2"
_cell_formula_units_Z 40
_cell_length_a 7.227361
_cell_length_b 7.227361
_cell_length_c 35.165053
_cell_angle_alpha 90.000000
_cell_angle_beta 90.000000
_cell_angle_gamma 90.000000
_cell_volume 1836.837648
_symmetry_space_group_name_H-M "P 41 21 2"
_symmetry_group_IT_number 92
_symmetry_cell_setting 'tetragonal'
loop_
_space_group_symop_operation_xyz
x,y,z
1/2-y,1/2+x,1/4+z
-x,-y,1/2+z
1/2+y,1/2-x,3/4+z
1/2+x,1/2-y,3/4-z
1/2-x,1/2+y,1/4-z
y,x,-z
-y,-x,1/2-z
loop_
_atom_site_type_symbol
_atom_site_label
_atom_site_fract_x
_atom_site_fract_y
_atom_site_fract_z
Si Si1 0.292849 0.756369 0.516108
Si Si2 0.857397 0.599671 0.157153
Si Si3 0.822264 0.822264 0.000000
Si Si4 0.286869 0.578229 0.828992
Si Si5 0.286075 0.286075 0.000000
Si Si6 0.451932 0.202422 0.798718
O O1 0.322200 0.737737 0.561422
O O2 0.494484 0.743132 0.496962
O O3 0.152728 0.640095 0.490172
O O4 0.212866 0.964492 0.511773
O O5 0.909697 0.656185 0.114952
O O6 0.676528 0.474186 0.157017
O O7 0.028275 0.483663 0.174582
O O8 0.811170 0.721433 0.040832
O O9 0.336979 0.368763 0.817103
O O10 0.228880 0.154839 0.035083
#
# Coordination Sequence:
#
# PCOD9548968 Si02
#       6
#     8   8   4   8   4   8
#     4   9  19  40  66  96 125 167 224 269 332 403
#     4  10  22  41  62  97 130 168 222 271 332 396
#     4   8  17  40  67  80 126 181 210 251 338 398
#     4  10  21  43  61  93 129 170 218 267 330 395
#     4  10  19  38  69 100 124 169 232 271 326 420
#     4  10  21  43  66  92 134 178 214 274 348 395
#
# _framework density 21.776555999999999
#
# number of rings (size 3 to 8) (size 9 to 14) (size 15 to 20)
#    0.000    2.400    0.000    3.600    0.000    1.600 
#   46.800    4.000    0.000    0.000    0.000    0.000 
#    0.000    0.000    0.000    0.000    0.000    0.000 
#
# Total GULP energy -222933.311934 kJ/mol
# GULP energy per Si atom -5573.332798 kJ/mol
# Density = 2.172699 g / cm^3
# Si number density = 21.776556 Si / 1000 Ang^3
#
#
#
# Elastic Constant Matrix: (Units=GPa)
#
#
# Indices 1 2 3 4 5 6 
#
# 1 61.2988 19.8051 39.5103 0.0000 0.0000 0.0000
# 2 19.8051 61.2988 39.5103 0.0000 0.0000 0.0000
# 3 39.5103 39.5103 165.8738 0.0000 0.0000 0.0000
# 4 0.0000 0.0000 0.0000 31.1049 0.0000 0.0000
# 5 0.0000 0.0000 0.0000 0.0000 31.1049 0.0000
# 6 0.0000 0.0000 0.0000 0.0000 0.0000 12.7918
#
#
#
# Elastic Compliance Matrix: (Units=1/GPa)
#
#
# Indices 1 2 3 4 5 6 
#
# 1 0.020078 -0.004022 -0.003824 0.000000 0.000000 0.000000
# 2 -0.004022 0.020078 -0.003824 0.000000 0.000000 0.000000
# 3 -0.003824 -0.003824 0.007851 0.000000 0.000000 0.000000
# 4 0.000000 0.000000 0.000000 0.032149 0.000000 0.000000
# 5 0.000000 0.000000 0.000000 0.000000 0.032149 0.000000
# 6 0.000000 0.000000 0.000000 0.000000 0.000000 0.078175
#
#
# Mechanical properties :
#
#
# Convention : Reuss Voigt Hill
#
# Bulk Modulus (GPa) = 40.54345 54.01365 47.27855
# Shear Modulus (GPa) = 22.51809 27.64336 25.08073
#
# Velocity S-wave (km/s) = 3.21916 3.56674 3.39740
# Velocity P-wave (km/s) = 5.69874 6.46681 6.09489
#
# Compressibility (1/GPa) = 0.02466489
#
# Stress axis : x y z
#
# Youngs Moduli (GPa) = 49.80558 49.80558 127.37841
#
# Poissons Ratio (x) = 0.20032 0.48716
# Poissons Ratio (y) = 0.20032 0.48716
# Poissons Ratio (z) = 0.19048 0.19048
#
# Static dielectric constant tensor:
#      x y z
#    x 1.845550 0.000000 0.000000 
#    y 0.000000 1.845550 0.000000 
#    z 0.000000 0.000000 1.864340 
# 
# From -- ./inp_files/4370.got.cif
#   From: 2010.05.17/outbox.cif.g08.bks.cpg/sg92_3_cif.got.tgz:4370.got - 2010.06.03 19:35:17.
