data_PCOD9548732
_publ_section_title
;
Structure prediction by ZEFSAII (Michael W. Deem and Ramdas Pophale) SiO2 
 PCOD9548732
Probable space group: P 41 2 2
;
_chemical_formula_sum "Si O2"
_cell_formula_units_Z 48
_cell_length_a 8.835576
_cell_length_b 8.835576
_cell_length_c 29.825036
_cell_angle_alpha 90.000000
_cell_angle_beta 90.000000
_cell_angle_gamma 90.000000
_cell_volume 2328.363112
_symmetry_space_group_name_H-M "P 41 2 2"
_symmetry_group_IT_number 91
_symmetry_cell_setting 'tetragonal'
loop_
_space_group_symop_operation_xyz
x,y,z
-y,x,1/4+z
-x,-y,1/2+z
y,-x,3/4+z
x,-y,1/2-z
-x,y,-z
y,x,3/4-z
-y,-x,1/4-z
loop_
_atom_site_type_symbol
_atom_site_label
_atom_site_fract_x
_atom_site_fract_y
_atom_site_fract_z
Si Si1 0.824710 0.534265 0.492030
Si Si2 0.667726 0.431880 0.916867
Si Si3 0.284215 0.232364 0.173546
Si Si4 0.646662 0.696396 0.425536
Si Si5 0.548488 0.028352 0.449379
Si Si6 0.902765 0.673869 0.882084
O O1 0.746818 0.604998 0.535964
O O2 0.749824 0.385889 0.468795
O O3 0.793177 0.655544 0.453709
O O4 0.000000 0.506067 0.500000
O O5 0.679490 0.323258 0.873138
O O6 0.488856 0.428626 0.927497
O O7 0.763957 0.582620 0.905453
O O8 0.121395 0.300348 0.186411
O O9 0.313966 0.057839 0.159896
O O10 0.700561 0.700561 0.375000
O O11 0.576965 0.851098 0.442817
O O12 0.500000 0.062343 0.500000
O O13 0.417199 0.070124 0.413891
O O14 0.841490 0.841490 0.875000
#
# Coordination Sequence:
#
# PCOD9548732 Si02
#       6
#     8   8   8   8   8   8
#     4  12  25  44  74 104 142 186 245 300 361 437
#     4  11  23  44  73 102 139 187 236 302 359 424
#     4  11  25  47  68 103 148 184 234 301 363 428
#     4  12  24  46  71 104 140 185 240 300 361 431
#     4  11  26  45  68 103 143 185 236 292 362 440
#     4  11  24  44  69  99 141 186 239 294 359 431
#
# _framework density 20.615342999999999
#
# number of rings (size 3 to 8) (size 9 to 14) (size 15 to 20)
#    0.000    0.667    5.000    2.000    7.000    0.667 
#    0.000    0.833    0.000    0.000    0.000    0.000 
#    0.000    0.000    0.000    0.000    0.000    0.000 
#
# Total GULP energy -267586.464836 kJ/mol
# GULP energy per Si atom -5574.718017 kJ/mol
# Density = 2.056842 g / cm^3
# Si number density = 20.615343 Si / 1000 Ang^3
#
#
#
# Elastic Constant Matrix: (Units=GPa)
#
#
# Indices 1 2 3 4 5 6 
#
# 1 65.8796 60.3721 33.3897 0.0000 0.0000 0.0000
# 2 60.3721 65.8796 33.3897 0.0000 0.0000 0.0000
# 3 33.3897 33.3897 120.8955 0.0000 0.0000 0.0000
# 4 0.0000 0.0000 0.0000 -110.0031 0.0000 0.0000
# 5 0.0000 0.0000 0.0000 0.0000 -110.0031 0.0000
# 6 0.0000 0.0000 0.0000 0.0000 0.0000 28.5212
#
#
#
# Elastic Compliance Matrix: (Units=1/GPa)
#
#
# Indices 1 2 3 4 5 6 
#
# 1 0.095423 -0.086147 -0.002562 0.000000 0.000000 0.000000
# 2 -0.086147 0.095423 -0.002562 0.000000 0.000000 0.000000
# 3 -0.002562 -0.002562 0.009687 0.000000 0.000000 0.000000
# 4 0.000000 0.000000 0.000000 -0.009091 0.000000 0.000000
# 5 0.000000 0.000000 0.000000 0.000000 -0.009091 0.000000
# 6 0.000000 0.000000 0.000000 0.000000 0.000000 0.035062
#
#
# Mechanical properties :
#
#
# Convention : Reuss Voigt Hill
#
# Bulk Modulus (GPa) = 55.58384 56.32863 55.95624
# Shear Modulus (GPa) = 12.31676 -29.93012 -8.80668
#
# Velocity S-wave (km/s) = 2.44694 -3.81443 -2.06910
# Velocity P-wave (km/s) = 5.91644 2.82544 4.63613
#
# Compressibility (1/GPa) = 0.01799084
#
# Stress axis : x y z
#
# Youngs Moduli (GPa) = 10.47968 10.47968 103.23441
#
# Poissons Ratio (x) = 0.90279 0.26447
# Poissons Ratio (y) = 0.90279 0.26447
# Poissons Ratio (z) = 0.02685 0.02685
#
# Static dielectric constant tensor:
#      x y z
#    x 1.745750 0.000000 0.000000 
#    y 0.000000 1.745750 0.000000 
#    z 0.000000 0.000000 1.846640 
# 
# From -- ./inp_files/13617.got.cif
#   From: 2010.05.17/outbox.cif.g08.bks.cpg/sg91_7_cif.got.tgz:13617.got - 2010.06.03 19:20:03.
