data_PCOD9548403
_publ_section_title
;
Structure prediction by ZEFSAII (Michael W. Deem and Ramdas Pophale) SiO2 
 PCOD9548403
Probable space group: P 41 2 2
;
_chemical_formula_sum "Si O2"
_cell_formula_units_Z 24
_cell_length_a 7.036619
_cell_length_b 7.036619
_cell_length_c 20.392941
_cell_angle_alpha 90.000000
_cell_angle_beta 90.000000
_cell_angle_gamma 90.000000
_cell_volume 1009.736222
_symmetry_space_group_name_H-M "P 41 2 2"
_symmetry_group_IT_number 91
_symmetry_cell_setting 'tetragonal'
loop_
_space_group_symop_operation_xyz
x,y,z
-y,x,1/4+z
-x,-y,1/2+z
y,-x,3/4+z
x,-y,1/2-z
-x,y,-z
y,x,3/4-z
-y,-x,1/4-z
loop_
_atom_site_type_symbol
_atom_site_label
_atom_site_fract_x
_atom_site_fract_y
_atom_site_fract_z
Si Si1 0.750311 0.611622 0.111150
Si Si2 0.223285 0.362996 0.008136
Si Si3 0.973282 0.274955 0.174232
O O1 0.526065 0.318989 0.197547
O O2 0.616238 0.692403 0.169689
O O3 0.915953 0.483590 0.145261
O O4 0.785827 0.809474 0.073822
O O5 0.249942 0.140307 0.991484
O O6 0.000000 0.408942 0.000000
O O7 0.870195 0.129806 0.125000
#
# Coordination Sequence:
#
# PCOD9548403 Si02
#       3
#     8   8   8
#     4  11  22  46  74 109 149 208 251 326 391 468
#     4  11  23  46  77 105 157 206 259 325 398 463
#     4  10  22  44  73 101 152 195 254 326 392 453
#
# _framework density 23.768584000000001
#
# number of rings (size 3 to 8) (size 9 to 14) (size 15 to 20)
#    0.000    1.333    6.667    1.000    0.000    1.333 
#    0.000   25.000    0.000    0.000    0.000    0.000 
#    0.000    0.000    0.000    0.000    0.000    0.000 
#
# Total GULP energy -133682.910361 kJ/mol
# GULP energy per Si atom -5570.121265 kJ/mol
# Density = 2.371449 g / cm^3
# Si number density = 23.768584 Si / 1000 Ang^3
#
#
#
# Elastic Constant Matrix: (Units=GPa)
#
#
# Indices 1 2 3 4 5 6 
#
# 1 139.4430 9.3079 3.7067 0.0000 0.0000 0.0000
# 2 9.3079 139.4434 3.7067 0.0000 0.0000 0.0000
# 3 3.7067 3.7067 123.4309 0.0000 0.0000 0.0000
# 4 0.0000 0.0000 0.0000 27.3216 0.0000 0.0000
# 5 0.0000 0.0000 0.0000 0.0000 27.3215 0.0000
# 6 0.0000 0.0000 0.0000 0.0000 0.0000 5.4746
#
#
#
# Elastic Compliance Matrix: (Units=1/GPa)
#
#
# Indices 1 2 3 4 5 6 
#
# 1 0.007209 -0.000476 -0.000202 0.000000 0.000000 0.000000
# 2 -0.000476 0.007209 -0.000202 0.000000 0.000000 0.000000
# 3 -0.000202 -0.000202 0.008114 0.000000 0.000000 0.000000
# 4 0.000000 0.000000 0.000000 0.036601 0.000000 0.000000
# 5 0.000000 0.000000 0.000000 0.000000 0.036601 0.000000
# 6 0.000000 0.000000 0.000000 0.000000 0.000000 0.182662
#
#
# Mechanical properties :
#
#
# Convention : Reuss Voigt Hill
#
# Bulk Modulus (GPa) = 48.14513 48.41775 48.28144
# Shear Modulus (GPa) = 17.41682 37.72994 27.57338
#
# Velocity S-wave (km/s) = 2.70990 3.98852 3.40968
# Velocity P-wave (km/s) = 5.48554 6.45181 5.98820
#
# Compressibility (1/GPa) = 0.02077053
#
# Stress axis : x y z
#
# Youngs Moduli (GPa) = 138.72471 138.72509 123.24614
#
# Poissons Ratio (x) = 0.06600 0.02492
# Poissons Ratio (y) = 0.06600 0.02492
# Poissons Ratio (z) = 0.02805 0.02805
#
# Static dielectric constant tensor:
#      x y z
#    x 1.957810 0.000000 0.000000 
#    y 0.000000 1.957800 0.000000 
#    z 0.000000 0.000000 1.987000 
# 
# From -- ./inp_files/6521.got.cif
#   From: 2010.05.17/outbox.cif.g08.bks.cpg/sg91_4_cif.got.tgz:6521.got - 2010.06.03 19:20:03.
