data_PCOD9548268
_publ_section_title
;
Structure prediction by ZEFSAII (Michael W. Deem and Ramdas Pophale) SiO2 
 PCOD9548268
Probable space group: P 41 2 2
;
_chemical_formula_sum "Si O2"
_cell_formula_units_Z 40
_cell_length_a 16.197886
_cell_length_b 16.197886
_cell_length_c 7.898543
_cell_angle_alpha 90.000000
_cell_angle_beta 90.000000
_cell_angle_gamma 90.000000
_cell_volume 2072.352661
_symmetry_space_group_name_H-M "P 41 2 2"
_symmetry_group_IT_number 91
_symmetry_cell_setting 'tetragonal'
loop_
_space_group_symop_operation_xyz
x,y,z
-y,x,1/4+z
-x,-y,1/2+z
y,-x,3/4+z
x,-y,1/2-z
-x,y,-z
y,x,3/4-z
-y,-x,1/4-z
loop_
_atom_site_type_symbol
_atom_site_label
_atom_site_fract_x
_atom_site_fract_y
_atom_site_fract_z
Si Si1 0.752811 0.047834 0.427920
Si Si2 0.342641 0.657360 0.625000
Si Si3 0.203021 0.633015 0.364700
Si Si4 0.276057 0.500000 0.750000
Si Si5 0.078269 0.078269 0.375000
Si Si6 0.444641 0.828641 0.222859
Si Si7 0.000000 0.649975 0.000000
O O1 0.696563 0.127602 0.389658
O O2 0.839674 0.074306 0.509941
O O3 0.762977 0.000000 0.250000
O O4 0.705499 0.997934 0.579141
O O5 0.278235 0.671536 0.470771
O O6 0.331190 0.559843 0.642922
O O7 0.172766 0.543582 0.438626
O O8 0.220262 0.605351 0.171667
O O9 0.218165 0.437661 0.648396
O O10 0.000000 0.076981 0.500000
O O11 0.407381 0.919536 0.233659
#
# Coordination Sequence:
#
# PCOD9548268 Si02
#       7
#     8   4   8   4   4   8   4
#     4  11  25  42  67  98 128 166 223 262 326 390
#     4  10  22  40  59  88 121 170 216 256 320 374
#     4   9  21  39  61  95 130 166 205 261 327 393
#     4  10  22  38  62  86 122 170 212 258 316 370
#     4  12  26  48  67  88 123 174 224 278 318 362
#     4   9  20  37  62  95 132 164 201 260 332 388
#     4  10  22  40  66 100 134 166 208 264 324 400
#
# _framework density 19.301734
#
# number of rings (size 3 to 8) (size 9 to 14) (size 15 to 20)
#    0.000    2.000    1.000    0.600    7.000    7.200 
#    0.000    4.000    0.000    0.000    0.000    0.000 
#    0.000    0.000    0.000    0.000    0.000    0.000 
#
# Total GULP energy -222830.052238 kJ/mol
# GULP energy per Si atom -5570.751306 kJ/mol
# Density = 1.925780 g / cm^3
# Si number density = 19.301734 Si / 1000 Ang^3
#
#
#
# Elastic Constant Matrix: (Units=GPa)
#
#
# Indices 1 2 3 4 5 6 
#
# 1 87.9952 52.8463 45.7789 0.0000 0.0000 0.0000
# 2 52.8463 87.9946 45.7787 0.0000 0.0000 0.0000
# 3 45.7789 45.7787 113.1057 0.0000 0.0000 0.0000
# 4 0.0000 0.0000 0.0000 22.9505 0.0000 0.0000
# 5 0.0000 0.0000 0.0000 0.0000 22.9508 0.0000
# 6 0.0000 0.0000 0.0000 0.0000 0.0000 8.0746
#
#
#
# Elastic Compliance Matrix: (Units=1/GPa)
#
#
# Indices 1 2 3 4 5 6 
#
# 1 0.019043 -0.009408 -0.003900 0.000000 0.000000 0.000000
# 2 -0.009408 0.019043 -0.003900 0.000000 0.000000 0.000000
# 3 -0.003900 -0.003900 0.011998 0.000000 0.000000 0.000000
# 4 0.000000 0.000000 0.000000 0.043572 0.000000 0.000000
# 5 0.000000 0.000000 0.000000 0.000000 0.043571 0.000000
# 6 0.000000 0.000000 0.000000 0.000000 0.000000 0.123846
#
#
# Mechanical properties :
#
#
# Convention : Reuss Voigt Hill
#
# Bulk Modulus (GPa) = 63.81816 64.21148 64.01482
# Shear Modulus (GPa) = 16.62725 20.44129 18.53427
#
# Velocity S-wave (km/s) = 2.93821 3.25782 3.10213
# Velocity P-wave (km/s) = 6.68177 6.89134 6.78736
#
# Compressibility (1/GPa) = 0.01566952
#
# Stress axis : x y z
#
# Youngs Moduli (GPa) = 52.51291 52.51250 83.34592
#
# Poissons Ratio (x) = 0.49402 0.32504
# Poissons Ratio (y) = 0.49402 0.32504
# Poissons Ratio (z) = 0.20479 0.20479
#
# Static dielectric constant tensor:
#      x y z
#    x 1.649620 0.000000 0.000000 
#    y 0.000000 1.649620 0.000000 
#    z 0.000000 0.000000 1.613460 
# 
# From -- ./inp_files/2489.got.cif
#   From: 2010.05.17/outbox.cif.g08.bks.cpg/sg91_2_cif.got.tgz:2489.got - 2010.06.03 19:20:03.
