data_PCOD9548043
_publ_section_title
;
Structure prediction by ZEFSAII (Michael W. Deem and Ramdas Pophale) SiO2 
 PCOD9548043
Probable space group: P 41 2 2
;
_chemical_formula_sum "Si O2"
_cell_formula_units_Z 40
_cell_length_a 14.702749
_cell_length_b 14.702749
_cell_length_c 7.721550
_cell_angle_alpha 90.000000
_cell_angle_beta 90.000000
_cell_angle_gamma 90.000000
_cell_volume 1669.173858
_symmetry_space_group_name_H-M "P 41 2 2"
_symmetry_group_IT_number 91
_symmetry_cell_setting 'tetragonal'
loop_
_space_group_symop_operation_xyz
x,y,z
-y,x,1/4+z
-x,-y,1/2+z
y,-x,3/4+z
x,-y,1/2-z
-x,y,-z
y,x,3/4-z
-y,-x,1/4-z
loop_
_atom_site_type_symbol
_atom_site_label
_atom_site_fract_x
_atom_site_fract_y
_atom_site_fract_z
Si Si1 0.937894 0.593299 0.662322
Si Si2 0.547326 0.268204 0.320621
Si Si3 0.279372 0.647363 0.938265
Si Si4 0.782773 0.961330 0.945216
Si Si5 0.843011 0.203844 0.302078
O O1 0.968400 0.500000 0.750000
O O2 0.835066 0.580157 0.598659
O O3 0.943234 0.675914 0.794818
O O4 0.000000 0.616360 0.500000
O O5 0.500000 0.298819 0.500000
O O6 0.460992 0.267854 0.194179
O O7 0.637742 0.327677 0.310590
O O8 0.187102 0.702773 0.896172
O O9 0.312151 0.687850 0.125000
O O10 0.804871 0.000000 0.750000
O O11 0.804990 0.057107 0.033678
O O12 0.823973 0.877146 0.056896
O O13 0.787681 0.212320 0.125000
#
# Coordination Sequence:
#
# PCOD9548043 Si02
#       5
#     8   8   8   8   8
#     4  11  23  39  63 108 150 190 248 321 390 470
#     4   9  20  37  68 104 145 188 253 311 383 468
#     4  10  20  41  70 106 145 199 252 317 385 467
#     4  12  26  47  74 107 147 201 256 316 390 474
#     4  12  26  46  73 109 154 196 255 327 395 469
#
# _framework density 23.963954000000001
#
# number of rings (size 3 to 8) (size 9 to 14) (size 15 to 20)
#    0.000    1.200    2.000    4.200    8.400    0.000 
#    0.000    5.000    0.000   10.800    0.000    0.000 
#    0.000    0.000    0.000    0.000    0.000    0.000 
#
# Total GULP energy -222995.984954 kJ/mol
# GULP energy per Si atom -5574.899624 kJ/mol
# Density = 2.390941 g / cm^3
# Si number density = 23.963954 Si / 1000 Ang^3
#
#
#
# Elastic Constant Matrix: (Units=GPa)
#
#
# Indices 1 2 3 4 5 6 
#
# 1 106.8393 74.1158 35.0611 0.0000 0.0000 0.0000
# 2 74.1158 106.8419 35.0616 0.0000 0.0000 0.0000
# 3 35.0611 35.0616 122.2226 0.0000 0.0000 0.0000
# 4 0.0000 0.0000 0.0000 23.4566 0.0000 0.0000
# 5 0.0000 0.0000 0.0000 0.0000 23.4584 0.0000
# 6 0.0000 0.0000 0.0000 0.0000 0.0000 37.8868
#
#
#
# Elastic Compliance Matrix: (Units=1/GPa)
#
#
# Indices 1 2 3 4 5 6 
#
# 1 0.018388 -0.012170 -0.001784 0.000000 0.000000 0.000000
# 2 -0.012170 0.018387 -0.001784 0.000000 0.000000 0.000000
# 3 -0.001784 -0.001784 0.009205 0.000000 0.000000 0.000000
# 4 0.000000 0.000000 0.000000 0.042632 0.000000 0.000000
# 5 0.000000 0.000000 0.000000 0.000000 0.042629 0.000000
# 6 0.000000 0.000000 0.000000 0.000000 0.000000 0.026394
#
#
# Mechanical properties :
#
#
# Convention : Reuss Voigt Hill
#
# Bulk Modulus (GPa) = 68.93895 69.37565 69.15730
# Shear Modulus (GPa) = 25.78048 29.73804 27.75926
#
# Velocity S-wave (km/s) = 3.28350 3.52653 3.40718
# Velocity P-wave (km/s) = 6.57308 6.75239 6.66334
#
# Compressibility (1/GPa) = 0.01450559
#
# Stress axis : x y z
#
# Youngs Moduli (GPa) = 54.38377 54.38511 108.63594
#
# Poissons Ratio (x) = 0.66188 0.19376
# Poissons Ratio (y) = 0.66187 0.19375
# Poissons Ratio (z) = 0.09700 0.09700
#
# Static dielectric constant tensor:
#      x y z
#    x 2.006380 0.000000 0.000000 
#    y 0.000000 2.006380 0.000000 
#    z 0.000000 0.000000 2.413040 
# 
# From -- ./inp_files/2378.got.cif
#   From: 2010.05.17/outbox.cif.g08.bks.cpg/sg91_2_cif.got.tgz:2378.got - 2010.06.03 19:20:03.
