data_PCOD9548810
_publ_section_title
;
Structure prediction by ZEFSAII (Michael W. Deem and Ramdas Pophale) SiO2 
 PCOD9548810
Probable space group: P 41 2 2
;
_chemical_formula_sum "Si O2"
_cell_formula_units_Z 40
_cell_length_a 9.551849
_cell_length_b 9.551849
_cell_length_c 23.330263
_cell_angle_alpha 90.000000
_cell_angle_beta 90.000000
_cell_angle_gamma 90.000000
_cell_volume 2128.602320
_symmetry_space_group_name_H-M "P 41 2 2"
_symmetry_group_IT_number 91
_symmetry_cell_setting 'tetragonal'
loop_
_space_group_symop_operation_xyz
x,y,z
-y,x,1/4+z
-x,-y,1/2+z
y,-x,3/4+z
x,-y,1/2-z
-x,y,-z
y,x,3/4-z
-y,-x,1/4-z
loop_
_atom_site_type_symbol
_atom_site_label
_atom_site_fract_x
_atom_site_fract_y
_atom_site_fract_z
Si Si1 0.102231 0.157735 0.735961
Si Si2 0.163295 0.432295 0.483027
Si Si3 0.165132 0.665508 0.258600
Si Si4 0.653917 0.206697 0.172596
Si Si5 0.886253 0.333478 0.891386
O O1 0.210611 0.197903 0.786291
O O2 0.196512 0.149152 0.679053
O O3 0.977669 0.267370 0.734658
O O4 0.049922 0.000000 0.750000
O O5 0.251339 0.291926 0.479359
O O6 0.223772 0.523179 0.535839
O O7 0.168258 0.531561 0.426951
O O8 0.000000 0.407353 0.500000
O O9 0.171709 0.500000 0.250000
O O10 0.166532 0.686160 0.327357
O O11 0.676508 0.323493 0.125000
O O12 0.648003 0.054618 0.142604
#
# Coordination Sequence:
#
# PCOD9548810 Si02
#       5
#     8   8   8   8   8
#     4   9  19  36  63  92 115 148 197 253 303 354
#     4   9  21  40  59  83 118 162 194 240 311 361
#     4  12  24  38  57  89 125 158 204 244 299 374
#     4   9  15  35  65  88 111 148 202 250 290 351
#     4   9  20  39  61  87 122 147 197 261 299 347
#
# _framework density 18.791672999999999
#
# number of rings (size 3 to 8) (size 9 to 14) (size 15 to 20)
#    0.000    2.400    2.000    3.000    0.000    4.000 
#    3.600    4.000    0.000    0.000    0.000    0.000 
#    0.000    0.000    0.000    0.000    0.000    0.000 
#
# Total GULP energy -223206.371112 kJ/mol
# GULP energy per Si atom -5580.159278 kJ/mol
# Density = 1.874890 g / cm^3
# Si number density = 18.791673 Si / 1000 Ang^3
#
#
#
# Elastic Constant Matrix: (Units=GPa)
#
#
# Indices 1 2 3 4 5 6 
#
# 1 74.5792 46.9209 7.5097 0.0000 0.0000 0.0000
# 2 46.9209 74.5790 7.5092 0.0000 0.0000 0.0000
# 3 7.5097 7.5092 67.5253 0.0000 0.0000 0.0000
# 4 0.0000 0.0000 0.0000 15.7348 0.0000 0.0000
# 5 0.0000 0.0000 0.0000 0.0000 15.7353 0.0000
# 6 0.0000 0.0000 0.0000 0.0000 0.0000 -61.9355
#
#
#
# Elastic Compliance Matrix: (Units=1/GPa)
#
#
# Indices 1 2 3 4 5 6 
#
# 1 0.022250 -0.013905 -0.000928 0.000000 0.000000 0.000000
# 2 -0.013905 0.022250 -0.000928 0.000000 0.000000 0.000000
# 3 -0.000928 -0.000928 0.015016 0.000000 0.000000 0.000000
# 4 0.000000 0.000000 0.000000 0.063553 0.000000 0.000000
# 5 0.000000 0.000000 0.000000 0.000000 0.063551 0.000000
# 6 0.000000 0.000000 0.000000 0.000000 0.000000 -0.016146
#
#
# Mechanical properties :
#
#
# Convention : Reuss Voigt Hill
#
# Bulk Modulus (GPa) = 35.72221 37.84034 36.78127
# Shear Modulus (GPa) = 23.65979 4.22319 13.94149
#
# Velocity S-wave (km/s) = 3.55217 1.50075 2.72673
# Velocity P-wave (km/s) = 5.98955 4.81492 5.43407
#
# Compressibility (1/GPa) = 0.02799379
#
# Stress axis : x y z
#
# Youngs Moduli (GPa) = 44.94308 44.94301 66.59706
#
# Poissons Ratio (x) = 0.62494 0.06182
# Poissons Ratio (y) = 0.62494 0.06180
# Poissons Ratio (z) = 0.04172 0.04170
#
# Static dielectric constant tensor:
#      x y z
#    x 1.641720 0.000000 0.000000 
#    y 0.000000 1.641720 0.000000 
#    z 0.000000 0.000000 1.658300 
# 
# From -- ./inp_files/6719.got.cif
#   From: 2010.05.17/outbox.cif.g08.bks.cpg/sg91_4_cif.got.tgz:6719.got - 2010.06.03 19:20:03.
