data_PCOD9548389
_publ_section_title
;
Structure prediction by ZEFSAII (Michael W. Deem and Ramdas Pophale) SiO2 
 PCOD9548389
Probable space group: P 41 2 2
;
_chemical_formula_sum "Si O2"
_cell_formula_units_Z 40
_cell_length_a 8.070375
_cell_length_b 8.070375
_cell_length_c 25.828338
_cell_angle_alpha 90.000000
_cell_angle_beta 90.000000
_cell_angle_gamma 90.000000
_cell_volume 1682.224259
_symmetry_space_group_name_H-M "P 41 2 2"
_symmetry_group_IT_number 91
_symmetry_cell_setting 'tetragonal'
loop_
_space_group_symop_operation_xyz
x,y,z
-y,x,1/4+z
-x,-y,1/2+z
y,-x,3/4+z
x,-y,1/2-z
-x,y,-z
y,x,3/4-z
-y,-x,1/4-z
loop_
_atom_site_type_symbol
_atom_site_label
_atom_site_fract_x
_atom_site_fract_y
_atom_site_fract_z
Si Si1 0.868112 0.294874 0.078819
Si Si2 0.649701 0.780472 0.222993
Si Si3 0.932912 0.500000 0.750000
Si Si4 0.140999 0.140999 0.375000
Si Si5 0.734268 0.813167 0.763676
Si Si6 0.385985 0.139814 0.100167
O O1 0.831614 0.168387 0.125000
O O2 0.848289 0.475447 0.105686
O O3 0.048665 0.291664 0.053352
O O4 0.753462 0.260957 0.028337
O O5 0.461737 0.799715 0.240223
O O6 0.685920 0.651488 0.177704
O O7 0.823742 0.662009 0.735545
O O8 0.033075 0.549300 0.801348
O O9 0.227042 0.207735 0.323881
O O10 0.954214 0.218386 0.370263
O O11 0.790864 0.000000 0.750000
#
# Coordination Sequence:
#
# PCOD9548389 Si02
#       6
#     8   8   4   4   8   8
#     4  11  24  44  69 100 143 188 238 304 377 442
#     4  11  24  46  69 105 144 185 251 303 373 460
#     4  10  26  42  74 106 142 194 250 308 378 454
#     4  10  22  44  66 100 140 188 242 290 370 438
#     4  11  22  49  73 102 146 196 248 313 374 453
#     4  11  23  45  68 104 144 183 246 305 371 449
#
# _framework density 23.778040000000001
#
# number of rings (size 3 to 8) (size 9 to 14) (size 15 to 20)
#    0.000    1.200    4.000    1.200    1.400    5.600 
#   19.800    0.000    0.000    0.000    0.000    0.000 
#    0.000    0.000    0.000    0.000    0.000    0.000 
#
# Total GULP energy -223323.516120 kJ/mol
# GULP energy per Si atom -5583.087903 kJ/mol
# Density = 2.372392 g / cm^3
# Si number density = 23.778040 Si / 1000 Ang^3
#
#
#
# Elastic Constant Matrix: (Units=GPa)
#
#
# Indices 1 2 3 4 5 6 
#
# 1 56.4325 39.1230 21.0159 0.0000 0.0000 0.0000
# 2 39.1230 56.4326 21.0161 0.0000 0.0000 0.0000
# 3 21.0159 21.0161 153.3161 0.0000 0.0000 0.0000
# 4 0.0000 0.0000 0.0000 9.0760 0.0000 0.0000
# 5 0.0000 0.0000 0.0000 0.0000 9.0760 0.0000
# 6 0.0000 0.0000 0.0000 0.0000 0.0000 31.9265
#
#
#
# Elastic Compliance Matrix: (Units=1/GPa)
#
#
# Indices 1 2 3 4 5 6 
#
# 1 0.034454 -0.023317 -0.001527 0.000000 0.000000 0.000000
# 2 -0.023317 0.034454 -0.001527 0.000000 0.000000 0.000000
# 3 -0.001527 -0.001527 0.006941 0.000000 0.000000 0.000000
# 4 0.000000 0.000000 0.000000 0.110181 0.000000 0.000000
# 5 0.000000 0.000000 0.000000 0.000000 0.110180 0.000000
# 6 0.000000 0.000000 0.000000 0.000000 0.000000 0.031322
#
#
# Mechanical properties :
#
#
# Convention : Reuss Voigt Hill
#
# Bulk Modulus (GPa) = 43.27518 47.61014 45.44266
# Shear Modulus (GPa) = 12.88739 22.35079 17.61909
#
# Velocity S-wave (km/s) = 2.33059 3.06923 2.72505
# Velocity P-wave (km/s) = 5.04790 5.71195 5.39016
#
# Compressibility (1/GPa) = 0.02310793
#
# Stress axis : x y z
#
# Youngs Moduli (GPa) = 29.02420 29.02420 144.07176
#
# Poissons Ratio (x) = 0.67677 0.21993
# Poissons Ratio (y) = 0.67677 0.21994
# Poissons Ratio (z) = 0.04431 0.04431
#
# Static dielectric constant tensor:
#      x y z
#    x 2.009530 0.000000 0.000000 
#    y 0.000000 2.009530 0.000000 
#    z 0.000000 0.000000 1.865060 
# 
# From -- ./inp_files/17534.got.cif
#   From: 2010.05.17/outbox.cif.g08.bks.cpg/sg91_9_cif.got.tgz:17534.got - 2010.06.03 19:20:03.
