data_PCOD9548212
_publ_section_title
;
Structure prediction by ZEFSAII (Michael W. Deem and Ramdas Pophale) SiO2 
 PCOD9548212
Probable space group: P 41 2 2
;
_chemical_formula_sum "Si O2"
_cell_formula_units_Z 40
_cell_length_a 7.984434
_cell_length_b 7.984434
_cell_length_c 27.474103
_cell_angle_alpha 90.000000
_cell_angle_beta 90.000000
_cell_angle_gamma 90.000000
_cell_volume 1751.506659
_symmetry_space_group_name_H-M "P 41 2 2"
_symmetry_group_IT_number 91
_symmetry_cell_setting 'tetragonal'
loop_
_space_group_symop_operation_xyz
x,y,z
-y,x,1/4+z
-x,-y,1/2+z
y,-x,3/4+z
x,-y,1/2-z
-x,y,-z
y,x,3/4-z
-y,-x,1/4-z
loop_
_atom_site_type_symbol
_atom_site_label
_atom_site_fract_x
_atom_site_fract_y
_atom_site_fract_z
Si Si1 0.192398 0.106510 0.201450
Si Si2 0.871697 0.278692 0.169568
Si Si3 0.184566 0.815435 0.125000
Si Si4 0.413542 0.413542 0.875000
Si Si5 0.435839 0.184255 0.762409
Si Si6 0.582140 0.645501 0.949669
O O1 0.196202 0.985592 0.154987
O O2 0.139536 0.000000 0.250000
O O3 0.383291 0.156681 0.212023
O O4 0.055167 0.252565 0.191390
O O5 0.854747 0.145254 0.125000
O O6 0.781862 0.433800 0.141598
O O7 0.724532 0.256056 0.209498
O O8 0.218472 0.674450 0.166538
O O9 0.453284 0.546831 0.916201
O O10 0.496954 0.290407 0.716048
O O11 0.376923 0.000000 0.750000
O O12 0.500000 0.706075 0.000000
#
# Coordination Sequence:
#
# PCOD9548212 Si02
#       6
#     8   8   4   4   8   8
#     4  11  22  43  70 105 144 185 252 302 374 462
#     4  10  21  43  66  98 140 181 234 306 367 440
#     4  11  21  42  68 102 145 199 230 316 382 431
#     4   9  21  38  68  96 131 191 232 294 374 427
#     4  11  22  42  69  97 139 191 235 304 375 427
#     4  11  20  41  71  94 145 192 243 302 370 455
#
# _framework density 22.837478999999998
#
# number of rings (size 3 to 8) (size 9 to 14) (size 15 to 20)
#    0.600    0.800    7.000    0.600    0.000    0.000 
#    7.200    0.000    4.400    0.000    0.000    0.000 
#    0.000    0.000    0.000    0.000    0.000    0.000 
#
# Total GULP energy -222675.705597 kJ/mol
# GULP energy per Si atom -5566.892640 kJ/mol
# Density = 2.278550 g / cm^3
# Si number density = 22.837479 Si / 1000 Ang^3
#
#
#
# Elastic Constant Matrix: (Units=GPa)
#
#
# Indices 1 2 3 4 5 6 
#
# 1 85.9605 21.3530 35.8187 0.0000 0.0000 0.0000
# 2 21.3530 85.9612 35.8190 0.0000 0.0000 0.0000
# 3 35.8187 35.8190 120.7347 0.0000 0.0000 0.0000
# 4 0.0000 0.0000 0.0000 34.7032 0.0000 0.0000
# 5 0.0000 0.0000 0.0000 0.0000 34.7046 0.0000
# 6 0.0000 0.0000 0.0000 0.0000 0.0000 31.4915
#
#
#
# Elastic Compliance Matrix: (Units=1/GPa)
#
#
# Indices 1 2 3 4 5 6 
#
# 1 0.013549 -0.001929 -0.003447 0.000000 0.000000 0.000000
# 2 -0.001929 0.013549 -0.003447 0.000000 0.000000 0.000000
# 3 -0.003447 -0.003447 0.010328 0.000000 0.000000 0.000000
# 4 0.000000 0.000000 0.000000 0.028816 0.000000 0.000000
# 5 0.000000 0.000000 0.000000 0.000000 0.028815 0.000000
# 6 0.000000 0.000000 0.000000 0.000000 0.000000 0.031755
#
#
# Mechanical properties :
#
#
# Convention : Reuss Voigt Hill
#
# Bulk Modulus (GPa) = 50.56022 53.18197 51.87110
# Shear Modulus (GPa) = 33.10143 33.49091 33.29617
#
# Velocity S-wave (km/s) = 3.81127 3.83363 3.82247
# Velocity P-wave (km/s) = 6.44631 6.55235 6.49955
#
# Compressibility (1/GPa) = 0.01977839
#
# Stress axis : x y z
#
# Youngs Moduli (GPa) = 73.80676 73.80728 96.82368
#
# Poissons Ratio (x) = 0.14238 0.33378
# Poissons Ratio (y) = 0.14238 0.33378
# Poissons Ratio (z) = 0.25443 0.25443
#
# Static dielectric constant tensor:
#      x y z
#    x 1.827700 0.000000 0.000000 
#    y 0.000000 1.827710 0.000000 
#    z 0.000000 0.000000 1.893820 
# 
# From -- ./inp_files/18033.got.cif
#   From: 2010.05.17/outbox.cif.g08.bks.cpg/sg91_10_cif.got.tgz:18033.got - 2010.06.03 19:20:03.
