data_PCOD9548363
_publ_section_title
;
Structure prediction by ZEFSAII (Michael W. Deem and Ramdas Pophale) SiO2 
 PCOD9548363
Probable space group: P 41 2 2
;
_chemical_formula_sum "Si O2"
_cell_formula_units_Z 36
_cell_length_a 13.249438
_cell_length_b 13.249438
_cell_length_c 10.151777
_cell_angle_alpha 90.000000
_cell_angle_beta 90.000000
_cell_angle_gamma 90.000000
_cell_volume 1782.120162
_symmetry_space_group_name_H-M "P 41 2 2"
_symmetry_group_IT_number 91
_symmetry_cell_setting 'tetragonal'
loop_
_space_group_symop_operation_xyz
x,y,z
-y,x,1/4+z
-x,-y,1/2+z
y,-x,3/4+z
x,-y,1/2-z
-x,y,-z
y,x,3/4-z
-y,-x,1/4-z
loop_
_atom_site_type_symbol
_atom_site_label
_atom_site_fract_x
_atom_site_fract_y
_atom_site_fract_z
Si Si1 0.716066 0.716066 0.875000
Si Si2 0.244661 0.000000 0.750000
Si Si3 0.875637 0.631062 0.677258
Si Si4 0.570245 0.429756 0.125000
Si Si5 0.514619 0.773349 0.731812
Si Si6 0.936359 0.500000 0.250000
Si Si7 0.050997 0.949004 0.625000
O O1 0.813852 0.696945 0.782426
O O2 0.620986 0.723624 0.775054
O O3 0.306049 0.904814 0.797657
O O4 0.168949 0.030074 0.866782
O O5 0.813095 0.537970 0.615501
O O6 0.984525 0.591623 0.727770
O O7 0.545552 0.500000 0.250000
O O8 0.550683 0.314839 0.166176
O O9 0.520662 0.865251 0.626786
O O10 0.000000 0.996747 0.500000
#
# Coordination Sequence:
#
# PCOD9548363 Si02
#       7
#     4   4   8   4   8   4   4
#     4  12  27  45  72 112 144 198 252 312 385 459
#     4  10  22  42  72  98 142 192 250 308 378 458
#     4  12  25  45  75 107 148 197 252 322 378 461
#     4  12  25  43  70 108 152 200 246 318 377 473
#     4  12  25  47  72 108 151 197 251 304 388 462
#     4  12  24  48  74 102 154 200 248 312 386 450
#     4   8  20  42  68  98 144 190 240 320 378 446
#
# _framework density 20.200659999999999
#
# number of rings (size 3 to 8) (size 9 to 14) (size 15 to 20)
#    0.667    0.000    5.556    2.000    0.000    3.556 
#    0.000    0.000    0.000    0.000    0.000    0.000 
#    0.000    0.000    0.000    0.000    0.000    0.000 
#
# Total GULP energy -200721.647856 kJ/mol
# GULP energy per Si atom -5575.601329 kJ/mol
# Density = 2.015468 g / cm^3
# Si number density = 20.200660 Si / 1000 Ang^3
#
#
#
# Elastic Constant Matrix: (Units=GPa)
#
#
# Indices 1 2 3 4 5 6 
#
# 1 108.4003 63.4129 58.4290 0.0000 0.0000 0.0000
# 2 63.4129 108.3972 58.4296 0.0000 0.0000 0.0000
# 3 58.4290 58.4296 141.9686 0.0000 0.0000 0.0000
# 4 0.0000 0.0000 0.0000 46.9942 0.0000 0.0000
# 5 0.0000 0.0000 0.0000 0.0000 46.9947 0.0000
# 6 0.0000 0.0000 0.0000 0.0000 0.0000 33.9651
#
#
#
# Elastic Compliance Matrix: (Units=1/GPa)
#
#
# Indices 1 2 3 4 5 6 
#
# 1 0.015156 -0.007073 -0.003326 0.000000 0.000000 0.000000
# 2 -0.007073 0.015156 -0.003327 0.000000 0.000000 0.000000
# 3 -0.003326 -0.003327 0.009782 0.000000 0.000000 0.000000
# 4 0.000000 0.000000 0.000000 0.021279 0.000000 0.000000
# 5 0.000000 0.000000 0.000000 0.000000 0.021279 0.000000
# 6 0.000000 0.000000 0.000000 0.000000 0.000000 0.029442
#
#
# Mechanical properties :
#
#
# Convention : Reuss Voigt Hill
#
# Bulk Modulus (GPa) = 79.10539 79.92327 79.51433
# Shear Modulus (GPa) = 34.77992 37.49045 36.13519
#
# Velocity S-wave (km/s) = 4.15387 4.31269 4.23402
# Velocity P-wave (km/s) = 7.88993 8.02805 7.95929
#
# Compressibility (1/GPa) = 0.01264136
#
# Stress axis : x y z
#
# Youngs Moduli (GPa) = 65.98150 65.97869 102.22761
#
# Poissons Ratio (x) = 0.46667 0.34006
# Poissons Ratio (y) = 0.46669 0.34010
# Poissons Ratio (z) = 0.21949 0.21950
#
# Static dielectric constant tensor:
#      x y z
#    x 1.746220 0.000000 0.000000 
#    y 0.000000 1.746220 0.000000 
#    z 0.000000 0.000000 1.526320 
# 
# From -- ./inp_files/15708.got.cif
#   From: 2010.05.17/outbox.cif.g08.bks.cpg/sg91_8_cif.got.tgz:15708.got - 2010.06.03 19:20:03.
