data_PCOD9548611
_publ_section_title
;
Structure prediction by ZEFSAII (Michael W. Deem and Ramdas Pophale) SiO2 
 PCOD9548611
Probable space group: P 41 2 2
;
_chemical_formula_sum "Si O2"
_cell_formula_units_Z 60
_cell_length_a 11.354241
_cell_length_b 11.354241
_cell_length_c 22.971479
_cell_angle_alpha 90.000000
_cell_angle_beta 90.000000
_cell_angle_gamma 90.000000
_cell_volume 2961.455247
_symmetry_space_group_name_H-M "P 41 2 2"
_symmetry_group_IT_number 91
_symmetry_cell_setting 'tetragonal'
loop_
_space_group_symop_operation_xyz
x,y,z
-y,x,1/4+z
-x,-y,1/2+z
y,-x,3/4+z
x,-y,1/2-z
-x,y,-z
y,x,3/4-z
-y,-x,1/4-z
loop_
_atom_site_type_symbol
_atom_site_label
_atom_site_fract_x
_atom_site_fract_y
_atom_site_fract_z
Si Si1 0.936456 0.241847 0.145530
Si Si2 0.636731 0.151740 0.987686
Si Si3 0.696222 0.578908 0.533911
Si Si4 0.021918 0.394467 0.364006
Si Si5 0.369392 0.328397 0.489974
Si Si6 0.239033 0.760968 0.125000
Si Si7 0.910258 0.429483 0.048679
Si Si8 0.627311 0.825655 0.095271
O O1 0.883506 0.116495 0.125000
O O2 0.892449 0.280734 0.209599
O O3 0.884558 0.335170 0.098800
O O4 0.075622 0.271973 0.143329
O O5 0.650675 0.291515 0.980292
O O6 0.655223 0.076728 0.929347
O O7 0.500000 0.129368 0.000000
O O8 0.614930 0.465987 0.526131
O O9 0.795167 0.543921 0.487243
O O10 0.753138 0.589654 0.597558
O O11 0.106823 0.286715 0.380164
O O12 0.095167 0.506475 0.335409
O O13 0.965678 0.457191 0.420269
O O14 0.500000 0.281850 0.500000
O O15 0.302732 0.281264 0.433829
O O16 0.319965 0.268276 0.548914
O O17 0.000000 0.380316 0.000000
#
# Coordination Sequence:
#
# PCOD9548611 Si02
#       8
#     8   8   8   8   8   4   8   8
#     4  11  22  39  66  97 126 176 244 295 342 423
#     4  12  24  40  65 100 137 186 241 295 363 435
#     4  12  25  41  61 104 140 178 239 297 364 439
#     4  11  23  41  70  94 138 192 243 291 359 449
#     4  12  23  39  65  99 143 182 226 291 370 430
#     4  12  22  42  66 106 136 184 250 298 348 446
#     4  11  20  40  64  90 130 181 232 288 359 430
#     4  11  23  42  68  95 138 194 232 287 369 449
#
# _framework density 20.26031
#
# number of rings (size 3 to 8) (size 9 to 14) (size 15 to 20)
#    0.000    0.533    9.333    1.200    1.867    0.000 
#    0.000    0.000    1.467    0.000    3.467    0.000 
#    0.000    0.000    0.000    0.000    0.000    0.000 
#
# Total GULP energy -334253.036085 kJ/mol
# GULP energy per Si atom -5570.883935 kJ/mol
# Density = 2.021420 g / cm^3
# Si number density = 20.260310 Si / 1000 Ang^3
#
#
#
# Elastic Constant Matrix: (Units=GPa)
#
#
# Indices 1 2 3 4 5 6 
#
# 1 77.9235 14.1362 34.7294 0.0000 0.0000 0.0000
# 2 14.1362 77.9233 34.7292 0.0000 0.0000 0.0000
# 3 34.7294 34.7292 132.2725 0.0000 0.0000 0.0000
# 4 0.0000 0.0000 0.0000 -95.9395 0.0000 0.0000
# 5 0.0000 0.0000 0.0000 0.0000 -95.9024 0.0000
# 6 0.0000 0.0000 0.0000 0.0000 0.0000 31.7543
#
#
#
# Elastic Compliance Matrix: (Units=1/GPa)
#
#
# Indices 1 2 3 4 5 6 
#
# 1 0.014612 -0.001066 -0.003557 0.000000 0.000000 0.000000
# 2 -0.001066 0.014612 -0.003557 0.000000 0.000000 0.000000
# 3 -0.003557 -0.003557 0.009428 0.000000 0.000000 0.000000
# 4 0.000000 0.000000 0.000000 -0.010423 0.000000 0.000000
# 5 0.000000 0.000000 0.000000 0.000000 -0.010427 0.000000
# 6 0.000000 0.000000 0.000000 0.000000 0.000000 0.031492
#
#
# Mechanical properties :
#
#
# Convention : Reuss Voigt Hill
#
# Bulk Modulus (GPa) = 44.85654 50.58989 47.72321
# Shear Modulus (GPa) = 68.41735 -18.38256 25.01740
#
# Velocity S-wave (km/s) = 5.81743 -3.01544 3.51778
# Velocity P-wave (km/s) = 8.20436 3.59170 6.33292
#
# Compressibility (1/GPa) = 0.02229329
#
# Stress axis : x y z
#
# Youngs Moduli (GPa) = 68.43904 68.43898 106.06939
#
# Poissons Ratio (x) = 0.07293 0.37725
# Poissons Ratio (y) = 0.07293 0.37725
# Poissons Ratio (z) = 0.24341 0.24341
#
# Static dielectric constant tensor:
#      x y z
#    x 4.160030 0.000000 0.000000 
#    y 0.000000 4.159330 0.000000 
#    z 0.000000 0.000000 2.457270 
# 
# From -- ./inp_files/21575.got.cif
#   From: 2010.05.17/outbox.cif.g08.bks.cpg/sg91_11_cif.got.tgz:21575.got - 2010.06.03 19:20:03.
