data_PCOD9548922
_publ_section_title
;
Structure prediction by ZEFSAII (Michael W. Deem and Ramdas Pophale) SiO2 
 PCOD9548922
Probable space group: P 41 21 2
;
_chemical_formula_sum "Si O2"
_cell_formula_units_Z 64
_cell_length_a 18.700307
_cell_length_b 18.700307
_cell_length_c 10.678184
_cell_angle_alpha 90.000000
_cell_angle_beta 90.000000
_cell_angle_gamma 90.000000
_cell_volume 3734.176769
_symmetry_space_group_name_H-M "P 41 21 2"
_symmetry_group_IT_number 92
_symmetry_cell_setting 'tetragonal'
loop_
_space_group_symop_operation_xyz
x,y,z
1/2-y,1/2+x,1/4+z
-x,-y,1/2+z
1/2+y,1/2-x,3/4+z
1/2+x,1/2-y,3/4-z
1/2-x,1/2+y,1/4-z
y,x,-z
-y,-x,1/2-z
loop_
_atom_site_type_symbol
_atom_site_label
_atom_site_fract_x
_atom_site_fract_y
_atom_site_fract_z
Si Si1 0.286753 0.460824 0.866724
Si Si2 0.786692 0.205268 0.887708
Si Si3 0.960465 0.542445 0.893712
Si Si4 0.543322 0.790898 0.110477
Si Si5 0.285536 0.209007 0.615267
Si Si6 0.460408 0.295605 0.855264
Si Si7 0.212913 0.539948 0.639683
Si Si8 0.961058 0.040646 0.609400
O O1 0.264574 0.377672 0.849015
O O2 0.252577 0.508364 0.759602
O O3 0.373029 0.463247 0.858410
O O4 0.268211 0.484589 0.008436
O O5 0.766148 0.233853 0.750000
O O6 0.873582 0.205178 0.887006
O O7 0.763913 0.252278 0.005425
O O8 0.875682 0.530382 0.875332
O O9 0.970960 0.627646 0.906319
O O10 0.002865 0.517595 0.770946
O O11 0.628856 0.779772 0.096723
O O12 0.518672 0.750515 0.235579
O O13 0.502255 0.765853 0.986350
O O14 0.243608 0.243608 0.500000
O O15 0.273462 0.124265 0.623442
O O16 0.481244 0.378362 0.839917
O O17 0.982619 0.017382 0.750000
O O18 0.008635 0.008635 0.500000
#
# Coordination Sequence:
#
# PCOD9548922 Si02
#       8
#     8   8   8   8   8   8   8   8
#     4   9  17  31  50  71  95 124 160 197 235 279
#     4   8  15  31  54  73  89 117 161 206 237 270
#     4   9  19  34  50  71  97 123 156 198 240 284
#     4   9  18  34  53  71  94 124 159 199 238 279
#     4  10  19  32  50  72  98 126 158 195 236 283
#     4   8  16  31  51  73  92 118 161 202 233 272
#     4  10  20  32  47  71 101 128 155 192 238 286
#     4   9  18  31  47  70  98 126 159 197 232 273
#
# _framework density 17.138985999999999
#
# number of rings (size 3 to 8) (size 9 to 14) (size 15 to 20)
#    0.000    3.000    0.000    2.250    0.000    2.500 
#    0.000    5.000    0.000    0.000    0.000    0.000 
#    0.000    0.000    0.000    0.000    0.000    0.000 
#
# Total GULP energy -356647.308660 kJ/mol
# GULP energy per Si atom -5572.614198 kJ/mol
# Density = 1.709998 g / cm^3
# Si number density = 17.138986 Si / 1000 Ang^3
#
#
#
# Elastic Constant Matrix: (Units=GPa)
#
#
# Indices 1 2 3 4 5 6 
#
# 1 33.2850 28.7777 54.2575 0.0000 0.0000 0.0000
# 2 28.7777 33.2850 54.2575 0.0000 0.0000 0.0000
# 3 54.2575 54.2575 172.6661 0.0000 0.0000 0.0000
# 4 0.0000 0.0000 0.0000 27.4875 0.0000 0.0000
# 5 0.0000 0.0000 0.0000 0.0000 27.4874 0.0000
# 6 0.0000 0.0000 0.0000 0.0000 0.0000 18.2532
#
#
#
# Elastic Compliance Matrix: (Units=1/GPa)
#
#
# Indices 1 2 3 4 5 6 
#
# 1 0.128810 -0.093049 -0.011237 0.000000 0.000000 0.000000
# 2 -0.093049 0.128810 -0.011237 0.000000 0.000000 0.000000
# 3 -0.011237 -0.011237 0.012854 0.000000 0.000000 0.000000
# 4 0.000000 0.000000 0.000000 0.036380 0.000000 0.000000
# 5 0.000000 0.000000 0.000000 0.000000 0.036380 0.000000
# 6 0.000000 0.000000 0.000000 0.000000 0.000000 0.054785
#
#
# Mechanical properties :
#
#
# Convention : Reuss Voigt Hill
#
# Bulk Modulus (GPa) = 25.36381 57.09127 41.22754
# Shear Modulus (GPa) = 7.78564 21.44185 14.61375
#
# Velocity S-wave (km/s) = 2.13366 3.54087 2.92320
# Velocity P-wave (km/s) = 4.57177 7.07814 5.95823
#
# Compressibility (1/GPa) = 0.03942626
#
# Stress axis : x y z
#
# Youngs Moduli (GPa) = 7.76338 7.76338 77.79848
#
# Poissons Ratio (x) = 0.72238 0.87424
# Poissons Ratio (y) = 0.72238 0.87423
# Poissons Ratio (z) = 0.08724 0.08724
#
# Static dielectric constant tensor:
#      x y z
#    x 1.567160 0.000000 0.000000 
#    y 0.000000 1.567160 0.000000 
#    z 0.000000 0.000000 1.577660 
# 
# From -- ./inp_files/1725.got.cif
#   From: 2010.05.17/outbox.cif.g08.bks.cpg/sg92_1_cif.got.tgz:1725.got - 2010.06.03 19:35:17.
