data_PCOD9548515
_publ_section_title
;
Structure prediction by ZEFSAII (Michael W. Deem and Ramdas Pophale) SiO2 
 PCOD9548515
Probable space group: P 41 2 2
;
_chemical_formula_sum "Si O2"
_cell_formula_units_Z 24
_cell_length_a 11.964436
_cell_length_b 11.964436
_cell_length_c 7.263238
_cell_angle_alpha 90.000000
_cell_angle_beta 90.000000
_cell_angle_gamma 90.000000
_cell_volume 1039.716023
_symmetry_space_group_name_H-M "P 41 2 2"
_symmetry_group_IT_number 91
_symmetry_cell_setting 'tetragonal'
loop_
_space_group_symop_operation_xyz
x,y,z
-y,x,1/4+z
-x,-y,1/2+z
y,-x,3/4+z
x,-y,1/2-z
-x,y,-z
y,x,3/4-z
-y,-x,1/4-z
loop_
_atom_site_type_symbol
_atom_site_label
_atom_site_fract_x
_atom_site_fract_y
_atom_site_fract_z
Si Si1 0.242718 0.718541 0.414424
Si Si2 0.727132 0.000000 0.250000
Si Si3 0.659054 0.500000 0.750000
Si Si4 0.602611 0.903826 0.605991
O O1 0.284632 0.715369 0.625000
O O2 0.119319 0.773243 0.430615
O O3 0.260121 0.592935 0.343489
O O4 0.320427 0.807740 0.309331
O O5 0.663868 0.962742 0.435003
O O6 0.575132 0.575132 0.875000
O O7 0.500000 0.848115 0.500000
O O8 0.571298 0.000000 0.750000
#
# Coordination Sequence:
#
# PCOD9548515 Si02
#       4
#     8   4   4   8
#     4  10  26  46  68  99 141 181 232 292 350 418
#     4  10  24  44  68  94 136 182 234 288 344 410
#     4  12  28  40  64 102 146 182 228 282 360 422
#     4  11  24  41  72 102 137 182 237 287 348 419
#
# _framework density 23.083227000000001
#
# number of rings (size 3 to 8) (size 9 to 14) (size 15 to 20)
#    0.000    1.333    1.667    1.000   18.667    0.000 
#    0.000    0.000   33.000    0.000    0.000    0.000 
#    0.000    0.000    0.000    0.000    0.000    0.000 
#
# Total GULP energy -133757.529808 kJ/mol
# GULP energy per Si atom -5573.230409 kJ/mol
# Density = 2.303069 g / cm^3
# Si number density = 23.083227 Si / 1000 Ang^3
#
#
#
# Elastic Constant Matrix: (Units=GPa)
#
#
# Indices 1 2 3 4 5 6 
#
# 1 135.9900 51.9950 13.3254 0.0000 0.0000 0.0000
# 2 51.9950 135.9896 13.3252 0.0000 0.0000 0.0000
# 3 13.3254 13.3252 50.1833 0.0000 0.0000 0.0000
# 4 0.0000 0.0000 0.0000 33.5310 0.0000 0.0000
# 5 0.0000 0.0000 0.0000 0.0000 33.5309 0.0000
# 6 0.0000 0.0000 0.0000 0.0000 0.0000 29.5723
#
#
#
# Elastic Compliance Matrix: (Units=1/GPa)
#
#
# Indices 1 2 3 4 5 6 
#
# 1 0.008717 -0.003189 -0.001468 0.000000 0.000000 0.000000
# 2 -0.003189 0.008717 -0.001468 0.000000 0.000000 0.000000
# 3 -0.001468 -0.001468 0.020706 0.000000 0.000000 0.000000
# 4 0.000000 0.000000 0.000000 0.029823 0.000000 0.000000
# 5 0.000000 0.000000 0.000000 0.000000 0.029823 0.000000
# 6 0.000000 0.000000 0.000000 0.000000 0.000000 0.033815
#
#
# Mechanical properties :
#
#
# Convention : Reuss Voigt Hill
#
# Bulk Modulus (GPa) = 38.62396 53.27269 45.94832
# Shear Modulus (GPa) = 32.79106 35.56132 34.17619
#
# Velocity S-wave (km/s) = 3.77312 3.92927 3.85198
# Velocity P-wave (km/s) = 5.97919 6.61167 6.30337
#
# Compressibility (1/GPa) = 0.02589067
#
# Stress axis : x y z
#
# Youngs Moduli (GPa) = 114.72398 114.72376 48.29417
#
# Poissons Ratio (x) = 0.36584 0.07089
# Poissons Ratio (y) = 0.36585 0.07088
# Poissons Ratio (z) = 0.16839 0.16839
#
# Static dielectric constant tensor:
#      x y z
#    x 1.952210 0.000000 0.000000 
#    y 0.000000 1.952210 0.000000 
#    z 0.000000 0.000000 1.895740 
# 
# From -- ./inp_files/1891.got.cif
#   From: 2010.05.17/outbox.cif.g08.bks.cpg/sg91_1_cif.got.tgz:1891.got - 2010.06.03 19:20:03.
