data_PCOD9548012
_publ_section_title
;
Structure prediction by ZEFSAII (Michael W. Deem and Ramdas Pophale) SiO2 
 PCOD9548012
Probable space group: P 41 2 2
;
_chemical_formula_sum "Si O2"
_cell_formula_units_Z 60
_cell_length_a 13.870359
_cell_length_b 13.870359
_cell_length_c 15.966651
_cell_angle_alpha 90.000000
_cell_angle_beta 90.000000
_cell_angle_gamma 90.000000
_cell_volume 3071.773831
_symmetry_space_group_name_H-M "P 41 2 2"
_symmetry_group_IT_number 91
_symmetry_cell_setting 'tetragonal'
loop_
_space_group_symop_operation_xyz
x,y,z
-y,x,1/4+z
-x,-y,1/2+z
y,-x,3/4+z
x,-y,1/2-z
-x,y,-z
y,x,3/4-z
-y,-x,1/4-z
loop_
_atom_site_type_symbol
_atom_site_label
_atom_site_fract_x
_atom_site_fract_y
_atom_site_fract_z
Si Si1 0.295299 0.552240 0.161209
Si Si2 0.266902 0.795473 0.535442
Si Si3 0.306387 0.158227 0.503983
Si Si4 0.889238 0.089044 0.306336
Si Si5 0.589114 0.964687 0.439455
Si Si6 0.895561 0.895932 0.001529
Si Si7 0.783826 0.631737 0.567784
Si Si8 0.000000 0.597535 0.500000
O O1 0.322770 0.500000 0.250000
O O2 0.381568 0.618433 0.125000
O O3 0.206590 0.620869 0.188964
O O4 0.254132 0.474349 0.093936
O O5 0.218052 0.781949 0.625000
O O6 0.188648 0.847276 0.476397
O O7 0.357203 0.864036 0.547885
O O8 0.284338 0.691320 0.494377
O O9 0.197488 0.160537 0.471908
O O10 0.315541 0.213705 0.592216
O O11 0.339878 0.050680 0.530271
O O12 0.869579 0.074340 0.403344
O O13 0.004275 0.092780 0.296903
O O14 0.852705 0.000000 0.250000
O O15 0.500000 0.971805 0.500000
O O16 0.556673 0.976623 0.342667
O O17 0.000000 0.845723 0.000000
O O18 0.891907 0.638747 0.525932
#
# Coordination Sequence:
#
# PCOD9548012 Si02
#       8
#     8   8   8   8   8   8   8   4
#     4  10  23  47  74  94 119 167 226 280 337 409
#     4  12  22  37  63  98 128 168 213 272 345 397
#     4  10  20  40  64  90 124 177 222 265 314 398
#     4  11  22  34  52  86 128 180 221 250 306 388
#     4  11  23  41  64  95 136 176 228 283 334 396
#     4  11  21  35  54  87 134 178 218 258 303 378
#     4  10  21  39  64  95 126 164 225 268 323 406
#     4  10  20  40  68  96 130 176 216 262 336 410
#
# _framework density 19.532686999999999
#
# number of rings (size 3 to 8) (size 9 to 14) (size 15 to 20)
#    0.000    1.333    4.000    4.400    0.933    1.067 
#    4.800    1.333    2.933    0.000    0.000    0.000 
#    0.000    0.000    0.000    0.000    0.000    0.000 
#
# Total GULP energy -334439.294475 kJ/mol
# GULP energy per Si atom -5573.988241 kJ/mol
# Density = 1.948823 g / cm^3
# Si number density = 19.532687 Si / 1000 Ang^3
#
#
#
# Elastic Constant Matrix: (Units=GPa)
#
#
# Indices 1 2 3 4 5 6 
#
# 1 117.2786 6.4064 40.0395 0.0000 0.0000 0.0000
# 2 6.4064 117.2782 40.0383 0.0000 0.0000 0.0000
# 3 40.0395 40.0383 116.5211 0.0000 0.0000 0.0000
# 4 0.0000 0.0000 0.0000 19.1122 0.0000 0.0000
# 5 0.0000 0.0000 0.0000 0.0000 19.1116 0.0000
# 6 0.0000 0.0000 0.0000 0.0000 0.0000 15.1091
#
#
#
# Elastic Compliance Matrix: (Units=1/GPa)
#
#
# Indices 1 2 3 4 5 6 
#
# 1 0.009709 0.000690 -0.003573 0.000000 0.000000 0.000000
# 2 0.000690 0.009709 -0.003573 0.000000 0.000000 0.000000
# 3 -0.003573 -0.003573 0.011038 0.000000 0.000000 0.000000
# 4 0.000000 0.000000 0.000000 0.052323 0.000000 0.000000
# 5 0.000000 0.000000 0.000000 0.000000 0.052324 0.000000
# 6 0.000000 0.000000 0.000000 0.000000 0.000000 0.066185
#
#
# Mechanical properties :
#
#
# Convention : Reuss Voigt Hill
#
# Bulk Modulus (GPa) = 57.00557 58.22738 57.61648
# Shear Modulus (GPa) = 22.72227 28.30616 25.51421
#
# Velocity S-wave (km/s) = 3.41441 3.81092 3.61810
# Velocity P-wave (km/s) = 6.69271 7.01706 6.85680
#
# Compressibility (1/GPa) = 0.01754215
#
# Stress axis : x y z
#
# Youngs Moduli (GPa) = 102.99791 102.99840 90.59852
#
# Poissons Ratio (x) = -0.07102 0.32372
# Poissons Ratio (y) = -0.07102 0.32371
# Poissons Ratio (z) = 0.36803 0.36802
#
# Static dielectric constant tensor:
#      x y z
#    x 1.725800 0.000000 0.000000 
#    y 0.000000 1.725800 0.000000 
#    z 0.000000 0.000000 1.684100 
# 
# From -- ./inp_files/11584.got.cif
#   From: 2010.05.17/outbox.cif.g08.bks.cpg/sg91_6_cif.got.tgz:11584.got - 2010.06.03 19:20:03.
