data_PCOD9548466
_publ_section_title
;
Structure prediction by ZEFSAII (Michael W. Deem and Ramdas Pophale) SiO2 
 PCOD9548466
Probable space group: P 41 2 2
;
_chemical_formula_sum "Si O2"
_cell_formula_units_Z 32
_cell_length_a 7.902415
_cell_length_b 7.902415
_cell_length_c 23.760503
_cell_angle_alpha 90.000000
_cell_angle_beta 90.000000
_cell_angle_gamma 90.000000
_cell_volume 1483.799760
_symmetry_space_group_name_H-M "P 41 2 2"
_symmetry_group_IT_number 91
_symmetry_cell_setting 'tetragonal'
loop_
_space_group_symop_operation_xyz
x,y,z
-y,x,1/4+z
-x,-y,1/2+z
y,-x,3/4+z
x,-y,1/2-z
-x,y,-z
y,x,3/4-z
-y,-x,1/4-z
loop_
_atom_site_type_symbol
_atom_site_label
_atom_site_fract_x
_atom_site_fract_y
_atom_site_fract_z
Si Si1 0.795054 0.795054 0.875000
Si Si2 0.492647 0.687238 0.670862
Si Si3 0.200420 0.168369 0.104269
Si Si4 0.179000 0.502284 0.032750
Si Si5 0.829490 0.829490 0.375000
O O1 0.635183 0.803122 0.833593
O O2 0.970191 0.797108 0.838898
O O3 0.461471 0.538530 0.625000
O O4 0.635399 0.798411 0.641420
O O5 0.536928 0.677807 0.735830
O O6 0.308485 0.779119 0.671485
O O7 0.195454 0.311611 0.056552
O O8 0.025603 0.195357 0.138720
O O9 0.000000 0.524308 0.000000
#
# Coordination Sequence:
#
# PCOD9548466 Si02
#       5
#     4   8   8   8   4
#     4  11  26  43  72 112 138 185 252 291 374 444
#     4  10  23  45  66  98 139 181 234 286 354 426
#     4  11  22  41  71 102 139 185 235 287 367 429
#     4  12  23  46  72 100 149 185 235 315 353 433
#     4   9  20  39  64  98 138 177 226 287 346 422
#
# _framework density 21.56625
#
# number of rings (size 3 to 8) (size 9 to 14) (size 15 to 20)
#    0.750    0.500    5.000    0.000    1.750    4.000 
#    0.000    0.000    5.500    0.000    0.000    0.000 
#    0.000    0.000    0.000    0.000    0.000    0.000 
#
# Total GULP energy -178189.790424 kJ/mol
# GULP energy per Si atom -5568.430951 kJ/mol
# Density = 2.151716 g / cm^3
# Si number density = 21.566250 Si / 1000 Ang^3
#
#
#
# Elastic Constant Matrix: (Units=GPa)
#
#
# Indices 1 2 3 4 5 6 
#
# 1 85.6445 42.7126 49.4594 0.0000 0.0000 0.0000
# 2 42.7126 85.6480 49.4606 0.0000 0.0000 0.0000
# 3 49.4594 49.4606 114.8466 0.0000 0.0000 0.0000
# 4 0.0000 0.0000 0.0000 64.6824 0.0000 0.0000
# 5 0.0000 0.0000 0.0000 0.0000 64.6769 0.0000
# 6 0.0000 0.0000 0.0000 0.0000 0.0000 26.0355
#
#
#
# Elastic Compliance Matrix: (Units=1/GPa)
#
#
# Indices 1 2 3 4 5 6 
#
# 1 0.017477 -0.005815 -0.005022 0.000000 0.000000 0.000000
# 2 -0.005815 0.017476 -0.005022 0.000000 0.000000 0.000000
# 3 -0.005022 -0.005022 0.013033 0.000000 0.000000 0.000000
# 4 0.000000 0.000000 0.000000 0.015460 0.000000 0.000000
# 5 0.000000 0.000000 0.000000 0.000000 0.015461 0.000000
# 6 0.000000 0.000000 0.000000 0.000000 0.000000 0.038409
#
#
# Mechanical properties :
#
#
# Convention : Reuss Voigt Hill
#
# Bulk Modulus (GPa) = 61.47474 63.26713 62.37093
# Shear Modulus (GPa) = 32.37159 40.71273 36.54216
#
# Velocity S-wave (km/s) = 3.87852 4.34959 4.12079
# Velocity P-wave (km/s) = 6.97310 7.39088 7.18503
#
# Compressibility (1/GPa) = 0.01626684
#
# Stress axis : x y z
#
# Youngs Moduli (GPa) = 57.21949 57.22168 76.73024
#
# Poissons Ratio (x) = 0.33277 0.38533
# Poissons Ratio (y) = 0.33276 0.38532
# Poissons Ratio (z) = 0.28735 0.28736
#
# Static dielectric constant tensor:
#      x y z
#    x 1.837040 0.000000 0.000000 
#    y 0.000000 1.837040 0.000000 
#    z 0.000000 0.000000 1.746320 
# 
# From -- ./inp_files/6674.got.cif
#   From: 2010.05.17/outbox.cif.g08.bks.cpg/sg91_4_cif.got.tgz:6674.got - 2010.06.03 19:20:03.
