data_PCOD9548205
_publ_section_title
;
Structure prediction by ZEFSAII (Michael W. Deem and Ramdas Pophale) SiO2 
 PCOD9548205
Probable space group: P 41 2 2
;
_chemical_formula_sum "Si O2"
_cell_formula_units_Z 40
_cell_length_a 11.302236
_cell_length_b 11.302236
_cell_length_c 11.654165
_cell_angle_alpha 90.000000
_cell_angle_beta 90.000000
_cell_angle_gamma 90.000000
_cell_volume 1488.709314
_symmetry_space_group_name_H-M "P 41 2 2"
_symmetry_group_IT_number 91
_symmetry_cell_setting 'tetragonal'
loop_
_space_group_symop_operation_xyz
x,y,z
-y,x,1/4+z
-x,-y,1/2+z
y,-x,3/4+z
x,-y,1/2-z
-x,y,-z
y,x,3/4-z
-y,-x,1/4-z
loop_
_atom_site_type_symbol
_atom_site_label
_atom_site_fract_x
_atom_site_fract_y
_atom_site_fract_z
Si Si1 0.956531 0.664395 0.184103
Si Si2 0.640950 0.769036 0.981414
Si Si3 0.861059 0.437723 0.073439
Si Si4 0.546626 0.364287 0.877309
Si Si5 0.130941 0.807025 0.496184
O O1 0.921318 0.567023 0.088219
O O2 0.903595 0.615342 0.304488
O O3 0.884691 0.785962 0.165139
O O4 0.096123 0.683466 0.207005
O O5 0.692953 0.692953 0.875000
O O6 0.500000 0.784868 0.000000
O O7 0.663936 0.676675 0.085923
O O8 0.722210 0.463985 0.052482
O O9 0.883497 0.335076 0.979320
O O10 0.322327 0.500000 0.750000
O O11 0.499710 0.499710 0.875000
O O12 0.181309 0.818692 0.625000
O O13 0.000000 0.857644 0.500000
#
# Coordination Sequence:
#
# PCOD9548205 Si02
#       5
#     8   8   8   8   8
#     4  10  21  46  67 102 154 195 256 325 388 486
#     4  12  26  47  73 110 159 208 249 331 422 493
#     4  10  21  42  70 100 143 197 244 321 390 442
#     4  12  24  43  74 111 149 192 259 322 387 479
#     4  10  23  42  70 108 141 200 253 319 383 468
#
# _framework density 26.868914
#
# number of rings (size 3 to 8) (size 9 to 14) (size 15 to 20)
#    0.000    1.200    4.000    4.200    0.000    5.600 
#    0.000    0.000    0.000    1.200    0.000    0.000 
#    0.000    0.000    0.000    0.000    0.000    0.000 
#
# Total GULP energy -223073.523087 kJ/mol
# GULP energy per Si atom -5576.838077 kJ/mol
# Density = 2.680776 g / cm^3
# Si number density = 26.868914 Si / 1000 Ang^3
#
#
#
# Elastic Constant Matrix: (Units=GPa)
#
#
# Indices 1 2 3 4 5 6 
#
# 1 230.1005 86.7873 41.5960 0.0000 0.0000 0.0000
# 2 86.7873 230.1006 41.5961 0.0000 0.0000 0.0000
# 3 41.5960 41.5961 86.7091 0.0000 0.0000 0.0000
# 4 0.0000 0.0000 0.0000 17.5956 0.0000 0.0000
# 5 0.0000 0.0000 0.0000 0.0000 17.5954 0.0000
# 6 0.0000 0.0000 0.0000 0.0000 0.0000 21.8878
#
#
#
# Elastic Compliance Matrix: (Units=1/GPa)
#
#
# Indices 1 2 3 4 5 6 
#
# 1 0.005294 -0.001684 -0.001732 0.000000 0.000000 0.000000
# 2 -0.001684 0.005294 -0.001732 0.000000 0.000000 0.000000
# 3 -0.001732 -0.001732 0.013195 0.000000 0.000000 0.000000
# 4 0.000000 0.000000 0.000000 0.056832 0.000000 0.000000
# 5 0.000000 0.000000 0.000000 0.000000 0.056833 0.000000
# 6 0.000000 0.000000 0.000000 0.000000 0.000000 0.045688
#
#
# Mechanical properties :
#
#
# Convention : Reuss Voigt Hill
#
# Bulk Modulus (GPa) = 74.14315 98.54098 86.34207
# Shear Modulus (GPa) = 25.26186 36.54447 30.90317
#
# Velocity S-wave (km/s) = 3.06958 3.69196 3.39506
# Velocity P-wave (km/s) = 6.34172 7.41137 6.89731
#
# Compressibility (1/GPa) = 0.01348742
#
# Stress axis : x y z
#
# Youngs Moduli (GPa) = 188.89129 188.89127 75.78893
#
# Poissons Ratio (x) = 0.31803 0.13126
# Poissons Ratio (y) = 0.31803 0.13126
# Poissons Ratio (z) = 0.32715 0.32715
#
# Static dielectric constant tensor:
#      x y z
#    x 2.149070 0.000000 0.000000 
#    y 0.000000 2.149070 0.000000 
#    z 0.000000 0.000000 2.265530 
# 
# From -- ./inp_files/20661.got.cif
#   From: 2010.05.17/outbox.cif.g08.bks.cpg/sg91_11_cif.got.tgz:20661.got - 2010.06.03 19:20:03.
