data_PCOD9548809
_publ_section_title
;
Structure prediction by ZEFSAII (Michael W. Deem and Ramdas Pophale) SiO2 
 PCOD9548809
Probable space group: P 41 2 2
;
_chemical_formula_sum "Si O2"
_cell_formula_units_Z 36
_cell_length_a 11.605928
_cell_length_b 11.605928
_cell_length_c 11.730422
_cell_angle_alpha 90.000000
_cell_angle_beta 90.000000
_cell_angle_gamma 90.000000
_cell_volume 1580.059277
_symmetry_space_group_name_H-M "P 41 2 2"
_symmetry_group_IT_number 91
_symmetry_cell_setting 'tetragonal'
loop_
_space_group_symop_operation_xyz
x,y,z
-y,x,1/4+z
-x,-y,1/2+z
y,-x,3/4+z
x,-y,1/2-z
-x,y,-z
y,x,3/4-z
-y,-x,1/4-z
loop_
_atom_site_type_symbol
_atom_site_label
_atom_site_fract_x
_atom_site_fract_y
_atom_site_fract_z
Si Si1 0.113318 0.167020 0.576558
Si Si2 0.087639 0.500000 0.250000
Si Si3 0.569910 0.246867 0.117826
Si Si4 0.767183 0.623155 0.942695
Si Si5 0.956129 0.278728 0.181631
O O1 0.187387 0.258016 0.500617
O O2 0.184049 0.050635 0.606395
O O3 0.000000 0.139766 0.500000
O O4 0.080101 0.232789 0.692856
O O5 0.152479 0.427618 0.345339
O O6 0.018747 0.400959 0.187467
O O7 0.629102 0.370899 0.125000
O O8 0.473763 0.238230 0.213206
O O9 0.675722 0.156437 0.134546
O O10 0.500000 0.228085 0.000000
O O11 0.650786 0.650786 0.875000
#
# Coordination Sequence:
#
# PCOD9548809 Si02
#       5
#     8   4   8   8   8
#     4  12  23  48  78 115 156 204 262 318 389 481
#     4  12  24  46  78 110 146 206 254 312 386 458
#     4  12  30  52  74 112 157 201 258 325 395 462
#     4  12  26  48  82 112 149 207 269 315 385 474
#     4  12  26  47  78 112 156 200 254 326 394 462
#
# _framework density 22.783954999999999
#
# number of rings (size 3 to 8) (size 9 to 14) (size 15 to 20)
#    0.000    0.000    7.778    0.667    6.222    2.667 
#    0.000    0.000    0.000    0.000    0.000    0.000 
#    0.000    0.000    0.000    0.000    0.000    0.000 
#
# Total GULP energy -201215.998405 kJ/mol
# GULP energy per Si atom -5589.333289 kJ/mol
# Density = 2.273210 g / cm^3
# Si number density = 22.783955 Si / 1000 Ang^3
#
#
#
# Elastic Constant Matrix: (Units=GPa)
#
#
# Indices 1 2 3 4 5 6 
#
# 1 -106.5133 282.1881 18.5521 0.0000 0.0000 0.0000
# 2 282.1881 -106.5336 18.5551 0.0000 0.0000 0.0000
# 3 18.5521 18.5551 51.9579 0.0000 0.0000 0.0000
# 4 0.0000 0.0000 0.0000 24.7240 0.0000 0.0000
# 5 0.0000 0.0000 0.0000 0.0000 24.7277 0.0000
# 6 0.0000 0.0000 0.0000 0.0000 0.0000 57.1224
#
#
#
# Elastic Compliance Matrix: (Units=1/GPa)
#
#
# Indices 1 2 3 4 5 6 
#
# 1 0.001792 0.004365 -0.002199 0.000000 0.000000 0.000000
# 2 0.004365 0.001792 -0.002198 0.000000 0.000000 0.000000
# 3 -0.002199 -0.002198 0.020817 0.000000 0.000000 0.000000
# 4 0.000000 0.000000 0.000000 0.040446 0.000000 0.000000
# 5 0.000000 0.000000 0.000000 0.000000 0.040441 0.000000
# 6 0.000000 0.000000 0.000000 0.000000 0.000000 0.017506
#
#
# Mechanical properties :
#
#
# Convention : Reuss Voigt Hill
#
# Bulk Modulus (GPa) = 41.09099 53.05572 47.07336
# Shear Modulus (GPa) = 38.17633 -10.71081 13.73276
#
# Velocity S-wave (km/s) = 4.09782 -2.17054 2.45774
# Velocity P-wave (km/s) = 6.36111 4.12981 5.36279
#
# Compressibility (1/GPa) = 0.02433624
#
# Stress axis : x y z
#
# Youngs Moduli (GPa) = 557.90237 558.01325 48.03867
#
# Poissons Ratio (x) = -2.43565 0.10563
# Poissons Ratio (y) = -2.43516 0.10561
# Poissons Ratio (z) = 1.22670 1.22679
#
# Static dielectric constant tensor:
#      x y z
#    x 1.805670 0.000000 0.000000 
#    y 0.000000 1.805660 0.000000 
#    z 0.000000 0.000000 1.936390 
# 
# From -- ./inp_files/3521.got.cif
#   From: 2010.05.17/outbox.cif.g08.bks.cpg/sg91_2_cif.got.tgz:3521.got - 2010.06.03 19:20:03.
