data_PCOD9548359
_publ_section_title
;
Structure prediction by ZEFSAII (Michael W. Deem and Ramdas Pophale) SiO2 
 PCOD9548359
Probable space group: P 41 2 2
;
_chemical_formula_sum "Si O2"
_cell_formula_units_Z 40
_cell_length_a 18.735224
_cell_length_b 18.735224
_cell_length_c 5.132538
_cell_angle_alpha 90.000000
_cell_angle_beta 90.000000
_cell_angle_gamma 90.000000
_cell_volume 1801.565072
_symmetry_space_group_name_H-M "P 41 2 2"
_symmetry_group_IT_number 91
_symmetry_cell_setting 'tetragonal'
loop_
_space_group_symop_operation_xyz
x,y,z
-y,x,1/4+z
-x,-y,1/2+z
y,-x,3/4+z
x,-y,1/2-z
-x,y,-z
y,x,3/4-z
-y,-x,1/4-z
loop_
_atom_site_type_symbol
_atom_site_label
_atom_site_fract_x
_atom_site_fract_y
_atom_site_fract_z
Si Si1 0.000000 0.454373 0.000000
Si Si2 0.872347 0.353560 0.005845
Si Si3 0.799098 0.200903 0.625000
Si Si4 0.217228 0.348762 0.522797
Si Si5 0.083280 0.195573 0.003179
Si Si6 0.546653 0.653416 0.761204
O O1 0.978880 0.500000 0.250000
O O2 0.935216 0.404250 0.917181
O O3 0.833152 0.382838 0.260759
O O4 0.905791 0.276916 0.091960
O O5 0.816941 0.350554 0.765423
O O6 0.736536 0.218709 0.830929
O O7 0.794224 0.119203 0.536774
O O8 0.292150 0.388434 0.541070
O O9 0.135219 0.135219 0.875000
O O10 0.000000 0.176197 0.000000
O O11 0.500000 0.643649 0.500000
O O12 0.581267 0.581267 0.875000
O O13 0.500000 0.684164 0.000000
#
# Coordination Sequence:
#
# PCOD9548359 Si02
#       6
#     4   8   4   8   8   8
#     4  12  26  44  66 102 146 192 238 290 364 438
#     4  11  24  43  70 101 142 191 233 302 362 442
#     4  10  22  42  70 104 134 192 236 304 352 438
#     4  11  23  43  74 100 139 177 247 292 359 415
#     4  11  23  44  69 103 141 189 247 296 368 429
#     4  12  27  47  72 107 143 188 236 300 363 435
#
# _framework density 22.202915000000001
#
# number of rings (size 3 to 8) (size 9 to 14) (size 15 to 20)
#    0.000    0.800    4.000    3.000    0.000    6.400 
#    1.800    0.000    0.000    0.000    0.000    0.000 
#    0.000    0.000    0.000    0.000    0.000    0.000 
#
# Total GULP energy -223198.774706 kJ/mol
# GULP energy per Si atom -5579.969368 kJ/mol
# Density = 2.215238 g / cm^3
# Si number density = 22.202915 Si / 1000 Ang^3
#
#
#
# Elastic Constant Matrix: (Units=GPa)
#
#
# Indices 1 2 3 4 5 6 
#
# 1 119.4389 56.0860 37.8015 0.0000 0.0000 0.0000
# 2 56.0860 119.4377 37.8016 0.0000 0.0000 0.0000
# 3 37.8015 37.8016 99.3174 0.0000 0.0000 0.0000
# 4 0.0000 0.0000 0.0000 30.4821 0.0000 0.0000
# 5 0.0000 0.0000 0.0000 0.0000 30.4824 0.0000
# 6 0.0000 0.0000 0.0000 0.0000 0.0000 21.0017
#
#
#
# Elastic Compliance Matrix: (Units=1/GPa)
#
#
# Indices 1 2 3 4 5 6 
#
# 1 0.011299 -0.004485 -0.002594 0.000000 0.000000 0.000000
# 2 -0.004485 0.011300 -0.002594 0.000000 0.000000 0.000000
# 3 -0.002594 -0.002594 0.012043 0.000000 0.000000 0.000000
# 4 0.000000 0.000000 0.000000 0.032806 0.000000 0.000000
# 5 0.000000 0.000000 0.000000 0.000000 0.032806 0.000000
# 6 0.000000 0.000000 0.000000 0.000000 0.000000 0.047615
#
#
# Mechanical properties :
#
#
# Convention : Reuss Voigt Hill
#
# Bulk Modulus (GPa) = 65.37122 66.84136 66.10629
# Shear Modulus (GPa) = 29.01690 30.16023 29.58857
#
# Velocity S-wave (km/s) = 3.61902 3.68963 3.65450
# Velocity P-wave (km/s) = 6.85344 6.95135 6.90257
#
# Compressibility (1/GPa) = 0.01529725
#
# Stress axis : x y z
#
# Youngs Moduli (GPa) = 88.49959 88.49856 83.03527
#
# Poissons Ratio (x) = 0.39693 0.21536
# Poissons Ratio (y) = 0.39694 0.21537
# Poissons Ratio (z) = 0.22953 0.22954
#
# Static dielectric constant tensor:
#      x y z
#    x 1.832480 0.000000 0.000000 
#    y 0.000000 1.832490 0.000000 
#    z 0.000000 0.000000 1.884590 
# 
# From -- ./inp_files/14086.got.cif
#   From: 2010.05.17/outbox.cif.g08.bks.cpg/sg91_8_cif.got.tgz:14086.got - 2010.06.03 19:20:03.
