data_PCOD9548006
_publ_section_title
;
Structure prediction by ZEFSAII (Michael W. Deem and Ramdas Pophale) SiO2 
 PCOD9548006
Probable space group: P 41 2 2
;
_chemical_formula_sum "Si O2"
_cell_formula_units_Z 48
_cell_length_a 20.371842
_cell_length_b 20.371842
_cell_length_c 6.101439
_cell_angle_alpha 90.000000
_cell_angle_beta 90.000000
_cell_angle_gamma 90.000000
_cell_volume 2532.170076
_symmetry_space_group_name_H-M "P 41 2 2"
_symmetry_group_IT_number 91
_symmetry_cell_setting 'tetragonal'
loop_
_space_group_symop_operation_xyz
x,y,z
-y,x,1/4+z
-x,-y,1/2+z
y,-x,3/4+z
x,-y,1/2-z
-x,y,-z
y,x,3/4-z
-y,-x,1/4-z
loop_
_atom_site_type_symbol
_atom_site_label
_atom_site_fract_x
_atom_site_fract_y
_atom_site_fract_z
Si Si1 0.050449 0.300754 0.321094
Si Si2 0.155999 0.500000 0.750000
Si Si3 0.138001 0.862000 0.625000
Si Si4 0.296057 0.703944 0.125000
Si Si5 0.433728 0.765969 0.098719
Si Si6 0.872112 0.621290 0.497908
Si Si7 0.269736 0.169675 0.110531
Si Si8 0.000000 0.808896 0.500000
O O1 0.119966 0.287315 0.441651
O O2 0.000000 0.326713 0.500000
O O3 0.017299 0.237423 0.207815
O O4 0.067291 0.349818 0.127747
O O5 0.200093 0.458865 0.574083
O O6 0.113666 0.443699 0.861608
O O7 0.152488 0.804578 0.799201
O O8 0.064889 0.850470 0.542634
O O9 0.373230 0.717027 0.114361
O O10 0.274713 0.754434 0.318463
O O11 0.500000 0.736200 0.000000
O O12 0.404984 0.819881 0.928166
O O13 0.845415 0.679625 0.338960
#
# Coordination Sequence:
#
# PCOD9548006 Si02
#       8
#     8   4   4   4   8   8   8   4
#     4  12  22  42  64 101 127 173 218 281 341 394
#     4  10  20  40  62 100 144 176 210 278 336 398
#     4  12  24  44  64  93 132 167 220 276 344 408
#     4  12  20  38  64 101 128 171 216 282 328 392
#     4  10  22  37  60  98 135 174 216 271 337 392
#     4  11  20  40  65 101 131 176 219 275 341 400
#     4  12  23  40  67 102 126 162 227 287 335 397
#     4  12  26  44  64  94 130 174 218 282 342 406
#
# _framework density 18.956073
#
# number of rings (size 3 to 8) (size 9 to 14) (size 15 to 20)
#    0.000    0.667    6.667    2.000    0.000    0.000 
#    0.000    1.667    0.000    0.000  199.333    0.000 
#    0.000    0.000    0.000    0.000    0.000    0.000 
#
# Total GULP energy -267956.673469 kJ/mol
# GULP energy per Si atom -5582.430697 kJ/mol
# Density = 1.891293 g / cm^3
# Si number density = 18.956073 Si / 1000 Ang^3
#
#
#
# Elastic Constant Matrix: (Units=GPa)
#
#
# Indices 1 2 3 4 5 6 
#
# 1 138.9978 74.1531 54.9994 0.0000 0.0000 0.0000
# 2 74.1531 138.9982 54.9991 0.0000 0.0000 0.0000
# 3 54.9994 54.9991 103.3409 0.0000 0.0000 0.0000
# 4 0.0000 0.0000 0.0000 30.9389 0.0000 0.0000
# 5 0.0000 0.0000 0.0000 0.0000 30.9386 0.0000
# 6 0.0000 0.0000 0.0000 0.0000 0.0000 6.9249
#
#
#
# Elastic Compliance Matrix: (Units=1/GPa)
#
#
# Indices 1 2 3 4 5 6 
#
# 1 0.010945 -0.004477 -0.003442 0.000000 0.000000 0.000000
# 2 -0.004477 0.010945 -0.003442 0.000000 0.000000 0.000000
# 3 -0.003442 -0.003442 0.013341 0.000000 0.000000 0.000000
# 4 0.000000 0.000000 0.000000 0.032322 0.000000 0.000000
# 5 0.000000 0.000000 0.000000 0.000000 0.032322 0.000000
# 6 0.000000 0.000000 0.000000 0.000000 0.000000 0.144407
#
#
# Mechanical properties :
#
#
# Convention : Reuss Voigt Hill
#
# Bulk Modulus (GPa) = 79.95257 83.29334 81.62295
# Shear Modulus (GPa) = 18.43845 26.90617 22.67231
#
# Velocity S-wave (km/s) = 3.12219 3.77157 3.46214
# Velocity P-wave (km/s) = 7.43416 7.93738 7.68989
#
# Compressibility (1/GPa) = 0.01250742
#
# Stress axis : x y z
#
# Youngs Moduli (GPa) = 91.36823 91.36889 74.95808
#
# Poissons Ratio (x) = 0.40903 0.25803
# Poissons Ratio (y) = 0.40903 0.25803
# Poissons Ratio (z) = 0.31452 0.31452
#
# Static dielectric constant tensor:
#      x y z
#    x 1.655740 0.000000 0.000000 
#    y 0.000000 1.655740 0.000000 
#    z 0.000000 0.000000 1.765220 
# 
# From -- ./inp_files/8959.got.cif
#   From: 2010.05.17/outbox.cif.g08.bks.cpg/sg91_5_cif.got.tgz:8959.got - 2010.06.03 19:20:03.
