data_PCOD9548162
_publ_section_title
;
Structure prediction by ZEFSAII (Michael W. Deem and Ramdas Pophale) SiO2 
 PCOD9548162
Probable space group: P 41 2 2
;
_chemical_formula_sum "Si O2"
_cell_formula_units_Z 40
_cell_length_a 8.617796
_cell_length_b 8.617796
_cell_length_c 23.520225
_cell_angle_alpha 90.000000
_cell_angle_beta 90.000000
_cell_angle_gamma 90.000000
_cell_volume 1746.762624
_symmetry_space_group_name_H-M "P 41 2 2"
_symmetry_group_IT_number 91
_symmetry_cell_setting 'tetragonal'
loop_
_space_group_symop_operation_xyz
x,y,z
-y,x,1/4+z
-x,-y,1/2+z
y,-x,3/4+z
x,-y,1/2-z
-x,y,-z
y,x,3/4-z
-y,-x,1/4-z
loop_
_atom_site_type_symbol
_atom_site_label
_atom_site_fract_x
_atom_site_fract_y
_atom_site_fract_z
Si Si1 0.545179 0.454822 0.125000
Si Si2 0.836220 0.251549 0.476758
Si Si3 0.588472 0.500000 0.750000
Si Si4 0.189050 0.073370 0.634933
Si Si5 0.914350 0.254784 0.266065
Si Si6 0.551880 0.880017 0.410561
O O1 0.493125 0.519402 0.187177
O O2 0.729655 0.480870 0.124095
O O3 0.668180 0.326896 0.491244
O O4 0.849824 0.209427 0.409923
O O5 0.000000 0.320412 0.500000
O O6 0.819671 0.079093 0.503089
O O7 0.182579 0.134351 0.698315
O O8 0.360599 0.013485 0.622551
O O9 0.063566 0.936435 0.625000
O O10 0.835510 0.321921 0.209636
O O11 0.939673 0.403789 0.306005
#
# Coordination Sequence:
#
# PCOD9548162 Si02
#       6
#     4   8   4   8   8   8
#     4  12  26  50  68 100 146 200 252 320 378 462
#     4  11  23  42  68 107 144 194 253 310 384 462
#     4  12  28  48  76 102 156 202 250 318 392 456
#     4  11  20  38  69 103 142 186 247 310 367 450
#     4  10  21  40  66  97 141 188 234 323 376 437
#     4  10  22  41  67  99 138 187 249 297 388 451
#
# _framework density 22.899502999999999
#
# number of rings (size 3 to 8) (size 9 to 14) (size 15 to 20)
#    0.000    1.200    3.000    4.800    0.000    1.600 
#    0.000   10.000    0.000    0.000    0.000    0.000 
#    0.000    0.000    0.000    0.000    0.000    0.000 
#
# Total GULP energy -223282.544635 kJ/mol
# GULP energy per Si atom -5582.063616 kJ/mol
# Density = 2.284738 g / cm^3
# Si number density = 22.899503 Si / 1000 Ang^3
#
#
#
# Elastic Constant Matrix: (Units=GPa)
#
#
# Indices 1 2 3 4 5 6 
#
# 1 53.2829 38.6254 31.9950 0.0000 0.0000 0.0000
# 2 38.6254 53.2823 31.9948 0.0000 0.0000 0.0000
# 3 31.9950 31.9948 124.9045 0.0000 0.0000 0.0000
# 4 0.0000 0.0000 0.0000 32.6425 0.0000 0.0000
# 5 0.0000 0.0000 0.0000 0.0000 32.6431 0.0000
# 6 0.0000 0.0000 0.0000 0.0000 0.0000 23.8958
#
#
#
# Elastic Compliance Matrix: (Units=1/GPa)
#
#
# Indices 1 2 3 4 5 6 
#
# 1 0.040734 -0.027492 -0.003392 0.000000 0.000000 0.000000
# 2 -0.027492 0.040734 -0.003392 0.000000 0.000000 0.000000
# 3 -0.003392 -0.003392 0.009744 0.000000 0.000000 0.000000
# 4 0.000000 0.000000 0.000000 0.030635 0.000000 0.000000
# 5 0.000000 0.000000 0.000000 0.000000 0.030634 0.000000
# 6 0.000000 0.000000 0.000000 0.000000 0.000000 0.041848
#
#
# Mechanical properties :
#
#
# Convention : Reuss Voigt Hill
#
# Bulk Modulus (GPa) = 44.13066 48.52223 46.32645
# Shear Modulus (GPa) = 18.48878 26.42658 22.45768
#
# Velocity S-wave (km/s) = 2.84454 3.40078 3.13502
# Velocity P-wave (km/s) = 5.48651 6.05439 5.77743
#
# Compressibility (1/GPa) = 0.02265998
#
# Stress axis : x y z
#
# Youngs Moduli (GPa) = 24.54968 24.54947 102.62843
#
# Poissons Ratio (x) = 0.67491 0.34812
# Poissons Ratio (y) = 0.67491 0.34812
# Poissons Ratio (z) = 0.08327 0.08327
#
# Static dielectric constant tensor:
#      x y z
#    x 1.865480 0.000000 0.000000 
#    y 0.000000 1.865480 0.000000 
#    z 0.000000 0.000000 1.905300 
# 
# From -- ./inp_files/6837.got.cif
#   From: 2010.05.17/outbox.cif.g08.bks.cpg/sg91_4_cif.got.tgz:6837.got - 2010.06.03 19:20:03.
