data_PCOD9548495
_publ_section_title
;
Structure prediction by ZEFSAII (Michael W. Deem and Ramdas Pophale) SiO2 
 PCOD9548495
Probable space group: P 41 2 2
;
_chemical_formula_sum "Si O2"
_cell_formula_units_Z 48
_cell_length_a 13.464100
_cell_length_b 13.464100
_cell_length_c 13.048974
_cell_angle_alpha 90.000000
_cell_angle_beta 90.000000
_cell_angle_gamma 90.000000
_cell_volume 2365.543959
_symmetry_space_group_name_H-M "P 41 2 2"
_symmetry_group_IT_number 91
_symmetry_cell_setting 'tetragonal'
loop_
_space_group_symop_operation_xyz
x,y,z
-y,x,1/4+z
-x,-y,1/2+z
y,-x,3/4+z
x,-y,1/2-z
-x,y,-z
y,x,3/4-z
-y,-x,1/4-z
loop_
_atom_site_type_symbol
_atom_site_label
_atom_site_fract_x
_atom_site_fract_y
_atom_site_fract_z
Si Si1 0.727778 0.403982 0.200663
Si Si2 0.405361 0.928912 0.666693
Si Si3 0.244771 0.096798 0.318896
Si Si4 0.231494 0.255647 0.612196
Si Si5 0.616019 0.893495 0.012387
Si Si6 0.108691 0.183866 0.982908
O O1 0.677727 0.500000 0.250000
O O2 0.658802 0.341199 0.125000
O O3 0.827148 0.439507 0.138244
O O4 0.752051 0.333984 0.297716
O O5 0.303488 0.897174 0.723015
O O6 0.462098 0.000000 0.750000
O O7 0.378669 0.005461 0.577326
O O8 0.149984 0.149984 0.375000
O O9 0.291221 0.175594 0.238503
O O10 0.325715 0.083102 0.407881
O O11 0.222796 0.000000 0.250000
O O12 0.327496 0.195864 0.570832
O O13 0.161772 0.174944 0.669335
O O14 0.500000 0.869767 0.000000
O O15 0.150085 0.150085 0.875000
O O16 0.000000 0.143059 0.000000
#
# Coordination Sequence:
#
# PCOD9548495 Si02
#       6
#     8   8   8   8   8   8
#     4  12  24  41  65  97 126 166 215 262 320 384
#     4  11  19  37  67  94 125 155 198 267 322 375
#     4  10  24  41  61  85 127 168 207 254 306 377
#     4  11  21  42  62  85 129 166 203 264 320 373
#     4  11  23  39  63  96 123 159 209 263 327 383
#     4  11  20  36  64  87 125 164 207 249 310 366
#
# _framework density 20.291315999999998
#
# number of rings (size 3 to 8) (size 9 to 14) (size 15 to 20)
#    0.000    1.000    6.667    1.500    0.000    3.333 
#    0.000    3.333    0.000    0.000    0.000    0.000 
#    0.000    0.000    0.000    0.000    0.000    0.000 
#
# Total GULP energy -267746.024877 kJ/mol
# GULP energy per Si atom -5578.042185 kJ/mol
# Density = 2.024513 g / cm^3
# Si number density = 20.291316 Si / 1000 Ang^3
#
#
#
# Elastic Constant Matrix: (Units=GPa)
#
#
# Indices 1 2 3 4 5 6 
#
# 1 71.8709 30.2273 51.4795 0.0000 0.0000 0.0000
# 2 30.2273 71.8714 51.4799 0.0000 0.0000 0.0000
# 3 51.4795 51.4799 163.1485 0.0000 0.0000 0.0000
# 4 0.0000 0.0000 0.0000 2.4343 0.0000 0.0000
# 5 0.0000 0.0000 0.0000 0.0000 2.4350 0.0000
# 6 0.0000 0.0000 0.0000 0.0000 0.0000 7.2982
#
#
#
# Elastic Compliance Matrix: (Units=1/GPa)
#
#
# Indices 1 2 3 4 5 6 
#
# 1 0.019189 -0.004824 -0.004533 0.000000 0.000000 0.000000
# 2 -0.004824 0.019189 -0.004533 0.000000 0.000000 0.000000
# 3 -0.004533 -0.004533 0.008990 0.000000 0.000000 0.000000
# 4 0.000000 0.000000 0.000000 0.410795 0.000000 0.000000
# 5 0.000000 0.000000 0.000000 0.000000 0.410673 0.000000
# 6 0.000000 0.000000 0.000000 0.000000 0.000000 0.137020
#
#
# Mechanical properties :
#
#
# Convention : Reuss Voigt Hill
#
# Bulk Modulus (GPa) = 51.04755 63.69602 57.37179
# Shear Modulus (GPa) = 4.80692 14.01378 9.41035
#
# Velocity S-wave (km/s) = 1.54081 2.63083 2.15585
# Velocity P-wave (km/s) = 5.32705 6.37866 5.87642
#
# Compressibility (1/GPa) = 0.01958958
#
# Stress axis : x y z
#
# Youngs Moduli (GPa) = 52.11202 52.11227 111.23472
#
# Poissons Ratio (x) = 0.25138 0.50421
# Poissons Ratio (y) = 0.25138 0.50422
# Poissons Ratio (z) = 0.23622 0.23622
#
# Static dielectric constant tensor:
#      x y z
#    x 1.784530 0.000000 0.000000 
#    y 0.000000 1.784530 0.000000 
#    z 0.000000 0.000000 1.762920 
# 
# From -- ./inp_files/15887.got.cif
#   From: 2010.05.17/outbox.cif.g08.bks.cpg/sg91_8_cif.got.tgz:15887.got - 2010.06.03 19:20:03.
