data_PCOD9548637
_publ_section_title
;
Structure prediction by ZEFSAII (Michael W. Deem and Ramdas Pophale) SiO2 
 PCOD9548637
Probable space group: P 41 2 2
;
_chemical_formula_sum "Si O2"
_cell_formula_units_Z 56
_cell_length_a 13.647081
_cell_length_b 13.647081
_cell_length_c 14.844360
_cell_angle_alpha 90.000000
_cell_angle_beta 90.000000
_cell_angle_gamma 90.000000
_cell_volume 2764.655465
_symmetry_space_group_name_H-M "P 41 2 2"
_symmetry_group_IT_number 91
_symmetry_cell_setting 'tetragonal'
loop_
_space_group_symop_operation_xyz
x,y,z
-y,x,1/4+z
-x,-y,1/2+z
y,-x,3/4+z
x,-y,1/2-z
-x,y,-z
y,x,3/4-z
-y,-x,1/4-z
loop_
_atom_site_type_symbol
_atom_site_label
_atom_site_fract_x
_atom_site_fract_y
_atom_site_fract_z
Si Si1 0.656087 0.900964 0.387146
Si Si2 0.932301 0.624262 0.086096
Si Si3 0.920775 0.501824 0.652454
Si Si4 0.596910 0.247576 0.954614
Si Si5 0.965634 0.135170 0.205403
Si Si6 0.351540 0.795404 0.805235
Si Si7 0.854004 0.839625 0.108498
O O1 0.636051 0.827646 0.469518
O O2 0.760338 0.946365 0.409348
O O3 0.662247 0.840937 0.294186
O O4 0.575888 0.987513 0.384252
O O5 0.827940 0.577471 0.120195
O O6 0.900774 0.736392 0.080927
O O7 0.018245 0.600550 0.156606
O O8 0.000000 0.592212 0.000000
O O9 0.873563 0.500000 0.750000
O O10 0.836836 0.543579 0.587364
O O11 0.679236 0.329960 0.941829
O O12 0.500000 0.289572 0.000000
O O13 0.937172 0.062829 0.125000
O O14 0.903478 0.130436 0.296076
O O15 0.081126 0.126597 0.218131
O O16 0.261724 0.831793 0.868831
#
# Coordination Sequence:
#
# PCOD9548637 Si02
#       7
#     8   8   8   8   8   8   8
#     4  12  18  36  61  96 130 163 210 269 331 381
#     4  11  22  39  55  83 123 172 219 253 300 388
#     4  12  22  38  64  91 130 173 209 266 321 385
#     4  11  21  39  60  92 133 165 210 282 334 375
#     4  12  21  35  55  83 125 170 212 257 319 381
#     4  11  23  34  63  98 124 162 216 267 334 396
#     4  11  24  37  56  80 128 172 217 260 311 384
#
# _framework density 20.255687999999999
#
# number of rings (size 3 to 8) (size 9 to 14) (size 15 to 20)
#    0.000    0.571    8.571    2.143    0.000    1.143 
#    0.000    0.000    0.000    0.000    0.000    5.000 
#    0.000    0.000    0.000    0.000    0.000    0.000 
#
# Total GULP energy -311896.475188 kJ/mol
# GULP energy per Si atom -5569.579914 kJ/mol
# Density = 2.020959 g / cm^3
# Si number density = 20.255688 Si / 1000 Ang^3
#
#
#
# Elastic Constant Matrix: (Units=GPa)
#
#
# Indices 1 2 3 4 5 6 
#
# 1 80.6025 3.0194 -2.1717 0.0000 0.0000 0.0000
# 2 3.0194 80.6006 -2.1722 0.0000 0.0000 0.0000
# 3 -2.1717 -2.1722 42.5922 0.0000 0.0000 0.0000
# 4 0.0000 0.0000 0.0000 21.8488 0.0000 0.0000
# 5 0.0000 0.0000 0.0000 0.0000 21.8487 0.0000
# 6 0.0000 0.0000 0.0000 0.0000 0.0000 29.2050
#
#
#
# Elastic Compliance Matrix: (Units=1/GPa)
#
#
# Indices 1 2 3 4 5 6 
#
# 1 0.012440 -0.000450 0.000611 0.000000 0.000000 0.000000
# 2 -0.000450 0.012440 0.000612 0.000000 0.000000 0.000000
# 3 0.000611 0.000612 0.023541 0.000000 0.000000 0.000000
# 4 0.000000 0.000000 0.000000 0.045769 0.000000 0.000000
# 5 0.000000 0.000000 0.000000 0.000000 0.045769 0.000000
# 6 0.000000 0.000000 0.000000 0.000000 0.000000 0.034241
#
#
# Mechanical properties :
#
#
# Convention : Reuss Voigt Hill
#
# Bulk Modulus (GPa) = 20.01298 22.34960 21.18129
# Shear Modulus (GPa) = 26.41182 28.25515 27.33349
#
# Velocity S-wave (km/s) = 3.61490 3.73892 3.67743
# Velocity P-wave (km/s) = 5.22733 5.44950 5.33957
#
# Compressibility (1/GPa) = 0.04996757
#
# Stress axis : x y z
#
# Youngs Moduli (GPa) = 80.38662 80.38469 42.47935
#
# Poissons Ratio (x) = 0.03614 -0.02597
# Poissons Ratio (y) = 0.03614 -0.02598
# Poissons Ratio (z) = -0.04914 -0.04916
#
# Static dielectric constant tensor:
#      x y z
#    x 1.780750 0.000000 0.000000 
#    y 0.000000 1.780750 0.000000 
#    z 0.000000 0.000000 1.898750 
# 
# From -- ./inp_files/11523.got.cif
#   From: 2010.05.17/outbox.cif.g08.bks.cpg/sg91_6_cif.got.tgz:11523.got - 2010.06.03 19:20:03.
