data_PCOD9548372
_publ_section_title
;
Structure prediction by ZEFSAII (Michael W. Deem and Ramdas Pophale) SiO2 
 PCOD9548372
Probable space group: P 41 2 2
;
_chemical_formula_sum "Si O2"
_cell_formula_units_Z 40
_cell_length_a 17.362084
_cell_length_b 17.362084
_cell_length_c 5.343440
_cell_angle_alpha 90.000000
_cell_angle_beta 90.000000
_cell_angle_gamma 90.000000
_cell_volume 1610.737031
_symmetry_space_group_name_H-M "P 41 2 2"
_symmetry_group_IT_number 91
_symmetry_cell_setting 'tetragonal'
loop_
_space_group_symop_operation_xyz
x,y,z
-y,x,1/4+z
-x,-y,1/2+z
y,-x,3/4+z
x,-y,1/2-z
-x,y,-z
y,x,3/4-z
-y,-x,1/4-z
loop_
_atom_site_type_symbol
_atom_site_label
_atom_site_fract_x
_atom_site_fract_y
_atom_site_fract_z
Si Si1 0.546146 0.000000 0.250000
Si Si2 0.000000 0.701740 0.000000
Si Si3 0.868348 0.196738 0.372384
Si Si4 0.625761 0.130958 0.413772
Si Si5 0.500000 0.376317 0.000000
Si Si6 0.714622 0.272858 0.375733
Si Si7 0.734831 0.500000 0.750000
O O1 0.590823 0.079165 0.192748
O O2 0.500000 0.019946 0.500000
O O3 0.050869 0.760702 0.839690
O O4 0.937382 0.651645 0.849592
O O5 0.853874 0.146127 0.625000
O O6 0.806219 0.267201 0.403164
O O7 0.850670 0.149331 0.125000
O O8 0.697409 0.182764 0.342276
O O9 0.569535 0.201887 0.484716
O O10 0.564577 0.435424 0.125000
O O11 0.490071 0.317480 0.245580
O O12 0.687050 0.312951 0.625000
O O13 0.687623 0.312378 0.125000
#
# Coordination Sequence:
#
# PCOD9548372 Si02
#       7
#     4   4   8   8   4   8   4
#     4  12  29  50  72 104 161 236 272 330 395 560
#     4  12  25  48  82 108 161 234 270 358 439 520
#     4  10  22  44  65 109 140 194 278 347 391 486
#     4  12  28  47  77 117 170 220 286 333 454 505
#     4  12  29  64  99 128 168 226 278 334 435 528
#     4  10  22  43  65 102 143 189 258 346 383 482
#     4  12  31  50  83 136 176 208 274 360 399 538
#
# _framework density 24.833352999999999
#
# number of rings (size 3 to 8) (size 9 to 14) (size 15 to 20)
#    0.000    0.800    5.000    1.800    7.000    6.400 
#    0.000    0.000    0.000    1.200    0.000    0.000 
#    0.000    0.000    0.000    0.000    0.000    0.000 
#
# Total GULP energy -222694.865167 kJ/mol
# GULP energy per Si atom -5567.371629 kJ/mol
# Density = 2.477683 g / cm^3
# Si number density = 24.833353 Si / 1000 Ang^3
#
#
#
# Elastic Constant Matrix: (Units=GPa)
#
#
# Indices 1 2 3 4 5 6 
#
# 1 116.1678 81.0479 50.8143 0.0000 0.0000 0.0000
# 2 81.0479 116.1674 50.8149 0.0000 0.0000 0.0000
# 3 50.8143 50.8149 211.1310 0.0000 0.0000 0.0000
# 4 0.0000 0.0000 0.0000 -3.7184 0.0000 0.0000
# 5 0.0000 0.0000 0.0000 0.0000 -3.7194 0.0000
# 6 0.0000 0.0000 0.0000 0.0000 0.0000 4.5370
#
#
#
# Elastic Compliance Matrix: (Units=1/GPa)
#
#
# Indices 1 2 3 4 5 6 
#
# 1 0.017131 -0.011343 -0.001393 0.000000 0.000000 0.000000
# 2 -0.011343 0.017131 -0.001393 0.000000 0.000000 0.000000
# 3 -0.001393 -0.001393 0.005407 0.000000 0.000000 0.000000
# 4 0.000000 0.000000 0.000000 -0.268931 0.000000 0.000000
# 5 0.000000 0.000000 0.000000 0.000000 -0.268859 0.000000
# 6 0.000000 0.000000 0.000000 0.000000 0.000000 0.220410
#
#
# Mechanical properties :
#
#
# Convention : Reuss Voigt Hill
#
# Bulk Modulus (GPa) = 87.63187 89.86893 88.75040
# Shear Modulus (GPa) = -20.35431 16.80578 -1.77427
#
# Velocity S-wave (km/s) = -2.86603 2.60425 -0.84618
# Velocity P-wave (km/s) = 4.94089 6.73128 5.90434
#
# Compressibility (1/GPa) = 0.01141137
#
# Stress axis : x y z
#
# Youngs Moduli (GPa) = 58.37298 58.37261 184.94519
#
# Poissons Ratio (x) = 0.66211 0.25765
# Poissons Ratio (y) = 0.66211 0.25767
# Poissons Ratio (z) = 0.08132 0.08133
#
# Static dielectric constant tensor:
#      x y z
#    x 2.250210 0.000000 0.000000 
#    y 0.000000 2.250190 0.000000 
#    z 0.000000 0.000000 2.188600 
# 
# From -- ./inp_files/14117.got.cif
#   From: 2010.05.17/outbox.cif.g08.bks.cpg/sg91_8_cif.got.tgz:14117.got - 2010.06.03 19:20:03.
