data_PCOD9548681
_publ_section_title
;
Structure prediction by ZEFSAII (Michael W. Deem and Ramdas Pophale) SiO2 
 PCOD9548681
Probable space group: P 41 2 2
;
_chemical_formula_sum "Si O2"
_cell_formula_units_Z 44
_cell_length_a 9.106887
_cell_length_b 9.106887
_cell_length_c 26.709321
_cell_angle_alpha 90.000000
_cell_angle_beta 90.000000
_cell_angle_gamma 90.000000
_cell_volume 2215.147976
_symmetry_space_group_name_H-M "P 41 2 2"
_symmetry_group_IT_number 91
_symmetry_cell_setting 'tetragonal'
loop_
_space_group_symop_operation_xyz
x,y,z
-y,x,1/4+z
-x,-y,1/2+z
y,-x,3/4+z
x,-y,1/2-z
-x,y,-z
y,x,3/4-z
-y,-x,1/4-z
loop_
_atom_site_type_symbol
_atom_site_label
_atom_site_fract_x
_atom_site_fract_y
_atom_site_fract_z
Si Si1 0.500000 0.558802 0.000000
Si Si2 0.007509 0.341738 0.944449
Si Si3 0.263888 0.736113 0.125000
Si Si4 0.769158 0.391113 0.431187
Si Si5 0.153019 0.991569 0.191280
Si Si6 0.900445 0.900445 0.375000
Si Si7 0.578163 0.684722 0.159192
O O1 0.640658 0.635561 0.027290
O O2 0.421600 0.470492 0.045409
O O3 0.119124 0.480828 0.949063
O O4 0.073448 0.259624 0.896203
O O5 0.836284 0.362706 0.931571
O O6 0.000000 0.272288 0.000000
O O7 0.201637 0.832390 0.170785
O O8 0.439326 0.746266 0.126884
O O9 0.682867 0.403809 0.378612
O O10 0.881209 0.258976 0.421407
O O11 0.162219 0.000000 0.250000
O O12 0.996536 0.038504 0.170742
#
# Coordination Sequence:
#
# PCOD9548681 Si02
#       7
#     4   8   4   8   8   4   8
#     4  12  24  40  68 100 132 170 216 284 336 404
#     4  12  25  45  68  93 136 187 219 272 349 408
#     4  11  22  41  68  94 132 167 224 275 322 394
#     4  12  24  40  69  97 132 172 227 272 338 400
#     4  11  23  42  66  94 128 177 219 270 336 398
#     4  11  26  43  64  96 134 171 228 277 324 404
#     4  12  24  42  64 102 130 172 227 282 331 398
#
# _framework density 19.863232
#
# number of rings (size 3 to 8) (size 9 to 14) (size 15 to 20)
#    0.000    0.364    7.273    2.182    2.545    0.000 
#    0.000    0.000    0.000    1.091    0.000    0.000 
#    0.000    0.000    0.000    0.000    0.000    0.000 
#
# Total GULP energy -244983.682705 kJ/mol
# GULP energy per Si atom -5567.810971 kJ/mol
# Density = 1.981802 g / cm^3
# Si number density = 19.863232 Si / 1000 Ang^3
#
#
#
# Elastic Constant Matrix: (Units=GPa)
#
#
# Indices 1 2 3 4 5 6 
#
# 1 52.1762 3.1630 20.1250 0.0000 0.0000 0.0000
# 2 3.1630 52.1759 20.1250 0.0000 0.0000 0.0000
# 3 20.1250 20.1250 110.2925 0.0000 0.0000 0.0000
# 4 0.0000 0.0000 0.0000 701.0150 0.0000 0.0000
# 5 0.0000 0.0000 0.0000 0.0000 700.9827 0.0000
# 6 0.0000 0.0000 0.0000 0.0000 0.0000 15.2332
#
#
#
# Elastic Compliance Matrix: (Units=1/GPa)
#
#
# Indices 1 2 3 4 5 6 
#
# 1 0.020619 0.000216 -0.003802 0.000000 0.000000 0.000000
# 2 0.000216 0.020619 -0.003802 0.000000 0.000000 0.000000
# 3 -0.003802 -0.003802 0.010454 0.000000 0.000000 0.000000
# 4 0.000000 0.000000 0.000000 0.001427 0.000000 0.000000
# 5 0.000000 0.000000 0.000000 0.000000 0.001427 0.000000
# 6 0.000000 0.000000 0.000000 0.000000 0.000000 0.065646
#
#
# Mechanical properties :
#
#
# Convention : Reuss Voigt Hill
#
# Bulk Modulus (GPa) = 27.08700 33.49674 30.29187
# Shear Modulus (GPa) = 33.95068 294.86160 164.40614
#
# Velocity S-wave (km/s) = 4.13876 12.19706 9.10762
# Velocity P-wave (km/s) = 6.04197 14.67167 11.21970
#
# Compressibility (1/GPa) = 0.03691808
#
# Stress axis : x y z
#
# Youngs Moduli (GPa) = 48.49864 48.49833 95.65492
#
# Poissons Ratio (x) = -0.01050 0.36367
# Poissons Ratio (y) = -0.01050 0.36367
# Poissons Ratio (z) = 0.18439 0.18438
#
# Static dielectric constant tensor:
#      x y z
#    x 1.715430 0.000000 0.000000 
#    y 0.000000 1.715440 0.000000 
#    z 0.000000 0.000000 1.751290 
# 
# From -- ./inp_files/13570.got.cif
#   From: 2010.05.17/outbox.cif.g08.bks.cpg/sg91_7_cif.got.tgz:13570.got - 2010.06.03 19:20:03.
