data_PCOD9548786
_publ_section_title
;
Structure prediction by ZEFSAII (Michael W. Deem and Ramdas Pophale) SiO2 
 PCOD9548786
Probable space group: P 41 2 2
;
_chemical_formula_sum "Si O2"
_cell_formula_units_Z 40
_cell_length_a 16.393349
_cell_length_b 16.393349
_cell_length_c 8.714291
_cell_angle_alpha 90.000000
_cell_angle_beta 90.000000
_cell_angle_gamma 90.000000
_cell_volume 2341.895046
_symmetry_space_group_name_H-M "P 41 2 2"
_symmetry_group_IT_number 91
_symmetry_cell_setting 'tetragonal'
loop_
_space_group_symop_operation_xyz
x,y,z
-y,x,1/4+z
-x,-y,1/2+z
y,-x,3/4+z
x,-y,1/2-z
-x,y,-z
y,x,3/4-z
-y,-x,1/4-z
loop_
_atom_site_type_symbol
_atom_site_label
_atom_site_fract_x
_atom_site_fract_y
_atom_site_fract_z
Si Si1 0.640523 0.494549 0.085423
Si Si2 0.782281 0.385864 0.960273
Si Si3 0.000000 0.415103 0.500000
Si Si4 0.596098 0.139318 0.964501
Si Si5 0.707133 0.659269 0.038740
Si Si6 0.500000 0.113240 0.500000
O O1 0.682627 0.500000 0.250000
O O2 0.559688 0.440313 0.125000
O O3 0.636558 0.588344 0.037084
O O4 0.706347 0.447814 0.986239
O O5 0.731538 0.307390 0.909243
O O6 0.833839 0.426682 0.823558
O O7 0.832584 0.372870 0.117089
O O8 0.941679 0.372012 0.373377
O O9 0.940354 0.468254 0.607647
O O10 0.613886 0.211099 0.841587
O O11 0.500000 0.126007 0.000000
O O12 0.701508 0.701508 0.875000
#
# Coordination Sequence:
#
# PCOD9548786 Si02
#       6
#     8   8   4   8   8   4
#     4  12  21  36  48  66  98 142 188 238 281 315
#     4  12  21  37  57  73 105 140 182 233 293 338
#     4  12  22  38  58  78 106 130 180 248 284 340
#     4  12  21  39  57  76 104 136 183 242 286 340
#     4  12  24  38  53  75 104 144 187 236 292 343
#     4  12  22  36  54  84  98 138 180 232 284 344
#
# _framework density 17.080185
#
# number of rings (size 3 to 8) (size 9 to 14) (size 15 to 20)
#    0.000    0.000    9.000    3.000    0.000    0.800 
#    1.800    0.000    0.000    0.000    0.000    0.000 
#    0.000    0.000    0.000    0.000    0.000  126.000 
#
# Total GULP energy -222703.606659 kJ/mol
# GULP energy per Si atom -5567.590166 kJ/mol
# Density = 1.704131 g / cm^3
# Si number density = 17.080185 Si / 1000 Ang^3
#
#
#
# Elastic Constant Matrix: (Units=GPa)
#
#
# Indices 1 2 3 4 5 6 
#
# 1 64.0983 22.9485 27.6299 0.0000 0.0000 0.0000
# 2 22.9485 64.0976 27.6299 0.0000 0.0000 0.0000
# 3 27.6299 27.6299 99.8829 0.0000 0.0000 0.0000
# 4 0.0000 0.0000 0.0000 23.8347 0.0000 0.0000
# 5 0.0000 0.0000 0.0000 0.0000 23.8351 0.0000
# 6 0.0000 0.0000 0.0000 0.0000 0.0000 10.2041
#
#
#
# Elastic Compliance Matrix: (Units=1/GPa)
#
#
# Indices 1 2 3 4 5 6 
#
# 1 0.019118 -0.005183 -0.003855 0.000000 0.000000 0.000000
# 2 -0.005183 0.019119 -0.003855 0.000000 0.000000 0.000000
# 3 -0.003855 -0.003855 0.012144 0.000000 0.000000 0.000000
# 4 0.000000 0.000000 0.000000 0.041956 0.000000 0.000000
# 5 0.000000 0.000000 0.000000 0.000000 0.041955 0.000000
# 6 0.000000 0.000000 0.000000 0.000000 0.000000 0.098000
#
#
# Mechanical properties :
#
#
# Convention : Reuss Voigt Hill
#
# Bulk Modulus (GPa) = 40.65758 42.72172 41.68965
# Shear Modulus (GPa) = 18.77753 21.56615 20.17184
#
# Velocity S-wave (km/s) = 3.31928 3.55722 3.44031
# Velocity P-wave (km/s) = 6.20852 6.47600 6.34367
#
# Compressibility (1/GPa) = 0.02459566
#
# Stress axis : x y z
#
# Youngs Moduli (GPa) = 52.30579 52.30508 82.34259
#
# Poissons Ratio (x) = 0.27111 0.31741
# Poissons Ratio (y) = 0.27111 0.31742
# Poissons Ratio (z) = 0.20163 0.20163
#
# Static dielectric constant tensor:
#      x y z
#    x 1.638410 0.000000 0.000000 
#    y 0.000000 1.638420 0.000000 
#    z 0.000000 0.000000 1.644640 
# 
# From -- ./inp_files/19532.got.cif
#   From: 2010.05.17/outbox.cif.g08.bks.cpg/sg91_10_cif.got.tgz:19532.got - 2010.06.03 19:20:03.
