data_PCOD9548099
_publ_section_title
;
Structure prediction by ZEFSAII (Michael W. Deem and Ramdas Pophale) SiO2 
 PCOD9548099
Probable space group: P 41 2 2
;
_chemical_formula_sum "Si O2"
_cell_formula_units_Z 52
_cell_length_a 20.625927
_cell_length_b 20.625927
_cell_length_c 5.826784
_cell_angle_alpha 90.000000
_cell_angle_beta 90.000000
_cell_angle_gamma 90.000000
_cell_volume 2478.882101
_symmetry_space_group_name_H-M "P 41 2 2"
_symmetry_group_IT_number 91
_symmetry_cell_setting 'tetragonal'
loop_
_space_group_symop_operation_xyz
x,y,z
-y,x,1/4+z
-x,-y,1/2+z
y,-x,3/4+z
x,-y,1/2-z
-x,y,-z
y,x,3/4-z
-y,-x,1/4-z
loop_
_atom_site_type_symbol
_atom_site_label
_atom_site_fract_x
_atom_site_fract_y
_atom_site_fract_z
Si Si1 0.142688 0.410874 0.378032
Si Si2 0.208108 0.295739 0.089754
Si Si3 0.691146 0.887814 0.539614
Si Si4 0.251352 0.500000 0.250000
Si Si5 0.500000 0.965886 0.000000
Si Si6 0.666234 0.624368 0.623686
Si Si7 0.203051 0.109655 0.437330
Si Si8 0.000000 0.253144 0.000000
O O1 0.173188 0.351851 0.237227
O O2 0.113125 0.379813 0.604218
O O3 0.200678 0.462142 0.415845
O O4 0.083869 0.440079 0.236748
O O5 0.282430 0.315628 0.118890
O O6 0.172893 0.230620 0.174748
O O7 0.181665 0.301421 0.832235
O O8 0.747614 0.897258 0.725977
O O9 0.701728 0.947094 0.370456
O O10 0.294696 0.443909 0.135120
O O11 0.504006 0.000000 0.750000
O O12 0.629680 0.629680 0.375000
O O13 0.630715 0.630715 0.875000
O O14 0.130753 0.130753 0.375000
O O15 0.210273 0.044331 0.582124
#
# Coordination Sequence:
#
# PCOD9548099 Si02
#       8
#     8   8   8   4   4   8   8   4
#     4   9  21  43  59  85 124 181 220 273 333 395
#     4   9  21  35  60  94 123 170 212 274 344 404
#     4  10  21  38  62  90 131 174 215 275 337 407
#     4   9  22  48  66  98 136 176 223 280 344 412
#     4  11  26  40  54  82 118 172 245 284 312 374
#     4  11  25  42  69 104 137 176 227 284 345 412
#     4  10  21  37  58  87 133 171 218 271 342 406
#     4  10  22  38  56  96 132 174 222 270 344 408
#
# _framework density 20.977198000000001
#
# number of rings (size 3 to 8) (size 9 to 14) (size 15 to 20)
#    0.000    2.154    0.000    0.923   10.769    6.154 
#    8.308    0.000    0.000    0.923    0.000    0.000 
#   32.308    0.000    0.000    0.000    0.000    0.000 
#
# Total GULP energy -289870.753858 kJ/mol
# GULP energy per Si atom -5574.437574 kJ/mol
# Density = 2.092945 g / cm^3
# Si number density = 20.977198 Si / 1000 Ang^3
#
#
#
# Elastic Constant Matrix: (Units=GPa)
#
#
# Indices 1 2 3 4 5 6 
#
# 1 86.5443 37.1373 40.1390 0.0000 0.0000 0.0000
# 2 37.1373 86.5443 40.1390 0.0000 0.0000 0.0000
# 3 40.1390 40.1390 96.7395 0.0000 0.0000 0.0000
# 4 0.0000 0.0000 0.0000 27.1200 0.0000 0.0000
# 5 0.0000 0.0000 0.0000 0.0000 27.1200 0.0000
# 6 0.0000 0.0000 0.0000 0.0000 0.0000 11.6397
#
#
#
# Elastic Compliance Matrix: (Units=1/GPa)
#
#
# Indices 1 2 3 4 5 6 
#
# 1 0.015653 -0.004587 -0.004591 0.000000 0.000000 0.000000
# 2 -0.004587 0.015653 -0.004591 0.000000 0.000000 0.000000
# 3 -0.004591 -0.004591 0.014147 0.000000 0.000000 0.000000
# 4 0.000000 0.000000 0.000000 0.036873 0.000000 0.000000
# 5 0.000000 0.000000 0.000000 0.000000 0.036873 0.000000
# 6 0.000000 0.000000 0.000000 0.000000 0.000000 0.085913
#
#
# Mechanical properties :
#
#
# Convention : Reuss Voigt Hill
#
# Bulk Modulus (GPa) = 55.82605 56.07318 55.94962
# Shear Modulus (GPa) = 20.95361 23.33677 22.14519
#
# Velocity S-wave (km/s) = 3.16393 3.33901 3.25265
# Velocity P-wave (km/s) = 6.32596 6.45398 6.39029
#
# Compressibility (1/GPa) = 0.01791278
#
# Stress axis : x y z
#
# Youngs Moduli (GPa) = 63.88686 63.88686 70.68649
#
# Poissons Ratio (x) = 0.29307 0.32453
# Poissons Ratio (y) = 0.29307 0.32453
# Poissons Ratio (z) = 0.29332 0.29332
#
# Static dielectric constant tensor:
#      x y z
#    x 1.773150 0.000000 0.000000 
#    y 0.000000 1.773150 0.000000 
#    z 0.000000 0.000000 1.856790 
# 
# From -- ./inp_files/14487.got.cif
#   From: 2010.05.17/outbox.cif.g08.bks.cpg/sg91_8_cif.got.tgz:14487.got - 2010.06.03 19:20:03.
