data_PCOD9548529
_publ_section_title
;
Structure prediction by ZEFSAII (Michael W. Deem and Ramdas Pophale) SiO2 
 PCOD9548529
Probable space group: P 41 2 2
;
_chemical_formula_sum "Si O2"
_cell_formula_units_Z 48
_cell_length_a 8.672053
_cell_length_b 8.672053
_cell_length_c 28.881731
_cell_angle_alpha 90.000000
_cell_angle_beta 90.000000
_cell_angle_gamma 90.000000
_cell_volume 2172.036232
_symmetry_space_group_name_H-M "P 41 2 2"
_symmetry_group_IT_number 91
_symmetry_cell_setting 'tetragonal'
loop_
_space_group_symop_operation_xyz
x,y,z
-y,x,1/4+z
-x,-y,1/2+z
y,-x,3/4+z
x,-y,1/2-z
-x,y,-z
y,x,3/4-z
-y,-x,1/4-z
loop_
_atom_site_type_symbol
_atom_site_label
_atom_site_fract_x
_atom_site_fract_y
_atom_site_fract_z
Si Si1 0.247131 0.000000 0.250000
Si Si2 0.181429 0.949376 0.077046
Si Si3 0.287172 0.700023 0.678109
Si Si4 0.500000 0.271820 0.500000
Si Si5 0.930599 0.298683 0.924353
Si Si6 0.752987 0.483807 0.503462
Si Si7 0.043659 0.551329 0.324622
O O1 0.142963 0.909582 0.213098
O O2 0.367762 0.874993 0.270606
O O3 0.122180 0.877821 0.125000
O O4 0.366395 0.946980 0.075397
O O5 0.138137 0.128730 0.074502
O O6 0.332901 0.667100 0.625000
O O7 0.415820 0.663748 0.715541
O O8 0.126032 0.615473 0.687401
O O9 0.275632 0.886215 0.682327
O O10 0.624314 0.376275 0.526665
O O11 0.405948 0.164042 0.534901
O O12 0.914496 0.376254 0.874025
O O13 0.845396 0.406617 0.961580
#
# Coordination Sequence:
#
# PCOD9548529 Si02
#       7
#     4   8   8   4   8   8   8
#     4  12  26  48  80 110 150 194 262 314 376 456
#     4  12  28  46  78 110 145 201 254 313 374 451
#     4  10  24  45  72 106 148 197 246 306 377 459
#     4  12  30  44  70 108 154 198 246 320 378 448
#     4  11  26  47  76 107 144 200 252 307 380 454
#     4  12  26  48  74 111 150 198 248 315 383 447
#     4  11  27  47  72 107 153 192 253 310 380 453
#
# _framework density 22.099081000000002
#
# number of rings (size 3 to 8) (size 9 to 14) (size 15 to 20)
#    0.000    0.667    3.333    2.500   14.000    0.000 
#    0.000    0.000    0.000    0.000    0.000    0.000 
#    0.000    0.000    0.000    0.000    0.000    0.000 
#
# Total GULP energy -268526.884743 kJ/mol
# GULP energy per Si atom -5594.310099 kJ/mol
# Density = 2.204878 g / cm^3
# Si number density = 22.099081 Si / 1000 Ang^3
#
#
#
# Elastic Constant Matrix: (Units=GPa)
#
#
# Indices 1 2 3 4 5 6 
#
# 1 131.9475 76.4421 78.3877 0.0000 0.0000 0.0000
# 2 76.4421 131.9488 78.3874 0.0000 0.0000 0.0000
# 3 78.3877 78.3874 114.8951 0.0000 0.0000 0.0000
# 4 0.0000 0.0000 0.0000 32.0444 0.0000 0.0000
# 5 0.0000 0.0000 0.0000 0.0000 32.0445 0.0000
# 6 0.0000 0.0000 0.0000 0.0000 0.0000 57.2869
#
#
#
# Elastic Compliance Matrix: (Units=1/GPa)
#
#
# Indices 1 2 3 4 5 6 
#
# 1 0.013938 -0.004079 -0.006726 0.000000 0.000000 0.000000
# 2 -0.004079 0.013937 -0.006726 0.000000 0.000000 0.000000
# 3 -0.006726 -0.006726 0.017882 0.000000 0.000000 0.000000
# 4 0.000000 0.000000 0.000000 0.031207 0.000000 0.000000
# 5 0.000000 0.000000 0.000000 0.000000 0.031207 0.000000
# 6 0.000000 0.000000 0.000000 0.000000 0.000000 0.017456
#
#
# Mechanical properties :
#
#
# Convention : Reuss Voigt Hill
#
# Bulk Modulus (GPa) = 93.50700 93.91396 93.71048
# Shear Modulus (GPa) = 30.44079 33.98011 32.21045
#
# Velocity S-wave (km/s) = 3.71545 3.92551 3.82193
# Velocity P-wave (km/s) = 7.79811 7.94577 7.87229
#
# Compressibility (1/GPa) = 0.01069439
#
# Stress axis : x y z
#
# Youngs Moduli (GPa) = 71.74796 71.74948 55.92301
#
# Poissons Ratio (x) = 0.29263 0.37616
# Poissons Ratio (y) = 0.29263 0.37615
# Poissons Ratio (z) = 0.48261 0.48260
#
# Static dielectric constant tensor:
#      x y z
#    x 1.824860 0.000000 0.000000 
#    y 0.000000 1.824860 0.000000 
#    z 0.000000 0.000000 1.791550 
# 
# From -- ./inp_files/8022.got.cif
#   From: 2010.05.17/outbox.cif.g08.bks.cpg/sg91_5_cif.got.tgz:8022.got - 2010.06.03 19:20:03.
