data_PCOD9548598
_publ_section_title
;
Structure prediction by ZEFSAII (Michael W. Deem and Ramdas Pophale) SiO2 
 PCOD9548598
Probable space group: P 41 2 2
;
_chemical_formula_sum "Si O2"
_cell_formula_units_Z 56
_cell_length_a 14.552310
_cell_length_b 14.552310
_cell_length_c 12.723946
_cell_angle_alpha 90.000000
_cell_angle_beta 90.000000
_cell_angle_gamma 90.000000
_cell_volume 2694.546562
_symmetry_space_group_name_H-M "P 41 2 2"
_symmetry_group_IT_number 91
_symmetry_cell_setting 'tetragonal'
loop_
_space_group_symop_operation_xyz
x,y,z
-y,x,1/4+z
-x,-y,1/2+z
y,-x,3/4+z
x,-y,1/2-z
-x,y,-z
y,x,3/4-z
-y,-x,1/4-z
loop_
_atom_site_type_symbol
_atom_site_label
_atom_site_fract_x
_atom_site_fract_y
_atom_site_fract_z
Si Si1 0.059960 0.573095 0.658398
Si Si2 0.857757 0.434306 0.933069
Si Si3 0.854008 0.027266 0.555075
Si Si4 0.016623 0.326288 0.646519
Si Si5 0.189824 0.250439 0.181210
Si Si6 0.159918 0.629989 0.024244
Si Si7 0.838455 0.106893 0.228346
O O1 0.089204 0.500000 0.750000
O O2 0.120947 0.593743 0.555473
O O3 0.041404 0.338800 0.768063
O O4 0.959290 0.544901 0.615012
O O5 0.817347 0.357640 0.854346
O O6 0.802039 0.529769 0.946243
O O7 0.930932 0.069069 0.625000
O O8 0.797545 0.108143 0.498343
O O9 0.780456 0.976771 0.629881
O O10 0.894111 0.949407 0.482538
O O11 0.088813 0.379639 0.573899
O O12 0.911873 0.349289 0.617622
O O13 0.285512 0.224949 0.240403
O O14 0.169329 0.204223 0.069102
O O15 0.830499 0.169502 0.125000
O O16 0.806255 0.000000 0.250000
#
# Coordination Sequence:
#
# PCOD9548598 Si02
#       7
#     8   8   8   8   8   8   8
#     4  11  19  35  60  87 117 162 207 257 324 384
#     4  11  24  36  59  88 120 167 210 266 334 382
#     4  12  24  38  60  83 122 176 225 267 312 373
#     4  11  20  36  60  85 119 166 210 264 315 377
#     4  12  26  38  58  89 122 167 216 266 318 389
#     4  11  22  39  58  88 120 167 215 261 323 390
#     4  12  26  40  55  80 125 178 224 264 305 366
#
# _framework density 20.782719
#
# number of rings (size 3 to 8) (size 9 to 14) (size 15 to 20)
#    0.000    0.571    8.571    1.286    4.000    0.000 
#    0.000    0.000    0.000    0.000    0.000    0.000 
#    0.000    0.000  111.714    0.000    0.000    0.000 
#
# Total GULP energy -311991.830243 kJ/mol
# GULP energy per Si atom -5571.282683 kJ/mol
# Density = 2.073542 g / cm^3
# Si number density = 20.782719 Si / 1000 Ang^3
#
#
#
# Elastic Constant Matrix: (Units=GPa)
#
#
# Indices 1 2 3 4 5 6 
#
# 1 78.6275 27.2265 0.9027 0.0000 0.0000 0.0000
# 2 27.2265 78.6286 0.9020 0.0000 0.0000 0.0000
# 3 0.9027 0.9020 82.5284 0.0000 0.0000 0.0000
# 4 0.0000 0.0000 0.0000 30.6560 0.0000 0.0000
# 5 0.0000 0.0000 0.0000 0.0000 30.6557 0.0000
# 6 0.0000 0.0000 0.0000 0.0000 0.0000 10.5567
#
#
#
# Elastic Compliance Matrix: (Units=1/GPa)
#
#
# Indices 1 2 3 4 5 6 
#
# 1 0.014452 -0.005003 -0.000103 0.000000 0.000000 0.000000
# 2 -0.005003 0.014452 -0.000103 0.000000 0.000000 0.000000
# 3 -0.000103 -0.000103 0.012119 0.000000 0.000000 0.000000
# 4 0.000000 0.000000 0.000000 0.032620 0.000000 0.000000
# 5 0.000000 0.000000 0.000000 0.000000 0.032620 0.000000
# 6 0.000000 0.000000 0.000000 0.000000 0.000000 0.094726
#
#
# Mechanical properties :
#
#
# Convention : Reuss Voigt Hill
#
# Bulk Modulus (GPa) = 32.67606 33.09409 32.88507
# Shear Modulus (GPa) = 22.56220 28.42391 25.49305
#
# Velocity S-wave (km/s) = 3.29845 3.70221 3.50615
# Velocity P-wave (km/s) = 5.50120 5.85095 5.67877
#
# Compressibility (1/GPa) = 0.03060345
#
# Stress axis : x y z
#
# Youngs Moduli (GPa) = 69.19564 69.19665 82.51298
#
# Poissons Ratio (x) = 0.34619 0.00853
# Poissons Ratio (y) = 0.34618 0.00852
# Poissons Ratio (z) = 0.00715 0.00714
#
# Static dielectric constant tensor:
#      x y z
#    x 1.843120 0.000000 0.000000 
#    y 0.000000 1.843120 0.000000 
#    z 0.000000 0.000000 1.950510 
# 
# From -- ./inp_files/16549.got.cif
#   From: 2010.05.17/outbox.cif.g08.bks.cpg/sg91_9_cif.got.tgz:16549.got - 2010.06.03 19:20:03.
