data_PCOD9548089
_publ_section_title
;
Structure prediction by ZEFSAII (Michael W. Deem and Ramdas Pophale) SiO2 
 PCOD9548089
Probable space group: P 41 2 2
;
_chemical_formula_sum "Si O2"
_cell_formula_units_Z 32
_cell_length_a 8.932673
_cell_length_b 8.932673
_cell_length_c 18.838506
_cell_angle_alpha 90.000000
_cell_angle_beta 90.000000
_cell_angle_gamma 90.000000
_cell_volume 1503.174258
_symmetry_space_group_name_H-M "P 41 2 2"
_symmetry_group_IT_number 91
_symmetry_cell_setting 'tetragonal'
loop_
_space_group_symop_operation_xyz
x,y,z
-y,x,1/4+z
-x,-y,1/2+z
y,-x,3/4+z
x,-y,1/2-z
-x,y,-z
y,x,3/4-z
-y,-x,1/4-z
loop_
_atom_site_type_symbol
_atom_site_label
_atom_site_fract_x
_atom_site_fract_y
_atom_site_fract_z
Si Si1 0.079509 0.725115 0.838751
Si Si2 0.893691 0.834228 0.717900
Si Si3 0.140956 0.402558 0.453118
Si Si4 0.583713 0.613947 0.573604
O O1 0.142906 0.869129 0.883730
O O2 0.214689 0.609661 0.844401
O O3 0.026111 0.747049 0.757637
O O4 0.936086 0.669688 0.883569
O O5 0.732560 0.784033 0.751037
O O6 0.910467 0.000000 0.750000
O O7 0.257590 0.529513 0.433894
O O8 0.000000 0.457503 0.500000
O O9 0.500000 0.612349 0.500000
O O10 0.481212 0.518789 0.625000
#
# Coordination Sequence:
#
# PCOD9548089 Si02
#       4
#     8   8   8   8
#     4  10  21  36  62  91 123 165 215 264 315 383
#     4   9  17  36  60  88 117 156 208 259 314 375
#     4   9  19  39  63  86 118 162 213 263 319 386
#     4  12  25  41  61  91 130 169 212 266 325 386
#
# _framework density 21.288281999999999
#
# number of rings (size 3 to 8) (size 9 to 14) (size 15 to 20)
#    0.000    2.500    0.000    7.500    0.000    3.000 
#    0.000    3.750    0.000    0.000    0.000    0.000 
#    0.000    0.000    0.000    0.000    0.000    0.000 
#
# Total GULP energy -178445.448100 kJ/mol
# GULP energy per Si atom -5576.420253 kJ/mol
# Density = 2.123983 g / cm^3
# Si number density = 21.288282 Si / 1000 Ang^3
#
#
#
# Elastic Constant Matrix: (Units=GPa)
#
#
# Indices 1 2 3 4 5 6 
#
# 1 56.9636 38.4869 27.1399 0.0000 0.0000 0.0000
# 2 38.4869 56.9637 27.1399 0.0000 0.0000 0.0000
# 3 27.1399 27.1399 101.8969 0.0000 0.0000 0.0000
# 4 0.0000 0.0000 0.0000 23.0221 0.0000 0.0000
# 5 0.0000 0.0000 0.0000 0.0000 23.0251 0.0000
# 6 0.0000 0.0000 0.0000 0.0000 0.0000 77.4450
#
#
#
# Elastic Compliance Matrix: (Units=1/GPa)
#
#
# Indices 1 2 3 4 5 6 
#
# 1 0.033234 -0.020888 -0.003289 0.000000 0.000000 0.000000
# 2 -0.020888 0.033234 -0.003288 0.000000 0.000000 0.000000
# 3 -0.003289 -0.003288 0.011566 0.000000 0.000000 0.000000
# 4 0.000000 0.000000 0.000000 0.043437 0.000000 0.000000
# 5 0.000000 0.000000 0.000000 0.000000 0.043431 0.000000
# 6 0.000000 0.000000 0.000000 0.000000 0.000000 0.012912
#
#
# Mechanical properties :
#
#
# Convention : Reuss Voigt Hill
#
# Bulk Modulus (GPa) = 43.28068 44.59528 43.93798
# Shear Modulus (GPa) = 20.79475 32.90227 26.84851
#
# Velocity S-wave (km/s) = 3.12880 3.93562 3.55517
# Velocity P-wave (km/s) = 5.78164 6.45337 6.12672
#
# Compressibility (1/GPa) = 0.02310500
#
# Stress axis : x y z
#
# Youngs Moduli (GPa) = 30.08926 30.08935 86.46335
#
# Poissons Ratio (x) = 0.62850 0.28434
# Poissons Ratio (y) = 0.62850 0.28433
# Poissons Ratio (z) = 0.09895 0.09895
#
# Static dielectric constant tensor:
#      x y z
#    x 1.773850 0.000000 0.000000 
#    y 0.000000 1.773850 0.000000 
#    z 0.000000 0.000000 1.813040 
# 
# From -- ./inp_files/6029.got.cif
#   From: 2010.05.17/outbox.cif.g08.bks.cpg/sg91_4_cif.got.tgz:6029.got - 2010.06.03 19:20:03.
