data_PCOD9548920
_publ_section_title
;
Structure prediction by ZEFSAII (Michael W. Deem and Ramdas Pophale) SiO2 
 PCOD9548920
Probable space group: P 41 21 2
;
_chemical_formula_sum "Si O2"
_cell_formula_units_Z 44
_cell_length_a 25.367382
_cell_length_b 25.367382
_cell_length_c 5.102062
_cell_angle_alpha 90.000000
_cell_angle_beta 90.000000
_cell_angle_gamma 90.000000
_cell_volume 3283.197660
_symmetry_space_group_name_H-M "P 41 21 2"
_symmetry_group_IT_number 92
_symmetry_cell_setting 'tetragonal'
loop_
_space_group_symop_operation_xyz
x,y,z
1/2-y,1/2+x,1/4+z
-x,-y,1/2+z
1/2+y,1/2-x,3/4+z
1/2+x,1/2-y,3/4-z
1/2-x,1/2+y,1/4-z
y,x,-z
-y,-x,1/2-z
loop_
_atom_site_type_symbol
_atom_site_label
_atom_site_fract_x
_atom_site_fract_y
_atom_site_fract_z
Si Si1 0.281467 0.664313 0.001129
Si Si2 0.430858 0.656935 0.324829
Si Si3 0.525299 0.525299 0.000000
Si Si4 0.700971 0.754868 0.750366
Si Si5 0.673125 0.618325 0.250066
Si Si6 0.143886 0.999658 0.582213
O O1 0.314504 0.685496 0.750000
O O2 0.221137 0.684846 0.983407
O O3 0.305594 0.694407 0.250000
O O4 0.294505 0.603903 0.063156
O O5 0.389389 0.610612 0.250000
O O6 0.467469 0.639287 0.564716
O O7 0.465027 0.668514 0.065459
O O8 0.491146 0.508854 0.250000
O O9 0.585692 0.515188 0.069146
O O10 0.728022 0.728022 0.500000
O O11 0.641774 0.732651 0.742946
O O12 0.727845 0.727845 0.000000
O O13 0.640433 0.640433 0.500000
O O14 0.672268 0.555557 0.227637
O O15 0.643431 0.643431 0.000000
#
# Coordination Sequence:
#
# PCOD9548920 Si02
#       6
#     8   8   4   8   8   8
#     4   9  16  28  45  62  76  94 122 165 209 251
#     4  11  21  32  42  57  78 103 136 171 205 238
#     4  12  24  32  40  50  70 104 150 178 200 224
#     4   8  15  27  45  62  75  91 119 161 210 249
#     4  10  19  32  44  58  77 100 132 172 207 242
#     4  12  22  32  42  56  76 107 139 175 208 231
#
# _framework density 13.40157
#
# number of rings (size 3 to 8) (size 9 to 14) (size 15 to 20)
#    0.000    1.818    0.909    6.545    1.273    0.000 
#    0.000    0.000    0.000    0.000    0.000    0.000 
#    0.000    0.000    0.000    0.000    0.000    3.636 
#
# Total GULP energy -245080.263703 kJ/mol
# GULP energy per Si atom -5570.005993 kJ/mol
# Density = 1.337107 g / cm^3
# Si number density = 13.401570 Si / 1000 Ang^3
#
#
#
# Elastic Constant Matrix: (Units=GPa)
#
#
# Indices 1 2 3 4 5 6 
#
# 1 59.6389 60.2491 20.2157 0.0000 0.0000 0.0000
# 2 60.2491 59.6388 20.2157 0.0000 0.0000 0.0000
# 3 20.2157 20.2157 105.2356 0.0000 0.0000 0.0000
# 4 0.0000 0.0000 0.0000 11.6353 0.0000 0.0000
# 5 0.0000 0.0000 0.0000 0.0000 11.6348 0.0000
# 6 0.0000 0.0000 0.0000 0.0000 0.0000 19.2590
#
#
#
# Elastic Compliance Matrix: (Units=1/GPa)
#
#
# Indices 1 2 3 4 5 6 
#
# 1 -0.814853 0.823773 -0.001713 0.000000 0.000000 0.000000
# 2 0.823773 -0.814854 -0.001713 0.000000 0.000000 0.000000
# 3 -0.001713 -0.001713 0.010161 0.000000 0.000000 0.000000
# 4 0.000000 0.000000 0.000000 0.085945 0.000000 0.000000
# 5 0.000000 0.000000 0.000000 0.000000 0.085949 0.000000
# 6 0.000000 0.000000 0.000000 0.000000 0.000000 0.051924
#
#
# Mechanical properties :
#
#
# Convention : Reuss Voigt Hill
#
# Bulk Modulus (GPa) = 47.29179 47.31935 47.30557
# Shear Modulus (GPa) = -1.65051 16.76135 7.55542
#
# Velocity S-wave (km/s) = -1.11097 3.54036 2.37696
# Velocity P-wave (km/s) = 5.80682 7.21787 6.55045
#
# Compressibility (1/GPa) = 0.02114532
#
# Stress axis : x y z
#
# Youngs Moduli (GPa) = -1.22721 -1.22721 98.41799
#
# Poissons Ratio (x) = 1.01094 0.16862
# Poissons Ratio (y) = 1.01095 0.16862
# Poissons Ratio (z) = -0.00210 -0.00210
#
# Static dielectric constant tensor:
#      x y z
#    x 1.465150 0.000000 0.000000 
#    y 0.000000 1.465150 0.000000 
#    z 0.000000 0.000000 1.461420 
# 
# From -- ./inp_files/787.got.cif
#   From: 2010.05.17/outbox.cif.g08.bks.cpg/sg92_1_cif.got.tgz:787.got - 2010.06.03 19:35:17.
