data_PCOD9548571
_publ_section_title
;
Structure prediction by ZEFSAII (Michael W. Deem and Ramdas Pophale) SiO2 
 PCOD9548571
Probable space group: P 41 2 2
;
_chemical_formula_sum "Si O2"
_cell_formula_units_Z 40
_cell_length_a 11.220958
_cell_length_b 11.220958
_cell_length_c 17.076439
_cell_angle_alpha 90.000000
_cell_angle_beta 90.000000
_cell_angle_gamma 90.000000
_cell_volume 2150.092700
_symmetry_space_group_name_H-M "P 41 2 2"
_symmetry_group_IT_number 91
_symmetry_cell_setting 'tetragonal'
loop_
_space_group_symop_operation_xyz
x,y,z
-y,x,1/4+z
-x,-y,1/2+z
y,-x,3/4+z
x,-y,1/2-z
-x,y,-z
y,x,3/4-z
-y,-x,1/4-z
loop_
_atom_site_type_symbol
_atom_site_label
_atom_site_fract_x
_atom_site_fract_y
_atom_site_fract_z
Si Si1 0.000000 0.437266 0.500000
Si Si2 0.747530 0.933899 0.623387
Si Si3 0.195721 0.804280 0.625000
Si Si4 0.410295 0.713376 0.429068
Si Si5 0.244730 0.431893 0.971578
Si Si6 0.976888 0.868722 0.726243
O O1 0.996434 0.352322 0.424921
O O2 0.878243 0.511089 0.500380
O O3 0.684908 0.818698 0.585092
O O4 0.854097 0.890522 0.680532
O O5 0.798151 0.022140 0.557527
O O6 0.305484 0.790467 0.683538
O O7 0.070692 0.803862 0.670215
O O8 0.500000 0.746459 0.500000
O O9 0.339270 0.598012 0.460482
O O10 0.485969 0.703056 0.348826
O O11 0.024478 0.000000 0.750000
#
# Coordination Sequence:
#
# PCOD9548571 Si02
#       6
#     4   8   4   8   8   8
#     4  10  26  40  62  92 134 174 204 274 320 388
#     4  11  23  40  62  95 136 166 202 260 333 386
#     4  12  22  36  68 102 118 162 214 274 308 382
#     4  11  21  42  66  92 121 168 215 271 312 368
#     4  11  23  41  68  93 129 163 221 267 321 375
#     4  12  22  36  63  97 131 166 204 252 327 402
#
# _framework density 18.603849
#
# number of rings (size 3 to 8) (size 9 to 14) (size 15 to 20)
#    0.000    0.800    7.000    0.000    4.200    0.000 
#    0.000    0.000   22.000    0.000    0.000    0.000 
#    0.000    0.000    0.000    0.000    0.000    0.000 
#
# Total GULP energy -223356.940244 kJ/mol
# GULP energy per Si atom -5583.923506 kJ/mol
# Density = 1.856151 g / cm^3
# Si number density = 18.603849 Si / 1000 Ang^3
#
#
#
# Elastic Constant Matrix: (Units=GPa)
#
#
# Indices 1 2 3 4 5 6 
#
# 1 91.7973 56.8191 58.3189 0.0000 0.0000 0.0000
# 2 56.8191 91.7984 58.3195 0.0000 0.0000 0.0000
# 3 58.3189 58.3195 105.4380 0.0000 0.0000 0.0000
# 4 0.0000 0.0000 0.0000 33.4499 0.0000 0.0000
# 5 0.0000 0.0000 0.0000 0.0000 33.4496 0.0000
# 6 0.0000 0.0000 0.0000 0.0000 0.0000 17.3502
#
#
#
# Elastic Compliance Matrix: (Units=1/GPa)
#
#
# Indices 1 2 3 4 5 6 
#
# 1 0.020240 -0.008349 -0.006577 0.000000 0.000000 0.000000
# 2 -0.008349 0.020239 -0.006577 0.000000 0.000000 0.000000
# 3 -0.006577 -0.006577 0.016760 0.000000 0.000000 0.000000
# 4 0.000000 0.000000 0.000000 0.029895 0.000000 0.000000
# 5 0.000000 0.000000 0.000000 0.000000 0.029896 0.000000
# 6 0.000000 0.000000 0.000000 0.000000 0.000000 0.057636
#
#
# Mechanical properties :
#
#
# Convention : Reuss Voigt Hill
#
# Bulk Modulus (GPa) = 70.25739 70.66098 70.45919
# Shear Modulus (GPa) = 22.48045 24.55503 23.51774
#
# Velocity S-wave (km/s) = 3.47994 3.63697 3.55932
# Velocity P-wave (km/s) = 7.34804 7.46332 7.40590
#
# Compressibility (1/GPa) = 0.01423338
#
# Stress axis : x y z
#
# Youngs Moduli (GPa) = 49.40810 49.40848 59.66758
#
# Poissons Ratio (x) = 0.41253 0.39241
# Poissons Ratio (y) = 0.41252 0.39241
# Poissons Ratio (z) = 0.32494 0.32494
#
# Static dielectric constant tensor:
#      x y z
#    x 1.631380 0.000000 0.000000 
#    y 0.000000 1.631380 0.000000 
#    z 0.000000 0.000000 1.677850 
# 
# From -- ./inp_files/11406.got.cif
#   From: 2010.05.17/outbox.cif.g08.bks.cpg/sg91_6_cif.got.tgz:11406.got - 2010.06.03 19:20:03.
