data_PCOD9548184
_publ_section_title
;
Structure prediction by ZEFSAII (Michael W. Deem and Ramdas Pophale) SiO2 
 PCOD9548184
Probable space group: P 41 2 2
;
_chemical_formula_sum "Si O2"
_cell_formula_units_Z 60
_cell_length_a 18.155087
_cell_length_b 18.155087
_cell_length_c 9.491792
_cell_angle_alpha 90.000000
_cell_angle_beta 90.000000
_cell_angle_gamma 90.000000
_cell_volume 3128.562832
_symmetry_space_group_name_H-M "P 41 2 2"
_symmetry_group_IT_number 91
_symmetry_cell_setting 'tetragonal'
loop_
_space_group_symop_operation_xyz
x,y,z
-y,x,1/4+z
-x,-y,1/2+z
y,-x,3/4+z
x,-y,1/2-z
-x,y,-z
y,x,3/4-z
-y,-x,1/4-z
loop_
_atom_site_type_symbol
_atom_site_label
_atom_site_fract_x
_atom_site_fract_y
_atom_site_fract_z
Si Si1 0.284661 0.775228 0.977155
Si Si2 0.838580 0.117691 0.343348
Si Si3 0.009094 0.664747 0.841793
Si Si4 0.030202 0.190133 0.803261
Si Si5 0.574224 0.136699 0.585292
Si Si6 0.500000 0.417629 0.000000
Si Si7 0.310506 0.364593 0.723450
Si Si8 0.427765 0.153312 0.085686
O O1 0.225310 0.827966 0.899001
O O2 0.305714 0.702837 0.886700
O O3 0.249273 0.750728 0.125000
O O4 0.358784 0.818775 0.015908
O O5 0.814149 0.077954 0.196721
O O6 0.912457 0.163447 0.314067
O O7 0.854897 0.045786 0.438118
O O8 0.948141 0.601066 0.833043
O O9 0.001026 0.728326 0.728427
O O10 0.089805 0.632343 0.822601
O O11 0.000000 0.696007 0.000000
O O12 0.500000 0.146364 0.500000
O O13 0.560707 0.160927 0.746567
O O14 0.533078 0.466922 0.125000
O O15 0.432292 0.366666 0.055667
O O16 0.229543 0.399270 0.726475
O O17 0.332747 0.332747 0.875000
O O18 0.500000 0.130988 0.000000
#
# Coordination Sequence:
#
# PCOD9548184 Si02
#       8
#     8   8   8   8   8   4   8   8
#     4  12  25  44  66  99 138 174 227 283 344 411
#     4  10  23  39  69  97 133 180 228 281 336 405
#     4  10  22  41  64  94 131 176 215 272 334 400
#     4  10  21  41  66  95 135 173 231 277 331 403
#     4  11  25  43  64  97 136 172 228 278 337 409
#     4  10  24  48  68  96 134 174 226 278 340 416
#     4  11  25  42  70 101 131 173 225 281 335 410
#     4  11  23  42  65  94 135 172 218 272 337 401
#
# _framework density 19.178135000000001
#
# number of rings (size 3 to 8) (size 9 to 14) (size 15 to 20)
#    0.000    1.333    3.333    1.200    7.467    0.533 
#    1.200    0.000   23.467    0.000    0.000    0.000 
#    0.000    0.000    0.000    0.000    0.000    0.000 
#
# Total GULP energy -334965.481217 kJ/mol
# GULP energy per Si atom -5582.758020 kJ/mol
# Density = 1.913448 g / cm^3
# Si number density = 19.178135 Si / 1000 Ang^3
#
#
#
# Elastic Constant Matrix: (Units=GPa)
#
#
# Indices 1 2 3 4 5 6 
#
# 1 76.1265 71.3034 44.6835 0.0000 0.0000 0.0000
# 2 71.3034 76.1232 44.6638 0.0000 0.0000 0.0000
# 3 44.6835 44.6638 49.4416 0.0000 0.0000 0.0000
# 4 0.0000 0.0000 0.0000 26.0182 0.0000 0.0000
# 5 0.0000 0.0000 0.0000 0.0000 26.0209 0.0000
# 6 0.0000 0.0000 0.0000 0.0000 0.0000 17.6067
#
#
#
# Elastic Compliance Matrix: (Units=1/GPa)
#
#
# Indices 1 2 3 4 5 6 
#
# 1 0.111251 -0.096207 -0.013634 0.000000 0.000000 0.000000
# 2 -0.096207 0.111150 -0.013461 0.000000 0.000000 0.000000
# 3 -0.013634 -0.013461 0.044708 0.000000 0.000000 0.000000
# 4 0.000000 0.000000 0.000000 0.038435 0.000000 0.000000
# 5 0.000000 0.000000 0.000000 0.000000 0.038431 0.000000
# 6 0.000000 0.000000 0.000000 0.000000 0.000000 0.056797
#
#
# Mechanical properties :
#
#
# Convention : Reuss Voigt Hill
#
# Bulk Modulus (GPa) = 48.76912 58.11029 53.43971
# Shear Modulus (GPa) = 7.64282 16.66521 12.15401
#
# Velocity S-wave (km/s) = 1.99846 2.95103 2.52016
# Velocity P-wave (km/s) = 5.55066 6.47900 6.03272
#
# Compressibility (1/GPa) = 0.02050478
#
# Stress axis : x y z
#
# Youngs Moduli (GPa) = 8.98871 8.99683 22.36758
#
# Poissons Ratio (x) = 0.86556 0.30496
# Poissons Ratio (y) = 0.86478 0.30108
# Poissons Ratio (z) = 0.12255 0.12110
#
# Static dielectric constant tensor:
#      x y z
#    x 1.663640 0.000000 0.000000 
#    y 0.000000 1.663630 0.000000 
#    z 0.000000 0.000000 1.712380 
# 
# From -- ./inp_files/10067.got.cif
#   From: 2010.05.17/outbox.cif.g08.bks.cpg/sg91_6_cif.got.tgz:10067.got - 2010.06.03 19:20:03.
