data_PCOD9548528
_publ_section_title
;
Structure prediction by ZEFSAII (Michael W. Deem and Ramdas Pophale) SiO2 
 PCOD9548528
Probable space group: P 41 2 2
;
_chemical_formula_sum "Si O2"
_cell_formula_units_Z 32
_cell_length_a 8.411159
_cell_length_b 8.411159
_cell_length_c 19.718846
_cell_angle_alpha 90.000000
_cell_angle_beta 90.000000
_cell_angle_gamma 90.000000
_cell_volume 1395.060945
_symmetry_space_group_name_H-M "P 41 2 2"
_symmetry_group_IT_number 91
_symmetry_cell_setting 'tetragonal'
loop_
_space_group_symop_operation_xyz
x,y,z
-y,x,1/4+z
-x,-y,1/2+z
y,-x,3/4+z
x,-y,1/2-z
-x,y,-z
y,x,3/4-z
-y,-x,1/4-z
loop_
_atom_site_type_symbol
_atom_site_label
_atom_site_fract_x
_atom_site_fract_y
_atom_site_fract_z
Si Si1 0.660202 0.660202 0.375000
Si Si2 0.634621 0.819212 0.925584
Si Si3 0.475825 0.500000 0.250000
Si Si4 0.605496 0.979212 0.174358
Si Si5 0.961766 0.111530 0.308781
O O1 0.584917 0.569873 0.309640
O O2 0.846679 0.631628 0.391267
O O3 0.774183 0.774183 0.875000
O O4 0.616905 0.658108 0.967985
O O5 0.486813 0.871765 0.880285
O O6 0.711832 0.974603 0.958520
O O7 0.527950 0.000000 0.250000
O O8 0.771537 0.892076 0.189786
O O9 0.025212 0.000000 0.250000
O O10 0.015955 0.015955 0.375000
#
# Coordination Sequence:
#
# PCOD9548528 Si02
#       5
#     4   8   4   8   8
#     4  12  28  50  80 110 164 208 264 344 392 506
#     4  11  26  44  72 109 149 201 251 325 383 478
#     4  12  28  46  76 114 158 206 268 312 426 454
#     4  11  26  47  78 111 151 203 262 323 407 465
#     4  10  24  45  71 105 145 190 251 309 381 456
#
# _framework density 22.938063
#
# number of rings (size 3 to 8) (size 9 to 14) (size 15 to 20)
#    0.000    1.000    2.500    1.500    7.000    9.000 
#    0.000    0.000    0.000    0.000    0.000    0.000 
#    0.000    0.000    0.000    0.000    0.000    0.000 
#
# Total GULP energy -178400.634503 kJ/mol
# GULP energy per Si atom -5575.019828 kJ/mol
# Density = 2.288586 g / cm^3
# Si number density = 22.938063 Si / 1000 Ang^3
#
#
#
# Elastic Constant Matrix: (Units=GPa)
#
#
# Indices 1 2 3 4 5 6 
#
# 1 64.1285 47.5740 24.5265 0.0000 0.0000 0.0000
# 2 47.5740 64.1285 24.5265 0.0000 0.0000 0.0000
# 3 24.5265 24.5265 119.1718 0.0000 0.0000 0.0000
# 4 0.0000 0.0000 0.0000 -32.1003 0.0000 0.0000
# 5 0.0000 0.0000 0.0000 0.0000 -32.1003 0.0000
# 6 0.0000 0.0000 0.0000 0.0000 0.0000 39.0850
#
#
#
# Elastic Compliance Matrix: (Units=1/GPa)
#
#
# Indices 1 2 3 4 5 6 
#
# 1 0.035124 -0.025282 -0.002026 0.000000 0.000000 0.000000
# 2 -0.025282 0.035124 -0.002026 0.000000 0.000000 0.000000
# 3 -0.002026 -0.002026 0.009225 0.000000 0.000000 0.000000
# 4 0.000000 0.000000 0.000000 -0.031152 0.000000 0.000000
# 5 0.000000 0.000000 0.000000 0.000000 -0.031152 0.000000
# 6 0.000000 0.000000 0.000000 0.000000 0.000000 0.025585
#
#
# Mechanical properties :
#
#
# Convention : Reuss Voigt Hill
#
# Bulk Modulus (GPa) = 48.06179 48.96477 48.51328
# Shear Modulus (GPa) = 46.14430 5.03034 25.58732
#
# Velocity S-wave (km/s) = 4.49005 1.48249 3.34353
# Velocity P-wave (km/s) = 6.91947 4.93186 6.00842
#
# Compressibility (1/GPa) = 0.02080655
#
# Stress axis : x y z
#
# Youngs Moduli (GPa) = 28.47050 28.47050 108.40126
#
# Poissons Ratio (x) = 0.71980 0.21957
# Poissons Ratio (y) = 0.71980 0.21957
# Poissons Ratio (z) = 0.05767 0.05767
#
# Static dielectric constant tensor:
#      x y z
#    x 2.231870 0.000000 0.000000 
#    y 0.000000 2.231870 0.000000 
#    z 0.000000 0.000000 0.868420 
# 
# From -- ./inp_files/17162.got.cif
#   From: 2010.05.17/outbox.cif.g08.bks.cpg/sg91_9_cif.got.tgz:17162.got - 2010.06.03 19:20:03.
