data_PCOD9548894
_publ_section_title
;
Structure prediction by ZEFSAII (Michael W. Deem and Ramdas Pophale) SiO2 
 PCOD9548894
Probable space group: P 41 21 2
;
_chemical_formula_sum "Si O2"
_cell_formula_units_Z 56
_cell_length_a 12.107118
_cell_length_b 12.107118
_cell_length_c 18.151430
_cell_angle_alpha 90.000000
_cell_angle_beta 90.000000
_cell_angle_gamma 90.000000
_cell_volume 2660.678471
_symmetry_space_group_name_H-M "P 41 21 2"
_symmetry_group_IT_number 92
_symmetry_cell_setting 'tetragonal'
loop_
_space_group_symop_operation_xyz
x,y,z
1/2-y,1/2+x,1/4+z
-x,-y,1/2+z
1/2+y,1/2-x,3/4+z
1/2+x,1/2-y,3/4-z
1/2-x,1/2+y,1/4-z
y,x,-z
-y,-x,1/2-z
loop_
_atom_site_type_symbol
_atom_site_label
_atom_site_fract_x
_atom_site_fract_y
_atom_site_fract_z
Si Si1 0.849885 0.784369 0.576401
Si Si2 0.303448 0.758830 0.668375
Si Si3 0.644421 0.893835 0.638374
Si Si4 0.062485 0.462638 0.524735
Si Si5 0.676157 0.071127 0.381076
Si Si6 0.992344 0.203937 0.673604
Si Si7 0.927613 0.216947 0.833236
O O1 0.852940 0.852940 0.500000
O O2 0.759148 0.824498 0.636588
O O3 0.793789 0.669548 0.553319
O O4 0.969340 0.759450 0.608182
O O5 0.292920 0.707081 0.750000
O O6 0.352153 0.882003 0.681024
O O7 0.184114 0.743442 0.631441
O O8 0.393901 0.697291 0.618812
O O9 0.563388 0.921425 0.707138
O O10 0.561197 0.824717 0.588785
O O11 0.700796 0.007927 0.612993
O O12 0.099026 0.449650 0.440602
O O13 0.074554 0.587506 0.552954
O O14 0.999321 0.187703 0.760905
O O15 0.898948 0.121504 0.640757
#
# Coordination Sequence:
#
# PCOD9548894 Si02
#       7
#     8   8   8   8   8   8   8
#     4  11  22  39  63  99 141 165 217 296 351 419
#     4   9  21  43  62  87 129 173 233 282 325 409
#     4  10  20  34  62  93 127 169 215 269 340 408
#     4  10  23  40  70  96 129 184 236 276 344 427
#     4  11  24  41  68  98 134 183 233 289 350 426
#     4   9  19  37  59  86 121 168 208 271 325 403
#     4  10  18  34  62  88 126 163 211 265 343 406
#
# _framework density 21.047263000000001
#
# number of rings (size 3 to 8) (size 9 to 14) (size 15 to 20)
#    0.000    2.000    4.286    0.000    6.000    1.143 
#    2.571    2.143    0.000    0.000    0.000    0.000 
#    0.000    0.000    0.000    0.000    0.000    0.000 
#
# Total GULP energy -311744.771786 kJ/mol
# GULP energy per Si atom -5566.870925 kJ/mol
# Density = 2.099936 g / cm^3
# Si number density = 21.047263 Si / 1000 Ang^3
#
#
#
# Elastic Constant Matrix: (Units=GPa)
#
#
# Indices 1 2 3 4 5 6 
#
# 1 125.3022 48.3389 39.6061 0.0000 0.0000 0.0000
# 2 48.3389 125.3025 39.6058 0.0000 0.0000 0.0000
# 3 39.6061 39.6058 41.8576 0.0000 0.0000 0.0000
# 4 0.0000 0.0000 0.0000 20.6607 0.0000 0.0000
# 5 0.0000 0.0000 0.0000 0.0000 20.6608 0.0000
# 6 0.0000 0.0000 0.0000 0.0000 0.0000 31.7775
#
#
#
# Elastic Compliance Matrix: (Units=1/GPa)
#
#
# Indices 1 2 3 4 5 6 
#
# 1 0.011563 -0.001430 -0.009588 0.000000 0.000000 0.000000
# 2 -0.001430 0.011563 -0.009588 0.000000 0.000000 0.000000
# 3 -0.009588 -0.009588 0.042034 0.000000 0.000000 0.000000
# 4 0.000000 0.000000 0.000000 0.048401 0.000000 0.000000
# 5 0.000000 0.000000 0.000000 0.000000 0.048401 0.000000
# 6 0.000000 0.000000 0.000000 0.000000 0.000000 0.031469
#
#
# Mechanical properties :
#
#
# Convention : Reuss Voigt Hill
#
# Bulk Modulus (GPa) = 41.75512 60.84043 51.29777
# Shear Modulus (GPa) = 20.60793 25.61389 23.11091
#
# Velocity S-wave (km/s) = 3.13249 3.49229 3.31728
# Velocity P-wave (km/s) = 5.74153 6.72539 6.25284
#
# Compressibility (1/GPa) = 0.02394916
#
# Stress axis : x y z
#
# Youngs Moduli (GPa) = 86.48280 86.48367 23.79010
#
# Poissons Ratio (x) = 0.12369 0.22809
# Poissons Ratio (y) = 0.12369 0.22809
# Poissons Ratio (z) = 0.82917 0.82916
#
# Static dielectric constant tensor:
#      x y z
#    x 1.820400 0.000000 0.000000 
#    y 0.000000 1.820400 0.000000 
#    z 0.000000 0.000000 1.722580 
# 
# From -- ./inp_files/3565.got.cif
#   From: 2010.05.17/outbox.cif.g08.bks.cpg/sg92_2_cif.got.tgz:3565.got - 2010.06.03 19:35:17.
