data_PCOD9548614
_publ_section_title
;
Structure prediction by ZEFSAII (Michael W. Deem and Ramdas Pophale) SiO2 
 PCOD9548614
Probable space group: P 41 2 2
;
_chemical_formula_sum "Si O2"
_cell_formula_units_Z 60
_cell_length_a 18.785575
_cell_length_b 18.785575
_cell_length_c 8.603407
_cell_angle_alpha 90.000000
_cell_angle_beta 90.000000
_cell_angle_gamma 90.000000
_cell_volume 3036.123644
_symmetry_space_group_name_H-M "P 41 2 2"
_symmetry_group_IT_number 91
_symmetry_cell_setting 'tetragonal'
loop_
_space_group_symop_operation_xyz
x,y,z
-y,x,1/4+z
-x,-y,1/2+z
y,-x,3/4+z
x,-y,1/2-z
-x,y,-z
y,x,3/4-z
-y,-x,1/4-z
loop_
_atom_site_type_symbol
_atom_site_label
_atom_site_fract_x
_atom_site_fract_y
_atom_site_fract_z
Si Si1 0.298427 0.019888 0.568742
Si Si2 0.262822 0.657299 0.327339
Si Si3 0.848591 0.788681 0.714058
Si Si4 0.552686 0.940657 0.121546
Si Si5 0.245785 0.389540 0.519352
Si Si6 0.543053 0.196754 0.203814
Si Si7 0.337865 0.136608 0.013416
Si Si8 0.807045 0.807045 0.375000
O O1 0.235858 0.070135 0.513631
O O2 0.368342 0.069689 0.558795
O O3 0.285831 0.000000 0.750000
O O4 0.317392 0.946095 0.484515
O O5 0.206507 0.722429 0.311778
O O6 0.340503 0.692930 0.345039
O O7 0.244167 0.602310 0.461861
O O8 0.257931 0.615739 0.163904
O O9 0.843855 0.825726 0.541639
O O10 0.825507 0.825507 0.875000
O O11 0.520688 0.867283 0.181032
O O12 0.561846 0.000000 0.250000
O O13 0.500000 0.973710 0.000000
O O14 0.239942 0.470881 0.575880
O O15 0.173355 0.348750 0.570621
O O16 0.587599 0.153473 0.073286
O O17 0.275143 0.175049 0.915579
#
# Coordination Sequence:
#
# PCOD9548614 Si02
#       8
#     8   8   8   8   8   8   8   4
#     4  11  21  40  60  86 132 175 201 264 328 385
#     4  11  20  42  58  81 129 158 215 283 325 376
#     4  12  22  40  66  91 127 172 225 277 312 387
#     4  11  22  35  51  78 118 175 205 244 311 389
#     4  11  24  35  60  93 116 163 222 269 321 403
#     4  12  22  37  60  85 123 169 218 262 333 401
#     4  12  21  39  61  91 127 164 211 260 330 397
#     4  12  20  40  68  86 126 176 212 270 336 372
#
# _framework density 19.762041
#
# number of rings (size 3 to 8) (size 9 to 14) (size 15 to 20)
#    0.000    0.533    9.333    1.600    1.867    0.000 
#    0.000    2.667    0.000    0.000    0.000   20.533 
#    8.000    0.000    0.000    0.000    0.000    0.000 
#
# Total GULP energy -334726.107474 kJ/mol
# GULP energy per Si atom -5578.768458 kJ/mol
# Density = 1.971706 g / cm^3
# Si number density = 19.762041 Si / 1000 Ang^3
#
#
#
# Elastic Constant Matrix: (Units=GPa)
#
#
# Indices 1 2 3 4 5 6 
#
# 1 90.7332 59.2173 36.2594 0.0000 0.0000 0.0000
# 2 59.2173 90.7332 36.2594 0.0000 0.0000 0.0000
# 3 36.2594 36.2594 77.4296 0.0000 0.0000 0.0000
# 4 0.0000 0.0000 0.0000 8.3342 0.0000 0.0000
# 5 0.0000 0.0000 0.0000 0.0000 8.3342 0.0000
# 6 0.0000 0.0000 0.0000 0.0000 0.0000 38.9959
#
#
#
# Elastic Compliance Matrix: (Units=1/GPa)
#
#
# Indices 1 2 3 4 5 6 
#
# 1 0.020176 -0.011554 -0.004037 0.000000 0.000000 0.000000
# 2 -0.011554 0.020176 -0.004037 0.000000 0.000000 0.000000
# 3 -0.004037 -0.004037 0.016696 0.000000 0.000000 0.000000
# 4 0.000000 0.000000 0.000000 0.119988 0.000000 0.000000
# 5 0.000000 0.000000 0.000000 0.000000 0.119988 0.000000
# 6 0.000000 0.000000 0.000000 0.000000 0.000000 0.025644
#
#
# Mechanical properties :
#
#
# Convention : Reuss Voigt Hill
#
# Bulk Modulus (GPa) = 56.21205 58.04089 57.12647
# Shear Modulus (GPa) = 13.59230 19.61018 16.60124
#
# Velocity S-wave (km/s) = 2.62544 3.15352 2.90152
# Velocity P-wave (km/s) = 6.13977 6.53401 6.33995
#
# Compressibility (1/GPa) = 0.01778978
#
# Stress axis : x y z
#
# Youngs Moduli (GPa) = 49.56459 49.56459 59.89394
#
# Poissons Ratio (x) = 0.57269 0.24181
# Poissons Ratio (y) = 0.57269 0.24181
# Poissons Ratio (z) = 0.20011 0.20011
#
# Static dielectric constant tensor:
#      x y z
#    x 1.714100 0.000000 0.000000 
#    y 0.000000 1.714100 0.000000 
#    z 0.000000 0.000000 1.820800 
# 
# From -- ./inp_files/19720.got.cif
#   From: 2010.05.17/outbox.cif.g08.bks.cpg/sg91_10_cif.got.tgz:19720.got - 2010.06.03 19:20:03.
