data_PCOD9548873
_publ_section_title
;
Structure prediction by ZEFSAII (Michael W. Deem and Ramdas Pophale) SiO2 
 PCOD9548873
Probable space group: P 41 21 2
;
_chemical_formula_sum "Si O2"
_cell_formula_units_Z 56
_cell_length_a 27.299393
_cell_length_b 27.299393
_cell_length_c 5.202751
_cell_angle_alpha 90.000000
_cell_angle_beta 90.000000
_cell_angle_gamma 90.000000
_cell_volume 3877.385864
_symmetry_space_group_name_H-M "P 41 21 2"
_symmetry_group_IT_number 92
_symmetry_cell_setting 'tetragonal'
loop_
_space_group_symop_operation_xyz
x,y,z
1/2-y,1/2+x,1/4+z
-x,-y,1/2+z
1/2+y,1/2-x,3/4+z
1/2+x,1/2-y,3/4-z
1/2-x,1/2+y,1/4-z
y,x,-z
-y,-x,1/2-z
loop_
_atom_site_type_symbol
_atom_site_label
_atom_site_fract_x
_atom_site_fract_y
_atom_site_fract_z
Si Si1 0.777359 0.856870 0.994911
Si Si2 0.457179 0.940039 0.197087
Si Si3 0.650754 0.815020 0.484811
Si Si4 0.727410 0.193416 0.230150
Si Si5 0.142375 0.452703 0.832577
Si Si6 0.100392 0.265979 0.009012
Si Si7 0.486100 0.837403 0.158269
O O1 0.736566 0.813525 0.987902
O O2 0.763590 0.891134 0.754292
O O3 0.829248 0.829248 0.000000
O O4 0.768856 0.885272 0.257419
O O5 0.513764 0.945825 0.270670
O O6 0.416758 0.944979 0.423268
O O7 0.453291 0.885391 0.086349
O O8 0.667789 0.778277 0.707387
O O9 0.597595 0.834502 0.564116
O O10 0.688844 0.860629 0.491549
O O11 0.657432 0.788219 0.211574
O O12 0.779246 0.220755 0.250000
O O13 0.162953 0.472526 0.562869
O O14 0.152893 0.491781 0.058904
O O15 0.048104 0.290359 0.064693
#
# Coordination Sequence:
#
# PCOD9548873 Si02
#       7
#     8   8   8   8   8   8   8
#     4   9  17  28  46  65  83 102 125 159 209 267
#     4  10  20  34  46  60  73 100 140 194 233 268
#     4  10  18  31  44  62  84 105 133 169 215 260
#     4   9  17  28  46  65  83 102 125 159 209 267
#     4  11  22  33  46  61  81 109 142 177 225 270
#     4  10  18  31  44  62  84 105 133 169 215 260
#     4  11  22  33  46  61  81 109 142 177 225 270
#
# _framework density 14.442719
#
# number of rings (size 3 to 8) (size 9 to 14) (size 15 to 20)
#    0.000    2.000    1.429    3.429    0.000    6.857 
#    0.000    0.000    0.000    0.000    0.000    0.000 
#    0.000    0.000    0.000    0.000    0.000    0.000 
#
# Total GULP energy -312043.215198 kJ/mol
# GULP energy per Si atom -5572.200271 kJ/mol
# Density = 1.440985 g / cm^3
# Si number density = 14.442719 Si / 1000 Ang^3
#
#
#
# Elastic Constant Matrix: (Units=GPa)
#
#
# Indices 1 2 3 4 5 6 
#
# 1 18.4889 12.0745 3.4473 0.0000 0.0000 0.0000
# 2 12.0745 18.4909 3.4486 0.0000 0.0000 0.0000
# 3 3.4473 3.4486 70.2690 0.0000 0.0000 0.0000
# 4 0.0000 0.0000 0.0000 16.5786 0.0000 0.0000
# 5 0.0000 0.0000 0.0000 0.0000 16.5789 0.0000
# 6 0.0000 0.0000 0.0000 0.0000 0.0000 25.8023
#
#
#
# Elastic Compliance Matrix: (Units=1/GPa)
#
#
# Indices 1 2 3 4 5 6 
#
# 1 0.094485 -0.061396 -0.001622 0.000000 0.000000 0.000000
# 2 -0.061396 0.094475 -0.001625 0.000000 0.000000 0.000000
# 3 -0.001622 -0.001625 0.014390 0.000000 0.000000 0.000000
# 4 0.000000 0.000000 0.000000 0.060319 0.000000 0.000000
# 5 0.000000 0.000000 0.000000 0.000000 0.060318 0.000000
# 6 0.000000 0.000000 0.000000 0.000000 0.000000 0.038756
#
#
# Mechanical properties :
#
#
# Convention : Reuss Voigt Hill
#
# Bulk Modulus (GPa) = 13.50165 16.13217 14.81691
# Shear Modulus (GPa) = 9.67648 17.67718 13.67683
#
# Velocity S-wave (km/s) = 2.59122 3.50230 3.08063
# Velocity P-wave (km/s) = 4.28034 5.24869 4.78905
#
# Compressibility (1/GPa) = 0.07406500
#
# Stress axis : x y z
#
# Youngs Moduli (GPa) = 10.58371 10.58477 69.49107
#
# Poissons Ratio (x) = 0.64986 0.11273
# Poissons Ratio (y) = 0.64980 0.11289
# Poissons Ratio (z) = 0.01717 0.01720
#
# Static dielectric constant tensor:
#      x y z
#    x 1.493940 0.000000 0.000000 
#    y 0.000000 1.493940 0.000000 
#    z 0.000000 0.000000 1.506620 
# 
# From -- ./inp_files/843.got.cif
#   From: 2010.05.17/outbox.cif.g08.bks.cpg/sg92_1_cif.got.tgz:843.got - 2010.06.03 19:35:17.
