data_PCOD9548333
_publ_section_title
;
Structure prediction by ZEFSAII (Michael W. Deem and Ramdas Pophale) SiO2 
 PCOD9548333
Probable space group: P 41 2 2
;
_chemical_formula_sum "Si O2"
_cell_formula_units_Z 56
_cell_length_a 11.425268
_cell_length_b 11.425268
_cell_length_c 18.386383
_cell_angle_alpha 90.000000
_cell_angle_beta 90.000000
_cell_angle_gamma 90.000000
_cell_volume 2400.098660
_symmetry_space_group_name_H-M "P 41 2 2"
_symmetry_group_IT_number 91
_symmetry_cell_setting 'tetragonal'
loop_
_space_group_symop_operation_xyz
x,y,z
-y,x,1/4+z
-x,-y,1/2+z
y,-x,3/4+z
x,-y,1/2-z
-x,y,-z
y,x,3/4-z
-y,-x,1/4-z
loop_
_atom_site_type_symbol
_atom_site_label
_atom_site_fract_x
_atom_site_fract_y
_atom_site_fract_z
Si Si1 0.558960 0.782544 0.615382
Si Si2 0.832100 0.565293 0.510157
Si Si3 0.244726 0.189410 0.553630
Si Si4 0.466361 0.573155 0.813480
Si Si5 0.684707 0.096964 0.690615
Si Si6 0.011126 0.673008 0.783945
Si Si7 0.110455 0.168551 0.045799
O O1 0.471256 0.831055 0.676034
O O2 0.684192 0.745449 0.653907
O O3 0.515724 0.658310 0.585000
O O4 0.581741 0.887925 0.559302
O O5 0.699426 0.562836 0.536110
O O6 0.887609 0.455221 0.551703
O O7 0.878165 0.693086 0.527719
O O8 0.201437 0.240334 0.475494
O O9 0.167452 0.120215 0.615362
O O10 0.340021 0.090913 0.527277
O O11 0.522147 0.500000 0.750000
O O12 0.562560 0.562560 0.875000
O O13 0.717148 0.000000 0.750000
O O14 0.704775 0.052435 0.610133
O O15 0.092328 0.783289 0.764510
O O16 0.000000 0.125806 0.000000
#
# Coordination Sequence:
#
# PCOD9548333 Si02
#       7
#     8   8   8   8   8   8   8
#     4  10  22  45  68 100 140 174 234 286 342 429
#     4  11  22  43  71  95 139 181 226 283 353 423
#     4  10  22  41  69  97 137 176 230 290 338 409
#     4  12  24  42  71 100 133 179 224 289 356 413
#     4  11  20  41  73  97 132 181 225 284 353 404
#     4  11  22  43  69 100 137 182 232 284 344 416
#     4  11  24  43  66  98 144 183 231 285 346 424
#
# _framework density 23.332374000000002
#
# number of rings (size 3 to 8) (size 9 to 14) (size 15 to 20)
#    0.000    1.143    8.571    0.857    0.000    3.429 
#    7.714    2.143    0.000    0.000    0.000    0.000 
#    0.000    0.000    0.000    0.000    0.000    0.000 
#
# Total GULP energy -311901.151072 kJ/mol
# GULP energy per Si atom -5569.663412 kJ/mol
# Density = 2.327927 g / cm^3
# Si number density = 23.332374 Si / 1000 Ang^3
#
#
#
# Elastic Constant Matrix: (Units=GPa)
#
#
# Indices 1 2 3 4 5 6 
#
# 1 44.4468 29.6245 25.0477 0.0000 0.0000 0.0000
# 2 29.6245 44.4468 25.0477 0.0000 0.0000 0.0000
# 3 25.0477 25.0477 81.6975 0.0000 0.0000 0.0000
# 4 0.0000 0.0000 0.0000 30.0202 0.0000 0.0000
# 5 0.0000 0.0000 0.0000 0.0000 30.0202 0.0000
# 6 0.0000 0.0000 0.0000 0.0000 0.0000 -7.2144
#
#
#
# Elastic Compliance Matrix: (Units=1/GPa)
#
#
# Indices 1 2 3 4 5 6 
#
# 1 0.042249 -0.025217 -0.005222 0.000000 0.000000 0.000000
# 2 -0.025217 0.042249 -0.005222 0.000000 0.000000 0.000000
# 3 -0.005222 -0.005222 0.015442 0.000000 0.000000 0.000000
# 4 0.000000 0.000000 0.000000 0.033311 0.000000 0.000000
# 5 0.000000 0.000000 0.000000 0.000000 0.033311 0.000000
# 6 0.000000 0.000000 0.000000 0.000000 0.000000 -0.138611
#
#
# Mechanical properties :
#
#
# Convention : Reuss Voigt Hill
#
# Bulk Modulus (GPa) = 34.94186 36.67007 35.80597
# Shear Modulus (GPa) = 45.95084 16.62327 31.28706
#
# Velocity S-wave (km/s) = 4.44261 2.67208 3.66584
# Velocity P-wave (km/s) = 6.42837 5.02698 5.77037
#
# Compressibility (1/GPa) = 0.02861897
#
# Stress axis : x y z
#
# Youngs Moduli (GPa) = 23.66920 23.66920 64.75750
#
# Poissons Ratio (x) = 0.59686 0.33816
# Poissons Ratio (y) = 0.59686 0.33816
# Poissons Ratio (z) = 0.12360 0.12360
#
# Static dielectric constant tensor:
#      x y z
#    x 1.908900 0.000000 0.000000 
#    y 0.000000 1.908900 0.000000 
#    z 0.000000 0.000000 1.941080 
# 
# From -- ./inp_files/17308.got.cif
#   From: 2010.05.17/outbox.cif.g08.bks.cpg/sg91_9_cif.got.tgz:17308.got - 2010.06.03 19:20:03.
