data_PCOD9548762
_publ_section_title
;
Structure prediction by ZEFSAII (Michael W. Deem and Ramdas Pophale) SiO2 
 PCOD9548762
Probable space group: P 41 2 2
;
_chemical_formula_sum "Si O2"
_cell_formula_units_Z 20
_cell_length_a 7.739222
_cell_length_b 7.739222
_cell_length_c 14.525853
_cell_angle_alpha 90.000000
_cell_angle_beta 90.000000
_cell_angle_gamma 90.000000
_cell_volume 870.034059
_symmetry_space_group_name_H-M "P 41 2 2"
_symmetry_group_IT_number 91
_symmetry_cell_setting 'tetragonal'
loop_
_space_group_symop_operation_xyz
x,y,z
-y,x,1/4+z
-x,-y,1/2+z
y,-x,3/4+z
x,-y,1/2-z
-x,y,-z
y,x,3/4-z
-y,-x,1/4-z
loop_
_atom_site_type_symbol
_atom_site_label
_atom_site_fract_x
_atom_site_fract_y
_atom_site_fract_z
Si Si1 0.976456 0.500000 0.750000
Si Si2 0.147716 0.399209 0.927216
Si Si3 0.272611 0.795222 0.231309
O O1 0.863608 0.333227 0.776981
O O2 0.084084 0.522672 0.843024
O O3 0.248813 0.248813 0.875000
O O4 0.255290 0.533980 0.988685
O O5 0.000000 0.339475 0.000000
O O6 0.243435 0.756566 0.125000
O O7 0.247089 0.000000 0.250000
#
# Coordination Sequence:
#
# PCOD9548762 Si02
#       3
#     4   8   8
#     4  12  26  44  80 114 158 208 272 326 414 484
#     4  11  27  49  75 118 156 210 274 336 411 490
#     4  11  24  50  76 113 157 208 267 339 407 483
#
# _framework density 22.987604000000001
#
# number of rings (size 3 to 8) (size 9 to 14) (size 15 to 20)
#    0.000    0.800    8.000    0.000    5.600    6.400 
#    0.000    0.000    0.000    0.000    0.000    0.000 
#    0.000    0.000    0.000    0.000    0.000    0.000 
#
# Total GULP energy -111569.151421 kJ/mol
# GULP energy per Si atom -5578.457571 kJ/mol
# Density = 2.293528 g / cm^3
# Si number density = 22.987604 Si / 1000 Ang^3
#
#
#
# Elastic Constant Matrix: (Units=GPa)
#
#
# Indices 1 2 3 4 5 6 
#
# 1 87.2575 43.8924 44.7321 0.0000 0.0000 0.0000
# 2 43.8924 87.2575 44.7321 0.0000 0.0000 0.0000
# 3 44.7321 44.7321 161.9192 0.0000 0.0000 0.0000
# 4 0.0000 0.0000 0.0000 41.1163 0.0000 0.0000
# 5 0.0000 0.0000 0.0000 0.0000 41.1163 0.0000
# 6 0.0000 0.0000 0.0000 0.0000 0.0000 31.0724
#
#
#
# Elastic Compliance Matrix: (Units=1/GPa)
#
#
# Indices 1 2 3 4 5 6 
#
# 1 0.016228 -0.006832 -0.002596 0.000000 0.000000 0.000000
# 2 -0.006832 0.016228 -0.002596 0.000000 0.000000 0.000000
# 3 -0.002596 -0.002596 0.007610 0.000000 0.000000 0.000000
# 4 0.000000 0.000000 0.000000 0.024321 0.000000 0.000000
# 5 0.000000 0.000000 0.000000 0.000000 0.024321 0.000000
# 6 0.000000 0.000000 0.000000 0.000000 0.000000 0.032183
#
#
# Mechanical properties :
#
#
# Convention : Reuss Voigt Hill
#
# Bulk Modulus (GPa) = 62.42763 67.01637 64.72200
# Shear Modulus (GPa) = 33.27178 36.19951 34.73565
#
# Velocity S-wave (km/s) = 3.80857 3.97261 3.89145
# Velocity P-wave (km/s) = 6.82322 7.08934 6.95755
#
# Compressibility (1/GPa) = 0.01601855
#
# Stress axis : x y z
#
# Youngs Moduli (GPa) = 61.62282 61.62286 131.40509
#
# Poissons Ratio (x) = 0.42103 0.34108
# Poissons Ratio (y) = 0.42102 0.34108
# Poissons Ratio (z) = 0.15995 0.15995
#
# Static dielectric constant tensor:
#      x y z
#    x 1.986570 0.000000 0.000000 
#    y 0.000000 1.986570 0.000000 
#    z 0.000000 0.000000 1.970470 
# 
# From -- ./inp_files/4106.got.cif
#   From: 2010.05.17/outbox.cif.g08.bks.cpg/sg91_3_cif.got.tgz:4106.got - 2010.06.03 19:20:03.
