data_PCOD9548895
_publ_section_title
;
Structure prediction by ZEFSAII (Michael W. Deem and Ramdas Pophale) SiO2 
 PCOD9548895
Probable space group: P 41 21 2
;
_chemical_formula_sum "Si O2"
_cell_formula_units_Z 48
_cell_length_a 15.616069
_cell_length_b 15.616069
_cell_length_c 8.918889
_cell_angle_alpha 90.000000
_cell_angle_beta 90.000000
_cell_angle_gamma 90.000000
_cell_volume 2174.974640
_symmetry_space_group_name_H-M "P 41 21 2"
_symmetry_group_IT_number 92
_symmetry_cell_setting 'tetragonal'
loop_
_space_group_symop_operation_xyz
x,y,z
1/2-y,1/2+x,1/4+z
-x,-y,1/2+z
1/2+y,1/2-x,3/4+z
1/2+x,1/2-y,3/4-z
1/2-x,1/2+y,1/4-z
y,x,-z
-y,-x,1/2-z
loop_
_atom_site_type_symbol
_atom_site_label
_atom_site_fract_x
_atom_site_fract_y
_atom_site_fract_z
Si Si1 0.086624 0.033434 0.831345
Si Si2 0.805828 0.540605 0.623472
Si Si3 0.703146 0.625665 0.861371
Si Si4 0.372102 0.235494 0.184209
Si Si5 0.457673 0.072240 0.281813
Si Si6 0.865093 0.792927 0.347235
O O1 0.122491 0.119839 0.757635
O O2 0.159381 0.961448 0.832378
O O3 0.059262 0.059262 0.000000
O O4 0.005218 0.994783 0.750000
O O5 0.790166 0.596631 0.774662
O O6 0.777668 0.603467 0.488963
O O7 0.892297 0.490687 0.565896
O O8 0.742637 0.459468 0.632415
O O9 0.639547 0.668272 0.737577
O O10 0.692778 0.692778 0.000000
O O11 0.439100 0.172514 0.264030
O O12 0.281892 0.190404 0.222347
O O13 0.448067 0.046476 0.452615
O O14 0.816877 0.816877 0.500000
#
# Coordination Sequence:
#
# PCOD9548895 Si02
#       6
#     8   8   8   8   8   8
#     4  10  21  35  56  83 115 150 188 233 291 343
#     4  10  19  35  58  88 108 151 198 229 284 348
#     4  11  22  36  54  83 121 150 184 242 292 341
#     4  10  22  37  62  85 110 155 200 237 281 349
#     4   9  20  38  61  88 115 148 194 240 291 344
#     4  10  18  35  58  82 116 144 193 241 276 338
#
# _framework density 22.069222
#
# number of rings (size 3 to 8) (size 9 to 14) (size 15 to 20)
#    0.000    2.000    3.333    1.500    2.333    1.333 
#    0.000    0.833    7.333    0.000    0.000    0.000 
#    0.000    0.000    0.000    0.000    0.000    0.000 
#
# Total GULP energy -267323.231992 kJ/mol
# GULP energy per Si atom -5569.234000 kJ/mol
# Density = 2.201899 g / cm^3
# Si number density = 22.069222 Si / 1000 Ang^3
#
#
#
# Elastic Constant Matrix: (Units=GPa)
#
#
# Indices 1 2 3 4 5 6 
#
# 1 62.6606 -20.6195 6.5428 0.0000 0.0000 0.0000
# 2 -20.6195 62.6614 6.5445 0.0000 0.0000 0.0000
# 3 6.5428 6.5445 25.8632 0.0000 0.0000 0.0000
# 4 0.0000 0.0000 0.0000 20.5222 0.0000 0.0000
# 5 0.0000 0.0000 0.0000 0.0000 20.5228 0.0000
# 6 0.0000 0.0000 0.0000 0.0000 0.0000 20.9475
#
#
#
# Elastic Compliance Matrix: (Units=1/GPa)
#
#
# Indices 1 2 3 4 5 6 
#
# 1 0.018914 0.006906 -0.006532 0.000000 0.000000 0.000000
# 2 0.006906 0.018914 -0.006533 0.000000 0.000000 0.000000
# 3 -0.006532 -0.006533 0.041971 0.000000 0.000000 0.000000
# 4 0.000000 0.000000 0.000000 0.048728 0.000000 0.000000
# 5 0.000000 0.000000 0.000000 0.000000 0.048726 0.000000
# 6 0.000000 0.000000 0.000000 0.000000 0.000000 0.047738
#
#
# Mechanical properties :
#
#
# Convention : Reuss Voigt Hill
#
# Bulk Modulus (GPa) = 14.81933 15.12451 14.97192
# Shear Modulus (GPa) = 19.24544 22.97966 21.11255
#
# Velocity S-wave (km/s) = 2.95625 3.23035 3.09633
# Velocity P-wave (km/s) = 4.28743 4.55869 4.42514
#
# Compressibility (1/GPa) = 0.06747944
#
# Stress axis : x y z
#
# Youngs Moduli (GPa) = 52.87206 52.87203 23.82618
#
# Poissons Ratio (x) = -0.36513 0.15564
# Poissons Ratio (y) = -0.36513 0.15566
# Poissons Ratio (z) = 0.34537 0.34541
#
# Static dielectric constant tensor:
#      x y z
#    x 1.867340 0.000000 0.000000 
#    y 0.000000 1.867340 0.000000 
#    z 0.000000 0.000000 1.851340 
# 
# From -- ./inp_files/2172.got.cif
#   From: 2010.05.17/outbox.cif.g08.bks.cpg/sg92_2_cif.got.tgz:2172.got - 2010.06.03 19:35:17.
