data_PCOD9548193
_publ_section_title
;
Structure prediction by ZEFSAII (Michael W. Deem and Ramdas Pophale) SiO2 
 PCOD9548193
Probable space group: P 41 2 2
;
_chemical_formula_sum "Si O2"
_cell_formula_units_Z 40
_cell_length_a 8.681637
_cell_length_b 8.681637
_cell_length_c 24.894921
_cell_angle_alpha 90.000000
_cell_angle_beta 90.000000
_cell_angle_gamma 90.000000
_cell_volume 1876.350634
_symmetry_space_group_name_H-M "P 41 2 2"
_symmetry_group_IT_number 91
_symmetry_cell_setting 'tetragonal'
loop_
_space_group_symop_operation_xyz
x,y,z
-y,x,1/4+z
-x,-y,1/2+z
y,-x,3/4+z
x,-y,1/2-z
-x,y,-z
y,x,3/4-z
-y,-x,1/4-z
loop_
_atom_site_type_symbol
_atom_site_label
_atom_site_fract_x
_atom_site_fract_y
_atom_site_fract_z
Si Si1 0.428687 0.909174 0.302737
Si Si2 0.103585 0.790057 0.567700
Si Si3 0.125328 0.632278 0.146690
Si Si4 0.373930 0.363378 0.617552
Si Si5 0.241349 0.134600 0.043647
O O1 0.610959 0.931437 0.308664
O O2 0.396403 0.731649 0.315339
O O3 0.377510 0.000000 0.250000
O O4 0.353347 0.994221 0.352292
O O5 0.177889 0.822112 0.625000
O O6 0.219191 0.831134 0.519286
O O7 0.937057 0.872674 0.563929
O O8 0.253210 0.746791 0.125000
O O9 0.208525 0.468680 0.145045
O O10 0.030931 0.678164 0.199173
O O11 0.493774 0.506227 0.625000
O O12 0.268588 0.328405 0.671081
#
# Coordination Sequence:
#
# PCOD9548193 Si02
#       5
#     8   8   8   8   8
#     4  11  21  42  66  93 133 184 219 273 344 410
#     4  11  21  40  69  97 130 177 231 276 340 406
#     4  10  21  42  64  99 136 166 224 285 341 404
#     4  10  21  41  72 101 138 177 227 283 350 415
#     4  10  21  42  69  96 136 174 224 285 343 406
#
# _framework density 21.317975000000001
#
# number of rings (size 3 to 8) (size 9 to 14) (size 15 to 20)
#    0.000    1.600    4.000    1.200    0.000    0.000 
#   10.800   21.000    0.000    0.000    0.000    0.000 
#    0.000    0.000    0.000    0.000    0.000    0.000 
#
# Total GULP energy -223081.253818 kJ/mol
# GULP energy per Si atom -5577.031345 kJ/mol
# Density = 2.126945 g / cm^3
# Si number density = 21.317975 Si / 1000 Ang^3
#
#
#
# Elastic Constant Matrix: (Units=GPa)
#
#
# Indices 1 2 3 4 5 6 
#
# 1 67.7317 30.2535 28.0764 0.0000 0.0000 0.0000
# 2 30.2535 67.7333 28.0760 0.0000 0.0000 0.0000
# 3 28.0764 28.0760 122.7254 0.0000 0.0000 0.0000
# 4 0.0000 0.0000 0.0000 23.8758 0.0000 0.0000
# 5 0.0000 0.0000 0.0000 0.0000 23.8775 0.0000
# 6 0.0000 0.0000 0.0000 0.0000 0.0000 -19.7181
#
#
#
# Elastic Compliance Matrix: (Units=1/GPa)
#
#
# Indices 1 2 3 4 5 6 
#
# 1 0.019214 -0.007468 -0.002687 0.000000 0.000000 0.000000
# 2 -0.007468 0.019213 -0.002687 0.000000 0.000000 0.000000
# 3 -0.002687 -0.002687 0.009378 0.000000 0.000000 0.000000
# 4 0.000000 0.000000 0.000000 0.041883 0.000000 0.000000
# 5 0.000000 0.000000 0.000000 0.000000 0.041880 0.000000
# 6 0.000000 0.000000 0.000000 0.000000 0.000000 -0.050715
#
#
# Mechanical properties :
#
#
# Convention : Reuss Voigt Hill
#
# Bulk Modulus (GPa) = 45.20719 47.88914 46.54816
# Shear Modulus (GPa) = 43.89365 17.05932 30.47649
#
# Velocity S-wave (km/s) = 4.54254 2.83191 3.78513
# Velocity P-wave (km/s) = 6.98320 5.76246 6.40199
#
# Compressibility (1/GPa) = 0.02212038
#
# Stress axis : x y z
#
# Youngs Moduli (GPa) = 52.04600 52.04747 106.63588
#
# Poissons Ratio (x) = 0.38870 0.28654
# Poissons Ratio (y) = 0.38869 0.28652
# Poissons Ratio (z) = 0.13985 0.13985
#
# Static dielectric constant tensor:
#      x y z
#    x 1.788820 0.000000 0.000000 
#    y 0.000000 1.788810 0.000000 
#    z 0.000000 0.000000 1.866370 
# 
# From -- ./inp_files/12757.got.cif
#   From: 2010.05.17/outbox.cif.g08.bks.cpg/sg91_7_cif.got.tgz:12757.got - 2010.06.03 19:20:03.
