data_PCOD9548724
_publ_section_title
;
Structure prediction by ZEFSAII (Michael W. Deem and Ramdas Pophale) SiO2 
 PCOD9548724
Probable space group: P 41 2 2
;
_chemical_formula_sum "Si O2"
_cell_formula_units_Z 40
_cell_length_a 9.245502
_cell_length_b 9.245502
_cell_length_c 21.559811
_cell_angle_alpha 90.000000
_cell_angle_beta 90.000000
_cell_angle_gamma 90.000000
_cell_volume 1842.917708
_symmetry_space_group_name_H-M "P 41 2 2"
_symmetry_group_IT_number 91
_symmetry_cell_setting 'tetragonal'
loop_
_space_group_symop_operation_xyz
x,y,z
-y,x,1/4+z
-x,-y,1/2+z
y,-x,3/4+z
x,-y,1/2-z
-x,y,-z
y,x,3/4-z
-y,-x,1/4-z
loop_
_atom_site_type_symbol
_atom_site_label
_atom_site_fract_x
_atom_site_fract_y
_atom_site_fract_z
Si Si1 0.789757 0.386329 0.960826
Si Si2 0.000000 0.172064 0.000000
Si Si3 0.797775 0.072214 0.540137
Si Si4 0.451720 0.500000 0.250000
Si Si5 0.288387 0.252014 0.573388
Si Si6 0.650153 0.025863 0.662396
O O1 0.782527 0.303445 0.895295
O O2 0.894025 0.516463 0.941819
O O3 0.867072 0.283905 0.012035
O O4 0.632502 0.449183 0.976955
O O5 0.914053 0.057218 0.957452
O O6 0.737091 0.114948 0.472272
O O7 0.668195 0.042880 0.588164
O O8 0.889186 0.210446 0.561994
O O9 0.345370 0.574496 0.300338
O O10 0.141057 0.344294 0.569280
#
# Coordination Sequence:
#
# PCOD9548724 Si02
#       6
#     8   4   8   4   8   8
#     4  12  27  45  73 104 149 194 232 306 381 433
#     4  12  24  46  72 106 152 180 236 310 368 428
#     4  11  23  43  76 104 138 179 259 301 345 446
#     4  12  26  46  68 110 148 192 248 298 362 454
#     4  12  23  44  74 102 138 192 248 300 350 442
#     4  11  23  46  72 105 135 195 245 294 367 437
#
# _framework density 21.704712000000001
#
# number of rings (size 3 to 8) (size 9 to 14) (size 15 to 20)
#    0.000    0.400    6.000    3.000    2.800    0.800 
#    3.600    0.000    4.400    0.000    0.000    0.000 
#    0.000    0.000    0.000    0.000    0.000    0.000 
#
# Total GULP energy -223155.947349 kJ/mol
# GULP energy per Si atom -5578.898684 kJ/mol
# Density = 2.165531 g / cm^3
# Si number density = 21.704712 Si / 1000 Ang^3
#
#
#
# Elastic Constant Matrix: (Units=GPa)
#
#
# Indices 1 2 3 4 5 6 
#
# 1 85.1513 40.8997 27.1573 0.0000 0.0000 0.0000
# 2 40.8997 85.1513 27.1573 0.0000 0.0000 0.0000
# 3 27.1573 27.1573 86.0688 0.0000 0.0000 0.0000
# 4 0.0000 0.0000 0.0000 28.4853 0.0000 0.0000
# 5 0.0000 0.0000 0.0000 0.0000 28.4853 0.0000
# 6 0.0000 0.0000 0.0000 0.0000 0.0000 13.2834
#
#
#
# Elastic Compliance Matrix: (Units=1/GPa)
#
#
# Indices 1 2 3 4 5 6 
#
# 1 0.015890 -0.006708 -0.002897 0.000000 0.000000 0.000000
# 2 -0.006708 0.015890 -0.002897 0.000000 0.000000 0.000000
# 3 -0.002897 -0.002897 0.013447 0.000000 0.000000 0.000000
# 4 0.000000 0.000000 0.000000 0.035106 0.000000 0.000000
# 5 0.000000 0.000000 0.000000 0.000000 0.035106 0.000000
# 6 0.000000 0.000000 0.000000 0.000000 0.000000 0.075282
#
#
# Mechanical properties :
#
#
# Convention : Reuss Voigt Hill
#
# Bulk Modulus (GPa) = 49.45163 49.64445 49.54804
# Shear Modulus (GPa) = 22.47536 24.79458 23.63497
#
# Velocity S-wave (km/s) = 3.22142 3.38355 3.30348
# Velocity P-wave (km/s) = 6.05558 6.17955 6.11788
#
# Compressibility (1/GPa) = 0.02022178
#
# Stress axis : x y z
#
# Youngs Moduli (GPa) = 62.93326 62.93326 74.36685
#
# Poissons Ratio (x) = 0.42217 0.21545
# Poissons Ratio (y) = 0.42217 0.21545
# Poissons Ratio (z) = 0.18232 0.18232
#
# Static dielectric constant tensor:
#      x y z
#    x 1.807140 0.000000 0.000000 
#    y 0.000000 1.807140 0.000000 
#    z 0.000000 0.000000 1.877190 
# 
# From -- ./inp_files/6821.got.cif
#   From: 2010.05.17/outbox.cif.g08.bks.cpg/sg91_4_cif.got.tgz:6821.got - 2010.06.03 19:20:03.
