data_PCOD9548231
_publ_section_title
;
Structure prediction by ZEFSAII (Michael W. Deem and Ramdas Pophale) SiO2 
 PCOD9548231
Probable space group: P 41 2 2
;
_chemical_formula_sum "Si O2"
_cell_formula_units_Z 36
_cell_length_a 14.925947
_cell_length_b 14.925947
_cell_length_c 7.338307
_cell_angle_alpha 90.000000
_cell_angle_beta 90.000000
_cell_angle_gamma 90.000000
_cell_volume 1634.856608
_symmetry_space_group_name_H-M "P 41 2 2"
_symmetry_group_IT_number 91
_symmetry_cell_setting 'tetragonal'
loop_
_space_group_symop_operation_xyz
x,y,z
-y,x,1/4+z
-x,-y,1/2+z
y,-x,3/4+z
x,-y,1/2-z
-x,y,-z
y,x,3/4-z
-y,-x,1/4-z
loop_
_atom_site_type_symbol
_atom_site_label
_atom_site_fract_x
_atom_site_fract_y
_atom_site_fract_z
Si Si1 0.325681 0.674320 0.625000
Si Si2 0.728015 0.925633 0.591889
Si Si3 0.615997 0.000000 0.250000
Si Si4 0.457221 0.820977 0.705307
Si Si5 0.632587 0.258040 0.768375
Si Si6 0.089121 0.089121 0.875000
O O1 0.361096 0.770893 0.697793
O O2 0.381139 0.674246 0.439572
O O3 0.673112 0.967633 0.422681
O O4 0.681870 0.833924 0.664901
O O5 0.826227 0.906563 0.510862
O O6 0.731617 0.000000 0.750000
O O7 0.555567 0.915614 0.202949
O O8 0.500000 0.833728 0.500000
O O9 0.534289 0.764622 0.800731
O O10 0.695362 0.304639 0.625000
O O11 0.091362 0.000000 0.750000
#
# Coordination Sequence:
#
# PCOD9548231 Si02
#       6
#     4   8   4   8   8   4
#     4  10  21  46  70  94 148 191 228 292 360 422
#     4  12  28  44  72 108 138 191 243 296 363 435
#     4  12  24  48  72 106 150 180 240 308 370 414
#     4  10  23  45  73 107 144 193 236 300 365 434
#     4  11  26  45  71 108 143 187 239 292 366 433
#     4  12  27  48  70 100 144 191 242 296 348 424
#
# _framework density 22.02028
#
# number of rings (size 3 to 8) (size 9 to 14) (size 15 to 20)
#    0.000    0.889    5.556    1.333    7.778    0.889 
#    0.000    0.000   22.000    0.000    0.000    0.000 
#    0.000    0.000    0.000    0.000    0.000    0.000 
#
# Total GULP energy -200821.617752 kJ/mol
# GULP energy per Si atom -5578.378271 kJ/mol
# Density = 2.197016 g / cm^3
# Si number density = 22.020280 Si / 1000 Ang^3
#
#
#
# Elastic Constant Matrix: (Units=GPa)
#
#
# Indices 1 2 3 4 5 6 
#
# 1 111.8856 65.7119 43.4202 0.0000 0.0000 0.0000
# 2 65.7119 111.8888 43.4194 0.0000 0.0000 0.0000
# 3 43.4202 43.4194 119.8990 0.0000 0.0000 0.0000
# 4 0.0000 0.0000 0.0000 31.5762 0.0000 0.0000
# 5 0.0000 0.0000 0.0000 0.0000 31.5752 0.0000
# 6 0.0000 0.0000 0.0000 0.0000 0.0000 39.1070
#
#
#
# Elastic Compliance Matrix: (Units=1/GPa)
#
#
# Indices 1 2 3 4 5 6 
#
# 1 0.014250 -0.007407 -0.002478 0.000000 0.000000 0.000000
# 2 -0.007407 0.014249 -0.002478 0.000000 0.000000 0.000000
# 3 -0.002478 -0.002478 0.010135 0.000000 0.000000 0.000000
# 4 0.000000 0.000000 0.000000 0.031669 0.000000 0.000000
# 5 0.000000 0.000000 0.000000 0.000000 0.031670 0.000000
# 6 0.000000 0.000000 0.000000 0.000000 0.000000 0.025571
#
#
# Mechanical properties :
#
#
# Convention : Reuss Voigt Hill
#
# Bulk Modulus (GPa) = 71.90031 72.08625 71.99328
# Shear Modulus (GPa) = 31.86616 33.19313 32.52965
#
# Velocity S-wave (km/s) = 3.80824 3.88672 3.84768
# Velocity P-wave (km/s) = 7.21524 7.27664 7.24601
#
# Compressibility (1/GPa) = 0.01390815
#
# Stress axis : x y z
#
# Youngs Moduli (GPa) = 70.17699 70.17980 98.66832
#
# Poissons Ratio (x) = 0.51983 0.24450
# Poissons Ratio (y) = 0.51981 0.24446
# Poissons Ratio (z) = 0.17390 0.17388
#
# Static dielectric constant tensor:
#      x y z
#    x 1.825730 0.000000 0.000000 
#    y 0.000000 1.825720 0.000000 
#    z 0.000000 0.000000 1.874790 
# 
# From -- ./inp_files/2331.got.cif
#   From: 2010.05.17/outbox.cif.g08.bks.cpg/sg91_2_cif.got.tgz:2331.got - 2010.06.03 19:20:03.
