data_PCOD9548275
_publ_section_title
;
Structure prediction by ZEFSAII (Michael W. Deem and Ramdas Pophale) SiO2 
 PCOD9548275
Probable space group: P 41 2 2
;
_chemical_formula_sum "Si O2"
_cell_formula_units_Z 32
_cell_length_a 8.858929
_cell_length_b 8.858929
_cell_length_c 20.006908
_cell_angle_alpha 90.000000
_cell_angle_beta 90.000000
_cell_angle_gamma 90.000000
_cell_volume 1570.154605
_symmetry_space_group_name_H-M "P 41 2 2"
_symmetry_group_IT_number 91
_symmetry_cell_setting 'tetragonal'
loop_
_space_group_symop_operation_xyz
x,y,z
-y,x,1/4+z
-x,-y,1/2+z
y,-x,3/4+z
x,-y,1/2-z
-x,y,-z
y,x,3/4-z
-y,-x,1/4-z
loop_
_atom_site_type_symbol
_atom_site_label
_atom_site_fract_x
_atom_site_fract_y
_atom_site_fract_z
Si Si1 0.540567 0.540567 0.875000
Si Si2 0.193231 0.597673 0.841098
Si Si3 0.957678 0.859329 0.075689
Si Si4 0.961597 0.316753 0.204487
Si Si5 0.500000 0.754010 0.000000
O O1 0.369684 0.566774 0.849555
O O2 0.652597 0.557280 0.811766
O O3 0.130322 0.719691 0.892309
O O4 0.147672 0.664917 0.768407
O O5 0.104643 0.438552 0.847121
O O6 0.849987 0.006221 0.069308
O O7 0.094327 0.905674 0.125000
O O8 0.000000 0.821870 0.000000
O O9 0.128017 0.373282 0.226174
#
# Coordination Sequence:
#
# PCOD9548275 Si02
#       5
#     4   8   8   8   4
#     4  12  22  42  66 100 130 180 220 276 348 400
#     4  10  23  43  65  96 135 175 221 283 338 411
#     4  12  24  44  69  97 134 180 229 285 345 415
#     4  10  23  46  62  98 136 174 226 287 339 407
#     4  10  22  38  70  88 134 168 220 276 334 394
#
# _framework density 20.38016
#
# number of rings (size 3 to 8) (size 9 to 14) (size 15 to 20)
#    0.000    1.500    5.000    1.500    1.750    4.000 
#    0.000    1.250    0.000    0.000    0.000    0.000 
#    0.000    0.000    0.000    0.000    0.000    0.000 
#
# Total GULP energy -178612.109959 kJ/mol
# GULP energy per Si atom -5581.628436 kJ/mol
# Density = 2.033377 g / cm^3
# Si number density = 20.380160 Si / 1000 Ang^3
#
#
#
# Elastic Constant Matrix: (Units=GPa)
#
#
# Indices 1 2 3 4 5 6 
#
# 1 69.5602 28.3377 36.8574 0.0000 0.0000 0.0000
# 2 28.3377 69.5612 36.8573 0.0000 0.0000 0.0000
# 3 36.8574 36.8573 102.2244 0.0000 0.0000 0.0000
# 4 0.0000 0.0000 0.0000 22.2442 0.0000 0.0000
# 5 0.0000 0.0000 0.0000 0.0000 22.2440 0.0000
# 6 0.0000 0.0000 0.0000 0.0000 0.0000 28.0088
#
#
#
# Elastic Compliance Matrix: (Units=1/GPa)
#
#
# Indices 1 2 3 4 5 6 
#
# 1 0.019140 -0.005119 -0.005055 0.000000 0.000000 0.000000
# 2 -0.005119 0.019140 -0.005055 0.000000 0.000000 0.000000
# 3 -0.005055 -0.005055 0.013428 0.000000 0.000000 0.000000
# 4 0.000000 0.000000 0.000000 0.044956 0.000000 0.000000
# 5 0.000000 0.000000 0.000000 0.000000 0.044956 0.000000
# 6 0.000000 0.000000 0.000000 0.000000 0.000000 0.035703
#
#
# Mechanical properties :
#
#
# Convention : Reuss Voigt Hill
#
# Bulk Modulus (GPa) = 47.06158 49.49451 48.27805
# Shear Modulus (GPa) = 23.27058 23.78562 23.52810
#
# Velocity S-wave (km/s) = 3.38276 3.41999 3.40142
# Velocity P-wave (km/s) = 6.19672 6.31929 6.25831
#
# Compressibility (1/GPa) = 0.02124876
#
# Stress axis : x y z
#
# Youngs Moduli (GPa) = 52.24672 52.24773 74.47184
#
# Poissons Ratio (x) = 0.26743 0.37649
# Poissons Ratio (y) = 0.26743 0.37648
# Poissons Ratio (z) = 0.26413 0.26413
#
# Static dielectric constant tensor:
#      x y z
#    x 1.738470 0.000000 0.000000 
#    y 0.000000 1.738470 0.000000 
#    z 0.000000 0.000000 1.770440 
# 
# From -- ./inp_files/12251.got.cif
#   From: 2010.05.17/outbox.cif.g08.bks.cpg/sg91_7_cif.got.tgz:12251.got - 2010.06.03 19:20:03.
