data_PCOD9548280
_publ_section_title
;
Structure prediction by ZEFSAII (Michael W. Deem and Ramdas Pophale) SiO2 
 PCOD9548280
Probable space group: P 41 2 2
;
_chemical_formula_sum "Si O2"
_cell_formula_units_Z 60
_cell_length_a 18.141564
_cell_length_b 18.141564
_cell_length_c 9.759622
_cell_angle_alpha 90.000000
_cell_angle_beta 90.000000
_cell_angle_gamma 90.000000
_cell_volume 3212.051115
_symmetry_space_group_name_H-M "P 41 2 2"
_symmetry_group_IT_number 91
_symmetry_cell_setting 'tetragonal'
loop_
_space_group_symop_operation_xyz
x,y,z
-y,x,1/4+z
-x,-y,1/2+z
y,-x,3/4+z
x,-y,1/2-z
-x,y,-z
y,x,3/4-z
-y,-x,1/4-z
loop_
_atom_site_type_symbol
_atom_site_label
_atom_site_fract_x
_atom_site_fract_y
_atom_site_fract_z
Si Si1 0.229527 0.701309 0.500682
Si Si2 0.070655 0.349877 0.597270
Si Si3 0.422064 0.654108 0.256524
Si Si4 0.234206 0.533779 0.399901
Si Si5 0.083878 0.509671 0.548407
Si Si6 0.681943 0.068627 0.149068
Si Si7 0.222968 0.706714 0.996760
Si Si8 0.418472 0.500000 0.750000
O O1 0.286762 0.713239 0.625000
O O2 0.235374 0.621551 0.425548
O O3 0.146837 0.714014 0.554374
O O4 0.248398 0.762142 0.389966
O O5 0.091489 0.435082 0.635443
O O6 0.055510 0.306211 0.737721
O O7 0.140338 0.321867 0.511181
O O8 0.000000 0.347474 0.500000
O O9 0.497762 0.698277 0.231120
O O10 0.359994 0.717735 0.255252
O O11 0.435467 0.621912 0.409795
O O12 0.399432 0.600569 0.125000
O O13 0.245247 0.500000 0.250000
O O14 0.153347 0.506225 0.446019
O O15 0.083639 0.594315 0.590653
O O16 0.000000 0.501221 0.500000
O O17 0.699512 0.000000 0.250000
O O18 0.243216 0.756785 0.125000
O O19 0.464097 0.464097 0.875000
#
# Coordination Sequence:
#
# PCOD9548280 Si02
#       8
#     8   8   8   8   8   8   8   4
#     4  11  24  40  64  91 126 162 206 260 316 372
#     4  11  22  37  61  87 124 160 204 247 302 364
#     4  11  26  43  64  87 116 152 206 263 317 376
#     4  11  23  39  65  89 116 161 211 255 314 377
#     4   9  20  35  54  85 121 158 199 246 295 360
#     4  10  22  39  59  88 122 163 206 248 302 373
#     4  11  24  42  61  92 125 161 201 253 314 370
#     4  12  30  48  66  82 108 146 204 274 334 372
#
# _framework density 18.679652000000001
#
# number of rings (size 3 to 8) (size 9 to 14) (size 15 to 20)
#    0.000    1.333    2.667    2.400    7.467    5.333 
#    0.000    0.000    0.000    0.000    0.000    0.000 
#    0.000    3.200    0.000    0.000    0.000    0.000 
#
# Total GULP energy -334162.693796 kJ/mol
# GULP energy per Si atom -5569.378230 kJ/mol
# Density = 1.863714 g / cm^3
# Si number density = 18.679652 Si / 1000 Ang^3
#
#
#
# Elastic Constant Matrix: (Units=GPa)
#
#
# Indices 1 2 3 4 5 6 
#
# 1 79.4452 24.4400 21.3026 0.0000 0.0000 0.0000
# 2 24.4400 79.4460 21.3063 0.0000 0.0000 0.0000
# 3 21.3026 21.3063 86.5926 0.0000 0.0000 0.0000
# 4 0.0000 0.0000 0.0000 20.1548 0.0000 0.0000
# 5 0.0000 0.0000 0.0000 0.0000 20.1553 0.0000
# 6 0.0000 0.0000 0.0000 0.0000 0.0000 17.1403
#
#
#
# Elastic Compliance Matrix: (Units=1/GPa)
#
#
# Indices 1 2 3 4 5 6 
#
# 1 0.014443 -0.003737 -0.002634 0.000000 0.000000 0.000000
# 2 -0.003737 0.014443 -0.002635 0.000000 0.000000 0.000000
# 3 -0.002634 -0.002635 0.012844 0.000000 0.000000 0.000000
# 4 0.000000 0.000000 0.000000 0.049616 0.000000 0.000000
# 5 0.000000 0.000000 0.000000 0.000000 0.049615 0.000000
# 6 0.000000 0.000000 0.000000 0.000000 0.000000 0.058342
#
#
# Mechanical properties :
#
#
# Convention : Reuss Voigt Hill
#
# Bulk Modulus (GPa) = 42.15708 42.17571 42.16640
# Shear Modulus (GPa) = 22.20048 23.38575 22.79311
#
# Velocity S-wave (km/s) = 3.45118 3.54211 3.49694
# Velocity P-wave (km/s) = 6.20470 6.27345 6.23917
#
# Compressibility (1/GPa) = 0.02372081
#
# Stress axis : x y z
#
# Youngs Moduli (GPa) = 69.23739 69.23649 77.85453
#
# Poissons Ratio (x) = 0.25872 0.20504
# Poissons Ratio (y) = 0.25873 0.20511
# Poissons Ratio (z) = 0.18235 0.18240
#
# Static dielectric constant tensor:
#      x y z
#    x 1.632430 0.000000 0.000000 
#    y 0.000000 1.632430 0.000000 
#    z 0.000000 0.000000 1.785560 
# 
# From -- ./inp_files/10078.got.cif
#   From: 2010.05.17/outbox.cif.g08.bks.cpg/sg91_6_cif.got.tgz:10078.got - 2010.06.03 19:20:03.
