data_PCOD9548087
_publ_section_title
;
Structure prediction by ZEFSAII (Michael W. Deem and Ramdas Pophale) SiO2 
 PCOD9548087
Probable space group: P 41 2 2
;
_chemical_formula_sum "Si O2"
_cell_formula_units_Z 64
_cell_length_a 11.986734
_cell_length_b 11.986734
_cell_length_c 23.281832
_cell_angle_alpha 90.000000
_cell_angle_beta 90.000000
_cell_angle_gamma 90.000000
_cell_volume 3345.175342
_symmetry_space_group_name_H-M "P 41 2 2"
_symmetry_group_IT_number 91
_symmetry_cell_setting 'tetragonal'
loop_
_space_group_symop_operation_xyz
x,y,z
-y,x,1/4+z
-x,-y,1/2+z
y,-x,3/4+z
x,-y,1/2-z
-x,y,-z
y,x,3/4-z
-y,-x,1/4-z
loop_
_atom_site_type_symbol
_atom_site_label
_atom_site_fract_x
_atom_site_fract_y
_atom_site_fract_z
Si Si1 0.637469 0.088562 0.383451
Si Si2 0.852937 0.830999 0.051030
Si Si3 0.154493 0.286468 0.905848
Si Si4 0.170191 0.599169 0.165598
Si Si5 0.245899 0.667363 0.036940
Si Si6 0.983565 0.800390 0.852163
Si Si7 0.543595 0.871631 0.242117
Si Si8 0.882912 0.916797 0.486274
O O1 0.737704 0.153481 0.414150
O O2 0.522990 0.116898 0.417666
O O3 0.607783 0.128405 0.318929
O O4 0.675507 0.958624 0.377868
O O5 0.942382 0.773811 0.092338
O O6 0.892622 0.956841 0.037173
O O7 0.830288 0.760905 0.993775
O O8 0.274478 0.274478 0.875000
O O9 0.157514 0.162917 0.935608
O O10 0.154015 0.370567 0.958287
O O11 0.207524 0.630508 0.100543
O O12 0.274665 0.633334 0.205740
O O13 0.078048 0.694064 0.174359
O O14 0.218821 0.554687 0.003455
O O15 0.065167 0.834858 0.800064
O O16 0.894931 0.894931 0.875000
O O17 0.500677 0.000000 0.250000
O O18 0.000000 0.861494 0.500000
#
# Coordination Sequence:
#
# PCOD9548087 Si02
#       8
#     8   8   8   8   8   8   8   8
#     4  10  22  39  55  86 119 163 204 244 295 367
#     4  12  23  33  55  87 122 160 195 235 306 369
#     4  11  21  37  58  85 122 167 209 242 296 366
#     4  10  21  39  59  83 123 152 199 249 303 353
#     4  10  21  36  58  89 113 154 198 250 302 351
#     4  12  22  34  54  88 123 158 191 242 303 368
#     4   9  20  36  61  86 121 160 207 250 293 364
#     4  12  22  33  51  82 128 164 190 238 298 367
#
# _framework density 19.132031999999999
#
# number of rings (size 3 to 8) (size 9 to 14) (size 15 to 20)
#    0.000    1.250    5.000    2.625    5.250    0.500 
#    0.000    0.000    0.000    0.000   13.000    0.000 
#    0.000    0.000    0.000    0.000    0.000    0.000 
#
# Total GULP energy -356300.619048 kJ/mol
# GULP energy per Si atom -5567.197173 kJ/mol
# Density = 1.908849 g / cm^3
# Si number density = 19.132032 Si / 1000 Ang^3
#
#
#
# Elastic Constant Matrix: (Units=GPa)
#
#
# Indices 1 2 3 4 5 6 
#
# 1 93.9902 42.0241 21.4945 0.0000 0.0000 0.0000
# 2 42.0241 93.9902 21.4945 0.0000 0.0000 0.0000
# 3 21.4945 21.4945 30.1046 0.0000 0.0000 0.0000
# 4 0.0000 0.0000 0.0000 14.0151 0.0000 0.0000
# 5 0.0000 0.0000 0.0000 0.0000 14.0151 0.0000
# 6 0.0000 0.0000 0.0000 0.0000 0.0000 18.5670
#
#
#
# Elastic Compliance Matrix: (Units=1/GPa)
#
#
# Indices 1 2 3 4 5 6 
#
# 1 0.014369 -0.004874 -0.006779 0.000000 0.000000 0.000000
# 2 -0.004874 0.014369 -0.006779 0.000000 0.000000 0.000000
# 3 -0.006779 -0.006779 0.042898 0.000000 0.000000 0.000000
# 4 0.000000 0.000000 0.000000 0.071352 0.000000 0.000000
# 5 0.000000 0.000000 0.000000 0.000000 0.071352 0.000000
# 6 0.000000 0.000000 0.000000 0.000000 0.000000 0.053859
#
#
# Mechanical properties :
#
#
# Convention : Reuss Voigt Hill
#
# Bulk Modulus (GPa) = 28.75972 43.12347 35.94160
# Shear Modulus (GPa) = 15.79007 18.19089 16.99048
#
# Velocity S-wave (km/s) = 2.87596 3.08686 2.98327
# Velocity P-wave (km/s) = 5.10813 5.94086 5.54017
#
# Compressibility (1/GPa) = 0.03477086
#
# Stress axis : x y z
#
# Youngs Moduli (GPa) = 69.59387 69.59387 23.31098
#
# Poissons Ratio (x) = 0.33922 0.15803
# Poissons Ratio (y) = 0.33922 0.15803
# Poissons Ratio (z) = 0.47180 0.47180
#
# Static dielectric constant tensor:
#      x y z
#    x 1.711790 0.000000 0.000000 
#    y 0.000000 1.711790 0.000000 
#    z 0.000000 0.000000 1.684590 
# 
# From -- ./inp_files/7045.got.cif
#   From: 2010.05.17/outbox.cif.g08.bks.cpg/sg91_4_cif.got.tgz:7045.got - 2010.06.03 19:20:03.
