data_PCOD9548644
_publ_section_title
;
Structure prediction by ZEFSAII (Michael W. Deem and Ramdas Pophale) SiO2 
 PCOD9548644
Probable space group: P 41 2 2
;
_chemical_formula_sum "Si O2"
_cell_formula_units_Z 40
_cell_length_a 8.546642
_cell_length_b 8.546642
_cell_length_c 26.584589
_cell_angle_alpha 90.000000
_cell_angle_beta 90.000000
_cell_angle_gamma 90.000000
_cell_volume 1941.873682
_symmetry_space_group_name_H-M "P 41 2 2"
_symmetry_group_IT_number 91
_symmetry_cell_setting 'tetragonal'
loop_
_space_group_symop_operation_xyz
x,y,z
-y,x,1/4+z
-x,-y,1/2+z
y,-x,3/4+z
x,-y,1/2-z
-x,y,-z
y,x,3/4-z
-y,-x,1/4-z
loop_
_atom_site_type_symbol
_atom_site_label
_atom_site_fract_x
_atom_site_fract_y
_atom_site_fract_z
Si Si1 0.535181 0.288035 0.871587
Si Si2 0.025736 0.728957 0.623153
Si Si3 0.961995 0.316329 0.763068
Si Si4 0.687082 0.381400 0.491151
Si Si5 0.774280 0.717242 0.538051
O O1 0.458964 0.458964 0.875000
O O2 0.616551 0.277283 0.818024
O O3 0.636635 0.263330 0.920957
O O4 0.398215 0.162190 0.871031
O O5 0.947257 0.699631 0.676900
O O6 0.925883 0.713140 0.573012
O O7 0.100159 0.899842 0.625000
O O8 0.978636 0.500000 0.750000
O O9 0.793204 0.262003 0.739906
O O10 0.125855 0.235011 0.746152
O O11 0.500000 0.389167 0.500000
O O12 0.754071 0.546658 0.512189
#
# Coordination Sequence:
#
# PCOD9548644 Si02
#       5
#     8   8   8   8   8
#     4  11  21  40  69  97 127 178 230 272 341 418
#     4  11  25  43  67  96 137 185 231 279 357 429
#     4  11  23  43  68 101 138 180 229 293 358 414
#     4  11  23  40  70 102 135 179 235 289 352 427
#     4  12  23  44  69 100 139 178 225 295 343 412
#
# _framework density 20.598661
#
# number of rings (size 3 to 8) (size 9 to 14) (size 15 to 20)
#    0.000    0.800    6.000    3.000    0.000    3.200 
#    3.600    2.000    0.000    0.000    0.000    0.000 
#    0.000    0.000    0.000    0.000    0.000    0.000 
#
# Total GULP energy -223120.475373 kJ/mol
# GULP energy per Si atom -5578.011884 kJ/mol
# Density = 2.055178 g / cm^3
# Si number density = 20.598661 Si / 1000 Ang^3
#
#
#
# Elastic Constant Matrix: (Units=GPa)
#
#
# Indices 1 2 3 4 5 6 
#
# 1 106.6598 28.9299 39.1421 0.0000 0.0000 0.0000
# 2 28.9299 106.6582 39.1419 0.0000 0.0000 0.0000
# 3 39.1421 39.1419 103.4205 0.0000 0.0000 0.0000
# 4 0.0000 0.0000 0.0000 36.8281 0.0000 0.0000
# 5 0.0000 0.0000 0.0000 0.0000 36.8284 0.0000
# 6 0.0000 0.0000 0.0000 0.0000 0.0000 16.3964
#
#
#
# Elastic Compliance Matrix: (Units=1/GPa)
#
#
# Indices 1 2 3 4 5 6 
#
# 1 0.011151 -0.001714 -0.003572 0.000000 0.000000 0.000000
# 2 -0.001714 0.011151 -0.003572 0.000000 0.000000 0.000000
# 3 -0.003572 -0.003572 0.012373 0.000000 0.000000 0.000000
# 4 0.000000 0.000000 0.000000 0.027153 0.000000 0.000000
# 5 0.000000 0.000000 0.000000 0.000000 0.027153 0.000000
# 6 0.000000 0.000000 0.000000 0.000000 0.000000 0.060989
#
#
# Mechanical properties :
#
#
# Convention : Reuss Voigt Hill
#
# Bulk Modulus (GPa) = 58.96033 59.01848 58.98941
# Shear Modulus (GPa) = 28.84516 31.97890 30.41203
#
# Velocity S-wave (km/s) = 3.74617 3.94442 3.84657
# Velocity P-wave (km/s) = 6.88457 7.03267 6.95901
#
# Compressibility (1/GPa) = 0.01696056
#
# Stress axis : x y z
#
# Youngs Moduli (GPa) = 89.67605 89.67467 80.82136
#
# Poissons Ratio (x) = 0.15369 0.28868
# Poissons Ratio (y) = 0.15369 0.28868
# Poissons Ratio (z) = 0.32031 0.32031
#
# Static dielectric constant tensor:
#      x y z
#    x 1.782980 0.000000 0.000000 
#    y 0.000000 1.782980 0.000000 
#    z 0.000000 0.000000 1.712110 
# 
# From -- ./inp_files/6721.got.cif
#   From: 2010.05.17/outbox.cif.g08.bks.cpg/sg91_4_cif.got.tgz:6721.got - 2010.06.03 19:20:03.
