data_PCOD9548772
_publ_section_title
;
Structure prediction by ZEFSAII (Michael W. Deem and Ramdas Pophale) SiO2 
 PCOD9548772
Probable space group: P 41 2 2
;
_chemical_formula_sum "Si O2"
_cell_formula_units_Z 24
_cell_length_a 10.685223
_cell_length_b 10.685223
_cell_length_c 8.256354
_cell_angle_alpha 90.000000
_cell_angle_beta 90.000000
_cell_angle_gamma 90.000000
_cell_volume 942.660884
_symmetry_space_group_name_H-M "P 41 2 2"
_symmetry_group_IT_number 91
_symmetry_cell_setting 'tetragonal'
loop_
_space_group_symop_operation_xyz
x,y,z
-y,x,1/4+z
-x,-y,1/2+z
y,-x,3/4+z
x,-y,1/2-z
-x,y,-z
y,x,3/4-z
-y,-x,1/4-z
loop_
_atom_site_type_symbol
_atom_site_label
_atom_site_fract_x
_atom_site_fract_y
_atom_site_fract_z
Si Si1 0.878764 0.655154 0.949412
Si Si2 0.260253 0.449601 0.918376
Si Si3 0.121856 0.228318 0.101481
O O1 0.904729 0.701544 0.769712
O O2 0.758149 0.567057 0.963514
O O3 0.865113 0.771385 0.076362
O O4 0.000000 0.576791 0.000000
O O5 0.205603 0.500000 0.750000
O O6 0.396555 0.396555 0.875000
O O7 0.187051 0.331470 0.989139
O O8 0.000000 0.180693 0.000000
#
# Coordination Sequence:
#
# PCOD9548772 Si02
#       3
#     8   8   8
#     4  11  25  48  75 112 151 206 267 325 417 492
#     4  12  24  46  73 106 152 202 261 331 403 493
#     4  11  25  46  76 110 153 199 263 335 404 494
#
# _framework density 25.459841999999998
#
# number of rings (size 3 to 8) (size 9 to 14) (size 15 to 20)
#    0.000    0.667    3.333    4.000    0.000    0.000 
#    6.000    6.667    0.000    0.000    0.000    0.000 
#    0.000    0.000    0.000    0.000    0.000    0.000 
#
# Total GULP energy -133983.366242 kJ/mol
# GULP energy per Si atom -5582.640260 kJ/mol
# Density = 2.540189 g / cm^3
# Si number density = 25.459842 Si / 1000 Ang^3
#
#
#
# Elastic Constant Matrix: (Units=GPa)
#
#
# Indices 1 2 3 4 5 6 
#
# 1 88.1554 54.9949 65.1290 0.0000 0.0000 0.0000
# 2 54.9949 88.1554 65.1290 0.0000 0.0000 0.0000
# 3 65.1290 65.1290 171.5674 0.0000 0.0000 0.0000
# 4 0.0000 0.0000 0.0000 25.7776 0.0000 0.0000
# 5 0.0000 0.0000 0.0000 0.0000 25.7776 0.0000
# 6 0.0000 0.0000 0.0000 0.0000 0.0000 23.8957
#
#
#
# Elastic Compliance Matrix: (Units=1/GPa)
#
#
# Indices 1 2 3 4 5 6 
#
# 1 0.020414 -0.009742 -0.004051 0.000000 0.000000 0.000000
# 2 -0.009742 0.020414 -0.004051 0.000000 0.000000 0.000000
# 3 -0.004051 -0.004051 0.008904 0.000000 0.000000 0.000000
# 4 0.000000 0.000000 0.000000 0.038793 0.000000 0.000000
# 5 0.000000 0.000000 0.000000 0.000000 0.038793 0.000000
# 6 0.000000 0.000000 0.000000 0.000000 0.000000 0.041848
#
#
# Mechanical properties :
#
#
# Convention : Reuss Voigt Hill
#
# Bulk Modulus (GPa) = 71.20705 79.82045 75.51375
# Shear Modulus (GPa) = 23.86197 25.93187 24.89692
#
# Velocity S-wave (km/s) = 3.06476 3.19492 3.13052
# Velocity P-wave (km/s) = 6.36810 6.71041 6.54150
#
# Compressibility (1/GPa) = 0.01404355
#
# Stress axis : x y z
#
# Youngs Moduli (GPa) = 48.98554 48.98554 112.30391
#
# Poissons Ratio (x) = 0.47722 0.45497
# Poissons Ratio (y) = 0.47722 0.45497
# Poissons Ratio (z) = 0.19845 0.19845
#
# Static dielectric constant tensor:
#      x y z
#    x 2.063840 0.000000 0.000000 
#    y 0.000000 2.063840 0.000000 
#    z 0.000000 0.000000 2.030770 
# 
# From -- ./inp_files/1842.got.cif
#   From: 2010.05.17/outbox.cif.g08.bks.cpg/sg91_1_cif.got.tgz:1842.got - 2010.06.03 19:20:03.
