data_PCOD9548721
_publ_section_title
;
Structure prediction by ZEFSAII (Michael W. Deem and Ramdas Pophale) SiO2 
 PCOD9548721
Probable space group: P 41 2 2
;
_chemical_formula_sum "Si O2"
_cell_formula_units_Z 48
_cell_length_a 10.777102
_cell_length_b 10.777102
_cell_length_c 17.198806
_cell_angle_alpha 90.000000
_cell_angle_beta 90.000000
_cell_angle_gamma 90.000000
_cell_volume 1997.571275
_symmetry_space_group_name_H-M "P 41 2 2"
_symmetry_group_IT_number 91
_symmetry_cell_setting 'tetragonal'
loop_
_space_group_symop_operation_xyz
x,y,z
-y,x,1/4+z
-x,-y,1/2+z
y,-x,3/4+z
x,-y,1/2-z
-x,y,-z
y,x,3/4-z
-y,-x,1/4-z
loop_
_atom_site_type_symbol
_atom_site_label
_atom_site_fract_x
_atom_site_fract_y
_atom_site_fract_z
Si Si1 0.355371 0.865620 0.205065
Si Si2 0.762741 0.419279 0.019277
Si Si3 0.816700 0.598653 0.313787
Si Si4 0.900189 0.057168 0.932818
Si Si5 0.118000 0.302128 0.281204
Si Si6 0.925310 0.675645 0.619698
O O1 0.447049 0.752830 0.228370
O O2 0.371277 0.886469 0.113113
O O3 0.220280 0.806889 0.216783
O O4 0.368039 0.000000 0.250000
O O5 0.877680 0.377604 0.962152
O O6 0.679548 0.294040 0.025086
O O7 0.760752 0.464558 0.109166
O O8 0.861588 0.500000 0.250000
O O9 0.928089 0.665291 0.362304
O O10 0.887318 0.181438 0.884714
O O11 0.771692 0.013025 0.968761
O O12 0.954945 0.954945 0.875000
O O13 0.000000 0.079805 0.000000
O O14 0.133407 0.372796 0.200263
#
# Coordination Sequence:
#
# PCOD9548721 Si02
#       6
#     8   8   8   8   8   8
#     4  11  23  43  67 101 149 190 246 309 373 455
#     4  11  27  47  72 105 142 194 252 316 371 450
#     4  11  27  50  75 107 144 198 259 309 395 461
#     4  12  21  37  61 102 150 194 232 293 370 459
#     4  11  24  39  68 108 146 198 243 293 390 451
#     4  12  25  41  72 109 149 188 244 311 378 468
#
# _framework density 24.029178999999999
#
# number of rings (size 3 to 8) (size 9 to 14) (size 15 to 20)
#    0.000    0.667    3.333    5.000    9.333    0.000 
#    0.000    3.333    0.000    0.000    0.000    0.000 
#    0.000    0.000    0.000    0.000    0.000    0.000 
#
# Total GULP energy -267361.862194 kJ/mol
# GULP energy per Si atom -5570.038796 kJ/mol
# Density = 2.397449 g / cm^3
# Si number density = 24.029179 Si / 1000 Ang^3
#
#
#
# Elastic Constant Matrix: (Units=GPa)
#
#
# Indices 1 2 3 4 5 6 
#
# 1 75.8769 12.5259 41.4249 0.0000 0.0000 0.0000
# 2 12.5259 75.8769 41.4249 0.0000 0.0000 0.0000
# 3 41.4249 41.4249 200.0710 0.0000 0.0000 0.0000
# 4 0.0000 0.0000 0.0000 33.3291 0.0000 0.0000
# 5 0.0000 0.0000 0.0000 0.0000 33.3291 0.0000
# 6 0.0000 0.0000 0.0000 0.0000 0.0000 6.3994
#
#
#
# Elastic Compliance Matrix: (Units=1/GPa)
#
#
# Indices 1 2 3 4 5 6 
#
# 1 0.014910 -0.000875 -0.002906 0.000000 0.000000 0.000000
# 2 -0.000875 0.014910 -0.002906 0.000000 0.000000 0.000000
# 3 -0.002906 -0.002906 0.006202 0.000000 0.000000 0.000000
# 4 0.000000 0.000000 0.000000 0.030004 0.000000 0.000000
# 5 0.000000 0.000000 0.000000 0.000000 0.030004 0.000000
# 6 0.000000 0.000000 0.000000 0.000000 0.000000 0.156266
#
#
# Mechanical properties :
#
#
# Convention : Reuss Voigt Hill
#
# Bulk Modulus (GPa) = 44.15364 60.28626 52.21995
# Shear Modulus (GPa) = 18.30035 31.70809 25.00422
#
# Velocity S-wave (km/s) = 2.76268 3.63652 3.22930
# Velocity P-wave (km/s) = 5.34710 6.54031 5.97357
#
# Compressibility (1/GPa) = 0.02264819
#
# Stress axis : x y z
#
# Youngs Moduli (GPa) = 67.06808 67.06808 161.24811
#
# Poissons Ratio (x) = 0.05868 0.46859
# Poissons Ratio (y) = 0.05868 0.46859
# Poissons Ratio (z) = 0.19490 0.19490
#
# Static dielectric constant tensor:
#      x y z
#    x 2.064120 0.000000 0.000000 
#    y 0.000000 2.064120 0.000000 
#    z 0.000000 0.000000 2.105460 
# 
# From -- ./inp_files/21112.got.cif
#   From: 2010.05.17/outbox.cif.g08.bks.cpg/sg91_11_cif.got.tgz:21112.got - 2010.06.03 19:20:03.
