data_PCOD9548410
_publ_section_title
;
Structure prediction by ZEFSAII (Michael W. Deem and Ramdas Pophale) SiO2 
 PCOD9548410
Probable space group: P 41 2 2
;
_chemical_formula_sum "Si O2"
_cell_formula_units_Z 28
_cell_length_a 8.083318
_cell_length_b 8.083318
_cell_length_c 17.404051
_cell_angle_alpha 90.000000
_cell_angle_beta 90.000000
_cell_angle_gamma 90.000000
_cell_volume 1137.181213
_symmetry_space_group_name_H-M "P 41 2 2"
_symmetry_group_IT_number 91
_symmetry_cell_setting 'tetragonal'
loop_
_space_group_symop_operation_xyz
x,y,z
-y,x,1/4+z
-x,-y,1/2+z
y,-x,3/4+z
x,-y,1/2-z
-x,y,-z
y,x,3/4-z
-y,-x,1/4-z
loop_
_atom_site_type_symbol
_atom_site_label
_atom_site_fract_x
_atom_site_fract_y
_atom_site_fract_z
Si Si1 0.563080 0.500000 0.750000
Si Si2 0.728854 0.728854 0.875000
Si Si3 0.333925 0.333925 0.875000
Si Si4 0.825319 0.081926 0.886837
Si Si5 0.330860 0.000320 0.544734
O O1 0.667017 0.620843 0.804604
O O2 0.443504 0.391570 0.803616
O O3 0.926014 0.716944 0.893965
O O4 0.142955 0.364102 0.855904
O O5 0.841402 0.248533 0.837717
O O6 0.783408 0.080233 0.976878
O O7 0.009656 0.009656 0.875000
O O8 0.500000 0.032055 0.500000
#
# Coordination Sequence:
#
# PCOD9548410 Si02
#       5
#     4   4   4   8   8
#     4  10  22  46  74 124 158 206 276 328 406 484
#     4   9  23  42  80 108 165 207 264 344 388 487
#     4  11  23  44  72 114 163 211 258 328 412 477
#     4  10  25  47  75 109 152 212 265 328 396 470
#     4  12  26  47  78 113 160 212 270 334 399 486
#
# _framework density 24.622282999999999
#
# number of rings (size 3 to 8) (size 9 to 14) (size 15 to 20)
#    0.857    0.571    2.857    0.857    2.000    4.571 
#    0.000    0.000    0.000    0.000    0.000    0.000 
#    0.000    0.000    0.000    0.000    0.000    0.000 
#
# Total GULP energy -156465.667467 kJ/mol
# GULP energy per Si atom -5588.059552 kJ/mol
# Density = 2.456624 g / cm^3
# Si number density = 24.622283 Si / 1000 Ang^3
#
#
#
# Elastic Constant Matrix: (Units=GPa)
#
#
# Indices 1 2 3 4 5 6 
#
# 1 114.8179 62.4017 75.7353 0.0000 0.0000 0.0000
# 2 62.4017 114.8179 75.7353 0.0000 0.0000 0.0000
# 3 75.7353 75.7353 175.6407 0.0000 0.0000 0.0000
# 4 0.0000 0.0000 0.0000 45.9456 0.0000 0.0000
# 5 0.0000 0.0000 0.0000 0.0000 45.9456 0.0000
# 6 0.0000 0.0000 0.0000 0.0000 0.0000 47.5764
#
#
#
# Elastic Compliance Matrix: (Units=1/GPa)
#
#
# Indices 1 2 3 4 5 6 
#
# 1 0.014007 -0.005071 -0.003853 0.000000 0.000000 0.000000
# 2 -0.005071 0.014007 -0.003853 0.000000 0.000000 0.000000
# 3 -0.003853 -0.003853 0.009016 0.000000 0.000000 0.000000
# 4 0.000000 0.000000 0.000000 0.021765 0.000000 0.000000
# 5 0.000000 0.000000 0.000000 0.000000 0.021765 0.000000
# 6 0.000000 0.000000 0.000000 0.000000 0.000000 0.021019
#
#
# Mechanical properties :
#
#
# Convention : Reuss Voigt Hill
#
# Bulk Modulus (GPa) = 87.14011 92.55790 89.84901
# Shear Modulus (GPa) = 38.17986 40.65378 39.41682
#
# Velocity S-wave (km/s) = 3.94207 4.06778 4.00542
# Velocity P-wave (km/s) = 7.49583 7.72885 7.61323
#
# Compressibility (1/GPa) = 0.01147577
#
# Stress axis : x y z
#
# Youngs Moduli (GPa) = 71.39253 71.39253 110.90932
#
# Poissons Ratio (x) = 0.36203 0.42735
# Poissons Ratio (y) = 0.36203 0.42735
# Poissons Ratio (z) = 0.27509 0.27509
#
# Static dielectric constant tensor:
#      x y z
#    x 2.022060 0.000000 0.000000 
#    y 0.000000 2.022060 0.000000 
#    z 0.000000 0.000000 1.974770 
# 
# From -- ./inp_files/20965.got.cif
#   From: 2010.05.17/outbox.cif.g08.bks.cpg/sg91_11_cif.got.tgz:20965.got - 2010.06.03 19:20:03.
