data_PCOD9548946
_publ_section_title
;
Structure prediction by ZEFSAII (Michael W. Deem and Ramdas Pophale) SiO2 
 PCOD9548946
Probable space group: P 41 21 2
;
_chemical_formula_sum "Si O2"
_cell_formula_units_Z 56
_cell_length_a 11.126143
_cell_length_b 11.126143
_cell_length_c 26.154701
_cell_angle_alpha 90.000000
_cell_angle_beta 90.000000
_cell_angle_gamma 90.000000
_cell_volume 3237.718110
_symmetry_space_group_name_H-M "P 41 21 2"
_symmetry_group_IT_number 92
_symmetry_cell_setting 'tetragonal'
loop_
_space_group_symop_operation_xyz
x,y,z
1/2-y,1/2+x,1/4+z
-x,-y,1/2+z
1/2+y,1/2-x,3/4+z
1/2+x,1/2-y,3/4-z
1/2-x,1/2+y,1/4-z
y,x,-z
-y,-x,1/2-z
loop_
_atom_site_type_symbol
_atom_site_label
_atom_site_fract_x
_atom_site_fract_y
_atom_site_fract_z
Si Si1 0.674968 0.539142 0.304645
Si Si2 0.119178 0.510533 0.256495
Si Si3 0.050356 0.196410 0.919957
Si Si4 0.043406 0.588253 0.670208
Si Si5 0.106190 0.557161 0.087405
Si Si6 0.682648 0.485460 0.184422
Si Si7 0.458574 0.294543 0.656420
O O1 0.583142 0.643249 0.321770
O O2 0.809750 0.567529 0.321237
O O3 0.669255 0.525470 0.243492
O O4 0.619988 0.414046 0.325674
O O5 0.210105 0.572230 0.216220
O O6 0.199939 0.438246 0.297460
O O7 0.030531 0.428980 0.222396
O O8 0.034553 0.598642 0.289720
O O9 0.059066 0.267158 0.866718
O O10 0.139191 0.083427 0.920259
O O11 0.182809 0.557758 0.676330
O O12 0.029173 0.718718 0.645083
O O13 0.985520 0.496079 0.629469
O O14 0.642162 0.603124 0.153311
#
# Coordination Sequence:
#
# PCOD9548946 Si02
#       7
#     8   8   8   8   8   8   8
#     4  10  20  37  57  83 109 153 198 231 285 337
#     4  10  19  36  52  83 110 144 186 227 289 329
#     4  10  21  36  59  84 112 149 190 236 287 338
#     4  10  22  36  54  83 112 145 191 233 287 330
#     4  10  22  34  57  83 116 145 189 238 286 334
#     4  10  20  37  59  78 110 154 195 233 278 344
#     4  10  21  36  59  80 112 149 187 237 284 340
#
# _framework density 17.296132
#
# number of rings (size 3 to 8) (size 9 to 14) (size 15 to 20)
#    0.000    2.000    2.857    0.429    8.000    0.000 
#    0.000    0.000    0.000    0.000    0.000   12.000 
#    0.000    0.000    0.000    0.000    0.000    0.000 
#
# Total GULP energy -312286.164262 kJ/mol
# GULP energy per Si atom -5576.538648 kJ/mol
# Density = 1.725677 g / cm^3
# Si number density = 17.296132 Si / 1000 Ang^3
#
#
#
# Elastic Constant Matrix: (Units=GPa)
#
#
# Indices 1 2 3 4 5 6 
#
# 1 87.7040 26.1599 7.0827 0.0000 0.0000 0.0000
# 2 26.1599 87.7040 7.0827 0.0000 0.0000 0.0000
# 3 7.0827 7.0827 35.7973 0.0000 0.0000 0.0000
# 4 0.0000 0.0000 0.0000 22.0737 0.0000 0.0000
# 5 0.0000 0.0000 0.0000 0.0000 22.0737 0.0000
# 6 0.0000 0.0000 0.0000 0.0000 0.0000 11.7526
#
#
#
# Elastic Compliance Matrix: (Units=1/GPa)
#
#
# Indices 1 2 3 4 5 6 
#
# 1 0.012626 -0.003622 -0.001781 0.000000 0.000000 0.000000
# 2 -0.003622 0.012626 -0.001781 0.000000 0.000000 0.000000
# 3 -0.001781 -0.001781 0.028640 0.000000 0.000000 0.000000
# 4 0.000000 0.000000 0.000000 0.045303 0.000000 0.000000
# 5 0.000000 0.000000 0.000000 0.000000 0.045303 0.000000
# 6 0.000000 0.000000 0.000000 0.000000 0.000000 0.085088
#
#
# Mechanical properties :
#
#
# Convention : Reuss Voigt Hill
#
# Bulk Modulus (GPa) = 25.30228 32.42841 28.86534
# Shear Modulus (GPa) = 19.44540 22.57201 21.00870
#
# Velocity S-wave (km/s) = 3.35664 3.61644 3.48896
# Velocity P-wave (km/s) = 5.44824 6.01896 5.74070
#
# Compressibility (1/GPa) = 0.03952213
#
# Stress axis : x y z
#
# Youngs Moduli (GPa) = 79.19988 79.19988 34.91619
#
# Poissons Ratio (x) = 0.28688 0.06220
# Poissons Ratio (y) = 0.28688 0.06220
# Poissons Ratio (z) = 0.14109 0.14109
#
# Static dielectric constant tensor:
#      x y z
#    x 1.579660 0.000000 0.000000 
#    y 0.000000 1.579660 0.000000 
#    z 0.000000 0.000000 1.593190 
# 
# From -- ./inp_files/3946.got.cif
#   From: 2010.05.17/outbox.cif.g08.bks.cpg/sg92_2_cif.got.tgz:3946.got - 2010.06.03 19:35:17.
