data_PCOD9548812
_publ_section_title
;
Structure prediction by ZEFSAII (Michael W. Deem and Ramdas Pophale) SiO2 
 PCOD9548812
Probable space group: P 41 2 2
;
_chemical_formula_sum "Si O2"
_cell_formula_units_Z 24
_cell_length_a 9.434715
_cell_length_b 9.434715
_cell_length_c 11.367341
_cell_angle_alpha 90.000000
_cell_angle_beta 90.000000
_cell_angle_gamma 90.000000
_cell_volume 1011.850754
_symmetry_space_group_name_H-M "P 41 2 2"
_symmetry_group_IT_number 91
_symmetry_cell_setting 'tetragonal'
loop_
_space_group_symop_operation_xyz
x,y,z
-y,x,1/4+z
-x,-y,1/2+z
y,-x,3/4+z
x,-y,1/2-z
-x,y,-z
y,x,3/4-z
-y,-x,1/4-z
loop_
_atom_site_type_symbol
_atom_site_label
_atom_site_fract_x
_atom_site_fract_y
_atom_site_fract_z
Si Si1 0.540167 0.683395 0.684058
Si Si2 0.000000 0.889073 0.500000
Si Si3 0.500000 0.076508 0.000000
Si Si4 0.658740 0.826748 0.125570
O O1 0.447360 0.552641 0.625000
O O2 0.449278 0.750206 0.786718
O O3 0.702991 0.663674 0.722001
O O4 0.560276 0.812663 0.593080
O O5 0.869952 0.789747 0.541098
O O6 0.032471 0.967530 0.625000
O O7 0.392656 0.971790 0.933621
#
# Coordination Sequence:
#
# PCOD9548812 Si02
#       4
#     8   4   4   8
#     4  12  24  48  77 105 148 209 257 332 404 469
#     4  12  26  54  80 114 166 226 266 332 416 502
#     4  12  24  42  74 112 144 204 252 328 408 470
#     4  12  26  46  76 109 157 198 273 330 408 481
#
# _framework density 23.718910999999999
#
# number of rings (size 3 to 8) (size 9 to 14) (size 15 to 20)
#    0.000    0.000    6.667    3.000    4.667    0.000 
#   12.000    0.000    0.000    0.000    0.000    0.000 
#    0.000    0.000    0.000    0.000    0.000    0.000 
#
# Total GULP energy -133840.213546 kJ/mol
# GULP energy per Si atom -5576.675564 kJ/mol
# Density = 2.366493 g / cm^3
# Si number density = 23.718911 Si / 1000 Ang^3
#
#
#
# Elastic Constant Matrix: (Units=GPa)
#
#
# Indices 1 2 3 4 5 6 
#
# 1 134.3683 59.5273 35.6626 0.0000 0.0000 0.0000
# 2 59.5273 134.3686 35.6629 0.0000 0.0000 0.0000
# 3 35.6626 35.6629 107.5751 0.0000 0.0000 0.0000
# 4 0.0000 0.0000 0.0000 43.2305 0.0000 0.0000
# 5 0.0000 0.0000 0.0000 0.0000 43.2306 0.0000
# 6 0.0000 0.0000 0.0000 0.0000 0.0000 -15.6843
#
#
#
# Elastic Compliance Matrix: (Units=1/GPa)
#
#
# Indices 1 2 3 4 5 6 
#
# 1 0.009618 -0.003744 -0.001947 0.000000 0.000000 0.000000
# 2 -0.003744 0.009618 -0.001947 0.000000 0.000000 0.000000
# 3 -0.001947 -0.001947 0.010587 0.000000 0.000000 0.000000
# 4 0.000000 0.000000 0.000000 0.023132 0.000000 0.000000
# 5 0.000000 0.000000 0.000000 0.000000 0.023132 0.000000
# 6 0.000000 0.000000 0.000000 0.000000 0.000000 -0.063758
#
#
# Mechanical properties :
#
#
# Convention : Reuss Voigt Hill
#
# Bulk Modulus (GPa) = 68.75014 70.89085 69.82050
# Shear Modulus (GPa) = 154.06874 30.51930 92.29402
#
# Velocity S-wave (km/s) = 8.06828 3.59096 6.24468
# Velocity P-wave (km/s) = 10.76310 6.86630 9.02747
#
# Compressibility (1/GPa) = 0.01454542
#
# Stress axis : x y z
#
# Youngs Moduli (GPa) = 103.97522 103.97528 94.45632
#
# Poissons Ratio (x) = 0.38928 0.18393
# Poissons Ratio (y) = 0.38928 0.18393
# Poissons Ratio (z) = 0.20246 0.20246
#
# Static dielectric constant tensor:
#      x y z
#    x 1.945830 0.000000 0.000000 
#    y 0.000000 1.945830 0.000000 
#    z 0.000000 0.000000 2.013670 
# 
# From -- ./inp_files/20493.got.cif
#   From: 2010.05.17/outbox.cif.g08.bks.cpg/sg91_11_cif.got.tgz:20493.got - 2010.06.03 19:20:03.
