data_PCOD9548627
_publ_section_title
;
Structure prediction by ZEFSAII (Michael W. Deem and Ramdas Pophale) SiO2 
 PCOD9548627
Probable space group: P 41 2 2
;
_chemical_formula_sum "Si O2"
_cell_formula_units_Z 56
_cell_length_a 15.163931
_cell_length_b 15.163931
_cell_length_c 13.341902
_cell_angle_alpha 90.000000
_cell_angle_beta 90.000000
_cell_angle_gamma 90.000000
_cell_volume 3067.901032
_symmetry_space_group_name_H-M "P 41 2 2"
_symmetry_group_IT_number 91
_symmetry_cell_setting 'tetragonal'
loop_
_space_group_symop_operation_xyz
x,y,z
-y,x,1/4+z
-x,-y,1/2+z
y,-x,3/4+z
x,-y,1/2-z
-x,y,-z
y,x,3/4-z
-y,-x,1/4-z
loop_
_atom_site_type_symbol
_atom_site_label
_atom_site_fract_x
_atom_site_fract_y
_atom_site_fract_z
Si Si1 0.320087 0.979185 0.045000
Si Si2 0.087700 0.806346 0.042524
Si Si3 0.129248 0.241316 0.814937
Si Si4 0.407445 0.811518 0.940358
Si Si5 0.772121 0.721112 0.107423
Si Si6 0.609958 0.099351 0.225832
Si Si7 0.448734 0.137887 0.094634
O O1 0.278996 0.950391 0.149600
O O2 0.390700 0.056646 0.055565
O O3 0.364670 0.894837 0.997036
O O4 0.246765 0.029936 0.978310
O O5 0.135646 0.864355 0.125000
O O6 0.159329 0.775682 0.961352
O O7 0.000000 0.851388 0.000000
O O8 0.153740 0.153740 0.875000
O O9 0.197827 0.253768 0.721700
O O10 0.139024 0.319509 0.897289
O O11 0.327154 0.740889 0.929435
O O12 0.412976 0.846095 0.825725
O O13 0.500000 0.789910 0.000000
O O14 0.795212 0.617726 0.102293
O O15 0.518874 0.095570 0.167458
O O16 0.640573 0.000000 0.250000
O O17 0.500000 0.178655 0.000000
#
# Coordination Sequence:
#
# PCOD9548627 Si02
#       7
#     8   8   8   8   8   8   8
#     4  11  22  40  61  93 130 163 211 268 333 389
#     4  12  24  41  66  86 128 181 223 269 322 400
#     4  11  21  38  61  92 128 168 206 256 335 393
#     4  12  25  39  60  95 132 167 216 276 329 388
#     4  11  24  40  62  92 130 170 213 263 337 403
#     4  12  22  34  61  95 129 164 206 270 333 388
#     4  11  21  37  61  97 128 161 210 268 342 403
#
# _framework density 18.253520999999999
#
# number of rings (size 3 to 8) (size 9 to 14) (size 15 to 20)
#    0.000    0.571   10.000    1.286    4.000    0.000 
#    0.000    0.714    0.000    0.000    0.000    5.000 
#    0.000    0.000    0.000    0.000    0.000    0.000 
#
# Total GULP energy -312105.480784 kJ/mol
# GULP energy per Si atom -5573.312157 kJ/mol
# Density = 1.821198 g / cm^3
# Si number density = 18.253521 Si / 1000 Ang^3
#
#
#
# Elastic Constant Matrix: (Units=GPa)
#
#
# Indices 1 2 3 4 5 6 
#
# 1 76.1083 46.6803 39.0080 0.0000 0.0000 0.0000
# 2 46.6803 76.1090 39.0083 0.0000 0.0000 0.0000
# 3 39.0080 39.0083 115.1519 0.0000 0.0000 0.0000
# 4 0.0000 0.0000 0.0000 31.3601 0.0000 0.0000
# 5 0.0000 0.0000 0.0000 0.0000 31.3605 0.0000
# 6 0.0000 0.0000 0.0000 0.0000 0.0000 -39.3559
#
#
#
# Elastic Compliance Matrix: (Units=1/GPa)
#
#
# Indices 1 2 3 4 5 6 
#
# 1 0.022179 -0.011802 -0.003515 0.000000 0.000000 0.000000
# 2 -0.011802 0.022179 -0.003515 0.000000 0.000000 0.000000
# 3 -0.003515 -0.003515 0.011066 0.000000 0.000000 0.000000
# 4 0.000000 0.000000 0.000000 0.031888 0.000000 0.000000
# 5 0.000000 0.000000 0.000000 0.000000 0.031887 0.000000
# 6 0.000000 0.000000 0.000000 0.000000 0.000000 -0.025409
#
#
# Mechanical properties :
#
#
# Convention : Reuss Voigt Hill
#
# Bulk Modulus (GPa) = 56.30822 57.41803 56.86312
# Shear Modulus (GPa) = 36.39672 14.18444 25.29058
#
# Velocity S-wave (km/s) = 4.47022 2.79064 3.72629
# Velocity P-wave (km/s) = 7.58674 6.47362 7.05217
#
# Compressibility (1/GPa) = 0.01775940
#
# Stress axis : x y z
#
# Youngs Moduli (GPa) = 45.08704 45.08738 90.36737
#
# Poissons Ratio (x) = 0.53210 0.31768
# Poissons Ratio (y) = 0.53210 0.31769
# Poissons Ratio (z) = 0.15850 0.15850
#
# Static dielectric constant tensor:
#      x y z
#    x 1.657970 0.000000 0.000000 
#    y 0.000000 1.657970 0.000000 
#    z 0.000000 0.000000 1.740300 
# 
# From -- ./inp_files/15965.got.cif
#   From: 2010.05.17/outbox.cif.g08.bks.cpg/sg91_8_cif.got.tgz:15965.got - 2010.06.03 19:20:03.
