data_PCOD9548440
_publ_section_title
;
Structure prediction by ZEFSAII (Michael W. Deem and Ramdas Pophale) SiO2 
 PCOD9548440
Probable space group: P 41 2 2
;
_chemical_formula_sum "Si O2"
_cell_formula_units_Z 56
_cell_length_a 14.949942
_cell_length_b 14.949942
_cell_length_c 11.051707
_cell_angle_alpha 90.000000
_cell_angle_beta 90.000000
_cell_angle_gamma 90.000000
_cell_volume 2470.064978
_symmetry_space_group_name_H-M "P 41 2 2"
_symmetry_group_IT_number 91
_symmetry_cell_setting 'tetragonal'
loop_
_space_group_symop_operation_xyz
x,y,z
-y,x,1/4+z
-x,-y,1/2+z
y,-x,3/4+z
x,-y,1/2-z
-x,y,-z
y,x,3/4-z
-y,-x,1/4-z
loop_
_atom_site_type_symbol
_atom_site_label
_atom_site_fract_x
_atom_site_fract_y
_atom_site_fract_z
Si Si1 0.923594 0.640831 0.754949
Si Si2 0.575148 0.821714 0.220510
Si Si3 0.745081 0.260341 0.270625
Si Si4 0.595786 0.119514 0.011667
Si Si5 0.144916 0.900425 0.761642
Si Si6 0.970048 0.822718 0.868015
Si Si7 0.265438 0.580235 0.146632
O O1 0.896671 0.589950 0.631466
O O2 0.955226 0.743577 0.772489
O O3 0.827976 0.631973 0.822700
O O4 0.019124 0.595805 0.789432
O O5 0.644313 0.741233 0.187159
O O6 0.607493 0.870926 0.343193
O O7 0.480090 0.771739 0.216227
O O8 0.736997 0.263003 0.125000
O O9 0.819101 0.331810 0.303342
O O10 0.784090 0.166666 0.316165
O O11 0.500000 0.163003 0.000000
O O12 0.131123 0.868878 0.625000
O O13 0.050408 0.888368 0.827063
O O14 0.177045 0.000000 0.750000
O O15 0.881224 0.881224 0.875000
O O16 0.000000 0.787258 0.000000
O O17 0.281330 0.500000 0.250000
O O18 0.348709 0.651292 0.125000
#
# Coordination Sequence:
#
# PCOD9548440 Si02
#       7
#     8   8   8   8   8   8   8
#     4  11  24  41  65  94 132 179 224 278 347 426
#     4  10  23  41  68  94 132 177 226 279 346 425
#     4   9  21  38  59  95 128 166 219 271 336 409
#     4  11  22  40  65  98 134 169 222 280 341 415
#     4  11  22  38  61  88 130 180 230 275 333 410
#     4  12  26  41  58  93 138 184 245 297 350 418
#     4  10  23  47  71 101 132 175 232 292 370 446
#
# _framework density 22.671467
#
# number of rings (size 3 to 8) (size 9 to 14) (size 15 to 20)
#    0.000    1.429    1.429    3.857    4.000    3.429 
#    0.000    2.857    0.000    0.000    0.000    0.000 
#    0.000    0.000    0.000    0.000    0.000    0.000 
#
# Total GULP energy -311849.996042 kJ/mol
# GULP energy per Si atom -5568.749929 kJ/mol
# Density = 2.261987 g / cm^3
# Si number density = 22.671467 Si / 1000 Ang^3
#
#
#
# Elastic Constant Matrix: (Units=GPa)
#
#
# Indices 1 2 3 4 5 6 
#
# 1 113.5116 52.7001 4.6748 0.0000 0.0000 0.0000
# 2 52.7001 113.5120 4.6748 0.0000 0.0000 0.0000
# 3 4.6748 4.6748 41.9178 0.0000 0.0000 0.0000
# 4 0.0000 0.0000 0.0000 23.1764 0.0000 0.0000
# 5 0.0000 0.0000 0.0000 0.0000 23.1762 0.0000
# 6 0.0000 0.0000 0.0000 0.0000 0.0000 22.2174
#
#
#
# Elastic Compliance Matrix: (Units=1/GPa)
#
#
# Indices 1 2 3 4 5 6 
#
# 1 0.011249 -0.005195 -0.000675 0.000000 0.000000 0.000000
# 2 -0.005195 0.011249 -0.000675 0.000000 0.000000 0.000000
# 3 -0.000675 -0.000675 0.024007 0.000000 0.000000 0.000000
# 4 0.000000 0.000000 0.000000 0.043147 0.000000 0.000000
# 5 0.000000 0.000000 0.000000 0.000000 0.043148 0.000000
# 6 0.000000 0.000000 0.000000 0.000000 0.000000 0.045010
#
#
# Mechanical properties :
#
#
# Convention : Reuss Voigt Hill
#
# Bulk Modulus (GPa) = 29.92688 43.67120 36.79904
# Shear Modulus (GPa) = 24.74769 27.50678 26.12724
#
# Velocity S-wave (km/s) = 3.30749 3.48699 3.39843
# Velocity P-wave (km/s) = 5.27398 5.95958 5.62723
#
# Compressibility (1/GPa) = 0.03341478
#
# Stress axis : x y z
#
# Youngs Moduli (GPa) = 88.89428 88.89455 41.65487
#
# Poissons Ratio (x) = 0.46180 0.02813
# Poissons Ratio (y) = 0.46180 0.02812
# Poissons Ratio (z) = 0.06002 0.06002
#
# Static dielectric constant tensor:
#      x y z
#    x 1.879150 0.000000 0.000000 
#    y 0.000000 1.879160 0.000000 
#    z 0.000000 0.000000 1.987730 
# 
# From -- ./inp_files/20313.got.cif
#   From: 2010.05.17/outbox.cif.g08.bks.cpg/sg91_11_cif.got.tgz:20313.got - 2010.06.03 19:20:03.
