data_PCOD9548639
_publ_section_title
;
Structure prediction by ZEFSAII (Michael W. Deem and Ramdas Pophale) SiO2 
 PCOD9548639
Probable space group: P 41 2 2
;
_chemical_formula_sum "Si O2"
_cell_formula_units_Z 40
_cell_length_a 10.568259
_cell_length_b 10.568259
_cell_length_c 16.796821
_cell_angle_alpha 90.000000
_cell_angle_beta 90.000000
_cell_angle_gamma 90.000000
_cell_volume 1876.004995
_symmetry_space_group_name_H-M "P 41 2 2"
_symmetry_group_IT_number 91
_symmetry_cell_setting 'tetragonal'
loop_
_space_group_symop_operation_xyz
x,y,z
-y,x,1/4+z
-x,-y,1/2+z
y,-x,3/4+z
x,-y,1/2-z
-x,y,-z
y,x,3/4-z
-y,-x,1/4-z
loop_
_atom_site_type_symbol
_atom_site_label
_atom_site_fract_x
_atom_site_fract_y
_atom_site_fract_z
Si Si1 0.998838 0.530461 0.910636
Si Si2 0.858372 0.977471 0.155046
Si Si3 0.164539 0.326431 0.822959
Si Si4 0.494580 0.287925 0.404700
Si Si5 0.695582 0.781968 0.609519
O O1 0.083345 0.440392 0.855970
O O2 0.095548 0.649509 0.909853
O O3 0.853528 0.536326 0.880730
O O4 0.000000 0.477578 0.000000
O O5 0.794180 0.845233 0.140003
O O6 0.843310 0.000000 0.250000
O O7 0.787489 0.067243 0.090462
O O8 0.002515 0.997486 0.125000
O O9 0.287492 0.287492 0.875000
O O10 0.199021 0.342565 0.732222
O O11 0.500000 0.276852 0.500000
O O12 0.388715 0.388715 0.375000
O O13 0.362717 0.334601 0.617502
#
# Coordination Sequence:
#
# PCOD9548639 Si02
#       5
#     8   8   8   8   8
#     4  12  26  46  70 104 146 194 247 303 370 445
#     4  11  21  39  67 104 140 179 228 307 369 416
#     4  11  21  41  74 100 133 177 241 311 353 414
#     4  12  28  50  73 104 157 200 238 309 380 441
#     4  12  25  43  72 106 136 195 252 294 372 453
#
# _framework density 21.321906999999999
#
# number of rings (size 3 to 8) (size 9 to 14) (size 15 to 20)
#    0.000    0.400    6.000    4.800    0.000    4.000 
#    0.000    0.000    0.000    0.000    0.000    0.000 
#    0.000    0.000    0.000    0.000    0.000    0.000 
#
# Total GULP energy -222799.001396 kJ/mol
# GULP energy per Si atom -5569.975035 kJ/mol
# Density = 2.127338 g / cm^3
# Si number density = 21.321907 Si / 1000 Ang^3
#
#
#
# Elastic Constant Matrix: (Units=GPa)
#
#
# Indices 1 2 3 4 5 6 
#
# 1 88.1517 60.5281 44.0199 0.0000 0.0000 0.0000
# 2 60.5281 88.1528 44.0197 0.0000 0.0000 0.0000
# 3 44.0199 44.0197 129.8020 0.0000 0.0000 0.0000
# 4 0.0000 0.0000 0.0000 39.1627 0.0000 0.0000
# 5 0.0000 0.0000 0.0000 0.0000 39.1622 0.0000
# 6 0.0000 0.0000 0.0000 0.0000 0.0000 220.8397
#
#
#
# Elastic Compliance Matrix: (Units=1/GPa)
#
#
# Indices 1 2 3 4 5 6 
#
# 1 0.022308 -0.013892 -0.002854 0.000000 0.000000 0.000000
# 2 -0.013892 0.022308 -0.002854 0.000000 0.000000 0.000000
# 3 -0.002854 -0.002854 0.009640 0.000000 0.000000 0.000000
# 4 0.000000 0.000000 0.000000 0.025535 0.000000 0.000000
# 5 0.000000 0.000000 0.000000 0.000000 0.025535 0.000000
# 6 0.000000 0.000000 0.000000 0.000000 0.000000 0.004528
#
#
# Mechanical properties :
#
#
# Convention : Reuss Voigt Hill
#
# Bulk Modulus (GPa) = 66.42194 67.02686 66.72440
# Shear Modulus (GPa) = 32.45227 70.33551 51.39389
#
# Velocity S-wave (km/s) = 3.90553 5.74970 4.91489
# Velocity P-wave (km/s) = 7.18033 8.69383 7.97307
#
# Compressibility (1/GPa) = 0.01505527
#
# Stress axis : x y z
#
# Youngs Moduli (GPa) = 44.82656 44.82730 103.73610
#
# Poissons Ratio (x) = 0.62275 0.29608
# Poissons Ratio (y) = 0.62274 0.29606
# Poissons Ratio (z) = 0.12794 0.12794
#
# Static dielectric constant tensor:
#      x y z
#    x 2.269030 0.000000 0.000000 
#    y 0.000000 2.269020 0.000000 
#    z 0.000000 0.000000 1.710680 
# 
# From -- ./inp_files/4729.got.cif
#   From: 2010.05.17/outbox.cif.g08.bks.cpg/sg91_3_cif.got.tgz:4729.got - 2010.06.03 19:20:03.
