data_PCOD9548313
_publ_section_title
;
Structure prediction by ZEFSAII (Michael W. Deem and Ramdas Pophale) SiO2 
 PCOD9548313
Probable space group: P 41 2 2
;
_chemical_formula_sum "Si O2"
_cell_formula_units_Z 56
_cell_length_a 12.420419
_cell_length_b 12.420419
_cell_length_c 18.797065
_cell_angle_alpha 90.000000
_cell_angle_beta 90.000000
_cell_angle_gamma 90.000000
_cell_volume 2899.763220
_symmetry_space_group_name_H-M "P 41 2 2"
_symmetry_group_IT_number 91
_symmetry_cell_setting 'tetragonal'
loop_
_space_group_symop_operation_xyz
x,y,z
-y,x,1/4+z
-x,-y,1/2+z
y,-x,3/4+z
x,-y,1/2-z
-x,y,-z
y,x,3/4-z
-y,-x,1/4-z
loop_
_atom_site_type_symbol
_atom_site_label
_atom_site_fract_x
_atom_site_fract_y
_atom_site_fract_z
Si Si1 0.172884 0.544036 0.932099
Si Si2 0.318837 0.025580 0.997470
Si Si3 0.513443 0.963636 0.897123
Si Si4 0.230441 0.416740 0.074933
Si Si5 0.913890 0.962450 0.064980
Si Si6 0.364698 0.521598 0.833160
Si Si7 0.238944 0.181169 0.111881
O O1 0.246963 0.504647 0.866622
O O2 0.194609 0.672751 0.925004
O O3 0.046265 0.530241 0.917666
O O4 0.211083 0.476638 0.000032
O O5 0.297926 0.135021 0.041462
O O6 0.375648 0.956434 0.059414
O O7 0.413805 0.019102 0.939496
O O8 0.204499 0.989411 0.966391
O O9 0.481781 0.843595 0.878520
O O10 0.356084 0.406061 0.091994
O O11 0.189988 0.293695 0.085003
O O12 0.899034 0.850723 0.107882
O O13 0.952755 0.047246 0.125000
O O14 0.000000 0.957902 0.000000
O O15 0.363059 0.500000 0.750000
O O16 0.443791 0.443791 0.875000
#
# Coordination Sequence:
#
# PCOD9548313 Si02
#       7
#     8   8   8   8   8   8   8
#     4  10  23  39  68  94 128 173 216 278 331 395
#     4  10  22  42  60  95 131 174 213 273 326 405
#     4  10  22  40  67  92 132 174 221 267 342 390
#     4  11  22  42  65  98 131 170 221 279 327 399
#     4  12  24  43  68  94 129 177 221 274 339 396
#     4  11  23  43  66  96 135 171 222 272 339 398
#     4  10  23  42  64  94 136 170 224 275 330 400
#
# _framework density 19.311921999999999
#
# number of rings (size 3 to 8) (size 9 to 14) (size 15 to 20)
#    0.000    1.429    4.286    0.429    6.000    3.429 
#    7.714    0.000    0.000    0.000    0.000    0.000 
#    0.000    0.000    0.000    0.000    0.000    0.000 
#
# Total GULP energy -311877.012082 kJ/mol
# GULP energy per Si atom -5569.232359 kJ/mol
# Density = 1.926797 g / cm^3
# Si number density = 19.311922 Si / 1000 Ang^3
#
#
#
# Elastic Constant Matrix: (Units=GPa)
#
#
# Indices 1 2 3 4 5 6 
#
# 1 84.2826 26.7488 31.9045 0.0000 0.0000 0.0000
# 2 26.7488 84.2822 31.9048 0.0000 0.0000 0.0000
# 3 31.9045 31.9048 77.4287 0.0000 0.0000 0.0000
# 4 0.0000 0.0000 0.0000 26.1572 0.0000 0.0000
# 5 0.0000 0.0000 0.0000 0.0000 26.1573 0.0000
# 6 0.0000 0.0000 0.0000 0.0000 0.0000 22.1694
#
#
#
# Elastic Compliance Matrix: (Units=1/GPa)
#
#
# Indices 1 2 3 4 5 6 
#
# 1 0.014591 -0.002790 -0.004863 0.000000 0.000000 0.000000
# 2 -0.002790 0.014591 -0.004863 0.000000 0.000000 0.000000
# 3 -0.004863 -0.004863 0.016922 0.000000 0.000000 0.000000
# 4 0.000000 0.000000 0.000000 0.038230 0.000000 0.000000
# 5 0.000000 0.000000 0.000000 0.000000 0.038230 0.000000
# 6 0.000000 0.000000 0.000000 0.000000 0.000000 0.045107
#
#
# Mechanical properties :
#
#
# Convention : Reuss Voigt Hill
#
# Bulk Modulus (GPa) = 47.45198 47.45661 47.45430
# Shear Modulus (GPa) = 25.03409 25.25916 25.14662
#
# Velocity S-wave (km/s) = 3.60433 3.62049 3.61242
# Velocity P-wave (km/s) = 6.47659 6.48879 6.48269
#
# Compressibility (1/GPa) = 0.02107394
#
# Stress axis : x y z
#
# Youngs Moduli (GPa) = 68.53536 68.53472 59.09316
#
# Poissons Ratio (x) = 0.19122 0.28735
# Poissons Ratio (y) = 0.19122 0.28735
# Poissons Ratio (z) = 0.33326 0.33326
#
# Static dielectric constant tensor:
#      x y z
#    x 1.688640 0.000000 0.000000 
#    y 0.000000 1.688640 0.000000 
#    z 0.000000 0.000000 1.701490 
# 
# From -- ./inp_files/17310.got.cif
#   From: 2010.05.17/outbox.cif.g08.bks.cpg/sg91_9_cif.got.tgz:17310.got - 2010.06.03 19:20:03.
