data_PCOD9548510
_publ_section_title
;
Structure prediction by ZEFSAII (Michael W. Deem and Ramdas Pophale) SiO2 
 PCOD9548510
Probable space group: P 41 2 2
;
_chemical_formula_sum "Si O2"
_cell_formula_units_Z 40
_cell_length_a 7.986111
_cell_length_b 7.986111
_cell_length_c 28.385534
_cell_angle_alpha 90.000000
_cell_angle_beta 90.000000
_cell_angle_gamma 90.000000
_cell_volume 1810.371705
_symmetry_space_group_name_H-M "P 41 2 2"
_symmetry_group_IT_number 91
_symmetry_cell_setting 'tetragonal'
loop_
_space_group_symop_operation_xyz
x,y,z
-y,x,1/4+z
-x,-y,1/2+z
y,-x,3/4+z
x,-y,1/2-z
-x,y,-z
y,x,3/4-z
-y,-x,1/4-z
loop_
_atom_site_type_symbol
_atom_site_label
_atom_site_fract_x
_atom_site_fract_y
_atom_site_fract_z
Si Si1 0.754594 0.719416 0.972554
Si Si2 0.792669 0.885977 0.680634
Si Si3 0.749990 0.157017 0.074959
Si Si4 0.342608 0.696107 0.763057
Si Si5 0.048500 0.633265 0.828033
O O1 0.726929 0.522541 0.964000
O O2 0.939865 0.757727 0.955438
O O3 0.655962 0.860576 0.942633
O O4 0.747739 0.740015 0.029734
O O5 0.697347 0.907285 0.630729
O O6 0.991569 0.863312 0.674875
O O7 0.758237 0.241764 0.125000
O O8 0.561047 0.090451 0.070491
O O9 0.790910 0.293740 0.035057
O O10 0.346311 0.500000 0.750000
O O11 0.183410 0.730072 0.795905
#
# Coordination Sequence:
#
# PCOD9548510 Si02
#       5
#     8   8   8   8   8
#     4  11  24  46  69 103 142 187 245 290 364 448
#     4  11  25  44  69 102 140 188 235 294 364 434
#     4  11  23  45  70 102 145 185 239 300 368 437
#     4  10  24  43  71 104 140 187 237 298 364 434
#     4  11  24  45  71 105 142 189 240 304 368 433
#
# _framework density 22.094911
#
# number of rings (size 3 to 8) (size 9 to 14) (size 15 to 20)
#    0.000    1.200    2.000    3.000    5.600    0.000 
#    7.200    0.000    0.000    0.000    0.000    0.000 
#    0.000    0.000    0.000    0.000    0.000    0.000 
#
# Total GULP energy -223153.578607 kJ/mol
# GULP energy per Si atom -5578.839465 kJ/mol
# Density = 2.204462 g / cm^3
# Si number density = 22.094911 Si / 1000 Ang^3
#
#
#
# Elastic Constant Matrix: (Units=GPa)
#
#
# Indices 1 2 3 4 5 6 
#
# 1 67.6285 21.5843 12.1760 0.0000 0.0000 0.0000
# 2 21.5843 67.6289 12.1760 0.0000 0.0000 0.0000
# 3 12.1760 12.1760 108.8291 0.0000 0.0000 0.0000
# 4 0.0000 0.0000 0.0000 58.8579 0.0000 0.0000
# 5 0.0000 0.0000 0.0000 0.0000 58.8604 0.0000
# 6 0.0000 0.0000 0.0000 0.0000 0.0000 40.2910
#
#
#
# Elastic Compliance Matrix: (Units=1/GPa)
#
#
# Indices 1 2 3 4 5 6 
#
# 1 0.016640 -0.005078 -0.001294 0.000000 0.000000 0.000000
# 2 -0.005078 0.016640 -0.001294 0.000000 0.000000 0.000000
# 3 -0.001294 -0.001294 0.009478 0.000000 0.000000 0.000000
# 4 0.000000 0.000000 0.000000 0.016990 0.000000 0.000000
# 5 0.000000 0.000000 0.000000 0.000000 0.016989 0.000000
# 6 0.000000 0.000000 0.000000 0.000000 0.000000 0.024819
#
#
# Mechanical properties :
#
#
# Convention : Reuss Voigt Hill
#
# Bulk Modulus (GPa) = 36.45878 37.32878 36.89378
# Shear Modulus (GPa) = 39.67294 44.81188 42.24241
#
# Velocity S-wave (km/s) = 4.24201 4.50839 4.37723
# Velocity P-wave (km/s) = 6.36629 6.63567 6.50238
#
# Compressibility (1/GPa) = 0.02742824
#
# Stress axis : x y z
#
# Youngs Moduli (GPa) = 60.09527 60.09565 105.50554
#
# Poissons Ratio (x) = 0.30516 0.13648
# Poissons Ratio (y) = 0.30516 0.13648
# Poissons Ratio (z) = 0.07774 0.07774
#
# Static dielectric constant tensor:
#      x y z
#    x 1.834820 0.000000 0.000000 
#    y 0.000000 1.834820 0.000000 
#    z 0.000000 0.000000 1.911110 
# 
# From -- ./inp_files/7365.got.cif
#   From: 2010.05.17/outbox.cif.g08.bks.cpg/sg91_4_cif.got.tgz:7365.got - 2010.06.03 19:20:03.
