data_PCOD9548183
_publ_section_title
;
Structure prediction by ZEFSAII (Michael W. Deem and Ramdas Pophale) SiO2 
 PCOD9548183
Probable space group: P 41 2 2
;
_chemical_formula_sum "Si O2"
_cell_formula_units_Z 48
_cell_length_a 11.065162
_cell_length_b 11.065162
_cell_length_c 16.506058
_cell_angle_alpha 90.000000
_cell_angle_beta 90.000000
_cell_angle_gamma 90.000000
_cell_volume 2020.965595
_symmetry_space_group_name_H-M "P 41 2 2"
_symmetry_group_IT_number 91
_symmetry_cell_setting 'tetragonal'
loop_
_space_group_symop_operation_xyz
x,y,z
-y,x,1/4+z
-x,-y,1/2+z
y,-x,3/4+z
x,-y,1/2-z
-x,y,-z
y,x,3/4-z
-y,-x,1/4-z
loop_
_atom_site_type_symbol
_atom_site_label
_atom_site_fract_x
_atom_site_fract_y
_atom_site_fract_z
Si Si1 0.223122 0.015633 0.460456
Si Si2 0.409338 0.919465 0.353824
Si Si3 0.261674 0.261099 0.518297
Si Si4 0.431952 0.568049 0.625000
Si Si5 0.155411 0.000000 0.750000
Si Si6 0.757384 0.500000 0.250000
Si Si7 0.500000 0.365971 0.500000
Si Si8 0.347775 0.947426 0.880927
O O1 0.285494 0.986306 0.376275
O O2 0.114197 0.928807 0.482779
O O3 0.328021 0.002127 0.528870
O O4 0.190271 0.154758 0.473497
O O5 0.374511 0.824797 0.283694
O O6 0.436551 0.833727 0.430562
O O7 0.522069 0.011143 0.348224
O O8 0.385568 0.288995 0.471045
O O9 0.311847 0.193665 0.601871
O O10 0.419077 0.669330 0.556243
O O11 0.441665 0.446188 0.571407
O O12 0.245538 0.007923 0.825821
#
# Coordination Sequence:
#
# PCOD9548183 Si02
#       8
#     8   8   8   4   4   4   4   8
#     4  10  21  41  66  92 129 177 223 287 349 417
#     4  12  20  41  67  97 134 179 232 289 358 422
#     4  10  22  40  66  94 132 179 233 283 357 435
#     4  10  24  34  62  88 138 180 222 278 350 414
#     4  12  22  42  66  96 136 168 236 288 356 418
#     4  11  20  39  56  98 128 179 223 282 344 422
#     4  11  20  43  60  94 132 183 227 280 346 434
#     4  10  23  38  65  97 123 176 221 290 346 422
#
# _framework density 23.751024000000001
#
# number of rings (size 3 to 8) (size 9 to 14) (size 15 to 20)
#    1.000    0.333    5.000    1.500    0.000    1.333 
#    3.000    0.833    7.333    0.000    0.000    0.000 
#    0.000    0.000    0.000    0.000    0.000    0.000 
#
# Total GULP energy -267636.556778 kJ/mol
# GULP energy per Si atom -5575.761600 kJ/mol
# Density = 2.369697 g / cm^3
# Si number density = 23.751024 Si / 1000 Ang^3
#
#
#
# Elastic Constant Matrix: (Units=GPa)
#
#
# Indices 1 2 3 4 5 6 
#
# 1 98.9149 47.9322 14.9522 0.0000 0.0000 0.0000
# 2 47.9322 98.9148 14.9521 0.0000 0.0000 0.0000
# 3 14.9522 14.9521 46.6107 0.0000 0.0000 0.0000
# 4 0.0000 0.0000 0.0000 17.2893 0.0000 0.0000
# 5 0.0000 0.0000 0.0000 0.0000 17.2895 0.0000
# 6 0.0000 0.0000 0.0000 0.0000 0.0000 47.8200
#
#
#
# Elastic Compliance Matrix: (Units=1/GPa)
#
#
# Indices 1 2 3 4 5 6 
#
# 1 0.013450 -0.006164 -0.002337 0.000000 0.000000 0.000000
# 2 -0.006164 0.013450 -0.002337 0.000000 0.000000 0.000000
# 3 -0.002337 -0.002337 0.022954 0.000000 0.000000 0.000000
# 4 0.000000 0.000000 0.000000 0.057839 0.000000 0.000000
# 5 0.000000 0.000000 0.000000 0.000000 0.057839 0.000000
# 6 0.000000 0.000000 0.000000 0.000000 0.000000 0.020912
#
#
# Mechanical properties :
#
#
# Convention : Reuss Voigt Hill
#
# Bulk Modulus (GPa) = 35.49049 44.45706 39.97377
# Shear Modulus (GPa) = 22.98710 27.58670 25.28690
#
# Velocity S-wave (km/s) = 3.11438 3.41177 3.26646
# Velocity P-wave (km/s) = 5.28277 5.85481 5.57613
#
# Compressibility (1/GPa) = 0.02817656
#
# Stress axis : x y z
#
# Youngs Moduli (GPa) = 74.34874 74.34867 43.56577
#
# Poissons Ratio (x) = 0.45831 0.10182
# Poissons Ratio (y) = 0.45831 0.10182
# Poissons Ratio (z) = 0.17377 0.17377
#
# Static dielectric constant tensor:
#      x y z
#    x 1.967700 0.000000 0.000000 
#    y 0.000000 1.967700 0.000000 
#    z 0.000000 0.000000 2.009590 
# 
# From -- ./inp_files/12027.got.cif
#   From: 2010.05.17/outbox.cif.g08.bks.cpg/sg91_7_cif.got.tgz:12027.got - 2010.06.03 19:20:03.
