data_PCOD9548262
_publ_section_title
;
Structure prediction by ZEFSAII (Michael W. Deem and Ramdas Pophale) SiO2 
 PCOD9548262
Probable space group: P 41 2 2
;
_chemical_formula_sum "Si O2"
_cell_formula_units_Z 48
_cell_length_a 9.112931
_cell_length_b 9.112931
_cell_length_c 31.366634
_cell_angle_alpha 90.000000
_cell_angle_beta 90.000000
_cell_angle_gamma 90.000000
_cell_volume 2604.858162
_symmetry_space_group_name_H-M "P 41 2 2"
_symmetry_group_IT_number 91
_symmetry_cell_setting 'tetragonal'
loop_
_space_group_symop_operation_xyz
x,y,z
-y,x,1/4+z
-x,-y,1/2+z
y,-x,3/4+z
x,-y,1/2-z
-x,y,-z
y,x,3/4-z
-y,-x,1/4-z
loop_
_atom_site_type_symbol
_atom_site_label
_atom_site_fract_x
_atom_site_fract_y
_atom_site_fract_z
Si Si1 0.672212 0.332659 0.502665
Si Si2 0.845040 0.330694 0.415872
Si Si3 0.678517 0.325755 0.253078
Si Si4 0.839805 0.680849 0.414172
Si Si5 0.170019 0.157497 0.670062
Si Si6 0.842271 0.181714 0.577721
O O1 0.500000 0.308233 0.500000
O O2 0.743324 0.303017 0.456683
O O3 0.697552 0.505252 0.512736
O O4 0.740616 0.234105 0.539541
O O5 0.851305 0.505300 0.408250
O O6 0.796027 0.247231 0.373151
O O7 0.004426 0.266020 0.426867
O O8 0.705027 0.500000 0.250000
O O9 0.707950 0.249549 0.207744
O O10 0.772902 0.249289 0.289693
O O11 0.754950 0.754950 0.375000
O O12 0.000446 0.751399 0.418372
O O13 0.994064 0.136777 0.672650
O O14 0.781708 0.218293 0.625000
#
# Coordination Sequence:
#
# PCOD9548262 Si02
#       6
#     8   8   8   8   8   8
#     4  10  22  38  59  85 113 149 191 234 282 339
#     4  10  22  39  58  82 115 152 186 230 286 341
#     4  10  22  40  59  84 117 152 190 233 286 344
#     4  11  22  38  60  85 114 150 191 234 285 339
#     4  11  23  38  60  87 115 150 193 239 286 339
#     4  10  22  39  57  83 115 149 188 232 285 340
#
# _framework density 18.427109000000002
#
# number of rings (size 3 to 8) (size 9 to 14) (size 15 to 20)
#    0.000    1.667    0.000    4.500    0.000   11.333 
#    0.000    1.667    0.000    0.000    0.000    0.000 
#    0.000    0.000    0.000    0.000    0.000    0.000 
#
# Total GULP energy -268262.225378 kJ/mol
# GULP energy per Si atom -5588.796362 kJ/mol
# Density = 1.838517 g / cm^3
# Si number density = 18.427109 Si / 1000 Ang^3
#
#
#
# Elastic Constant Matrix: (Units=GPa)
#
#
# Indices 1 2 3 4 5 6 
#
# 1 101.6787 73.4200 91.4720 0.0000 0.0000 0.0000
# 2 73.4200 101.6783 91.4720 0.0000 0.0000 0.0000
# 3 91.4720 91.4720 148.9743 0.0000 0.0000 0.0000
# 4 0.0000 0.0000 0.0000 35.3852 0.0000 0.0000
# 5 0.0000 0.0000 0.0000 0.0000 35.3852 0.0000
# 6 0.0000 0.0000 0.0000 0.0000 0.0000 30.3106
#
#
#
# Elastic Compliance Matrix: (Units=1/GPa)
#
#
# Indices 1 2 3 4 5 6 
#
# 1 0.025659 -0.009728 -0.009782 0.000000 0.000000 0.000000
# 2 -0.009728 0.025660 -0.009782 0.000000 0.000000 0.000000
# 3 -0.009782 -0.009782 0.018725 0.000000 0.000000 0.000000
# 4 0.000000 0.000000 0.000000 0.028260 0.000000 0.000000
# 5 0.000000 0.000000 0.000000 0.000000 0.028260 0.000000
# 6 0.000000 0.000000 0.000000 0.000000 0.000000 0.032992
#
#
# Mechanical properties :
#
#
# Convention : Reuss Voigt Hill
#
# Bulk Modulus (GPa) = 87.26208 96.11770 91.68989
# Shear Modulus (GPa) = 22.52644 26.61403 24.57023
#
# Velocity S-wave (km/s) = 3.50017 3.80450 3.65550
# Velocity P-wave (km/s) = 7.98705 8.46010 8.22697
#
# Compressibility (1/GPa) = 0.01145973
#
# Stress axis : x y z
#
# Youngs Moduli (GPa) = 38.97198 38.97169 53.40384
#
# Poissons Ratio (x) = 0.37912 0.52240
# Poissons Ratio (y) = 0.37912 0.52241
# Poissons Ratio (z) = 0.38123 0.38123
#
# Static dielectric constant tensor:
#      x y z
#    x 1.613490 0.000000 0.000000 
#    y 0.000000 1.613490 0.000000 
#    z 0.000000 0.000000 1.617490 
# 
# From -- ./inp_files/7918.got.cif
#   From: 2010.05.17/outbox.cif.g08.bks.cpg/sg91_4_cif.got.tgz:7918.got - 2010.06.03 19:20:03.
