data_PCOD9548607
_publ_section_title
;
Structure prediction by ZEFSAII (Michael W. Deem and Ramdas Pophale) SiO2 
 PCOD9548607
Probable space group: P 41 2 2
;
_chemical_formula_sum "Si O2"
_cell_formula_units_Z 40
_cell_length_a 7.429870
_cell_length_b 7.429870
_cell_length_c 34.945486
_cell_angle_alpha 90.000000
_cell_angle_beta 90.000000
_cell_angle_gamma 90.000000
_cell_volume 1929.094553
_symmetry_space_group_name_H-M "P 41 2 2"
_symmetry_group_IT_number 91
_symmetry_cell_setting 'tetragonal'
loop_
_space_group_symop_operation_xyz
x,y,z
-y,x,1/4+z
-x,-y,1/2+z
y,-x,3/4+z
x,-y,1/2-z
-x,y,-z
y,x,3/4-z
-y,-x,1/4-z
loop_
_atom_site_type_symbol
_atom_site_label
_atom_site_fract_x
_atom_site_fract_y
_atom_site_fract_z
Si Si1 0.967489 0.413269 0.823244
Si Si2 0.000000 0.785773 0.000000
Si Si3 0.887993 0.887993 0.375000
Si Si4 0.348550 0.610878 0.965832
Si Si5 0.232602 0.298192 0.764752
Si Si6 0.827061 0.066846 0.943192
O O1 0.062505 0.307900 0.857810
O O2 0.046153 0.295949 0.787528
O O3 0.028075 0.621138 0.819687
O O4 0.751294 0.402492 0.817542
O O5 0.840614 0.671227 0.017444
O O6 0.094595 0.900996 0.033090
O O7 0.039705 0.907141 0.407955
O O8 0.303132 0.402356 0.956955
O O9 0.500000 0.622455 0.000000
O O10 0.235505 0.500000 0.750000
O O11 0.223805 0.179416 0.726162
#
# Coordination Sequence:
#
# PCOD9548607 Si02
#       6
#     8   4   4   8   8   8
#     4  11  22  43  62  87 131 163 205 265 308 371
#     4  12  20  36  70  90 120 160 210 264 320 354
#     4  12  26  40  60  88 132 186 200 240 320 378
#     4  11  20  37  67  98 118 154 205 277 319 354
#     4   9  20  39  68  92 118 155 210 267 315 358
#     4  11  22  43  62  94 125 164 212 259 311 378
#
# _framework density 20.735116999999999
#
# number of rings (size 3 to 8) (size 9 to 14) (size 15 to 20)
#    0.000    1.200    6.000    0.600    0.000    4.000 
#    3.600    0.000    0.000    0.000    0.000    0.000 
#    0.000    0.000    0.000    0.000    0.000    0.000 
#
# Total GULP energy -222679.784075 kJ/mol
# GULP energy per Si atom -5566.994602 kJ/mol
# Density = 2.068792 g / cm^3
# Si number density = 20.735117 Si / 1000 Ang^3
#
#
#
# Elastic Constant Matrix: (Units=GPa)
#
#
# Indices 1 2 3 4 5 6 
#
# 1 101.2603 6.6124 18.6568 0.0000 0.0000 0.0000
# 2 6.6124 101.2603 18.6568 0.0000 0.0000 0.0000
# 3 18.6568 18.6568 57.7803 0.0000 0.0000 0.0000
# 4 0.0000 0.0000 0.0000 19.1929 0.0000 0.0000
# 5 0.0000 0.0000 0.0000 0.0000 19.1929 0.0000
# 6 0.0000 0.0000 0.0000 0.0000 0.0000 9.6915
#
#
#
# Elastic Compliance Matrix: (Units=1/GPa)
#
#
# Indices 1 2 3 4 5 6 
#
# 1 0.010501 -0.000065 -0.003370 0.000000 0.000000 0.000000
# 2 -0.000065 0.010501 -0.003370 0.000000 0.000000 0.000000
# 3 -0.003370 -0.003370 0.019483 0.000000 0.000000 0.000000
# 4 0.000000 0.000000 0.000000 0.052103 0.000000 0.000000
# 5 0.000000 0.000000 0.000000 0.000000 0.052103 0.000000
# 6 0.000000 0.000000 0.000000 0.000000 0.000000 0.103183
#
#
# Mechanical properties :
#
#
# Convention : Reuss Voigt Hill
#
# Bulk Modulus (GPa) = 37.20794 38.68369 37.94582
# Shear Modulus (GPa) = 18.48840 24.04043 21.26441
#
# Velocity S-wave (km/s) = 2.98928 3.40870 3.20586
# Velocity P-wave (km/s) = 5.46789 5.84713 5.66069
#
# Compressibility (1/GPa) = 0.02687598
#
# Stress axis : x y z
#
# Youngs Moduli (GPa) = 95.23254 95.23254 51.32685
#
# Poissons Ratio (x) = 0.00618 0.17295
# Poissons Ratio (y) = 0.00618 0.17295
# Poissons Ratio (z) = 0.32090 0.32090
#
# Static dielectric constant tensor:
#      x y z
#    x 1.787480 0.000000 0.000000 
#    y 0.000000 1.787480 0.000000 
#    z 0.000000 0.000000 1.831710 
# 
# From -- ./inp_files/13473.got.cif
#   From: 2010.05.17/outbox.cif.g08.bks.cpg/sg91_7_cif.got.tgz:13473.got - 2010.06.03 19:20:03.
