data_PCOD9548187
_publ_section_title
;
Structure prediction by ZEFSAII (Michael W. Deem and Ramdas Pophale) SiO2 
 PCOD9548187
Probable space group: P 41 2 2
;
_chemical_formula_sum "Si O2"
_cell_formula_units_Z 36
_cell_length_a 14.890654
_cell_length_b 14.890654
_cell_length_c 8.037720
_cell_angle_alpha 90.000000
_cell_angle_beta 90.000000
_cell_angle_gamma 90.000000
_cell_volume 1782.216327
_symmetry_space_group_name_H-M "P 41 2 2"
_symmetry_group_IT_number 91
_symmetry_cell_setting 'tetragonal'
loop_
_space_group_symop_operation_xyz
x,y,z
-y,x,1/4+z
-x,-y,1/2+z
y,-x,3/4+z
x,-y,1/2-z
-x,y,-z
y,x,3/4-z
-y,-x,1/4-z
loop_
_atom_site_type_symbol
_atom_site_label
_atom_site_fract_x
_atom_site_fract_y
_atom_site_fract_z
Si Si1 0.416441 0.919538 0.625815
Si Si2 0.536325 0.745748 0.185546
Si Si3 0.881668 0.000000 0.750000
Si Si4 0.654443 0.703174 0.686064
Si Si5 0.764288 0.132728 0.977587
O O1 0.500000 0.914558 0.500000
O O2 0.414042 0.829261 0.733497
O O3 0.318777 0.927553 0.543282
O O4 0.434162 0.000000 0.750000
O O5 0.450369 0.724591 0.297726
O O6 0.610623 0.669310 0.162349
O O7 0.500000 0.767609 0.000000
O O8 0.821741 0.072013 0.851836
O O9 0.944140 0.055861 0.625000
O O10 0.713042 0.782944 0.607888
O O11 0.687679 0.687679 0.875000
O O12 0.826767 0.173234 0.125000
#
# Coordination Sequence:
#
# PCOD9548187 Si02
#       5
#     8   8   4   8   8
#     4  12  26  41  67 101 139 175 226 285 340 414
#     4  10  21  41  68  97 141 184 231 282 332 407
#     4  12  30  52  76 100 136 170 232 298 364 434
#     4  10  21  41  71  99 141 187 234 281 342 408
#     4  12  26  44  74 101 133 184 225 282 358 420
#
# _framework density 20.199569
#
# number of rings (size 3 to 8) (size 9 to 14) (size 15 to 20)
#    0.000    0.889    4.444    2.000    4.667    3.556 
#    0.000    0.000   39.111    0.000    0.000    0.000 
#    0.000    0.000    0.000    0.000    0.000    0.000 
#
# Total GULP energy -201279.198132 kJ/mol
# GULP energy per Si atom -5591.088837 kJ/mol
# Density = 2.015359 g / cm^3
# Si number density = 20.199569 Si / 1000 Ang^3
#
#
#
# Elastic Constant Matrix: (Units=GPa)
#
#
# Indices 1 2 3 4 5 6 
#
# 1 112.1484 49.0452 63.4118 0.0000 0.0000 0.0000
# 2 49.0452 112.1501 63.4119 0.0000 0.0000 0.0000
# 3 63.4118 63.4119 92.3154 0.0000 0.0000 0.0000
# 4 0.0000 0.0000 0.0000 46.2727 0.0000 0.0000
# 5 0.0000 0.0000 0.0000 0.0000 46.2725 0.0000
# 6 0.0000 0.0000 0.0000 0.0000 0.0000 26.8898
#
#
#
# Elastic Compliance Matrix: (Units=1/GPa)
#
#
# Indices 1 2 3 4 5 6 
#
# 1 0.014673 -0.001174 -0.009273 0.000000 0.000000 0.000000
# 2 -0.001174 0.014673 -0.009273 0.000000 0.000000 0.000000
# 3 -0.009273 -0.009273 0.023571 0.000000 0.000000 0.000000
# 4 0.000000 0.000000 0.000000 0.021611 0.000000 0.000000
# 5 0.000000 0.000000 0.000000 0.000000 0.021611 0.000000
# 6 0.000000 0.000000 0.000000 0.000000 0.000000 0.037189
#
#
# Mechanical properties :
#
#
# Convention : Reuss Voigt Hill
#
# Bulk Modulus (GPa) = 74.18924 74.26130 74.22527
# Shear Modulus (GPa) = 28.20726 33.27001 30.73863
#
# Velocity S-wave (km/s) = 3.74094 4.06281 3.90519
# Velocity P-wave (km/s) = 7.44764 7.67152 7.56041
#
# Compressibility (1/GPa) = 0.01347904
#
# Stress axis : x y z
#
# Youngs Moduli (GPa) = 68.15165 68.15313 42.42456
#
# Poissons Ratio (x) = 0.08000 0.39339
# Poissons Ratio (y) = 0.08000 0.39338
# Poissons Ratio (z) = 0.63195 0.63195
#
# Static dielectric constant tensor:
#      x y z
#    x 1.681530 0.000000 0.000000 
#    y 0.000000 1.681520 0.000000 
#    z 0.000000 0.000000 1.739830 
# 
# From -- ./inp_files/19317.got.cif
#   From: 2010.05.17/outbox.cif.g08.bks.cpg/sg91_10_cif.got.tgz:19317.got - 2010.06.03 19:20:03.
