data_PCOD9548746
_publ_section_title
;
Structure prediction by ZEFSAII (Michael W. Deem and Ramdas Pophale) SiO2 
 PCOD9548746
Probable space group: P 41 2 2
;
_chemical_formula_sum "Si O2"
_cell_formula_units_Z 56
_cell_length_a 14.196086
_cell_length_b 14.196086
_cell_length_c 13.096173
_cell_angle_alpha 90.000000
_cell_angle_beta 90.000000
_cell_angle_gamma 90.000000
_cell_volume 2639.256785
_symmetry_space_group_name_H-M "P 41 2 2"
_symmetry_group_IT_number 91
_symmetry_cell_setting 'tetragonal'
loop_
_space_group_symop_operation_xyz
x,y,z
-y,x,1/4+z
-x,-y,1/2+z
y,-x,3/4+z
x,-y,1/2-z
-x,y,-z
y,x,3/4-z
-y,-x,1/4-z
loop_
_atom_site_type_symbol
_atom_site_label
_atom_site_fract_x
_atom_site_fract_y
_atom_site_fract_z
Si Si1 0.607709 0.686347 0.479443
Si Si2 0.814875 0.673881 0.835754
Si Si3 0.202055 0.331013 0.092428
Si Si4 0.150052 0.077546 0.661459
Si Si5 0.007270 0.782888 0.193575
Si Si6 0.518499 0.112998 0.737666
Si Si7 0.408040 0.110183 0.044807
O O1 0.500000 0.657456 0.500000
O O2 0.641728 0.641728 0.375000
O O3 0.688057 0.663985 0.562889
O O4 0.607578 0.799850 0.473564
O O5 0.717070 0.717070 0.875000
O O6 0.811085 0.659088 0.714233
O O7 0.847717 0.582014 0.896051
O O8 0.895699 0.751894 0.858034
O O9 0.154275 0.231360 0.062093
O O10 0.147405 0.413425 0.033476
O O11 0.055078 0.136508 0.642687
O O12 0.139573 0.000000 0.750000
O O13 0.182610 0.027677 0.558043
O O14 0.950146 0.685159 0.198876
O O15 0.564356 0.148105 0.843355
O O16 0.521893 0.000000 0.750000
O O17 0.500000 0.057164 0.000000
#
# Coordination Sequence:
#
# PCOD9548746 Si02
#       7
#     8   8   8   8   8   8   8
#     4  11  24  45  74 105 140 184 234 291 365 430
#     4  11  26  44  69  97 145 191 240 290 362 430
#     4  11  24  44  69 104 141 180 237 300 364 427
#     4  11  25  41  67  94 139 180 235 289 359 416
#     4  11  25  43  65  97 137 184 236 291 349 436
#     4  12  25  42  73 104 142 183 239 298 366 432
#     4  11  24  42  70 104 138 173 229 297 361 426
#
# _framework density 21.218095000000002
#
# number of rings (size 3 to 8) (size 9 to 14) (size 15 to 20)
#    0.000    0.857    2.857    3.857   10.000    1.143 
#    0.000    2.143    0.000    0.000    0.000    0.000 
#    0.000    0.000    0.000    0.000    0.000    0.000 
#
# Total GULP energy -313259.151504 kJ/mol
# GULP energy per Si atom -5593.913420 kJ/mol
# Density = 2.116980 g / cm^3
# Si number density = 21.218095 Si / 1000 Ang^3
#
#
#
# Elastic Constant Matrix: (Units=GPa)
#
#
# Indices 1 2 3 4 5 6 
#
# 1 91.7371 32.6930 22.6559 0.0000 0.0000 0.0000
# 2 32.6930 91.7371 22.6559 0.0000 0.0000 0.0000
# 3 22.6559 22.6559 53.5765 0.0000 0.0000 0.0000
# 4 0.0000 0.0000 0.0000 32.4365 0.0000 0.0000
# 5 0.0000 0.0000 0.0000 0.0000 32.4365 0.0000
# 6 0.0000 0.0000 0.0000 0.0000 0.0000 36.1115
#
#
#
# Elastic Compliance Matrix: (Units=1/GPa)
#
#
# Indices 1 2 3 4 5 6 
#
# 1 0.013218 -0.003719 -0.004017 0.000000 0.000000 0.000000
# 2 -0.003719 0.013218 -0.004017 0.000000 0.000000 0.000000
# 3 -0.004017 -0.004017 0.022062 0.000000 0.000000 0.000000
# 4 0.000000 0.000000 0.000000 0.030829 0.000000 0.000000
# 5 0.000000 0.000000 0.000000 0.000000 0.030829 0.000000
# 6 0.000000 0.000000 0.000000 0.000000 0.000000 0.027692
#
#
# Mechanical properties :
#
#
# Convention : Reuss Voigt Hill
#
# Bulk Modulus (GPa) = 40.01114 43.67336 41.84225
# Shear Modulus (GPa) = 29.46629 30.79995 30.13312
#
# Velocity S-wave (km/s) = 3.73062 3.81411 3.77259
# Velocity P-wave (km/s) = 6.12002 6.32648 6.22411
#
# Compressibility (1/GPa) = 0.02499304
#
# Stress axis : x y z
#
# Youngs Moduli (GPa) = 75.65450 75.65450 45.32620
#
# Poissons Ratio (x) = 0.28132 0.18208
# Poissons Ratio (y) = 0.28132 0.18208
# Poissons Ratio (z) = 0.30391 0.30391
#
# Static dielectric constant tensor:
#      x y z
#    x 1.777090 0.000000 0.000000 
#    y 0.000000 1.777090 0.000000 
#    z 0.000000 0.000000 1.775540 
# 
# From -- ./inp_files/10855.got.cif
#   From: 2010.05.17/outbox.cif.g08.bks.cpg/sg91_6_cif.got.tgz:10855.got - 2010.06.03 19:20:03.
