data_PCOD9548042
_publ_section_title
;
Structure prediction by ZEFSAII (Michael W. Deem and Ramdas Pophale) SiO2 
 PCOD9548042
Probable space group: P 41 2 2
;
_chemical_formula_sum "Si O2"
_cell_formula_units_Z 56
_cell_length_a 15.035411
_cell_length_b 15.035411
_cell_length_c 11.235778
_cell_angle_alpha 90.000000
_cell_angle_beta 90.000000
_cell_angle_gamma 90.000000
_cell_volume 2540.000243
_symmetry_space_group_name_H-M "P 41 2 2"
_symmetry_group_IT_number 91
_symmetry_cell_setting 'tetragonal'
loop_
_space_group_symop_operation_xyz
x,y,z
-y,x,1/4+z
-x,-y,1/2+z
y,-x,3/4+z
x,-y,1/2-z
-x,y,-z
y,x,3/4-z
-y,-x,1/4-z
loop_
_atom_site_type_symbol
_atom_site_label
_atom_site_fract_x
_atom_site_fract_y
_atom_site_fract_z
Si Si1 0.455559 0.000000 0.750000
Si Si2 0.963058 0.220233 0.266382
Si Si3 0.551420 0.756915 0.625783
Si Si4 0.693948 0.276865 0.486128
Si Si5 0.859430 0.857406 0.017862
Si Si6 0.192676 0.609683 0.466342
Si Si7 0.779369 0.779369 0.375000
Si Si8 0.952151 0.415778 0.328505
O O1 0.398208 0.911559 0.745458
O O2 0.529909 0.024356 0.652010
O O3 0.937089 0.175561 0.393603
O O4 0.872457 0.223078 0.193111
O O5 0.989359 0.323496 0.284651
O O6 0.043225 0.172244 0.197983
O O7 0.500000 0.740493 0.500000
O O8 0.631906 0.692920 0.660125
O O9 0.475303 0.761122 0.725127
O O10 0.600381 0.854486 0.632572
O O11 0.695416 0.304585 0.625000
O O12 0.782276 0.216122 0.470214
O O13 0.620053 0.214182 0.422995
O O14 0.869728 0.869728 0.875000
O O15 0.225718 0.698138 0.533554
O O16 0.924100 0.500000 0.250000
#
# Coordination Sequence:
#
# PCOD9548042 Si02
#       8
#     4   8   8   8   8   8   4   8
#     4  10  24  36  66 104 140 174 230 296 380 438
#     4  12  25  45  69  97 140 190 249 299 357 428
#     4  10  20  41  70 102 143 187 236 291 367 442
#     4  11  24  43  68 106 149 191 237 293 363 435
#     4  11  26  45  68  91 138 196 243 291 354 425
#     4  11  23  41  68 107 142 185 240 299 365 435
#     4  12  24  42  72  98 146 178 240 304 348 430
#     4  10  21  38  62  97 135 174 224 293 363 440
#
# _framework density 22.047243000000002
#
# number of rings (size 3 to 8) (size 9 to 14) (size 15 to 20)
#    0.000    1.143    2.857    3.857    6.000    2.286 
#    3.857    0.000    0.000    0.000   13.000    0.000 
#    0.000    0.000    0.000    0.000    0.000    0.000 
#
# Total GULP energy -311925.439594 kJ/mol
# GULP energy per Si atom -5570.097136 kJ/mol
# Density = 2.199706 g / cm^3
# Si number density = 22.047243 Si / 1000 Ang^3
#
#
#
# Elastic Constant Matrix: (Units=GPa)
#
#
# Indices 1 2 3 4 5 6 
#
# 1 69.4204 54.9862 30.3991 0.0000 0.0000 0.0000
# 2 54.9862 69.4203 30.3990 0.0000 0.0000 0.0000
# 3 30.3991 30.3990 94.2268 0.0000 0.0000 0.0000
# 4 0.0000 0.0000 0.0000 30.1694 0.0000 0.0000
# 5 0.0000 0.0000 0.0000 0.0000 30.1694 0.0000
# 6 0.0000 0.0000 0.0000 0.0000 0.0000 11.6953
#
#
#
# Elastic Compliance Matrix: (Units=1/GPa)
#
#
# Indices 1 2 3 4 5 6 
#
# 1 0.039411 -0.029869 -0.003079 0.000000 0.000000 0.000000
# 2 -0.029869 0.039411 -0.003079 0.000000 0.000000 0.000000
# 3 -0.003079 -0.003079 0.012599 0.000000 0.000000 0.000000
# 4 0.000000 0.000000 0.000000 0.033146 0.000000 0.000000
# 5 0.000000 0.000000 0.000000 0.000000 0.033146 0.000000
# 6 0.000000 0.000000 0.000000 0.000000 0.000000 0.085505
#
#
# Mechanical properties :
#
#
# Convention : Reuss Voigt Hill
#
# Bulk Modulus (GPa) = 51.62617 51.62623 51.62620
# Shear Modulus (GPa) = 15.54110 22.22569 18.88340
#
# Velocity S-wave (km/s) = 2.65788 3.17849 2.92977
# Velocity P-wave (km/s) = 5.73464 6.07762 5.90862
#
# Compressibility (1/GPa) = 0.01937002
#
# Stress axis : x y z
#
# Youngs Moduli (GPa) = 25.37340 25.37334 79.37063
#
# Poissons Ratio (x) = 0.75787 0.24435
# Poissons Ratio (y) = 0.75787 0.24435
# Poissons Ratio (z) = 0.07812 0.07812
#
# Static dielectric constant tensor:
#      x y z
#    x 1.728720 0.000000 0.000000 
#    y 0.000000 1.728720 0.000000 
#    z 0.000000 0.000000 1.863870 
# 
# From -- ./inp_files/20365.got.cif
#   From: 2010.05.17/outbox.cif.g08.bks.cpg/sg91_11_cif.got.tgz:20365.got - 2010.06.03 19:20:03.
