data_PCOD9548929
_publ_section_title
;
Structure prediction by ZEFSAII (Michael W. Deem and Ramdas Pophale) SiO2 
 PCOD9548929
Probable space group: P 41 21 2
;
_chemical_formula_sum "Si O2"
_cell_formula_units_Z 40
_cell_length_a 11.858432
_cell_length_b 11.858432
_cell_length_c 14.716602
_cell_angle_alpha 90.000000
_cell_angle_beta 90.000000
_cell_angle_gamma 90.000000
_cell_volume 2069.484033
_symmetry_space_group_name_H-M "P 41 21 2"
_symmetry_group_IT_number 92
_symmetry_cell_setting 'tetragonal'
loop_
_space_group_symop_operation_xyz
x,y,z
1/2-y,1/2+x,1/4+z
-x,-y,1/2+z
1/2+y,1/2-x,3/4+z
1/2+x,1/2-y,3/4-z
1/2-x,1/2+y,1/4-z
y,x,-z
-y,-x,1/2-z
loop_
_atom_site_type_symbol
_atom_site_label
_atom_site_fract_x
_atom_site_fract_y
_atom_site_fract_z
Si Si1 0.237000 0.986597 0.317628
Si Si2 0.399822 0.085056 0.190433
Si Si3 0.271111 0.558604 0.394012
Si Si4 0.258990 0.741011 0.250000
Si Si5 0.508465 0.508465 0.000000
Si Si6 0.883286 0.549053 0.742545
O O1 0.295760 0.953036 0.411904
O O2 0.269586 0.875537 0.258179
O O3 0.104159 0.002869 0.312650
O O4 0.304030 0.086329 0.267210
O O5 0.498217 0.003126 0.226245
O O6 0.355307 0.019837 0.100016
O O7 0.300260 0.670478 0.336016
O O8 0.379083 0.503063 0.440381
O O9 0.207090 0.478682 0.320659
O O10 0.178395 0.598553 0.467011
#
# Coordination Sequence:
#
# PCOD9548929 Si02
#       6
#     8   8   8   4   4   8
#     4  10  19  33  57  92 119 147 203 255 305 354
#     4   9  15  34  62  89 106 146 206 263 283 353
#     4  11  22  39  62  89 125 161 205 248 315 365
#     4  11  18  32  68  85 120 152 200 261 294 360
#     4  11  26  36  52  93 136 160 192 253 310 364
#     4   9  18  36  66  85 106 158 210 244 301 359
#
# _framework density 19.328488
#
# number of rings (size 3 to 8) (size 9 to 14) (size 15 to 20)
#    0.000    2.000    6.000    1.200    0.000    0.000 
#    3.600    0.000    8.800    0.000    0.000    0.000 
#    0.000    0.000    0.000    0.000    0.000    0.000 
#
# Total GULP energy -223007.060263 kJ/mol
# GULP energy per Si atom -5575.176507 kJ/mol
# Density = 1.928450 g / cm^3
# Si number density = 19.328488 Si / 1000 Ang^3
#
#
#
# Elastic Constant Matrix: (Units=GPa)
#
#
# Indices 1 2 3 4 5 6 
#
# 1 99.3192 39.3640 40.9268 0.0000 0.0000 0.0000
# 2 39.3640 99.3197 40.9269 0.0000 0.0000 0.0000
# 3 40.9268 40.9269 53.3924 0.0000 0.0000 0.0000
# 4 0.0000 0.0000 0.0000 27.6570 0.0000 0.0000
# 5 0.0000 0.0000 0.0000 0.0000 27.6569 0.0000
# 6 0.0000 0.0000 0.0000 0.0000 0.0000 16.2765
#
#
#
# Elastic Compliance Matrix: (Units=1/GPa)
#
#
# Indices 1 2 3 4 5 6 
#
# 1 0.014924 -0.001755 -0.010094 0.000000 0.000000 0.000000
# 2 -0.001755 0.014924 -0.010094 0.000000 0.000000 0.000000
# 3 -0.010094 -0.010094 0.034204 0.000000 0.000000 0.000000
# 4 0.000000 0.000000 0.000000 0.036157 0.000000 0.000000
# 5 0.000000 0.000000 0.000000 0.000000 0.036157 0.000000
# 6 0.000000 0.000000 0.000000 0.000000 0.000000 0.061438
#
#
# Mechanical properties :
#
#
# Convention : Reuss Voigt Hill
#
# Bulk Modulus (GPa) = 49.59132 54.94073 52.26603
# Shear Modulus (GPa) = 20.12789 23.03898 21.58343
#
# Velocity S-wave (km/s) = 3.23051 3.45624 3.34528
# Velocity P-wave (km/s) = 6.29506 6.66437 6.48235
#
# Compressibility (1/GPa) = 0.02016482
#
# Stress axis : x y z
#
# Youngs Moduli (GPa) = 67.00757 67.00801 29.23665
#
# Poissons Ratio (x) = 0.11763 0.29511
# Poissons Ratio (y) = 0.11763 0.29511
# Poissons Ratio (z) = 0.67636 0.67637
#
# Static dielectric constant tensor:
#      x y z
#    x 1.711070 0.000000 0.000000 
#    y 0.000000 1.711070 0.000000 
#    z 0.000000 0.000000 1.711630 
# 
# From -- ./inp_files/2666.got.cif
#   From: 2010.05.17/outbox.cif.g08.bks.cpg/sg92_2_cif.got.tgz:2666.got - 2010.06.03 19:35:17.
