data_PCOD9548813
_publ_section_title
;
Structure prediction by ZEFSAII (Michael W. Deem and Ramdas Pophale) SiO2 
 PCOD9548813
Probable space group: P 41 2 2
;
_chemical_formula_sum "Si O2"
_cell_formula_units_Z 28
_cell_length_a 8.515045
_cell_length_b 8.515045
_cell_length_c 16.322612
_cell_angle_alpha 90.000000
_cell_angle_beta 90.000000
_cell_angle_gamma 90.000000
_cell_volume 1183.487165
_symmetry_space_group_name_H-M "P 41 2 2"
_symmetry_group_IT_number 91
_symmetry_cell_setting 'tetragonal'
loop_
_space_group_symop_operation_xyz
x,y,z
-y,x,1/4+z
-x,-y,1/2+z
y,-x,3/4+z
x,-y,1/2-z
-x,y,-z
y,x,3/4-z
-y,-x,1/4-z
loop_
_atom_site_type_symbol
_atom_site_label
_atom_site_fract_x
_atom_site_fract_y
_atom_site_fract_z
Si Si1 0.759275 0.303927 0.044109
Si Si2 0.207037 0.546339 0.099170
Si Si3 0.215903 0.000000 0.250000
Si Si4 0.980260 0.713705 0.677703
O O1 0.656574 0.343427 0.125000
O O2 0.701717 0.133424 0.014133
O O3 0.757600 0.434576 0.977477
O O4 0.069741 0.278101 0.911534
O O5 0.358900 0.641100 0.125000
O O6 0.081104 0.673548 0.067589
O O7 0.133403 0.432881 0.167415
O O8 0.112743 0.133411 0.205866
#
# Coordination Sequence:
#
# PCOD9548813 Si02
#       4
#     8   8   4   8
#     4   8  20  43  81 101 157 211 271 330 408 486
#     4  12  25  46  76 123 170 200 276 354 435 487
#     4  12  24  44  76 118 152 220 284 332 410 514
#     4   9  23  42  77 111 154 214 277 331 389 514
#
# _framework density 23.658892999999999
#
# number of rings (size 3 to 8) (size 9 to 14) (size 15 to 20)
#    1.714    0.000    2.857    0.000   12.000    1.143 
#    0.000   10.000    0.000    0.000    0.000    2.000 
#    0.000    0.000    0.000    0.000    0.000    0.000 
#
# Total GULP energy -156408.199520 kJ/mol
# GULP energy per Si atom -5586.007126 kJ/mol
# Density = 2.360504 g / cm^3
# Si number density = 23.658893 Si / 1000 Ang^3
#
#
#
# Elastic Constant Matrix: (Units=GPa)
#
#
# Indices 1 2 3 4 5 6 
#
# 1 151.5283 109.6662 67.2230 0.0000 0.0000 0.0000
# 2 109.6662 151.5278 67.2229 0.0000 0.0000 0.0000
# 3 67.2230 67.2229 107.5623 0.0000 0.0000 0.0000
# 4 0.0000 0.0000 0.0000 48.7750 0.0000 0.0000
# 5 0.0000 0.0000 0.0000 0.0000 48.7750 0.0000
# 6 0.0000 0.0000 0.0000 0.0000 0.0000 42.3944
#
#
#
# Elastic Compliance Matrix: (Units=1/GPa)
#
#
# Indices 1 2 3 4 5 6 
#
# 1 0.014766 -0.009122 -0.003527 0.000000 0.000000 0.000000
# 2 -0.009122 0.014766 -0.003528 0.000000 0.000000 0.000000
# 3 -0.003527 -0.003528 0.013706 0.000000 0.000000 0.000000
# 4 0.000000 0.000000 0.000000 0.020502 0.000000 0.000000
# 5 0.000000 0.000000 0.000000 0.000000 0.020502 0.000000
# 6 0.000000 0.000000 0.000000 0.000000 0.000000 0.023588
#
#
# Mechanical properties :
#
#
# Convention : Reuss Voigt Hill
#
# Bulk Modulus (GPa) = 91.87233 99.87140 95.87187
# Shear Modulus (GPa) = 34.76734 39.08932 36.92833
#
# Velocity S-wave (km/s) = 3.83760 4.06914 3.95506
# Velocity P-wave (km/s) = 7.65196 8.02383 7.84010
#
# Compressibility (1/GPa) = 0.01088467
#
# Stress axis : x y z
#
# Youngs Moduli (GPa) = 67.72235 67.72210 72.96031
#
# Poissons Ratio (x) = 0.61775 0.25737
# Poissons Ratio (y) = 0.61776 0.25737
# Poissons Ratio (z) = 0.23889 0.23889
#
# Static dielectric constant tensor:
#      x y z
#    x 1.926190 0.000000 0.000000 
#    y 0.000000 1.926190 0.000000 
#    z 0.000000 0.000000 2.018160 
# 
# From -- ./inp_files/16666.got.cif
#   From: 2010.05.17/outbox.cif.g08.bks.cpg/sg91_9_cif.got.tgz:16666.got - 2010.06.03 19:20:03.
