data_PCOD9548852
_publ_section_title
;
Structure prediction by ZEFSAII (Michael W. Deem and Ramdas Pophale) SiO2 
 PCOD9548852
Probable space group: P 41 21 2
;
_chemical_formula_sum "Si O2"
_cell_formula_units_Z 44
_cell_length_a 12.280539
_cell_length_b 12.280539
_cell_length_c 16.355464
_cell_angle_alpha 90.000000
_cell_angle_beta 90.000000
_cell_angle_gamma 90.000000
_cell_volume 2466.594318
_symmetry_space_group_name_H-M "P 41 21 2"
_symmetry_group_IT_number 92
_symmetry_cell_setting 'tetragonal'
loop_
_space_group_symop_operation_xyz
x,y,z
1/2-y,1/2+x,1/4+z
-x,-y,1/2+z
1/2+y,1/2-x,3/4+z
1/2+x,1/2-y,3/4-z
1/2-x,1/2+y,1/4-z
y,x,-z
-y,-x,1/2-z
loop_
_atom_site_type_symbol
_atom_site_label
_atom_site_fract_x
_atom_site_fract_y
_atom_site_fract_z
Si Si1 0.448702 0.448702 0.000000
Si Si2 0.830437 0.664395 0.271636
Si Si3 0.591463 0.176088 0.680940
Si Si4 0.226455 0.398284 0.225209
Si Si5 0.080494 0.143329 0.882965
Si Si6 0.466106 0.205172 0.071279
O O1 0.448680 0.540066 0.069785
O O2 0.457694 0.332711 0.046846
O O3 0.714798 0.717907 0.249749
O O4 0.892613 0.751996 0.328147
O O5 0.810897 0.566063 0.334484
O O6 0.916430 0.652795 0.198760
O O7 0.641866 0.123915 0.599145
O O8 0.463800 0.168981 0.701648
O O9 0.615539 0.304487 0.672666
O O10 0.649597 0.121052 0.759262
O O11 0.319074 0.479191 0.188417
#
# Coordination Sequence:
#
# PCOD9548852 Si02
#       6
#     4   8   8   8   8   8
#     4  10  16  28  46  76 112 140 166 228 290 338
#     4  10  20  30  50  81 109 141 176 237 279 337
#     4  11  20  32  52  86 110 147 187 244 288 323
#     4  11  20  31  52  84 116 140 184 239 289 336
#     4  10  18  28  52  81 112 139 177 239 282 329
#     4  11  17  31  50  77 115 138 181 229 286 329
#
# _framework density 17.838362
#
# number of rings (size 3 to 8) (size 9 to 14) (size 15 to 20)
#    0.000    1.455    7.273    1.636    2.545    0.000 
#    0.000    0.000    0.000   15.273    0.000    0.000 
#    0.000    0.000    0.000    0.000    0.000    0.000 
#
# Total GULP energy -245055.076637 kJ/mol
# GULP energy per Si atom -5569.433560 kJ/mol
# Density = 1.779776 g / cm^3
# Si number density = 17.838362 Si / 1000 Ang^3
#
#
#
# Elastic Constant Matrix: (Units=GPa)
#
#
# Indices 1 2 3 4 5 6 
#
# 1 91.6811 15.0156 28.5557 0.0000 0.0000 0.0000
# 2 15.0156 91.6811 28.5557 0.0000 0.0000 0.0000
# 3 28.5557 28.5557 49.5137 0.0000 0.0000 0.0000
# 4 0.0000 0.0000 0.0000 20.5127 0.0000 0.0000
# 5 0.0000 0.0000 0.0000 0.0000 20.5127 0.0000
# 6 0.0000 0.0000 0.0000 0.0000 0.0000 8.2486
#
#
#
# Elastic Compliance Matrix: (Units=1/GPa)
#
#
# Indices 1 2 3 4 5 6 
#
# 1 0.013301 0.000257 -0.007819 0.000000 0.000000 0.000000
# 2 0.000257 0.013301 -0.007819 0.000000 0.000000 0.000000
# 3 -0.007819 -0.007819 0.029215 0.000000 0.000000 0.000000
# 4 0.000000 0.000000 0.000000 0.048750 0.000000 0.000000
# 5 0.000000 0.000000 0.000000 0.000000 0.048750 0.000000
# 6 0.000000 0.000000 0.000000 0.000000 0.000000 0.121232
#
#
# Mechanical properties :
#
#
# Convention : Reuss Voigt Hill
#
# Bulk Modulus (GPa) = 39.91301 41.90332 40.90816
# Shear Modulus (GPa) = 15.94069 20.57140 18.25605
#
# Velocity S-wave (km/s) = 2.99259 3.39958 3.20256
# Velocity P-wave (km/s) = 5.86210 6.24108 6.05455
#
# Compressibility (1/GPa) = 0.02505449
#
# Stress axis : x y z
#
# Youngs Moduli (GPa) = 75.18421 75.18421 34.22867
#
# Poissons Ratio (x) = -0.01932 0.26763
# Poissons Ratio (y) = -0.01932 0.26763
# Poissons Ratio (z) = 0.58787 0.58787
#
# Static dielectric constant tensor:
#      x y z
#    x 1.644460 0.000000 0.000000 
#    y 0.000000 1.644460 0.000000 
#    z 0.000000 0.000000 1.687010 
# 
# From -- ./inp_files/3022.got.cif
#   From: 2010.05.17/outbox.cif.g08.bks.cpg/sg92_2_cif.got.tgz:3022.got - 2010.06.03 19:35:17.
