data_PCOD9548731
_publ_section_title
;
Structure prediction by ZEFSAII (Michael W. Deem and Ramdas Pophale) SiO2 
 PCOD9548731
Probable space group: P 41 2 2
;
_chemical_formula_sum "Si O2"
_cell_formula_units_Z 60
_cell_length_a 11.553859
_cell_length_b 11.553859
_cell_length_c 20.292704
_cell_angle_alpha 90.000000
_cell_angle_beta 90.000000
_cell_angle_gamma 90.000000
_cell_volume 2708.906698
_symmetry_space_group_name_H-M "P 41 2 2"
_symmetry_group_IT_number 91
_symmetry_cell_setting 'tetragonal'
loop_
_space_group_symop_operation_xyz
x,y,z
-y,x,1/4+z
-x,-y,1/2+z
y,-x,3/4+z
x,-y,1/2-z
-x,y,-z
y,x,3/4-z
-y,-x,1/4-z
loop_
_atom_site_type_symbol
_atom_site_label
_atom_site_fract_x
_atom_site_fract_y
_atom_site_fract_z
Si Si1 0.924402 0.275714 0.805812
Si Si2 0.841305 0.366441 0.242785
Si Si3 0.414841 0.445172 0.177945
Si Si4 0.297002 0.297001 0.875000
Si Si5 0.203681 0.527663 0.547063
Si Si6 0.289219 0.136301 0.136237
Si Si7 0.301912 0.872898 0.093580
Si Si8 0.184087 0.447076 0.107266
O O1 0.834423 0.178447 0.833909
O O2 0.868061 0.307132 0.735306
O O3 0.918336 0.374613 0.860965
O O4 0.060880 0.276968 0.785446
O O5 0.886555 0.500000 0.250000
O O6 0.734466 0.369311 0.192493
O O7 0.807040 0.321516 0.315245
O O8 0.398473 0.500000 0.250000
O O9 0.465656 0.534345 0.125000
O O10 0.500660 0.337551 0.184286
O O11 0.296303 0.401169 0.146313
O O12 0.352575 0.184544 0.836255
O O13 0.146194 0.405386 0.568316
O O14 0.188791 0.552542 0.470670
O O15 0.280964 0.002436 0.117243
O O16 0.203444 0.796557 0.125000
O O17 0.421672 0.827232 0.120961
#
# Coordination Sequence:
#
# PCOD9548731 Si02
#       8
#     8   8   8   4   8   8   8   8
#     4  11  23  44  72  98 137 187 235 286 362 427
#     4  11  24  48  73 102 147 194 236 295 365 434
#     4  12  23  38  57  90 136 178 222 278 349 426
#     4  12  26  42  70 100 136 190 244 272 364 430
#     4  12  25  39  63  98 137 181 224 295 345 426
#     4  11  24  47  70 101 138 183 237 296 359 429
#     4  11  25  44  70  99 134 182 228 294 362 427
#     4  12  24  39  63  98 134 175 230 288 356 429
#
# _framework density 22.149158
#
# number of rings (size 3 to 8) (size 9 to 14) (size 15 to 20)
#    0.000    0.533    4.667    4.800    0.000    2.667 
#    1.200    2.000    0.000    0.000    0.000    0.000 
#    0.000    0.000    0.000    0.000    0.000    0.000 
#
# Total GULP energy -334289.445111 kJ/mol
# GULP energy per Si atom -5571.490752 kJ/mol
# Density = 2.209875 g / cm^3
# Si number density = 22.149158 Si / 1000 Ang^3
#
#
#
# Elastic Constant Matrix: (Units=GPa)
#
#
# Indices 1 2 3 4 5 6 
#
# 1 77.3185 16.7277 55.8469 0.0000 0.0000 0.0000
# 2 16.7277 77.3139 55.8490 0.0000 0.0000 0.0000
# 3 55.8469 55.8490 158.2193 0.0000 0.0000 0.0000
# 4 0.0000 0.0000 0.0000 38.5789 0.0000 0.0000
# 5 0.0000 0.0000 0.0000 0.0000 38.5816 0.0000
# 6 0.0000 0.0000 0.0000 0.0000 0.0000 2906.1689
#
#
#
# Elastic Compliance Matrix: (Units=1/GPa)
#
#
# Indices 1 2 3 4 5 6 
#
# 1 0.017406 0.000902 -0.006462 0.000000 0.000000 0.000000
# 2 0.000902 0.017408 -0.006463 0.000000 0.000000 0.000000
# 3 -0.006462 -0.006463 0.010883 0.000000 0.000000 0.000000
# 4 0.000000 0.000000 0.000000 0.025921 0.000000 0.000000
# 5 0.000000 0.000000 0.000000 0.000000 0.025919 0.000000
# 6 0.000000 0.000000 0.000000 0.000000 0.000000 0.000344
#
#
# Mechanical properties :
#
#
# Convention : Reuss Voigt Hill
#
# Bulk Modulus (GPa) = 46.18923 63.29989 54.74456
# Shear Modulus (GPa) = 38.71650 608.96108 323.83879
#
# Velocity S-wave (km/s) = 4.18543 16.59920 12.10477
# Velocity P-wave (km/s) = 6.65253 19.90022 14.83703
#
# Compressibility (1/GPa) = 0.02165007
#
# Stress axis : x y z
#
# Youngs Moduli (GPa) = 57.45139 57.44537 91.88875
#
# Poissons Ratio (x) = -0.05182 0.59381
# Poissons Ratio (y) = -0.05183 0.59389
# Poissons Ratio (z) = 0.37127 0.37128
#
# Static dielectric constant tensor:
#      x y z
#    x 1.941040 0.000000 0.000000 
#    y 0.000000 1.940910 0.000000 
#    z 0.000000 0.000000 1.804960 
# 
# From -- ./inp_files/17379.got.cif
#   From: 2010.05.17/outbox.cif.g08.bks.cpg/sg91_9_cif.got.tgz:17379.got - 2010.06.03 19:20:03.
