data_PCOD9548588
_publ_section_title
;
Structure prediction by ZEFSAII (Michael W. Deem and Ramdas Pophale) SiO2 
 PCOD9548588
Probable space group: P 41 2 2
;
_chemical_formula_sum "Si O2"
_cell_formula_units_Z 16
_cell_length_a 6.507529
_cell_length_b 6.507529
_cell_length_c 11.689548
_cell_angle_alpha 90.000000
_cell_angle_beta 90.000000
_cell_angle_gamma 90.000000
_cell_volume 495.028204
_symmetry_space_group_name_H-M "P 41 2 2"
_symmetry_group_IT_number 91
_symmetry_cell_setting 'tetragonal'
loop_
_space_group_symop_operation_xyz
x,y,z
-y,x,1/4+z
-x,-y,1/2+z
y,-x,3/4+z
x,-y,1/2-z
-x,y,-z
y,x,3/4-z
-y,-x,1/4-z
loop_
_atom_site_type_symbol
_atom_site_label
_atom_site_fract_x
_atom_site_fract_y
_atom_site_fract_z
Si Si1 0.758944 0.479004 0.436498
Si Si2 0.500000 0.112729 0.500000
Si Si3 0.858506 0.000000 0.250000
O O1 0.549707 0.549707 0.375000
O O2 0.696610 0.263592 0.492136
O O3 0.039662 0.465949 0.643301
O O4 0.810210 0.694898 0.502176
O O5 0.968114 0.968114 0.375000
#
# Coordination Sequence:
#
# PCOD9548588 Si02
#       3
#     8   4   4
#     4  11  29  59 101 146 212 278 357 443 549 646
#     4  12  30  60 104 138 210 280 356 452 538 660
#     4  10  26  58 108 156 220 288 378 440 552 654
#
# _framework density 32.321390000000001
#
# number of rings (size 3 to 8) (size 9 to 14) (size 15 to 20)
#    0.000    1.000    0.000    1.500   21.000    0.000 
#    9.000   10.000   11.000    3.000    0.000    0.000 
#    0.000    0.000    0.000    0.000    0.000    0.000 
#
# Total GULP energy -89601.002381 kJ/mol
# GULP energy per Si atom -5600.062649 kJ/mol
# Density = 3.224782 g / cm^3
# Si number density = 32.321390 Si / 1000 Ang^3
#
#
#
# Elastic Constant Matrix: (Units=GPa)
#
#
# Indices 1 2 3 4 5 6 
#
# 1 221.6298 113.8877 121.2954 0.0000 0.0000 0.0000
# 2 113.8877 221.6298 121.2954 0.0000 0.0000 0.0000
# 3 121.2954 121.2954 263.9588 0.0000 0.0000 0.0000
# 4 0.0000 0.0000 0.0000 76.6739 0.0000 0.0000
# 5 0.0000 0.0000 0.0000 0.0000 76.6739 0.0000
# 6 0.0000 0.0000 0.0000 0.0000 0.0000 118.9669
#
#
#
# Elastic Compliance Matrix: (Units=1/GPa)
#
#
# Indices 1 2 3 4 5 6 
#
# 1 0.006872 -0.002409 -0.002051 0.000000 0.000000 0.000000
# 2 -0.002409 0.006872 -0.002051 0.000000 0.000000 0.000000
# 3 -0.002051 -0.002051 0.005674 0.000000 0.000000 0.000000
# 4 0.000000 0.000000 0.000000 0.013042 0.000000 0.000000
# 5 0.000000 0.000000 0.000000 0.000000 0.013042 0.000000
# 6 0.000000 0.000000 0.000000 0.000000 0.000000 0.008406
#
#
# Mechanical properties :
#
#
# Convention : Reuss Voigt Hill
#
# Bulk Modulus (GPa) = 156.34395 157.79726 157.07060
# Shear Modulus (GPa) = 72.39779 77.84560 75.12170
#
# Velocity S-wave (km/s) = 4.73793 4.91296 4.82624
# Velocity P-wave (km/s) = 8.85479 9.00612 8.93077
#
# Compressibility (1/GPa) = 0.00639615
#
# Stress axis : x y z
#
# Youngs Moduli (GPa) = 145.50858 145.50858 176.25801
#
# Poissons Ratio (x) = 0.35053 0.36152
# Poissons Ratio (y) = 0.35053 0.36152
# Poissons Ratio (z) = 0.29845 0.29845
#
# Static dielectric constant tensor:
#      x y z
#    x 2.478470 0.000000 0.000000 
#    y 0.000000 2.478470 0.000000 
#    z 0.000000 0.000000 3.006850 
# 
# From -- ./inp_files/1582.got.cif
#   From: 2010.05.17/outbox.cif.g08.bks.cpg/sg91_1_cif.got.tgz:1582.got - 2010.06.03 19:20:03.
