data_PCOD9548773
_publ_section_title
;
Structure prediction by ZEFSAII (Michael W. Deem and Ramdas Pophale) SiO2 
 PCOD9548773
Probable space group: P 41 2 2
;
_chemical_formula_sum "Si O2"
_cell_formula_units_Z 16
_cell_length_a 7.149939
_cell_length_b 7.149939
_cell_length_c 12.020878
_cell_angle_alpha 90.000000
_cell_angle_beta 90.000000
_cell_angle_gamma 90.000000
_cell_volume 614.526850
_symmetry_space_group_name_H-M "P 41 2 2"
_symmetry_group_IT_number 91
_symmetry_cell_setting 'tetragonal'
loop_
_space_group_symop_operation_xyz
x,y,z
-y,x,1/4+z
-x,-y,1/2+z
y,-x,3/4+z
x,-y,1/2-z
-x,y,-z
y,x,3/4-z
-y,-x,1/4-z
loop_
_atom_site_type_symbol
_atom_site_label
_atom_site_fract_x
_atom_site_fract_y
_atom_site_fract_z
Si Si1 0.292023 0.314989 0.002979
Si Si2 0.382276 0.077780 0.390641
O O1 0.156151 0.472454 0.048725
O O2 0.314294 0.135438 0.084209
O O3 0.500000 0.399122 0.000000
O O4 0.250707 0.250707 0.875000
O O5 0.500000 0.123913 0.500000
O O6 0.196758 0.196758 0.375000
#
# Coordination Sequence:
#
# PCOD9548773 Si02
#       2
#     8   8
#     4  11  25  48  78 113 159 213 276 348 428 512
#     4  11  25  47  76 109 155 209 269 341 419 498
#
# _framework density 26.036293000000001
#
# number of rings (size 3 to 8) (size 9 to 14) (size 15 to 20)
#    0.000    1.000    0.000    6.000    0.000   18.000 
#    0.000   37.500    0.000    0.000    0.000    0.000 
#    0.000    0.000    0.000    0.000    0.000    0.000 
#
# Total GULP energy -89474.481142 kJ/mol
# GULP energy per Si atom -5592.155071 kJ/mol
# Density = 2.597703 g / cm^3
# Si number density = 26.036293 Si / 1000 Ang^3
#
#
#
# Elastic Constant Matrix: (Units=GPa)
#
#
# Indices 1 2 3 4 5 6 
#
# 1 187.7076 101.7738 70.5421 0.0000 0.0000 0.0000
# 2 101.7738 187.7076 70.5421 0.0000 0.0000 0.0000
# 3 70.5421 70.5421 149.7815 0.0000 0.0000 0.0000
# 4 0.0000 0.0000 0.0000 48.4138 0.0000 0.0000
# 5 0.0000 0.0000 0.0000 0.0000 48.4138 0.0000
# 6 0.0000 0.0000 0.0000 0.0000 0.0000 -324.4267
#
#
#
# Elastic Compliance Matrix: (Units=1/GPa)
#
#
# Indices 1 2 3 4 5 6 
#
# 1 0.008060 -0.003577 -0.002112 0.000000 0.000000 0.000000
# 2 -0.003577 0.008060 -0.002112 0.000000 0.000000 0.000000
# 3 -0.002112 -0.002112 0.008665 0.000000 0.000000 0.000000
# 4 0.000000 0.000000 0.000000 0.020655 0.000000 0.000000
# 5 0.000000 0.000000 0.000000 0.000000 0.020655 0.000000
# 6 0.000000 0.000000 0.000000 0.000000 0.000000 -0.003082
#
#
# Mechanical properties :
#
#
# Convention : Reuss Voigt Hill
#
# Bulk Modulus (GPa) = 108.86019 112.32363 110.59191
# Shear Modulus (GPa) = 61.21765 -26.69722 17.26021
#
# Velocity S-wave (km/s) = 4.85422 -3.20564 2.57753
# Velocity P-wave (km/s) = 8.56269 5.43446 7.17123
#
# Compressibility (1/GPa) = 0.00918609
#
# Stress axis : x y z
#
# Youngs Moduli (GPa) = 124.06596 124.06596 115.40152
#
# Poissons Ratio (x) = 0.44374 0.24368
# Poissons Ratio (y) = 0.44374 0.24368
# Poissons Ratio (z) = 0.26198 0.26198
#
# Static dielectric constant tensor:
#      x y z
#    x 1.990470 0.000000 0.000000 
#    y 0.000000 1.990470 0.000000 
#    z 0.000000 0.000000 2.231730 
# 
# From -- ./inp_files/10210.got.cif
#   From: 2010.05.17/outbox.cif.g08.bks.cpg/sg91_6_cif.got.tgz:10210.got - 2010.06.03 19:20:03.
