data_PCOD9548478
_publ_section_title
;
Structure prediction by ZEFSAII (Michael W. Deem and Ramdas Pophale) SiO2 
 PCOD9548478
Probable space group: P 41 2 2
;
_chemical_formula_sum "Si O2"
_cell_formula_units_Z 24
_cell_length_a 8.064884
_cell_length_b 8.064884
_cell_length_c 15.217793
_cell_angle_alpha 90.000000
_cell_angle_beta 90.000000
_cell_angle_gamma 90.000000
_cell_volume 989.801078
_symmetry_space_group_name_H-M "P 41 2 2"
_symmetry_group_IT_number 91
_symmetry_cell_setting 'tetragonal'
loop_
_space_group_symop_operation_xyz
x,y,z
-y,x,1/4+z
-x,-y,1/2+z
y,-x,3/4+z
x,-y,1/2-z
-x,y,-z
y,x,3/4-z
-y,-x,1/4-z
loop_
_atom_site_type_symbol
_atom_site_label
_atom_site_fract_x
_atom_site_fract_y
_atom_site_fract_z
Si Si1 0.169681 0.287981 0.291818
Si Si2 0.804191 0.185124 0.023206
Si Si3 0.609182 0.660532 0.116018
O O1 0.165959 0.165959 0.375000
O O2 0.462690 0.209727 0.410490
O O3 0.314657 0.270362 0.218244
O O4 0.998331 0.266234 0.243172
O O5 0.776647 0.223354 0.125000
O O6 0.710295 0.302003 0.954631
O O7 0.000000 0.189146 0.000000
O O8 0.511452 0.488549 0.125000
#
# Coordination Sequence:
#
# PCOD9548478 Si02
#       3
#     8   8   8
#     4  10  23  47  74 106 153 203 257 317 394 454
#     4  12  24  47  84 119 150 199 272 327 383 466
#     4  10  24  49  69 109 160 207 253 314 403 467
#
# _framework density 24.247294
#
# number of rings (size 3 to 8) (size 9 to 14) (size 15 to 20)
#    0.000    1.333    3.333    1.000    0.000    1.333 
#   18.000   18.333    0.000    0.000    0.000    0.000 
#    0.000    0.000    0.000    0.000    0.000    0.000 
#
# Total GULP energy -134307.480988 kJ/mol
# GULP energy per Si atom -5596.145041 kJ/mol
# Density = 2.419211 g / cm^3
# Si number density = 24.247294 Si / 1000 Ang^3
#
#
#
# Elastic Constant Matrix: (Units=GPa)
#
#
# Indices 1 2 3 4 5 6 
#
# 1 307.1442 -161.0010 79.5763 0.0000 0.0000 0.0000
# 2 -161.0010 307.1557 79.5777 0.0000 0.0000 0.0000
# 3 79.5763 79.5777 293.3143 0.0000 0.0000 0.0000
# 4 0.0000 0.0000 0.0000 43.5079 0.0000 0.0000
# 5 0.0000 0.0000 0.0000 0.0000 43.5077 0.0000
# 6 0.0000 0.0000 0.0000 0.0000 0.0000 45.6234
#
#
#
# Elastic Compliance Matrix: (Units=1/GPa)
#
#
# Indices 1 2 3 4 5 6 
#
# 1 0.005924 0.003788 -0.002635 0.000000 0.000000 0.000000
# 2 0.003788 0.005924 -0.002635 0.000000 0.000000 0.000000
# 3 -0.002635 -0.002635 0.004839 0.000000 0.000000 0.000000
# 4 0.000000 0.000000 0.000000 0.022984 0.000000 0.000000
# 5 0.000000 0.000000 0.000000 0.000000 0.022984 0.000000
# 6 0.000000 0.000000 0.000000 0.000000 0.000000 0.021919
#
#
# Mechanical properties :
#
#
# Convention : Reuss Voigt Hill
#
# Bulk Modulus (GPa) = 72.87042 100.43558 86.65300
# Shear Modulus (GPa) = 54.28184 87.15855 70.72020
#
# Velocity S-wave (km/s) = 4.73660 6.00198 5.40643
# Velocity P-wave (km/s) = 7.74804 9.46271 8.64798
#
# Compressibility (1/GPa) = 0.01372299
#
# Stress axis : x y z
#
# Youngs Moduli (GPa) = 168.80696 168.81325 206.65611
#
# Poissons Ratio (x) = -0.63942 0.54450
# Poissons Ratio (y) = -0.63940 0.54449
# Poissons Ratio (z) = 0.44477 0.44478
#
# Static dielectric constant tensor:
#      x y z
#    x 1.982130 0.000000 0.000000 
#    y 0.000000 1.982130 0.000000 
#    z 0.000000 0.000000 1.999180 
# 
# From -- ./inp_files/16117.got.cif
#   From: 2010.05.17/outbox.cif.g08.bks.cpg/sg91_9_cif.got.tgz:16117.got - 2010.06.03 19:20:03.
