data_PCOD9548226
_publ_section_title
;
Structure prediction by ZEFSAII (Michael W. Deem and Ramdas Pophale) SiO2 
 PCOD9548226
Probable space group: P 41 2 2
;
_chemical_formula_sum "Si O2"
_cell_formula_units_Z 64
_cell_length_a 10.798590
_cell_length_b 10.798590
_cell_length_c 23.754930
_cell_angle_alpha 90.000000
_cell_angle_beta 90.000000
_cell_angle_gamma 90.000000
_cell_volume 2770.051602
_symmetry_space_group_name_H-M "P 41 2 2"
_symmetry_group_IT_number 91
_symmetry_cell_setting 'tetragonal'
loop_
_space_group_symop_operation_xyz
x,y,z
-y,x,1/4+z
-x,-y,1/2+z
y,-x,3/4+z
x,-y,1/2-z
-x,y,-z
y,x,3/4-z
-y,-x,1/4-z
loop_
_atom_site_type_symbol
_atom_site_label
_atom_site_fract_x
_atom_site_fract_y
_atom_site_fract_z
Si Si1 0.854359 0.176783 0.462638
Si Si2 0.067775 0.276153 0.389449
Si Si3 0.838774 0.055612 0.962075
Si Si4 0.310986 0.395867 0.203875
Si Si5 0.413131 0.370452 0.771812
Si Si6 0.249751 0.978056 0.856640
Si Si7 0.270591 0.172834 0.927181
Si Si8 0.538096 0.192623 0.333721
O O1 0.025880 0.247355 0.559637
O O2 0.871607 0.075750 0.510933
O O3 0.738575 0.266396 0.475373
O O4 0.806454 0.095921 0.409586
O O5 0.171667 0.171667 0.375000
O O6 0.976467 0.263905 0.335315
O O7 0.134773 0.403831 0.404490
O O8 0.955031 0.130796 0.936203
O O9 0.776746 0.130839 0.012900
O O10 0.276224 0.500000 0.250000
O O11 0.458650 0.398039 0.197523
O O12 0.254496 0.423607 0.143052
O O13 0.357886 0.500000 0.750000
O O14 0.311859 0.310105 0.812551
O O15 0.451142 0.288331 0.717848
O O16 0.355452 0.907576 0.821281
O O17 0.345893 0.071469 0.893203
O O18 0.167016 0.167016 0.875000
#
# Coordination Sequence:
#
# PCOD9548226 Si02
#       8
#     8   8   8   8   8   8   8   8
#     4   9  21  41  69 105 142 188 248 305 374 458
#     4  11  26  40  70 107 142 197 250 314 383 456
#     4  10  21  45  69 100 151 191 248 312 375 459
#     4  10  23  43  73 106 147 198 252 317 389 455
#     4  11  27  44  72 106 147 199 251 320 381 470
#     4   9  21  43  69 102 138 196 237 306 371 446
#     4  11  25  43  71 106 142 195 252 296 387 463
#     4  11  24  47  71 103 152 192 255 318 385 453
#
# _framework density 23.104265000000002
#
# number of rings (size 3 to 8) (size 9 to 14) (size 15 to 20)
#    0.000    1.750    1.250    0.750    7.000    8.500 
#    0.000    2.500    0.000    0.000    0.000    0.000 
#    0.000    0.000    0.000    0.000    0.000    0.000 
#
# Total GULP energy -356606.498537 kJ/mol
# GULP energy per Si atom -5571.976540 kJ/mol
# Density = 2.305168 g / cm^3
# Si number density = 23.104265 Si / 1000 Ang^3
#
#
#
# Elastic Constant Matrix: (Units=GPa)
#
#
# Indices 1 2 3 4 5 6 
#
# 1 102.4108 49.6197 57.6151 0.0000 0.0000 0.0000
# 2 49.6197 102.4108 57.6151 0.0000 0.0000 0.0000
# 3 57.6151 57.6151 141.6105 0.0000 0.0000 0.0000
# 4 0.0000 0.0000 0.0000 38.1465 0.0000 0.0000
# 5 0.0000 0.0000 0.0000 0.0000 38.1465 0.0000
# 6 0.0000 0.0000 0.0000 0.0000 0.0000 21.5087
#
#
#
# Elastic Compliance Matrix: (Units=1/GPa)
#
#
# Indices 1 2 3 4 5 6 
#
# 1 0.014226 -0.004716 -0.003869 0.000000 0.000000 0.000000
# 2 -0.004716 0.014226 -0.003869 0.000000 0.000000 0.000000
# 3 -0.003869 -0.003869 0.010210 0.000000 0.000000 0.000000
# 4 0.000000 0.000000 0.000000 0.026215 0.000000 0.000000
# 5 0.000000 0.000000 0.000000 0.000000 0.026215 0.000000
# 6 0.000000 0.000000 0.000000 0.000000 0.000000 0.046493
#
#
# Mechanical properties :
#
#
# Convention : Reuss Voigt Hill
#
# Bulk Modulus (GPa) = 72.70880 75.12576 73.91728
# Shear Modulus (GPa) = 29.92587 31.66582 30.79584
#
# Velocity S-wave (km/s) = 3.60287 3.70613 3.65486
# Velocity P-wave (km/s) = 6.98897 7.13445 7.06209
#
# Compressibility (1/GPa) = 0.01375349
#
# Stress axis : x y z
#
# Youngs Moduli (GPa) = 70.29150 70.29150 97.94161
#
# Poissons Ratio (x) = 0.33150 0.37897
# Poissons Ratio (y) = 0.33150 0.37897
# Poissons Ratio (z) = 0.27198 0.27198
#
# Static dielectric constant tensor:
#      x y z
#    x 1.852600 0.000000 0.000000 
#    y 0.000000 1.852600 0.000000 
#    z 0.000000 0.000000 1.880990 
# 
# From -- ./inp_files/21864.got.cif
#   From: 2010.05.17/outbox.cif.g08.bks.cpg/sg91_11_cif.got.tgz:21864.got - 2010.06.03 19:20:03.
