data_PCOD9548263
_publ_section_title
;
Structure prediction by ZEFSAII (Michael W. Deem and Ramdas Pophale) SiO2 
 PCOD9548263
Probable space group: P 41 2 2
;
_chemical_formula_sum "Si O2"
_cell_formula_units_Z 56
_cell_length_a 11.963074
_cell_length_b 11.963074
_cell_length_c 18.228316
_cell_angle_alpha 90.000000
_cell_angle_beta 90.000000
_cell_angle_gamma 90.000000
_cell_volume 2608.747988
_symmetry_space_group_name_H-M "P 41 2 2"
_symmetry_group_IT_number 91
_symmetry_cell_setting 'tetragonal'
loop_
_space_group_symop_operation_xyz
x,y,z
-y,x,1/4+z
-x,-y,1/2+z
y,-x,3/4+z
x,-y,1/2-z
-x,y,-z
y,x,3/4-z
-y,-x,1/4-z
loop_
_atom_site_type_symbol
_atom_site_label
_atom_site_fract_x
_atom_site_fract_y
_atom_site_fract_z
Si Si1 0.761804 0.500000 0.750000
Si Si2 0.189659 0.376063 0.863682
Si Si3 0.396309 0.794847 0.779818
Si Si4 0.257052 0.619830 0.858747
Si Si5 0.811355 0.188646 0.625000
Si Si6 0.362251 0.693216 0.225271
Si Si7 0.420092 0.050022 0.598525
Si Si8 0.333754 0.991358 0.340104
O O1 0.679713 0.427691 0.699356
O O2 0.850575 0.419542 0.789924
O O3 0.269960 0.269960 0.875000
O O4 0.250451 0.489229 0.837820
O O5 0.069238 0.370848 0.824224
O O6 0.159940 0.404178 0.948117
O O7 0.311875 0.693538 0.795393
O O8 0.519455 0.745313 0.796306
O O9 0.360661 0.895413 0.831977
O O10 0.135707 0.665988 0.882042
O O11 0.320662 0.630128 0.936536
O O12 0.737502 0.230879 0.694212
O O13 0.939190 0.229640 0.624051
O O14 0.549293 0.035392 0.624855
O O15 0.337877 0.000000 0.250000
#
# Coordination Sequence:
#
# PCOD9548263 Si02
#       8
#     4   8   8   8   4   8   8   8
#     4  12  22  34  60 102 132 154 208 266 332 394
#     4  10  24  41  60  89 121 170 216 256 311 382
#     4  11  21  40  65  88 127 166 205 258 323 387
#     4  10  22  38  61  88 127 166 207 251 317 390
#     4  12  20  36  64  90 126 162 204 272 318 364
#     4  11  21  36  56  97 125 156 198 259 323 374
#     4  11  21  38  64  89 121 165 208 261 311 384
#     4  11  20  37  61  91 126 163 211 260 317 379
#
# _framework density 21.466235999999999
#
# number of rings (size 3 to 8) (size 9 to 14) (size 15 to 20)
#    0.000    1.143    5.714    2.143    0.000    5.143 
#    0.000    0.000    1.571    0.000    0.000    0.000 
#    0.000    0.000    0.000    0.000    0.000    0.000 
#
# Total GULP energy -312210.024840 kJ/mol
# GULP energy per Si atom -5575.179015 kJ/mol
# Density = 2.141738 g / cm^3
# Si number density = 21.466236 Si / 1000 Ang^3
#
#
#
# Elastic Constant Matrix: (Units=GPa)
#
#
# Indices 1 2 3 4 5 6 
#
# 1 90.9642 63.2227 -8.3740 0.0000 0.0000 0.0000
# 2 63.2227 90.9639 -8.3742 0.0000 0.0000 0.0000
# 3 -8.3740 -8.3742 43.6609 0.0000 0.0000 0.0000
# 4 0.0000 0.0000 0.0000 21.5298 0.0000 0.0000
# 5 0.0000 0.0000 0.0000 0.0000 21.5296 0.0000
# 6 0.0000 0.0000 0.0000 0.0000 0.0000 28.0700
#
#
#
# Elastic Compliance Matrix: (Units=1/GPa)
#
#
# Indices 1 2 3 4 5 6 
#
# 1 0.021335 -0.014712 0.001270 0.000000 0.000000 0.000000
# 2 -0.014712 0.021336 0.001271 0.000000 0.000000 0.000000
# 3 0.001270 0.001271 0.023391 0.000000 0.000000 0.000000
# 4 0.000000 0.000000 0.000000 0.046447 0.000000 0.000000
# 5 0.000000 0.000000 0.000000 0.000000 0.046448 0.000000
# 6 0.000000 0.000000 0.000000 0.000000 0.000000 0.035625
#
#
# Mechanical properties :
#
#
# Convention : Reuss Voigt Hill
#
# Bulk Modulus (GPa) = 23.96932 35.39311 29.68121
# Shear Modulus (GPa) = 21.47480 26.16683 23.82081
#
# Velocity S-wave (km/s) = 3.16634 3.49517 3.33481
# Velocity P-wave (km/s) = 4.95559 5.72817 5.35583
#
# Compressibility (1/GPa) = 0.04172000
#
# Stress axis : x y z
#
# Youngs Moduli (GPa) = 46.87040 46.87021 42.75127
#
# Poissons Ratio (x) = 0.68955 -0.05431
# Poissons Ratio (y) = 0.68955 -0.05432
# Poissons Ratio (z) = -0.05954 -0.05955
#
# Static dielectric constant tensor:
#      x y z
#    x 1.874290 0.000000 0.000000 
#    y 0.000000 1.874290 0.000000 
#    z 0.000000 0.000000 1.860950 
# 
# From -- ./inp_files/21547.got.cif
#   From: 2010.05.17/outbox.cif.g08.bks.cpg/sg91_11_cif.got.tgz:21547.got - 2010.06.03 19:20:03.
