data_PCOD9548659
_publ_section_title
;
Structure prediction by ZEFSAII (Michael W. Deem and Ramdas Pophale) SiO2 
 PCOD9548659
Probable space group: P 41 2 2
;
_chemical_formula_sum "Si O2"
_cell_formula_units_Z 40
_cell_length_a 10.675781
_cell_length_b 10.675781
_cell_length_c 16.715047
_cell_angle_alpha 90.000000
_cell_angle_beta 90.000000
_cell_angle_gamma 90.000000
_cell_volume 1905.052351
_symmetry_space_group_name_H-M "P 41 2 2"
_symmetry_group_IT_number 91
_symmetry_cell_setting 'tetragonal'
loop_
_space_group_symop_operation_xyz
x,y,z
-y,x,1/4+z
-x,-y,1/2+z
y,-x,3/4+z
x,-y,1/2-z
-x,y,-z
y,x,3/4-z
-y,-x,1/4-z
loop_
_atom_site_type_symbol
_atom_site_label
_atom_site_fract_x
_atom_site_fract_y
_atom_site_fract_z
Si Si1 0.005144 0.517102 0.908778
Si Si2 0.634380 0.530570 0.071924
Si Si3 0.876040 0.754281 0.450010
Si Si4 0.186415 0.626258 0.800594
Si Si5 0.279002 0.458563 0.394016
O O1 0.860725 0.492195 0.888751
O O2 0.088330 0.387708 0.917658
O O3 0.047726 0.607802 0.836477
O O4 0.000000 0.570126 0.000000
O O5 0.587769 0.412232 0.125000
O O6 0.742985 0.603887 0.116404
O O7 0.526007 0.631836 0.081337
O O8 0.673572 0.501387 0.982570
O O9 0.841954 0.841954 0.375000
O O10 0.772193 0.752247 0.244085
O O11 0.000000 0.789832 0.500000
O O12 0.212693 0.500000 0.750000
O O13 0.312528 0.312528 0.375000
#
# Coordination Sequence:
#
# PCOD9548659 Si02
#       5
#     8   8   8   8   8
#     4  11  23  45  69  98 144 189 242 301 370 427
#     4  11  22  36  61  98 140 175 228 297 364 431
#     4  11  25  48  72 104 141 195 248 305 368 444
#     4  12  24  39  71 103 134 183 248 301 360 434
#     4  11  23  42  64  99 143 188 230 293 371 449
#
# _framework density 20.996797999999998
#
# number of rings (size 3 to 8) (size 9 to 14) (size 15 to 20)
#    0.000    0.800    4.000    6.000    2.800    1.600 
#    3.600    2.000    0.000    0.000    0.000    0.000 
#    0.000    0.000    0.000    0.000    0.000    0.000 
#
# Total GULP energy -222792.240775 kJ/mol
# GULP energy per Si atom -5569.806019 kJ/mol
# Density = 2.094901 g / cm^3
# Si number density = 20.996798 Si / 1000 Ang^3
#
#
#
# Elastic Constant Matrix: (Units=GPa)
#
#
# Indices 1 2 3 4 5 6 
#
# 1 124.0917 42.0404 52.2909 0.0000 0.0000 0.0000
# 2 42.0404 124.0919 52.2908 0.0000 0.0000 0.0000
# 3 52.2909 52.2908 124.4359 0.0000 0.0000 0.0000
# 4 0.0000 0.0000 0.0000 35.6534 0.0000 0.0000
# 5 0.0000 0.0000 0.0000 0.0000 35.6533 0.0000
# 6 0.0000 0.0000 0.0000 0.0000 0.0000 26.3942
#
#
#
# Elastic Compliance Matrix: (Units=1/GPa)
#
#
# Indices 1 2 3 4 5 6 
#
# 1 0.010186 -0.002002 -0.003439 0.000000 0.000000 0.000000
# 2 -0.002002 0.010186 -0.003439 0.000000 0.000000 0.000000
# 3 -0.003439 -0.003439 0.010927 0.000000 0.000000 0.000000
# 4 0.000000 0.000000 0.000000 0.028048 0.000000 0.000000
# 5 0.000000 0.000000 0.000000 0.000000 0.028048 0.000000
# 6 0.000000 0.000000 0.000000 0.000000 0.000000 0.037887
#
#
# Mechanical properties :
#
#
# Convention : Reuss Voigt Hill
#
# Bulk Modulus (GPa) = 73.86369 73.98487 73.92428
# Shear Modulus (GPa) = 33.88580 34.60667 34.24623
#
# Velocity S-wave (km/s) = 4.02164 4.06419 4.04297
# Velocity P-wave (km/s) = 7.53788 7.57207 7.55500
#
# Compressibility (1/GPa) = 0.01353845
#
# Stress axis : x y z
#
# Youngs Moduli (GPa) = 98.17468 98.17499 91.51827
#
# Poissons Ratio (x) = 0.19650 0.31476
# Poissons Ratio (y) = 0.19650 0.31475
# Poissons Ratio (z) = 0.33765 0.33765
#
# Static dielectric constant tensor:
#      x y z
#    x 1.914370 0.000000 0.000000 
#    y 0.000000 1.914370 0.000000 
#    z 0.000000 0.000000 1.782740 
# 
# From -- ./inp_files/4711.got.cif
#   From: 2010.05.17/outbox.cif.g08.bks.cpg/sg91_3_cif.got.tgz:4711.got - 2010.06.03 19:20:03.
