data_PCOD9548090
_publ_section_title
;
Structure prediction by ZEFSAII (Michael W. Deem and Ramdas Pophale) SiO2 
 PCOD9548090
Probable space group: P 41 2 2
;
_chemical_formula_sum "Si O2"
_cell_formula_units_Z 40
_cell_length_a 18.990732
_cell_length_b 18.990732
_cell_length_c 5.500316
_cell_angle_alpha 90.000000
_cell_angle_beta 90.000000
_cell_angle_gamma 90.000000
_cell_volume 1983.677425
_symmetry_space_group_name_H-M "P 41 2 2"
_symmetry_group_IT_number 91
_symmetry_cell_setting 'tetragonal'
loop_
_space_group_symop_operation_xyz
x,y,z
-y,x,1/4+z
-x,-y,1/2+z
y,-x,3/4+z
x,-y,1/2-z
-x,y,-z
y,x,3/4-z
-y,-x,1/4-z
loop_
_atom_site_type_symbol
_atom_site_label
_atom_site_fract_x
_atom_site_fract_y
_atom_site_fract_z
Si Si1 0.606531 0.857529 0.154878
Si Si2 0.785063 0.500000 0.250000
Si Si3 0.845213 0.733177 0.271740
Si Si4 0.500000 0.041506 0.500000
Si Si5 0.632202 0.740601 0.787831
Si Si6 0.861697 0.923155 0.635296
O O1 0.544987 0.838857 0.340076
O O2 0.678980 0.876601 0.282878
O O3 0.571521 0.912705 0.974348
O O4 0.618090 0.783083 0.030643
O O5 0.739075 0.441268 0.391279
O O6 0.792594 0.792594 0.375000
O O7 0.908681 0.779324 0.165427
O O8 0.792934 0.686239 0.104700
O O9 0.490538 0.000000 0.750000
O O10 0.669333 0.669333 0.875000
O O11 0.902990 0.902990 0.375000
O O12 0.877586 0.000000 0.750000
O O13 0.876030 0.876030 0.875000
#
# Coordination Sequence:
#
# PCOD9548090 Si02
#       6
#     8   4   8   4   8   8
#     4  11  22  42  63  92 136 177 227 282 336 413
#     4  10  21  36  62  94 138 175 220 290 332 405
#     4  10  22  39  66  97 134 172 218 288 351 408
#     4  12  27  46  64  92 138 197 236 276 336 413
#     4  11  20  36  66  95 134 174 230 281 349 406
#     4  11  25  47  72 100 136 175 231 295 360 430
#
# _framework density 20.164569
#
# number of rings (size 3 to 8) (size 9 to 14) (size 15 to 20)
#    0.000    1.200    4.000    1.800    5.600    0.800 
#    3.600    0.000    0.000    0.000    0.000    0.000 
#   42.000    0.000    0.000    0.000    0.000    0.000 
#
# Total GULP energy -222773.413909 kJ/mol
# GULP energy per Si atom -5569.335348 kJ/mol
# Density = 2.011867 g / cm^3
# Si number density = 20.164569 Si / 1000 Ang^3
#
#
#
# Elastic Constant Matrix: (Units=GPa)
#
#
# Indices 1 2 3 4 5 6 
#
# 1 83.9261 36.8672 29.6377 0.0000 0.0000 0.0000
# 2 36.8672 83.9261 29.6377 0.0000 0.0000 0.0000
# 3 29.6377 29.6377 81.4344 0.0000 0.0000 0.0000
# 4 0.0000 0.0000 0.0000 40.4871 0.0000 0.0000
# 5 0.0000 0.0000 0.0000 0.0000 40.4871 0.0000
# 6 0.0000 0.0000 0.0000 0.0000 0.0000 13.8115
#
#
#
# Elastic Compliance Matrix: (Units=1/GPa)
#
#
# Indices 1 2 3 4 5 6 
#
# 1 0.015664 -0.005586 -0.003668 0.000000 0.000000 0.000000
# 2 -0.005586 0.015664 -0.003668 0.000000 0.000000 0.000000
# 3 -0.003668 -0.003668 0.014950 0.000000 0.000000 0.000000
# 4 0.000000 0.000000 0.000000 0.024699 0.000000 0.000000
# 5 0.000000 0.000000 0.000000 0.000000 0.024699 0.000000
# 6 0.000000 0.000000 0.000000 0.000000 0.000000 0.072403
#
#
# Mechanical properties :
#
#
# Convention : Reuss Voigt Hill
#
# Bulk Modulus (GPa) = 48.93633 49.06352 48.99993
# Shear Modulus (GPa) = 24.90843 29.16675 27.03759
#
# Velocity S-wave (km/s) = 3.51844 3.80733 3.66573
# Velocity P-wave (km/s) = 6.38960 6.61151 6.50150
#
# Compressibility (1/GPa) = 0.02043471
#
# Stress axis : x y z
#
# Youngs Moduli (GPa) = 63.83955 63.83955 66.89073
#
# Poissons Ratio (x) = 0.35659 0.24536
# Poissons Ratio (y) = 0.35659 0.24536
# Poissons Ratio (z) = 0.23417 0.23417
#
# Static dielectric constant tensor:
#      x y z
#    x 1.704280 0.000000 0.000000 
#    y 0.000000 1.704280 0.000000 
#    z 0.000000 0.000000 1.786620 
# 
# From -- ./inp_files/18587.got.cif
#   From: 2010.05.17/outbox.cif.g08.bks.cpg/sg91_10_cif.got.tgz:18587.got - 2010.06.03 19:20:03.
