data_PCOD9548646
_publ_section_title
;
Structure prediction by ZEFSAII (Michael W. Deem and Ramdas Pophale) SiO2 
 PCOD9548646
Probable space group: P 41 2 2
;
_chemical_formula_sum "Si O2"
_cell_formula_units_Z 40
_cell_length_a 8.803376
_cell_length_b 8.803376
_cell_length_c 23.106835
_cell_angle_alpha 90.000000
_cell_angle_beta 90.000000
_cell_angle_gamma 90.000000
_cell_volume 1790.766518
_symmetry_space_group_name_H-M "P 41 2 2"
_symmetry_group_IT_number 91
_symmetry_cell_setting 'tetragonal'
loop_
_space_group_symop_operation_xyz
x,y,z
-y,x,1/4+z
-x,-y,1/2+z
y,-x,3/4+z
x,-y,1/2-z
-x,y,-z
y,x,3/4-z
-y,-x,1/4-z
loop_
_atom_site_type_symbol
_atom_site_label
_atom_site_fract_x
_atom_site_fract_y
_atom_site_fract_z
Si Si1 0.174464 0.516973 0.980269
Si Si2 0.298332 0.740356 0.892687
Si Si3 0.943633 0.829148 0.731388
Si Si4 0.348977 0.262092 0.434442
Si Si5 0.237423 0.323871 0.741197
O O1 0.273051 0.600728 0.030044
O O2 0.279967 0.374914 0.967188
O O3 0.185553 0.623402 0.924762
O O4 0.000000 0.490635 0.000000
O O5 0.472192 0.725368 0.917763
O O6 0.287690 0.710186 0.824940
O O7 0.226043 0.896169 0.917355
O O8 0.117814 0.804264 0.742143
O O9 0.874704 0.700987 0.774705
O O10 0.893692 0.000000 0.750000
O O11 0.257592 0.257592 0.375000
O O12 0.193398 0.500000 0.750000
#
# Coordination Sequence:
#
# PCOD9548646 Si02
#       5
#     8   8   8   8   8
#     4  11  24  41  65 103 138 181 240 295 363 434
#     4  11  24  44  71 100 137 188 237 299 363 424
#     4  11  26  45  67 105 141 185 239 295 371 450
#     4  11  21  40  71  98 130 184 239 290 355 432
#     4  12  26  44  71 103 144 187 245 298 366 440
#
# _framework density 22.336804999999998
#
# number of rings (size 3 to 8) (size 9 to 14) (size 15 to 20)
#    0.000    0.800    2.000    7.800    5.600    1.600 
#    0.000    2.000    0.000    0.000    0.000    0.000 
#    0.000    0.000    0.000    0.000    0.000    0.000 
#
# Total GULP energy -222992.717747 kJ/mol
# GULP energy per Si atom -5574.817944 kJ/mol
# Density = 2.228597 g / cm^3
# Si number density = 22.336805 Si / 1000 Ang^3
#
#
#
# Elastic Constant Matrix: (Units=GPa)
#
#
# Indices 1 2 3 4 5 6 
#
# 1 81.6954 -4.2505 12.7533 0.0000 0.0000 0.0000
# 2 -4.2505 81.6954 12.7533 0.0000 0.0000 0.0000
# 3 12.7533 12.7533 60.5064 0.0000 0.0000 0.0000
# 4 0.0000 0.0000 0.0000 3.0299 0.0000 0.0000
# 5 0.0000 0.0000 0.0000 0.0000 3.0299 0.0000
# 6 0.0000 0.0000 0.0000 0.0000 0.0000 29.1947
#
#
#
# Elastic Compliance Matrix: (Units=1/GPa)
#
#
# Indices 1 2 3 4 5 6 
#
# 1 0.012755 0.001120 -0.002925 0.000000 0.000000 0.000000
# 2 0.001120 0.012755 -0.002925 0.000000 0.000000 0.000000
# 3 -0.002925 -0.002925 0.017760 0.000000 0.000000 0.000000
# 4 0.000000 0.000000 0.000000 0.330039 0.000000 0.000000
# 5 0.000000 0.000000 0.000000 0.000000 0.330039 0.000000
# 6 0.000000 0.000000 0.000000 0.000000 0.000000 0.034253
#
#
# Mechanical properties :
#
#
# Convention : Reuss Voigt Hill
#
# Bulk Modulus (GPa) = 29.57465 29.60105 29.58785
# Shear Modulus (GPa) = 6.59342 20.56032 13.57687
#
# Velocity S-wave (km/s) = 1.71995 3.03721 2.46809
# Velocity P-wave (km/s) = 4.14890 5.05771 4.62568
#
# Compressibility (1/GPa) = 0.03381275
#
# Stress axis : x y z
#
# Youngs Moduli (GPa) = 78.39800 78.39800 56.30609
#
# Poissons Ratio (x) = -0.08782 0.16468
# Poissons Ratio (y) = -0.08782 0.16468
# Poissons Ratio (z) = 0.22929 0.22929
#
# Static dielectric constant tensor:
#      x y z
#    x 1.935740 0.000000 0.000000 
#    y 0.000000 1.935740 0.000000 
#    z 0.000000 0.000000 1.009360 
# 
# From -- ./inp_files/21705.got.cif
#   From: 2010.05.17/outbox.cif.g08.bks.cpg/sg91_11_cif.got.tgz:21705.got - 2010.06.03 19:20:03.
