data_PCOD9548287
_publ_section_title
;
Structure prediction by ZEFSAII (Michael W. Deem and Ramdas Pophale) SiO2 
 PCOD9548287
Probable space group: P 41 2 2
;
_chemical_formula_sum "Si O2"
_cell_formula_units_Z 32
_cell_length_a 10.170674
_cell_length_b 10.170674
_cell_length_c 12.338023
_cell_angle_alpha 90.000000
_cell_angle_beta 90.000000
_cell_angle_gamma 90.000000
_cell_volume 1276.277297
_symmetry_space_group_name_H-M "P 41 2 2"
_symmetry_group_IT_number 91
_symmetry_cell_setting 'tetragonal'
loop_
_space_group_symop_operation_xyz
x,y,z
-y,x,1/4+z
-x,-y,1/2+z
y,-x,3/4+z
x,-y,1/2-z
-x,y,-z
y,x,3/4-z
-y,-x,1/4-z
loop_
_atom_site_type_symbol
_atom_site_label
_atom_site_fract_x
_atom_site_fract_y
_atom_site_fract_z
Si Si1 0.682346 0.279825 0.892950
Si Si2 0.604071 0.996731 0.633778
Si Si3 0.500000 0.416535 0.500000
Si Si4 0.264612 0.735389 0.625000
Si Si5 0.043729 0.310890 0.155604
O O1 0.583808 0.158069 0.888319
O O2 0.663301 0.371000 0.788615
O O3 0.834070 0.229638 0.888739
O O4 0.674577 0.331222 0.016834
O O5 0.686640 0.049852 0.535019
O O6 0.462071 0.065619 0.633969
O O7 0.668370 0.000000 0.750000
O O8 0.527579 0.472422 0.625000
O O9 0.106465 0.718386 0.626093
#
# Coordination Sequence:
#
# PCOD9548287 Si02
#       5
#     8   8   4   4   8
#     4  11  25  43  70 101 135 187 231 289 355 422
#     4  10  22  39  65  92 129 181 226 290 350 418
#     4  12  32  46  70 106 148 184 234 292 350 428
#     4  10  22  42  70 100 134 184 232 286 344 414
#     4  10  22  40  67  94 133 177 232 284 351 423
#
# _framework density 25.072921000000001
#
# number of rings (size 3 to 8) (size 9 to 14) (size 15 to 20)
#    0.000    1.500    0.000    3.750   12.250    2.000 
#    0.000    5.000    0.000    0.000    0.000    0.000 
#    0.000    0.000    0.000    0.000    0.000    0.000 
#
# Total GULP energy -178512.896367 kJ/mol
# GULP energy per Si atom -5578.528011 kJ/mol
# Density = 2.501585 g / cm^3
# Si number density = 25.072921 Si / 1000 Ang^3
#
#
#
# Elastic Constant Matrix: (Units=GPa)
#
#
# Indices 1 2 3 4 5 6 
#
# 1 57.5980 18.3535 22.2952 0.0000 0.0000 0.0000
# 2 18.3535 57.5990 22.2950 0.0000 0.0000 0.0000
# 3 22.2952 22.2950 233.1608 0.0000 0.0000 0.0000
# 4 0.0000 0.0000 0.0000 37.4141 0.0000 0.0000
# 5 0.0000 0.0000 0.0000 0.0000 37.4140 0.0000
# 6 0.0000 0.0000 0.0000 0.0000 0.0000 22.4197
#
#
#
# Elastic Compliance Matrix: (Units=1/GPa)
#
#
# Indices 1 2 3 4 5 6 
#
# 1 0.019715 -0.005766 -0.001334 0.000000 0.000000 0.000000
# 2 -0.005766 0.019715 -0.001334 0.000000 0.000000 0.000000
# 3 -0.001334 -0.001334 0.004544 0.000000 0.000000 0.000000
# 4 0.000000 0.000000 0.000000 0.026728 0.000000 0.000000
# 5 0.000000 0.000000 0.000000 0.000000 0.026728 0.000000
# 6 0.000000 0.000000 0.000000 0.000000 0.000000 0.044604
#
#
# Mechanical properties :
#
#
# Convention : Reuss Voigt Hill
#
# Bulk Modulus (GPa) = 36.89060 52.69390 44.79225
# Shear Modulus (GPa) = 29.77317 38.47717 34.12517
#
# Velocity S-wave (km/s) = 3.44970 3.92166 3.69323
# Velocity P-wave (km/s) = 5.53285 6.44731 6.00751
#
# Compressibility (1/GPa) = 0.02710718
#
# Stress axis : x y z
#
# Youngs Moduli (GPa) = 50.72196 50.72297 220.07168
#
# Poissons Ratio (x) = 0.29246 0.29355
# Poissons Ratio (y) = 0.29245 0.29353
# Poissons Ratio (z) = 0.06766 0.06766
#
# Static dielectric constant tensor:
#      x y z
#    x 2.013830 0.000000 0.000000 
#    y 0.000000 2.013830 0.000000 
#    z 0.000000 0.000000 2.026520 
# 
# From -- ./inp_files/10440.got.cif
#   From: 2010.05.17/outbox.cif.g08.bks.cpg/sg91_6_cif.got.tgz:10440.got - 2010.06.03 19:20:03.
