data_PCOD9548678
_publ_section_title
;
Structure prediction by ZEFSAII (Michael W. Deem and Ramdas Pophale) SiO2 
 PCOD9548678
Probable space group: P 41 2 2
;
_chemical_formula_sum "Si O2"
_cell_formula_units_Z 48
_cell_length_a 11.741973
_cell_length_b 11.741973
_cell_length_c 17.875024
_cell_angle_alpha 90.000000
_cell_angle_beta 90.000000
_cell_angle_gamma 90.000000
_cell_volume 2464.499807
_symmetry_space_group_name_H-M "P 41 2 2"
_symmetry_group_IT_number 91
_symmetry_cell_setting 'tetragonal'
loop_
_space_group_symop_operation_xyz
x,y,z
-y,x,1/4+z
-x,-y,1/2+z
y,-x,3/4+z
x,-y,1/2-z
-x,y,-z
y,x,3/4-z
-y,-x,1/4-z
loop_
_atom_site_type_symbol
_atom_site_label
_atom_site_fract_x
_atom_site_fract_y
_atom_site_fract_z
Si Si1 0.770278 0.266504 0.036251
Si Si2 0.960346 0.039654 0.625000
Si Si3 0.355334 0.500000 0.250000
Si Si4 0.317903 0.513397 0.580349
Si Si5 0.945110 0.298362 0.577571
Si Si6 0.312526 0.687475 0.125000
Si Si7 0.407741 0.124154 0.061250
Si Si8 0.000000 0.148511 0.000000
O O1 0.754582 0.245419 0.125000
O O2 0.741798 0.398813 0.023317
O O3 0.895719 0.229295 0.017578
O O4 0.688352 0.188372 0.986814
O O5 0.965558 0.162822 0.586205
O O6 0.064334 0.029211 0.682092
O O7 0.424211 0.600604 0.291020
O O8 0.305988 0.577752 0.181029
O O9 0.406771 0.593230 0.625000
O O10 0.220482 0.461135 0.633575
O O11 0.809150 0.315554 0.581766
O O12 0.000000 0.337710 0.500000
O O13 0.017167 0.359102 0.643188
O O14 0.500000 0.086635 0.000000
#
# Coordination Sequence:
#
# PCOD9548678 Si02
#       8
#     8   4   4   8   8   4   8   4
#     4  11  23  40  64 104 130 175 237 282 343 414
#     4  11  22  40  75  94 136 180 223 276 352 411
#     4  12  24  48  70 100 134 184 236 292 338 414
#     4  11  22  42  67  96 138 179 232 281 353 406
#     4  11  25  47  68 102 140 183 231 282 354 423
#     4  11  28  46  73 104 136 184 243 284 346 419
#     4  12  23  42  70  97 141 189 224 292 353 411
#     4  12  22  42  68 104 132 176 228 290 334 424
#
# _framework density 19.476566999999999
#
# number of rings (size 3 to 8) (size 9 to 14) (size 15 to 20)
#    0.000    0.667    7.500    2.000    1.167    0.000 
#    4.500    0.000    0.000    0.000    0.000    0.000 
#    0.000    0.000    0.000    0.000    0.000    0.000 
#
# Total GULP energy -267807.072637 kJ/mol
# GULP energy per Si atom -5579.314013 kJ/mol
# Density = 1.943224 g / cm^3
# Si number density = 19.476567 Si / 1000 Ang^3
#
#
#
# Elastic Constant Matrix: (Units=GPa)
#
#
# Indices 1 2 3 4 5 6 
#
# 1 91.1791 49.3608 38.1111 0.0000 0.0000 0.0000
# 2 49.3608 91.1783 38.1109 0.0000 0.0000 0.0000
# 3 38.1111 38.1109 86.1349 0.0000 0.0000 0.0000
# 4 0.0000 0.0000 0.0000 31.4097 0.0000 0.0000
# 5 0.0000 0.0000 0.0000 0.0000 31.4110 0.0000
# 6 0.0000 0.0000 0.0000 0.0000 0.0000 29.8960
#
#
#
# Elastic Compliance Matrix: (Units=1/GPa)
#
#
# Indices 1 2 3 4 5 6 
#
# 1 0.016638 -0.007276 -0.004142 0.000000 0.000000 0.000000
# 2 -0.007276 0.016638 -0.004142 0.000000 0.000000 0.000000
# 3 -0.004142 -0.004142 0.015275 0.000000 0.000000 0.000000
# 4 0.000000 0.000000 0.000000 0.031837 0.000000 0.000000
# 5 0.000000 0.000000 0.000000 0.000000 0.031836 0.000000
# 6 0.000000 0.000000 0.000000 0.000000 0.000000 0.033449
#
#
# Mechanical properties :
#
#
# Convention : Reuss Voigt Hill
#
# Bulk Modulus (GPa) = 57.37189 57.73977 57.55583
# Shear Modulus (GPa) = 27.38173 28.07063 27.72618
#
# Velocity S-wave (km/s) = 3.75357 3.80050 3.77711
# Velocity P-wave (km/s) = 6.95029 6.99775 6.97406
#
# Compressibility (1/GPa) = 0.01743014
#
# Stress axis : x y z
#
# Youngs Moduli (GPa) = 60.10499 60.10446 65.46525
#
# Poissons Ratio (x) = 0.43730 0.27118
# Poissons Ratio (y) = 0.43730 0.27118
# Poissons Ratio (z) = 0.24897 0.24897
#
# Static dielectric constant tensor:
#      x y z
#    x 1.676410 0.000000 0.000000 
#    y 0.000000 1.676410 0.000000 
#    z 0.000000 0.000000 1.680520 
# 
# From -- ./inp_files/12008.got.cif
#   From: 2010.05.17/outbox.cif.g08.bks.cpg/sg91_7_cif.got.tgz:12008.got - 2010.06.03 19:20:03.
