data_PCOD9548020
_publ_section_title
;
Structure prediction by ZEFSAII (Michael W. Deem and Ramdas Pophale) SiO2 
 PCOD9548020
Probable space group: P 41 2 2
;
_chemical_formula_sum "Si O2"
_cell_formula_units_Z 28
_cell_length_a 7.055630
_cell_length_b 7.055630
_cell_length_c 19.717240
_cell_angle_alpha 90.000000
_cell_angle_beta 90.000000
_cell_angle_gamma 90.000000
_cell_volume 981.561960
_symmetry_space_group_name_H-M "P 41 2 2"
_symmetry_group_IT_number 91
_symmetry_cell_setting 'tetragonal'
loop_
_space_group_symop_operation_xyz
x,y,z
-y,x,1/4+z
-x,-y,1/2+z
y,-x,3/4+z
x,-y,1/2-z
-x,y,-z
y,x,3/4-z
-y,-x,1/4-z
loop_
_atom_site_type_symbol
_atom_site_label
_atom_site_fract_x
_atom_site_fract_y
_atom_site_fract_z
Si Si1 0.215294 0.766260 0.196009
Si Si2 0.353282 0.205873 0.730002
Si Si3 0.856759 0.670883 0.659208
Si Si4 0.291988 0.708013 0.625000
O O1 0.143912 0.856089 0.125000
O O2 0.431187 0.824448 0.207661
O O3 0.209238 0.539990 0.180301
O O4 0.132804 0.789420 0.271147
O O5 0.262292 0.264517 0.657043
O O6 0.366207 0.331829 0.798316
O O7 0.270116 0.000000 0.750000
O O8 0.071042 0.665736 0.634607
#
# Coordination Sequence:
#
# PCOD9548020 Si02
#       4
#     8   8   8   4
#     4   9  18  39  63  88 124 165 207 261 318 376
#     4   9  19  39  62  90 126 160 214 266 316 384
#     4   9  19  39  63  87 128 165 209 265 317 373
#     4  10  20  40  66  92 126 168 214 270 312 374
#
# _framework density 28.525960999999999
#
# number of rings (size 3 to 8) (size 9 to 14) (size 15 to 20)
#    0.000    2.857    0.000    0.000    0.000    0.000 
#   46.286    4.286   12.571    0.000    0.000    0.000 
#    0.000    0.000    0.000    0.000    0.000    0.000 
#
# Total GULP energy -156300.311012 kJ/mol
# GULP energy per Si atom -5582.153965 kJ/mol
# Density = 2.846104 g / cm^3
# Si number density = 28.525961 Si / 1000 Ang^3
#
#
#
# Elastic Constant Matrix: (Units=GPa)
#
#
# Indices 1 2 3 4 5 6 
#
# 1 71.7604 37.4507 32.8160 0.0000 0.0000 0.0000
# 2 37.4507 71.7625 32.8165 0.0000 0.0000 0.0000
# 3 32.8160 32.8165 419.0667 0.0000 0.0000 0.0000
# 4 0.0000 0.0000 0.0000 29.2890 0.0000 0.0000
# 5 0.0000 0.0000 0.0000 0.0000 29.2895 0.0000
# 6 0.0000 0.0000 0.0000 0.0000 0.0000 29.6178
#
#
#
# Elastic Compliance Matrix: (Units=1/GPa)
#
#
# Indices 1 2 3 4 5 6 
#
# 1 0.019377 -0.009768 -0.000752 0.000000 0.000000 0.000000
# 2 -0.009768 0.019377 -0.000752 0.000000 0.000000 0.000000
# 3 -0.000752 -0.000752 0.002504 0.000000 0.000000 0.000000
# 4 0.000000 0.000000 0.000000 0.034143 0.000000 0.000000
# 5 0.000000 0.000000 0.000000 0.000000 0.034142 0.000000
# 6 0.000000 0.000000 0.000000 0.000000 0.000000 0.033764
#
#
# Mechanical properties :
#
#
# Convention : Reuss Voigt Hill
#
# Bulk Modulus (GPa) = 53.44247 85.41734 69.42991
# Shear Modulus (GPa) = 29.05463 48.27303 38.66383
#
# Velocity S-wave (km/s) = 3.19491 4.11816 3.68556
# Velocity P-wave (km/s) = 5.69081 7.25404 6.51944
#
# Compressibility (1/GPa) = 0.01871171
#
# Stress axis : x y z
#
# Youngs Moduli (GPa) = 51.60683 51.60834 399.34531
#
# Poissons Ratio (x) = 0.50413 0.30048
# Poissons Ratio (y) = 0.50411 0.30048
# Poissons Ratio (z) = 0.03883 0.03883
#
# Static dielectric constant tensor:
#      x y z
#    x 2.208500 0.000000 0.000000 
#    y 0.000000 2.208500 0.000000 
#    z 0.000000 0.000000 2.505400 
# 
# From -- ./inp_files/12142.got.cif
#   From: 2010.05.17/outbox.cif.g08.bks.cpg/sg91_7_cif.got.tgz:12142.got - 2010.06.03 19:20:03.
