data_PCOD9548789
_publ_section_title
;
Structure prediction by ZEFSAII (Michael W. Deem and Ramdas Pophale) SiO2 
 PCOD9548789
Probable space group: P 41 2 2
;
_chemical_formula_sum "Si O2"
_cell_formula_units_Z 40
_cell_length_a 9.330056
_cell_length_b 9.330056
_cell_length_c 21.097549
_cell_angle_alpha 90.000000
_cell_angle_beta 90.000000
_cell_angle_gamma 90.000000
_cell_volume 1836.540479
_symmetry_space_group_name_H-M "P 41 2 2"
_symmetry_group_IT_number 91
_symmetry_cell_setting 'tetragonal'
loop_
_space_group_symop_operation_xyz
x,y,z
-y,x,1/4+z
-x,-y,1/2+z
y,-x,3/4+z
x,-y,1/2-z
-x,y,-z
y,x,3/4-z
-y,-x,1/4-z
loop_
_atom_site_type_symbol
_atom_site_label
_atom_site_fract_x
_atom_site_fract_y
_atom_site_fract_z
Si Si1 0.828346 0.500000 0.750000
Si Si2 0.580688 0.580688 0.375000
Si Si3 0.585234 0.922968 0.868792
Si Si4 0.075019 0.075019 0.375000
Si Si5 0.150898 0.391866 0.943104
Si Si6 0.116959 0.000000 0.750000
Si Si7 0.346290 0.555969 0.040000
O O1 0.926750 0.483336 0.688682
O O2 0.711682 0.629410 0.757144
O O3 0.751559 0.572012 0.381425
O O4 0.515233 0.490888 0.316758
O O5 0.754626 0.954419 0.864862
O O6 0.569613 0.758230 0.849646
O O7 0.489266 0.013817 0.820748
O O8 0.984996 0.040728 0.310271
O O9 0.108165 0.231859 0.965300
O O10 0.255270 0.452220 0.996196
#
# Coordination Sequence:
#
# PCOD9548789 Si02
#       7
#     4   4   8   4   8   4   8
#     4  12  22  44  80 110 140 184 254 320 366 452
#     4  12  24  44  76 112 144 182 242 312 386 428
#     4  12  26  46  77 108 141 198 254 303 378 451
#     4  12  30  52  74 108 154 218 248 308 378 482
#     4  12  27  46  72 110 147 191 245 316 371 442
#     4  12  30  50  72 106 164 200 256 300 386 462
#     4  12  21  47  75 107 142 183 242 309 374 443
#
# _framework density 21.780080000000002
#
# number of rings (size 3 to 8) (size 9 to 14) (size 15 to 20)
#    0.000    0.000    8.000    0.600    5.600    4.800 
#    0.000    0.000    0.000    0.000    0.000    0.000 
#    0.000    0.000    0.000    0.000    0.000    0.000 
#
# Total GULP energy -222679.204864 kJ/mol
# GULP energy per Si atom -5566.980122 kJ/mol
# Density = 2.173051 g / cm^3
# Si number density = 21.780080 Si / 1000 Ang^3
#
#
#
# Elastic Constant Matrix: (Units=GPa)
#
#
# Indices 1 2 3 4 5 6 
#
# 1 111.6425 51.0102 62.6189 0.0000 0.0000 0.0000
# 2 51.0102 111.6425 62.6189 0.0000 0.0000 0.0000
# 3 62.6189 62.6189 130.3740 0.0000 0.0000 0.0000
# 4 0.0000 0.0000 0.0000 41.2520 0.0000 0.0000
# 5 0.0000 0.0000 0.0000 0.0000 41.2520 0.0000
# 6 0.0000 0.0000 0.0000 0.0000 0.0000 30.5581
#
#
#
# Elastic Compliance Matrix: (Units=1/GPa)
#
#
# Indices 1 2 3 4 5 6 
#
# 1 0.013124 -0.003368 -0.004686 0.000000 0.000000 0.000000
# 2 -0.003368 0.013124 -0.004686 0.000000 0.000000 0.000000
# 3 -0.004686 -0.004686 0.012171 0.000000 0.000000 0.000000
# 4 0.000000 0.000000 0.000000 0.024241 0.000000 0.000000
# 5 0.000000 0.000000 0.000000 0.000000 0.024241 0.000000
# 6 0.000000 0.000000 0.000000 0.000000 0.000000 0.032725
#
#
# Mechanical properties :
#
#
# Convention : Reuss Voigt Hill
#
# Bulk Modulus (GPa) = 77.27870 78.46166 77.87018
# Shear Modulus (GPa) = 33.46248 34.43981 33.95115
#
# Velocity S-wave (km/s) = 3.92392 3.98081 3.95247
# Velocity P-wave (km/s) = 7.48919 7.56517 7.52728
#
# Compressibility (1/GPa) = 0.01294018
#
# Stress axis : x y z
#
# Youngs Moduli (GPa) = 76.19368 76.19368 82.15924
#
# Poissons Ratio (x) = 0.25665 0.38499
# Poissons Ratio (y) = 0.25665 0.38499
# Poissons Ratio (z) = 0.35703 0.35703
#
# Static dielectric constant tensor:
#      x y z
#    x 1.805910 0.000000 0.000000 
#    y 0.000000 1.805910 0.000000 
#    z 0.000000 0.000000 1.997450 
# 
# From -- ./inp_files/6890.got.cif
#   From: 2010.05.17/outbox.cif.g08.bks.cpg/sg91_4_cif.got.tgz:6890.got - 2010.06.03 19:20:03.
