data_PCOD9548000
_publ_section_title
;
Structure prediction by ZEFSAII (Michael W. Deem and Ramdas Pophale) SiO2 
 PCOD9548000
Probable space group: P 41 2 2
;
_chemical_formula_sum "Si O2"
_cell_formula_units_Z 40
_cell_length_a 18.247321
_cell_length_b 18.247321
_cell_length_c 5.550554
_cell_angle_alpha 90.000000
_cell_angle_beta 90.000000
_cell_angle_gamma 90.000000
_cell_volume 1848.138679
_symmetry_space_group_name_H-M "P 41 2 2"
_symmetry_group_IT_number 91
_symmetry_cell_setting 'tetragonal'
loop_
_space_group_symop_operation_xyz
x,y,z
-y,x,1/4+z
-x,-y,1/2+z
y,-x,3/4+z
x,-y,1/2-z
-x,y,-z
y,x,3/4-z
-y,-x,1/4-z
loop_
_atom_site_type_symbol
_atom_site_label
_atom_site_fract_x
_atom_site_fract_y
_atom_site_fract_z
Si Si1 0.253723 0.746278 0.625000
Si Si2 0.862494 0.500000 0.250000
Si Si3 0.807063 0.807063 0.875000
Si Si4 0.586548 0.752918 0.166925
Si Si5 0.419621 0.109762 0.398781
Si Si6 0.733381 0.042924 0.497758
Si Si7 0.386606 0.500000 0.250000
O O1 0.237219 0.789953 0.375560
O O2 0.246181 0.662511 0.550052
O O3 0.807452 0.534642 0.439826
O O4 0.906607 0.433449 0.367897
O O5 0.888326 0.787083 0.788420
O O6 0.550442 0.672826 0.143857
O O7 0.596002 0.801853 0.924900
O O8 0.500000 0.087598 0.500000
O O9 0.350298 0.072438 0.516543
O O10 0.737697 0.000000 0.750000
O O11 0.749882 0.000000 0.250000
O O12 0.441422 0.441422 0.375000
#
# Coordination Sequence:
#
# PCOD9548000 Si02
#       7
#     4   4   4   8   8   8   4
#     4  12  26  40  84 101 139 192 266 328 364 446
#     4  10  20  39  68  95 132 184 236 314 366 466
#     4  12  26  52  78 121 153 198 254 314 374 464
#     4  11  24  42  67  93 129 186 253 318 385 441
#     4  10  22  43  69 107 146 190 243 302 373 462
#     4  12  28  47  77 115 161 200 245 309 383 456
#     4  12  30  45  54  87 132 192 262 330 398 450
#
# _framework density 21.643398999999999
#
# number of rings (size 3 to 8) (size 9 to 14) (size 15 to 20)
#    0.000    0.800    5.000    2.400   11.200    0.800 
#    0.000    0.000    0.000    1.200    0.000    0.000 
#    0.000    0.000    0.000    0.000    0.000    0.000 
#
# Total GULP energy -222844.542362 kJ/mol
# GULP energy per Si atom -5571.113559 kJ/mol
# Density = 2.159414 g / cm^3
# Si number density = 21.643399 Si / 1000 Ang^3
#
#
#
# Elastic Constant Matrix: (Units=GPa)
#
#
# Indices 1 2 3 4 5 6 
#
# 1 109.5325 65.5951 57.1439 0.0000 0.0000 0.0000
# 2 65.5951 109.5314 57.1438 0.0000 0.0000 0.0000
# 3 57.1439 57.1438 135.0329 0.0000 0.0000 0.0000
# 4 0.0000 0.0000 0.0000 35.5305 0.0000 0.0000
# 5 0.0000 0.0000 0.0000 0.0000 35.5308 0.0000
# 6 0.0000 0.0000 0.0000 0.0000 0.0000 29.1121
#
#
#
# Elastic Compliance Matrix: (Units=1/GPa)
#
#
# Indices 1 2 3 4 5 6 
#
# 1 0.015324 -0.007436 -0.003338 0.000000 0.000000 0.000000
# 2 -0.007436 0.015324 -0.003338 0.000000 0.000000 0.000000
# 3 -0.003338 -0.003338 0.010231 0.000000 0.000000 0.000000
# 4 0.000000 0.000000 0.000000 0.028145 0.000000 0.000000
# 5 0.000000 0.000000 0.000000 0.000000 0.028145 0.000000
# 6 0.000000 0.000000 0.000000 0.000000 0.000000 0.034350
#
#
# Mechanical properties :
#
#
# Convention : Reuss Voigt Hill
#
# Bulk Modulus (GPa) = 79.01980 79.31802 79.16891
# Shear Modulus (GPa) = 30.49480 31.64894 31.07187
#
# Velocity S-wave (km/s) = 3.75769 3.82814 3.79308
# Velocity P-wave (km/s) = 7.44420 7.50112 7.47271
#
# Compressibility (1/GPa) = 0.01265506
#
# Stress axis : x y z
#
# Youngs Moduli (GPa) = 65.25599 65.25522 97.74090
#
# Poissons Ratio (x) = 0.48521 0.32630
# Poissons Ratio (y) = 0.48522 0.32630
# Poissons Ratio (z) = 0.21785 0.21785
#
# Static dielectric constant tensor:
#      x y z
#    x 1.863720 0.000000 0.000000 
#    y 0.000000 1.863720 0.000000 
#    z 0.000000 0.000000 3.189460 
# 
# From -- ./inp_files/8615.got.cif
#   From: 2010.05.17/outbox.cif.g08.bks.cpg/sg91_5_cif.got.tgz:8615.got - 2010.06.03 19:20:03.
