data_PCOD9548081
_publ_section_title
;
Structure prediction by ZEFSAII (Michael W. Deem and Ramdas Pophale) SiO2 
 PCOD9548081
Probable space group: P 41 2 2
;
_chemical_formula_sum "Si O2"
_cell_formula_units_Z 48
_cell_length_a 9.640186
_cell_length_b 9.640186
_cell_length_c 27.311912
_cell_angle_alpha 90.000000
_cell_angle_beta 90.000000
_cell_angle_gamma 90.000000
_cell_volume 2538.183001
_symmetry_space_group_name_H-M "P 41 2 2"
_symmetry_group_IT_number 91
_symmetry_cell_setting 'tetragonal'
loop_
_space_group_symop_operation_xyz
x,y,z
-y,x,1/4+z
-x,-y,1/2+z
y,-x,3/4+z
x,-y,1/2-z
-x,y,-z
y,x,3/4-z
-y,-x,1/4-z
loop_
_atom_site_type_symbol
_atom_site_label
_atom_site_fract_x
_atom_site_fract_y
_atom_site_fract_z
Si Si1 0.871727 0.748043 0.423783
Si Si2 0.973980 0.255411 0.616585
Si Si3 0.026604 0.645675 0.773463
Si Si4 0.942147 0.104741 0.791788
Si Si5 0.081607 0.521774 0.448343
Si Si6 0.352562 0.660581 0.754073
O O1 0.796281 0.796281 0.375000
O O2 0.754249 0.666249 0.455020
O O3 0.002932 0.646581 0.419899
O O4 0.924594 0.895023 0.446146
O O5 0.845911 0.154090 0.625000
O O6 0.938249 0.380785 0.580645
O O7 0.000899 0.319600 0.669992
O O8 0.087596 0.156185 0.589132
O O9 0.986699 0.500000 0.750000
O O10 0.193075 0.654707 0.770631
O O11 0.951864 0.751835 0.736805
O O12 0.891465 0.000000 0.750000
O O13 0.240946 0.559262 0.460058
O O14 0.000000 0.513523 0.500000
O O15 0.400855 0.500000 0.750000
#
# Coordination Sequence:
#
# PCOD9548081 Si02
#       6
#     8   8   8   8   8   8
#     4  10  21  35  63  97 121 158 212 258 315 385
#     4  12  25  39  65  94 129 171 217 264 328 385
#     4  10  23  40  63  98 132 163 210 274 318 385
#     4  11  21  39  65  94 128 159 209 272 319 377
#     4  10  23  41  63  90 125 170 209 264 320 382
#     4   9  20  40  63  86 126 162 209 261 313 376
#
# _framework density 18.911166000000001
#
# number of rings (size 3 to 8) (size 9 to 14) (size 15 to 20)
#    0.000    1.667    1.667    3.500    9.333    0.000 
#    0.000    1.667    0.000    0.000    0.000    0.000 
#    0.000    0.000    0.000    0.000    0.000    0.000 
#
# Total GULP energy -267491.317010 kJ/mol
# GULP energy per Si atom -5572.735771 kJ/mol
# Density = 1.886812 g / cm^3
# Si number density = 18.911166 Si / 1000 Ang^3
#
#
#
# Elastic Constant Matrix: (Units=GPa)
#
#
# Indices 1 2 3 4 5 6 
#
# 1 84.8507 84.2555 46.7485 0.0000 0.0000 0.0000
# 2 84.2555 84.8525 46.7495 0.0000 0.0000 0.0000
# 3 46.7485 46.7495 79.3306 0.0000 0.0000 0.0000
# 4 0.0000 0.0000 0.0000 27.8142 0.0000 0.0000
# 5 0.0000 0.0000 0.0000 0.0000 27.8144 0.0000
# 6 0.0000 0.0000 0.0000 0.0000 0.0000 22.5716
#
#
#
# Elastic Compliance Matrix: (Units=1/GPa)
#
#
# Indices 1 2 3 4 5 6 
#
# 1 0.843160 -0.834384 -0.005161 0.000000 0.000000 0.000000
# 2 -0.834384 0.843151 -0.005177 0.000000 0.000000 0.000000
# 3 -0.005161 -0.005177 0.018697 0.000000 0.000000 0.000000
# 4 0.000000 0.000000 0.000000 0.035953 0.000000 0.000000
# 5 0.000000 0.000000 0.000000 0.000000 0.035953 0.000000
# 6 0.000000 0.000000 0.000000 0.000000 0.000000 0.044304
#
#
# Mechanical properties :
#
#
# Convention : Reuss Voigt Hill
#
# Bulk Modulus (GPa) = 64.24863 67.17119 65.70991
# Shear Modulus (GPa) = 1.42213 20.39207 10.90710
#
# Velocity S-wave (km/s) = 0.86812 3.28732 2.40418
# Velocity P-wave (km/s) = 5.92052 7.07143 6.52141
#
# Compressibility (1/GPa) = 0.01556453
#
# Stress axis : x y z
#
# Youngs Moduli (GPa) = 1.18601 1.18603 53.48352
#
# Poissons Ratio (x) = 0.98960 0.27602
# Poissons Ratio (y) = 0.98959 0.27687
# Poissons Ratio (z) = 0.00612 0.00614
#
# Static dielectric constant tensor:
#      x y z
#    x 1.637960 0.000000 0.000000 
#    y 0.000000 1.637950 0.000000 
#    z 0.000000 0.000000 1.707180 
# 
# From -- ./inp_files/18182.got.cif
#   From: 2010.05.17/outbox.cif.g08.bks.cpg/sg91_10_cif.got.tgz:18182.got - 2010.06.03 19:20:03.
