data_PCOD9548626
_publ_section_title
;
Structure prediction by ZEFSAII (Michael W. Deem and Ramdas Pophale) SiO2 
 PCOD9548626
Probable space group: P 41 2 2
;
_chemical_formula_sum "Si O2"
_cell_formula_units_Z 32
_cell_length_a 12.835131
_cell_length_b 12.835131
_cell_length_c 9.992466
_cell_angle_alpha 90.000000
_cell_angle_beta 90.000000
_cell_angle_gamma 90.000000
_cell_volume 1646.164722
_symmetry_space_group_name_H-M "P 41 2 2"
_symmetry_group_IT_number 91
_symmetry_cell_setting 'tetragonal'
loop_
_space_group_symop_operation_xyz
x,y,z
-y,x,1/4+z
-x,-y,1/2+z
y,-x,3/4+z
x,-y,1/2-z
-x,y,-z
y,x,3/4-z
-y,-x,1/4-z
loop_
_atom_site_type_symbol
_atom_site_label
_atom_site_fract_x
_atom_site_fract_y
_atom_site_fract_z
Si Si1 0.282280 0.581047 0.359690
Si Si2 0.244159 0.863080 0.991094
Si Si3 0.772070 0.560343 0.113963
Si Si4 0.072303 0.747265 0.874533
O O1 0.323048 0.500000 0.250000
O O2 0.187191 0.644725 0.292232
O O3 0.369046 0.668915 0.384166
O O4 0.247228 0.517527 0.490478
O O5 0.196686 0.803315 0.125000
O O6 0.253297 0.986662 0.008852
O O7 0.164370 0.831481 0.873262
O O8 0.791091 0.500000 0.250000
O O9 0.868975 0.638955 0.095821
O O10 0.000000 0.774291 0.000000
#
# Coordination Sequence:
#
# PCOD9548626 Si02
#       4
#     8   8   8   8
#     4  11  21  37  58  83 113 153 197 236 281 346
#     4   9  18  35  60  86 114 146 191 244 291 345
#     4  11  24  37  55  84 118 152 191 240 292 339
#     4   9  18  35  59  85 111 147 190 238 289 348
#
# _framework density 19.439124
#
# number of rings (size 3 to 8) (size 9 to 14) (size 15 to 20)
#    0.000    2.000    0.000    6.000    0.000    6.000 
#    0.000    0.000    0.000   45.000    0.000    0.000 
#    0.000    0.000    0.000    0.000    0.000    0.000 
#
# Total GULP energy -178379.365006 kJ/mol
# GULP energy per Si atom -5574.355156 kJ/mol
# Density = 1.939488 g / cm^3
# Si number density = 19.439124 Si / 1000 Ang^3
#
#
#
# Elastic Constant Matrix: (Units=GPa)
#
#
# Indices 1 2 3 4 5 6 
#
# 1 66.2101 25.0012 0.5037 0.0000 0.0000 0.0000
# 2 25.0012 66.2088 0.5041 0.0000 0.0000 0.0000
# 3 0.5037 0.5041 46.3308 0.0000 0.0000 0.0000
# 4 0.0000 0.0000 0.0000 20.3129 0.0000 0.0000
# 5 0.0000 0.0000 0.0000 0.0000 20.3129 0.0000
# 6 0.0000 0.0000 0.0000 0.0000 0.0000 1.0071
#
#
#
# Elastic Compliance Matrix: (Units=1/GPa)
#
#
# Indices 1 2 3 4 5 6 
#
# 1 0.017616 -0.006651 -0.000119 0.000000 0.000000 0.000000
# 2 -0.006651 0.017616 -0.000119 0.000000 0.000000 0.000000
# 3 -0.000119 -0.000119 0.021587 0.000000 0.000000 0.000000
# 4 0.000000 0.000000 0.000000 0.049230 0.000000 0.000000
# 5 0.000000 0.000000 0.000000 0.000000 0.049230 0.000000
# 6 0.000000 0.000000 0.000000 0.000000 0.000000 0.992927
#
#
# Mechanical properties :
#
#
# Convention : Reuss Voigt Hill
#
# Bulk Modulus (GPa) = 23.23455 25.64087 24.43771
# Shear Modulus (GPa) = 4.25050 18.50929 11.37990
#
# Velocity S-wave (km/s) = 1.48031 3.08907 2.42215
# Velocity P-wave (km/s) = 3.86007 5.09334 4.51897
#
# Compressibility (1/GPa) = 0.04303936
#
# Stress axis : x y z
#
# Youngs Moduli (GPa) = 56.76718 56.76607 46.32519
#
# Poissons Ratio (x) = 0.37755 0.00552
# Poissons Ratio (y) = 0.37756 0.00553
# Poissons Ratio (z) = 0.00676 0.00678
#
# Static dielectric constant tensor:
#      x y z
#    x 1.690460 0.000000 0.000000 
#    y 0.000000 1.690460 0.000000 
#    z 0.000000 0.000000 1.732220 
# 
# From -- ./inp_files/3365.got.cif
#   From: 2010.05.17/outbox.cif.g08.bks.cpg/sg91_2_cif.got.tgz:3365.got - 2010.06.03 19:20:03.
