data_PCOD9548851
_publ_section_title
;
Structure prediction by ZEFSAII (Michael W. Deem and Ramdas Pophale) SiO2 
 PCOD9548851
Probable space group: P 41 21 2
;
_chemical_formula_sum "Si O2"
_cell_formula_units_Z 56
_cell_length_a 23.870614
_cell_length_b 23.870614
_cell_length_c 5.556871
_cell_angle_alpha 90.000000
_cell_angle_beta 90.000000
_cell_angle_gamma 90.000000
_cell_volume 3166.339619
_symmetry_space_group_name_H-M "P 41 21 2"
_symmetry_group_IT_number 92
_symmetry_cell_setting 'tetragonal'
loop_
_space_group_symop_operation_xyz
x,y,z
1/2-y,1/2+x,1/4+z
-x,-y,1/2+z
1/2+y,1/2-x,3/4+z
1/2+x,1/2-y,3/4-z
1/2-x,1/2+y,1/4-z
y,x,-z
-y,-x,1/2-z
loop_
_atom_site_type_symbol
_atom_site_label
_atom_site_fract_x
_atom_site_fract_y
_atom_site_fract_z
Si Si1 0.107813 0.387857 0.725434
Si Si2 0.346520 0.148931 0.769443
Si Si3 0.671147 0.713299 0.749728
Si Si4 0.274648 0.948049 0.497939
Si Si5 0.007140 0.420481 0.984496
Si Si6 0.034754 0.705141 0.506777
Si Si7 0.228136 0.210567 0.750474
O O1 0.113409 0.355026 0.475274
O O2 0.159152 0.431822 0.737923
O O3 0.048571 0.418033 0.754350
O O4 0.117234 0.353029 0.974750
O O5 0.397691 0.194038 0.759095
O O6 0.288000 0.180309 0.755764
O O7 0.679907 0.679907 0.500000
O O8 0.611048 0.742480 0.745799
O O9 0.722068 0.758799 0.750443
O O10 0.679880 0.679880 0.000000
O O11 0.267503 0.980300 0.247848
O O12 0.262102 0.978056 0.749507
O O13 0.951999 0.455925 0.930773
O O14 0.990421 0.356838 0.027844
O O15 0.198189 0.198189 0.500000
O O16 0.197839 0.197839 0.000000
#
# Coordination Sequence:
#
# PCOD9548851 Si02
#       7
#     8   8   8   8   8   8   8
#     4  10  20  34  44  58  74 105 122 169 225 253
#     4  10  18  33  44  60  85 100 118 150 214 257
#     4  10  16  24  43  67  82 100 118 136 168 250
#     4  10  18  33  44  60  85 100 118 150 214 257
#     4  12  26  36  50  64  74 100 154 208 232 270
#     4  10  20  34  44  58  74 105 122 169 225 253
#     4  10  16  24  43  67  82 100 118 136 168 250
#
# _framework density 17.686036999999999
#
# number of rings (size 3 to 8) (size 9 to 14) (size 15 to 20)
#    0.000    1.714    2.857    8.571    4.000    1.143 
#    0.000    0.000    0.000    0.000    0.000    0.000 
#    0.000    0.000    0.000    0.000    0.000    0.000 
#
# Total GULP energy -312495.430451 kJ/mol
# GULP energy per Si atom -5580.275544 kJ/mol
# Density = 1.764578 g / cm^3
# Si number density = 17.686037 Si / 1000 Ang^3
#
#
#
# Elastic Constant Matrix: (Units=GPa)
#
#
# Indices 1 2 3 4 5 6 
#
# 1 8.8954 13.0249 14.2115 0.0000 0.0000 0.0000
# 2 13.0249 8.8954 14.2115 0.0000 0.0000 0.0000
# 3 14.2115 14.2115 193.2641 0.0000 0.0000 0.0000
# 4 0.0000 0.0000 0.0000 14.3306 0.0000 0.0000
# 5 0.0000 0.0000 0.0000 0.0000 14.3306 0.0000
# 6 0.0000 0.0000 0.0000 0.0000 0.0000 14.4037
#
#
#
# Elastic Compliance Matrix: (Units=1/GPa)
#
#
# Indices 1 2 3 4 5 6 
#
# 1 -0.095866 0.146294 -0.003708 0.000000 0.000000 0.000000
# 2 0.146294 -0.095866 -0.003708 0.000000 0.000000 0.000000
# 3 -0.003708 -0.003708 0.005720 0.000000 0.000000 0.000000
# 4 0.000000 0.000000 0.000000 0.069781 0.000000 0.000000
# 5 0.000000 0.000000 0.000000 0.000000 0.069781 0.000000
# 6 0.000000 0.000000 0.000000 0.000000 0.000000 0.069427
#
#
# Mechanical properties :
#
#
# Convention : Reuss Voigt Hill
#
# Bulk Modulus (GPa) = 10.89999 32.66116 21.78058
# Shear Modulus (GPa) = -22.30185 19.92009 -1.19088
#
# Velocity S-wave (km/s) = -3.55489 3.35971 -0.82147
# Velocity P-wave (km/s) = 3.26699 5.79288 3.38262
#
# Compressibility (1/GPa) = 0.09174318
#
# Stress axis : x y z
#
# Youngs Moduli (GPa) = -10.43127 -10.43127 174.83671
#
# Poissons Ratio (x) = 1.52603 0.64833
# Poissons Ratio (y) = 1.52603 0.64833
# Poissons Ratio (z) = -0.03868 -0.03868
#
# Static dielectric constant tensor:
#      x y z
#    x 1.601760 0.000000 0.000000 
#    y 0.000000 1.601760 0.000000 
#    z 0.000000 0.000000 1.777920 
# 
# From -- ./inp_files/850.got.cif
#   From: 2010.05.17/outbox.cif.g08.bks.cpg/sg92_1_cif.got.tgz:850.got - 2010.06.03 19:35:17.
