data_PCOD9548338
_publ_section_title
;
Structure prediction by ZEFSAII (Michael W. Deem and Ramdas Pophale) SiO2 
 PCOD9548338
Probable space group: P 41 2 2
;
_chemical_formula_sum "Si O2"
_cell_formula_units_Z 40
_cell_length_a 11.495282
_cell_length_b 11.495282
_cell_length_c 13.880495
_cell_angle_alpha 90.000000
_cell_angle_beta 90.000000
_cell_angle_gamma 90.000000
_cell_volume 1834.189545
_symmetry_space_group_name_H-M "P 41 2 2"
_symmetry_group_IT_number 91
_symmetry_cell_setting 'tetragonal'
loop_
_space_group_symop_operation_xyz
x,y,z
-y,x,1/4+z
-x,-y,1/2+z
y,-x,3/4+z
x,-y,1/2-z
-x,y,-z
y,x,3/4-z
-y,-x,1/4-z
loop_
_atom_site_type_symbol
_atom_site_label
_atom_site_fract_x
_atom_site_fract_y
_atom_site_fract_z
Si Si1 0.206325 0.870370 0.227524
Si Si2 0.680646 0.316534 0.267711
Si Si3 0.577870 0.901840 0.410543
Si Si4 0.756243 0.433653 0.462780
Si Si5 0.928065 0.777781 0.587706
O O1 0.143054 0.856947 0.125000
O O2 0.319496 0.786353 0.226405
O O3 0.122298 0.842852 0.318664
O O4 0.247566 0.000000 0.250000
O O5 0.775708 0.369204 0.193212
O O6 0.699861 0.385789 0.365669
O O7 0.543113 0.317320 0.249176
O O8 0.721357 0.184689 0.287271
O O9 0.500000 0.944751 0.500000
O O10 0.492835 0.876372 0.322280
O O11 0.678710 0.988437 0.381027
O O12 0.000000 0.838652 0.500000
#
# Coordination Sequence:
#
# PCOD9548338 Si02
#       5
#     8   8   8   8   8
#     4  11  29  50  70 104 149 192 234 298 372 428
#     4  10  22  42  67 110 134 189 238 296 356 425
#     4  10  22  41  72 102 138 186 238 293 360 421
#     4  10  22  43  72 100 143 180 240 292 356 431
#     4  11  24  42  73 108 139 184 250 288 346 438
#
# _framework density 21.807998999999999
#
# number of rings (size 3 to 8) (size 9 to 14) (size 15 to 20)
#    0.000    1.600    2.000    0.600   11.200    0.800 
#    0.000   11.000    0.000    0.000    0.000    0.000 
#    0.000    0.000    0.000    0.000    0.000    0.000 
#
# Total GULP energy -223293.995974 kJ/mol
# GULP energy per Si atom -5582.349899 kJ/mol
# Density = 2.175836 g / cm^3
# Si number density = 21.807999 Si / 1000 Ang^3
#
#
#
# Elastic Constant Matrix: (Units=GPa)
#
#
# Indices 1 2 3 4 5 6 
#
# 1 109.8008 33.0928 43.1003 0.0000 0.0000 0.0000
# 2 33.0928 109.8003 43.0996 0.0000 0.0000 0.0000
# 3 43.1003 43.0996 99.3181 0.0000 0.0000 0.0000
# 4 0.0000 0.0000 0.0000 22.9591 0.0000 0.0000
# 5 0.0000 0.0000 0.0000 0.0000 22.9588 0.0000
# 6 0.0000 0.0000 0.0000 0.0000 0.0000 16.0577
#
#
#
# Elastic Compliance Matrix: (Units=1/GPa)
#
#
# Indices 1 2 3 4 5 6 
#
# 1 0.011258 -0.001778 -0.004114 0.000000 0.000000 0.000000
# 2 -0.001778 0.011258 -0.004114 0.000000 0.000000 0.000000
# 3 -0.004114 -0.004114 0.013639 0.000000 0.000000 0.000000
# 4 0.000000 0.000000 0.000000 0.043556 0.000000 0.000000
# 5 0.000000 0.000000 0.000000 0.000000 0.043556 0.000000
# 6 0.000000 0.000000 0.000000 0.000000 0.000000 0.062276
#
#
# Mechanical properties :
#
#
# Convention : Reuss Voigt Hill
#
# Bulk Modulus (GPa) = 61.94467 61.94497 61.94482
# Shear Modulus (GPa) = 23.70381 25.70353 24.70367
#
# Velocity S-wave (km/s) = 3.30044 3.43684 3.36933
# Velocity P-wave (km/s) = 6.55668 6.64948 6.60324
#
# Compressibility (1/GPa) = 0.01614344
#
# Stress axis : x y z
#
# Youngs Moduli (GPa) = 88.82401 88.82410 73.31819
#
# Poissons Ratio (x) = 0.15796 0.30163
# Poissons Ratio (y) = 0.15795 0.30162
# Poissons Ratio (z) = 0.36542 0.36541
#
# Static dielectric constant tensor:
#      x y z
#    x 1.811020 0.000000 0.000000 
#    y 0.000000 1.811020 0.000000 
#    z 0.000000 0.000000 1.834310 
# 
# From -- ./inp_files/11335.got.cif
#   From: 2010.05.17/outbox.cif.g08.bks.cpg/sg91_6_cif.got.tgz:11335.got - 2010.06.03 19:20:03.
