data_PCOD9548297
_publ_section_title
;
Structure prediction by ZEFSAII (Michael W. Deem and Ramdas Pophale) SiO2 
 PCOD9548297
Probable space group: P 41 2 2
;
_chemical_formula_sum "Si O2"
_cell_formula_units_Z 48
_cell_length_a 9.776160
_cell_length_b 9.776160
_cell_length_c 26.547101
_cell_angle_alpha 90.000000
_cell_angle_beta 90.000000
_cell_angle_gamma 90.000000
_cell_volume 2537.194163
_symmetry_space_group_name_H-M "P 41 2 2"
_symmetry_group_IT_number 91
_symmetry_cell_setting 'tetragonal'
loop_
_space_group_symop_operation_xyz
x,y,z
-y,x,1/4+z
-x,-y,1/2+z
y,-x,3/4+z
x,-y,1/2-z
-x,y,-z
y,x,3/4-z
-y,-x,1/4-z
loop_
_atom_site_type_symbol
_atom_site_label
_atom_site_fract_x
_atom_site_fract_y
_atom_site_fract_z
Si Si1 0.483138 0.202734 0.689080
Si Si2 0.648646 0.004323 0.025734
Si Si3 0.701854 0.662619 0.743017
Si Si4 0.068360 0.429477 0.885143
Si Si5 0.574448 0.343258 0.867393
Si Si6 0.747074 0.146380 0.228994
O O1 0.619194 0.269103 0.711601
O O2 0.409766 0.302161 0.648999
O O3 0.379407 0.188018 0.735726
O O4 0.504340 0.052065 0.666047
O O5 0.630986 0.998366 0.085826
O O6 0.744060 0.133758 0.016006
O O7 0.709781 0.858854 0.008809
O O8 0.500000 0.021434 0.000000
O O9 0.706427 0.500000 0.750000
O O10 0.622762 0.679073 0.690113
O O11 0.193037 0.523788 0.866546
O O12 0.128066 0.313733 0.922799
O O13 0.447700 0.447700 0.875000
O O14 0.795335 0.000000 0.250000
#
# Coordination Sequence:
#
# PCOD9548297 Si02
#       6
#     8   8   8   8   8   8
#     4  11  23  42  62  92 132 160 215 269 315 385
#     4  11  23  41  62  90 126 165 210 262 320 379
#     4  11  23  40  63  93 126 167 211 267 318 376
#     4  11  23  39  66  95 124 166 215 267 318 382
#     4  12  22  38  66  93 123 168 212 259 320 379
#     4  10  22  40  61  90 127 166 209 263 314 375
#
# _framework density 18.918534999999999
#
# number of rings (size 3 to 8) (size 9 to 14) (size 15 to 20)
#    0.000    1.000    5.000    2.500    0.000    0.667 
#    3.000    0.000    0.000    0.000    0.000    0.000 
#    0.000    0.000    0.000    0.000    0.000    0.000 
#
# Total GULP energy -268102.549390 kJ/mol
# GULP energy per Si atom -5585.469779 kJ/mol
# Density = 1.887548 g / cm^3
# Si number density = 18.918535 Si / 1000 Ang^3
#
#
#
# Elastic Constant Matrix: (Units=GPa)
#
#
# Indices 1 2 3 4 5 6 
#
# 1 86.5222 48.6949 15.6355 0.0000 0.0000 0.0000
# 2 48.6949 86.5222 15.6355 0.0000 0.0000 0.0000
# 3 15.6355 15.6355 59.0685 0.0000 0.0000 0.0000
# 4 0.0000 0.0000 0.0000 18.8238 0.0000 0.0000
# 5 0.0000 0.0000 0.0000 0.0000 18.8238 0.0000
# 6 0.0000 0.0000 0.0000 0.0000 0.0000 12.5231
#
#
#
# Elastic Compliance Matrix: (Units=1/GPa)
#
#
# Indices 1 2 3 4 5 6 
#
# 1 0.017157 -0.009279 -0.002085 0.000000 0.000000 0.000000
# 2 -0.009279 0.017157 -0.002085 0.000000 0.000000 0.000000
# 3 -0.002085 -0.002085 0.018033 0.000000 0.000000 0.000000
# 4 0.000000 0.000000 0.000000 0.053124 0.000000 0.000000
# 5 0.000000 0.000000 0.000000 0.000000 0.053124 0.000000
# 6 0.000000 0.000000 0.000000 0.000000 0.000000 0.079853
#
#
# Mechanical properties :
#
#
# Convention : Reuss Voigt Hill
#
# Bulk Modulus (GPa) = 39.29588 43.56050 41.42819
# Shear Modulus (GPa) = 18.25952 20.17729 19.21840
#
# Velocity S-wave (km/s) = 3.11008 3.26933 3.19070
# Velocity P-wave (km/s) = 5.80629 6.10955 5.95985
#
# Compressibility (1/GPa) = 0.02544796
#
# Stress axis : x y z
#
# Youngs Moduli (GPa) = 58.28572 58.28572 55.45256
#
# Poissons Ratio (x) = 0.54084 0.11563
# Poissons Ratio (y) = 0.54084 0.11563
# Poissons Ratio (z) = 0.12154 0.12154
#
# Static dielectric constant tensor:
#      x y z
#    x 1.739150 0.000000 0.000000 
#    y 0.000000 1.739150 0.000000 
#    z 0.000000 0.000000 1.649360 
# 
# From -- ./inp_files/18170.got.cif
#   From: 2010.05.17/outbox.cif.g08.bks.cpg/sg91_10_cif.got.tgz:18170.got - 2010.06.03 19:20:03.
