data_PCOD9548689
_publ_section_title
;
Structure prediction by ZEFSAII (Michael W. Deem and Ramdas Pophale) SiO2 
 PCOD9548689
Probable space group: P 41 2 2
;
_chemical_formula_sum "Si O2"
_cell_formula_units_Z 48
_cell_length_a 11.235573
_cell_length_b 11.235573
_cell_length_c 17.302822
_cell_angle_alpha 90.000000
_cell_angle_beta 90.000000
_cell_angle_gamma 90.000000
_cell_volume 2184.275385
_symmetry_space_group_name_H-M "P 41 2 2"
_symmetry_group_IT_number 91
_symmetry_cell_setting 'tetragonal'
loop_
_space_group_symop_operation_xyz
x,y,z
-y,x,1/4+z
-x,-y,1/2+z
y,-x,3/4+z
x,-y,1/2-z
-x,y,-z
y,x,3/4-z
-y,-x,1/4-z
loop_
_atom_site_type_symbol
_atom_site_label
_atom_site_fract_x
_atom_site_fract_y
_atom_site_fract_z
Si Si1 0.385006 0.439697 0.669499
Si Si2 0.430216 0.241790 0.344889
Si Si3 0.006839 0.896787 0.194546
Si Si4 0.774517 0.927418 0.091894
Si Si5 0.352978 0.171413 0.180776
Si Si6 0.014661 0.504664 0.337173
O O1 0.352086 0.500000 0.750000
O O2 0.476413 0.523588 0.625000
O O3 0.453162 0.315179 0.680715
O O4 0.276047 0.420676 0.613440
O O5 0.334043 0.334043 0.375000
O O6 0.383390 0.173193 0.270391
O O7 0.460550 0.150413 0.411997
O O8 0.880946 0.940550 0.156503
O O9 0.006227 0.793137 0.258185
O O10 0.053012 0.000000 0.250000
O O11 0.102489 0.897512 0.125000
O O12 0.794423 0.786281 0.077147
O O13 0.642657 0.972082 0.116644
O O14 0.409931 0.056743 0.139404
O O15 0.966708 0.500000 0.250000
#
# Coordination Sequence:
#
# PCOD9548689 Si02
#       6
#     8   8   8   8   8   8
#     4  11  22  42  68  96 136 186 236 286 361 443
#     4  11  25  42  70  97 135 185 239 304 364 436
#     4   9  21  41  68  96 127 184 234 290 361 430
#     4  11  23  43  68  98 144 181 240 299 363 441
#     4  12  25  44  68 105 140 188 238 303 368 440
#     4  12  26  44  68 107 144 187 242 304 375 443
#
# _framework density 21.975249999999999
#
# number of rings (size 3 to 8) (size 9 to 14) (size 15 to 20)
#    0.000    1.000    3.333    3.000    0.000    7.333 
#    0.000    2.500    0.000    0.000    0.000    0.000 
#    0.000    0.000    0.000    0.000    0.000    0.000 
#
# Total GULP energy -267693.184175 kJ/mol
# GULP energy per Si atom -5576.941337 kJ/mol
# Density = 2.192523 g / cm^3
# Si number density = 21.975250 Si / 1000 Ang^3
#
#
#
# Elastic Constant Matrix: (Units=GPa)
#
#
# Indices 1 2 3 4 5 6 
#
# 1 83.5193 4.1782 15.2148 0.0000 0.0000 0.0000
# 2 4.1782 83.5207 15.2164 0.0000 0.0000 0.0000
# 3 15.2148 15.2164 120.4855 0.0000 0.0000 0.0000
# 4 0.0000 0.0000 0.0000 34.8976 0.0000 0.0000
# 5 0.0000 0.0000 0.0000 0.0000 34.8983 0.0000
# 6 0.0000 0.0000 0.0000 0.0000 0.0000 10.9649
#
#
#
# Elastic Compliance Matrix: (Units=1/GPa)
#
#
# Indices 1 2 3 4 5 6 
#
# 1 0.012265 -0.000339 -0.001506 0.000000 0.000000 0.000000
# 2 -0.000339 0.012264 -0.001506 0.000000 0.000000 0.000000
# 3 -0.001506 -0.001506 0.008680 0.000000 0.000000 0.000000
# 4 0.000000 0.000000 0.000000 0.028655 0.000000 0.000000
# 5 0.000000 0.000000 0.000000 0.000000 0.028655 0.000000
# 6 0.000000 0.000000 0.000000 0.000000 0.000000 0.091200
#
#
# Mechanical properties :
#
#
# Convention : Reuss Voigt Hill
#
# Bulk Modulus (GPa) = 37.72620 39.63826 38.68223
# Shear Modulus (GPa) = 25.34764 33.01323 29.18044
#
# Velocity S-wave (km/s) = 3.39995 3.88015 3.64796
# Velocity P-wave (km/s) = 5.71120 6.17664 5.94847
#
# Compressibility (1/GPa) = 0.02650678
#
# Stress axis : x y z
#
# Youngs Moduli (GPa) = 81.53553 81.53653 115.20569
#
# Poissons Ratio (x) = 0.02766 0.17349
# Poissons Ratio (y) = 0.02766 0.17351
# Poissons Ratio (z) = 0.12279 0.12280
#
# Static dielectric constant tensor:
#      x y z
#    x 1.861040 0.000000 0.000000 
#    y 0.000000 1.861040 0.000000 
#    z 0.000000 0.000000 1.874590 
# 
# From -- ./inp_files/21107.got.cif
#   From: 2010.05.17/outbox.cif.g08.bks.cpg/sg91_11_cif.got.tgz:21107.got - 2010.06.03 19:20:03.
