data_PCOD9548994
_publ_section_title
;
Structure prediction by ZEFSAII (Michael W. Deem and Ramdas Pophale) SiO2 
 PCOD9548994
Probable space group: P 41 21 2
;
_chemical_formula_sum "Si O2"
_cell_formula_units_Z 40
_cell_length_a 8.690203
_cell_length_b 8.690203
_cell_length_c 21.118528
_cell_angle_alpha 90.000000
_cell_angle_beta 90.000000
_cell_angle_gamma 90.000000
_cell_volume 1594.863382
_symmetry_space_group_name_H-M "P 41 21 2"
_symmetry_group_IT_number 92
_symmetry_cell_setting 'tetragonal'
loop_
_space_group_symop_operation_xyz
x,y,z
1/2-y,1/2+x,1/4+z
-x,-y,1/2+z
1/2+y,1/2-x,3/4+z
1/2+x,1/2-y,3/4-z
1/2-x,1/2+y,1/4-z
y,x,-z
-y,-x,1/2-z
loop_
_atom_site_type_symbol
_atom_site_label
_atom_site_fract_x
_atom_site_fract_y
_atom_site_fract_z
Si Si1 0.344333 0.338604 0.307335
Si Si2 0.597804 0.146195 0.260419
Si Si3 0.097820 0.161205 0.246304
Si Si4 0.367718 0.479990 0.165628
Si Si5 0.646646 0.123540 0.898761
O O1 0.470201 0.202900 0.309618
O O2 0.365071 0.409395 0.236433
O O3 0.401207 0.490250 0.345210
O O4 0.182985 0.246005 0.306452
O O5 0.708670 0.291331 0.250000
O O6 0.704273 0.008789 0.281420
O O7 0.521070 0.107073 0.192464
O O8 0.985792 0.014209 0.250000
O O9 0.236120 0.125751 0.199027
O O10 0.391044 0.323097 0.126452
O O11 0.198095 0.549842 0.157075
#
# Coordination Sequence:
#
# PCOD9548994 Si02
#       5
#     8   8   8   8   8
#     4   9  17  36  57  75 111 148 183 211 281 349
#     4   9  15  33  56  71 101 155 179 206 279 338
#     4   9  19  33  55  78 109 144 180 224 275 324
#     4   9  18  34  55  81 107 143 181 231 271 320
#     4  10  20  34  56  84 109 136 193 235 263 325
#
# _framework density 25.080514999999998
#
# number of rings (size 3 to 8) (size 9 to 14) (size 15 to 20)
#    0.000    3.200    4.000    0.000    2.800    0.000 
#    0.000   10.000    4.400    0.000    0.000    0.000 
#    0.000    0.000    0.000    0.000    0.000    0.000 
#
# Total GULP energy -222937.609831 kJ/mol
# GULP energy per Si atom -5573.440246 kJ/mol
# Density = 2.502343 g / cm^3
# Si number density = 25.080515 Si / 1000 Ang^3
#
#
#
# Elastic Constant Matrix: (Units=GPa)
#
#
# Indices 1 2 3 4 5 6 
#
# 1 77.9125 102.4409 19.8584 0.0000 0.0000 0.0000
# 2 102.4409 77.9134 19.8572 0.0000 0.0000 0.0000
# 3 19.8584 19.8572 36.6257 0.0000 0.0000 0.0000
# 4 0.0000 0.0000 0.0000 27.2293 0.0000 0.0000
# 5 0.0000 0.0000 0.0000 0.0000 27.2292 0.0000
# 6 0.0000 0.0000 0.0000 0.0000 0.0000 62.1952
#
#
#
# Elastic Compliance Matrix: (Units=1/GPa)
#
#
# Indices 1 2 3 4 5 6 
#
# 1 -0.017237 0.023533 -0.003413 0.000000 0.000000 0.000000
# 2 0.023533 -0.017236 -0.003415 0.000000 0.000000 0.000000
# 3 -0.003413 -0.003415 0.031005 0.000000 0.000000 0.000000
# 4 0.000000 0.000000 0.000000 0.036725 0.000000 0.000000
# 5 0.000000 0.000000 0.000000 0.000000 0.036725 0.000000
# 6 0.000000 0.000000 0.000000 0.000000 0.000000 0.016078
#
#
# Mechanical properties :
#
#
# Convention : Reuss Voigt Hill
#
# Bulk Modulus (GPa) = 33.39719 52.97384 43.18552
# Shear Modulus (GPa) = 79.83366 26.68376 53.25871
#
# Velocity S-wave (km/s) = 5.64801 3.26532 4.61315
# Velocity P-wave (km/s) = 7.47518 5.94843 6.75508
#
# Compressibility (1/GPa) = 0.02994264
#
# Stress axis : x y z
#
# Youngs Moduli (GPa) = -58.01478 -58.01665 32.25287
#
# Poissons Ratio (x) = 1.36531 0.11008
# Poissons Ratio (y) = 1.36527 0.11013
# Poissons Ratio (z) = -0.19800 -0.19810
#
# Static dielectric constant tensor:
#      x y z
#    x 2.081780 0.000000 0.000000 
#    y 0.000000 2.081780 0.000000 
#    z 0.000000 0.000000 2.222920 
# 
# From -- ./inp_files/4328.got.cif
#   From: 2010.05.17/outbox.cif.g08.bks.cpg/sg92_3_cif.got.tgz:4328.got - 2010.06.03 19:35:17.
