data_PCOD9548302
_publ_section_title
;
Structure prediction by ZEFSAII (Michael W. Deem and Ramdas Pophale) SiO2 
 PCOD9548302
Probable space group: P 41 2 2
;
_chemical_formula_sum "Si O2"
_cell_formula_units_Z 60
_cell_length_a 11.929015
_cell_length_b 11.929015
_cell_length_c 19.726630
_cell_angle_alpha 90.000000
_cell_angle_beta 90.000000
_cell_angle_gamma 90.000000
_cell_volume 2807.127044
_symmetry_space_group_name_H-M "P 41 2 2"
_symmetry_group_IT_number 91
_symmetry_cell_setting 'tetragonal'
loop_
_space_group_symop_operation_xyz
x,y,z
-y,x,1/4+z
-x,-y,1/2+z
y,-x,3/4+z
x,-y,1/2-z
-x,y,-z
y,x,3/4-z
-y,-x,1/4-z
loop_
_atom_site_type_symbol
_atom_site_label
_atom_site_fract_x
_atom_site_fract_y
_atom_site_fract_z
Si Si1 0.265812 0.559861 0.147141
Si Si2 0.010630 0.260757 0.142421
Si Si3 0.787453 0.756192 0.266631
Si Si4 0.449966 0.348293 0.932452
Si Si5 0.509444 0.039835 0.672497
Si Si6 0.775206 0.000000 0.250000
Si Si7 0.829768 0.627271 0.130231
Si Si8 0.317066 0.762481 0.964017
O O1 0.381109 0.618892 0.125000
O O2 0.167065 0.549091 0.091186
O O3 0.270907 0.432200 0.174371
O O4 0.228482 0.641373 0.209017
O O5 0.898539 0.243252 0.186491
O O6 0.018096 0.385193 0.108385
O O7 0.119657 0.264334 0.189709
O O8 0.015545 0.177045 0.077230
O O9 0.700363 0.670462 0.298384
O O10 0.727956 0.875815 0.261005
O O11 0.818819 0.715803 0.191323
O O12 0.437948 0.437948 0.875000
O O13 0.523650 0.244031 0.907666
O O14 0.500000 0.398923 0.000000
O O15 0.510029 0.000000 0.750000
O O16 0.590366 0.955942 0.631823
O O17 0.773070 0.672023 0.061498
#
# Coordination Sequence:
#
# PCOD9548302 Si02
#       8
#     8   8   8   8   8   4   8   8
#     4  10  22  42  64  91 125 173 219 263 330 397
#     4  11  21  39  65  93 130 166 219 271 322 397
#     4  11  23  40  67  97 128 169 216 272 337 388
#     4  10  22  40  62  96 133 169 214 274 333 396
#     4  11  22  37  68  97 124 171 219 276 324 386
#     4  12  22  38  64  96 134 166 214 264 336 400
#     4  11  22  41  64  95 129 165 216 271 328 395
#     4  10  22  41  64  91 129 171 215 270 327 398
#
# _framework density 21.374167
#
# number of rings (size 3 to 8) (size 9 to 14) (size 15 to 20)
#    0.000    1.333    3.333    2.800    0.000    1.600 
#    9.600    0.000    7.333    0.000    0.000    0.000 
#    0.000    0.000    0.000    0.000    0.000    0.000 
#
# Total GULP energy -334713.990838 kJ/mol
# GULP energy per Si atom -5578.566514 kJ/mol
# Density = 2.132552 g / cm^3
# Si number density = 21.374167 Si / 1000 Ang^3
#
#
#
# Elastic Constant Matrix: (Units=GPa)
#
#
# Indices 1 2 3 4 5 6 
#
# 1 90.7069 28.7884 22.9149 0.0000 0.0000 0.0000
# 2 28.7884 90.7087 22.9151 0.0000 0.0000 0.0000
# 3 22.9149 22.9151 78.5811 0.0000 0.0000 0.0000
# 4 0.0000 0.0000 0.0000 26.5408 0.0000 0.0000
# 5 0.0000 0.0000 0.0000 0.0000 26.5400 0.0000
# 6 0.0000 0.0000 0.0000 0.0000 0.0000 19.8836
#
#
#
# Elastic Compliance Matrix: (Units=1/GPa)
#
#
# Indices 1 2 3 4 5 6 
#
# 1 0.012786 -0.003364 -0.002748 0.000000 0.000000 0.000000
# 2 -0.003364 0.012786 -0.002748 0.000000 0.000000 0.000000
# 3 -0.002748 -0.002748 0.014328 0.000000 0.000000 0.000000
# 4 0.000000 0.000000 0.000000 0.037678 0.000000 0.000000
# 5 0.000000 0.000000 0.000000 0.000000 0.037679 0.000000
# 6 0.000000 0.000000 0.000000 0.000000 0.000000 0.050293
#
#
# Mechanical properties :
#
#
# Convention : Reuss Voigt Hill
#
# Bulk Modulus (GPa) = 45.08120 45.47040 45.27580
# Shear Modulus (GPa) = 26.22439 26.95144 26.58792
#
# Velocity S-wave (km/s) = 3.50654 3.55482 3.53076
# Velocity P-wave (km/s) = 6.12631 6.17808 6.15225
#
# Compressibility (1/GPa) = 0.02218220
#
# Stress axis : x y z
#
# Youngs Moduli (GPa) = 78.20895 78.21044 69.79255
#
# Poissons Ratio (x) = 0.26309 0.19176
# Poissons Ratio (y) = 0.26309 0.19176
# Poissons Ratio (z) = 0.21489 0.21489
#
# Static dielectric constant tensor:
#      x y z
#    x 1.764930 0.000000 0.000000 
#    y 0.000000 1.764930 0.000000 
#    z 0.000000 0.000000 1.824790 
# 
# From -- ./inp_files/21572.got.cif
#   From: 2010.05.17/outbox.cif.g08.bks.cpg/sg91_11_cif.got.tgz:21572.got - 2010.06.03 19:20:03.
