data_PCOD9548629
_publ_section_title
;
Structure prediction by ZEFSAII (Michael W. Deem and Ramdas Pophale) SiO2 
 PCOD9548629
Probable space group: P 41 2 2
;
_chemical_formula_sum "Si O2"
_cell_formula_units_Z 40
_cell_length_a 11.687344
_cell_length_b 11.687344
_cell_length_c 13.998844
_cell_angle_alpha 90.000000
_cell_angle_beta 90.000000
_cell_angle_gamma 90.000000
_cell_volume 1912.158234
_symmetry_space_group_name_H-M "P 41 2 2"
_symmetry_group_IT_number 91
_symmetry_cell_setting 'tetragonal'
loop_
_space_group_symop_operation_xyz
x,y,z
-y,x,1/4+z
-x,-y,1/2+z
y,-x,3/4+z
x,-y,1/2-z
-x,y,-z
y,x,3/4-z
-y,-x,1/4-z
loop_
_atom_site_type_symbol
_atom_site_label
_atom_site_fract_x
_atom_site_fract_y
_atom_site_fract_z
Si Si1 0.072869 0.749905 0.094999
Si Si2 0.761534 0.376293 0.200692
Si Si3 0.710025 0.406447 0.541820
Si Si4 0.371808 0.016633 0.534929
Si Si5 0.342177 0.252526 0.639571
O O1 0.132989 0.867012 0.125000
O O2 0.174550 0.661017 0.069650
O O3 0.010478 0.701087 0.187944
O O4 0.000000 0.761848 0.000000
O O5 0.737945 0.500000 0.250000
O O6 0.668153 0.331847 0.125000
O O7 0.755214 0.284986 0.286197
O O8 0.892797 0.376438 0.164122
O O9 0.620262 0.379739 0.625000
O O10 0.665112 0.347243 0.445127
O O11 0.736022 0.539885 0.551128
O O12 0.500000 0.043440 0.500000
O O13 0.332295 0.126276 0.595374
#
# Coordination Sequence:
#
# PCOD9548629 Si02
#       5
#     8   8   8   8   8
#     4  11  22  39  66  98 134 178 228 289 337 404
#     4  11  27  47  67  99 137 181 226 283 349 409
#     4  11  21  37  66 101 136 172 224 279 344 407
#     4  11  22  43  68  98 133 175 235 277 328 415
#     4  12  22  42  68 102 136 180 228 283 346 411
#
# _framework density 20.918771
#
# number of rings (size 3 to 8) (size 9 to 14) (size 15 to 20)
#    0.000    0.800    6.000    3.000    0.000    4.800 
#    0.000    2.000    0.000    0.000    0.000    0.000 
#    0.000    0.000    0.000    0.000    0.000    0.000 
#
# Total GULP energy -223411.763998 kJ/mol
# GULP energy per Si atom -5585.294100 kJ/mol
# Density = 2.087116 g / cm^3
# Si number density = 20.918771 Si / 1000 Ang^3
#
#
#
# Elastic Constant Matrix: (Units=GPa)
#
#
# Indices 1 2 3 4 5 6 
#
# 1 96.0007 57.4933 46.3574 0.0000 0.0000 0.0000
# 2 57.4933 95.9954 46.3545 0.0000 0.0000 0.0000
# 3 46.3574 46.3545 93.2164 0.0000 0.0000 0.0000
# 4 0.0000 0.0000 0.0000 31.9042 0.0000 0.0000
# 5 0.0000 0.0000 0.0000 0.0000 31.9052 0.0000
# 6 0.0000 0.0000 0.0000 0.0000 0.0000 -3.5091
#
#
#
# Elastic Compliance Matrix: (Units=1/GPa)
#
#
# Indices 1 2 3 4 5 6 
#
# 1 0.017641 -0.008329 -0.004631 0.000000 0.000000 0.000000
# 2 -0.008329 0.017642 -0.004631 0.000000 0.000000 0.000000
# 3 -0.004631 -0.004631 0.015334 0.000000 0.000000 0.000000
# 4 0.000000 0.000000 0.000000 0.031344 0.000000 0.000000
# 5 0.000000 0.000000 0.000000 0.000000 0.031343 0.000000
# 6 0.000000 0.000000 0.000000 0.000000 0.000000 -0.284973
#
#
# Mechanical properties :
#
#
# Convention : Reuss Voigt Hill
#
# Bulk Modulus (GPa) = 64.79055 65.06921 64.92988
# Shear Modulus (GPa) = -38.06837 21.06055 -8.50391
#
# Velocity S-wave (km/s) = -4.27056 3.17642 -2.01842
# Velocity P-wave (km/s) = 2.59283 6.68027 5.06699
#
# Compressibility (1/GPa) = 0.01543435
#
# Stress axis : x y z
#
# Youngs Moduli (GPa) = 56.68547 56.68360 65.21648
#
# Poissons Ratio (x) = 0.47214 0.30203
# Poissons Ratio (y) = 0.47215 0.30199
# Poissons Ratio (z) = 0.26252 0.26248
#
# Static dielectric constant tensor:
#      x y z
#    x 1.760710 0.000000 0.000000 
#    y 0.000000 1.760710 0.000000 
#    z 0.000000 0.000000 1.757810 
# 
# From -- ./inp_files/4698.got.cif
#   From: 2010.05.17/outbox.cif.g08.bks.cpg/sg91_3_cif.got.tgz:4698.got - 2010.06.03 19:20:03.
