data_PCOD9548119
_publ_section_title
;
Structure prediction by ZEFSAII (Michael W. Deem and Ramdas Pophale) SiO2 
 PCOD9548119
Probable space group: P 41 2 2
;
_chemical_formula_sum "Si O2"
_cell_formula_units_Z 44
_cell_length_a 14.136889
_cell_length_b 14.136889
_cell_length_c 11.912313
_cell_angle_alpha 90.000000
_cell_angle_beta 90.000000
_cell_angle_gamma 90.000000
_cell_volume 2380.695177
_symmetry_space_group_name_H-M "P 41 2 2"
_symmetry_group_IT_number 91
_symmetry_cell_setting 'tetragonal'
loop_
_space_group_symop_operation_xyz
x,y,z
-y,x,1/4+z
-x,-y,1/2+z
y,-x,3/4+z
x,-y,1/2-z
-x,y,-z
y,x,3/4-z
-y,-x,1/4-z
loop_
_atom_site_type_symbol
_atom_site_label
_atom_site_fract_x
_atom_site_fract_y
_atom_site_fract_z
Si Si1 0.259484 0.739080 0.864665
Si Si2 0.600537 0.719788 0.322110
Si Si3 0.151522 0.500000 0.750000
Si Si4 0.709649 0.411075 0.547879
Si Si5 0.945481 0.337393 0.380832
Si Si6 0.614863 0.869675 0.977375
O O1 0.302137 0.744687 0.740664
O O2 0.144682 0.733473 0.872712
O O3 0.290537 0.642769 0.929296
O O4 0.320030 0.817153 0.931732
O O5 0.616988 0.616988 0.375000
O O6 0.569596 0.787513 0.422643
O O7 0.520626 0.715951 0.227920
O O8 0.095807 0.560598 0.843108
O O9 0.623206 0.376795 0.625000
O O10 0.802949 0.380546 0.616931
O O11 0.000000 0.336021 0.500000
O O12 0.031433 0.332520 0.293101
O O13 0.500000 0.879024 0.000000
#
# Coordination Sequence:
#
# PCOD9548119 Si02
#       6
#     8   8   4   8   8   8
#     4  11  23  39  61  93 129 166 210 277 325 380
#     4  12  21  38  59  83 131 171 207 259 325 387
#     4  12  24  38  60  94 122 170 210 274 330 380
#     4  10  21  38  58  85 126 167 217 262 306 382
#     4  12  23  39  63  94 127 160 218 269 327 389
#     4  11  21  38  67  94 126 164 216 265 327 387
#
# _framework density 18.481997
#
# number of rings (size 3 to 8) (size 9 to 14) (size 15 to 20)
#    0.000    0.727    8.182    0.000    0.000    0.000 
#    0.000    7.273    0.000    0.000    0.000   10.182 
#    0.000    0.000    0.000    0.000    0.000    0.000 
#
# Total GULP energy -244948.794757 kJ/mol
# GULP energy per Si atom -5567.018063 kJ/mol
# Density = 1.843993 g / cm^3
# Si number density = 18.481997 Si / 1000 Ang^3
#
#
#
# Elastic Constant Matrix: (Units=GPa)
#
#
# Indices 1 2 3 4 5 6 
#
# 1 74.5449 75.0382 46.5453 0.0000 0.0000 0.0000
# 2 75.0382 74.5422 46.5465 0.0000 0.0000 0.0000
# 3 46.5453 46.5465 104.0613 0.0000 0.0000 0.0000
# 4 0.0000 0.0000 0.0000 23.8557 0.0000 0.0000
# 5 0.0000 0.0000 0.0000 0.0000 23.8552 0.0000
# 6 0.0000 0.0000 0.0000 0.0000 0.0000 12.2232
#
#
#
# Elastic Compliance Matrix: (Units=1/GPa)
#
#
# Indices 1 2 3 4 5 6 
#
# 1 -1.006120 1.015420 -0.004171 0.000000 0.000000 0.000000
# 2 1.015420 -1.006191 -0.004116 0.000000 0.000000 0.000000
# 3 -0.004171 -0.004116 0.013317 0.000000 0.000000 0.000000
# 4 0.000000 0.000000 0.000000 0.041919 0.000000 0.000000
# 5 0.000000 0.000000 0.000000 0.000000 0.041920 0.000000
# 6 0.000000 0.000000 0.000000 0.000000 0.000000 0.081812
#
#
# Mechanical properties :
#
#
# Convention : Reuss Voigt Hill
#
# Bulk Modulus (GPa) = 65.48846 65.48982 65.48914
# Shear Modulus (GPa) = -1.30123 17.65470 8.17674
#
# Velocity S-wave (km/s) = -0.83999 3.09405 2.10565
# Velocity P-wave (km/s) = 5.87961 6.94805 6.43604
#
# Compressibility (1/GPa) = 0.01526987
#
# Stress axis : x y z
#
# Youngs Moduli (GPa) = -0.99392 -0.99385 75.09355
#
# Poissons Ratio (x) = 1.00917 0.31324
# Poissons Ratio (y) = 1.00924 0.30911
# Poissons Ratio (z) = -0.00415 -0.00409
#
# Static dielectric constant tensor:
#      x y z
#    x 1.693620 0.000000 0.000000 
#    y 0.000000 1.693620 0.000000 
#    z 0.000000 0.000000 1.694950 
# 
# From -- ./inp_files/15775.got.cif
#   From: 2010.05.17/outbox.cif.g08.bks.cpg/sg91_8_cif.got.tgz:15775.got - 2010.06.03 19:20:03.
