data_PCOD9548694
_publ_section_title
;
Structure prediction by ZEFSAII (Michael W. Deem and Ramdas Pophale) SiO2 
 PCOD9548694
Probable space group: P 41 2 2
;
_chemical_formula_sum "Si O2"
_cell_formula_units_Z 36
_cell_length_a 9.705256
_cell_length_b 9.705256
_cell_length_c 17.205361
_cell_angle_alpha 90.000000
_cell_angle_beta 90.000000
_cell_angle_gamma 90.000000
_cell_volume 1620.607261
_symmetry_space_group_name_H-M "P 41 2 2"
_symmetry_group_IT_number 91
_symmetry_cell_setting 'tetragonal'
loop_
_space_group_symop_operation_xyz
x,y,z
-y,x,1/4+z
-x,-y,1/2+z
y,-x,3/4+z
x,-y,1/2-z
-x,y,-z
y,x,3/4-z
-y,-x,1/4-z
loop_
_atom_site_type_symbol
_atom_site_label
_atom_site_fract_x
_atom_site_fract_y
_atom_site_fract_z
Si Si1 0.373013 0.626988 0.125000
Si Si2 0.373669 0.067805 0.332903
Si Si3 0.500000 0.505447 0.000000
Si Si4 0.962881 0.500000 0.250000
Si Si5 0.294225 0.719621 0.534774
Si Si6 0.000000 0.820561 0.500000
Si Si7 0.945921 0.054080 0.625000
O O1 0.233045 0.624974 0.077149
O O2 0.505334 0.609351 0.071019
O O3 0.454907 0.033021 0.415675
O O4 0.210026 0.036875 0.343420
O O5 0.418148 0.000000 0.250000
O O6 0.626204 0.401159 0.991013
O O7 0.863902 0.629984 0.267819
O O8 0.313058 0.686943 0.625000
O O9 0.134289 0.731569 0.516982
O O10 0.964131 0.926019 0.568053
#
# Coordination Sequence:
#
# PCOD9548694 Si02
#       7
#     4   8   4   4   8   4   4
#     4  11  26  45  74  96 148 201 248 315 388 452
#     4  11  25  44  75 110 148 201 257 316 389 471
#     4  11  25  50  66 104 147 195 254 310 368 480
#     4  11  25  46  66 108 153 187 250 318 376 468
#     4  11  25  42  72 102 143 193 248 312 388 451
#     4  12  22  44  72 110 144 196 248 326 392 456
#     4  11  22  43  70 108 152 187 252 321 392 460
#
# _framework density 22.213896999999999
#
# number of rings (size 3 to 8) (size 9 to 14) (size 15 to 20)
#    0.000    0.889    5.556    0.667    3.111    1.778 
#    0.000    0.000    0.000    0.000    0.000    0.000 
#    0.000    0.000    0.000    0.000    0.000    0.000 
#
# Total GULP energy -200644.332462 kJ/mol
# GULP energy per Si atom -5573.453680 kJ/mol
# Density = 2.216334 g / cm^3
# Si number density = 22.213897 Si / 1000 Ang^3
#
#
#
# Elastic Constant Matrix: (Units=GPa)
#
#
# Indices 1 2 3 4 5 6 
#
# 1 109.5086 45.7216 25.9075 0.0000 0.0000 0.0000
# 2 45.7216 109.5091 25.9077 0.0000 0.0000 0.0000
# 3 25.9075 25.9077 123.5692 0.0000 0.0000 0.0000
# 4 0.0000 0.0000 0.0000 30.7127 0.0000 0.0000
# 5 0.0000 0.0000 0.0000 0.0000 30.7129 0.0000
# 6 0.0000 0.0000 0.0000 0.0000 0.0000 33.1568
#
#
#
# Elastic Compliance Matrix: (Units=1/GPa)
#
#
# Indices 1 2 3 4 5 6 
#
# 1 0.011302 -0.004375 -0.001452 0.000000 0.000000 0.000000
# 2 -0.004375 0.011302 -0.001452 0.000000 0.000000 0.000000
# 3 -0.001452 -0.001452 0.008702 0.000000 0.000000 0.000000
# 4 0.000000 0.000000 0.000000 0.032560 0.000000 0.000000
# 5 0.000000 0.000000 0.000000 0.000000 0.032560 0.000000
# 6 0.000000 0.000000 0.000000 0.000000 0.000000 0.030160
#
#
# Mechanical properties :
#
#
# Convention : Reuss Voigt Hill
#
# Bulk Modulus (GPa) = 59.71544 59.74007 59.72776
# Shear Modulus (GPa) = 34.07710 35.25316 34.66513
#
# Velocity S-wave (km/s) = 3.92094 3.98802 3.95462
# Velocity P-wave (km/s) = 6.88758 6.93954 6.91361
#
# Compressibility (1/GPa) = 0.01674609
#
# Stress axis : x y z
#
# Youngs Moduli (GPa) = 88.48002 88.48044 114.92137
#
# Poissons Ratio (x) = 0.38712 0.16690
# Poissons Ratio (y) = 0.38711 0.16690
# Poissons Ratio (z) = 0.12850 0.12850
#
# Static dielectric constant tensor:
#      x y z
#    x 1.805110 0.000000 0.000000 
#    y 0.000000 1.805110 0.000000 
#    z 0.000000 0.000000 2.579930 
# 
# From -- ./inp_files/6222.got.cif
#   From: 2010.05.17/outbox.cif.g08.bks.cpg/sg91_4_cif.got.tgz:6222.got - 2010.06.03 19:20:03.
