data_PCOD9548618
_publ_section_title
;
Structure prediction by ZEFSAII (Michael W. Deem and Ramdas Pophale) SiO2 
 PCOD9548618
Probable space group: P 41 2 2
;
_chemical_formula_sum "Si O2"
_cell_formula_units_Z 40
_cell_length_a 19.382719
_cell_length_b 19.382719
_cell_length_c 5.105257
_cell_angle_alpha 90.000000
_cell_angle_beta 90.000000
_cell_angle_gamma 90.000000
_cell_volume 1917.992960
_symmetry_space_group_name_H-M "P 41 2 2"
_symmetry_group_IT_number 91
_symmetry_cell_setting 'tetragonal'
loop_
_space_group_symop_operation_xyz
x,y,z
-y,x,1/4+z
-x,-y,1/2+z
y,-x,3/4+z
x,-y,1/2-z
-x,y,-z
y,x,3/4-z
-y,-x,1/4-z
loop_
_atom_site_type_symbol
_atom_site_label
_atom_site_fract_x
_atom_site_fract_y
_atom_site_fract_z
Si Si1 0.075219 0.858419 0.887783
Si Si2 0.067860 0.705451 0.674969
Si Si3 0.778877 0.664673 0.398900
Si Si4 0.213412 0.425980 0.365675
Si Si5 0.442477 0.925633 0.312380
O O1 0.101062 0.898939 0.625000
O O2 0.072060 0.776721 0.833917
O O3 0.126931 0.873070 0.125000
O O4 0.000000 0.880535 0.000000
O O5 0.144062 0.694452 0.558198
O O6 0.059234 0.632266 0.818771
O O7 0.000000 0.713411 0.500000
O O8 0.728380 0.728380 0.375000
O O9 0.756626 0.626848 0.660910
O O10 0.777382 0.609015 0.155516
O O11 0.237446 0.500000 0.250000
O O12 0.129705 0.429066 0.337530
O O13 0.500000 0.891316 0.500000
O O14 0.472821 0.000000 0.250000
#
# Coordination Sequence:
#
# PCOD9548618 Si02
#       5
#     8   8   8   8   8
#     4  12  27  47  69  91 116 151 201 263 331 393
#     4  11  23  41  64  91 126 167 211 259 311 368
#     4  11  24  40  64  94 128 167 212 259 308 368
#     4  11  22  40  61  89 127 168 208 254 307 365
#     4  11  21  34  58  89 126 167 213 253 296 356
#
# _framework density 20.855131
#
# number of rings (size 3 to 8) (size 9 to 14) (size 15 to 20)
#    0.000    0.800    0.000    9.000    0.000    8.800 
#    0.000    1.000    0.000    0.000    0.000    0.000 
#    0.000   22.400    0.000    0.000    0.000    0.000 
#
# Total GULP energy -223101.200962 kJ/mol
# GULP energy per Si atom -5577.530024 kJ/mol
# Density = 2.080766 g / cm^3
# Si number density = 20.855131 Si / 1000 Ang^3
#
#
#
# Elastic Constant Matrix: (Units=GPa)
#
#
# Indices 1 2 3 4 5 6 
#
# 1 98.7807 51.3811 39.7044 0.0000 0.0000 0.0000
# 2 51.3811 98.7816 39.7032 0.0000 0.0000 0.0000
# 3 39.7044 39.7032 99.2982 0.0000 0.0000 0.0000
# 4 0.0000 0.0000 0.0000 35.6014 0.0000 0.0000
# 5 0.0000 0.0000 0.0000 0.0000 35.6014 0.0000
# 6 0.0000 0.0000 0.0000 0.0000 0.0000 4.6576
#
#
#
# Elastic Compliance Matrix: (Units=1/GPa)
#
#
# Indices 1 2 3 4 5 6 
#
# 1 0.014771 -0.006326 -0.003377 0.000000 0.000000 0.000000
# 2 -0.006326 0.014771 -0.003377 0.000000 0.000000 0.000000
# 3 -0.003377 -0.003377 0.012771 0.000000 0.000000 0.000000
# 4 0.000000 0.000000 0.000000 0.028089 0.000000 0.000000
# 5 0.000000 0.000000 0.000000 0.000000 0.028089 0.000000
# 6 0.000000 0.000000 0.000000 0.000000 0.000000 0.214704
#
#
# Mechanical properties :
#
#
# Convention : Reuss Voigt Hill
#
# Bulk Modulus (GPa) = 61.90293 62.04865 61.97579
# Shear Modulus (GPa) = 14.50375 26.24353 20.37364
#
# Velocity S-wave (km/s) = 2.64000 3.55120 3.12895
# Velocity P-wave (km/s) = 6.24817 6.82873 6.54489
#
# Compressibility (1/GPa) = 0.01615432
#
# Stress axis : x y z
#
# Youngs Moduli (GPa) = 67.69913 67.70061 78.30231
#
# Poissons Ratio (x) = 0.42827 0.26442
# Poissons Ratio (y) = 0.42826 0.26439
# Poissons Ratio (z) = 0.22861 0.22859
#
# Static dielectric constant tensor:
#      x y z
#    x 1.836790 0.000000 0.000000 
#    y 0.000000 1.836790 0.000000 
#    z 0.000000 0.000000 1.876830 
# 
# From -- ./inp_files/18566.got.cif
#   From: 2010.05.17/outbox.cif.g08.bks.cpg/sg91_10_cif.got.tgz:18566.got - 2010.06.03 19:20:03.
