data_PCOD9548141
_publ_section_title
;
Structure prediction by ZEFSAII (Michael W. Deem and Ramdas Pophale) SiO2 
 PCOD9548141
Probable space group: P 41 2 2
;
_chemical_formula_sum "Si O2"
_cell_formula_units_Z 16
_cell_length_a 9.134509
_cell_length_b 9.134509
_cell_length_c 7.255349
_cell_angle_alpha 90.000000
_cell_angle_beta 90.000000
_cell_angle_gamma 90.000000
_cell_volume 605.380913
_symmetry_space_group_name_H-M "P 41 2 2"
_symmetry_group_IT_number 91
_symmetry_cell_setting 'tetragonal'
loop_
_space_group_symop_operation_xyz
x,y,z
-y,x,1/4+z
-x,-y,1/2+z
y,-x,3/4+z
x,-y,1/2-z
-x,y,-z
y,x,3/4-z
-y,-x,1/4-z
loop_
_atom_site_type_symbol
_atom_site_label
_atom_site_fract_x
_atom_site_fract_y
_atom_site_fract_z
Si Si1 0.158685 0.326851 0.721753
Si Si2 0.658981 0.137837 0.583510
O O1 0.172220 0.500000 0.750000
O O2 0.229766 0.275561 0.520405
O O3 0.997984 0.264147 0.771572
O O4 0.263992 0.263992 0.875000
O O5 0.500000 0.176182 0.500000
O O6 0.614172 0.000000 0.750000
#
# Coordination Sequence:
#
# PCOD9548141 Si02
#       2
#     8   8
#     4  10  21  39  64  92 129 176 227 285 347 415
#     4  10  21  39  63  93 130 174 225 285 349 415
#
# _framework density 26.429639999999999
#
# number of rings (size 3 to 8) (size 9 to 14) (size 15 to 20)
#    0.000    2.000    0.000    3.000    0.000    6.000 
#    0.000   20.000    0.000    0.000    0.000    0.000 
#    0.000    0.000    0.000    0.000    0.000    0.000 
#
# Total GULP energy -89097.458287 kJ/mol
# GULP energy per Si atom -5568.591143 kJ/mol
# Density = 2.636948 g / cm^3
# Si number density = 26.429640 Si / 1000 Ang^3
#
#
#
# Elastic Constant Matrix: (Units=GPa)
#
#
# Indices 1 2 3 4 5 6 
#
# 1 221.5377 153.0739 99.9031 0.0000 0.0000 0.0000
# 2 153.0739 221.5377 99.9031 0.0000 0.0000 0.0000
# 3 99.9031 99.9031 238.0999 0.0000 0.0000 0.0000
# 4 0.0000 0.0000 0.0000 117.6017 0.0000 0.0000
# 5 0.0000 0.0000 0.0000 0.0000 117.6017 0.0000
# 6 0.0000 0.0000 0.0000 0.0000 0.0000 63.0020
#
#
#
# Elastic Compliance Matrix: (Units=1/GPa)
#
#
# Indices 1 2 3 4 5 6 
#
# 1 0.009023 -0.005584 -0.001443 0.000000 0.000000 0.000000
# 2 -0.005584 0.009023 -0.001443 0.000000 0.000000 0.000000
# 3 -0.001443 -0.001443 0.005411 0.000000 0.000000 0.000000
# 4 0.000000 0.000000 0.000000 0.008503 0.000000 0.000000
# 5 0.000000 0.000000 0.000000 0.000000 0.008503 0.000000
# 6 0.000000 0.000000 0.000000 0.000000 0.000000 0.015873
#
#
# Mechanical properties :
#
#
# Convention : Reuss Voigt Hill
#
# Bulk Modulus (GPa) = 153.44387 154.10394 153.77391
# Shear Modulus (GPa) = 66.27196 81.52742 73.89969
#
# Velocity S-wave (km/s) = 5.01291 5.56003 5.29354
# Velocity P-wave (km/s) = 9.57545 9.98260 9.78115
#
# Compressibility (1/GPa) = 0.00651704
#
# Stress axis : x y z
#
# Youngs Moduli (GPa) = 110.83199 110.83199 184.81471
#
# Poissons Ratio (x) = 0.61884 0.26668
# Poissons Ratio (y) = 0.61884 0.26668
# Poissons Ratio (z) = 0.15993 0.15993
#
# Static dielectric constant tensor:
#      x y z
#    x -70.486290 0.000000 0.000000 
#    y 0.000000 -70.486290 0.000000 
#    z 0.000000 0.000000 0.015080 
# 
# From -- ./inp_files/1616.got.cif
#   From: 2010.05.17/outbox.cif.g08.bks.cpg/sg91_1_cif.got.tgz:1616.got - 2010.06.03 19:20:03.
