data_PCOD9548729
_publ_section_title
;
Structure prediction by ZEFSAII (Michael W. Deem and Ramdas Pophale) SiO2 
 PCOD9548729
Probable space group: P 41 2 2
;
_chemical_formula_sum "Si O2"
_cell_formula_units_Z 60
_cell_length_a 11.679483
_cell_length_b 11.679483
_cell_length_c 20.412909
_cell_angle_alpha 90.000000
_cell_angle_beta 90.000000
_cell_angle_gamma 90.000000
_cell_volume 2784.531513
_symmetry_space_group_name_H-M "P 41 2 2"
_symmetry_group_IT_number 91
_symmetry_cell_setting 'tetragonal'
loop_
_space_group_symop_operation_xyz
x,y,z
-y,x,1/4+z
-x,-y,1/2+z
y,-x,3/4+z
x,-y,1/2-z
-x,y,-z
y,x,3/4-z
-y,-x,1/4-z
loop_
_atom_site_type_symbol
_atom_site_label
_atom_site_fract_x
_atom_site_fract_y
_atom_site_fract_z
Si Si1 0.042552 0.780165 0.864862
Si Si2 0.787043 0.655954 0.041962
Si Si3 0.820786 0.351221 0.606202
Si Si4 0.403745 0.928068 0.557039
Si Si5 0.888491 0.566345 0.459249
Si Si6 0.185859 0.575664 0.313958
Si Si7 0.965989 0.965989 0.375000
Si Si8 0.173579 0.829710 0.730177
O O1 0.117083 0.692605 0.906591
O O2 0.106358 0.812758 0.797844
O O3 0.920031 0.719310 0.856142
O O4 0.040857 0.903484 0.899658
O O5 0.781833 0.519272 0.034911
O O6 0.673065 0.718994 0.065555
O O7 0.830526 0.686034 0.969280
O O8 0.696789 0.303212 0.625000
O O9 0.824666 0.484549 0.626544
O O10 0.500000 0.909478 0.500000
O O11 0.439628 0.916178 0.632277
O O12 0.295672 0.844998 0.550770
O O13 0.367670 0.061450 0.552319
O O14 0.860148 0.693226 0.484336
O O15 0.000000 0.525579 0.500000
O O16 0.209667 0.500000 0.250000
O O17 0.925233 0.884398 0.434013
#
# Coordination Sequence:
#
# PCOD9548729 Si02
#       8
#     8   8   8   8   8   8   4   8
#     4  12  26  42  71 110 144 194 235 303 380 450
#     4  12  27  44  73 104 139 194 253 296 361 444
#     4  12  25  46  69 107 150 182 240 312 370 437
#     4  11  23  45  73 101 143 190 246 297 364 450
#     4  12  25  47  70 102 149 193 237 308 375 440
#     4  11  23  44  72 101 139 190 237 300 372 432
#     4  12  24  42  68 102 154 180 236 302 376 452
#     4  12  26  44  69 109 148 193 244 295 377 449
#
# _framework density 21.547611
#
# number of rings (size 3 to 8) (size 9 to 14) (size 15 to 20)
#    0.000    0.267    3.333    7.200    5.600    1.067 
#    0.000    2.000    0.000    0.000    0.000    0.000 
#    0.000    0.000    0.000    0.000    0.000    0.000 
#
# Total GULP energy -335245.449545 kJ/mol
# GULP energy per Si atom -5587.424159 kJ/mol
# Density = 2.149857 g / cm^3
# Si number density = 21.547611 Si / 1000 Ang^3
#
#
#
# Elastic Constant Matrix: (Units=GPa)
#
#
# Indices 1 2 3 4 5 6 
#
# 1 72.2893 74.2135 2.1061 0.0000 0.0000 0.0000
# 2 74.2135 72.2899 2.1079 0.0000 0.0000 0.0000
# 3 2.1061 2.1079 87.8166 0.0000 0.0000 0.0000
# 4 0.0000 0.0000 0.0000 23.4301 0.0000 0.0000
# 5 0.0000 0.0000 0.0000 0.0000 23.4299 0.0000
# 6 0.0000 0.0000 0.0000 0.0000 0.0000 37.5900
#
#
#
# Elastic Compliance Matrix: (Units=1/GPa)
#
#
# Indices 1 2 3 4 5 6 
#
# 1 -0.256478 0.263308 -0.000169 0.000000 0.000000 0.000000
# 2 0.263308 -0.256476 -0.000159 0.000000 0.000000 0.000000
# 3 -0.000169 -0.000159 0.011395 0.000000 0.000000 0.000000
# 4 0.000000 0.000000 0.000000 0.042680 0.000000 0.000000
# 5 0.000000 0.000000 0.000000 0.000000 0.042680 0.000000
# 6 0.000000 0.000000 0.000000 0.000000 0.000000 0.026603
#
#
# Mechanical properties :
#
#
# Convention : Reuss Voigt Hill
#
# Bulk Modulus (GPa) = 40.98242 43.25009 42.11626
# Shear Modulus (GPa) = -5.51011 27.15455 10.82222
#
# Velocity S-wave (km/s) = -1.60085 3.55380 2.24352
# Velocity P-wave (km/s) = 3.95522 6.07904 5.12828
#
# Compressibility (1/GPa) = 0.02440070
#
# Stress axis : x y z
#
# Youngs Moduli (GPa) = -3.89897 -3.89899 87.75599
#
# Poissons Ratio (x) = 1.02664 0.01484
# Poissons Ratio (y) = 1.02663 0.01392
# Poissons Ratio (z) = -0.00066 -0.00062
#
# Static dielectric constant tensor:
#      x y z
#    x 1.801650 0.000000 0.000000 
#    y 0.000000 1.801660 0.000000 
#    z 0.000000 0.000000 1.867370 
# 
# From -- ./inp_files/21577.got.cif
#   From: 2010.05.17/outbox.cif.g08.bks.cpg/sg91_11_cif.got.tgz:21577.got - 2010.06.03 19:20:03.
