data_PCOD9548013
_publ_section_title
;
Structure prediction by ZEFSAII (Michael W. Deem and Ramdas Pophale) SiO2 
 PCOD9548013
Probable space group: P 41 2 2
;
_chemical_formula_sum "Si O2"
_cell_formula_units_Z 48
_cell_length_a 9.033436
_cell_length_b 9.033436
_cell_length_c 31.412012
_cell_angle_alpha 90.000000
_cell_angle_beta 90.000000
_cell_angle_gamma 90.000000
_cell_volume 2563.313346
_symmetry_space_group_name_H-M "P 41 2 2"
_symmetry_group_IT_number 91
_symmetry_cell_setting 'tetragonal'
loop_
_space_group_symop_operation_xyz
x,y,z
-y,x,1/4+z
-x,-y,1/2+z
y,-x,3/4+z
x,-y,1/2-z
-x,y,-z
y,x,3/4-z
-y,-x,1/4-z
loop_
_atom_site_type_symbol
_atom_site_label
_atom_site_fract_x
_atom_site_fract_y
_atom_site_fract_z
Si Si1 0.645014 0.822399 0.337179
Si Si2 0.079545 0.059856 0.954563
Si Si3 0.069183 0.431507 0.373635
Si Si4 0.404593 0.595408 0.125000
Si Si5 0.600010 0.554197 0.040813
Si Si6 0.386119 0.106477 0.537316
Si Si7 0.083398 0.083398 0.375000
O O1 0.722098 0.722098 0.375000
O O2 0.776717 0.911930 0.315117
O O3 0.567843 0.720813 0.301727
O O4 0.519081 0.936787 0.353363
O O5 0.244294 0.996894 0.960943
O O6 0.000740 0.965316 0.917667
O O7 0.000000 0.054642 0.000000
O O8 0.237074 0.431322 0.391860
O O9 0.086813 0.518749 0.329703
O O10 0.044819 0.256435 0.368182
O O11 0.507289 0.565547 0.084629
O O12 0.660374 0.720832 0.032923
O O13 0.500000 0.516715 0.000000
O O14 0.500000 0.070791 0.500000
#
# Coordination Sequence:
#
# PCOD9548013 Si02
#       7
#     8   8   8   4   8   8   4
#     4  12  23  42  60  92 133 172 213 273 332 395
#     4  12  25  42  62  94 133 174 219 267 334 404
#     4  10  21  39  67  90 123 166 212 266 334 385
#     4   9  20  39  64  92 120 161 212 271 320 384
#     4  10  22  40  64  92 124 167 218 265 327 391
#     4  10  20  40  64  94 128 166 217 273 323 397
#     4  11  22  43  66  96 122 169 222 271 328 398
#
# _framework density 18.725764999999999
#
# number of rings (size 3 to 8) (size 9 to 14) (size 15 to 20)
#    0.000    1.333    3.333    2.000    0.000    4.667 
#    3.000    1.667    0.000    0.000    0.000    0.000 
#    0.000    0.000    0.000    0.000    0.000    0.000 
#
# Total GULP energy -267782.507030 kJ/mol
# GULP energy per Si atom -5578.802230 kJ/mol
# Density = 1.868314 g / cm^3
# Si number density = 18.725765 Si / 1000 Ang^3
#
#
#
# Elastic Constant Matrix: (Units=GPa)
#
#
# Indices 1 2 3 4 5 6 
#
# 1 82.8815 52.9151 22.9990 0.0000 0.0000 0.0000
# 2 52.9151 82.8817 22.9989 0.0000 0.0000 0.0000
# 3 22.9990 22.9989 66.0359 0.0000 0.0000 0.0000
# 4 0.0000 0.0000 0.0000 28.5062 0.0000 0.0000
# 5 0.0000 0.0000 0.0000 0.0000 28.5061 0.0000
# 6 0.0000 0.0000 0.0000 0.0000 0.0000 33.9973
#
#
#
# Elastic Compliance Matrix: (Units=1/GPa)
#
#
# Indices 1 2 3 4 5 6 
#
# 1 0.020860 -0.012511 -0.002908 0.000000 0.000000 0.000000
# 2 -0.012511 0.020860 -0.002908 0.000000 0.000000 0.000000
# 3 -0.002908 -0.002908 0.017169 0.000000 0.000000 0.000000
# 4 0.000000 0.000000 0.000000 0.035080 0.000000 0.000000
# 5 0.000000 0.000000 0.000000 0.000000 0.035080 0.000000
# 6 0.000000 0.000000 0.000000 0.000000 0.000000 0.029414
#
#
# Mechanical properties :
#
#
# Convention : Reuss Voigt Hill
#
# Bulk Modulus (GPa) = 44.97318 47.73612 46.35465
# Shear Modulus (GPa) = 24.68807 27.06099 25.87453
#
# Velocity S-wave (km/s) = 3.63492 3.80560 3.72124
# Velocity P-wave (km/s) = 6.45645 6.69759 6.57812
#
# Compressibility (1/GPa) = 0.02223548
#
# Stress axis : x y z
#
# Youngs Moduli (GPa) = 47.93922 47.93940 58.24560
#
# Poissons Ratio (x) = 0.59976 0.16936
# Poissons Ratio (y) = 0.59976 0.16936
# Poissons Ratio (z) = 0.13940 0.13939
#
# Static dielectric constant tensor:
#      x y z
#    x 1.637720 0.000000 0.000000 
#    y 0.000000 1.637710 0.000000 
#    z 0.000000 0.000000 1.627970 
# 
# From -- ./inp_files/18208.got.cif
#   From: 2010.05.17/outbox.cif.g08.bks.cpg/sg91_10_cif.got.tgz:18208.got - 2010.06.03 19:20:03.
