data_PCOD9548790
_publ_section_title
;
Structure prediction by ZEFSAII (Michael W. Deem and Ramdas Pophale) SiO2 
 PCOD9548790
Probable space group: P 41 2 2
;
_chemical_formula_sum "Si O2"
_cell_formula_units_Z 48
_cell_length_a 11.523355
_cell_length_b 11.523355
_cell_length_c 19.055395
_cell_angle_alpha 90.000000
_cell_angle_beta 90.000000
_cell_angle_gamma 90.000000
_cell_volume 2530.322274
_symmetry_space_group_name_H-M "P 41 2 2"
_symmetry_group_IT_number 91
_symmetry_cell_setting 'tetragonal'
loop_
_space_group_symop_operation_xyz
x,y,z
-y,x,1/4+z
-x,-y,1/2+z
y,-x,3/4+z
x,-y,1/2-z
-x,y,-z
y,x,3/4-z
-y,-x,1/4-z
loop_
_atom_site_type_symbol
_atom_site_label
_atom_site_fract_x
_atom_site_fract_y
_atom_site_fract_z
Si Si1 0.601113 0.536705 0.955045
Si Si2 0.892696 0.695256 0.862900
Si Si3 0.091576 0.908425 0.625000
Si Si4 0.000000 0.260852 0.000000
Si Si5 0.335321 0.780081 0.973557
Si Si6 0.165669 0.918151 0.317726
Si Si7 0.157176 0.549497 0.420814
O O1 0.562718 0.562718 0.875000
O O2 0.718444 0.464363 0.957094
O O3 0.500000 0.479049 0.000000
O O4 0.626889 0.659612 0.992090
O O5 0.781638 0.781638 0.875000
O O6 0.877111 0.656836 0.783276
O O7 0.892188 0.582377 0.913182
O O8 0.007556 0.770014 0.873196
O O9 0.183881 0.925783 0.691679
O O10 0.966755 0.897173 0.661966
O O11 0.918127 0.350373 0.956790
O O12 0.202594 0.773518 0.948576
O O13 0.411693 0.814342 0.907945
O O14 0.170114 0.000000 0.250000
#
# Coordination Sequence:
#
# PCOD9548790 Si02
#       7
#     8   8   4   4   8   8   8
#     4  12  22  42  70  97 134 177 232 290 343 405
#     4  12  22  37  66 103 131 166 222 294 341 401
#     4  12  24  50  66  94 136 188 228 274 358 434
#     4  12  30  46  70  96 144 186 226 282 350 442
#     4  12  22  40  65 100 131 174 223 287 344 409
#     4  12  22  37  69 101 129 168 229 290 344 403
#     4  12  25  43  66  97 138 179 222 281 355 407
#
# _framework density 18.969915
#
# number of rings (size 3 to 8) (size 9 to 14) (size 15 to 20)
#    0.000    0.000   10.000    0.500    3.500    0.000 
#    1.500    0.000    0.000    0.000    0.000    0.000 
#    0.000    0.000    0.000    0.000    0.000    0.000 
#
# Total GULP energy -267918.909053 kJ/mol
# GULP energy per Si atom -5581.643939 kJ/mol
# Density = 1.892674 g / cm^3
# Si number density = 18.969915 Si / 1000 Ang^3
#
#
#
# Elastic Constant Matrix: (Units=GPa)
#
#
# Indices 1 2 3 4 5 6 
#
# 1 107.1613 38.9781 44.4166 0.0000 0.0000 0.0000
# 2 38.9781 107.1616 44.4165 0.0000 0.0000 0.0000
# 3 44.4166 44.4165 95.2395 0.0000 0.0000 0.0000
# 4 0.0000 0.0000 0.0000 29.7560 0.0000 0.0000
# 5 0.0000 0.0000 0.0000 0.0000 29.7561 0.0000
# 6 0.0000 0.0000 0.0000 0.0000 0.0000 25.8239
#
#
#
# Elastic Compliance Matrix: (Units=1/GPa)
#
#
# Indices 1 2 3 4 5 6 
#
# 1 0.012108 -0.002558 -0.004454 0.000000 0.000000 0.000000
# 2 -0.002558 0.012108 -0.004454 0.000000 0.000000 0.000000
# 3 -0.004454 -0.004454 0.014654 0.000000 0.000000 0.000000
# 4 0.000000 0.000000 0.000000 0.033607 0.000000 0.000000
# 5 0.000000 0.000000 0.000000 0.000000 0.033607 0.000000
# 6 0.000000 0.000000 0.000000 0.000000 0.000000 0.038724
#
#
# Mechanical properties :
#
#
# Convention : Reuss Voigt Hill
#
# Bulk Modulus (GPa) = 62.73953 62.79830 62.76891
# Shear Modulus (GPa) = 28.89303 29.18396 29.03849
#
# Velocity S-wave (km/s) = 3.90692 3.92654 3.91674
# Velocity P-wave (km/s) = 7.31417 7.33028 7.32223
#
# Compressibility (1/GPa) = 0.01593891
#
# Stress axis : x y z
#
# Youngs Moduli (GPa) = 82.58834 82.58870 68.24022
#
# Poissons Ratio (x) = 0.21127 0.30393
# Poissons Ratio (y) = 0.21127 0.30393
# Poissons Ratio (z) = 0.36784 0.36784
#
# Static dielectric constant tensor:
#      x y z
#    x 1.696020 0.000000 0.000000 
#    y 0.000000 1.696020 0.000000 
#    z 0.000000 0.000000 1.724560 
# 
# From -- ./inp_files/21143.got.cif
#   From: 2010.05.17/outbox.cif.g08.bks.cpg/sg91_11_cif.got.tgz:21143.got - 2010.06.03 19:20:03.
