data_PCOD9548051
_publ_section_title
;
Structure prediction by ZEFSAII (Michael W. Deem and Ramdas Pophale) SiO2 
 PCOD9548051
Probable space group: P 41 2 2
;
_chemical_formula_sum "Si O2"
_cell_formula_units_Z 40
_cell_length_a 15.756502
_cell_length_b 15.756502
_cell_length_c 7.075033
_cell_angle_alpha 90.000000
_cell_angle_beta 90.000000
_cell_angle_gamma 90.000000
_cell_volume 1756.499731
_symmetry_space_group_name_H-M "P 41 2 2"
_symmetry_group_IT_number 91
_symmetry_cell_setting 'tetragonal'
loop_
_space_group_symop_operation_xyz
x,y,z
-y,x,1/4+z
-x,-y,1/2+z
y,-x,3/4+z
x,-y,1/2-z
-x,y,-z
y,x,3/4-z
-y,-x,1/4-z
loop_
_atom_site_type_symbol
_atom_site_label
_atom_site_fract_x
_atom_site_fract_y
_atom_site_fract_z
Si Si1 0.788456 0.122977 0.402739
Si Si2 0.763511 0.059863 0.975092
Si Si3 0.715689 0.579060 0.393607
Si Si4 0.632000 0.762830 0.954808
Si Si5 0.592218 0.867212 0.589694
O O1 0.769268 0.091504 0.191053
O O2 0.710582 0.180061 0.473252
O O3 0.796248 0.036197 0.521316
O O4 0.819195 0.127938 0.860549
O O5 0.664718 0.062642 0.914158
O O6 0.709788 0.500000 0.250000
O O7 0.630337 0.630337 0.375000
O O8 0.737470 0.575040 0.614849
O O9 0.793792 0.628783 0.298223
O O10 0.676888 0.676888 0.875000
O O11 0.588147 0.820258 0.792279
O O12 0.500000 0.891392 0.500000
#
# Coordination Sequence:
#
# PCOD9548051 Si02
#       5
#     8   8   8   8   8
#     4  10  21  39  73  99 147 201 254 311 376 460
#     4  10  20  42  69 105 147 202 253 310 389 446
#     4  11  23  43  72 101 140 183 236 301 373 463
#     4  12  22  42  74 106 133 199 248 303 377 461
#     4  11  24  42  71 101 147 187 253 315 370 457
#
# _framework density 22.772563000000002
#
# number of rings (size 3 to 8) (size 9 to 14) (size 15 to 20)
#    0.000    1.200    6.000    0.000    0.000    4.000 
#    0.000    4.000   26.400    0.000    0.000    0.000 
#    0.000    0.000    0.000    0.000    0.000    0.000 
#
# Total GULP energy -223447.080365 kJ/mol
# GULP energy per Si atom -5586.177009 kJ/mol
# Density = 2.272073 g / cm^3
# Si number density = 22.772563 Si / 1000 Ang^3
#
#
#
# Elastic Constant Matrix: (Units=GPa)
#
#
# Indices 1 2 3 4 5 6 
#
# 1 130.7076 65.2892 63.9684 0.0000 0.0000 0.0000
# 2 65.2892 130.7076 63.9684 0.0000 0.0000 0.0000
# 3 63.9684 63.9684 179.2185 0.0000 0.0000 0.0000
# 4 0.0000 0.0000 0.0000 49.1478 0.0000 0.0000
# 5 0.0000 0.0000 0.0000 0.0000 49.1478 0.0000
# 6 0.0000 0.0000 0.0000 0.0000 0.0000 -11.0571
#
#
#
# Elastic Compliance Matrix: (Units=1/GPa)
#
#
# Indices 1 2 3 4 5 6 
#
# 1 0.010969 -0.004317 -0.002374 0.000000 0.000000 0.000000
# 2 -0.004317 0.010969 -0.002374 0.000000 0.000000 0.000000
# 3 -0.002374 -0.002374 0.007275 0.000000 0.000000 0.000000
# 4 0.000000 0.000000 0.000000 0.020347 0.000000 0.000000
# 5 0.000000 0.000000 0.000000 0.000000 0.020347 0.000000
# 6 0.000000 0.000000 0.000000 0.000000 0.000000 -0.090440
#
#
# Mechanical properties :
#
#
# Convention : Reuss Voigt Hill
#
# Bulk Modulus (GPa) = 90.24091 91.89842 91.06966
# Shear Modulus (GPa) = 3869.79928 33.94153 1951.87040
#
# Velocity S-wave (km/s) = 41.26760 3.86483 29.30829
# Velocity P-wave (km/s) = 48.06661 7.76907 34.42933
#
# Compressibility (1/GPa) = 0.01108145
#
# Stress axis : x y z
#
# Youngs Moduli (GPa) = 91.16543 91.16543 137.46311
#
# Poissons Ratio (x) = 0.39357 0.32637
# Poissons Ratio (y) = 0.39357 0.32637
# Poissons Ratio (z) = 0.21645 0.21645
#
# Static dielectric constant tensor:
#      x y z
#    x 1.842210 0.000000 0.000000 
#    y 0.000000 1.842210 0.000000 
#    z 0.000000 0.000000 1.911560 
# 
# From -- ./inp_files/822.got.cif
#   From: 2010.05.17/outbox.cif.g08.bks.cpg/sg91_1_cif.got.tgz:822.got - 2010.06.03 19:20:03.
