data_PCOD9548593
_publ_section_title
;
Structure prediction by ZEFSAII (Michael W. Deem and Ramdas Pophale) SiO2 
 PCOD9548593
Probable space group: P 41 2 2
;
_chemical_formula_sum "Si O2"
_cell_formula_units_Z 64
_cell_length_a 18.557681
_cell_length_b 18.557681
_cell_length_c 12.250419
_cell_angle_alpha 90.000000
_cell_angle_beta 90.000000
_cell_angle_gamma 90.000000
_cell_volume 4218.891469
_symmetry_space_group_name_H-M "P 41 2 2"
_symmetry_group_IT_number 91
_symmetry_cell_setting 'tetragonal'
loop_
_space_group_symop_operation_xyz
x,y,z
-y,x,1/4+z
-x,-y,1/2+z
y,-x,3/4+z
x,-y,1/2-z
-x,y,-z
y,x,3/4-z
-y,-x,1/4-z
loop_
_atom_site_type_symbol
_atom_site_label
_atom_site_fract_x
_atom_site_fract_y
_atom_site_fract_z
Si Si1 0.165038 0.281754 0.382940
Si Si2 0.816819 0.077214 0.259180
Si Si3 0.073929 0.365805 0.760818
Si Si4 0.084972 0.402459 0.521346
Si Si5 0.913255 0.566459 0.490652
Si Si6 0.953147 0.160342 0.607486
Si Si7 0.917251 0.794364 0.252589
Si Si8 0.913372 0.678383 0.664285
O O1 0.244255 0.244255 0.375000
O O2 0.140167 0.345952 0.465568
O O3 0.110246 0.217210 0.411829
O O4 0.140593 0.305319 0.261974
O O5 0.795188 0.089090 0.133532
O O6 0.866083 0.143486 0.294402
O O7 0.747996 0.071435 0.337789
O O8 0.856194 0.000000 0.250000
O O9 0.086816 0.410618 0.652342
O O10 0.104398 0.402985 0.869944
O O11 0.103420 0.287103 0.726195
O O12 0.989104 0.349818 0.785023
O O13 0.101152 0.483441 0.482227
O O14 0.000000 0.382053 0.500000
O O15 0.882547 0.618549 0.582798
O O16 0.000000 0.574260 0.500000
O O17 0.916486 0.083514 0.625000
O O18 0.000000 0.159175 0.500000
O O19 0.003516 0.186609 0.707056
#
# Coordination Sequence:
#
# PCOD9548593 Si02
#       8
#     8   8   8   8   8   8   8   8
#     4  11  23  35  51  70  96 131 163 200 248 304
#     4  11  21  34  50  67  88 122 173 215 261 296
#     4  11  18  33  51  72  95 123 158 210 260 307
#     4  11  20  34  50  75  99 126 162 202 254 306
#     4   9  20  32  53  75  96 121 155 209 258 305
#     4  11  24  36  47  63  88 123 163 209 261 301
#     4  11  22  33  50  66  87 126 165 220 261 301
#     4  11  19  36  52  69  97 122 161 206 253 308
#
# _framework density 15.169860999999999
#
# number of rings (size 3 to 8) (size 9 to 14) (size 15 to 20)
#    0.000    1.250    5.000    1.875    7.000    1.000 
#    0.000    0.000    0.000    0.000    0.000    0.000 
#    0.000    0.000    0.000    0.000    0.000   10.000 
#
# Total GULP energy -356645.606012 kJ/mol
# GULP energy per Si atom -5572.587594 kJ/mol
# Density = 1.513533 g / cm^3
# Si number density = 15.169861 Si / 1000 Ang^3
#
#
#
# Elastic Constant Matrix: (Units=GPa)
#
#
# Indices 1 2 3 4 5 6 
#
# 1 54.4512 26.1588 21.8772 0.0000 0.0000 0.0000
# 2 26.1588 54.4527 21.8776 0.0000 0.0000 0.0000
# 3 21.8772 21.8776 91.8493 0.0000 0.0000 0.0000
# 4 0.0000 0.0000 0.0000 9.3263 0.0000 0.0000
# 5 0.0000 0.0000 0.0000 0.0000 9.3237 0.0000
# 6 0.0000 0.0000 0.0000 0.0000 0.0000 10.3428
#
#
#
# Elastic Compliance Matrix: (Units=1/GPa)
#
#
# Indices 1 2 3 4 5 6 
#
# 1 0.024796 -0.010549 -0.003394 0.000000 0.000000 0.000000
# 2 -0.010549 0.024795 -0.003394 0.000000 0.000000 0.000000
# 3 -0.003394 -0.003394 0.012504 0.000000 0.000000 0.000000
# 4 0.000000 0.000000 0.000000 0.107223 0.000000 0.000000
# 5 0.000000 0.000000 0.000000 0.000000 0.107254 0.000000
# 6 0.000000 0.000000 0.000000 0.000000 0.000000 0.096685
#
#
# Mechanical properties :
#
#
# Convention : Reuss Voigt Hill
#
# Bulk Modulus (GPa) = 36.46387 37.84229 37.15308
# Shear Modulus (GPa) = 11.98838 14.52120 13.25479
#
# Velocity S-wave (km/s) = 2.81424 3.09729 2.95915
# Velocity P-wave (km/s) = 5.88635 6.14742 6.01830
#
# Compressibility (1/GPa) = 0.02742441
#
# Stress axis : x y z
#
# Youngs Moduli (GPa) = 40.32886 40.33000 79.97444
#
# Poissons Ratio (x) = 0.42542 0.27140
# Poissons Ratio (y) = 0.42541 0.27139
# Poissons Ratio (z) = 0.13686 0.13686
#
# Static dielectric constant tensor:
#      x y z
#    x 1.523140 0.000000 0.000000 
#    y 0.000000 1.523140 0.000000 
#    z 0.000000 0.000000 1.554080 
# 
# From -- ./inp_files/4043.got.cif
#   From: 2010.05.17/outbox.cif.g08.bks.cpg/sg91_3_cif.got.tgz:4043.got - 2010.06.03 19:20:03.
