data_PCOD9548487
_publ_section_title
;
Structure prediction by ZEFSAII (Michael W. Deem and Ramdas Pophale) SiO2 
 PCOD9548487
Probable space group: P 41 2 2
;
_chemical_formula_sum "Si O2"
_cell_formula_units_Z 40
_cell_length_a 17.667375
_cell_length_b 17.667375
_cell_length_c 6.434325
_cell_angle_alpha 90.000000
_cell_angle_beta 90.000000
_cell_angle_gamma 90.000000
_cell_volume 2008.385365
_symmetry_space_group_name_H-M "P 41 2 2"
_symmetry_group_IT_number 91
_symmetry_cell_setting 'tetragonal'
loop_
_space_group_symop_operation_xyz
x,y,z
-y,x,1/4+z
-x,-y,1/2+z
y,-x,3/4+z
x,-y,1/2-z
-x,y,-z
y,x,3/4-z
-y,-x,1/4-z
loop_
_atom_site_type_symbol
_atom_site_label
_atom_site_fract_x
_atom_site_fract_y
_atom_site_fract_z
Si Si1 0.419762 0.905692 0.558150
Si Si2 0.923693 0.800807 0.866536
Si Si3 0.231048 0.577617 0.366826
Si Si4 0.673583 0.190422 0.769120
Si Si5 0.686648 0.686648 0.375000
Si Si6 0.713667 0.000000 0.250000
O O1 0.500000 0.943869 0.500000
O O2 0.426998 0.847288 0.751614
O O3 0.396845 0.856470 0.359851
O O4 0.346581 0.956820 0.602794
O O5 0.881001 0.881001 0.875000
O O6 0.946060 0.766528 0.640497
O O7 0.865067 0.742118 0.968875
O O8 0.000000 0.803430 0.000000
O O9 0.246398 0.500000 0.250000
O O10 0.296392 0.605735 0.522745
O O11 0.224960 0.642620 0.192920
O O12 0.695267 0.248990 0.949336
#
# Coordination Sequence:
#
# PCOD9548487 Si02
#       6
#     8   8   8   8   4   4
#     4  11  23  38  64 101 134 172 216 258 330 424
#     4  12  27  46  69  93 126 175 230 295 352 406
#     4  11  21  38  63  93 140 173 212 274 325 393
#     4  11  22  41  66  95 133 170 216 278 341 403
#     4  10  24  36  62 102 132 170 226 268 334 404
#     4  12  26  44  68  96 134 180 218 268 350 418
#
# _framework density 19.916498000000001
#
# number of rings (size 3 to 8) (size 9 to 14) (size 15 to 20)
#    0.000    0.800    6.000    1.800    2.800    3.200 
#    1.800    0.000    0.000    0.000    0.000    0.000 
#   42.000    0.000    0.000    0.000    0.000    0.000 
#
# Total GULP energy -223343.743473 kJ/mol
# GULP energy per Si atom -5583.593587 kJ/mol
# Density = 1.987117 g / cm^3
# Si number density = 19.916498 Si / 1000 Ang^3
#
#
#
# Elastic Constant Matrix: (Units=GPa)
#
#
# Indices 1 2 3 4 5 6 
#
# 1 77.2481 55.8593 29.8764 0.0000 0.0000 0.0000
# 2 55.8593 77.2481 29.8764 0.0000 0.0000 0.0000
# 3 29.8764 29.8764 80.0559 0.0000 0.0000 0.0000
# 4 0.0000 0.0000 0.0000 17.9005 0.0000 0.0000
# 5 0.0000 0.0000 0.0000 0.0000 17.9005 0.0000
# 6 0.0000 0.0000 0.0000 0.0000 0.0000 11.3951
#
#
#
# Elastic Compliance Matrix: (Units=1/GPa)
#
#
# Indices 1 2 3 4 5 6 
#
# 1 0.027889 -0.018864 -0.003368 0.000000 0.000000 0.000000
# 2 -0.018864 0.027889 -0.003368 0.000000 0.000000 0.000000
# 3 -0.003368 -0.003368 0.015005 0.000000 0.000000 0.000000
# 4 0.000000 0.000000 0.000000 0.055864 0.000000 0.000000
# 5 0.000000 0.000000 0.000000 0.000000 0.055864 0.000000
# 6 0.000000 0.000000 0.000000 0.000000 0.000000 0.087757
#
#
# Mechanical properties :
#
#
# Convention : Reuss Voigt Hill
#
# Bulk Modulus (GPa) = 51.06587 51.75293 51.40940
# Shear Modulus (GPa) = 15.24406 17.36856 16.30631
#
# Velocity S-wave (km/s) = 2.76959 2.95629 2.86446
# Velocity P-wave (km/s) = 5.99359 6.13956 6.06701
#
# Compressibility (1/GPa) = 0.01958255
#
# Stress axis : x y z
#
# Youngs Moduli (GPa) = 35.85637 35.85637 66.64416
#
# Poissons Ratio (x) = 0.67641 0.22445
# Poissons Ratio (y) = 0.67641 0.22445
# Poissons Ratio (z) = 0.12076 0.12076
#
# Static dielectric constant tensor:
#      x y z
#    x 1.716900 0.000000 0.000000 
#    y 0.000000 1.716900 0.000000 
#    z 0.000000 0.000000 1.755960 
# 
# From -- ./inp_files/8576.got.cif
#   From: 2010.05.17/outbox.cif.g08.bks.cpg/sg91_5_cif.got.tgz:8576.got - 2010.06.03 19:20:03.
