data_PCOD9548299
_publ_section_title
;
Structure prediction by ZEFSAII (Michael W. Deem and Ramdas Pophale) SiO2 
 PCOD9548299
Probable space group: P 41 2 2
;
_chemical_formula_sum "Si O2"
_cell_formula_units_Z 28
_cell_length_a 7.940557
_cell_length_b 7.940557
_cell_length_c 21.533150
_cell_angle_alpha 90.000000
_cell_angle_beta 90.000000
_cell_angle_gamma 90.000000
_cell_volume 1357.717766
_symmetry_space_group_name_H-M "P 41 2 2"
_symmetry_group_IT_number 91
_symmetry_cell_setting 'tetragonal'
loop_
_space_group_symop_operation_xyz
x,y,z
-y,x,1/4+z
-x,-y,1/2+z
y,-x,3/4+z
x,-y,1/2-z
-x,y,-z
y,x,3/4-z
-y,-x,1/4-z
loop_
_atom_site_type_symbol
_atom_site_label
_atom_site_fract_x
_atom_site_fract_y
_atom_site_fract_z
Si Si1 0.853831 0.634389 0.545739
Si Si2 0.790512 0.548772 0.835776
Si Si3 0.500000 0.513290 0.000000
Si Si4 0.130101 0.965681 0.053630
O O1 0.888443 0.559392 0.613994
O O2 0.664727 0.584661 0.523412
O O3 0.864346 0.834181 0.548146
O O4 0.000000 0.569964 0.500000
O O5 0.679539 0.679539 0.875000
O O6 0.647046 0.440893 0.802137
O O7 0.898631 0.678094 0.794517
O O8 0.075377 0.924624 0.125000
O O9 0.000000 0.902264 0.000000
#
# Coordination Sequence:
#
# PCOD9548299 Si02
#       4
#     8   8   4   8
#     4  10  23  42  63  98 130 172 219 281 335 404
#     4   9  21  37  63  90 119 172 206 266 334 388
#     4  10  22  40  62  92 130 164 226 260 344 414
#     4  10  23  42  63  94 128 169 225 271 338 410
#
# _framework density 20.622841000000001
#
# number of rings (size 3 to 8) (size 9 to 14) (size 15 to 20)
#    0.000    2.286    0.000    0.000    8.000    9.143 
#    5.143    1.429    0.000    0.000    0.000    0.000 
#    0.000    0.000    0.000    0.000    0.000    0.000 
#
# Total GULP energy -155872.378713 kJ/mol
# GULP energy per Si atom -5566.870668 kJ/mol
# Density = 2.057590 g / cm^3
# Si number density = 20.622841 Si / 1000 Ang^3
#
#
#
# Elastic Constant Matrix: (Units=GPa)
#
#
# Indices 1 2 3 4 5 6 
#
# 1 62.6997 49.5615 28.6451 0.0000 0.0000 0.0000
# 2 49.5615 62.7000 28.6453 0.0000 0.0000 0.0000
# 3 28.6451 28.6453 74.9536 0.0000 0.0000 0.0000
# 4 0.0000 0.0000 0.0000 35.2718 0.0000 0.0000
# 5 0.0000 0.0000 0.0000 0.0000 35.2716 0.0000
# 6 0.0000 0.0000 0.0000 0.0000 0.0000 31.0334
#
#
#
# Elastic Compliance Matrix: (Units=1/GPa)
#
#
# Indices 1 2 3 4 5 6 
#
# 1 0.043590 -0.032523 -0.004229 0.000000 0.000000 0.000000
# 2 -0.032523 0.043589 -0.004229 0.000000 0.000000 0.000000
# 3 -0.004229 -0.004229 0.016574 0.000000 0.000000 0.000000
# 4 0.000000 0.000000 0.000000 0.028351 0.000000 0.000000
# 5 0.000000 0.000000 0.000000 0.000000 0.028351 0.000000
# 6 0.000000 0.000000 0.000000 0.000000 0.000000 0.032223
#
#
# Mechanical properties :
#
#
# Convention : Reuss Voigt Hill
#
# Bulk Modulus (GPa) = 45.89336 46.00635 45.94985
# Shear Modulus (GPa) = 17.73643 26.54877 22.14260
#
# Velocity S-wave (km/s) = 2.93582 3.59186 3.28028
# Velocity P-wave (km/s) = 5.81326 6.28958 6.05610
#
# Compressibility (1/GPa) = 0.02178964
#
# Stress axis : x y z
#
# Youngs Moduli (GPa) = 22.94129 22.94136 60.33505
#
# Poissons Ratio (x) = 0.74613 0.25516
# Poissons Ratio (y) = 0.74613 0.25517
# Poissons Ratio (z) = 0.09702 0.09702
#
# Static dielectric constant tensor:
#      x y z
#    x 1.743450 0.000000 0.000000 
#    y 0.000000 1.743450 0.000000 
#    z 0.000000 0.000000 1.848290 
# 
# From -- ./inp_files/5328.got.cif
#   From: 2010.05.17/outbox.cif.g08.bks.cpg/sg91_3_cif.got.tgz:5328.got - 2010.06.03 19:20:03.
