data_PCOD9548497
_publ_section_title
;
Structure prediction by ZEFSAII (Michael W. Deem and Ramdas Pophale) SiO2 
 PCOD9548497
Probable space group: P 41 2 2
;
_chemical_formula_sum "Si O2"
_cell_formula_units_Z 48
_cell_length_a 9.367837
_cell_length_b 9.367837
_cell_length_c 28.942270
_cell_angle_alpha 90.000000
_cell_angle_beta 90.000000
_cell_angle_gamma 90.000000
_cell_volume 2539.868556
_symmetry_space_group_name_H-M "P 41 2 2"
_symmetry_group_IT_number 91
_symmetry_cell_setting 'tetragonal'
loop_
_space_group_symop_operation_xyz
x,y,z
-y,x,1/4+z
-x,-y,1/2+z
y,-x,3/4+z
x,-y,1/2-z
-x,y,-z
y,x,3/4-z
-y,-x,1/4-z
loop_
_atom_site_type_symbol
_atom_site_label
_atom_site_fract_x
_atom_site_fract_y
_atom_site_fract_z
Si Si1 0.714046 0.324535 0.818991
Si Si2 0.498660 0.914071 0.643560
Si Si3 0.354519 0.513098 0.489005
Si Si4 0.032244 0.616840 0.708297
Si Si5 0.431351 0.235571 0.355682
Si Si6 0.859085 0.269069 0.028585
O O1 0.623582 0.197460 0.843257
O O2 0.617893 0.358990 0.774522
O O3 0.876922 0.311491 0.801394
O O4 0.727442 0.450682 0.856107
O O5 0.352769 0.886912 0.672910
O O6 0.462329 0.918447 0.589087
O O7 0.553267 0.071250 0.656907
O O8 0.500000 0.597354 0.500000
O O9 0.336529 0.461604 0.437476
O O10 0.219116 0.609344 0.499013
O O11 0.023717 0.500000 0.750000
O O12 0.142078 0.745707 0.716994
O O13 0.276855 0.276855 0.375000
O O14 0.000000 0.226748 0.000000
#
# Coordination Sequence:
#
# PCOD9548497 Si02
#       6
#     8   8   8   8   8   8
#     4  10  24  41  62  93 128 164 208 271 318 377
#     4  10  24  44  64  88 130 168 212 262 324 385
#     4  11  21  38  65  92 123 162 214 259 322 372
#     4  11  25  42  65  96 129 167 217 269 323 390
#     4  11  22  39  64  93 125 163 212 265 316 379
#     4  11  23  42  63  95 127 170 211 268 319 397
#
# _framework density 18.898614999999999
#
# number of rings (size 3 to 8) (size 9 to 14) (size 15 to 20)
#    0.000    1.333    3.333    1.500    7.000    0.000 
#    3.000    3.333    0.000    0.000    0.000    0.000 
#    0.000    0.000    0.000    0.000    0.000    0.000 
#
# Total GULP energy -267695.507709 kJ/mol
# GULP energy per Si atom -5576.989744 kJ/mol
# Density = 1.885560 g / cm^3
# Si number density = 18.898615 Si / 1000 Ang^3
#
#
#
# Elastic Constant Matrix: (Units=GPa)
#
#
# Indices 1 2 3 4 5 6 
#
# 1 112.4338 64.1432 38.4055 0.0000 0.0000 0.0000
# 2 64.1432 112.4338 38.4055 0.0000 0.0000 0.0000
# 3 38.4055 38.4055 82.0528 0.0000 0.0000 0.0000
# 4 0.0000 0.0000 0.0000 6.9676 0.0000 0.0000
# 5 0.0000 0.0000 0.0000 0.0000 6.9676 0.0000
# 6 0.0000 0.0000 0.0000 0.0000 0.0000 -2.3833
#
#
#
# Elastic Compliance Matrix: (Units=1/GPa)
#
#
# Indices 1 2 3 4 5 6 
#
# 1 0.013910 -0.006798 -0.003328 0.000000 0.000000 0.000000
# 2 -0.006798 0.013910 -0.003328 0.000000 0.000000 0.000000
# 3 -0.003328 -0.003328 0.015303 0.000000 0.000000 0.000000
# 4 0.000000 0.000000 0.000000 0.143522 0.000000 0.000000
# 5 0.000000 0.000000 0.000000 0.000000 0.143522 0.000000
# 6 0.000000 0.000000 0.000000 0.000000 0.000000 -0.419591
#
#
# Mechanical properties :
#
#
# Convention : Reuss Voigt Hill
#
# Bulk Modulus (GPa) = 61.68412 65.42541 63.55477
# Shear Modulus (GPa) = -87.54801 13.37480 -37.08661
#
# Velocity S-wave (km/s) = -6.81364 2.66317 -4.43470
# Velocity P-wave (km/s) = 5.40283 6.64462 2.73500
#
# Compressibility (1/GPa) = 0.01621163
#
# Stress axis : x y z
#
# Youngs Moduli (GPa) = 71.89309 71.89309 65.34645
#
# Poissons Ratio (x) = 0.48876 0.21750
# Poissons Ratio (y) = 0.48876 0.21750
# Poissons Ratio (z) = 0.23929 0.23929
#
# Static dielectric constant tensor:
#      x y z
#    x 1.674720 0.000000 0.000000 
#    y 0.000000 1.674720 0.000000 
#    z 0.000000 0.000000 1.631760 
# 
# From -- ./inp_files/13593.got.cif
#   From: 2010.05.17/outbox.cif.g08.bks.cpg/sg91_7_cif.got.tgz:13593.got - 2010.06.03 19:20:03.
