data_PCOD9548886
_publ_section_title
;
Structure prediction by ZEFSAII (Michael W. Deem and Ramdas Pophale) SiO2 
 PCOD9548886
Probable space group: P 41 21 2
;
_chemical_formula_sum "Si O2"
_cell_formula_units_Z 56
_cell_length_a 14.686137
_cell_length_b 14.686137
_cell_length_c 13.570680
_cell_angle_alpha 90.000000
_cell_angle_beta 90.000000
_cell_angle_gamma 90.000000
_cell_volume 2926.959817
_symmetry_space_group_name_H-M "P 41 21 2"
_symmetry_group_IT_number 92
_symmetry_cell_setting 'tetragonal'
loop_
_space_group_symop_operation_xyz
x,y,z
1/2-y,1/2+x,1/4+z
-x,-y,1/2+z
1/2+y,1/2-x,3/4+z
1/2+x,1/2-y,3/4-z
1/2-x,1/2+y,1/4-z
y,x,-z
-y,-x,1/2-z
loop_
_atom_site_type_symbol
_atom_site_label
_atom_site_fract_x
_atom_site_fract_y
_atom_site_fract_z
Si Si1 0.350108 0.858150 0.435660
Si Si2 0.203321 0.046375 0.301444
Si Si3 0.806419 0.448980 0.243559
Si Si4 0.801797 0.936059 0.208533
Si Si5 0.232861 0.320266 0.225960
Si Si6 0.367087 0.225288 0.988215
Si Si7 0.620853 0.756168 0.053343
O O1 0.415607 0.780360 0.476523
O O2 0.249023 0.817093 0.457683
O O3 0.355799 0.874065 0.317743
O O4 0.357267 0.954761 0.490654
O O5 0.245656 0.064733 0.408949
O O6 0.108526 0.098545 0.293283
O O7 0.202523 0.940008 0.279305
O O8 0.739633 0.451880 0.149945
O O9 0.871641 0.362107 0.228195
O O10 0.740669 0.856705 0.256873
O O11 0.790422 0.029054 0.266756
O O12 0.214166 0.379012 0.128210
O O13 0.249853 0.370526 0.328834
O O14 0.266109 0.266109 0.000000
O O15 0.704887 0.704887 0.000000
#
# Coordination Sequence:
#
# PCOD9548886 Si02
#       7
#     8   8   8   8   8   8   8
#     4   9  18  34  56  76  97 134 177 216 259 308
#     4  10  19  33  55  79 103 135 178 217 254 309
#     4  10  18  33  55  78 103 133 172 216 263 308
#     4  10  20  33  52  77 106 140 171 209 263 314
#     4   9  19  36  52  72 104 138 172 212 263 309
#     4   9  19  35  53  73 103 139 173 214 261 310
#     4  11  21  34  54  79 109 139 171 214 263 314
#
# _framework density 19.132479
#
# number of rings (size 3 to 8) (size 9 to 14) (size 15 to 20)
#    0.000    2.286    0.000    4.714    0.000    1.714 
#    0.000    7.857    0.000    0.000    0.000    0.000 
#    0.000    0.000    0.000    0.000    0.000    0.000 
#
# Total GULP energy -312191.865716 kJ/mol
# GULP energy per Si atom -5574.854745 kJ/mol
# Density = 1.908893 g / cm^3
# Si number density = 19.132479 Si / 1000 Ang^3
#
#
#
# Elastic Constant Matrix: (Units=GPa)
#
#
# Indices 1 2 3 4 5 6 
#
# 1 54.7370 -1.0024 15.9601 0.0000 0.0000 0.0000
# 2 -1.0024 54.7370 15.9601 0.0000 0.0000 0.0000
# 3 15.9601 15.9601 132.7894 0.0000 0.0000 0.0000
# 4 0.0000 0.0000 0.0000 17.2490 0.0000 0.0000
# 5 0.0000 0.0000 0.0000 0.0000 17.2490 0.0000
# 6 0.0000 0.0000 0.0000 0.0000 0.0000 11.0530
#
#
#
# Elastic Compliance Matrix: (Units=1/GPa)
#
#
# Indices 1 2 3 4 5 6 
#
# 1 0.018991 0.001050 -0.002409 0.000000 0.000000 0.000000
# 2 0.001050 0.018991 -0.002409 0.000000 0.000000 0.000000
# 3 -0.002409 -0.002409 0.008110 0.000000 0.000000 0.000000
# 4 0.000000 0.000000 0.000000 0.057974 0.000000 0.000000
# 5 0.000000 0.000000 0.000000 0.000000 0.057974 0.000000
# 6 0.000000 0.000000 0.000000 0.000000 0.000000 0.090473
#
#
# Mechanical properties :
#
#
# Convention : Reuss Voigt Hill
#
# Bulk Modulus (GPa) = 25.93595 33.78877 29.86236
# Shear Modulus (GPa) = 18.32173 23.19991 20.76082
#
# Velocity S-wave (km/s) = 3.09791 3.48601 3.29767
# Velocity P-wave (km/s) = 5.13629 5.82252 5.49014
#
# Compressibility (1/GPa) = 0.03855653
#
# Stress axis : x y z
#
# Youngs Moduli (GPa) = 52.65723 52.65723 123.30853
#
# Poissons Ratio (x) = -0.05530 0.29702
# Poissons Ratio (y) = -0.05530 0.29702
# Poissons Ratio (z) = 0.12684 0.12684
#
# Static dielectric constant tensor:
#      x y z
#    x 1.673280 0.000000 0.000000 
#    y 0.000000 1.673280 0.000000 
#    z 0.000000 0.000000 1.701120 
# 
# From -- ./inp_files/2763.got.cif
#   From: 2010.05.17/outbox.cif.g08.bks.cpg/sg92_2_cif.got.tgz:2763.got - 2010.06.03 19:35:17.
