data_PCOD9548295
_publ_section_title
;
Structure prediction by ZEFSAII (Michael W. Deem and Ramdas Pophale) SiO2 
 PCOD9548295
Probable space group: P 41 2 2
;
_chemical_formula_sum "Si O2"
_cell_formula_units_Z 40
_cell_length_a 11.669551
_cell_length_b 11.669551
_cell_length_c 14.929913
_cell_angle_alpha 90.000000
_cell_angle_beta 90.000000
_cell_angle_gamma 90.000000
_cell_volume 2033.131971
_symmetry_space_group_name_H-M "P 41 2 2"
_symmetry_group_IT_number 91
_symmetry_cell_setting 'tetragonal'
loop_
_space_group_symop_operation_xyz
x,y,z
-y,x,1/4+z
-x,-y,1/2+z
y,-x,3/4+z
x,-y,1/2-z
-x,y,-z
y,x,3/4-z
-y,-x,1/4-z
loop_
_atom_site_type_symbol
_atom_site_label
_atom_site_fract_x
_atom_site_fract_y
_atom_site_fract_z
Si Si1 0.155633 0.230652 0.605419
Si Si2 0.196705 0.931297 0.051516
Si Si3 0.390163 0.329897 0.679212
Si Si4 0.846441 0.446897 0.652289
Si Si5 0.594770 0.405231 0.125000
Si Si6 0.000000 0.589670 0.000000
O O1 0.163801 0.117271 0.544701
O O2 0.280761 0.267283 0.636801
O O3 0.098095 0.327960 0.541647
O O4 0.065873 0.218604 0.686658
O O5 0.102492 0.897509 0.125000
O O6 0.311711 0.863965 0.082929
O O7 0.504671 0.269614 0.641140
O O8 0.388763 0.461765 0.649621
O O9 0.382361 0.330373 0.786774
O O10 0.860774 0.500000 0.750000
O O11 0.944715 0.480386 0.580897
#
# Coordination Sequence:
#
# PCOD9548295 Si02
#       6
#     8   8   8   8   4   4
#     4  11  21  40  67  93 128 165 223 268 336 382
#     4  11  21  39  68  96 123 168 215 285 323 381
#     4  11  24  42  63  99 133 176 221 270 332 409
#     4  11  22  36  67  96 126 165 224 276 322 394
#     4  10  26  42  62  92 140 186 202 264 348 404
#     4  10  22  40  60  94 124 170 210 288 324 384
#
# _framework density 19.67408
#
# number of rings (size 3 to 8) (size 9 to 14) (size 15 to 20)
#    0.000    1.200    6.000    1.200    4.200    0.000 
#   21.600    0.000   11.000    0.000    0.000    0.000 
#    0.000    0.000    0.000    0.000    0.000    0.000 
#
# Total GULP energy -223307.752862 kJ/mol
# GULP energy per Si atom -5582.693822 kJ/mol
# Density = 1.962930 g / cm^3
# Si number density = 19.674080 Si / 1000 Ang^3
#
#
#
# Elastic Constant Matrix: (Units=GPa)
#
#
# Indices 1 2 3 4 5 6 
#
# 1 58.2702 21.1612 23.0639 0.0000 0.0000 0.0000
# 2 21.1612 58.2697 23.0641 0.0000 0.0000 0.0000
# 3 23.0639 23.0641 135.0389 0.0000 0.0000 0.0000
# 4 0.0000 0.0000 0.0000 21.5261 0.0000 0.0000
# 5 0.0000 0.0000 0.0000 0.0000 21.5265 0.0000
# 6 0.0000 0.0000 0.0000 0.0000 0.0000 13.0741
#
#
#
# Elastic Compliance Matrix: (Units=1/GPa)
#
#
# Indices 1 2 3 4 5 6 
#
# 1 0.020462 -0.006486 -0.002387 0.000000 0.000000 0.000000
# 2 -0.006486 0.020462 -0.002387 0.000000 0.000000 0.000000
# 3 -0.002387 -0.002387 0.008221 0.000000 0.000000 0.000000
# 4 0.000000 0.000000 0.000000 0.046455 0.000000 0.000000
# 5 0.000000 0.000000 0.000000 0.000000 0.046454 0.000000
# 6 0.000000 0.000000 0.000000 0.000000 0.000000 0.076487
#
#
# Mechanical properties :
#
#
# Convention : Reuss Voigt Hill
#
# Bulk Modulus (GPa) = 37.55992 42.90636 40.23314
# Shear Modulus (GPa) = 20.00517 23.51132 21.75824
#
# Velocity S-wave (km/s) = 3.19223 3.46069 3.32917
# Velocity P-wave (km/s) = 5.72011 6.15015 5.93903
#
# Compressibility (1/GPa) = 0.02662413
#
# Stress axis : x y z
#
# Youngs Moduli (GPa) = 48.87193 48.87137 121.64494
#
# Poissons Ratio (x) = 0.31698 0.29036
# Poissons Ratio (y) = 0.31699 0.29037
# Poissons Ratio (z) = 0.11665 0.11666
#
# Static dielectric constant tensor:
#      x y z
#    x 1.690830 0.000000 0.000000 
#    y 0.000000 1.690830 0.000000 
#    z 0.000000 0.000000 1.710330 
# 
# From -- ./inp_files/4779.got.cif
#   From: 2010.05.17/outbox.cif.g08.bks.cpg/sg91_3_cif.got.tgz:4779.got - 2010.06.03 19:20:03.
