data_PCOD9548753
_publ_section_title
;
Structure prediction by ZEFSAII (Michael W. Deem and Ramdas Pophale) SiO2 
 PCOD9548753
Probable space group: P 41 2 2
;
_chemical_formula_sum "Si O2"
_cell_formula_units_Z 40
_cell_length_a 11.497203
_cell_length_b 11.497203
_cell_length_c 12.600985
_cell_angle_alpha 90.000000
_cell_angle_beta 90.000000
_cell_angle_gamma 90.000000
_cell_volume 1665.669731
_symmetry_space_group_name_H-M "P 41 2 2"
_symmetry_group_IT_number 91
_symmetry_cell_setting 'tetragonal'
loop_
_space_group_symop_operation_xyz
x,y,z
-y,x,1/4+z
-x,-y,1/2+z
y,-x,3/4+z
x,-y,1/2-z
-x,y,-z
y,x,3/4-z
-y,-x,1/4-z
loop_
_atom_site_type_symbol
_atom_site_label
_atom_site_fract_x
_atom_site_fract_y
_atom_site_fract_z
Si Si1 0.209778 0.920241 0.038236
Si Si2 0.124298 0.160548 0.043708
Si Si3 0.381342 0.768217 0.786838
Si Si4 0.550343 0.959773 0.886538
Si Si5 0.441714 0.228942 0.116240
O O1 0.112426 0.887575 0.125000
O O2 0.330249 0.889682 0.095097
O O3 0.213596 0.058471 0.023712
O O4 0.185269 0.876099 0.920133
O O5 0.159569 0.276810 0.983114
O O6 0.000000 0.121012 0.000000
O O7 0.453882 0.869141 0.845508
O O8 0.468730 0.717075 0.700767
O O9 0.310951 0.671875 0.854585
O O10 0.573879 0.092237 0.842577
O O11 0.500000 0.990705 0.000000
O O12 0.500000 0.229465 0.000000
#
# Coordination Sequence:
#
# PCOD9548753 Si02
#       5
#     8   8   8   8   8
#     4  12  26  44  72 110 161 201 260 327 406 468
#     4  12  25  44  73 114 152 205 263 328 404 475
#     4  12  26  46  78 110 150 210 260 324 395 472
#     4  11  24  45  72 108 150 206 264 320 394 472
#     4  11  26  48  76 110 151 200 269 327 392 470
#
# _framework density 24.014364
#
# number of rings (size 3 to 8) (size 9 to 14) (size 15 to 20)
#    0.000    0.400    4.000    4.800    5.600    3.200 
#    0.000    5.000    0.000    0.000    0.000    0.000 
#    0.000    0.000    0.000    0.000    0.000    0.000 
#
# Total GULP energy -223309.562840 kJ/mol
# GULP energy per Si atom -5582.739071 kJ/mol
# Density = 2.395971 g / cm^3
# Si number density = 24.014364 Si / 1000 Ang^3
#
#
#
# Elastic Constant Matrix: (Units=GPa)
#
#
# Indices 1 2 3 4 5 6 
#
# 1 135.0437 36.2200 38.9358 0.0000 0.0000 0.0000
# 2 36.2200 135.0416 38.9357 0.0000 0.0000 0.0000
# 3 38.9358 38.9357 89.6985 0.0000 0.0000 0.0000
# 4 0.0000 0.0000 0.0000 71.7846 0.0000 0.0000
# 5 0.0000 0.0000 0.0000 0.0000 71.7875 0.0000
# 6 0.0000 0.0000 0.0000 0.0000 0.0000 19.0607
#
#
#
# Elastic Compliance Matrix: (Units=1/GPa)
#
#
# Indices 1 2 3 4 5 6 
#
# 1 0.008697 -0.001422 -0.003158 0.000000 0.000000 0.000000
# 2 -0.001422 0.008697 -0.003158 0.000000 0.000000 0.000000
# 3 -0.003158 -0.003158 0.013890 0.000000 0.000000 0.000000
# 4 0.000000 0.000000 0.000000 0.013931 0.000000 0.000000
# 5 0.000000 0.000000 0.000000 0.000000 0.013930 0.000000
# 6 0.000000 0.000000 0.000000 0.000000 0.000000 0.052464
#
#
# Mechanical properties :
#
#
# Convention : Reuss Voigt Hill
#
# Bulk Modulus (GPa) = 63.25789 65.32964 64.29376
# Shear Modulus (GPa) = 37.77763 48.90605 43.34184
#
# Velocity S-wave (km/s) = 3.97057 4.51769 4.25294
# Velocity P-wave (km/s) = 6.88618 7.38080 7.13777
#
# Compressibility (1/GPa) = 0.01580830
#
# Stress axis : x y z
#
# Youngs Moduli (GPa) = 114.98353 114.98160 71.99475
#
# Poissons Ratio (x) = 0.16352 0.22734
# Poissons Ratio (y) = 0.16353 0.22735
# Poissons Ratio (z) = 0.36309 0.36309
#
# Static dielectric constant tensor:
#      x y z
#    x 1.884630 0.000000 0.000000 
#    y 0.000000 1.884630 0.000000 
#    z 0.000000 0.000000 1.966540 
# 
# From -- ./inp_files/20662.got.cif
#   From: 2010.05.17/outbox.cif.g08.bks.cpg/sg91_11_cif.got.tgz:20662.got - 2010.06.03 19:20:03.
