data_PCOD9548460
_publ_section_title
;
Structure prediction by ZEFSAII (Michael W. Deem and Ramdas Pophale) SiO2 
 PCOD9548460
Probable space group: P 41 2 2
;
_chemical_formula_sum "Si O2"
_cell_formula_units_Z 40
_cell_length_a 15.055269
_cell_length_b 15.055269
_cell_length_c 8.486516
_cell_angle_alpha 90.000000
_cell_angle_beta 90.000000
_cell_angle_gamma 90.000000
_cell_volume 1923.563261
_symmetry_space_group_name_H-M "P 41 2 2"
_symmetry_group_IT_number 91
_symmetry_cell_setting 'tetragonal'
loop_
_space_group_symop_operation_xyz
x,y,z
-y,x,1/4+z
-x,-y,1/2+z
y,-x,3/4+z
x,-y,1/2-z
-x,y,-z
y,x,3/4-z
-y,-x,1/4-z
loop_
_atom_site_type_symbol
_atom_site_label
_atom_site_fract_x
_atom_site_fract_y
_atom_site_fract_z
Si Si1 0.977647 0.593817 0.184250
Si Si2 0.752757 0.088397 0.420807
Si Si3 0.628294 0.773094 0.586473
Si Si4 0.734843 0.734843 0.875000
Si Si5 0.075054 0.075054 0.375000
Si Si6 0.387871 0.500000 0.750000
Si Si7 0.801774 0.801774 0.375000
O O1 0.013286 0.500000 0.250000
O O2 0.020894 0.671405 0.293819
O O3 0.870479 0.586040 0.181287
O O4 0.000000 0.611276 0.000000
O O5 0.730548 0.182485 0.504651
O O6 0.834302 0.060286 0.530355
O O7 0.787705 0.113376 0.243378
O O8 0.650454 0.749911 0.766549
O O9 0.577382 0.684950 0.533384
O O10 0.717722 0.792069 0.488818
O O11 0.000000 0.068657 0.500000
O O12 0.454557 0.454557 0.875000
#
# Coordination Sequence:
#
# PCOD9548460 Si02
#       7
#     8   8   8   4   4   4   4
#     4  12  26  44  70 108 149 192 245 313 374 459
#     4  10  23  44  72 102 145 198 243 297 387 443
#     4  11  23  46  70 103 144 183 242 306 372 445
#     4   9  20  42  69  99 138 191 230 294 360 441
#     4  11  26  47  68 100 149 199 262 312 358 453
#     4  12  28  50  72 102 142 188 246 316 382 458
#     4  10  24  43  71 109 145 190 244 302 368 460
#
# _framework density 20.794741999999999
#
# number of rings (size 3 to 8) (size 9 to 14) (size 15 to 20)
#    0.000    1.200    4.000    0.600    9.800    0.800 
#    0.000    0.000    0.000    0.000    0.000    0.000 
#    0.000    0.000    0.000    0.000    0.000    0.000 
#
# Total GULP energy -222687.497929 kJ/mol
# GULP energy per Si atom -5567.187448 kJ/mol
# Density = 2.074741 g / cm^3
# Si number density = 20.794742 Si / 1000 Ang^3
#
#
#
# Elastic Constant Matrix: (Units=GPa)
#
#
# Indices 1 2 3 4 5 6 
#
# 1 -24.1908 207.2007 61.7844 0.0000 0.0000 0.0000
# 2 207.2007 -24.1908 61.7844 0.0000 0.0000 0.0000
# 3 61.7844 61.7844 147.0937 0.0000 0.0000 0.0000
# 4 0.0000 0.0000 0.0000 32.2083 0.0000 0.0000
# 5 0.0000 0.0000 0.0000 0.0000 32.2083 0.0000
# 6 0.0000 0.0000 0.0000 0.0000 0.0000 31.1515
#
#
#
# Elastic Compliance Matrix: (Units=1/GPa)
#
#
# Indices 1 2 3 4 5 6 
#
# 1 0.001653 0.005975 -0.003204 0.000000 0.000000 0.000000
# 2 0.005975 0.001653 -0.003204 0.000000 0.000000 0.000000
# 3 -0.003204 -0.003204 0.009490 0.000000 0.000000 0.000000
# 4 0.000000 0.000000 0.000000 0.031048 0.000000 0.000000
# 5 0.000000 0.000000 0.000000 0.000000 0.031048 0.000000
# 6 0.000000 0.000000 0.000000 0.000000 0.000000 0.032101
#
#
# Mechanical properties :
#
#
# Convention : Reuss Voigt Hill
#
# Bulk Modulus (GPa) = 83.82598 84.47235 84.14916
# Shear Modulus (GPa) = 44.70878 3.64314 24.17596
#
# Velocity S-wave (km/s) = 4.64184 1.32505 3.41339
# Velocity P-wave (km/s) = 8.31430 6.56134 7.48928
#
# Compressibility (1/GPa) = 0.01192948
#
# Stress axis : x y z
#
# Youngs Moduli (GPa) = 605.01687 605.01687 105.37670
#
# Poissons Ratio (x) = -3.61469 0.33760
# Poissons Ratio (y) = -3.61469 0.33760
# Poissons Ratio (z) = 1.93833 1.93833
#
# Static dielectric constant tensor:
#      x y z
#    x 1.746970 0.000000 0.000000 
#    y 0.000000 1.746970 0.000000 
#    z 0.000000 0.000000 1.572170 
# 
# From -- ./inp_files/15074.got.cif
#   From: 2010.05.17/outbox.cif.g08.bks.cpg/sg91_8_cif.got.tgz:15074.got - 2010.06.03 19:20:03.
