data_PCOD9548838
_publ_section_title
;
Structure prediction by ZEFSAII (Michael W. Deem and Ramdas Pophale) SiO2 
 PCOD9548838
Probable space group: P 41 2 2
;
_chemical_formula_sum "Si O2"
_cell_formula_units_Z 36
_cell_length_a 15.000000
_cell_length_b 15.000000
_cell_length_c 9.000000
_cell_angle_alpha 90.000000
_cell_angle_beta 90.000000
_cell_angle_gamma 90.000000
_cell_volume 2025.000000
_symmetry_space_group_name_H-M "P 41 2 2"
_symmetry_group_IT_number 91
_symmetry_cell_setting 'tetragonal'
loop_
_space_group_symop_operation_xyz
x,y,z
-y,x,1/4+z
-x,-y,1/2+z
y,-x,3/4+z
x,-y,1/2-z
-x,y,-z
y,x,3/4-z
-y,-x,1/4-z
loop_
_atom_site_type_symbol
_atom_site_label
_atom_site_fract_x
_atom_site_fract_y
_atom_site_fract_z
Si Si1 0.277763 0.419967 0.630037
Si Si2 0.933896 0.275776 0.136754
Si Si3 0.724351 0.275650 0.125000
Si Si4 0.577449 0.422551 0.625000
Si Si5 0.929344 0.929344 0.375000
Si Si6 0.422041 0.068928 0.119534
O O1 0.291635 0.500000 0.750000
O O2 0.300428 0.332652 0.729300
O O3 0.335350 0.427632 0.480559
O O4 0.173167 0.417430 0.587338
O O5 0.829688 0.292461 0.097419
O O6 0.940505 0.172102 0.175638
O O7 0.955580 0.333242 0.280124
O O8 0.000000 0.295254 0.000000
O O9 0.572466 0.500000 0.750000
O O10 0.000000 0.945365 0.500000
O O11 0.437766 0.000000 0.250000
O O12 0.500000 0.062195 0.000000
#
# Coordination Sequence:
#
# PCOD9548838 Si02
#       6
#     8   8   4   4   4   8
#     4  10  21  37  55  76 103 135 169 208 252 300
#     4   9  18  33  53  74 101 136 171 208 252 299
#     4   9  18  35  54  74 102 135 170 209 252 298
#     4  12  24  37  56  80 104 133 168 208 252 302
#     4   9  18  32  50  74 102 136 172 207 252 300
#     4  10  21  35  53  77 104 134 169 208 252 300
#
# _framework density 17.777778000000001
#
# number of rings (size 3 to 8) (size 9 to 14) (size 15 to 20)
#    0.000    2.222    0.000    2.667    0.000    3.556 
#    0.000    0.000    0.000    0.000    0.000    0.000 
#    0.000    0.000    0.000    0.000    0.000    0.000 
#
# Total GULP energy -200726.144621 kJ/mol
# GULP energy per Si atom -5575.726239 kJ/mol
# Density = 1.773731 g / cm^3
# Si number density = 17.777778 Si / 1000 Ang^3
#
#
#
# Elastic Constant Matrix: (Units=GPa)
#
#
# Indices 1 2 3 4 5 6 
#
# 1 100.0870 26.5097 71.1335 0.0000 0.0000 0.0000
# 2 26.5097 100.0848 71.1336 0.0000 0.0000 0.0000
# 3 71.1335 71.1336 119.1260 0.0000 0.0000 0.0000
# 4 0.0000 0.0000 0.0000 35.9881 0.0000 0.0000
# 5 0.0000 0.0000 0.0000 0.0000 35.9878 0.0000
# 6 0.0000 0.0000 0.0000 0.0000 0.0000 18.6584
#
#
#
# Elastic Compliance Matrix: (Units=1/GPa)
#
#
# Indices 1 2 3 4 5 6 
#
# 1 0.018802 0.005211 -0.014339 0.000000 0.000000 0.000000
# 2 0.005211 0.018803 -0.014339 0.000000 0.000000 0.000000
# 3 -0.014339 -0.014339 0.025519 0.000000 0.000000 0.000000
# 4 0.000000 0.000000 0.000000 0.027787 0.000000 0.000000
# 5 0.000000 0.000000 0.000000 0.000000 0.027787 0.000000
# 6 0.000000 0.000000 0.000000 0.000000 0.000000 0.053595
#
#
# Mechanical properties :
#
#
# Convention : Reuss Voigt Hill
#
# Bulk Modulus (GPa) = 61.76878 72.98351 67.37614
# Shear Modulus (GPa) = 22.25947 28.16159 25.21053
#
# Velocity S-wave (km/s) = 3.54233 3.98438 3.76984
# Velocity P-wave (km/s) = 7.17992 7.89363 7.54522
#
# Compressibility (1/GPa) = 0.01618941
#
# Stress axis : x y z
#
# Youngs Moduli (GPa) = 53.18609 53.18395 39.18657
#
# Poissons Ratio (x) = -0.27714 0.56189
# Poissons Ratio (y) = -0.27715 0.56191
# Poissons Ratio (z) = 0.76262 0.76262
#
# Static dielectric constant tensor:
#      x y z
#    x 1.629340 0.000000 0.000000 
#    y 0.000000 1.629340 0.000000 
#    z 0.000000 0.000000 1.547640 
# 
# From -- ./inp_files/2319.got.cif
#   From: 2010.05.17/outbox.ucp.g08.bks.cvg/sg91_2_cif.got.tgz:2319.got - 2010.06.11 10:36:11.
