data_PCOD9548811
_publ_section_title
;
Structure prediction by ZEFSAII (Michael W. Deem and Ramdas Pophale) SiO2 
 PCOD9548811
Probable space group: P 41 2 2
;
_chemical_formula_sum "Si O2"
_cell_formula_units_Z 40
_cell_length_a 11.307957
_cell_length_b 11.307957
_cell_length_c 13.094177
_cell_angle_alpha 90.000000
_cell_angle_beta 90.000000
_cell_angle_gamma 90.000000
_cell_volume 1674.350992
_symmetry_space_group_name_H-M "P 41 2 2"
_symmetry_group_IT_number 91
_symmetry_cell_setting 'tetragonal'
loop_
_space_group_symop_operation_xyz
x,y,z
-y,x,1/4+z
-x,-y,1/2+z
y,-x,3/4+z
x,-y,1/2-z
-x,y,-z
y,x,3/4-z
-y,-x,1/4-z
loop_
_atom_site_type_symbol
_atom_site_label
_atom_site_fract_x
_atom_site_fract_y
_atom_site_fract_z
Si Si1 0.500000 0.106069 0.500000
Si Si2 0.054272 0.705970 0.671826
Si Si3 0.141470 0.604466 0.030621
Si Si4 0.845699 0.845699 0.875000
Si Si5 0.891164 0.897110 0.564862
Si Si6 0.547332 0.256154 0.116344
O O1 0.464615 0.162942 0.389568
O O2 0.612552 0.022747 0.482613
O O3 0.140500 0.787773 0.739473
O O4 0.142659 0.629395 0.605408
O O5 0.957885 0.793261 0.622244
O O6 0.173714 0.743576 0.042329
O O7 0.232304 0.556944 0.945883
O O8 0.000000 0.591376 0.000000
O O9 0.986529 0.833957 0.861609
O O10 0.000000 0.950649 0.500000
O O11 0.625045 0.374956 0.125000
O O12 0.500000 0.244813 0.000000
#
# Coordination Sequence:
#
# PCOD9548811 Si02
#       6
#     4   8   8   4   8   8
#     4  12  26  46  70 110 164 218 272 320 422 508
#     4  12  25  45  72 114 161 214 273 331 419 504
#     4  12  27  49  79 113 167 210 264 340 426 512
#     4  12  26  44  72 124 166 212 252 336 436 516
#     4  12  24  42  72 118 166 207 261 335 410 511
#     4  12  29  54  82 114 152 218 287 358 409 489
#
# _framework density 23.889855000000001
#
# number of rings (size 3 to 8) (size 9 to 14) (size 15 to 20)
#    0.000    0.000    7.000    1.800    5.600    1.600 
#    1.800    0.000    0.000    0.000    0.000    0.000 
#    0.000    0.000    0.000    0.000    0.000    0.000 
#
# Total GULP energy -223213.882982 kJ/mol
# GULP energy per Si atom -5580.347075 kJ/mol
# Density = 2.383548 g / cm^3
# Si number density = 23.889855 Si / 1000 Ang^3
#
#
#
# Elastic Constant Matrix: (Units=GPa)
#
#
# Indices 1 2 3 4 5 6 
#
# 1 124.4854 43.7465 50.8451 0.0000 0.0000 0.0000
# 2 43.7465 124.4850 50.8452 0.0000 0.0000 0.0000
# 3 50.8451 50.8452 126.2601 0.0000 0.0000 0.0000
# 4 0.0000 0.0000 0.0000 43.1295 0.0000 0.0000
# 5 0.0000 0.0000 0.0000 0.0000 43.1290 0.0000
# 6 0.0000 0.0000 0.0000 0.0000 0.0000 19.9767
#
#
#
# Elastic Compliance Matrix: (Units=1/GPa)
#
#
# Indices 1 2 3 4 5 6 
#
# 1 0.010121 -0.002265 -0.003164 0.000000 0.000000 0.000000
# 2 -0.002265 0.010121 -0.003164 0.000000 0.000000 0.000000
# 3 -0.003164 -0.003164 0.010468 0.000000 0.000000 0.000000
# 4 0.000000 0.000000 0.000000 0.023186 0.000000 0.000000
# 5 0.000000 0.000000 0.000000 0.000000 0.023186 0.000000
# 6 0.000000 0.000000 0.000000 0.000000 0.000000 0.050058
#
#
# Mechanical properties :
#
#
# Convention : Reuss Voigt Hill
#
# Bulk Modulus (GPa) = 73.93106 74.01156 73.97131
# Shear Modulus (GPa) = 33.59438 36.56662 35.08050
#
# Velocity S-wave (km/s) = 3.75403 3.91658 3.83616
# Velocity P-wave (km/s) = 7.05720 7.17637 7.11704
#
# Compressibility (1/GPa) = 0.01352611
#
# Stress axis : x y z
#
# Youngs Moduli (GPa) = 98.80332 98.80292 95.52598
#
# Poissons Ratio (x) = 0.22374 0.30223
# Poissons Ratio (y) = 0.22374 0.30223
# Poissons Ratio (z) = 0.31260 0.31260
#
# Static dielectric constant tensor:
#      x y z
#    x 1.908050 0.000000 0.000000 
#    y 0.000000 1.908050 0.000000 
#    z 0.000000 0.000000 2.161400 
# 
# From -- ./inp_files/20678.got.cif
#   From: 2010.05.17/outbox.cif.g08.bks.cpg/sg91_11_cif.got.tgz:20678.got - 2010.06.03 19:20:03.
