data_PCOD9548124
_publ_section_title
;
Structure prediction by ZEFSAII (Michael W. Deem and Ramdas Pophale) SiO2 
 PCOD9548124
Probable space group: P 41 2 2
;
_chemical_formula_sum "Si O2"
_cell_formula_units_Z 48
_cell_length_a 9.069441
_cell_length_b 9.069441
_cell_length_c 31.391889
_cell_angle_alpha 90.000000
_cell_angle_beta 90.000000
_cell_angle_gamma 90.000000
_cell_volume 2582.132297
_symmetry_space_group_name_H-M "P 41 2 2"
_symmetry_group_IT_number 91
_symmetry_cell_setting 'tetragonal'
loop_
_space_group_symop_operation_xyz
x,y,z
-y,x,1/4+z
-x,-y,1/2+z
y,-x,3/4+z
x,-y,1/2-z
-x,y,-z
y,x,3/4-z
-y,-x,1/4-z
loop_
_atom_site_type_symbol
_atom_site_label
_atom_site_fract_x
_atom_site_fract_y
_atom_site_fract_z
Si Si1 0.179519 0.675162 0.244422
Si Si2 0.671032 0.174336 0.665124
Si Si3 0.170694 0.320649 0.083798
Si Si4 0.825350 0.856632 0.328257
Si Si5 0.178445 0.856730 0.330189
Si Si6 0.326835 0.165931 0.006579
O O1 0.197148 0.500000 0.250000
O O2 0.280335 0.738090 0.207224
O O3 0.210592 0.760480 0.288345
O O4 0.006890 0.704184 0.233336
O O5 0.748355 0.251646 0.625000
O O6 0.495357 0.174551 0.660329
O O7 0.732985 0.008507 0.669104
O O8 0.211348 0.237425 0.127550
O O9 0.270594 0.265853 0.044956
O O10 0.005618 0.265885 0.073228
O O11 0.790454 0.790454 0.375000
O O12 0.798813 0.753096 0.287968
O O13 0.001838 0.888540 0.329564
O O14 0.500000 0.181398 0.000000
#
# Coordination Sequence:
#
# PCOD9548124 Si02
#       6
#     8   8   8   8   8   8
#     4  10  21  39  63  91 121 153 193 241 293 350
#     4  12  24  39  60  87 119 156 197 243 293 347
#     4  11  23  38  59  87 116 150 194 243 291 341
#     4   9  19  37  60  86 112 146 196 246 284 335
#     4  10  21  39  63  87 113 152 201 244 288 343
#     4  10  21  38  60  86 118 155 191 233 288 350
#
# _framework density 18.589289000000001
#
# number of rings (size 3 to 8) (size 9 to 14) (size 15 to 20)
#    0.000    1.667    0.000    5.500    0.000   11.333 
#    0.000    2.500    0.000    0.000    0.000    0.000 
#    0.000    0.000    0.000    0.000    0.000    0.000 
#
# Total GULP energy -268285.266138 kJ/mol
# GULP energy per Si atom -5589.276378 kJ/mol
# Density = 1.854698 g / cm^3
# Si number density = 18.589289 Si / 1000 Ang^3
#
#
#
# Elastic Constant Matrix: (Units=GPa)
#
#
# Indices 1 2 3 4 5 6 
#
# 1 93.0884 65.2253 64.2311 0.0000 0.0000 0.0000
# 2 65.2253 93.0892 64.2319 0.0000 0.0000 0.0000
# 3 64.2311 64.2319 120.4887 0.0000 0.0000 0.0000
# 4 0.0000 0.0000 0.0000 7.4235 0.0000 0.0000
# 5 0.0000 0.0000 0.0000 0.0000 7.4230 0.0000
# 6 0.0000 0.0000 0.0000 0.0000 0.0000 1.8869
#
#
#
# Elastic Compliance Matrix: (Units=1/GPa)
#
#
# Indices 1 2 3 4 5 6 
#
# 1 0.023511 -0.012379 -0.005934 0.000000 0.000000 0.000000
# 2 -0.012379 0.023511 -0.005934 0.000000 0.000000 0.000000
# 3 -0.005934 -0.005934 0.014627 0.000000 0.000000 0.000000
# 4 0.000000 0.000000 0.000000 0.134708 0.000000 0.000000
# 5 0.000000 0.000000 0.000000 0.000000 0.134717 0.000000
# 6 0.000000 0.000000 0.000000 0.000000 0.000000 0.529978
#
#
# Mechanical properties :
#
#
# Convention : Reuss Voigt Hill
#
# Bulk Modulus (GPa) = 76.02747 77.11588 76.57168
# Shear Modulus (GPa) = 5.47088 10.87852 8.17470
#
# Velocity S-wave (km/s) = 1.71739 2.42172 2.09930
# Velocity P-wave (km/s) = 6.70223 7.02807 6.86708
#
# Compressibility (1/GPa) = 0.01315314
#
# Stress axis : x y z
#
# Youngs Moduli (GPa) = 42.53398 42.53394 68.36846
#
# Poissons Ratio (x) = 0.52651 0.40571
# Poissons Ratio (y) = 0.52651 0.40573
# Poissons Ratio (z) = 0.25241 0.25242
#
# Static dielectric constant tensor:
#      x y z
#    x 1.617230 0.000000 0.000000 
#    y 0.000000 1.617230 0.000000 
#    z 0.000000 0.000000 1.634520 
# 
# From -- ./inp_files/7927.got.cif
#   From: 2010.05.17/outbox.cif.g08.bks.cpg/sg91_4_cif.got.tgz:7927.got - 2010.06.03 19:20:03.
