data_PCOD9548228
_publ_section_title
;
Structure prediction by ZEFSAII (Michael W. Deem and Ramdas Pophale) SiO2 
 PCOD9548228
Probable space group: P 41 2 2
;
_chemical_formula_sum "Si O2"
_cell_formula_units_Z 48
_cell_length_a 11.086631
_cell_length_b 11.086631
_cell_length_c 16.731763
_cell_angle_alpha 90.000000
_cell_angle_beta 90.000000
_cell_angle_gamma 90.000000
_cell_volume 2056.557660
_symmetry_space_group_name_H-M "P 41 2 2"
_symmetry_group_IT_number 91
_symmetry_cell_setting 'tetragonal'
loop_
_space_group_symop_operation_xyz
x,y,z
-y,x,1/4+z
-x,-y,1/2+z
y,-x,3/4+z
x,-y,1/2-z
-x,y,-z
y,x,3/4-z
-y,-x,1/4-z
loop_
_atom_site_type_symbol
_atom_site_label
_atom_site_fract_x
_atom_site_fract_y
_atom_site_fract_z
Si Si1 0.039497 0.872771 0.822123
Si Si2 0.801684 0.542631 0.662227
Si Si3 0.756834 0.993181 0.089701
Si Si4 0.369125 0.988847 0.159732
Si Si5 0.563912 0.407480 0.914948
Si Si6 0.833951 0.447775 0.158047
O O1 0.166411 0.939271 0.837330
O O2 0.001563 0.854961 0.730863
O O3 0.040258 0.735646 0.854069
O O4 0.938582 0.938582 0.875000
O O5 0.756575 0.500000 0.750000
O O6 0.902132 0.646219 0.678959
O O7 0.862150 0.425796 0.619514
O O8 0.704279 0.604607 0.603285
O O9 0.689743 0.122254 0.094677
O O10 0.325566 0.000000 0.250000
O O11 0.482674 0.075838 0.149540
O O12 0.533679 0.533679 0.875000
O O13 0.489139 0.296507 0.877641
O O14 0.500000 0.414164 0.000000
O O15 0.845711 0.500000 0.250000
#
# Coordination Sequence:
#
# PCOD9548228 Si02
#       6
#     8   8   8   8   8   8
#     4  12  24  42  65 105 142 184 240 298 364 432
#     4  11  23  47  75 104 143 196 246 304 378 451
#     4  11  23  44  73 101 140 190 242 302 368 440
#     4  11  22  40  69 103 139 180 241 300 362 440
#     4  11  26  43  68 104 145 185 242 304 366 447
#     4  10  21  45  70  92 135 186 231 291 367 433
#
# _framework density 23.339973000000001
#
# number of rings (size 3 to 8) (size 9 to 14) (size 15 to 20)
#    0.000    1.000    3.333    4.000    4.667    1.333 
#    3.000    6.667    0.000    0.000    0.000    0.000 
#    0.000    0.000    0.000    0.000    0.000    0.000 
#
# Total GULP energy -267920.602580 kJ/mol
# GULP energy per Si atom -5581.679220 kJ/mol
# Density = 2.328685 g / cm^3
# Si number density = 23.339973 Si / 1000 Ang^3
#
#
#
# Elastic Constant Matrix: (Units=GPa)
#
#
# Indices 1 2 3 4 5 6 
#
# 1 88.8261 33.1427 24.2591 0.0000 0.0000 0.0000
# 2 33.1427 88.8261 24.2591 0.0000 0.0000 0.0000
# 3 24.2591 24.2591 82.3648 0.0000 0.0000 0.0000
# 4 0.0000 0.0000 0.0000 26.0792 0.0000 0.0000
# 5 0.0000 0.0000 0.0000 0.0000 26.0792 0.0000
# 6 0.0000 0.0000 0.0000 0.0000 0.0000 47.3153
#
#
#
# Elastic Compliance Matrix: (Units=1/GPa)
#
#
# Indices 1 2 3 4 5 6 
#
# 1 0.013623 -0.004336 -0.002735 0.000000 0.000000 0.000000
# 2 -0.004336 0.013623 -0.002735 0.000000 0.000000 0.000000
# 3 -0.002735 -0.002735 0.013752 0.000000 0.000000 0.000000
# 4 0.000000 0.000000 0.000000 0.038345 0.000000 0.000000
# 5 0.000000 0.000000 0.000000 0.000000 0.038345 0.000000
# 6 0.000000 0.000000 0.000000 0.000000 0.000000 0.021135
#
#
# Mechanical properties :
#
#
# Convention : Reuss Voigt Hill
#
# Bulk Modulus (GPa) = 46.76174 47.03762 46.89968
# Shear Modulus (GPa) = 30.19991 31.78516 30.99253
#
# Velocity S-wave (km/s) = 3.60100 3.69431 3.64795
# Velocity P-wave (km/s) = 6.11295 6.19631 6.15477
#
# Compressibility (1/GPa) = 0.02138501
#
# Stress axis : x y z
#
# Youngs Moduli (GPa) = 73.40643 73.40643 72.71480
#
# Poissons Ratio (x) = 0.31828 0.19890
# Poissons Ratio (y) = 0.31828 0.19890
# Poissons Ratio (z) = 0.20079 0.20079
#
# Static dielectric constant tensor:
#      x y z
#    x 1.889120 0.000000 0.000000 
#    y 0.000000 1.889120 0.000000 
#    z 0.000000 0.000000 1.978640 
# 
# From -- ./inp_files/16916.got.cif
#   From: 2010.05.17/outbox.cif.g08.bks.cpg/sg91_9_cif.got.tgz:16916.got - 2010.06.03 19:20:03.
