data_PCOD9548982
_publ_section_title
;
Structure prediction by ZEFSAII (Michael W. Deem and Ramdas Pophale) SiO2 
 PCOD9548982
Probable space group: P 41 21 2
;
_chemical_formula_sum "Si O2"
_cell_formula_units_Z 40
_cell_length_a 14.786000
_cell_length_b 14.786000
_cell_length_c 9.263985
_cell_angle_alpha 90.000000
_cell_angle_beta 90.000000
_cell_angle_gamma 90.000000
_cell_volume 2025.346095
_symmetry_space_group_name_H-M "P 41 21 2"
_symmetry_group_IT_number 92
_symmetry_cell_setting 'tetragonal'
loop_
_space_group_symop_operation_xyz
x,y,z
1/2-y,1/2+x,1/4+z
-x,-y,1/2+z
1/2+y,1/2-x,3/4+z
1/2+x,1/2-y,3/4-z
1/2-x,1/2+y,1/4-z
y,x,-z
-y,-x,1/2-z
loop_
_atom_site_type_symbol
_atom_site_label
_atom_site_fract_x
_atom_site_fract_y
_atom_site_fract_z
Si Si1 0.894561 0.043776 0.468935
Si Si2 0.216121 0.497014 0.107727
Si Si3 0.695604 0.832085 0.445642
Si Si4 0.421916 0.669732 0.973407
Si Si5 0.698914 0.483648 0.319294
O O1 0.929631 0.142627 0.512934
O O2 0.816020 0.017217 0.578268
O O3 0.859807 0.012042 0.310881
O O4 0.978804 0.978804 0.500000
O O5 0.185318 0.590659 0.180516
O O6 0.170019 0.400168 0.136838
O O7 0.223644 0.499841 0.934690
O O8 0.734640 0.734640 0.500000
O O9 0.775479 0.864188 0.338955
O O10 0.369570 0.583612 0.906060
O O11 0.440011 0.728996 0.831303
#
# Coordination Sequence:
#
# PCOD9548982 Si02
#       5
#     8   8   8   8   8
#     4  11  18  30  55  92 124 150 195 241 320 377
#     4  11  23  39  62  88 119 174 207 249 308 374
#     4  11  22  44  63  87 127 164 214 257 309 377
#     4  10  20  32  55  87 127 152 181 264 312 365
#     4  11  19  31  57  89 121 156 197 249 318 361
#
# _framework density 19.749711999999999
#
# number of rings (size 3 to 8) (size 9 to 14) (size 15 to 20)
#    0.000    1.200    6.000    3.600    0.000    0.000 
#    0.000    6.000    8.800    0.000    0.000    0.000 
#    0.000    0.000    0.000    0.000    0.000    0.000 
#
# Total GULP energy -222731.430985 kJ/mol
# GULP energy per Si atom -5568.285775 kJ/mol
# Density = 1.970476 g / cm^3
# Si number density = 19.749712 Si / 1000 Ang^3
#
#
#
# Elastic Constant Matrix: (Units=GPa)
#
#
# Indices 1 2 3 4 5 6 
#
# 1 35.2615 29.0432 9.7427 0.0000 0.0000 0.0000
# 2 29.0432 35.2615 9.7427 0.0000 0.0000 0.0000
# 3 9.7427 9.7427 115.4530 0.0000 0.0000 0.0000
# 4 0.0000 0.0000 0.0000 20.5690 0.0000 0.0000
# 5 0.0000 0.0000 0.0000 0.0000 20.5690 0.0000
# 6 0.0000 0.0000 0.0000 0.0000 0.0000 21.4272
#
#
#
# Elastic Compliance Matrix: (Units=1/GPa)
#
#
# Indices 1 2 3 4 5 6 
#
# 1 0.088386 -0.072427 -0.001347 0.000000 0.000000 0.000000
# 2 -0.072427 0.088386 -0.001347 0.000000 0.000000 0.000000
# 3 -0.001347 -0.001347 0.008889 0.000000 0.000000 0.000000
# 4 0.000000 0.000000 0.000000 0.048617 0.000000 0.000000
# 5 0.000000 0.000000 0.000000 0.000000 0.048617 0.000000
# 6 0.000000 0.000000 0.000000 0.000000 0.000000 0.046670
#
#
# Mechanical properties :
#
#
# Convention : Reuss Voigt Hill
#
# Bulk Modulus (GPa) = 28.23265 31.44815 29.84040
# Shear Modulus (GPa) = 10.17061 21.67619 15.92340
#
# Velocity S-wave (km/s) = 2.27177 3.31651 2.84255
# Velocity P-wave (km/s) = 4.60516 5.53386 5.09073
#
# Compressibility (1/GPa) = 0.03541998
#
# Stress axis : x y z
#
# Youngs Moduli (GPa) = 11.31398 11.31398 112.50078
#
# Poissons Ratio (x) = 0.81944 0.15151
# Poissons Ratio (y) = 0.81944 0.15151
# Poissons Ratio (z) = 0.01524 0.01524
#
# Static dielectric constant tensor:
#      x y z
#    x 1.727180 0.000000 0.000000 
#    y 0.000000 1.727180 0.000000 
#    z 0.000000 0.000000 1.768260 
# 
# From -- ./inp_files/1321.got.cif
#   From: 2010.05.17/outbox.cif.g08.bks.cpg/sg92_1_cif.got.tgz:1321.got - 2010.06.03 19:35:17.
