data_PCOD9548464
_publ_section_title
;
Structure prediction by ZEFSAII (Michael W. Deem and Ramdas Pophale) SiO2 
 PCOD9548464
Probable space group: P 41 2 2
;
_chemical_formula_sum "Si O2"
_cell_formula_units_Z 24
_cell_length_a 11.184290
_cell_length_b 11.184290
_cell_length_c 6.940182
_cell_angle_alpha 90.000000
_cell_angle_beta 90.000000
_cell_angle_gamma 90.000000
_cell_volume 868.135865
_symmetry_space_group_name_H-M "P 41 2 2"
_symmetry_group_IT_number 91
_symmetry_cell_setting 'tetragonal'
loop_
_space_group_symop_operation_xyz
x,y,z
-y,x,1/4+z
-x,-y,1/2+z
y,-x,3/4+z
x,-y,1/2-z
-x,y,-z
y,x,3/4-z
-y,-x,1/4-z
loop_
_atom_site_type_symbol
_atom_site_label
_atom_site_fract_x
_atom_site_fract_y
_atom_site_fract_z
Si Si1 0.836431 0.625029 0.229355
Si Si2 0.751553 0.630775 0.666104
Si Si3 0.188652 0.036020 0.523438
O O1 0.908241 0.500000 0.250000
O O2 0.779585 0.620879 0.439969
O O3 0.726205 0.642227 0.081265
O O4 0.916610 0.742540 0.202906
O O5 0.733579 0.500000 0.750000
O O6 0.868476 0.703418 0.732633
O O7 0.090933 0.090933 0.375000
O O8 0.000000 0.843917 0.500000
#
# Coordination Sequence:
#
# PCOD9548464 Si02
#       3
#     8   8   8
#     4  10  23  45  77 118 169 227 296 361 448 542
#     4  10  23  44  76 117 167 228 293 364 445 529
#     4  10  23  46  81 121 174 229 301 374 455 549
#
# _framework density 27.645443
#
# number of rings (size 3 to 8) (size 9 to 14) (size 15 to 20)
#    0.000    2.000    0.000    1.000    4.667    1.333 
#    0.000    6.667   36.667    6.000    0.000    0.000 
#    0.000    0.000    0.000    0.000    0.000    0.000 
#
# Total GULP energy -134021.025851 kJ/mol
# GULP energy per Si atom -5584.209410 kJ/mol
# Density = 2.758252 g / cm^3
# Si number density = 27.645443 Si / 1000 Ang^3
#
#
#
# Elastic Constant Matrix: (Units=GPa)
#
#
# Indices 1 2 3 4 5 6 
#
# 1 184.8530 106.9676 104.0982 0.0000 0.0000 0.0000
# 2 106.9676 184.8530 104.0982 0.0000 0.0000 0.0000
# 3 104.0982 104.0982 153.3944 0.0000 0.0000 0.0000
# 4 0.0000 0.0000 0.0000 41.7592 0.0000 0.0000
# 5 0.0000 0.0000 0.0000 0.0000 41.7592 0.0000
# 6 0.0000 0.0000 0.0000 0.0000 0.0000 35.8072
#
#
#
# Elastic Compliance Matrix: (Units=1/GPa)
#
#
# Indices 1 2 3 4 5 6 
#
# 1 0.009741 -0.003098 -0.004508 0.000000 0.000000 0.000000
# 2 -0.003098 0.009741 -0.004508 0.000000 0.000000 0.000000
# 3 -0.004508 -0.004508 0.012638 0.000000 0.000000 0.000000
# 4 0.000000 0.000000 0.000000 0.023947 0.000000 0.000000
# 5 0.000000 0.000000 0.000000 0.000000 0.023947 0.000000
# 6 0.000000 0.000000 0.000000 0.000000 0.000000 0.027927
#
#
# Mechanical properties :
#
#
# Convention : Reuss Voigt Hill
#
# Bulk Modulus (GPa) = 126.72158 128.15872 127.44015
# Shear Modulus (GPa) = 37.09169 37.72753 37.40961
#
# Velocity S-wave (km/s) = 3.66689 3.69818 3.68257
# Velocity P-wave (km/s) = 7.99160 8.04326 8.01747
#
# Compressibility (1/GPa) = 0.00789132
#
# Stress axis : x y z
#
# Youngs Moduli (GPa) = 102.65638 102.65638 79.12655
#
# Poissons Ratio (x) = 0.31804 0.35672
# Poissons Ratio (y) = 0.31804 0.35672
# Poissons Ratio (z) = 0.46280 0.46280
#
# Static dielectric constant tensor:
#      x y z
#    x 2.177840 0.000000 0.000000 
#    y 0.000000 2.177840 0.000000 
#    z 0.000000 0.000000 2.323830 
# 
# From -- ./inp_files/9315.got.cif
#   From: 2010.05.17/outbox.cif.g08.bks.cpg/sg91_5_cif.got.tgz:9315.got - 2010.06.03 19:20:03.
