data_PCOD9548663
_publ_section_title
;
Structure prediction by ZEFSAII (Michael W. Deem and Ramdas Pophale) SiO2 
 PCOD9548663
Probable space group: P 41 2 2
;
_chemical_formula_sum "Si O2"
_cell_formula_units_Z 48
_cell_length_a 8.875396
_cell_length_b 8.875396
_cell_length_c 29.104192
_cell_angle_alpha 90.000000
_cell_angle_beta 90.000000
_cell_angle_gamma 90.000000
_cell_volume 2292.614451
_symmetry_space_group_name_H-M "P 41 2 2"
_symmetry_group_IT_number 91
_symmetry_cell_setting 'tetragonal'
loop_
_space_group_symop_operation_xyz
x,y,z
-y,x,1/4+z
-x,-y,1/2+z
y,-x,3/4+z
x,-y,1/2-z
-x,y,-z
y,x,3/4-z
-y,-x,1/4-z
loop_
_atom_site_type_symbol
_atom_site_label
_atom_site_fract_x
_atom_site_fract_y
_atom_site_fract_z
Si Si1 0.181419 0.647344 0.881014
Si Si2 0.335558 0.335558 0.875000
Si Si3 0.162238 0.581387 0.123185
Si Si4 0.500000 0.416003 0.500000
Si Si5 0.170413 0.661195 0.722394
Si Si6 0.175529 0.675971 0.298737
Si Si7 0.616128 0.726167 0.203104
O O1 0.285904 0.501543 0.893148
O O2 0.184485 0.767788 0.921796
O O3 0.257346 0.707865 0.835165
O O4 0.010309 0.618686 0.869474
O O5 0.327597 0.225474 0.919476
O O6 0.283360 0.716641 0.125000
O O7 0.191379 0.460707 0.163980
O O8 0.170273 0.503816 0.072810
O O9 0.365176 0.303253 0.512235
O O10 0.430694 0.526342 0.461725
O O11 0.179034 0.500000 0.750000
O O12 0.291348 0.761718 0.750787
O O13 0.991518 0.693360 0.721026
#
# Coordination Sequence:
#
# PCOD9548663 Si02
#       7
#     8   4   8   4   8   8   8
#     4  11  23  42  65 100 140 178 227 291 345 417
#     4  12  22  40  70 100 134 178 234 292 348 404
#     4  11  23  43  66 101 140 179 227 285 350 421
#     4  12  20  36  68 104 128 172 242 296 330 398
#     4  12  22  41  67 101 139 177 226 290 352 416
#     4  11  23  39  68  99 133 185 229 281 361 415
#     4  11  22  37  70  99 132 174 231 289 340 400
#
# _framework density 20.936793000000002
#
# number of rings (size 3 to 8) (size 9 to 14) (size 15 to 20)
#    0.000    0.667    6.667    2.000    2.333    0.000 
#    1.500    3.333    0.000    4.000    0.000    0.000 
#    0.000    0.000    0.000    0.000    0.000    0.000 
#
# Total GULP energy -267423.080403 kJ/mol
# GULP energy per Si atom -5571.314175 kJ/mol
# Density = 2.088914 g / cm^3
# Si number density = 20.936793 Si / 1000 Ang^3
#
#
#
# Elastic Constant Matrix: (Units=GPa)
#
#
# Indices 1 2 3 4 5 6 
#
# 1 73.1545 5.6328 12.5209 0.0000 0.0000 0.0000
# 2 5.6328 73.1553 12.5209 0.0000 0.0000 0.0000
# 3 12.5209 12.5209 76.2373 0.0000 0.0000 0.0000
# 4 0.0000 0.0000 0.0000 20.2513 0.0000 0.0000
# 5 0.0000 0.0000 0.0000 0.0000 20.2514 0.0000
# 6 0.0000 0.0000 0.0000 0.0000 0.0000 7.6463
#
#
#
# Elastic Compliance Matrix: (Units=1/GPa)
#
#
# Indices 1 2 3 4 5 6 
#
# 1 0.014101 -0.000709 -0.002199 0.000000 0.000000 0.000000
# 2 -0.000709 0.014101 -0.002199 0.000000 0.000000 0.000000
# 3 -0.002199 -0.002199 0.013839 0.000000 0.000000 0.000000
# 4 0.000000 0.000000 0.000000 0.049380 0.000000 0.000000
# 5 0.000000 0.000000 0.000000 0.000000 0.049379 0.000000
# 6 0.000000 0.000000 0.000000 0.000000 0.000000 0.130782
#
#
# Mechanical properties :
#
#
# Convention : Reuss Voigt Hill
#
# Bulk Modulus (GPa) = 31.42210 31.54403 31.48307
# Shear Modulus (GPa) = 17.09950 22.42130 19.76040
#
# Velocity S-wave (km/s) = 2.86093 3.27602 3.07549
# Velocity P-wave (km/s) = 5.09450 5.42298 5.26130
#
# Compressibility (1/GPa) = 0.03182473
#
# Stress axis : x y z
#
# Youngs Moduli (GPa) = 70.91826 70.91897 72.25761
#
# Poissons Ratio (x) = 0.05030 0.15892
# Poissons Ratio (y) = 0.05030 0.15892
# Poissons Ratio (z) = 0.15597 0.15598
#
# Static dielectric constant tensor:
#      x y z
#    x 1.783910 0.000000 0.000000 
#    y 0.000000 1.783910 0.000000 
#    z 0.000000 0.000000 1.813500 
# 
# From -- ./inp_files/8040.got.cif
#   From: 2010.05.17/outbox.cif.g08.bks.cpg/sg91_5_cif.got.tgz:8040.got - 2010.06.03 19:20:03.
