data_PCOD9548369
_publ_section_title
;
Structure prediction by ZEFSAII (Michael W. Deem and Ramdas Pophale) SiO2 
 PCOD9548369
Probable space group: P 41 2 2
;
_chemical_formula_sum "Si O2"
_cell_formula_units_Z 40
_cell_length_a 18.480033
_cell_length_b 18.480033
_cell_length_c 5.371938
_cell_angle_alpha 90.000000
_cell_angle_beta 90.000000
_cell_angle_gamma 90.000000
_cell_volume 1834.579247
_symmetry_space_group_name_H-M "P 41 2 2"
_symmetry_group_IT_number 91
_symmetry_cell_setting 'tetragonal'
loop_
_space_group_symop_operation_xyz
x,y,z
-y,x,1/4+z
-x,-y,1/2+z
y,-x,3/4+z
x,-y,1/2-z
-x,y,-z
y,x,3/4-z
-y,-x,1/4-z
loop_
_atom_site_type_symbol
_atom_site_label
_atom_site_fract_x
_atom_site_fract_y
_atom_site_fract_z
Si Si1 0.654506 0.654506 0.875000
Si Si2 0.000000 0.268726 0.000000
Si Si3 0.500000 0.715518 0.000000
Si Si4 0.500000 0.809864 0.500000
Si Si5 0.722794 0.722794 0.375000
Si Si6 0.887029 0.000000 0.750000
Si Si7 0.107930 0.777920 0.107005
Si Si8 0.342450 0.127888 0.018194
O O1 0.669944 0.570838 0.818804
O O2 0.683175 0.694675 0.625924
O O3 0.949304 0.321673 0.158251
O O4 0.056847 0.221031 0.154759
O O5 0.512436 0.763128 0.248969
O O6 0.573637 0.854718 0.531772
O O7 0.700967 0.807582 0.374613
O O8 0.827845 0.061617 0.837162
O O9 0.944340 0.055661 0.625000
O O10 0.183787 0.816214 0.125000
O O11 0.122594 0.695852 0.035674
#
# Coordination Sequence:
#
# PCOD9548369 Si02
#       8
#     4   4   4   4   4   4   8   8
#     4  12  24  48  79 118 158 199 254 318 376 478
#     4  12  26  47  67 106 148 190 260 336 384 473
#     4  12  24  50  76 122 156 200 252 318 388 464
#     4  12  28  46  80 106 158 200 262 322 384 464
#     4  12  26  44  81 112 150 201 266 314 382 460
#     4  10  22  43  63  94 142 184 228 302 386 471
#     4  11  25  47  73 105 146 191 258 318 395 467
#     4  12  26  48  71 109 143 202 251 328 384 461
#
# _framework density 21.803363999999998
#
# number of rings (size 3 to 8) (size 9 to 14) (size 15 to 20)
#    0.000    0.400    6.000    1.200    7.000    3.200 
#    5.400    2.000    0.000    0.000    0.000    0.000 
#    0.000    0.000    0.000    0.000    0.000    0.000 
#
# Total GULP energy -223109.132824 kJ/mol
# GULP energy per Si atom -5577.728321 kJ/mol
# Density = 2.175374 g / cm^3
# Si number density = 21.803364 Si / 1000 Ang^3
#
#
#
# Elastic Constant Matrix: (Units=GPa)
#
#
# Indices 1 2 3 4 5 6 
#
# 1 129.6156 45.2666 35.7714 0.0000 0.0000 0.0000
# 2 45.2666 129.6175 35.7712 0.0000 0.0000 0.0000
# 3 35.7714 35.7712 120.8543 0.0000 0.0000 0.0000
# 4 0.0000 0.0000 0.0000 31.9103 0.0000 0.0000
# 5 0.0000 0.0000 0.0000 0.0000 31.9099 0.0000
# 6 0.0000 0.0000 0.0000 0.0000 0.0000 35.4489
#
#
#
# Elastic Compliance Matrix: (Units=1/GPa)
#
#
# Indices 1 2 3 4 5 6 
#
# 1 0.009181 -0.002675 -0.001926 0.000000 0.000000 0.000000
# 2 -0.002675 0.009181 -0.001926 0.000000 0.000000 0.000000
# 3 -0.001926 -0.001926 0.009414 0.000000 0.000000 0.000000
# 4 0.000000 0.000000 0.000000 0.031338 0.000000 0.000000
# 5 0.000000 0.000000 0.000000 0.000000 0.031338 0.000000
# 6 0.000000 0.000000 0.000000 0.000000 0.000000 0.028210
#
#
# Mechanical properties :
#
#
# Convention : Reuss Voigt Hill
#
# Bulk Modulus (GPa) = 67.91872 68.18956 68.05414
# Shear Modulus (GPa) = 36.59753 37.40570 37.00162
#
# Velocity S-wave (km/s) = 4.10143 4.14647 4.12401
# Velocity P-wave (km/s) = 7.32442 7.36661 7.34554
#
# Compressibility (1/GPa) = 0.01472348
#
# Stress axis : x y z
#
# Youngs Moduli (GPa) = 108.92419 108.92608 106.22066
#
# Poissons Ratio (x) = 0.29135 0.20455
# Poissons Ratio (y) = 0.29135 0.20454
# Poissons Ratio (z) = 0.20975 0.20975
#
# Static dielectric constant tensor:
#      x y z
#    x 1.797170 0.000000 0.000000 
#    y 0.000000 1.797170 0.000000 
#    z 0.000000 0.000000 2.095800 
# 
# From -- ./inp_files/14173.got.cif
#   From: 2010.05.17/outbox.cif.g08.bks.cpg/sg91_8_cif.got.tgz:14173.got - 2010.06.03 19:20:03.
