data_PCOD9548970
_publ_section_title
;
Structure prediction by ZEFSAII (Michael W. Deem and Ramdas Pophale) SiO2 
 PCOD9548970
Probable space group: P 41 21 2
;
_chemical_formula_sum "Si O2"
_cell_formula_units_Z 64
_cell_length_a 10.546928
_cell_length_b 10.546928
_cell_length_c 22.379043
_cell_angle_alpha 90.000000
_cell_angle_beta 90.000000
_cell_angle_gamma 90.000000
_cell_volume 2489.393053
_symmetry_space_group_name_H-M "P 41 21 2"
_symmetry_group_IT_number 92
_symmetry_cell_setting 'tetragonal'
loop_
_space_group_symop_operation_xyz
x,y,z
1/2-y,1/2+x,1/4+z
-x,-y,1/2+z
1/2+y,1/2-x,3/4+z
1/2+x,1/2-y,3/4-z
1/2-x,1/2+y,1/4-z
y,x,-z
-y,-x,1/2-z
loop_
_atom_site_type_symbol
_atom_site_label
_atom_site_fract_x
_atom_site_fract_y
_atom_site_fract_z
Si Si1 0.693862 0.887677 0.521309
Si Si2 0.211131 0.345693 0.270045
Si Si3 0.568225 0.188385 0.606073
Si Si4 0.477087 0.783951 0.403877
Si Si5 0.452196 0.069529 0.319387
Si Si6 0.813501 0.859974 0.867038
Si Si7 0.033993 0.733366 0.033732
Si Si8 0.051637 0.006222 0.813539
O O1 0.709634 0.002877 0.474773
O O2 0.748119 0.931819 0.585992
O O3 0.544620 0.882331 0.533736
O O4 0.765840 0.765840 0.500000
O O5 0.121564 0.314495 0.213021
O O6 0.165318 0.268500 0.328063
O O7 0.351850 0.312268 0.246314
O O8 0.683252 0.126546 0.644832
O O9 0.499029 0.323942 0.605868
O O10 0.482474 0.063589 0.609162
O O11 0.372611 0.888081 0.426236
O O12 0.465140 0.658229 0.443432
O O13 0.337312 0.131341 0.353487
O O14 0.520933 0.156684 0.271667
O O15 0.807898 0.922717 0.933185
O O16 0.922386 0.951077 0.840366
O O17 0.063364 0.936637 0.750000
#
# Coordination Sequence:
#
# PCOD9548970 Si02
#       8
#     8   8   8   8   8   8   8   8
#     4  10  21  40  58  89 125 163 200 273 320 386
#     4   9  19  36  58  80 123 161 199 255 323 364
#     4  10  19  39  53  87 134 167 200 271 324 384
#     4  10  21  35  59  89 128 168 206 267 328 384
#     4   9  21  36  59  84 125 167 205 256 321 381
#     4  11  19  35  58  92 113 166 210 251 308 394
#     4  11  18  36  58  90 117 168 204 256 306 396
#     4  12  22  34  59  96 127 166 214 268 331 387
#
# _framework density 25.709081000000001
#
# number of rings (size 3 to 8) (size 9 to 14) (size 15 to 20)
#    0.000    2.000    5.000    2.250    0.000    2.500 
#    0.000    1.250    2.750    3.000    0.000    0.000 
#    0.000    0.000    0.000    0.000    0.000    0.000 
#
# Total GULP energy -356927.305397 kJ/mol
# GULP energy per Si atom -5576.989147 kJ/mol
# Density = 2.565057 g / cm^3
# Si number density = 25.709081 Si / 1000 Ang^3
#
#
#
# Elastic Constant Matrix: (Units=GPa)
#
#
# Indices 1 2 3 4 5 6 
#
# 1 59.6245 1.5349 11.4746 0.0000 0.0000 0.0000
# 2 1.5349 59.6246 11.4746 0.0000 0.0000 0.0000
# 3 11.4746 11.4746 24.8866 0.0000 0.0000 0.0000
# 4 0.0000 0.0000 0.0000 26.0688 0.0000 0.0000
# 5 0.0000 0.0000 0.0000 0.0000 26.0689 0.0000
# 6 0.0000 0.0000 0.0000 0.0000 0.0000 5.0872
#
#
#
# Elastic Compliance Matrix: (Units=1/GPa)
#
#
# Indices 1 2 3 4 5 6 
#
# 1 0.018493 0.001278 -0.009116 0.000000 0.000000 0.000000
# 2 0.001278 0.018493 -0.009116 0.000000 0.000000 0.000000
# 3 -0.009116 -0.009116 0.048589 0.000000 0.000000 0.000000
# 4 0.000000 0.000000 0.000000 0.038360 0.000000 0.000000
# 5 0.000000 0.000000 0.000000 0.000000 0.038360 0.000000
# 6 0.000000 0.000000 0.000000 0.000000 0.000000 0.196573
#
#
# Mechanical properties :
#
#
# Convention : Reuss Voigt Hill
#
# Bulk Modulus (GPa) = 19.35466 21.45597 20.40531
# Shear Modulus (GPa) = 12.19517 19.42175 15.80846
#
# Velocity S-wave (km/s) = 2.18033 2.75151 2.48240
# Velocity P-wave (km/s) = 3.72600 4.29630 4.02128
#
# Compressibility (1/GPa) = 0.05166714
#
# Stress axis : x y z
#
# Youngs Moduli (GPa) = 54.07428 54.07440 20.58091
#
# Poissons Ratio (x) = -0.06912 0.18762
# Poissons Ratio (y) = -0.06912 0.18762
# Poissons Ratio (z) = 0.49295 0.49295
#
# Static dielectric constant tensor:
#      x y z
#    x 2.083030 0.000000 0.000000 
#    y 0.000000 2.083030 0.000000 
#    z 0.000000 0.000000 2.160350 
# 
# From -- ./inp_files/4239.got.cif
#   From: 2010.05.17/outbox.cif.g08.bks.cpg/sg92_3_cif.got.tgz:4239.got - 2010.06.03 19:35:17.
