data_PCOD9548319
_publ_section_title
;
Structure prediction by ZEFSAII (Michael W. Deem and Ramdas Pophale) SiO2 
 PCOD9548319
Probable space group: P 41 2 2
;
_chemical_formula_sum "Si O2"
_cell_formula_units_Z 56
_cell_length_a 14.952450
_cell_length_b 14.952450
_cell_length_c 11.549161
_cell_angle_alpha 90.000000
_cell_angle_beta 90.000000
_cell_angle_gamma 90.000000
_cell_volume 2582.112460
_symmetry_space_group_name_H-M "P 41 2 2"
_symmetry_group_IT_number 91
_symmetry_cell_setting 'tetragonal'
loop_
_space_group_symop_operation_xyz
x,y,z
-y,x,1/4+z
-x,-y,1/2+z
y,-x,3/4+z
x,-y,1/2-z
-x,y,-z
y,x,3/4-z
-y,-x,1/4-z
loop_
_atom_site_type_symbol
_atom_site_label
_atom_site_fract_x
_atom_site_fract_y
_atom_site_fract_z
Si Si1 0.137510 0.597988 0.002694
Si Si2 0.397884 0.900545 0.738643
Si Si3 0.863907 0.335476 0.261201
Si Si4 0.596459 0.707591 0.942081
Si Si5 0.976453 0.209515 0.747195
Si Si6 0.954408 0.954408 0.375000
Si Si7 0.238107 0.000000 0.250000
Si Si8 0.264611 0.794044 0.894060
O O1 0.092922 0.501940 0.021265
O O2 0.158205 0.597490 0.865561
O O3 0.213046 0.599911 0.098846
O O4 0.082097 0.691049 0.011029
O O5 0.378463 0.855755 0.614307
O O6 0.344756 0.841953 0.828803
O O7 0.359434 0.000000 0.750000
O O8 0.967716 0.302492 0.260858
O O9 0.802648 0.250864 0.300922
O O10 0.616025 0.616025 0.875000
O O11 0.500000 0.708489 0.000000
O O12 0.681422 0.724270 0.026492
O O13 0.023726 0.148363 0.843024
O O14 0.993226 0.178215 0.614745
O O15 0.872424 0.218014 0.780376
O O16 0.000000 0.975527 0.500000
#
# Coordination Sequence:
#
# PCOD9548319 Si02
#       8
#     8   8   8   8   8   4   4   8
#     4  11  22  42  68 107 140 180 223 301 369 441
#     4  12  24  40  68 104 146 188 235 290 370 434
#     4  11  25  41  65 100 146 186 240 287 354 431
#     4  12  25  48  79 107 140 179 238 301 378 456
#     4  11  25  43  69  98 140 190 248 305 356 430
#     4  12  30  50  66  90 138 202 262 316 366 422
#     4  10  22  40  70 108 142 178 238 310 380 440
#     4  12  24  43  73 103 139 193 243 300 359 427
#
# _framework density 21.687670000000001
#
# number of rings (size 3 to 8) (size 9 to 14) (size 15 to 20)
#    0.000    0.571    6.429    1.714    5.000    0.000 
#    3.857    0.000    3.143    0.000    0.000    0.000 
#    0.000    0.000    0.000    0.000    0.000    0.000 
#
# Total GULP energy -312463.441955 kJ/mol
# GULP energy per Si atom -5579.704321 kJ/mol
# Density = 2.163831 g / cm^3
# Si number density = 21.687670 Si / 1000 Ang^3
#
#
#
# Elastic Constant Matrix: (Units=GPa)
#
#
# Indices 1 2 3 4 5 6 
#
# 1 77.0601 35.8167 28.9828 0.0000 0.0000 0.0000
# 2 35.8167 77.0601 28.9828 0.0000 0.0000 0.0000
# 3 28.9828 28.9828 120.3369 0.0000 0.0000 0.0000
# 4 0.0000 0.0000 0.0000 27.5564 0.0000 0.0000
# 5 0.0000 0.0000 0.0000 0.0000 27.5564 0.0000
# 6 0.0000 0.0000 0.0000 0.0000 0.0000 8.9948
#
#
#
# Elastic Compliance Matrix: (Units=1/GPa)
#
#
# Indices 1 2 3 4 5 6 
#
# 1 0.017178 -0.007068 -0.002435 0.000000 0.000000 0.000000
# 2 -0.007068 0.017178 -0.002435 0.000000 0.000000 0.000000
# 3 -0.002435 -0.002435 0.009483 0.000000 0.000000 0.000000
# 4 0.000000 0.000000 0.000000 0.036289 0.000000 0.000000
# 5 0.000000 0.000000 0.000000 0.000000 0.036289 0.000000
# 6 0.000000 0.000000 0.000000 0.000000 0.000000 0.111176
#
#
# Mechanical properties :
#
#
# Convention : Reuss Voigt Hill
#
# Bulk Modulus (GPa) = 50.09371 51.33574 50.71472
# Shear Modulus (GPa) = 19.37060 24.86650 22.11855
#
# Velocity S-wave (km/s) = 2.99182 3.38978 3.19700
# Velocity P-wave (km/s) = 5.92306 6.24841 6.08791
#
# Compressibility (1/GPa) = 0.01996259
#
# Stress axis : x y z
#
# Youngs Moduli (GPa) = 58.21424 58.21424 105.45339
#
# Poissons Ratio (x) = 0.41148 0.25676
# Poissons Ratio (y) = 0.41148 0.25676
# Poissons Ratio (z) = 0.14174 0.14174
#
# Static dielectric constant tensor:
#      x y z
#    x 1.836040 0.000000 0.000000 
#    y 0.000000 1.836040 0.000000 
#    z 0.000000 0.000000 1.849380 
# 
# From -- ./inp_files/20347.got.cif
#   From: 2010.05.17/outbox.cif.g08.bks.cpg/sg91_11_cif.got.tgz:20347.got - 2010.06.03 19:20:03.
