data_PCOD9548072
_publ_section_title
;
Structure prediction by ZEFSAII (Michael W. Deem and Ramdas Pophale) SiO2 
 PCOD9548072
Probable space group: P 41 2 2
;
_chemical_formula_sum "Si O2"
_cell_formula_units_Z 48
_cell_length_a 14.081068
_cell_length_b 14.081068
_cell_length_c 15.080859
_cell_angle_alpha 90.000000
_cell_angle_beta 90.000000
_cell_angle_gamma 90.000000
_cell_volume 2990.179578
_symmetry_space_group_name_H-M "P 41 2 2"
_symmetry_group_IT_number 91
_symmetry_cell_setting 'tetragonal'
loop_
_space_group_symop_operation_xyz
x,y,z
-y,x,1/4+z
-x,-y,1/2+z
y,-x,3/4+z
x,-y,1/2-z
-x,y,-z
y,x,3/4-z
-y,-x,1/4-z
loop_
_atom_site_type_symbol
_atom_site_label
_atom_site_fract_x
_atom_site_fract_y
_atom_site_fract_z
Si Si1 0.330231 0.611298 0.223831
Si Si2 0.982594 0.622938 0.399601
Si Si3 0.392858 0.033858 0.156017
Si Si4 0.888672 0.615110 0.755252
Si Si5 0.370012 0.771906 0.579741
Si Si6 0.588804 0.749199 0.624856
O O1 0.337834 0.500000 0.250000
O O2 0.371487 0.628514 0.125000
O O3 0.218958 0.640017 0.222513
O O4 0.378251 0.673909 0.301686
O O5 0.978532 0.507698 0.403522
O O6 0.883486 0.648767 0.350753
O O7 0.000000 0.656762 0.500000
O O8 0.071588 0.650491 0.338542
O O9 0.376077 0.145213 0.148276
O O10 0.356490 0.000000 0.250000
O O11 0.356011 0.965959 0.078539
O O12 0.889993 0.500000 0.750000
O O13 0.290294 0.709707 0.625000
O O14 0.474166 0.751062 0.620516
O O15 0.376769 0.740299 0.476917
#
# Coordination Sequence:
#
# PCOD9548072 Si02
#       6
#     8   8   8   8   8   8
#     4  11  25  38  52  74 109 148 189 221 263 309
#     4   9  17  29  51  78  99 126 165 217 282 320
#     4   9  15  29  53  72  93 124 166 217 275 311
#     4   9  17  32  51  72 100 128 168 226 274 317
#     4  10  21  34  53  75 104 140 182 218 258 309
#     4  10  21  36  51  74 105 142 183 218 251 311
#
# _framework density 16.052546
#
# number of rings (size 3 to 8) (size 9 to 14) (size 15 to 20)
#    0.000    2.333    1.667    1.000    4.667    3.333 
#    0.000    0.000    0.000    0.000    0.000    0.000 
#    0.000   12.000    0.000    0.000    0.000    0.000 
#
# Total GULP energy -267235.114567 kJ/mol
# GULP energy per Si atom -5567.398220 kJ/mol
# Density = 1.601601 g / cm^3
# Si number density = 16.052546 Si / 1000 Ang^3
#
#
#
# Elastic Constant Matrix: (Units=GPa)
#
#
# Indices 1 2 3 4 5 6 
#
# 1 68.5400 30.7579 48.0660 0.0000 0.0000 0.0000
# 2 30.7579 68.5394 48.0646 0.0000 0.0000 0.0000
# 3 48.0660 48.0646 133.5415 0.0000 0.0000 0.0000
# 4 0.0000 0.0000 0.0000 24.5888 0.0000 0.0000
# 5 0.0000 0.0000 0.0000 0.0000 24.5885 0.0000
# 6 0.0000 0.0000 0.0000 0.0000 0.0000 -2.8806
#
#
#
# Elastic Compliance Matrix: (Units=1/GPa)
#
#
# Indices 1 2 3 4 5 6 
#
# 1 0.020962 -0.005506 -0.005563 0.000000 0.000000 0.000000
# 2 -0.005506 0.020962 -0.005563 0.000000 0.000000 0.000000
# 3 -0.005563 -0.005563 0.011493 0.000000 0.000000 0.000000
# 4 0.000000 0.000000 0.000000 0.040669 0.000000 0.000000
# 5 0.000000 0.000000 0.000000 0.000000 0.040669 0.000000
# 6 0.000000 0.000000 0.000000 0.000000 0.000000 -0.347154
#
#
# Mechanical properties :
#
#
# Convention : Reuss Voigt Hill
#
# Bulk Modulus (GPa) = 49.62000 58.26643 53.94321
# Shear Modulus (GPa) = -28.99952 18.84153 -5.07900
#
# Velocity S-wave (km/s) = -4.25495 3.42971 -1.78069
# Velocity P-wave (km/s) = 2.61508 7.21526 5.42672
#
# Compressibility (1/GPa) = 0.02015316
#
# Stress axis : x y z
#
# Youngs Moduli (GPa) = 47.70483 47.70521 87.00929
#
# Poissons Ratio (x) = 0.26265 0.48407
# Poissons Ratio (y) = 0.26264 0.48404
# Poissons Ratio (z) = 0.26540 0.26539
#
# Static dielectric constant tensor:
#      x y z
#    x 1.526700 0.000000 0.000000 
#    y 0.000000 1.526700 0.000000 
#    z 0.000000 0.000000 1.574310 
# 
# From -- ./inp_files/4895.got.cif
#   From: 2010.05.17/outbox.cif.g08.bks.cpg/sg91_3_cif.got.tgz:4895.got - 2010.06.03 19:20:03.
