data_PCOD9548084
_publ_section_title
;
Structure prediction by ZEFSAII (Michael W. Deem and Ramdas Pophale) SiO2 
 PCOD9548084
Probable space group: P 41 2 2
;
_chemical_formula_sum "Si O2"
_cell_formula_units_Z 48
_cell_length_a 9.000972
_cell_length_b 9.000972
_cell_length_c 31.097331
_cell_angle_alpha 90.000000
_cell_angle_beta 90.000000
_cell_angle_gamma 90.000000
_cell_volume 2519.427919
_symmetry_space_group_name_H-M "P 41 2 2"
_symmetry_group_IT_number 91
_symmetry_cell_setting 'tetragonal'
loop_
_space_group_symop_operation_xyz
x,y,z
-y,x,1/4+z
-x,-y,1/2+z
y,-x,3/4+z
x,-y,1/2-z
-x,y,-z
y,x,3/4-z
-y,-x,1/4-z
loop_
_atom_site_type_symbol
_atom_site_label
_atom_site_fract_x
_atom_site_fract_y
_atom_site_fract_z
Si Si1 0.307608 0.172951 0.332682
Si Si2 0.895135 0.368906 0.365504
Si Si3 0.314793 0.842610 0.658269
Si Si4 0.084054 0.645844 0.223217
Si Si5 0.327809 0.216631 0.987485
Si Si6 0.175227 0.344043 0.068424
O O1 0.263776 0.263776 0.375000
O O2 0.208404 0.238488 0.293643
O O3 0.481788 0.193221 0.325574
O O4 0.292097 0.001673 0.348717
O O5 0.841379 0.525919 0.384575
O O6 0.757762 0.266523 0.351805
O O7 0.993391 0.394319 0.321448
O O8 0.182608 0.817393 0.625000
O O9 0.288086 0.712539 0.692385
O O10 0.303901 0.002811 0.679334
O O11 0.139314 0.500000 0.250000
O O12 0.957234 0.711777 0.254935
O O13 0.500000 0.227567 0.000000
O O14 0.235987 0.306182 0.022113
#
# Coordination Sequence:
#
# PCOD9548084 Si02
#       6
#     8   8   8   8   8   8
#     4   9  19  35  58  84 111 147 187 233 282 336
#     4   9  20  38  57  81 116 149 187 237 280 333
#     4  11  21  36  58  83 111 146 190 232 277 336
#     4   9  17  34  58  83 113 147 187 234 288 336
#     4  10  21  37  57  81 113 149 184 229 285 337
#     4  10  21  36  56  84 113 146 187 233 282 332
#
# _framework density 19.051943000000001
#
# number of rings (size 3 to 8) (size 9 to 14) (size 15 to 20)
#    0.000    2.333    0.000    3.500    0.000    6.000 
#    0.000    5.000    0.000   10.000    0.000    0.000 
#    0.000    0.000    0.000    0.000    0.000    0.000 
#
# Total GULP energy -267403.623195 kJ/mol
# GULP energy per Si atom -5570.908817 kJ/mol
# Density = 1.900858 g / cm^3
# Si number density = 19.051943 Si / 1000 Ang^3
#
#
#
# Elastic Constant Matrix: (Units=GPa)
#
#
# Indices 1 2 3 4 5 6 
#
# 1 63.5459 54.3147 36.6516 0.0000 0.0000 0.0000
# 2 54.3147 63.5451 36.6513 0.0000 0.0000 0.0000
# 3 36.6516 36.6513 52.2189 0.0000 0.0000 0.0000
# 4 0.0000 0.0000 0.0000 30.1795 0.0000 0.0000
# 5 0.0000 0.0000 0.0000 0.0000 30.1798 0.0000
# 6 0.0000 0.0000 0.0000 0.0000 0.0000 27.7988
#
#
#
# Elastic Compliance Matrix: (Units=1/GPa)
#
#
# Indices 1 2 3 4 5 6 
#
# 1 0.061695 -0.046638 -0.010569 0.000000 0.000000 0.000000
# 2 -0.046638 0.061696 -0.010569 0.000000 0.000000 0.000000
# 3 -0.010569 -0.010569 0.033986 0.000000 0.000000 0.000000
# 4 0.000000 0.000000 0.000000 0.033135 0.000000 0.000000
# 5 0.000000 0.000000 0.000000 0.000000 0.033135 0.000000
# 6 0.000000 0.000000 0.000000 0.000000 0.000000 0.035973
#
#
# Mechanical properties :
#
#
# Convention : Reuss Voigt Hill
#
# Bulk Modulus (GPa) = 45.81545 48.28279 47.04912
# Shear Modulus (GPa) = 12.42403 21.07778 16.75090
#
# Velocity S-wave (km/s) = 2.55642 3.32977 2.96839
# Velocity P-wave (km/s) = 5.72831 6.33884 6.04129
#
# Compressibility (1/GPa) = 0.02182670
#
# Stress axis : x y z
#
# Youngs Moduli (GPa) = 16.20873 16.20856 29.42364
#
# Poissons Ratio (x) = 0.75593 0.31098
# Poissons Ratio (y) = 0.75594 0.31097
# Poissons Ratio (z) = 0.17131 0.17130
#
# Static dielectric constant tensor:
#      x y z
#    x 1.668710 0.000000 0.000000 
#    y 0.000000 1.668710 0.000000 
#    z 0.000000 0.000000 1.699330 
# 
# From -- ./inp_files/18167.got.cif
#   From: 2010.05.17/outbox.cif.g08.bks.cpg/sg91_10_cif.got.tgz:18167.got - 2010.06.03 19:20:03.
