data_PCOD9548893
_publ_section_title
;
Structure prediction by ZEFSAII (Michael W. Deem and Ramdas Pophale) SiO2 
 PCOD9548893
Probable space group: P 41 21 2
;
_chemical_formula_sum "Si O2"
_cell_formula_units_Z 48
_cell_length_a 10.135409
_cell_length_b 10.135409
_cell_length_c 17.554386
_cell_angle_alpha 90.000000
_cell_angle_beta 90.000000
_cell_angle_gamma 90.000000
_cell_volume 1803.300907
_symmetry_space_group_name_H-M "P 41 21 2"
_symmetry_group_IT_number 92
_symmetry_cell_setting 'tetragonal'
loop_
_space_group_symop_operation_xyz
x,y,z
1/2-y,1/2+x,1/4+z
-x,-y,1/2+z
1/2+y,1/2-x,3/4+z
1/2+x,1/2-y,3/4-z
1/2-x,1/2+y,1/4-z
y,x,-z
-y,-x,1/2-z
loop_
_atom_site_type_symbol
_atom_site_label
_atom_site_fract_x
_atom_site_fract_y
_atom_site_fract_z
Si Si1 0.992196 0.219352 0.148915
Si Si2 0.189572 0.554934 0.683973
Si Si3 0.836116 0.870561 0.206803
Si Si4 0.867165 0.136565 0.996945
Si Si5 0.832028 0.533449 0.435767
Si Si6 0.197128 0.453817 0.112017
O O1 0.863528 0.296018 0.182192
O O2 0.966307 0.150046 0.068602
O O3 0.055233 0.131343 0.214956
O O4 0.090355 0.342085 0.134333
O O5 0.256408 0.536795 0.600922
O O6 0.292153 0.501309 0.745335
O O7 0.068079 0.454466 0.692133
O O8 0.738101 0.752191 0.231911
O O9 0.952418 0.796922 0.162589
O O10 0.928056 0.180385 0.917311
O O11 0.897884 0.645299 0.383259
O O12 0.793394 0.568988 0.522217
#
# Coordination Sequence:
#
# PCOD9548893 Si02
#       6
#     8   8   8   8   8   8
#     4   9  17  32  58  86 122 165 204 259 320 374
#     4   9  19  32  58  90 118 162 207 266 313 373
#     4   9  19  35  55  90 126 158 213 263 312 378
#     4   9  17  33  56  89 123 156 210 258 314 382
#     4  10  20  34  61  93 125 167 217 257 321 391
#     4  10  18  34  60  92 122 172 208 258 315 393
#
# _framework density 26.617854000000001
#
# number of rings (size 3 to 8) (size 9 to 14) (size 15 to 20)
#    0.000    2.667    1.667    0.000    7.000    0.667 
#    0.000    1.667    0.000   18.000    0.000    0.000 
#    0.000    0.000    0.000    0.000    0.000    0.000 
#
# Total GULP energy -268519.041685 kJ/mol
# GULP energy per Si atom -5594.146702 kJ/mol
# Density = 2.655727 g / cm^3
# Si number density = 26.617854 Si / 1000 Ang^3
#
#
#
# Elastic Constant Matrix: (Units=GPa)
#
#
# Indices 1 2 3 4 5 6 
#
# 1 24.3071 75.5479 26.6862 0.0000 0.0000 0.0000
# 2 75.5479 24.3071 26.6862 0.0000 0.0000 0.0000
# 3 26.6862 26.6862 131.2556 0.0000 0.0000 0.0000
# 4 0.0000 0.0000 0.0000 6.7372 0.0000 0.0000
# 5 0.0000 0.0000 0.0000 0.0000 6.7372 0.0000
# 6 0.0000 0.0000 0.0000 0.0000 0.0000 55.1245
#
#
#
# Elastic Compliance Matrix: (Units=1/GPa)
#
#
# Indices 1 2 3 4 5 6 
#
# 1 -0.004140 0.015376 -0.002284 0.000000 0.000000 0.000000
# 2 0.015376 -0.004140 -0.002284 0.000000 0.000000 0.000000
# 3 -0.002284 -0.002284 0.008548 0.000000 0.000000 0.000000
# 4 0.000000 0.000000 0.000000 0.148429 0.000000 0.000000
# 5 0.000000 0.000000 0.000000 0.000000 0.148429 0.000000
# 6 0.000000 0.000000 0.000000 0.000000 0.000000 0.018141
#
#
# Mechanical properties :
#
#
# Convention : Reuss Voigt Hill
#
# Bulk Modulus (GPa) = 45.70128 48.63451 47.16789
# Shear Modulus (GPa) = 16.61430 17.11643 16.86536
#
# Velocity S-wave (km/s) = 2.50107 2.53858 2.51989
# Velocity P-wave (km/s) = 5.05442 5.18687 5.12107
#
# Compressibility (1/GPa) = 0.02188123
#
# Stress axis : x y z
#
# Youngs Moduli (GPa) = -241.54052 -241.54052 116.99176
#
# Poissons Ratio (x) = 3.71383 0.26725
# Poissons Ratio (y) = 3.71383 0.26725
# Poissons Ratio (z) = -0.55176 -0.55176
#
# Static dielectric constant tensor:
#      x y z
#    x 2.106250 0.000000 0.000000 
#    y 0.000000 2.106250 0.000000 
#    z 0.000000 0.000000 2.036010 
# 
# From -- ./inp_files/3140.got.cif
#   From: 2010.05.17/outbox.cif.g08.bks.cpg/sg92_2_cif.got.tgz:3140.got - 2010.06.03 19:35:17.
