data_PCOD9548454
_publ_section_title
;
Structure prediction by ZEFSAII (Michael W. Deem and Ramdas Pophale) SiO2 
 PCOD9548454
Probable space group: P 41 2 2
;
_chemical_formula_sum "Si O2"
_cell_formula_units_Z 36
_cell_length_a 8.385022
_cell_length_b 8.385022
_cell_length_c 23.838453
_cell_angle_alpha 90.000000
_cell_angle_beta 90.000000
_cell_angle_gamma 90.000000
_cell_volume 1676.048112
_symmetry_space_group_name_H-M "P 41 2 2"
_symmetry_group_IT_number 91
_symmetry_cell_setting 'tetragonal'
loop_
_space_group_symop_operation_xyz
x,y,z
-y,x,1/4+z
-x,-y,1/2+z
y,-x,3/4+z
x,-y,1/2-z
-x,y,-z
y,x,3/4-z
-y,-x,1/4-z
loop_
_atom_site_type_symbol
_atom_site_label
_atom_site_fract_x
_atom_site_fract_y
_atom_site_fract_z
Si Si1 0.187640 0.187640 0.375000
Si Si2 0.679150 0.668072 0.980402
Si Si3 0.779670 0.313534 0.952687
Si Si4 0.857507 0.704732 0.428804
Si Si5 0.150382 0.326273 0.592609
O O1 0.307294 0.217720 0.426989
O O2 0.011970 0.228830 0.397480
O O3 0.761216 0.504305 0.958900
O O4 0.500000 0.632417 0.000000
O O5 0.766695 0.735328 0.035584
O O6 0.683138 0.253330 0.899451
O O7 0.958922 0.255726 0.940153
O O8 0.750178 0.256921 0.016471
O O9 0.790628 0.790628 0.375000
O O10 0.865767 0.514315 0.419498
#
# Coordination Sequence:
#
# PCOD9548454 Si02
#       5
#     4   8   8   8   8
#     4  12  24  46  66  98 144 180 232 294 352 428
#     4  11  24  44  71  98 134 184 236 289 351 422
#     4  10  23  44  65  98 134 178 227 280 349 416
#     4  10  23  43  68  95 139 178 225 287 340 419
#     4  11  25  42  69 100 136 181 230 287 355 416
#
# _framework density 21.479099000000001
#
# number of rings (size 3 to 8) (size 9 to 14) (size 15 to 20)
#    0.000    1.333    2.222    2.000    7.778    1.778 
#    4.000    0.000    0.000    0.000    0.000    0.000 
#    0.000    0.000    0.000    0.000    0.000    0.000 
#
# Total GULP energy -201003.885408 kJ/mol
# GULP energy per Si atom -5583.441261 kJ/mol
# Density = 2.143021 g / cm^3
# Si number density = 21.479099 Si / 1000 Ang^3
#
#
#
# Elastic Constant Matrix: (Units=GPa)
#
#
# Indices 1 2 3 4 5 6 
#
# 1 50.2998 12.6602 40.1285 0.0000 0.0000 0.0000
# 2 12.6602 50.2998 40.1285 0.0000 0.0000 0.0000
# 3 40.1285 40.1285 180.5382 0.0000 0.0000 0.0000
# 4 0.0000 0.0000 0.0000 38.7340 0.0000 0.0000
# 5 0.0000 0.0000 0.0000 0.0000 38.7340 0.0000
# 6 0.0000 0.0000 0.0000 0.0000 0.0000 29.3416
#
#
#
# Elastic Compliance Matrix: (Units=1/GPa)
#
#
# Indices 1 2 3 4 5 6 
#
# 1 0.024365 -0.002203 -0.004926 0.000000 0.000000 0.000000
# 2 -0.002203 0.024365 -0.004926 0.000000 0.000000 0.000000
# 3 -0.004926 -0.004926 0.007729 0.000000 0.000000 0.000000
# 4 0.000000 0.000000 0.000000 0.025817 0.000000 0.000000
# 5 0.000000 0.000000 0.000000 0.000000 0.025817 0.000000
# 6 0.000000 0.000000 0.000000 0.000000 0.000000 0.034081
#
#
# Mechanical properties :
#
#
# Convention : Reuss Voigt Hill
#
# Bulk Modulus (GPa) = 30.91232 51.88579 41.39906
# Shear Modulus (GPa) = 28.23783 33.90996 31.07390
#
# Velocity S-wave (km/s) = 3.62977 3.97765 3.80768
# Velocity P-wave (km/s) = 5.65597 6.73086 6.21669
#
# Compressibility (1/GPa) = 0.03234956
#
# Stress axis : x y z
#
# Youngs Moduli (GPa) = 41.04225 41.04225 129.38525
#
# Poissons Ratio (x) = 0.09040 0.63736
# Poissons Ratio (y) = 0.09040 0.63736
# Poissons Ratio (z) = 0.20218 0.20218
#
# Static dielectric constant tensor:
#      x y z
#    x 1.784080 0.000000 0.000000 
#    y 0.000000 1.784080 0.000000 
#    z 0.000000 0.000000 1.788770 
# 
# From -- ./inp_files/6164.got.cif
#   From: 2010.05.17/outbox.cif.g08.bks.cpg/sg91_4_cif.got.tgz:6164.got - 2010.06.03 19:20:03.
