data_PCOD9548428
_publ_section_title
;
Structure prediction by ZEFSAII (Michael W. Deem and Ramdas Pophale) SiO2 
 PCOD9548428
Probable space group: P 41 2 2
;
_chemical_formula_sum "Si O2"
_cell_formula_units_Z 60
_cell_length_a 17.285727
_cell_length_b 17.285727
_cell_length_c 9.001481
_cell_angle_alpha 90.000000
_cell_angle_beta 90.000000
_cell_angle_gamma 90.000000
_cell_volume 2689.609739
_symmetry_space_group_name_H-M "P 41 2 2"
_symmetry_group_IT_number 91
_symmetry_cell_setting 'tetragonal'
loop_
_space_group_symop_operation_xyz
x,y,z
-y,x,1/4+z
-x,-y,1/2+z
y,-x,3/4+z
x,-y,1/2-z
-x,y,-z
y,x,3/4-z
-y,-x,1/4-z
loop_
_atom_site_type_symbol
_atom_site_label
_atom_site_fract_x
_atom_site_fract_y
_atom_site_fract_z
Si Si1 0.414194 0.894213 0.962436
Si Si2 0.176221 0.056065 0.945362
Si Si3 0.866926 0.613111 0.043868
Si Si4 0.203154 0.556312 0.553825
Si Si5 0.053342 0.355868 0.819568
Si Si6 0.746968 0.742473 0.056061
Si Si7 0.318333 0.681668 0.625000
Si Si8 0.120804 0.145014 0.203567
O O1 0.424097 0.815026 0.869932
O O2 0.373568 0.965571 0.882887
O O3 0.500000 0.922438 0.000000
O O4 0.377957 0.879592 0.120131
O O5 0.120789 0.120789 0.875000
O O6 0.265510 0.067638 0.908967
O O7 0.153689 0.968430 0.909435
O O8 0.161610 0.075286 0.117244
O O9 0.814804 0.535448 0.069153
O O10 0.942374 0.616124 0.146049
O O11 0.820915 0.689323 0.082855
O O12 0.127971 0.597712 0.623711
O O13 0.281672 0.593444 0.622176
O O14 0.704166 0.718470 0.212367
O O15 0.775338 0.830977 0.069416
O O16 0.726581 0.726581 0.875000
O O17 0.126577 0.126577 0.375000
#
# Coordination Sequence:
#
# PCOD9548428 Si02
#       8
#     8   8   8   8   8   8   4   8
#     4  10  23  39  62  96 131 175 226 286 359 431
#     4  12  28  45  62  91 124 177 235 300 352 408
#     4  11  22  43  66  94 135 173 224 282 353 414
#     4  11  24  40  65  96 137 178 221 279 336 425
#     4  12  24  38  65  91 130 174 231 287 355 424
#     4  11  25  44  70 101 136 177 232 290 343 415
#     4  12  24  42  68  98 144 178 224 266 336 418
#     4  11  26  44  66  87 118 172 233 297 358 406
#
# _framework density 22.308071000000002
#
# number of rings (size 3 to 8) (size 9 to 14) (size 15 to 20)
#    0.000    0.800    2.667    3.600    9.333    5.867 
#    0.000    0.000    0.000    0.000    0.000    0.000 
#    8.000    0.000    0.000    0.000    0.000    0.000 
#
# Total GULP energy -334406.205203 kJ/mol
# GULP energy per Si atom -5573.436753 kJ/mol
# Density = 2.225730 g / cm^3
# Si number density = 22.308071 Si / 1000 Ang^3
#
#
#
# Elastic Constant Matrix: (Units=GPa)
#
#
# Indices 1 2 3 4 5 6 
#
# 1 77.2446 34.2211 7.0503 0.0000 0.0000 0.0000
# 2 34.2211 77.2448 7.0504 0.0000 0.0000 0.0000
# 3 7.0503 7.0504 83.5868 0.0000 0.0000 0.0000
# 4 0.0000 0.0000 0.0000 52.9926 0.0000 0.0000
# 5 0.0000 0.0000 0.0000 0.0000 52.9922 0.0000
# 6 0.0000 0.0000 0.0000 0.0000 0.0000 39.7818
#
#
#
# Elastic Compliance Matrix: (Units=1/GPa)
#
#
# Indices 1 2 3 4 5 6 
#
# 1 0.016156 -0.007087 -0.000765 0.000000 0.000000 0.000000
# 2 -0.007087 0.016156 -0.000765 0.000000 0.000000 0.000000
# 3 -0.000765 -0.000765 0.012093 0.000000 0.000000 0.000000
# 4 0.000000 0.000000 0.000000 0.018871 0.000000 0.000000
# 5 0.000000 0.000000 0.000000 0.000000 0.018871 0.000000
# 6 0.000000 0.000000 0.000000 0.000000 0.000000 0.025137
#
#
# Mechanical properties :
#
#
# Convention : Reuss Voigt Hill
#
# Bulk Modulus (GPa) = 36.80613 37.19108 36.99860
# Shear Modulus (GPa) = 37.43269 41.80360 39.61815
#
# Velocity S-wave (km/s) = 4.10077 4.33358 4.21878
# Velocity P-wave (km/s) = 6.24152 6.46124 6.35233
#
# Compressibility (1/GPa) = 0.02716939
#
# Stress axis : x y z
#
# Youngs Moduli (GPa) = 61.89802 61.89819 82.69494
#
# Poissons Ratio (x) = 0.43870 0.06325
# Poissons Ratio (y) = 0.43870 0.06325
# Poissons Ratio (z) = 0.04734 0.04734
#
# Static dielectric constant tensor:
#      x y z
#    x 1.814710 0.000000 0.000000 
#    y 0.000000 1.814710 0.000000 
#    z 0.000000 0.000000 1.920450 
# 
# From -- ./inp_files/19700.got.cif
#   From: 2010.05.17/outbox.cif.g08.bks.cpg/sg91_10_cif.got.tgz:19700.got - 2010.06.03 19:20:03.
