data_PCOD9548727
_publ_section_title
;
Structure prediction by ZEFSAII (Michael W. Deem and Ramdas Pophale) SiO2 
 PCOD9548727
Probable space group: P 41 2 2
;
_chemical_formula_sum "Si O2"
_cell_formula_units_Z 24
_cell_length_a 10.374968
_cell_length_b 10.374968
_cell_length_c 10.509157
_cell_angle_alpha 90.000000
_cell_angle_beta 90.000000
_cell_angle_gamma 90.000000
_cell_volume 1131.205250
_symmetry_space_group_name_H-M "P 41 2 2"
_symmetry_group_IT_number 91
_symmetry_cell_setting 'tetragonal'
loop_
_space_group_symop_operation_xyz
x,y,z
-y,x,1/4+z
-x,-y,1/2+z
y,-x,3/4+z
x,-y,1/2-z
-x,y,-z
y,x,3/4-z
-y,-x,1/4-z
loop_
_atom_site_type_symbol
_atom_site_label
_atom_site_fract_x
_atom_site_fract_y
_atom_site_fract_z
Si Si1 0.991469 0.202862 0.645023
Si Si2 0.356891 0.247541 0.497344
Si Si3 0.348806 0.764749 0.496479
O O1 0.945703 0.054297 0.625000
O O2 0.872481 0.262375 0.723905
O O3 0.000000 0.257934 0.500000
O O4 0.116683 0.250770 0.719077
O O5 0.500000 0.194916 0.500000
O O6 0.337518 0.337518 0.375000
O O7 0.325260 0.324512 0.624406
O O8 0.500000 0.803634 0.500000
O O9 0.306785 0.693216 0.625000
#
# Coordination Sequence:
#
# PCOD9548727 Si02
#       3
#     8   8   8
#     4  11  23  47  73  99 139 185 241 294 357 423
#     4  11  23  44  71 100 144 194 234 291 354 418
#     4  12  27  46  72 111 147 188 240 293 355 427
#
# _framework density 21.216308000000001
#
# number of rings (size 3 to 8) (size 9 to 14) (size 15 to 20)
#    0.000    0.667    6.667    3.000    0.000    6.667 
#    0.000    0.000    0.000    0.000    0.000    0.000 
#    0.000    0.000    0.000    0.000    0.000    0.000 
#
# Total GULP energy -133894.946474 kJ/mol
# GULP energy per Si atom -5578.956103 kJ/mol
# Density = 2.116802 g / cm^3
# Si number density = 21.216308 Si / 1000 Ang^3
#
#
#
# Elastic Constant Matrix: (Units=GPa)
#
#
# Indices 1 2 3 4 5 6 
#
# 1 86.9818 34.6576 32.3163 0.0000 0.0000 0.0000
# 2 34.6576 86.9848 32.3180 0.0000 0.0000 0.0000
# 3 32.3163 32.3180 177.4218 0.0000 0.0000 0.0000
# 4 0.0000 0.0000 0.0000 -2.6243 0.0000 0.0000
# 5 0.0000 0.0000 0.0000 0.0000 -2.6239 0.0000
# 6 0.0000 0.0000 0.0000 0.0000 0.0000 14.3715
#
#
#
# Elastic Compliance Matrix: (Units=1/GPa)
#
#
# Indices 1 2 3 4 5 6 
#
# 1 0.014107 -0.005005 -0.001658 0.000000 0.000000 0.000000
# 2 -0.005005 0.014106 -0.001658 0.000000 0.000000 0.000000
# 3 -0.001658 -0.001658 0.006240 0.000000 0.000000 0.000000
# 4 0.000000 0.000000 0.000000 -0.381056 0.000000 0.000000
# 5 0.000000 0.000000 0.000000 0.000000 -0.381115 0.000000
# 6 0.000000 0.000000 0.000000 0.000000 0.000000 0.069582
#
#
# Mechanical properties :
#
#
# Convention : Reuss Voigt Hill
#
# Bulk Modulus (GPa) = 56.14071 61.10801 58.62436
# Shear Modulus (GPa) = -7.86711 18.63110 5.38200
#
# Velocity S-wave (km/s) = -1.92772 2.96657 1.59444
# Velocity P-wave (km/s) = 4.64368 6.37173 5.57507
#
# Compressibility (1/GPa) = 0.01781239
#
# Stress axis : x y z
#
# Youngs Moduli (GPa) = 70.88849 70.89062 160.25000
#
# Poissons Ratio (x) = 0.35478 0.26567
# Poissons Ratio (y) = 0.35477 0.26569
# Poissons Ratio (z) = 0.11752 0.11753
#
# Static dielectric constant tensor:
#      x y z
#    x 1.799860 0.000000 0.000000 
#    y 0.000000 1.799860 0.000000 
#    z 0.000000 0.000000 1.776460 
# 
# From -- ./inp_files/1819.got.cif
#   From: 2010.05.17/outbox.cif.g08.bks.cpg/sg91_1_cif.got.tgz:1819.got - 2010.06.03 19:20:03.
