data_PCOD9548088
_publ_section_title
;
Structure prediction by ZEFSAII (Michael W. Deem and Ramdas Pophale) SiO2 
 PCOD9548088
Probable space group: P 41 2 2
;
_chemical_formula_sum "Si O2"
_cell_formula_units_Z 44
_cell_length_a 14.849037
_cell_length_b 14.849037
_cell_length_c 11.696852
_cell_angle_alpha 90.000000
_cell_angle_beta 90.000000
_cell_angle_gamma 90.000000
_cell_volume 2579.084513
_symmetry_space_group_name_H-M "P 41 2 2"
_symmetry_group_IT_number 91
_symmetry_cell_setting 'tetragonal'
loop_
_space_group_symop_operation_xyz
x,y,z
-y,x,1/4+z
-x,-y,1/2+z
y,-x,3/4+z
x,-y,1/2-z
-x,y,-z
y,x,3/4-z
-y,-x,1/4-z
loop_
_atom_site_type_symbol
_atom_site_label
_atom_site_fract_x
_atom_site_fract_y
_atom_site_fract_z
Si Si1 0.599959 0.157157 0.505353
Si Si2 0.407964 0.250496 0.067900
Si Si3 0.563491 0.107839 0.750875
Si Si4 0.634229 0.599629 0.746204
Si Si5 0.257845 0.742156 0.625000
Si Si6 0.894898 0.651917 0.522235
O O1 0.500000 0.112900 0.500000
O O2 0.616209 0.146696 0.639934
O O3 0.591305 0.260595 0.465897
O O4 0.664519 0.117550 0.409066
O O5 0.397552 0.157854 0.138410
O O6 0.410590 0.331047 0.160189
O O7 0.500000 0.246401 0.000000
O O8 0.330154 0.267348 0.976459
O O9 0.455113 0.129626 0.747833
O O10 0.571651 0.000000 0.750000
O O11 0.592915 0.500000 0.750000
O O12 0.633386 0.633386 0.875000
O O13 0.283854 0.835274 0.690872
O O14 0.000000 0.661917 0.500000
#
# Coordination Sequence:
#
# PCOD9548088 Si02
#       6
#     8   8   8   8   4   8
#     4   9  18  34  53  74 108 148 194 240 288 343
#     4  12  25  38  57  84 121 159 199 253 298 341
#     4  10  21  36  59  85 112 153 198 246 305 356
#     4  11  23  38  54  72 108 161 207 236 276 336
#     4  12  24  38  56  86 124 154 198 246 300 364
#     4  10  21  37  58  85 116 152 192 246 301 357
#
# _framework density 17.060317999999999
#
# number of rings (size 3 to 8) (size 9 to 14) (size 15 to 20)
#    0.000    1.455    5.455    0.000    5.091    1.455 
#    0.000    0.000    0.000    0.000    0.000    1.273 
#    0.000    0.000    0.000    0.000    0.000    0.000 
#
# Total GULP energy -245097.298971 kJ/mol
# GULP energy per Si atom -5570.393158 kJ/mol
# Density = 1.702149 g / cm^3
# Si number density = 17.060318 Si / 1000 Ang^3
#
#
#
# Elastic Constant Matrix: (Units=GPa)
#
#
# Indices 1 2 3 4 5 6 
#
# 1 58.0547 8.1133 40.7944 0.0000 0.0000 0.0000
# 2 8.1133 58.0555 40.7946 0.0000 0.0000 0.0000
# 3 40.7944 40.7946 132.9722 0.0000 0.0000 0.0000
# 4 0.0000 0.0000 0.0000 21.6397 0.0000 0.0000
# 5 0.0000 0.0000 0.0000 0.0000 21.6399 0.0000
# 6 0.0000 0.0000 0.0000 0.0000 0.0000 8.1684
#
#
#
# Elastic Compliance Matrix: (Units=1/GPa)
#
#
# Indices 1 2 3 4 5 6 
#
# 1 0.022166 0.002143 -0.007458 0.000000 0.000000 0.000000
# 2 0.002143 0.022166 -0.007458 0.000000 0.000000 0.000000
# 3 -0.007458 -0.007458 0.012096 0.000000 0.000000 0.000000
# 4 0.000000 0.000000 0.000000 0.046211 0.000000 0.000000
# 5 0.000000 0.000000 0.000000 0.000000 0.046211 0.000000
# 6 0.000000 0.000000 0.000000 0.000000 0.000000 0.122422
#
#
# Mechanical properties :
#
#
# Convention : Reuss Voigt Hill
#
# Bulk Modulus (GPa) = 32.38039 47.60968 39.99503
# Shear Modulus (GPa) = 16.28069 20.91495 18.59782
#
# Velocity S-wave (km/s) = 3.09253 3.50514 3.30528
# Velocity P-wave (km/s) = 5.63674 6.65948 6.16934
#
# Compressibility (1/GPa) = 0.03088289
#
# Stress axis : x y z
#
# Youngs Moduli (GPa) = 45.11393 45.11454 82.67047
#
# Poissons Ratio (x) = -0.09666 0.61653
# Poissons Ratio (y) = -0.09666 0.61652
# Poissons Ratio (z) = 0.33644 0.33645
#
# Static dielectric constant tensor:
#      x y z
#    x 1.599760 0.000000 0.000000 
#    y 0.000000 1.599760 0.000000 
#    z 0.000000 0.000000 1.577050 
# 
# From -- ./inp_files/3729.got.cif
#   From: 2010.05.17/outbox.cif.g08.bks.cpg/sg91_2_cif.got.tgz:3729.got - 2010.06.03 19:20:03.
