data_PCOD9548398
_publ_section_title
;
Structure prediction by ZEFSAII (Michael W. Deem and Ramdas Pophale) SiO2 
 PCOD9548398
Probable space group: P 41 2 2
;
_chemical_formula_sum "Si O2"
_cell_formula_units_Z 60
_cell_length_a 11.869037
_cell_length_b 11.869037
_cell_length_c 20.221635
_cell_angle_alpha 90.000000
_cell_angle_beta 90.000000
_cell_angle_gamma 90.000000
_cell_volume 2848.703404
_symmetry_space_group_name_H-M "P 41 2 2"
_symmetry_group_IT_number 91
_symmetry_cell_setting 'tetragonal'
loop_
_space_group_symop_operation_xyz
x,y,z
-y,x,1/4+z
-x,-y,1/2+z
y,-x,3/4+z
x,-y,1/2-z
-x,y,-z
y,x,3/4-z
-y,-x,1/4-z
loop_
_atom_site_type_symbol
_atom_site_label
_atom_site_fract_x
_atom_site_fract_y
_atom_site_fract_z
Si Si1 0.784097 0.796960 0.583481
Si Si2 0.181910 0.423812 0.905782
Si Si3 0.978719 0.317629 0.854303
Si Si4 0.344984 0.946921 0.320825
Si Si5 0.843532 0.695832 0.835003
Si Si6 0.689799 0.618491 0.269800
Si Si7 0.898662 0.500000 0.750000
Si Si8 0.868360 0.010449 0.504734
O O1 0.863803 0.694830 0.604792
O O2 0.745712 0.860372 0.650116
O O3 0.677160 0.757875 0.540114
O O4 0.849762 0.890993 0.541253
O O5 0.122206 0.539126 0.925775
O O6 0.228931 0.415360 0.830848
O O7 0.285138 0.392183 0.952707
O O8 0.081482 0.333309 0.904339
O O9 0.969945 0.422559 0.802069
O O10 0.995393 0.203067 0.812829
O O11 0.322580 0.000000 0.250000
O O12 0.346188 0.053121 0.369970
O O13 0.736444 0.736444 0.875000
O O14 0.823886 0.592940 0.786227
O O15 0.893663 0.804393 0.797036
O O16 0.634749 0.500000 0.250000
O O17 0.000000 0.033966 0.500000
#
# Coordination Sequence:
#
# PCOD9548398 Si02
#       8
#     8   8   8   8   8   8   4   8
#     4  11  25  41  67  96 147 189 234 293 366 432
#     4  11  24  43  73 102 135 188 245 313 351 436
#     4  11  24  40  69 104 138 184 236 287 357 433
#     4  11  25  42  67 102 140 187 240 293 356 444
#     4  10  23  40  68 100 137 190 234 288 350 430
#     4  11  24  44  70 101 139 186 244 303 377 417
#     4  10  22  44  70  98 140 190 234 294 348 440
#     4  10  24  38  60  95 150 184 219 278 353 435
#
# _framework density 21.062211999999999
#
# number of rings (size 3 to 8) (size 9 to 14) (size 15 to 20)
#    0.000    1.333    4.000    0.000   12.133    0.000 
#    0.000    0.000    1.467    0.000    0.000    0.000 
#    0.000    0.000    0.000    0.000    0.000    0.000 
#
# Total GULP energy -335344.520522 kJ/mol
# GULP energy per Si atom -5589.075342 kJ/mol
# Density = 2.101427 g / cm^3
# Si number density = 21.062212 Si / 1000 Ang^3
#
#
#
# Elastic Constant Matrix: (Units=GPa)
#
#
# Indices 1 2 3 4 5 6 
#
# 1 128.7589 61.8605 50.2870 0.0000 0.0000 0.0000
# 2 61.8605 128.7589 50.2870 0.0000 0.0000 0.0000
# 3 50.2870 50.2870 77.7935 0.0000 0.0000 0.0000
# 4 0.0000 0.0000 0.0000 24.2485 0.0000 0.0000
# 5 0.0000 0.0000 0.0000 0.0000 24.2485 0.0000
# 6 0.0000 0.0000 0.0000 0.0000 0.0000 13.6022
#
#
#
# Elastic Compliance Matrix: (Units=1/GPa)
#
#
# Indices 1 2 3 4 5 6 
#
# 1 0.011455 -0.003493 -0.005146 0.000000 0.000000 0.000000
# 2 -0.003493 0.011455 -0.005146 0.000000 0.000000 0.000000
# 3 -0.005146 -0.005146 0.019508 0.000000 0.000000 0.000000
# 4 0.000000 0.000000 0.000000 0.041240 0.000000 0.000000
# 5 0.000000 0.000000 0.000000 0.000000 0.041240 0.000000
# 6 0.000000 0.000000 0.000000 0.000000 0.000000 0.073517
#
#
# Mechanical properties :
#
#
# Convention : Reuss Voigt Hill
#
# Bulk Modulus (GPa) = 67.36174 73.35337 70.35755
# Shear Modulus (GPa) = 21.65116 23.94497 22.79806
#
# Velocity S-wave (km/s) = 3.20966 3.37541 3.29358
# Velocity P-wave (km/s) = 6.76665 7.07769 6.92392
#
# Compressibility (1/GPa) = 0.01484522
#
# Stress axis : x y z
#
# Youngs Moduli (GPa) = 87.30033 87.30033 51.26114
#
# Poissons Ratio (x) = 0.30497 0.26381
# Poissons Ratio (y) = 0.30497 0.26381
# Poissons Ratio (z) = 0.44928 0.44928
#
# Static dielectric constant tensor:
#      x y z
#    x 1.754570 0.000000 0.000000 
#    y 0.000000 1.754570 0.000000 
#    z 0.000000 0.000000 1.828990 
# 
# From -- ./inp_files/12514.got.cif
#   From: 2010.05.17/outbox.cif.g08.bks.cpg/sg91_7_cif.got.tgz:12514.got - 2010.06.03 19:20:03.
