data_PCOD9548209
_publ_section_title
;
Structure prediction by ZEFSAII (Michael W. Deem and Ramdas Pophale) SiO2 
 PCOD9548209
Probable space group: P 41 2 2
;
_chemical_formula_sum "Si O2"
_cell_formula_units_Z 28
_cell_length_a 8.638016
_cell_length_b 8.638016
_cell_length_c 16.670822
_cell_angle_alpha 90.000000
_cell_angle_beta 90.000000
_cell_angle_gamma 90.000000
_cell_volume 1243.898725
_symmetry_space_group_name_H-M "P 41 2 2"
_symmetry_group_IT_number 91
_symmetry_cell_setting 'tetragonal'
loop_
_space_group_symop_operation_xyz
x,y,z
-y,x,1/4+z
-x,-y,1/2+z
y,-x,3/4+z
x,-y,1/2-z
-x,y,-z
y,x,3/4-z
-y,-x,1/4-z
loop_
_atom_site_type_symbol
_atom_site_label
_atom_site_fract_x
_atom_site_fract_y
_atom_site_fract_z
Si Si1 0.667976 0.774353 0.951770
Si Si2 0.082346 0.082346 0.875000
Si Si3 0.115480 0.758342 0.789119
Si Si4 0.640520 0.604413 0.102653
O O1 0.776369 0.776369 0.875000
O O2 0.503017 0.722579 0.914535
O O3 0.675273 0.951456 0.977341
O O4 0.719246 0.642204 0.016149
O O5 0.147840 0.168642 0.797277
O O6 0.901217 0.104782 0.897215
O O7 0.245394 0.649178 0.826536
O O8 0.555795 0.444206 0.125000
#
# Coordination Sequence:
#
# PCOD9548209 Si02
#       4
#     8   4   8   8
#     4  10  21  42  72  99 135 195 249 285 367 454
#     4  10  22  36  74 118 140 176 256 322 366 402
#     4  11  20  42  74 108 144 188 245 318 360 441
#     4  10  23  44  67 100 145 190 240 292 371 458
#
# _framework density 22.509871
#
# number of rings (size 3 to 8) (size 9 to 14) (size 15 to 20)
#    0.000    1.714    4.286    0.000    0.000    1.143 
#    2.571   28.571    6.286    0.000    0.000    0.000 
#    0.000    0.000    0.000    0.000    0.000    0.000 
#
# Total GULP energy -155931.822790 kJ/mol
# GULP energy per Si atom -5568.993671 kJ/mol
# Density = 2.245864 g / cm^3
# Si number density = 22.509871 Si / 1000 Ang^3
#
#
#
# Elastic Constant Matrix: (Units=GPa)
#
#
# Indices 1 2 3 4 5 6 
#
# 1 56.7430 24.7479 52.1596 0.0000 0.0000 0.0000
# 2 24.7479 56.7433 52.1602 0.0000 0.0000 0.0000
# 3 52.1596 52.1602 136.2270 0.0000 0.0000 0.0000
# 4 0.0000 0.0000 0.0000 28.7628 0.0000 0.0000
# 5 0.0000 0.0000 0.0000 0.0000 28.7623 0.0000
# 6 0.0000 0.0000 0.0000 0.0000 0.0000 45.9884
#
#
#
# Elastic Compliance Matrix: (Units=1/GPa)
#
#
# Indices 1 2 3 4 5 6 
#
# 1 0.027662 -0.003593 -0.009216 0.000000 0.000000 0.000000
# 2 -0.003593 0.027662 -0.009216 0.000000 0.000000 0.000000
# 3 -0.009216 -0.009216 0.014398 0.000000 0.000000 0.000000
# 4 0.000000 0.000000 0.000000 0.034767 0.000000 0.000000
# 5 0.000000 0.000000 0.000000 0.000000 0.034768 0.000000
# 6 0.000000 0.000000 0.000000 0.000000 0.000000 0.021745
#
#
# Mechanical properties :
#
#
# Convention : Reuss Voigt Hill
#
# Bulk Modulus (GPa) = 38.95218 56.42764 47.68991
# Shear Modulus (GPa) = 23.40754 28.74575 26.07664
#
# Velocity S-wave (km/s) = 3.22821 3.57743 3.40730
# Velocity P-wave (km/s) = 5.58903 6.49510 6.05903
#
# Compressibility (1/GPa) = 0.02567251
#
# Stress axis : x y z
#
# Youngs Moduli (GPa) = 36.15127 36.15112 69.45503
#
# Poissons Ratio (x) = 0.12989 0.64006
# Poissons Ratio (y) = 0.12989 0.64008
# Poissons Ratio (z) = 0.33315 0.33316
#
# Static dielectric constant tensor:
#      x y z
#    x 1.897840 0.000000 0.000000 
#    y 0.000000 1.897840 0.000000 
#    z 0.000000 0.000000 2.107870 
# 
# From -- ./inp_files/5276.got.cif
#   From: 2010.05.17/outbox.cif.g08.bks.cpg/sg91_3_cif.got.tgz:5276.got - 2010.06.03 19:20:03.
