data_PCOD9548599
_publ_section_title
;
Structure prediction by ZEFSAII (Michael W. Deem and Ramdas Pophale) SiO2 
 PCOD9548599
Probable space group: P 41 2 2
;
_chemical_formula_sum "Si O2"
_cell_formula_units_Z 56
_cell_length_a 17.020793
_cell_length_b 17.020793
_cell_length_c 11.822630
_cell_angle_alpha 90.000000
_cell_angle_beta 90.000000
_cell_angle_gamma 90.000000
_cell_volume 3425.103332
_symmetry_space_group_name_H-M "P 41 2 2"
_symmetry_group_IT_number 91
_symmetry_cell_setting 'tetragonal'
loop_
_space_group_symop_operation_xyz
x,y,z
-y,x,1/4+z
-x,-y,1/2+z
y,-x,3/4+z
x,-y,1/2-z
-x,y,-z
y,x,3/4-z
-y,-x,1/4-z
loop_
_atom_site_type_symbol
_atom_site_label
_atom_site_fract_x
_atom_site_fract_y
_atom_site_fract_z
Si Si1 0.131045 0.000000 0.250000
Si Si2 0.090576 0.378846 0.544302
Si Si3 0.652229 0.888093 0.441200
Si Si4 0.095101 0.451493 0.007265
Si Si5 0.307872 0.930709 0.914510
Si Si6 0.921749 0.130074 0.927137
Si Si7 0.815773 0.815773 0.375000
Si Si8 0.752542 0.879550 0.855301
O O1 0.086921 0.064247 0.171056
O O2 0.186794 0.049427 0.333671
O O3 0.103122 0.376189 0.679218
O O4 0.120929 0.458098 0.483410
O O5 0.132028 0.300100 0.503709
O O6 0.000000 0.369518 0.500000
O O7 0.578675 0.871633 0.361224
O O8 0.723708 0.832967 0.398089
O O9 0.679813 0.976148 0.409180
O O10 0.107862 0.380649 0.096589
O O11 0.000000 0.457826 0.000000
O O12 0.218864 0.919312 0.871285
O O13 0.304430 0.900842 0.042158
O O14 0.852314 0.136302 0.018494
O O15 0.000000 0.116732 0.000000
O O16 0.803553 0.803553 0.875000
#
# Coordination Sequence:
#
# PCOD9548599 Si02
#       8
#     4   8   8   8   8   8   4   8
#     4  12  26  42  52  72 102 144 188 244 290 318
#     4  11  21  35  54  79 103 131 178 232 282 338
#     4  11  20  36  55  76 102 136 179 228 275 334
#     4   9  20  34  56  79  99 129 172 232 292 336
#     4  11  19  39  56  71 104 135 181 234 279 334
#     4  12  24  41  52  71  99 141 193 242 279 328
#     4  12  22  36  58  72  98 146 182 226 284 326
#     4  12  23  38  54  73 106 143 182 229 276 324
#
# _framework density 16.349872000000001
#
# number of rings (size 3 to 8) (size 9 to 14) (size 15 to 20)
#    0.000    0.857    6.429    2.571    0.000    0.571 
#    3.857    0.000    0.000    0.000    0.000    0.000 
#    0.000    0.000    0.000    0.000   38.000    0.000 
#
# Total GULP energy -312022.045823 kJ/mol
# GULP energy per Si atom -5571.822247 kJ/mol
# Density = 1.631266 g / cm^3
# Si number density = 16.349872 Si / 1000 Ang^3
#
#
#
# Elastic Constant Matrix: (Units=GPa)
#
#
# Indices 1 2 3 4 5 6 
#
# 1 57.0927 26.5265 13.6578 0.0000 0.0000 0.0000
# 2 26.5265 57.0927 13.6578 0.0000 0.0000 0.0000
# 3 13.6578 13.6578 68.3183 0.0000 0.0000 0.0000
# 4 0.0000 0.0000 0.0000 16.5153 0.0000 0.0000
# 5 0.0000 0.0000 0.0000 0.0000 16.5153 0.0000
# 6 0.0000 0.0000 0.0000 0.0000 0.0000 4.9330
#
#
#
# Elastic Compliance Matrix: (Units=1/GPa)
#
#
# Indices 1 2 3 4 5 6 
#
# 1 0.022755 -0.009961 -0.002558 0.000000 0.000000 0.000000
# 2 -0.009961 0.022755 -0.002558 0.000000 0.000000 0.000000
# 3 -0.002558 -0.002558 0.015660 0.000000 0.000000 0.000000
# 4 0.000000 0.000000 0.000000 0.060550 0.000000 0.000000
# 5 0.000000 0.000000 0.000000 0.000000 0.060550 0.000000
# 6 0.000000 0.000000 0.000000 0.000000 0.000000 0.202717
#
#
# Mechanical properties :
#
#
# Convention : Reuss Voigt Hill
#
# Bulk Modulus (GPa) = 32.23945 32.24307 32.24126
# Shear Modulus (GPa) = 11.75146 16.17018 13.96082
#
# Velocity S-wave (km/s) = 2.68386 3.14826 2.92529
# Velocity P-wave (km/s) = 5.41899 5.74273 5.58320
#
# Compressibility (1/GPa) = 0.03101790
#
# Stress axis : x y z
#
# Youngs Moduli (GPa) = 43.94603 43.94603 63.85681
#
# Poissons Ratio (x) = 0.43773 0.16333
# Poissons Ratio (y) = 0.43773 0.16333
# Poissons Ratio (z) = 0.11241 0.11241
#
# Static dielectric constant tensor:
#      x y z
#    x 1.566420 0.000000 0.000000 
#    y 0.000000 1.566420 0.000000 
#    z 0.000000 0.000000 1.556860 
# 
# From -- ./inp_files/20402.got.cif
#   From: 2010.05.17/outbox.cif.g08.bks.cpg/sg91_11_cif.got.tgz:20402.got - 2010.06.03 19:20:03.
