data_PCOD9548249
_publ_section_title
;
Structure prediction by ZEFSAII (Michael W. Deem and Ramdas Pophale) SiO2 
 PCOD9548249
Probable space group: P 41 2 2
;
_chemical_formula_sum "Si O2"
_cell_formula_units_Z 40
_cell_length_a 19.054421
_cell_length_b 19.054421
_cell_length_c 6.252002
_cell_angle_alpha 90.000000
_cell_angle_beta 90.000000
_cell_angle_gamma 90.000000
_cell_volume 2269.920366
_symmetry_space_group_name_H-M "P 41 2 2"
_symmetry_group_IT_number 91
_symmetry_cell_setting 'tetragonal'
loop_
_space_group_symop_operation_xyz
x,y,z
-y,x,1/4+z
-x,-y,1/2+z
y,-x,3/4+z
x,-y,1/2-z
-x,y,-z
y,x,3/4-z
-y,-x,1/4-z
loop_
_atom_site_type_symbol
_atom_site_label
_atom_site_fract_x
_atom_site_fract_y
_atom_site_fract_z
Si Si1 0.927636 0.927636 0.375000
Si Si2 0.470648 0.000000 0.250000
Si Si3 0.146864 0.424854 0.654177
Si Si4 0.673923 0.920478 0.251247
Si Si5 0.786064 0.068806 0.895793
Si Si6 0.298960 0.184279 0.353380
O O1 0.922518 0.866888 0.199267
O O2 0.000000 0.921872 0.500000
O O3 0.432882 0.075258 0.234456
O O4 0.500000 0.002263 0.500000
O O5 0.170038 0.500000 0.750000
O O6 0.123770 0.379458 0.856770
O O7 0.195123 0.374323 0.511155
O O8 0.745263 0.935453 0.380465
O O9 0.642030 0.000000 0.250000
O O10 0.689501 0.869631 0.052092
O O11 0.752828 0.137197 0.790933
O O12 0.773034 0.000000 0.750000
O O13 0.257275 0.257275 0.375000
#
# Coordination Sequence:
#
# PCOD9548249 Si02
#       6
#     4   4   8   8   8   8
#     4  12  26  40  56  76  98 138 202 274 336 376
#     4  10  22  36  60  94 128 160 202 258 318 374
#     4  10  24  36  57  89 117 154 199 248 310 363
#     4  11  21  38  59  83 116 151 201 248 308 368
#     4  11  23  38  55  77 103 142 193 258 320 374
#     4  11  24  39  60  82 114 157 206 248 310 374
#
# _framework density 17.621763999999999
#
# number of rings (size 3 to 8) (size 9 to 14) (size 15 to 20)
#    0.000    1.200    2.000    3.600   16.800    2.400 
#    0.000    0.000    0.000    0.000    0.000    0.000 
#    0.000    0.000    0.000    0.000   53.200    0.000 
#
# Total GULP energy -222753.805696 kJ/mol
# GULP energy per Si atom -5568.845142 kJ/mol
# Density = 1.758166 g / cm^3
# Si number density = 17.621764 Si / 1000 Ang^3
#
#
#
# Elastic Constant Matrix: (Units=GPa)
#
#
# Indices 1 2 3 4 5 6 
#
# 1 103.6507 37.0066 42.9473 0.0000 0.0000 0.0000
# 2 37.0066 103.6507 42.9473 0.0000 0.0000 0.0000
# 3 42.9473 42.9473 95.0603 0.0000 0.0000 0.0000
# 4 0.0000 0.0000 0.0000 21.8654 0.0000 0.0000
# 5 0.0000 0.0000 0.0000 0.0000 21.8654 0.0000
# 6 0.0000 0.0000 0.0000 0.0000 0.0000 18.9639
#
#
#
# Elastic Compliance Matrix: (Units=1/GPa)
#
#
# Indices 1 2 3 4 5 6 
#
# 1 0.012412 -0.002593 -0.004436 0.000000 0.000000 0.000000
# 2 -0.002593 0.012412 -0.004436 0.000000 0.000000 0.000000
# 3 -0.004436 -0.004436 0.014528 0.000000 0.000000 0.000000
# 4 0.000000 0.000000 0.000000 0.045734 0.000000 0.000000
# 5 0.000000 0.000000 0.000000 0.000000 0.045734 0.000000
# 6 0.000000 0.000000 0.000000 0.000000 0.000000 0.052732
#
#
# Mechanical properties :
#
#
# Convention : Reuss Voigt Hill
#
# Bulk Modulus (GPa) = 60.89730 60.90712 60.90221
# Shear Modulus (GPa) = 23.58988 24.50297 24.04642
#
# Velocity S-wave (km/s) = 3.66276 3.73298 3.69804
# Velocity P-wave (km/s) = 7.24713 7.29512 7.27116
#
# Compressibility (1/GPa) = 0.01642109
#
# Stress axis : x y z
#
# Youngs Moduli (GPa) = 80.56938 80.56938 68.83393
#
# Poissons Ratio (x) = 0.20895 0.30533
# Poissons Ratio (y) = 0.20895 0.30533
# Poissons Ratio (z) = 0.35739 0.35739
#
# Static dielectric constant tensor:
#      x y z
#    x 1.591200 0.000000 0.000000 
#    y 0.000000 1.591200 0.000000 
#    z 0.000000 0.000000 1.693550 
# 
# From -- ./inp_files/14068.got.cif
#   From: 2010.05.17/outbox.cif.g08.bks.cpg/sg91_8_cif.got.tgz:14068.got - 2010.06.03 19:20:03.
