data_PCOD9548585
_publ_section_title
;
Structure prediction by ZEFSAII (Michael W. Deem and Ramdas Pophale) SiO2 
 PCOD9548585
Probable space group: P 41 2 2
;
_chemical_formula_sum "Si O2"
_cell_formula_units_Z 32
_cell_length_a 11.820286
_cell_length_b 11.820286
_cell_length_c 11.401683
_cell_angle_alpha 90.000000
_cell_angle_beta 90.000000
_cell_angle_gamma 90.000000
_cell_volume 1593.033584
_symmetry_space_group_name_H-M "P 41 2 2"
_symmetry_group_IT_number 91
_symmetry_cell_setting 'tetragonal'
loop_
_space_group_symop_operation_xyz
x,y,z
-y,x,1/4+z
-x,-y,1/2+z
y,-x,3/4+z
x,-y,1/2-z
-x,y,-z
y,x,3/4-z
-y,-x,1/4-z
loop_
_atom_site_type_symbol
_atom_site_label
_atom_site_fract_x
_atom_site_fract_y
_atom_site_fract_z
Si Si1 0.053568 0.053568 0.875000
Si Si2 0.390096 0.744452 0.930401
Si Si3 0.687302 0.984894 0.115443
Si Si4 0.498138 0.670616 0.691108
Si Si5 0.134918 0.500000 0.750000
O O1 0.032253 0.186853 0.864733
O O2 0.014585 0.000000 0.750000
O O3 0.310211 0.852801 0.920199
O O4 0.420663 0.706690 0.798797
O O5 0.355951 0.624307 0.985475
O O6 0.500000 0.785512 0.000000
O O7 0.643708 0.000000 0.250000
O O8 0.606518 0.055834 0.029648
O O9 0.433737 0.566264 0.625000
O O10 0.512674 0.778418 0.607459
#
# Coordination Sequence:
#
# PCOD9548585 Si02
#       5
#     4   8   8   8   4
#     4  10  26  50  74  98 134 182 244 292 346 406
#     4  12  24  43  63 101 140 171 214 281 345 403
#     4  11  25  45  68  94 135 184 227 281 337 406
#     4  12  24  40  70 100 133 176 219 272 342 416
#     4  12  24  40  66 100 126 178 234 262 332 416
#
# _framework density 20.087461999999999
#
# number of rings (size 3 to 8) (size 9 to 14) (size 15 to 20)
#    0.000    0.500    6.250    2.250    8.750    0.000 
#    4.500    1.250    0.000    0.000    0.000    0.000 
#    0.000    0.000    0.000    0.000    0.000    0.000 
#
# Total GULP energy -178697.861485 kJ/mol
# GULP energy per Si atom -5584.308171 kJ/mol
# Density = 2.004174 g / cm^3
# Si number density = 20.087462 Si / 1000 Ang^3
#
#
#
# Elastic Constant Matrix: (Units=GPa)
#
#
# Indices 1 2 3 4 5 6 
#
# 1 120.9197 59.3204 19.2085 0.0000 0.0000 0.0000
# 2 59.3204 120.9203 19.2091 0.0000 0.0000 0.0000
# 3 19.2085 19.2091 83.3132 0.0000 0.0000 0.0000
# 4 0.0000 0.0000 0.0000 3239.4664 0.0000 0.0000
# 5 0.0000 0.0000 0.0000 0.0000 3308.0227 0.0000
# 6 0.0000 0.0000 0.0000 0.0000 0.0000 29.8870
#
#
#
# Elastic Compliance Matrix: (Units=1/GPa)
#
#
# Indices 1 2 3 4 5 6 
#
# 1 0.011034 -0.005199 -0.001345 0.000000 0.000000 0.000000
# 2 -0.005199 0.011034 -0.001345 0.000000 0.000000 0.000000
# 3 -0.001345 -0.001345 0.012623 0.000000 0.000000 0.000000
# 4 0.000000 0.000000 0.000000 0.000309 0.000000 0.000000
# 5 0.000000 0.000000 0.000000 0.000000 0.000302 0.000000
# 6 0.000000 0.000000 0.000000 0.000000 0.000000 0.033459
#
#
# Mechanical properties :
#
#
# Convention : Reuss Voigt Hill
#
# Bulk Modulus (GPa) = 52.87696 57.84769 55.36232
# Shear Modulus (GPa) = 55.03788 1330.63623 692.83705
#
# Velocity S-wave (km/s) = 5.24010 25.76547 18.59191
# Velocity P-wave (km/s) = 7.93675 30.23254 22.10202
#
# Compressibility (1/GPa) = 0.01891183
#
# Stress axis : x y z
#
# Youngs Moduli (GPa) = 90.62570 90.62598 79.21893
#
# Poissons Ratio (x) = 0.47121 0.10657
# Poissons Ratio (y) = 0.47121 0.10658
# Poissons Ratio (z) = 0.12191 0.12192
#
# Static dielectric constant tensor:
#      x y z
#    x 1.535480 0.000000 0.000000 
#    y 0.000000 1.531850 0.000000 
#    z 0.000000 0.000000 1.754280 
# 
# From -- ./inp_files/3406.got.cif
#   From: 2010.05.17/outbox.cif.g08.bks.cpg/sg91_2_cif.got.tgz:3406.got - 2010.06.03 19:20:03.
