data_PCOD9548131
_publ_section_title
;
Structure prediction by ZEFSAII (Michael W. Deem and Ramdas Pophale) SiO2 
 PCOD9548131
Probable space group: P 41 2 2
;
_chemical_formula_sum "Si O2"
_cell_formula_units_Z 48
_cell_length_a 9.115937
_cell_length_b 9.115937
_cell_length_c 28.633600
_cell_angle_alpha 90.000000
_cell_angle_beta 90.000000
_cell_angle_gamma 90.000000
_cell_volume 2379.460962
_symmetry_space_group_name_H-M "P 41 2 2"
_symmetry_group_IT_number 91
_symmetry_cell_setting 'tetragonal'
loop_
_space_group_symop_operation_xyz
x,y,z
-y,x,1/4+z
-x,-y,1/2+z
y,-x,3/4+z
x,-y,1/2-z
-x,y,-z
y,x,3/4-z
-y,-x,1/4-z
loop_
_atom_site_type_symbol
_atom_site_label
_atom_site_fract_x
_atom_site_fract_y
_atom_site_fract_z
Si Si1 0.304705 0.192961 0.741751
Si Si2 0.005366 0.178485 0.409230
Si Si3 0.438072 0.379438 0.591243
Si Si4 0.973895 0.000000 0.250000
Si Si5 0.105528 0.690584 0.382681
Si Si6 0.500000 0.441979 0.000000
Si Si7 0.120358 0.499696 0.918926
O O1 0.325424 0.153793 0.687063
O O2 0.335137 0.363498 0.744710
O O3 0.422718 0.133038 0.780063
O O4 0.143101 0.133752 0.755204
O O5 0.140415 0.140415 0.375000
O O6 0.019148 0.080092 0.455719
O O7 0.857933 0.121652 0.382932
O O8 0.977024 0.350779 0.419933
O O9 0.562166 0.437835 0.625000
O O10 0.405982 0.209491 0.599397
O O11 0.482404 0.445604 0.542240
O O12 0.278923 0.452725 0.599917
O O13 0.945920 0.620377 0.384001
#
# Coordination Sequence:
#
# PCOD9548131 Si02
#       7
#     8   8   8   4   8   4   8
#     4  11  20  40  66  92 121 163 211 255 308 379
#     4  11  24  43  61  95 134 167 209 264 322 379
#     4  10  21  38  63  90 122 159 205 258 307 372
#     4  12  24  40  68  92 128 170 208 264 316 380
#     4  11  21  41  63  89 123 164 210 251 309 380
#     4  10  22  38  64  94 124 160 210 262 318 370
#     4  10  23  38  65  93 123 165 208 257 312 380
#
# _framework density 20.172637000000002
#
# number of rings (size 3 to 8) (size 9 to 14) (size 15 to 20)
#    0.000    1.333    5.000    0.000    2.333    4.000 
#    0.000    0.000    0.000    1.000    0.000    0.000 
#    0.000    0.000    0.000    0.000    0.000    0.000 
#
# Total GULP energy -267710.775442 kJ/mol
# GULP energy per Si atom -5577.307822 kJ/mol
# Density = 2.012672 g / cm^3
# Si number density = 20.172637 Si / 1000 Ang^3
#
#
#
# Elastic Constant Matrix: (Units=GPa)
#
#
# Indices 1 2 3 4 5 6 
#
# 1 3.7481 57.4712 4.8346 0.0000 0.0000 0.0000
# 2 57.4712 3.7512 4.8494 0.0000 0.0000 0.0000
# 3 4.8346 4.8494 28.4887 0.0000 0.0000 0.0000
# 4 0.0000 0.0000 0.0000 29.5112 0.0000 0.0000
# 5 0.0000 0.0000 0.0000 0.0000 29.5127 0.0000
# 6 0.0000 0.0000 0.0000 0.0000 0.0000 21.0320
#
#
#
# Elastic Compliance Matrix: (Units=1/GPa)
#
#
# Indices 1 2 3 4 5 6 
#
# 1 -0.000914 0.017700 -0.002858 0.000000 0.000000 0.000000
# 2 0.017700 -0.000915 -0.002848 0.000000 0.000000 0.000000
# 3 -0.002858 -0.002848 0.036071 0.000000 0.000000 0.000000
# 4 0.000000 0.000000 0.000000 0.033885 0.000000 0.000000
# 5 0.000000 0.000000 0.000000 0.000000 0.033884 0.000000
# 6 0.000000 0.000000 0.000000 0.000000 0.000000 0.047547
#
#
# Mechanical properties :
#
#
# Convention : Reuss Voigt Hill
#
# Bulk Modulus (GPa) = 17.17301 18.92206 18.04753
# Shear Modulus (GPa) = 34.48748 13.93337 24.21043
#
# Velocity S-wave (km/s) = 4.13924 2.63098 3.46809
# Velocity P-wave (km/s) = 5.60142 4.31623 5.00029
#
# Compressibility (1/GPa) = 0.05823091
#
# Stress axis : x y z
#
# Youngs Moduli (GPa) = -1093.90531 -1093.16400 27.72277
#
# Poissons Ratio (x) = 19.34904 0.07923
# Poissons Ratio (y) = 19.36216 0.07896
# Poissons Ratio (z) = -3.12616 -3.11336
#
# Static dielectric constant tensor:
#      x y z
#    x 1.742720 0.000000 0.000000 
#    y 0.000000 1.742720 0.000000 
#    z 0.000000 0.000000 1.703820 
# 
# From -- ./inp_files/8028.got.cif
#   From: 2010.05.17/outbox.cif.g08.bks.cpg/sg91_5_cif.got.tgz:8028.got - 2010.06.03 19:20:03.
