data_PCOD9548735
_publ_section_title
;
Structure prediction by ZEFSAII (Michael W. Deem and Ramdas Pophale) SiO2 
 PCOD9548735
Probable space group: P 41 2 2
;
_chemical_formula_sum "Si O2"
_cell_formula_units_Z 40
_cell_length_a 8.581564
_cell_length_b 8.581564
_cell_length_c 23.238798
_cell_angle_alpha 90.000000
_cell_angle_beta 90.000000
_cell_angle_gamma 90.000000
_cell_volume 1711.380394
_symmetry_space_group_name_H-M "P 41 2 2"
_symmetry_group_IT_number 91
_symmetry_cell_setting 'tetragonal'
loop_
_space_group_symop_operation_xyz
x,y,z
-y,x,1/4+z
-x,-y,1/2+z
y,-x,3/4+z
x,-y,1/2-z
-x,y,-z
y,x,3/4-z
-y,-x,1/4-z
loop_
_atom_site_type_symbol
_atom_site_label
_atom_site_fract_x
_atom_site_fract_y
_atom_site_fract_z
Si Si1 0.059207 0.940794 0.625000
Si Si2 0.760027 0.439139 0.966342
Si Si3 0.000000 0.112430 0.500000
Si Si4 0.713998 0.232207 0.558348
Si Si5 0.084287 0.590933 0.585578
Si Si6 0.874208 0.599557 0.194240
O O1 0.017402 0.022933 0.562647
O O2 0.042488 0.759450 0.610554
O O3 0.651282 0.590456 0.953368
O O4 0.723917 0.264876 0.943992
O O5 0.923297 0.482773 0.936227
O O6 0.796671 0.409827 0.033008
O O7 0.151810 0.214829 0.489646
O O8 0.765393 0.234608 0.625000
O O9 0.635436 0.060208 0.552680
O O10 0.152336 0.493929 0.636815
O O11 0.838697 0.500000 0.250000
#
# Coordination Sequence:
#
# PCOD9548735 Si02
#       6
#     4   8   4   8   8   8
#     4  12  24  44  76 114 152 210 274 334 424 494
#     4  11  26  47  74 108 150 204 265 326 407 486
#     4  12  24  42  80 112 148 198 274 340 398 506
#     4  12  25  48  74 113 150 208 267 327 412 489
#     4  11  23  45  71 102 152 201 258 336 398 486
#     4  12  27  47  71 110 156 202 264 329 395 489
#
# _framework density 23.372945999999999
#
# number of rings (size 3 to 8) (size 9 to 14) (size 15 to 20)
#    0.000    0.400    3.000    7.200    0.000    2.400 
#    5.400    0.000    0.000    0.000    0.000    0.000 
#    0.000    0.000    0.000    0.000    0.000    0.000 
#
# Total GULP energy -222941.701614 kJ/mol
# GULP energy per Si atom -5573.542540 kJ/mol
# Density = 2.331975 g / cm^3
# Si number density = 23.372946 Si / 1000 Ang^3
#
#
#
# Elastic Constant Matrix: (Units=GPa)
#
#
# Indices 1 2 3 4 5 6 
#
# 1 83.5338 27.1592 40.1600 0.0000 0.0000 0.0000
# 2 27.1592 83.5337 40.1603 0.0000 0.0000 0.0000
# 3 40.1600 40.1603 173.5353 0.0000 0.0000 0.0000
# 4 0.0000 0.0000 0.0000 27.5226 0.0000 0.0000
# 5 0.0000 0.0000 0.0000 0.0000 27.5223 0.0000
# 6 0.0000 0.0000 0.0000 0.0000 0.0000 12.5759
#
#
#
# Elastic Compliance Matrix: (Units=1/GPa)
#
#
# Indices 1 2 3 4 5 6 
#
# 1 0.014298 -0.003441 -0.002513 0.000000 0.000000 0.000000
# 2 -0.003441 0.014298 -0.002513 0.000000 0.000000 0.000000
# 3 -0.002513 -0.002513 0.006925 0.000000 0.000000 0.000000
# 4 0.000000 0.000000 0.000000 0.036334 0.000000 0.000000
# 5 0.000000 0.000000 0.000000 0.000000 0.036334 0.000000
# 6 0.000000 0.000000 0.000000 0.000000 0.000000 0.079517
#
#
# Mechanical properties :
#
#
# Convention : Reuss Voigt Hill
#
# Bulk Modulus (GPa) = 53.79410 61.72909 57.76160
# Shear Modulus (GPa) = 23.71527 29.06570 26.39048
#
# Velocity S-wave (km/s) = 3.18881 3.53024 3.36386
# Velocity P-wave (km/s) = 6.05173 6.56389 6.31301
#
# Compressibility (1/GPa) = 0.01858940
#
# Stress axis : x y z
#
# Youngs Moduli (GPa) = 69.94069 69.94054 144.39454
#
# Poissons Ratio (x) = 0.24064 0.36280
# Poissons Ratio (y) = 0.24064 0.36281
# Poissons Ratio (z) = 0.17573 0.17573
#
# Static dielectric constant tensor:
#      x y z
#    x 2.174360 0.000000 0.000000 
#    y 0.000000 2.174350 0.000000 
#    z 0.000000 0.000000 1.803370 
# 
# From -- ./inp_files/21746.got.cif
#   From: 2010.05.17/outbox.cif.g08.bks.cpg/sg91_11_cif.got.tgz:21746.got - 2010.06.03 19:20:03.
