data_PCOD9548703
_publ_section_title
;
Structure prediction by ZEFSAII (Michael W. Deem and Ramdas Pophale) SiO2 
 PCOD9548703
Probable space group: P 41 2 2
;
_chemical_formula_sum "Si O2"
_cell_formula_units_Z 32
_cell_length_a 9.874931
_cell_length_b 9.874931
_cell_length_c 18.076244
_cell_angle_alpha 90.000000
_cell_angle_beta 90.000000
_cell_angle_gamma 90.000000
_cell_volume 1762.691598
_symmetry_space_group_name_H-M "P 41 2 2"
_symmetry_group_IT_number 91
_symmetry_cell_setting 'tetragonal'
loop_
_space_group_symop_operation_xyz
x,y,z
-y,x,1/4+z
-x,-y,1/2+z
y,-x,3/4+z
x,-y,1/2-z
-x,y,-z
y,x,3/4-z
-y,-x,1/4-z
loop_
_atom_site_type_symbol
_atom_site_label
_atom_site_fract_x
_atom_site_fract_y
_atom_site_fract_z
Si Si1 0.128842 0.671342 0.944590
Si Si2 0.360257 0.555020 0.539892
Si Si3 0.013882 0.125425 0.195238
Si Si4 0.158987 0.346658 0.725277
O O1 0.248771 0.563797 0.960331
O O2 0.170743 0.829498 0.944957
O O3 0.100705 0.655281 0.857381
O O4 0.000000 0.652661 0.000000
O O5 0.500000 0.510745 0.500000
O O6 0.394848 0.605152 0.625000
O O7 0.309668 0.683109 0.490549
O O8 0.926823 0.248806 0.224081
O O9 0.011996 0.000000 0.250000
O O10 0.939958 0.060043 0.125000
O O11 0.150721 0.500000 0.750000
#
# Coordination Sequence:
#
# PCOD9548703 Si02
#       4
#     8   8   8   8
#     4  11  25  43  65  99 135 173 222 279 336 402
#     4  11  22  45  68  93 132 176 224 278 335 404
#     4  11  23  42  66  93 131 172 217 273 339 399
#     4  11  23  42  67  97 132 171 226 276 327 405
#
# _framework density 18.154056000000001
#
# number of rings (size 3 to 8) (size 9 to 14) (size 15 to 20)
#    0.000    1.000    7.500    0.750    0.000    4.000 
#    4.500    0.000    0.000    0.000    0.000    0.000 
#    0.000    0.000    0.000    0.000    0.000    0.000 
#
# Total GULP energy -178225.491308 kJ/mol
# GULP energy per Si atom -5569.546603 kJ/mol
# Density = 1.811274 g / cm^3
# Si number density = 18.154056 Si / 1000 Ang^3
#
#
#
# Elastic Constant Matrix: (Units=GPa)
#
#
# Indices 1 2 3 4 5 6 
#
# 1 100.1790 105.3239 40.1583 0.0000 0.0000 0.0000
# 2 105.3239 100.1790 40.1577 0.0000 0.0000 0.0000
# 3 40.1583 40.1577 118.8424 0.0000 0.0000 0.0000
# 4 0.0000 0.0000 0.0000 33.3922 0.0000 0.0000
# 5 0.0000 0.0000 0.0000 0.0000 33.3925 0.0000
# 6 0.0000 0.0000 0.0000 0.0000 0.0000 62.8649
#
#
#
# Elastic Compliance Matrix: (Units=1/GPa)
#
#
# Indices 1 2 3 4 5 6 
#
# 1 -0.094381 0.099988 -0.001894 0.000000 0.000000 0.000000
# 2 0.099988 -0.094381 -0.001895 0.000000 0.000000 0.000000
# 3 -0.001894 -0.001895 0.009695 0.000000 0.000000 0.000000
# 4 0.000000 0.000000 0.000000 0.029947 0.000000 0.000000
# 5 0.000000 0.000000 0.000000 0.000000 0.029947 0.000000
# 6 0.000000 0.000000 0.000000 0.000000 0.000000 0.015907
#
#
# Mechanical properties :
#
#
# Convention : Reuss Voigt Hill
#
# Bulk Modulus (GPa) = 75.01930 76.72003 75.86966
# Shear Modulus (GPa) = -17.16911 34.83398 8.83243
#
# Velocity S-wave (km/s) = -3.07863 4.38516 2.20813
# Velocity P-wave (km/s) = 5.36434 8.24571 6.95586
#
# Compressibility (1/GPa) = 0.01332990
#
# Stress axis : x y z
#
# Youngs Moduli (GPa) = -10.59531 -10.59536 103.14762
#
# Poissons Ratio (x) = 1.05941 0.19536
# Poissons Ratio (y) = 1.05940 0.19547
# Poissons Ratio (z) = -0.02007 -0.02008
#
# Static dielectric constant tensor:
#      x y z
#    x 1.560650 0.000000 0.000000 
#    y 0.000000 1.560640 0.000000 
#    z 0.000000 0.000000 1.650810 
# 
# From -- ./inp_files/6007.got.cif
#   From: 2010.05.17/outbox.cif.g08.bks.cpg/sg91_4_cif.got.tgz:6007.got - 2010.06.03 19:20:03.
