data_PCOD9548176
_publ_section_title
;
Structure prediction by ZEFSAII (Michael W. Deem and Ramdas Pophale) SiO2 
 PCOD9548176
Probable space group: P 41 2 2
;
_chemical_formula_sum "Si O2"
_cell_formula_units_Z 48
_cell_length_a 12.078494
_cell_length_b 12.078494
_cell_length_c 16.189240
_cell_angle_alpha 90.000000
_cell_angle_beta 90.000000
_cell_angle_gamma 90.000000
_cell_volume 2361.848504
_symmetry_space_group_name_H-M "P 41 2 2"
_symmetry_group_IT_number 91
_symmetry_cell_setting 'tetragonal'
loop_
_space_group_symop_operation_xyz
x,y,z
-y,x,1/4+z
-x,-y,1/2+z
y,-x,3/4+z
x,-y,1/2-z
-x,y,-z
y,x,3/4-z
-y,-x,1/4-z
loop_
_atom_site_type_symbol
_atom_site_label
_atom_site_fract_x
_atom_site_fract_y
_atom_site_fract_z
Si Si1 0.022533 0.751385 0.624867
Si Si2 0.830817 0.163500 0.263063
Si Si3 0.991596 0.504689 0.599756
Si Si4 0.635831 0.205262 0.864031
Si Si5 0.615227 0.774043 0.821217
Si Si6 0.589797 0.441185 0.929510
O O1 0.936599 0.830240 0.577796
O O2 0.976365 0.628056 0.634893
O O3 0.062602 0.806196 0.708968
O O4 0.124639 0.744449 0.558600
O O5 0.803631 0.268592 0.318070
O O6 0.886550 0.425344 0.615606
O O7 0.000000 0.514983 0.500000
O O8 0.106977 0.451734 0.629542
O O9 0.668591 0.195749 0.767571
O O10 0.596771 0.330158 0.877141
O O11 0.700196 0.700196 0.875000
O O12 0.500274 0.706808 0.800075
O O13 0.534457 0.534457 0.875000
O O14 0.500000 0.418615 0.000000
#
# Coordination Sequence:
#
# PCOD9548176 Si02
#       6
#     8   8   8   8   8   8
#     4  10  21  42  68  98 132 180 217 292 343 402
#     4  10  22  39  68  98 134 169 233 275 349 399
#     4  10  21  41  62  94 133 175 224 275 343 401
#     4  11  24  38  63  98 132 178 228 279 342 416
#     4  10  23  43  68  91 137 186 222 282 345 419
#     4  11  22  38  59  94 132 173 223 281 345 415
#
# _framework density 20.323066000000001
#
# number of rings (size 3 to 8) (size 9 to 14) (size 15 to 20)
#    0.000    1.667    3.333    1.000    4.667    1.333 
#    0.000    1.667   40.333    0.000    0.000    0.000 
#    0.000    0.000    0.000    0.000    0.000    0.000 
#
# Total GULP energy -267489.179452 kJ/mol
# GULP energy per Si atom -5572.691239 kJ/mol
# Density = 2.027681 g / cm^3
# Si number density = 20.323066 Si / 1000 Ang^3
#
#
#
# Elastic Constant Matrix: (Units=GPa)
#
#
# Indices 1 2 3 4 5 6 
#
# 1 86.9863 28.9813 24.6585 0.0000 0.0000 0.0000
# 2 28.9813 86.9863 24.6585 0.0000 0.0000 0.0000
# 3 24.6585 24.6585 58.2805 0.0000 0.0000 0.0000
# 4 0.0000 0.0000 0.0000 34.8244 0.0000 0.0000
# 5 0.0000 0.0000 0.0000 0.0000 34.8244 0.0000
# 6 0.0000 0.0000 0.0000 0.0000 0.0000 12.2273
#
#
#
# Elastic Compliance Matrix: (Units=1/GPa)
#
#
# Indices 1 2 3 4 5 6 
#
# 1 0.013877 -0.003362 -0.004449 0.000000 0.000000 0.000000
# 2 -0.003362 0.013877 -0.004449 0.000000 0.000000 0.000000
# 3 -0.004449 -0.004449 0.020923 0.000000 0.000000 0.000000
# 4 0.000000 0.000000 0.000000 0.028715 0.000000 0.000000
# 5 0.000000 0.000000 0.000000 0.000000 0.028715 0.000000
# 6 0.000000 0.000000 0.000000 0.000000 0.000000 0.081784
#
#
# Mechanical properties :
#
#
# Convention : Reuss Voigt Hill
#
# Bulk Modulus (GPa) = 41.39501 43.20554 42.30028
# Shear Modulus (GPa) = 22.67918 26.63887 24.65903
#
# Velocity S-wave (km/s) = 3.34418 3.62438 3.48710
# Velocity P-wave (km/s) = 5.94341 6.23060 6.08870
#
# Compressibility (1/GPa) = 0.02415750
#
# Stress axis : x y z
#
# Youngs Moduli (GPa) = 72.05915 72.05915 47.79409
#
# Poissons Ratio (x) = 0.24229 0.21263
# Poissons Ratio (y) = 0.24229 0.21263
# Poissons Ratio (z) = 0.32059 0.32059
#
# Static dielectric constant tensor:
#      x y z
#    x 1.758680 0.000000 0.000000 
#    y 0.000000 1.758680 0.000000 
#    z 0.000000 0.000000 1.712550 
# 
# From -- ./inp_files/21111.got.cif
#   From: 2010.05.17/outbox.cif.g08.bks.cpg/sg91_11_cif.got.tgz:21111.got - 2010.06.03 19:20:03.
