data_PCOD9548316
_publ_section_title
;
Structure prediction by ZEFSAII (Michael W. Deem and Ramdas Pophale) SiO2 
 PCOD9548316
Probable space group: P 41 2 2
;
_chemical_formula_sum "Si O2"
_cell_formula_units_Z 24
_cell_length_a 10.911874
_cell_length_b 10.911874
_cell_length_c 8.637500
_cell_angle_alpha 90.000000
_cell_angle_beta 90.000000
_cell_angle_gamma 90.000000
_cell_volume 1028.458437
_symmetry_space_group_name_H-M "P 41 2 2"
_symmetry_group_IT_number 91
_symmetry_cell_setting 'tetragonal'
loop_
_space_group_symop_operation_xyz
x,y,z
-y,x,1/4+z
-x,-y,1/2+z
y,-x,3/4+z
x,-y,1/2-z
-x,y,-z
y,x,3/4-z
-y,-x,1/4-z
loop_
_atom_site_type_symbol
_atom_site_label
_atom_site_fract_x
_atom_site_fract_y
_atom_site_fract_z
Si Si1 0.324319 0.052572 0.983337
Si Si2 0.201860 0.256644 0.195007
Si Si3 0.346215 0.500000 0.250000
Si Si4 0.494326 0.000000 0.250000
O O1 0.414389 0.090549 0.843038
O O2 0.241059 0.943789 0.919524
O O3 0.268162 0.163905 0.076781
O O4 0.403146 0.973516 0.109784
O O5 0.223775 0.223775 0.375000
O O6 0.261216 0.392281 0.178150
O O7 0.431811 0.431811 0.375000
#
# Coordination Sequence:
#
# PCOD9548316 Si02
#       4
#     8   8   4   4
#     4  11  23  42  73 100 145 192 258 301 385 452
#     4  11  22  43  70 103 139 199 241 314 375 449
#     4  10  24  42  66 108 152 186 246 310 376 444
#     4  10  22  40  68 106 132 198 236 310 370 468
#
# _framework density 23.335896999999999
#
# number of rings (size 3 to 8) (size 9 to 14) (size 15 to 20)
#    0.000    1.333    3.333    2.000    4.667    4.000 
#    0.000    0.000   14.667    0.000    0.000    0.000 
#    0.000    0.000    0.000    0.000    0.000    0.000 
#
# Total GULP energy -133666.095676 kJ/mol
# GULP energy per Si atom -5569.420653 kJ/mol
# Density = 2.328278 g / cm^3
# Si number density = 23.335897 Si / 1000 Ang^3
#
#
#
# Elastic Constant Matrix: (Units=GPa)
#
#
# Indices 1 2 3 4 5 6 
#
# 1 148.7489 73.1977 53.4139 0.0000 0.0000 0.0000
# 2 73.1977 148.7489 53.4139 0.0000 0.0000 0.0000
# 3 53.4139 53.4139 128.2315 0.0000 0.0000 0.0000
# 4 0.0000 0.0000 0.0000 50.7123 0.0000 0.0000
# 5 0.0000 0.0000 0.0000 0.0000 50.7123 0.0000
# 6 0.0000 0.0000 0.0000 0.0000 0.0000 19.4751
#
#
#
# Elastic Compliance Matrix: (Units=1/GPa)
#
#
# Indices 1 2 3 4 5 6 
#
# 1 0.009436 -0.003800 -0.002347 0.000000 0.000000 0.000000
# 2 -0.003800 0.009436 -0.002347 0.000000 0.000000 0.000000
# 3 -0.002347 -0.002347 0.009754 0.000000 0.000000 0.000000
# 4 0.000000 0.000000 0.000000 0.019719 0.000000 0.000000
# 5 0.000000 0.000000 0.000000 0.000000 0.019719 0.000000
# 6 0.000000 0.000000 0.000000 0.000000 0.000000 0.051348
#
#
# Mechanical properties :
#
#
# Convention : Reuss Voigt Hill
#
# Bulk Modulus (GPa) = 85.94564 87.30891 86.62727
# Shear Modulus (GPa) = 35.64302 40.56021 38.10161
#
# Velocity S-wave (km/s) = 3.91242 4.17358 4.04511
# Velocity P-wave (km/s) = 7.57094 7.79232 7.68243
#
# Compressibility (1/GPa) = 0.01163526
#
# Stress axis : x y z
#
# Youngs Moduli (GPa) = 105.97983 105.97983 102.52230
#
# Poissons Ratio (x) = 0.40276 0.24066
# Poissons Ratio (y) = 0.40276 0.24066
# Poissons Ratio (z) = 0.24878 0.24878
#
# Static dielectric constant tensor:
#      x y z
#    x 1.956540 0.000000 0.000000 
#    y 0.000000 1.956540 0.000000 
#    z 0.000000 0.000000 1.933060 
# 
# From -- ./inp_files/9370.got.cif
#   From: 2010.05.17/outbox.cif.g08.bks.cpg/sg91_5_cif.got.tgz:9370.got - 2010.06.03 19:20:03.
