data_PCOD9548706
_publ_section_title
;
Structure prediction by ZEFSAII (Michael W. Deem and Ramdas Pophale) SiO2 
 PCOD9548706
Probable space group: P 41 2 2
;
_chemical_formula_sum "Si O2"
_cell_formula_units_Z 24
_cell_length_a 8.169805
_cell_length_b 8.169805
_cell_length_c 14.972105
_cell_angle_alpha 90.000000
_cell_angle_beta 90.000000
_cell_angle_gamma 90.000000
_cell_volume 999.323834
_symmetry_space_group_name_H-M "P 41 2 2"
_symmetry_group_IT_number 91
_symmetry_cell_setting 'tetragonal'
loop_
_space_group_symop_operation_xyz
x,y,z
-y,x,1/4+z
-x,-y,1/2+z
y,-x,3/4+z
x,-y,1/2-z
-x,y,-z
y,x,3/4-z
-y,-x,1/4-z
loop_
_atom_site_type_symbol
_atom_site_label
_atom_site_fract_x
_atom_site_fract_y
_atom_site_fract_z
Si Si1 0.585298 0.414703 0.125000
Si Si2 0.819158 0.223422 0.993306
Si Si3 0.705383 0.500000 0.750000
Si Si4 0.174095 0.849142 0.962985
O O1 0.684688 0.328635 0.207060
O O2 0.408888 0.429448 0.172142
O O3 0.792882 0.191989 0.888973
O O4 0.000000 0.307086 0.000000
O O5 0.833456 0.045632 0.037640
O O6 0.807889 0.663561 0.770681
O O7 0.000000 0.787857 0.000000
#
# Coordination Sequence:
#
# PCOD9548706 Si02
#       4
#     4   8   4   8
#     4  12  26  50  70 112 162 196 266 330 400 476
#     4  11  22  49  81 112 149 212 267 330 407 472
#     4  12  30  44  70 116 160 208 258 328 402 470
#     4  11  25  48  83 116 155 208 271 326 397 491
#
# _framework density 24.01624
#
# number of rings (size 3 to 8) (size 9 to 14) (size 15 to 20)
#    0.000    0.667    3.333    5.000    4.667    5.333 
#    0.000    0.000    0.000    0.000    0.000    0.000 
#    0.000    0.000    0.000    0.000    0.000    0.000 
#
# Total GULP energy -133729.235045 kJ/mol
# GULP energy per Si atom -5572.051460 kJ/mol
# Density = 2.396158 g / cm^3
# Si number density = 24.016240 Si / 1000 Ang^3
#
#
#
# Elastic Constant Matrix: (Units=GPa)
#
#
# Indices 1 2 3 4 5 6 
#
# 1 98.4666 107.1204 53.0377 0.0000 0.0000 0.0000
# 2 107.1204 98.4673 53.0378 0.0000 0.0000 0.0000
# 3 53.0377 53.0378 159.6607 0.0000 0.0000 0.0000
# 4 0.0000 0.0000 0.0000 -16.8251 0.0000 0.0000
# 5 0.0000 0.0000 0.0000 0.0000 -16.8259 0.0000
# 6 0.0000 0.0000 0.0000 0.0000 0.0000 85.9969
#
#
#
# Elastic Compliance Matrix: (Units=1/GPa)
#
#
# Indices 1 2 3 4 5 6 
#
# 1 -0.054846 0.060716 -0.001950 0.000000 0.000000 0.000000
# 2 0.060716 -0.054845 -0.001950 0.000000 0.000000 0.000000
# 3 -0.001950 -0.001950 0.007559 0.000000 0.000000 0.000000
# 4 0.000000 0.000000 0.000000 -0.059435 0.000000 0.000000
# 5 0.000000 0.000000 0.000000 0.000000 -0.059432 0.000000
# 6 0.000000 0.000000 0.000000 0.000000 0.000000 0.011628
#
#
# Mechanical properties :
#
#
# Convention : Reuss Voigt Hill
#
# Bulk Modulus (GPa) = 86.96254 86.99847 86.98051
# Shear Modulus (GPa) = -15.66568 20.02908 2.18170
#
# Velocity S-wave (km/s) = -2.55678 2.89101 0.95415
# Velocity P-wave (km/s) = 5.25094 6.88821 6.12453
#
# Compressibility (1/GPa) = 0.01149920
#
# Stress axis : x y z
#
# Youngs Moduli (GPa) = -18.23297 -18.23311 132.29518
#
# Poissons Ratio (x) = 1.10704 0.25798
# Poissons Ratio (y) = 1.10703 0.25798
# Poissons Ratio (z) = -0.03555 -0.03556
#
# Static dielectric constant tensor:
#      x y z
#    x 2.040880 0.000000 0.000000 
#    y 0.000000 2.040880 0.000000 
#    z 0.000000 0.000000 1.966780 
# 
# From -- ./inp_files/4314.got.cif
#   From: 2010.05.17/outbox.cif.g08.bks.cpg/sg91_3_cif.got.tgz:4314.got - 2010.06.03 19:20:03.
