data_PCOD9548692
_publ_section_title
;
Structure prediction by ZEFSAII (Michael W. Deem and Ramdas Pophale) SiO2 
 PCOD9548692
Probable space group: P 41 2 2
;
_chemical_formula_sum "Si O2"
_cell_formula_units_Z 36
_cell_length_a 12.177371
_cell_length_b 12.177371
_cell_length_c 12.062003
_cell_angle_alpha 90.000000
_cell_angle_beta 90.000000
_cell_angle_gamma 90.000000
_cell_volume 1788.654697
_symmetry_space_group_name_H-M "P 41 2 2"
_symmetry_group_IT_number 91
_symmetry_cell_setting 'tetragonal'
loop_
_space_group_symop_operation_xyz
x,y,z
-y,x,1/4+z
-x,-y,1/2+z
y,-x,3/4+z
x,-y,1/2-z
-x,y,-z
y,x,3/4-z
-y,-x,1/4-z
loop_
_atom_site_type_symbol
_atom_site_label
_atom_site_fract_x
_atom_site_fract_y
_atom_site_fract_z
Si Si1 0.452115 0.725702 0.376674
Si Si2 0.681591 0.048033 0.874349
Si Si3 0.755806 0.392708 0.924753
Si Si4 0.131641 0.167815 0.002577
Si Si5 0.500000 0.091296 0.500000
O O1 0.500000 0.718336 0.500000
O O2 0.387618 0.840088 0.364248
O O3 0.549002 0.723678 0.288849
O O4 0.356949 0.636036 0.362308
O O5 0.692977 0.000000 0.750000
O O6 0.605876 0.977058 0.958307
O O7 0.799243 0.075896 0.930069
O O8 0.832752 0.469510 0.852890
O O9 0.826455 0.283054 0.947706
O O10 0.167436 0.167436 0.875000
O O11 0.000000 0.155111 0.000000
#
# Coordination Sequence:
#
# PCOD9548692 Si02
#       5
#     8   8   8   8   4
#     4  11  22  43  67  99 135 178 231 283 347 424
#     4  11  23  42  73 104 137 186 235 293 358 423
#     4  11  25  42  67 100 135 180 232 287 350 423
#     4  11  25  44  70 107 139 184 238 286 358 436
#     4  12  24  44  72  96 138 182 234 294 356 424
#
# _framework density 20.126857000000001
#
# number of rings (size 3 to 8) (size 9 to 14) (size 15 to 20)
#    0.000    0.889    3.333    4.667    3.111    1.778 
#    6.000    2.222    0.000    0.000    0.000    0.000 
#    0.000    0.000    0.000    0.000    0.000    0.000 
#
# Total GULP energy -201161.817770 kJ/mol
# GULP energy per Si atom -5587.828271 kJ/mol
# Density = 2.008105 g / cm^3
# Si number density = 20.126857 Si / 1000 Ang^3
#
#
#
# Elastic Constant Matrix: (Units=GPa)
#
#
# Indices 1 2 3 4 5 6 
#
# 1 -3.3185 160.4626 27.6346 0.0000 0.0000 0.0000
# 2 160.4626 -3.3185 27.6346 0.0000 0.0000 0.0000
# 3 27.6346 27.6346 82.7947 0.0000 0.0000 0.0000
# 4 0.0000 0.0000 0.0000 18.6685 0.0000 0.0000
# 5 0.0000 0.0000 0.0000 0.0000 18.6685 0.0000
# 6 0.0000 0.0000 0.0000 0.0000 0.0000 77.3823
#
#
#
# Elastic Compliance Matrix: (Units=1/GPa)
#
#
# Indices 1 2 3 4 5 6 
#
# 1 0.000552 0.006658 -0.002406 0.000000 0.000000 0.000000
# 2 0.006658 0.000552 -0.002406 0.000000 0.000000 0.000000
# 3 -0.002406 -0.002406 0.013685 0.000000 0.000000 0.000000
# 4 0.000000 0.000000 0.000000 0.053566 0.000000 0.000000
# 5 0.000000 0.000000 0.000000 0.000000 0.053566 0.000000
# 6 0.000000 0.000000 0.000000 0.000000 0.000000 0.012923
#
#
# Mechanical properties :
#
#
# Convention : Reuss Voigt Hill
#
# Bulk Modulus (GPa) = 54.11699 56.40239 55.25969
# Shear Modulus (GPa) = 36.41295 13.63892 25.02594
#
# Velocity S-wave (km/s) = 4.25805 2.60599 3.53003
# Velocity P-wave (km/s) = 7.14989 6.09419 6.64305
#
# Compressibility (1/GPa) = 0.01847848
#
# Stress axis : x y z
#
# Youngs Moduli (GPa) = 1811.16739 1811.16739 73.07534
#
# Poissons Ratio (x) = -12.05847 0.17586
# Poissons Ratio (y) = -12.05847 0.17586
# Poissons Ratio (z) = 4.35856 4.35856
#
# Static dielectric constant tensor:
#      x y z
#    x 1.684220 0.000000 0.000000 
#    y 0.000000 1.684220 0.000000 
#    z 0.000000 0.000000 1.677470 
# 
# From -- ./inp_files/3500.got.cif
#   From: 2010.05.17/outbox.cif.g08.bks.cpg/sg91_2_cif.got.tgz:3500.got - 2010.06.03 19:20:03.
