data_PCOD9548196
_publ_section_title
;
Structure prediction by ZEFSAII (Michael W. Deem and Ramdas Pophale) SiO2 
 PCOD9548196
Probable space group: P 41 2 2
;
_chemical_formula_sum "Si O2"
_cell_formula_units_Z 36
_cell_length_a 12.306642
_cell_length_b 12.306642
_cell_length_c 12.095564
_cell_angle_alpha 90.000000
_cell_angle_beta 90.000000
_cell_angle_gamma 90.000000
_cell_volume 1831.914744
_symmetry_space_group_name_H-M "P 41 2 2"
_symmetry_group_IT_number 91
_symmetry_cell_setting 'tetragonal'
loop_
_space_group_symop_operation_xyz
x,y,z
-y,x,1/4+z
-x,-y,1/2+z
y,-x,3/4+z
x,-y,1/2-z
-x,y,-z
y,x,3/4-z
-y,-x,1/4-z
loop_
_atom_site_type_symbol
_atom_site_label
_atom_site_fract_x
_atom_site_fract_y
_atom_site_fract_z
Si Si1 0.766144 0.161350 0.508504
Si Si2 0.711378 0.049032 0.870010
Si Si3 0.500000 0.128767 0.000000
Si Si4 0.479653 0.307212 0.835234
Si Si5 0.410880 0.706926 0.910944
O O1 0.773135 0.226866 0.625000
O O2 0.853327 0.208457 0.420337
O O3 0.649993 0.187367 0.455263
O O4 0.774654 0.038246 0.552771
O O5 0.680878 0.000000 0.750000
O O6 0.598989 0.072595 0.934649
O O7 0.556383 0.208292 0.088901
O O8 0.413591 0.413591 0.875000
O O9 0.460984 0.279812 0.708624
O O10 0.607293 0.327316 0.850043
O O11 0.500000 0.672238 0.000000
#
# Coordination Sequence:
#
# PCOD9548196 Si02
#       5
#     8   8   4   8   8
#     4  10  21  42  65  96 129 169 225 289 345 401
#     4  10  23  42  69  94 132 173 228 291 349 414
#     4  12  24  40  62  98 134 180 220 276 350 404
#     4  12  21  38  57  88 142 181 216 260 330 404
#     4  12  23  34  61  94 130 176 226 265 317 416
#
# _framework density 19.65157
#
# number of rings (size 3 to 8) (size 9 to 14) (size 15 to 20)
#    0.000    0.889    4.444    3.333    4.667    0.000 
#    0.000    0.000    0.000   30.667    0.000    0.000 
#    0.000    0.000    0.000    0.000    0.000    0.000 
#
# Total GULP energy -200774.495075 kJ/mol
# GULP energy per Si atom -5577.069308 kJ/mol
# Density = 1.960684 g / cm^3
# Si number density = 19.651570 Si / 1000 Ang^3
#
#
#
# Elastic Constant Matrix: (Units=GPa)
#
#
# Indices 1 2 3 4 5 6 
#
# 1 62.6409 28.8523 29.8374 0.0000 0.0000 0.0000
# 2 28.8523 62.6411 29.8372 0.0000 0.0000 0.0000
# 3 29.8374 29.8372 110.4844 0.0000 0.0000 0.0000
# 4 0.0000 0.0000 0.0000 32.1937 0.0000 0.0000
# 5 0.0000 0.0000 0.0000 0.0000 32.1937 0.0000
# 6 0.0000 0.0000 0.0000 0.0000 0.0000 13.7087
#
#
#
# Elastic Compliance Matrix: (Units=1/GPa)
#
#
# Indices 1 2 3 4 5 6 
#
# 1 0.021431 -0.008165 -0.003583 0.000000 0.000000 0.000000
# 2 -0.008165 0.021431 -0.003583 0.000000 0.000000 0.000000
# 3 -0.003583 -0.003583 0.010986 0.000000 0.000000 0.000000
# 4 0.000000 0.000000 0.000000 0.031062 0.000000 0.000000
# 5 0.000000 0.000000 0.000000 0.000000 0.031062 0.000000
# 6 0.000000 0.000000 0.000000 0.000000 0.000000 0.072947
#
#
# Mechanical properties :
#
#
# Convention : Reuss Voigt Hill
#
# Bulk Modulus (GPa) = 43.12531 45.86891 44.49711
# Shear Modulus (GPa) = 21.99654 25.43517 23.71586
#
# Velocity S-wave (km/s) = 3.34926 3.60155 3.47770
# Velocity P-wave (km/s) = 6.07860 6.37861 6.23041
#
# Compressibility (1/GPa) = 0.02318824
#
# Stress axis : x y z
#
# Youngs Moduli (GPa) = 46.66103 46.66128 91.02362
#
# Poissons Ratio (x) = 0.38097 0.32612
# Poissons Ratio (y) = 0.38097 0.32611
# Poissons Ratio (z) = 0.16718 0.16717
#
# Static dielectric constant tensor:
#      x y z
#    x 1.718310 0.000000 0.000000 
#    y 0.000000 1.718310 0.000000 
#    z 0.000000 0.000000 1.680900 
# 
# From -- ./inp_files/3523.got.cif
#   From: 2010.05.17/outbox.cif.g08.bks.cpg/sg91_2_cif.got.tgz:3523.got - 2010.06.03 19:20:03.
