data_PCOD9548093
_publ_section_title
;
Structure prediction by ZEFSAII (Michael W. Deem and Ramdas Pophale) SiO2 
 PCOD9548093
Probable space group: P 41 2 2
;
_chemical_formula_sum "Si O2"
_cell_formula_units_Z 32
_cell_length_a 12.200151
_cell_length_b 12.200151
_cell_length_c 11.244112
_cell_angle_alpha 90.000000
_cell_angle_beta 90.000000
_cell_angle_gamma 90.000000
_cell_volume 1673.615058
_symmetry_space_group_name_H-M "P 41 2 2"
_symmetry_group_IT_number 91
_symmetry_cell_setting 'tetragonal'
loop_
_space_group_symop_operation_xyz
x,y,z
-y,x,1/4+z
-x,-y,1/2+z
y,-x,3/4+z
x,-y,1/2-z
-x,y,-z
y,x,3/4-z
-y,-x,1/4-z
loop_
_atom_site_type_symbol
_atom_site_label
_atom_site_fract_x
_atom_site_fract_y
_atom_site_fract_z
Si Si1 0.126923 0.742554 0.025472
Si Si2 0.576897 0.500000 0.750000
Si Si3 0.294389 0.673769 0.380614
Si Si4 0.489166 0.874781 0.753349
Si Si5 0.757481 0.500000 0.250000
O O1 0.181241 0.818760 0.125000
O O2 0.208476 0.748364 0.912219
O O3 0.128956 0.612359 0.056896
O O4 0.000000 0.770029 0.000000
O O5 0.514701 0.514701 0.875000
O O6 0.647281 0.390132 0.771570
O O7 0.200559 0.594088 0.425640
O O8 0.388352 0.689778 0.480260
O O9 0.493599 0.828933 0.619257
O O10 0.453236 0.000000 0.750000
#
# Coordination Sequence:
#
# PCOD9548093 Si02
#       5
#     8   4   8   8   4
#     4  10  22  40  60  84 115 154 197 245 292 343
#     4  12  23  35  58  92 126 159 197 244 302 378
#     4  11  21  36  59  86 119 156 195 239 300 367
#     4  10  22  38  61  89 118 155 199 250 302 360
#     4  10  21  37  54  84 126 155 189 246 304 362
#
# _framework density 19.120284999999999
#
# number of rings (size 3 to 8) (size 9 to 14) (size 15 to 20)
#    0.000    1.500    0.000    6.750    0.000    7.000 
#    0.000    1.250    0.000    0.000    0.000    0.000 
#    0.000    0.000    0.000    0.000    0.000    0.000 
#
# Total GULP energy -178720.379399 kJ/mol
# GULP energy per Si atom -5585.011856 kJ/mol
# Density = 1.907677 g / cm^3
# Si number density = 19.120285 Si / 1000 Ang^3
#
#
#
# Elastic Constant Matrix: (Units=GPa)
#
#
# Indices 1 2 3 4 5 6 
#
# 1 136.5533 77.5792 58.0752 0.0000 0.0000 0.0000
# 2 77.5792 136.5557 58.0744 0.0000 0.0000 0.0000
# 3 58.0752 58.0744 95.5866 0.0000 0.0000 0.0000
# 4 0.0000 0.0000 0.0000 11.9385 0.0000 0.0000
# 5 0.0000 0.0000 0.0000 0.0000 11.9384 0.0000
# 6 0.0000 0.0000 0.0000 0.0000 0.0000 12.0312
#
#
#
# Elastic Compliance Matrix: (Units=1/GPa)
#
#
# Indices 1 2 3 4 5 6 
#
# 1 0.011961 -0.004995 -0.004232 0.000000 0.000000 0.000000
# 2 -0.004995 0.011961 -0.004232 0.000000 0.000000 0.000000
# 3 -0.004232 -0.004232 0.015604 0.000000 0.000000 0.000000
# 4 0.000000 0.000000 0.000000 0.083762 0.000000 0.000000
# 5 0.000000 0.000000 0.000000 0.000000 0.083763 0.000000
# 6 0.000000 0.000000 0.000000 0.000000 0.000000 0.083117
#
#
# Mechanical properties :
#
#
# Convention : Reuss Voigt Hill
#
# Bulk Modulus (GPa) = 79.31986 84.01702 81.66844
# Shear Modulus (GPa) = 15.56231 18.84610 17.20420
#
# Velocity S-wave (km/s) = 2.85602 3.14293 3.00290
# Velocity P-wave (km/s) = 7.24227 7.56355 7.40466
#
# Compressibility (1/GPa) = 0.01260718
#
# Stress axis : x y z
#
# Youngs Moduli (GPa) = 83.60467 83.60744 64.08595
#
# Poissons Ratio (x) = 0.41765 0.27122
# Poissons Ratio (y) = 0.41764 0.27120
# Poissons Ratio (z) = 0.35383 0.35381
#
# Static dielectric constant tensor:
#      x y z
#    x 1.685070 0.000000 0.000000 
#    y 0.000000 1.685070 0.000000 
#    z 0.000000 0.000000 1.665420 
# 
# From -- ./inp_files/3425.got.cif
#   From: 2010.05.17/outbox.cif.g08.bks.cpg/sg91_2_cif.got.tgz:3425.got - 2010.06.03 19:20:03.
