data_PCOD9548978
_publ_section_title
;
Structure prediction by ZEFSAII (Michael W. Deem and Ramdas Pophale) SiO2 
 PCOD9548978
Probable space group: P 41 21 2
;
_chemical_formula_sum "Si O2"
_cell_formula_units_Z 40
_cell_length_a 14.594932
_cell_length_b 14.594932
_cell_length_c 8.071164
_cell_angle_alpha 90.000000
_cell_angle_beta 90.000000
_cell_angle_gamma 90.000000
_cell_volume 1719.255109
_symmetry_space_group_name_H-M "P 41 21 2"
_symmetry_group_IT_number 92
_symmetry_cell_setting 'tetragonal'
loop_
_space_group_symop_operation_xyz
x,y,z
1/2-y,1/2+x,1/4+z
-x,-y,1/2+z
1/2+y,1/2-x,3/4+z
1/2+x,1/2-y,3/4-z
1/2-x,1/2+y,1/4-z
y,x,-z
-y,-x,1/2-z
loop_
_atom_site_type_symbol
_atom_site_label
_atom_site_fract_x
_atom_site_fract_y
_atom_site_fract_z
Si Si1 0.238909 0.019612 0.586486
Si Si2 0.780587 0.570736 0.702624
Si Si3 0.929482 0.063202 0.553060
Si Si4 0.160853 0.683275 0.783211
Si Si5 0.232509 0.620249 0.305405
O O1 0.280963 0.090519 0.454072
O O2 0.243670 0.071411 0.766284
O O3 0.135802 0.994158 0.538000
O O4 0.289286 0.920347 0.592129
O O5 0.674086 0.585588 0.742548
O O6 0.818054 0.641378 0.569786
O O7 0.787767 0.462791 0.680675
O O8 0.833423 0.601278 0.867158
O O9 0.932696 0.067305 0.750000
O O10 0.963396 0.963396 0.500000
O O11 0.234346 0.765655 0.750000
O O12 0.313726 0.686275 0.250000
#
# Coordination Sequence:
#
# PCOD9548978 Si02
#       5
#     8   8   8   8   8
#     4  10  23  42  71 101 140 193 242 295 373 433
#     4  10  22  42  71  98 142 186 235 303 358 419
#     4  12  27  42  68 108 143 185 243 299 364 434
#     4  10  19  41  72  95 137 184 236 301 352 436
#     4  10  22  42  76 103 144 194 246 306 366 432
#
# _framework density 23.265889999999999
#
# number of rings (size 3 to 8) (size 9 to 14) (size 15 to 20)
#    0.000    1.600    2.000    1.800    8.400    0.000 
#    0.000    0.000   66.000    0.000    0.000    0.000 
#    0.000    0.000    0.000    0.000    0.000    0.000 
#
# Total GULP energy -223433.414530 kJ/mol
# GULP energy per Si atom -5585.835363 kJ/mol
# Density = 2.321294 g / cm^3
# Si number density = 23.265890 Si / 1000 Ang^3
#
#
#
# Elastic Constant Matrix: (Units=GPa)
#
#
# Indices 1 2 3 4 5 6 
#
# 1 396.7494 -126.6933 18.9616 0.0000 0.0000 0.0000
# 2 -126.6933 396.7368 18.9609 0.0000 0.0000 0.0000
# 3 18.9616 18.9609 60.8372 0.0000 0.0000 0.0000
# 4 0.0000 0.0000 0.0000 -13.3441 0.0000 0.0000
# 5 0.0000 0.0000 0.0000 0.0000 -13.3366 0.0000
# 6 0.0000 0.0000 0.0000 0.0000 0.0000 39.9863
#
#
#
# Elastic Compliance Matrix: (Units=1/GPa)
#
#
# Indices 1 2 3 4 5 6 
#
# 1 0.002891 0.000981 -0.001207 0.000000 0.000000 0.000000
# 2 0.000981 0.002892 -0.001207 0.000000 0.000000 0.000000
# 3 -0.001207 -0.001207 0.017190 0.000000 0.000000 0.000000
# 4 0.000000 0.000000 0.000000 -0.074940 0.000000 0.000000
# 5 0.000000 0.000000 0.000000 0.000000 -0.074982 0.000000
# 6 0.000000 0.000000 0.000000 0.000000 0.000000 0.025009
#
#
# Mechanical properties :
#
#
# Convention : Reuss Voigt Hill
#
# Bulk Modulus (GPa) = 49.73426 75.19798 62.46612
# Shear Modulus (GPa) = -54.12894 65.53407 5.70257
#
# Velocity S-wave (km/s) = -4.82865 5.31306 1.56728
# Velocity P-wave (km/s) = 3.10885 8.36836 5.49384
#
# Compressibility (1/GPa) = 0.02010686
#
# Stress axis : x y z
#
# Youngs Moduli (GPa) = 345.84894 345.83817 58.17455
#
# Poissons Ratio (x) = -0.33928 0.07021
# Poissons Ratio (y) = -0.33929 0.07021
# Poissons Ratio (z) = 0.41742 0.41741
#
# Static dielectric constant tensor:
#      x y z
#    x 1.907440 0.000000 0.000000 
#    y 0.000000 1.907440 0.000000 
#    z 0.000000 0.000000 1.815410 
# 
# From -- ./inp_files/1288.got.cif
#   From: 2010.05.17/outbox.cif.g08.bks.cpg/sg92_1_cif.got.tgz:1288.got - 2010.06.03 19:35:17.
