data_PCOD9548682
_publ_section_title
;
Structure prediction by ZEFSAII (Michael W. Deem and Ramdas Pophale) SiO2 
 PCOD9548682
Probable space group: P 41 2 2
;
_chemical_formula_sum "Si O2"
_cell_formula_units_Z 24
_cell_length_a 12.030512
_cell_length_b 12.030512
_cell_length_c 7.775840
_cell_angle_alpha 90.000000
_cell_angle_beta 90.000000
_cell_angle_gamma 90.000000
_cell_volume 1125.422353
_symmetry_space_group_name_H-M "P 41 2 2"
_symmetry_group_IT_number 91
_symmetry_cell_setting 'tetragonal'
loop_
_space_group_symop_operation_xyz
x,y,z
-y,x,1/4+z
-x,-y,1/2+z
y,-x,3/4+z
x,-y,1/2-z
-x,y,-z
y,x,3/4-z
-y,-x,1/4-z
loop_
_atom_site_type_symbol
_atom_site_label
_atom_site_fract_x
_atom_site_fract_y
_atom_site_fract_z
Si Si1 0.389723 0.389723 0.375000
Si Si2 0.954858 0.230994 0.172699
Si Si3 0.103892 0.103892 0.375000
Si Si4 0.753545 0.628869 0.214312
O O1 0.500000 0.390708 0.500000
O O2 0.298580 0.370151 0.523970
O O3 0.883194 0.116807 0.125000
O O4 0.867505 0.302499 0.276876
O O5 0.071468 0.209776 0.268170
O O6 0.000000 0.285424 0.000000
O O7 0.000000 0.097627 0.500000
O O8 0.772628 0.500000 0.250000
O O9 0.679018 0.679018 0.375000
#
# Coordination Sequence:
#
# PCOD9548682 Si02
#       4
#     4   8   4   8
#     4  12  22  41  74 111 142 192 244 298 369 446
#     4  11  22  41  68  96 135 181 237 294 354 424
#     4  12  18  35  62  97 122 170 246 294 345 408
#     4  11  24  44  71 106 148 188 235 297 366 443
#
# _framework density 21.325324999999999
#
# number of rings (size 3 to 8) (size 9 to 14) (size 15 to 20)
#    0.000    0.667    8.333    1.000    0.000    1.333 
#    0.000    1.667    0.000    0.000    0.000    0.000 
#    0.000    0.000    0.000    0.000    0.000    0.000 
#
# Total GULP energy -133619.386380 kJ/mol
# GULP energy per Si atom -5567.474433 kJ/mol
# Density = 2.127679 g / cm^3
# Si number density = 21.325325 Si / 1000 Ang^3
#
#
#
# Elastic Constant Matrix: (Units=GPa)
#
#
# Indices 1 2 3 4 5 6 
#
# 1 68.3997 82.8520 56.4431 0.0000 0.0000 0.0000
# 2 82.8520 68.4007 56.4432 0.0000 0.0000 0.0000
# 3 56.4431 56.4432 190.9960 0.0000 0.0000 0.0000
# 4 0.0000 0.0000 0.0000 32.6380 0.0000 0.0000
# 5 0.0000 0.0000 0.0000 0.0000 32.6379 0.0000
# 6 0.0000 0.0000 0.0000 0.0000 0.0000 15.9914
#
#
#
# Elastic Compliance Matrix: (Units=1/GPa)
#
#
# Indices 1 2 3 4 5 6 
#
# 1 -0.030357 0.038839 -0.002507 0.000000 0.000000 0.000000
# 2 0.038839 -0.030356 -0.002507 0.000000 0.000000 0.000000
# 3 -0.002507 -0.002507 0.006717 0.000000 0.000000 0.000000
# 4 0.000000 0.000000 0.000000 0.030639 0.000000 0.000000
# 5 0.000000 0.000000 0.000000 0.000000 0.030639 0.000000
# 6 0.000000 0.000000 0.000000 0.000000 0.000000 0.062534
#
#
# Mechanical properties :
#
#
# Convention : Reuss Voigt Hill
#
# Bulk Modulus (GPa) = 73.23248 79.91923 76.57586
# Shear Modulus (GPa) = 744.35560 25.05733 384.70647
#
# Velocity S-wave (km/s) = 18.70309 3.43155 13.44584
# Velocity P-wave (km/s) = 22.37906 7.29783 16.64453
#
# Compressibility (1/GPa) = 0.01365514
#
# Stress axis : x y z
#
# Youngs Moduli (GPa) = -32.94161 -32.94221 148.86997
#
# Poissons Ratio (x) = 1.27944 0.37316
# Poissons Ratio (y) = 1.27941 0.37318
# Poissons Ratio (z) = -0.08257 -0.08258
#
# Static dielectric constant tensor:
#      x y z
#    x 1.774310 0.000000 0.000000 
#    y 0.000000 1.774300 0.000000 
#    z 0.000000 0.000000 2.188370 
# 
# From -- ./inp_files/1882.got.cif
#   From: 2010.05.17/outbox.cif.g08.bks.cpg/sg91_1_cif.got.tgz:1882.got - 2010.06.03 19:20:03.
