data_PCOD9548168
_publ_section_title
;
Structure prediction by ZEFSAII (Michael W. Deem and Ramdas Pophale) SiO2 
 PCOD9548168
Probable space group: P 41 2 2
;
_chemical_formula_sum "Si O2"
_cell_formula_units_Z 32
_cell_length_a 7.754258
_cell_length_b 7.754258
_cell_length_c 23.694100
_cell_angle_alpha 90.000000
_cell_angle_beta 90.000000
_cell_angle_gamma 90.000000
_cell_volume 1424.691098
_symmetry_space_group_name_H-M "P 41 2 2"
_symmetry_group_IT_number 91
_symmetry_cell_setting 'tetragonal'
loop_
_space_group_symop_operation_xyz
x,y,z
-y,x,1/4+z
-x,-y,1/2+z
y,-x,3/4+z
x,-y,1/2-z
-x,y,-z
y,x,3/4-z
-y,-x,1/4-z
loop_
_atom_site_type_symbol
_atom_site_label
_atom_site_fract_x
_atom_site_fract_y
_atom_site_fract_z
Si Si1 0.344503 0.284535 0.037754
Si Si2 0.849175 0.150826 0.625000
Si Si3 0.000000 0.532940 0.500000
Si Si4 0.089686 0.786398 0.242571
Si Si5 0.197678 0.694868 0.908015
O O1 0.386614 0.290908 0.104505
O O2 0.500000 0.358116 0.000000
O O3 0.158823 0.368463 0.027878
O O4 0.308496 0.089787 0.016225
O O5 0.798982 0.232238 0.684931
O O6 0.051973 0.184692 0.620579
O O7 0.908173 0.431232 0.448912
O O8 0.183734 0.708220 0.297003
O O9 0.069484 0.000000 0.250000
#
# Coordination Sequence:
#
# PCOD9548168 Si02
#       5
#     8   4   4   8   8
#     4  11  26  42  65 106 140 184 240 293 357 442
#     4   8  14  32  62  90 120 156 232 278 322 416
#     4  12  24  46  72 100 148 194 224 302 382 418
#     4   9  16  37  64  93 122 171 233 282 338 414
#     4  10  21  40  68  99 133 183 237 292 359 434
#
# _framework density 22.461006999999999
#
# number of rings (size 3 to 8) (size 9 to 14) (size 15 to 20)
#    0.000    2.000    5.000    0.000    3.500    1.000 
#    0.000    3.750    0.000    0.000    0.000    0.000 
#    0.000    0.000    0.000    0.000    0.000    0.000 
#
# Total GULP energy -178296.067156 kJ/mol
# GULP energy per Si atom -5571.752099 kJ/mol
# Density = 2.240988 g / cm^3
# Si number density = 22.461007 Si / 1000 Ang^3
#
#
#
# Elastic Constant Matrix: (Units=GPa)
#
#
# Indices 1 2 3 4 5 6 
#
# 1 50.0461 15.6465 27.4003 0.0000 0.0000 0.0000
# 2 15.6465 50.0456 27.4002 0.0000 0.0000 0.0000
# 3 27.4003 27.4002 181.4607 0.0000 0.0000 0.0000
# 4 0.0000 0.0000 0.0000 12.9509 0.0000 0.0000
# 5 0.0000 0.0000 0.0000 0.0000 12.9513 0.0000
# 6 0.0000 0.0000 0.0000 0.0000 0.0000 -8.9597
#
#
#
# Elastic Compliance Matrix: (Units=1/GPa)
#
#
# Indices 1 2 3 4 5 6 
#
# 1 0.023243 -0.005827 -0.002630 0.000000 0.000000 0.000000
# 2 -0.005827 0.023243 -0.002630 0.000000 0.000000 0.000000
# 3 -0.002630 -0.002630 0.006305 0.000000 0.000000 0.000000
# 4 0.000000 0.000000 0.000000 0.077215 0.000000 0.000000
# 5 0.000000 0.000000 0.000000 0.000000 0.077212 0.000000
# 6 0.000000 0.000000 0.000000 0.000000 0.000000 -0.111611
#
#
# Mechanical properties :
#
#
# Convention : Reuss Voigt Hill
#
# Bulk Modulus (GPa) = 32.66024 46.93849 39.79936
# Shear Modulus (GPa) = 39.06642 17.46220 28.26431
#
# Velocity S-wave (km/s) = 4.17502 2.79130 3.55120
# Velocity P-wave (km/s) = 6.14926 5.59746 5.87984
#
# Compressibility (1/GPa) = 0.03061827
#
# Stress axis : x y z
#
# Youngs Moduli (GPa) = 43.02342 43.02290 158.60341
#
# Poissons Ratio (x) = 0.25070 0.41710
# Poissons Ratio (y) = 0.25070 0.41710
# Poissons Ratio (z) = 0.11314 0.11314
#
# Static dielectric constant tensor:
#      x y z
#    x 1.869990 0.000000 0.000000 
#    y 0.000000 1.869990 0.000000 
#    z 0.000000 0.000000 1.912450 
# 
# From -- ./inp_files/6088.got.cif
#   From: 2010.05.17/outbox.cif.g08.bks.cpg/sg91_4_cif.got.tgz:6088.got - 2010.06.03 19:20:03.
