data_PCOD9548252
_publ_section_title
;
Structure prediction by ZEFSAII (Michael W. Deem and Ramdas Pophale) SiO2 
 PCOD9548252
Probable space group: P 41 2 2
;
_chemical_formula_sum "Si O2"
_cell_formula_units_Z 40
_cell_length_a 19.888741
_cell_length_b 19.888741
_cell_length_c 5.017784
_cell_angle_alpha 90.000000
_cell_angle_beta 90.000000
_cell_angle_gamma 90.000000
_cell_volume 1984.844768
_symmetry_space_group_name_H-M "P 41 2 2"
_symmetry_group_IT_number 91
_symmetry_cell_setting 'tetragonal'
loop_
_space_group_symop_operation_xyz
x,y,z
-y,x,1/4+z
-x,-y,1/2+z
y,-x,3/4+z
x,-y,1/2-z
-x,y,-z
y,x,3/4-z
-y,-x,1/4-z
loop_
_atom_site_type_symbol
_atom_site_label
_atom_site_fract_x
_atom_site_fract_y
_atom_site_fract_z
Si Si1 0.650700 0.454839 0.499602
Si Si2 0.785233 0.214768 0.125000
Si Si3 0.927965 0.746575 0.449044
Si Si4 0.245104 0.657597 0.961791
Si Si5 0.454098 0.000000 0.250000
Si Si6 0.339491 0.901849 0.184151
O O1 0.674071 0.500000 0.750000
O O2 0.592311 0.407690 0.625000
O O3 0.711294 0.407477 0.391705
O O4 0.627377 0.500000 0.250000
O O5 0.784231 0.142444 0.274044
O O6 0.782579 0.290034 0.245293
O O7 0.930760 0.683842 0.651911
O O8 0.000000 0.781979 0.500000
O O9 0.918242 0.720427 0.145934
O O10 0.296500 0.703501 0.125000
O O11 0.176217 0.642949 0.112575
O O12 0.404663 0.062192 0.202353
O O13 0.500000 0.014307 0.500000
#
# Coordination Sequence:
#
# PCOD9548252 Si02
#       6
#     8   4   8   8   4   8
#     4  11  26  43  67  89 119 154 200 255 325 381
#     4  10  22  36  66  98 124 166 212 260 314 360
#     4  11  20  37  61  90 128 160 208 257 305 362
#     4  10  22  39  65  91 124 154 205 271 315 372
#     4  12  24  38  56  82 122 174 214 242 302 386
#     4  11  22  38  59  86 122 162 206 257 310 359
#
# _framework density 20.152708000000001
#
# number of rings (size 3 to 8) (size 9 to 14) (size 15 to 20)
#    0.000    1.200    4.000    1.800    5.600    2.400 
#    0.000    0.000    0.000    0.000    0.000    5.600 
#    0.000    0.000    0.000    0.000    0.000    0.000 
#
# Total GULP energy -222689.013121 kJ/mol
# GULP energy per Si atom -5567.225328 kJ/mol
# Density = 2.010684 g / cm^3
# Si number density = 20.152708 Si / 1000 Ang^3
#
#
#
# Elastic Constant Matrix: (Units=GPa)
#
#
# Indices 1 2 3 4 5 6 
#
# 1 102.3842 30.5125 10.5593 0.0000 0.0000 0.0000
# 2 30.5125 102.3846 10.5593 0.0000 0.0000 0.0000
# 3 10.5593 10.5593 70.6583 0.0000 0.0000 0.0000
# 4 0.0000 0.0000 0.0000 22.7257 0.0000 0.0000
# 5 0.0000 0.0000 0.0000 0.0000 22.7250 0.0000
# 6 0.0000 0.0000 0.0000 0.0000 0.0000 10.2551
#
#
#
# Elastic Compliance Matrix: (Units=1/GPa)
#
#
# Indices 1 2 3 4 5 6 
#
# 1 0.010811 -0.003103 -0.001152 0.000000 0.000000 0.000000
# 2 -0.003103 0.010811 -0.001152 0.000000 0.000000 0.000000
# 3 -0.001152 -0.001152 0.014497 0.000000 0.000000 0.000000
# 4 0.000000 0.000000 0.000000 0.044003 0.000000 0.000000
# 5 0.000000 0.000000 0.000000 0.000000 0.044004 0.000000
# 6 0.000000 0.000000 0.000000 0.000000 0.000000 0.097512
#
#
# Mechanical properties :
#
#
# Convention : Reuss Voigt Hill
#
# Bulk Modulus (GPa) = 39.51813 42.07659 40.79736
# Shear Modulus (GPa) = 20.75668 26.06090 23.40879
#
# Velocity S-wave (km/s) = 3.21280 3.59997 3.41188
# Velocity P-wave (km/s) = 5.78054 6.18093 5.98409
#
# Compressibility (1/GPa) = 0.02530484
#
# Stress axis : x y z
#
# Youngs Moduli (GPa) = 92.50112 92.50147 68.98034
#
# Poissons Ratio (x) = 0.28703 0.07946
# Poissons Ratio (y) = 0.28703 0.07945
# Poissons Ratio (z) = 0.10655 0.10655
#
# Static dielectric constant tensor:
#      x y z
#    x 1.772350 0.000000 0.000000 
#    y 0.000000 1.772350 0.000000 
#    z 0.000000 0.000000 1.773990 
# 
# From -- ./inp_files/14039.got.cif
#   From: 2010.05.17/outbox.cif.g08.bks.cpg/sg91_8_cif.got.tgz:14039.got - 2010.06.03 19:20:03.
