data_PCOD9548793
_publ_section_title
;
Structure prediction by ZEFSAII (Michael W. Deem and Ramdas Pophale) SiO2 
 PCOD9548793
Probable space group: P 41 2 2
;
_chemical_formula_sum "Si O2"
_cell_formula_units_Z 48
_cell_length_a 11.232110
_cell_length_b 11.232110
_cell_length_c 17.840320
_cell_angle_alpha 90.000000
_cell_angle_beta 90.000000
_cell_angle_gamma 90.000000
_cell_volume 2250.740035
_symmetry_space_group_name_H-M "P 41 2 2"
_symmetry_group_IT_number 91
_symmetry_cell_setting 'tetragonal'
loop_
_space_group_symop_operation_xyz
x,y,z
-y,x,1/4+z
-x,-y,1/2+z
y,-x,3/4+z
x,-y,1/2-z
-x,y,-z
y,x,3/4-z
-y,-x,1/4-z
loop_
_atom_site_type_symbol
_atom_site_label
_atom_site_fract_x
_atom_site_fract_y
_atom_site_fract_z
Si Si1 0.446690 0.617447 0.709283
Si Si2 0.200848 0.075138 0.173498
Si Si3 0.000000 0.243287 0.000000
Si Si4 0.660519 0.723116 0.039456
Si Si5 0.868573 0.330311 0.643615
Si Si6 0.926919 0.073082 0.125000
Si Si7 0.828578 0.431115 0.938067
O O1 0.399052 0.500000 0.750000
O O2 0.408284 0.591717 0.625000
O O3 0.587885 0.627354 0.729058
O O4 0.407835 0.745172 0.740449
O O5 0.261440 0.200674 0.190337
O O6 0.063536 0.089690 0.150983
O O7 0.204141 0.000000 0.250000
O O8 0.267950 0.996909 0.110518
O O9 0.931297 0.333775 0.944901
O O10 0.082560 0.159484 0.947303
O O11 0.593559 0.749030 0.115973
O O12 0.630420 0.819387 0.974876
O O13 0.770648 0.229353 0.625000
O O14 0.871059 0.434952 0.581090
#
# Coordination Sequence:
#
# PCOD9548793 Si02
#       7
#     8   8   4   8   8   4   8
#     4  12  25  44  73 102 140 188 238 291 351 429
#     4  12  22  42  73 107 137 176 240 299 363 423
#     4  12  30  46  70  98 148 190 232 292 362 442
#     4  12  25  44  69 107 141 181 236 296 356 423
#     4  12  24  41  73 106 140 181 233 303 356 418
#     4  12  24  48  70  98 140 190 236 290 358 440
#     4  12  27  46  67 103 145 186 232 291 364 423
#
# _framework density 21.326318000000001
#
# number of rings (size 3 to 8) (size 9 to 14) (size 15 to 20)
#    0.000    0.000    8.333    1.500    4.667    0.000 
#    0.000    0.000    3.667    0.000    0.000    0.000 
#    0.000    0.000    0.000    0.000    0.000    0.000 
#
# Total GULP energy -268015.864432 kJ/mol
# GULP energy per Si atom -5583.663842 kJ/mol
# Density = 2.127778 g / cm^3
# Si number density = 21.326318 Si / 1000 Ang^3
#
#
#
# Elastic Constant Matrix: (Units=GPa)
#
#
# Indices 1 2 3 4 5 6 
#
# 1 92.2047 25.0556 9.0662 0.0000 0.0000 0.0000
# 2 25.0556 92.2045 9.0664 0.0000 0.0000 0.0000
# 3 9.0662 9.0664 81.1200 0.0000 0.0000 0.0000
# 4 0.0000 0.0000 0.0000 37.6934 0.0000 0.0000
# 5 0.0000 0.0000 0.0000 0.0000 37.6937 0.0000
# 6 0.0000 0.0000 0.0000 0.0000 0.0000 23.1088
#
#
#
# Elastic Compliance Matrix: (Units=1/GPa)
#
#
# Indices 1 2 3 4 5 6 
#
# 1 0.011785 -0.003107 -0.000970 0.000000 0.000000 0.000000
# 2 -0.003107 0.011785 -0.000970 0.000000 0.000000 0.000000
# 3 -0.000970 -0.000970 0.012544 0.000000 0.000000 0.000000
# 4 0.000000 0.000000 0.000000 0.026530 0.000000 0.000000
# 5 0.000000 0.000000 0.000000 0.000000 0.026530 0.000000
# 6 0.000000 0.000000 0.000000 0.000000 0.000000 0.043274
#
#
# Mechanical properties :
#
#
# Convention : Reuss Voigt Hill
#
# Bulk Modulus (GPa) = 38.43096 39.10063 38.76580
# Shear Modulus (GPa) = 33.06553 34.52191 33.79372
#
# Velocity S-wave (km/s) = 3.94186 4.02773 3.98502
# Velocity P-wave (km/s) = 6.22713 6.32490 6.27621
#
# Compressibility (1/GPa) = 0.02602069
#
# Stress axis : x y z
#
# Youngs Moduli (GPa) = 84.85273 84.85246 79.71798
#
# Poissons Ratio (x) = 0.26365 0.07732
# Poissons Ratio (y) = 0.26365 0.07732
# Poissons Ratio (z) = 0.08230 0.08230
#
# Static dielectric constant tensor:
#      x y z
#    x 1.802510 0.000000 0.000000 
#    y 0.000000 1.802510 0.000000 
#    z 0.000000 0.000000 1.856440 
# 
# From -- ./inp_files/5663.got.cif
#   From: 2010.05.17/outbox.cif.g08.bks.cpg/sg91_3_cif.got.tgz:5663.got - 2010.06.03 19:20:03.
