data_PCOD9548386
_publ_section_title
;
Structure prediction by ZEFSAII (Michael W. Deem and Ramdas Pophale) SiO2 
 PCOD9548386
Probable space group: P 41 2 2
;
_chemical_formula_sum "Si O2"
_cell_formula_units_Z 36
_cell_length_a 11.572613
_cell_length_b 11.572613
_cell_length_c 12.489803
_cell_angle_alpha 90.000000
_cell_angle_beta 90.000000
_cell_angle_gamma 90.000000
_cell_volume 1672.701509
_symmetry_space_group_name_H-M "P 41 2 2"
_symmetry_group_IT_number 91
_symmetry_cell_setting 'tetragonal'
loop_
_space_group_symop_operation_xyz
x,y,z
-y,x,1/4+z
-x,-y,1/2+z
y,-x,3/4+z
x,-y,1/2-z
-x,y,-z
y,x,3/4-z
-y,-x,1/4-z
loop_
_atom_site_type_symbol
_atom_site_label
_atom_site_fract_x
_atom_site_fract_y
_atom_site_fract_z
Si Si1 0.561679 0.127379 0.229788
Si Si2 0.758272 0.216098 0.996730
Si Si3 0.222860 0.971648 0.125414
Si Si4 0.409254 0.222542 0.403254
Si Si5 0.213537 0.500000 0.750000
O O1 0.686620 0.148872 0.283606
O O2 0.478670 0.209049 0.293917
O O3 0.523633 0.000000 0.250000
O O4 0.542943 0.146007 0.104259
O O5 0.627770 0.265456 0.972037
O O6 0.776550 0.092204 0.941053
O O7 0.781676 0.218325 0.125000
O O8 0.103553 0.896448 0.125000
O O9 0.323722 0.887580 0.081176
O O10 0.245553 0.000000 0.250000
O O11 0.500000 0.233055 0.500000
O O12 0.329050 0.329050 0.375000
#
# Coordination Sequence:
#
# PCOD9548386 Si02
#       5
#     8   8   8   8   4
#     4  11  25  42  72 100 140 190 236 302 365 451
#     4  10  24  42  69 103 139 184 246 294 370 435
#     4  11  26  44  71 104 147 197 243 307 370 454
#     4  11  27  47  74 102 139 189 246 306 376 456
#     4  10  22  44  64  98 134 178 238 296 352 430
#
# _framework density 21.522068999999998
#
# number of rings (size 3 to 8) (size 9 to 14) (size 15 to 20)
#    0.000    1.333    0.000    3.333   18.667    1.778 
#    2.000    0.000    0.000    0.000    0.000    0.000 
#    0.000    0.000    0.000    0.000    0.000    0.000 
#
# Total GULP energy -200571.447209 kJ/mol
# GULP energy per Si atom -5571.429089 kJ/mol
# Density = 2.147308 g / cm^3
# Si number density = 21.522069 Si / 1000 Ang^3
#
#
#
# Elastic Constant Matrix: (Units=GPa)
#
#
# Indices 1 2 3 4 5 6 
#
# 1 116.5391 59.6676 53.6789 0.0000 0.0000 0.0000
# 2 59.6676 116.5388 53.6784 0.0000 0.0000 0.0000
# 3 53.6789 53.6784 113.8138 0.0000 0.0000 0.0000
# 4 0.0000 0.0000 0.0000 -9.2816 0.0000 0.0000
# 5 0.0000 0.0000 0.0000 0.0000 -9.2751 0.0000
# 6 0.0000 0.0000 0.0000 0.0000 0.0000 -700.2405
#
#
#
# Elastic Compliance Matrix: (Units=1/GPa)
#
#
# Indices 1 2 3 4 5 6 
#
# 1 0.012774 -0.004810 -0.003756 0.000000 0.000000 0.000000
# 2 -0.004810 0.012774 -0.003756 0.000000 0.000000 0.000000
# 3 -0.003756 -0.003756 0.012329 0.000000 0.000000 0.000000
# 4 0.000000 0.000000 0.000000 -0.107740 0.000000 0.000000
# 5 0.000000 0.000000 0.000000 0.000000 -0.107816 0.000000
# 6 0.000000 0.000000 0.000000 0.000000 0.000000 -0.001428
#
#
# Mechanical properties :
#
#
# Convention : Reuss Voigt Hill
#
# Bulk Modulus (GPa) = 75.57092 75.66015 75.61554
# Shear Modulus (GPa) = -33.32147 -131.76831 -82.54489
#
# Velocity S-wave (km/s) = -3.93905 -7.83311 -6.19975
# Velocity P-wave (km/s) = 3.80806 6.82490 4.00486
#
# Compressibility (1/GPa) = 0.01323260
#
# Stress axis : x y z
#
# Youngs Moduli (GPa) = 78.28685 78.28701 81.10909
#
# Poissons Ratio (x) = 0.37656 0.30464
# Poissons Ratio (y) = 0.37656 0.30463
# Poissons Ratio (z) = 0.29404 0.29403
#
# Static dielectric constant tensor:
#      x y z
#    x 1.981430 0.000000 0.000000 
#    y 0.000000 1.981440 0.000000 
#    z 0.000000 0.000000 1.767200 
# 
# From -- ./inp_files/10507.got.cif
#   From: 2010.05.17/outbox.cif.g08.bks.cpg/sg91_6_cif.got.tgz:10507.got - 2010.06.03 19:20:03.
