data_PCOD9548565
_publ_section_title
;
Structure prediction by ZEFSAII (Michael W. Deem and Ramdas Pophale) SiO2 
 PCOD9548565
Probable space group: P 41 2 2
;
_chemical_formula_sum "Si O2"
_cell_formula_units_Z 48
_cell_length_a 8.389329
_cell_length_b 8.389329
_cell_length_c 30.545055
_cell_angle_alpha 90.000000
_cell_angle_beta 90.000000
_cell_angle_gamma 90.000000
_cell_volume 2149.786661
_symmetry_space_group_name_H-M "P 41 2 2"
_symmetry_group_IT_number 91
_symmetry_cell_setting 'tetragonal'
loop_
_space_group_symop_operation_xyz
x,y,z
-y,x,1/4+z
-x,-y,1/2+z
y,-x,3/4+z
x,-y,1/2-z
-x,y,-z
y,x,3/4-z
-y,-x,1/4-z
loop_
_atom_site_type_symbol
_atom_site_label
_atom_site_fract_x
_atom_site_fract_y
_atom_site_fract_z
Si Si1 0.032629 0.486443 0.198803
Si Si2 0.867884 0.970575 0.082858
Si Si3 0.427710 0.572291 0.625000
Si Si4 0.563372 0.400798 0.544939
Si Si5 0.893599 0.520555 0.538471
Si Si6 0.397935 0.903551 0.364298
Si Si7 0.161906 0.000000 0.750000
O O1 0.984048 0.500000 0.250000
O O2 0.991795 0.316551 0.177631
O O3 0.224815 0.497725 0.198098
O O4 0.962002 0.614063 0.164609
O O5 0.884641 0.779217 0.093017
O O6 0.937347 0.062654 0.125000
O O7 0.949954 0.046613 0.039647
O O8 0.528940 0.518901 0.583694
O O9 0.253110 0.508987 0.613642
O O10 0.500000 0.470337 0.500000
O O11 0.749225 0.400514 0.539876
O O12 0.876919 0.705300 0.521825
O O13 0.000000 0.451153 0.500000
O O14 0.973935 0.501678 0.585386
#
# Coordination Sequence:
#
# PCOD9548565 Si02
#       7
#     8   8   4   8   8   8   4
#     4  11  28  49  76 110 156 202 260 326 392 475
#     4  12  29  50  77 113 158 207 267 335 407 485
#     4  12  26  44  74 104 146 200 252 306 384 460
#     4  11  24  47  74 105 151 196 258 317 379 463
#     4  10  25  45  76 111 151 205 258 319 399 469
#     4  12  28  46  76 114 151 209 257 327 393 483
#     4  10  28  46  82 106 156 206 262 330 408 480
#
# _framework density 22.327794999999998
#
# number of rings (size 3 to 8) (size 9 to 14) (size 15 to 20)
#    0.500    0.333    1.667    3.000   14.000    0.667 
#    0.000    0.000    0.000    0.000    0.000    0.000 
#    0.000    0.000    0.000    0.000    0.000    0.000 
#
# Total GULP energy -267730.153916 kJ/mol
# GULP energy per Si atom -5577.711540 kJ/mol
# Density = 2.227698 g / cm^3
# Si number density = 22.327795 Si / 1000 Ang^3
#
#
#
# Elastic Constant Matrix: (Units=GPa)
#
#
# Indices 1 2 3 4 5 6 
#
# 1 -90.9021 163.3005 34.8558 0.0000 0.0000 0.0000
# 2 163.3005 -90.9105 34.8478 0.0000 0.0000 0.0000
# 3 34.8558 34.8478 144.1870 0.0000 0.0000 0.0000
# 4 0.0000 0.0000 0.0000 29.2259 0.0000 0.0000
# 5 0.0000 0.0000 0.0000 0.0000 29.2256 0.0000
# 6 0.0000 0.0000 0.0000 0.0000 0.0000 35.2021
#
#
#
# Elastic Compliance Matrix: (Units=1/GPa)
#
#
# Indices 1 2 3 4 5 6 
#
# 1 0.007035 0.010968 -0.004352 0.000000 0.000000 0.000000
# 2 0.010968 0.007034 -0.004352 0.000000 0.000000 0.000000
# 3 -0.004352 -0.004352 0.009039 0.000000 0.000000 0.000000
# 4 0.000000 0.000000 0.000000 0.034216 0.000000 0.000000
# 5 0.000000 0.000000 0.000000 0.000000 0.034217 0.000000
# 6 0.000000 0.000000 0.000000 0.000000 0.000000 0.028407
#
#
# Mechanical properties :
#
#
# Convention : Reuss Voigt Hill
#
# Bulk Modulus (GPa) = 36.18074 47.59807 41.88940
# Shear Modulus (GPa) = 40.11845 0.68876 20.40361
#
# Velocity S-wave (km/s) = 4.24346 0.55601 3.02623
# Velocity P-wave (km/s) = 6.34419 4.66651 5.56889
#
# Compressibility (1/GPa) = 0.02763901
#
# Stress axis : x y z
#
# Youngs Moduli (GPa) = 142.15026 142.15663 110.63053
#
# Poissons Ratio (x) = -1.55924 0.48141
# Poissons Ratio (y) = -1.55917 0.48143
# Poissons Ratio (z) = 0.61857 0.61862
#
# Static dielectric constant tensor:
#      x y z
#    x 1.935180 0.000000 0.000000 
#    y 0.000000 1.935180 0.000000 
#    z 0.000000 0.000000 1.826950 
# 
# From -- ./inp_files/18206.got.cif
#   From: 2010.05.17/outbox.cif.g08.bks.cpg/sg91_10_cif.got.tgz:18206.got - 2010.06.03 19:20:03.
