data_PCOD9548517
_publ_section_title
;
Structure prediction by ZEFSAII (Michael W. Deem and Ramdas Pophale) SiO2 
 PCOD9548517
Probable space group: P 41 2 2
;
_chemical_formula_sum "Si O2"
_cell_formula_units_Z 40
_cell_length_a 14.166990
_cell_length_b 14.166990
_cell_length_c 8.979772
_cell_angle_alpha 90.000000
_cell_angle_beta 90.000000
_cell_angle_gamma 90.000000
_cell_volume 1802.272618
_symmetry_space_group_name_H-M "P 41 2 2"
_symmetry_group_IT_number 91
_symmetry_cell_setting 'tetragonal'
loop_
_space_group_symop_operation_xyz
x,y,z
-y,x,1/4+z
-x,-y,1/2+z
y,-x,3/4+z
x,-y,1/2-z
-x,y,-z
y,x,3/4-z
-y,-x,1/4-z
loop_
_atom_site_type_symbol
_atom_site_label
_atom_site_fract_x
_atom_site_fract_y
_atom_site_fract_z
Si Si1 0.988225 0.394488 0.819045
Si Si2 0.555793 0.247540 0.369361
Si Si3 0.373718 0.722303 0.313874
Si Si4 0.814256 0.673075 0.353203
Si Si5 0.743139 0.103412 0.663450
O O1 0.993790 0.500000 0.750000
O O2 0.917003 0.323227 0.732034
O O3 0.086095 0.342080 0.782189
O O4 0.000000 0.403385 0.000000
O O5 0.500000 0.195022 0.500000
O O6 0.475036 0.283587 0.259877
O O7 0.622923 0.321145 0.451815
O O8 0.623013 0.189599 0.261989
O O9 0.375031 0.740440 0.490915
O O10 0.314260 0.811619 0.248841
O O11 0.779585 0.779585 0.375000
O O12 0.843555 0.156446 0.625000
O O13 0.751980 0.000000 0.750000
#
# Coordination Sequence:
#
# PCOD9548517 Si02
#       5
#     8   8   8   8   8
#     4  12  28  44  74 118 152 194 247 315 379 457
#     4  11  23  40  69 105 150 197 246 297 369 441
#     4  11  24  46  71 105 149 201 251 307 365 454
#     4  10  24  44  69 102 151 197 241 300 369 442
#     4  12  28  51  77 108 147 196 255 320 389 451
#
# _framework density 22.194203000000002
#
# number of rings (size 3 to 8) (size 9 to 14) (size 15 to 20)
#    0.000    0.800    2.000    4.200   11.200    0.000 
#    0.000   14.000    0.000    0.000    0.000    0.000 
#    0.000    0.000    0.000    0.000    0.000    0.000 
#
# Total GULP energy -222892.433168 kJ/mol
# GULP energy per Si atom -5572.310829 kJ/mol
# Density = 2.214369 g / cm^3
# Si number density = 22.194203 Si / 1000 Ang^3
#
#
#
# Elastic Constant Matrix: (Units=GPa)
#
#
# Indices 1 2 3 4 5 6 
#
# 1 68.4234 156.8107 44.9834 0.0000 0.0000 0.0000
# 2 156.8107 68.4243 44.9841 0.0000 0.0000 0.0000
# 3 44.9834 44.9841 140.7978 0.0000 0.0000 0.0000
# 4 0.0000 0.0000 0.0000 23.7195 0.0000 0.0000
# 5 0.0000 0.0000 0.0000 0.0000 23.7191 0.0000
# 6 0.0000 0.0000 0.0000 0.0000 0.0000 -2.9934
#
#
#
# Elastic Compliance Matrix: (Units=1/GPa)
#
#
# Indices 1 2 3 4 5 6 
#
# 1 -0.003112 0.008202 -0.001626 0.000000 0.000000 0.000000
# 2 0.008202 -0.003112 -0.001626 0.000000 0.000000 0.000000
# 3 -0.001626 -0.001626 0.008141 0.000000 0.000000 0.000000
# 4 0.000000 0.000000 0.000000 0.042159 0.000000 0.000000
# 5 0.000000 0.000000 0.000000 0.000000 0.042160 0.000000
# 6 0.000000 0.000000 0.000000 0.000000 0.000000 -0.334064
#
#
# Mechanical properties :
#
#
# Convention : Reuss Voigt Hill
#
# Bulk Modulus (GPa) = 84.63095 85.68908 85.16002
# Shear Modulus (GPa) = -19.70143 10.94686 -4.37729
#
# Velocity S-wave (km/s) = -2.98263 2.22329 -1.40590
# Velocity P-wave (km/s) = 5.13355 6.72928 5.98484
#
# Compressibility (1/GPa) = 0.01181601
#
# Stress axis : x y z
#
# Youngs Moduli (GPa) = -321.30420 -321.30727 122.82952
#
# Poissons Ratio (x) = 2.63523 0.19972
# Poissons Ratio (y) = 2.63521 0.19972
# Poissons Ratio (z) = -0.52244 -0.52243
#
# Static dielectric constant tensor:
#      x y z
#    x 1.883060 0.000000 0.000000 
#    y 0.000000 1.883060 0.000000 
#    z 0.000000 0.000000 1.881860 
# 
# From -- ./inp_files/9672.got.cif
#   From: 2010.05.17/outbox.cif.g08.bks.cpg/sg91_5_cif.got.tgz:9672.got - 2010.06.03 19:20:03.
