data_PCOD9548130
_publ_section_title
;
Structure prediction by ZEFSAII (Michael W. Deem and Ramdas Pophale) SiO2 
 PCOD9548130
Probable space group: P 41 2 2
;
_chemical_formula_sum "Si O2"
_cell_formula_units_Z 48
_cell_length_a 12.214960
_cell_length_b 12.214960
_cell_length_c 16.169332
_cell_angle_alpha 90.000000
_cell_angle_beta 90.000000
_cell_angle_gamma 90.000000
_cell_volume 2412.549188
_symmetry_space_group_name_H-M "P 41 2 2"
_symmetry_group_IT_number 91
_symmetry_cell_setting 'tetragonal'
loop_
_space_group_symop_operation_xyz
x,y,z
-y,x,1/4+z
-x,-y,1/2+z
y,-x,3/4+z
x,-y,1/2-z
-x,y,-z
y,x,3/4-z
-y,-x,1/4-z
loop_
_atom_site_type_symbol
_atom_site_label
_atom_site_fract_x
_atom_site_fract_y
_atom_site_fract_z
Si Si1 0.653520 0.120181 0.849592
Si Si2 0.994806 0.149519 0.155786
Si Si3 0.818710 0.192093 0.716604
Si Si4 0.171326 0.211895 0.024332
Si Si5 0.132811 0.543404 0.496678
Si Si6 0.422302 0.887042 0.078334
O O1 0.719906 0.131134 0.762833
O O2 0.729163 0.184831 0.913751
O O3 0.535907 0.166105 0.821891
O O4 0.632311 0.000188 0.888293
O O5 0.973205 0.026795 0.125000
O O6 0.878892 0.174867 0.201841
O O7 0.078922 0.165854 0.227921
O O8 0.058391 0.206176 0.079175
O O9 0.844126 0.155875 0.625000
O O10 0.809617 0.323882 0.704554
O O11 0.177819 0.335295 0.993215
O O12 0.158917 0.491728 0.406150
O O13 0.000000 0.546895 0.500000
O O14 0.500000 0.910651 0.000000
#
# Coordination Sequence:
#
# PCOD9548130 Si02
#       6
#     8   8   8   8   8   8
#     4  10  22  40  61  95 124 164 218 267 320 370
#     4  11  23  37  55  85 132 176 206 246 313 393
#     4  11  22  39  61  91 131 164 214 264 327 380
#     4  11  23  41  61  92 132 167 218 259 323 387
#     4  10  21  38  63  87 129 163 215 271 306 374
#     4  11  21  38  63  91 123 170 217 267 314 377
#
# _framework density 19.895968
#
# number of rings (size 3 to 8) (size 9 to 14) (size 15 to 20)
#    0.000    1.333    3.333    3.500    0.000    3.333 
#    0.000    0.000    0.000    0.000    0.000   10.500 
#    0.000    0.000    0.000    0.000    0.000    0.000 
#
# Total GULP energy -267567.265910 kJ/mol
# GULP energy per Si atom -5574.318040 kJ/mol
# Density = 1.985068 g / cm^3
# Si number density = 19.895968 Si / 1000 Ang^3
#
#
#
# Elastic Constant Matrix: (Units=GPa)
#
#
# Indices 1 2 3 4 5 6 
#
# 1 111.3018 15.0422 40.0453 0.0000 0.0000 0.0000
# 2 15.0422 111.3018 40.0456 0.0000 0.0000 0.0000
# 3 40.0453 40.0456 127.0431 0.0000 0.0000 0.0000
# 4 0.0000 0.0000 0.0000 -71.8709 0.0000 0.0000
# 5 0.0000 0.0000 0.0000 0.0000 -71.8521 0.0000
# 6 0.0000 0.0000 0.0000 0.0000 0.0000 15.6940
#
#
#
# Elastic Compliance Matrix: (Units=1/GPa)
#
#
# Indices 1 2 3 4 5 6 
#
# 1 0.010140 -0.000249 -0.003118 0.000000 0.000000 0.000000
# 2 -0.000249 0.010140 -0.003118 0.000000 0.000000 0.000000
# 3 -0.003118 -0.003118 0.009837 0.000000 0.000000 0.000000
# 4 0.000000 0.000000 0.000000 -0.013914 0.000000 0.000000
# 5 0.000000 0.000000 0.000000 0.000000 -0.013917 0.000000
# 6 0.000000 0.000000 0.000000 0.000000 0.000000 0.063719
#
#
# Mechanical properties :
#
#
# Convention : Reuss Voigt Hill
#
# Bulk Modulus (GPa) = 58.31531 59.99031 59.15281
# Shear Modulus (GPa) = 59.03956 -8.63824 25.20066
#
# Velocity S-wave (km/s) = 5.45331 -2.08594 3.56282
# Velocity P-wave (km/s) = 8.30814 4.94125 6.83524
#
# Compressibility (1/GPa) = 0.01714816
#
# Stress axis : x y z
#
# Youngs Moduli (GPa) = 98.61971 98.61957 101.65778
#
# Poissons Ratio (x) = 0.02452 0.31695
# Poissons Ratio (y) = 0.02452 0.31696
# Poissons Ratio (z) = 0.30748 0.30748
#
# Static dielectric constant tensor:
#      x y z
#    x 1.748630 0.000000 0.000000 
#    y 0.000000 1.748630 0.000000 
#    z 0.000000 0.000000 1.735110 
# 
# From -- ./inp_files/5590.got.cif
#   From: 2010.05.17/outbox.cif.g08.bks.cpg/sg91_3_cif.got.tgz:5590.got - 2010.06.03 19:20:03.
