data_PCOD9548857
_publ_section_title
;
Structure prediction by ZEFSAII (Michael W. Deem and Ramdas Pophale) SiO2 
 PCOD9548857
Probable space group: P 41 21 2
;
_chemical_formula_sum "Si O2"
_cell_formula_units_Z 52
_cell_length_a 16.620079
_cell_length_b 16.620079
_cell_length_c 9.618392
_cell_angle_alpha 90.000000
_cell_angle_beta 90.000000
_cell_angle_gamma 90.000000
_cell_volume 2656.859817
_symmetry_space_group_name_H-M "P 41 21 2"
_symmetry_group_IT_number 92
_symmetry_cell_setting 'tetragonal'
loop_
_space_group_symop_operation_xyz
x,y,z
1/2-y,1/2+x,1/4+z
-x,-y,1/2+z
1/2+y,1/2-x,3/4+z
1/2+x,1/2-y,3/4-z
1/2-x,1/2+y,1/4-z
y,x,-z
-y,-x,1/2-z
loop_
_atom_site_type_symbol
_atom_site_label
_atom_site_fract_x
_atom_site_fract_y
_atom_site_fract_z
Si Si1 0.922012 0.331366 0.218478
Si Si2 0.183245 0.603431 0.481167
Si Si3 0.033547 0.966454 0.750000
Si Si4 0.926123 0.254231 0.489665
Si Si5 0.379702 0.248230 0.956701
Si Si6 0.669238 0.597787 0.806720
Si Si7 0.343966 0.579863 0.623395
O O1 0.860467 0.383484 0.130201
O O2 0.914666 0.328462 0.384756
O O3 0.906488 0.240324 0.167049
O O4 0.015348 0.343658 0.181260
O O5 0.152640 0.671527 0.377020
O O6 0.279347 0.608439 0.508349
O O7 0.051080 0.905000 0.622926
O O8 0.949687 0.930752 0.811067
O O9 0.926109 0.273225 0.652376
O O10 0.854794 0.190360 0.463933
O O11 0.004035 0.203903 0.440286
O O12 0.430773 0.299360 0.843358
O O13 0.305425 0.305425 0.000000
O O14 0.359800 0.640201 0.750000
#
# Coordination Sequence:
#
# PCOD9548857 Si02
#       7
#     8   8   4   8   8   8   8
#     4  10  18  35  58  78 103 148 191 236 284 344
#     4  10  21  37  57  79 115 151 194 241 289 348
#     4  10  16  36  58  80 116 154 184 224 276 366
#     4   9  17  34  57  82 113 147 194 233 283 352
#     4   9  19  32  54  87 111 141 193 247 285 331
#     4   9  14  30  58  77 103 148 190 220 275 344
#     4  10  21  37  57  87 119 153 197 230 287 354
#
# _framework density 19.571975999999999
#
# number of rings (size 3 to 8) (size 9 to 14) (size 15 to 20)
#    0.000    2.462    4.615    0.000    0.000    3.692 
#    6.923   13.077    0.000    0.000    0.000    0.000 
#    0.000    0.000    0.000    0.000    0.000    0.000 
#
# Total GULP energy -289483.079843 kJ/mol
# GULP energy per Si atom -5566.982305 kJ/mol
# Density = 1.952743 g / cm^3
# Si number density = 19.571976 Si / 1000 Ang^3
#
#
#
# Elastic Constant Matrix: (Units=GPa)
#
#
# Indices 1 2 3 4 5 6 
#
# 1 14.0603 8.4993 8.4612 0.0000 0.0000 0.0000
# 2 8.4993 14.0608 8.4607 0.0000 0.0000 0.0000
# 3 8.4612 8.4607 124.1051 0.0000 0.0000 0.0000
# 4 0.0000 0.0000 0.0000 20.2429 0.0000 0.0000
# 5 0.0000 0.0000 0.0000 0.0000 20.2431 0.0000
# 6 0.0000 0.0000 0.0000 0.0000 0.0000 12.9433
#
#
#
# Elastic Compliance Matrix: (Units=1/GPa)
#
#
# Indices 1 2 3 4 5 6 
#
# 1 0.113268 -0.066550 -0.003185 0.000000 0.000000 0.000000
# 2 -0.066550 0.113263 -0.003184 0.000000 0.000000 0.000000
# 3 -0.003185 -0.003184 0.008492 0.000000 0.000000 0.000000
# 4 0.000000 0.000000 0.000000 0.049400 0.000000 0.000000
# 5 0.000000 0.000000 0.000000 0.000000 0.049400 0.000000
# 6 0.000000 0.000000 0.000000 0.000000 0.000000 0.077260
#
#
# Mechanical properties :
#
#
# Convention : Reuss Voigt Hill
#
# Bulk Modulus (GPa) = 11.21285 22.56320 16.88802
# Shear Modulus (GPa) = 8.52298 19.13952 13.83125
#
# Velocity S-wave (km/s) = 2.08905 3.13054 2.66124
# Velocity P-wave (km/s) = 3.40005 4.96189 4.25328
#
# Compressibility (1/GPa) = 0.08918338
#
# Stress axis : x y z
#
# Youngs Moduli (GPa) = 8.82865 8.82900 117.75864
#
# Poissons Ratio (x) = 0.58757 0.37510
# Poissons Ratio (y) = 0.58755 0.37499
# Poissons Ratio (z) = 0.02812 0.02811
#
# Static dielectric constant tensor:
#      x y z
#    x 1.707540 0.000000 0.000000 
#    y 0.000000 1.707540 0.000000 
#    z 0.000000 0.000000 1.740400 
# 
# From -- ./inp_files/1603.got.cif
#   From: 2010.05.17/outbox.cif.g08.bks.cpg/sg92_1_cif.got.tgz:1603.got - 2010.06.03 19:35:17.
