data_PCOD9548612
_publ_section_title
;
Structure prediction by ZEFSAII (Michael W. Deem and Ramdas Pophale) SiO2 
 PCOD9548612
Probable space group: P 41 2 2
;
_chemical_formula_sum "Si O2"
_cell_formula_units_Z 44
_cell_length_a 8.760065
_cell_length_b 8.760065
_cell_length_c 27.605779
_cell_angle_alpha 90.000000
_cell_angle_beta 90.000000
_cell_angle_gamma 90.000000
_cell_volume 2118.432664
_symmetry_space_group_name_H-M "P 41 2 2"
_symmetry_group_IT_number 91
_symmetry_cell_setting 'tetragonal'
loop_
_space_group_symop_operation_xyz
x,y,z
-y,x,1/4+z
-x,-y,1/2+z
y,-x,3/4+z
x,-y,1/2-z
-x,y,-z
y,x,3/4-z
-y,-x,1/4-z
loop_
_atom_site_type_symbol
_atom_site_label
_atom_site_fract_x
_atom_site_fract_y
_atom_site_fract_z
Si Si1 0.528946 0.338467 0.223221
Si Si2 0.607113 0.989428 0.954386
Si Si3 0.155202 0.730552 0.021530
Si Si4 0.862590 0.492997 0.894778
Si Si5 0.500237 0.500237 0.375000
Si Si6 0.143892 0.767936 0.468467
O O1 0.499317 0.500000 0.250000
O O2 0.393546 0.220677 0.233991
O O3 0.541073 0.388388 0.168468
O O4 0.673857 0.254396 0.245535
O O5 0.704619 0.841717 0.969370
O O6 0.513351 0.948037 0.906071
O O7 0.741137 0.111059 0.945127
O O8 0.500000 0.032292 0.000000
O O9 0.118228 0.641817 0.071346
O O10 0.000000 0.799091 0.000000
O O11 0.679371 0.478735 0.886959
O O12 0.912851 0.349414 0.927231
O O13 0.000000 0.824617 0.500000
#
# Coordination Sequence:
#
# PCOD9548612 Si02
#       6
#     8   8   8   8   4   8
#     4  11  20  40  67  98 132 177 228 286 338 406
#     4  12  25  43  68  99 134 178 231 284 343 423
#     4  11  22  41  66  96 134 177 224 279 350 415
#     4  11  22  42  69  97 129 175 229 282 333 408
#     4  12  20  36  74 100 130 166 238 288 326 404
#     4  11  26  47  64  98 145 180 223 291 358 415
#
# _framework density 20.770074000000001
#
# number of rings (size 3 to 8) (size 9 to 14) (size 15 to 20)
#    0.000    0.727    5.455    4.909    0.000    4.364 
#    0.000    1.818    0.000    0.000    0.000    0.000 
#    0.000    0.000    0.000    0.000    0.000    0.000 
#
# Total GULP energy -245921.157881 kJ/mol
# GULP energy per Si atom -5589.117225 kJ/mol
# Density = 2.072280 g / cm^3
# Si number density = 20.770074 Si / 1000 Ang^3
#
#
#
# Elastic Constant Matrix: (Units=GPa)
#
#
# Indices 1 2 3 4 5 6 
#
# 1 64.7463 8.7831 24.6921 0.0000 0.0000 0.0000
# 2 8.7831 64.7463 24.6921 0.0000 0.0000 0.0000
# 3 24.6921 24.6921 126.9098 0.0000 0.0000 0.0000
# 4 0.0000 0.0000 0.0000 8.1403 0.0000 0.0000
# 5 0.0000 0.0000 0.0000 0.0000 8.1403 0.0000
# 6 0.0000 0.0000 0.0000 0.0000 0.0000 -2.7363
#
#
#
# Elastic Compliance Matrix: (Units=1/GPa)
#
#
# Indices 1 2 3 4 5 6 
#
# 1 0.016757 -0.001112 -0.003044 0.000000 0.000000 0.000000
# 2 -0.001112 0.016757 -0.003044 0.000000 0.000000 0.000000
# 3 -0.003044 -0.003044 0.009064 0.000000 0.000000 0.000000
# 4 0.000000 0.000000 0.000000 0.122845 0.000000 0.000000
# 5 0.000000 0.000000 0.000000 0.000000 0.122845 0.000000
# 6 0.000000 0.000000 0.000000 0.000000 0.000000 -0.365454
#
#
# Mechanical properties :
#
#
# Convention : Reuss Voigt Hill
#
# Bulk Modulus (GPa) = 35.48946 41.41523 38.45235
# Shear Modulus (GPa) = -93.64279 15.92454 -38.85912
#
# Velocity S-wave (km/s) = -6.72185 2.77195 -4.33010
# Velocity P-wave (km/s) = 6.56662 5.49801 2.53894
#
# Compressibility (1/GPa) = 0.02817738
#
# Stress axis : x y z
#
# Youngs Moduli (GPa) = 59.67797 59.67797 110.32590
#
# Poissons Ratio (x) = 0.06638 0.33581
# Poissons Ratio (y) = 0.06638 0.33581
# Poissons Ratio (z) = 0.18165 0.18165
#
# Static dielectric constant tensor:
#      x y z
#    x 1.764450 0.000000 0.000000 
#    y 0.000000 1.764450 0.000000 
#    z 0.000000 0.000000 1.730760 
# 
# From -- ./inp_files/18071.got.cif
#   From: 2010.05.17/outbox.cif.g08.bks.cpg/sg91_10_cif.got.tgz:18071.got - 2010.06.03 19:20:03.
