data_PCOD9548927
_publ_section_title
;
Structure prediction by ZEFSAII (Michael W. Deem and Ramdas Pophale) SiO2 
 PCOD9548927
Probable space group: P 41 21 2
;
_chemical_formula_sum "Si O2"
_cell_formula_units_Z 48
_cell_length_a 13.106683
_cell_length_b 13.106683
_cell_length_c 11.850910
_cell_angle_alpha 90.000000
_cell_angle_beta 90.000000
_cell_angle_gamma 90.000000
_cell_volume 2035.810225
_symmetry_space_group_name_H-M "P 41 21 2"
_symmetry_group_IT_number 92
_symmetry_cell_setting 'tetragonal'
loop_
_space_group_symop_operation_xyz
x,y,z
1/2-y,1/2+x,1/4+z
-x,-y,1/2+z
1/2+y,1/2-x,3/4+z
1/2+x,1/2-y,3/4-z
1/2-x,1/2+y,1/4-z
y,x,-z
-y,-x,1/2-z
loop_
_atom_site_type_symbol
_atom_site_label
_atom_site_fract_x
_atom_site_fract_y
_atom_site_fract_z
Si Si1 0.922510 0.306077 0.979290
Si Si2 0.650612 0.915911 0.964774
Si Si3 0.379256 0.062278 0.217262
Si Si4 0.237044 0.804836 0.370032
Si Si5 0.920947 0.829105 0.601769
Si Si6 0.262684 0.023985 0.687760
O O1 0.850301 0.207450 0.961950
O O2 0.971978 0.341388 0.861133
O O3 0.850282 0.393935 0.026147
O O4 0.014719 0.266663 0.054633
O O5 0.681205 0.924893 0.833388
O O6 0.588798 0.808689 0.963143
O O7 0.562421 0.000579 0.994519
O O8 0.738569 0.945144 0.054743
O O9 0.374426 0.168558 0.149287
O O10 0.183255 0.816746 0.250000
O O11 0.292656 0.694942 0.366123
O O12 0.912554 0.912554 0.500000
O O13 0.959738 0.835475 0.731431
#
# Coordination Sequence:
#
# PCOD9548927 Si02
#       6
#     8   8   8   8   8   8
#     4  11  19  32  56  76 113 152 186 249 286 350
#     4  10  21  31  54  83 121 150 174 249 313 375
#     4  11  20  33  52  89 117 148 196 233 314 366
#     4  10  20  33  51  84 114 144 193 247 289 356
#     4  10  19  34  55  80 110 145 198 236 285 350
#     4  10  19  33  52  87 115 149 186 232 318 362
#
# _framework density 23.577836999999999
#
# number of rings (size 3 to 8) (size 9 to 14) (size 15 to 20)
#    0.000    1.667    5.000    3.000    4.667    0.000 
#    0.000    3.333    0.000    0.000    8.667    0.000 
#    0.000    0.000    0.000    0.000    0.000    0.000 
#
# Total GULP energy -267275.423397 kJ/mol
# GULP energy per Si atom -5568.237987 kJ/mol
# Density = 2.352417 g / cm^3
# Si number density = 23.577837 Si / 1000 Ang^3
#
#
#
# Elastic Constant Matrix: (Units=GPa)
#
#
# Indices 1 2 3 4 5 6 
#
# 1 24.6443 7.2125 -9.0133 0.0000 0.0000 0.0000
# 2 7.2125 24.6442 -9.0132 0.0000 0.0000 0.0000
# 3 -9.0133 -9.0132 109.2000 0.0000 0.0000 0.0000
# 4 0.0000 0.0000 0.0000 21.4235 0.0000 0.0000
# 5 0.0000 0.0000 0.0000 0.0000 21.4236 0.0000
# 6 0.0000 0.0000 0.0000 0.0000 0.0000 12.9605
#
#
#
# Elastic Compliance Matrix: (Units=1/GPa)
#
#
# Indices 1 2 3 4 5 6 
#
# 1 0.045148 -0.012219 0.002718 0.000000 0.000000 0.000000
# 2 -0.012219 0.045148 0.002718 0.000000 0.000000 0.000000
# 3 0.002718 0.002718 0.009606 0.000000 0.000000 0.000000
# 4 0.000000 0.000000 0.000000 0.046678 0.000000 0.000000
# 5 0.000000 0.000000 0.000000 0.000000 0.046677 0.000000
# 6 0.000000 0.000000 0.000000 0.000000 0.000000 0.077158
#
#
# Mechanical properties :
#
#
# Convention : Reuss Voigt Hill
#
# Bulk Modulus (GPa) = 11.58285 15.20674 13.39479
# Shear Modulus (GPa) = 15.98676 22.44835 19.21755
#
# Velocity S-wave (km/s) = 2.60675 3.08895 2.85804
# Velocity P-wave (km/s) = 3.73944 4.38015 4.07242
#
# Compressibility (1/GPa) = 0.08633454
#
# Stress axis : x y z
#
# Youngs Moduli (GPa) = 22.14960 22.14961 104.09980
#
# Poissons Ratio (x) = 0.27065 -0.28293
# Poissons Ratio (y) = 0.27065 -0.28293
# Poissons Ratio (z) = -0.06020 -0.06020
#
# Static dielectric constant tensor:
#      x y z
#    x 1.904240 0.000000 0.000000 
#    y 0.000000 1.904240 0.000000 
#    z 0.000000 0.000000 2.067750 
# 
# From -- ./inp_files/2171.got.cif
#   From: 2010.05.17/outbox.cif.g08.bks.cpg/sg92_2_cif.got.tgz:2171.got - 2010.06.03 19:35:17.
