data_PCOD9548362
_publ_section_title
;
Structure prediction by ZEFSAII (Michael W. Deem and Ramdas Pophale) SiO2 
 PCOD9548362
Probable space group: P 41 2 2
;
_chemical_formula_sum "Si O2"
_cell_formula_units_Z 48
_cell_length_a 8.643272
_cell_length_b 8.643272
_cell_length_c 28.966616
_cell_angle_alpha 90.000000
_cell_angle_beta 90.000000
_cell_angle_gamma 90.000000
_cell_volume 2163.984385
_symmetry_space_group_name_H-M "P 41 2 2"
_symmetry_group_IT_number 91
_symmetry_cell_setting 'tetragonal'
loop_
_space_group_symop_operation_xyz
x,y,z
-y,x,1/4+z
-x,-y,1/2+z
y,-x,3/4+z
x,-y,1/2-z
-x,y,-z
y,x,3/4-z
-y,-x,1/4-z
loop_
_atom_site_type_symbol
_atom_site_label
_atom_site_fract_x
_atom_site_fract_y
_atom_site_fract_z
Si Si1 0.623900 0.600806 0.609807
Si Si2 0.781699 0.705792 0.703035
Si Si3 0.198595 0.342472 0.447801
Si Si4 0.983884 0.960150 0.927613
Si Si5 0.000000 0.552800 0.500000
Si Si6 0.791950 0.231646 0.277940
Si Si7 0.991569 0.500000 0.750000
O O1 0.453132 0.546869 0.625000
O O2 0.692029 0.677992 0.655839
O O3 0.700425 0.444580 0.587047
O O4 0.665320 0.718814 0.568920
O O5 0.685712 0.727219 0.750997
O O6 0.879575 0.547178 0.708387
O O7 0.888483 0.859173 0.698444
O O8 0.144235 0.176077 0.430354
O O9 0.042164 0.442253 0.457377
O O10 0.007478 0.007478 0.875000
O O11 0.910101 0.107042 0.952685
O O12 0.847893 0.659421 0.497253
O O13 0.904408 0.350285 0.253908
#
# Coordination Sequence:
#
# PCOD9548362 Si02
#       7
#     8   8   8   8   4   8   4
#     4  11  26  44  66 106 144 186 231 297 360 438
#     4  12  24  43  72 104 135 187 244 290 362 424
#     4  11  23  44  75 100 134 190 242 297 349 434
#     4  12  23  44  70 103 133 183 246 298 344 423
#     4  10  22  42  72  98 138 180 236 290 366 418
#     4  11  25  45  67 104 143 180 235 297 355 426
#     4  12  26  42  68 100 142 188 228 296 362 436
#
# _framework density 22.181307
#
# number of rings (size 3 to 8) (size 9 to 14) (size 15 to 20)
#    0.000    0.667    5.000    2.500    2.333    2.667 
#    0.000    0.833    0.000    0.000    0.000    0.000 
#    0.000    0.000    0.000    0.000    0.000    0.000 
#
# Total GULP energy -267908.746168 kJ/mol
# GULP energy per Si atom -5581.432212 kJ/mol
# Density = 2.213082 g / cm^3
# Si number density = 22.181307 Si / 1000 Ang^3
#
#
#
# Elastic Constant Matrix: (Units=GPa)
#
#
# Indices 1 2 3 4 5 6 
#
# 1 69.5310 15.4092 20.9045 0.0000 0.0000 0.0000
# 2 15.4092 69.5305 20.9047 0.0000 0.0000 0.0000
# 3 20.9045 20.9047 93.9514 0.0000 0.0000 0.0000
# 4 0.0000 0.0000 0.0000 26.2499 0.0000 0.0000
# 5 0.0000 0.0000 0.0000 0.0000 26.2507 0.0000
# 6 0.0000 0.0000 0.0000 0.0000 0.0000 47.1162
#
#
#
# Elastic Compliance Matrix: (Units=1/GPa)
#
#
# Indices 1 2 3 4 5 6 
#
# 1 0.015849 -0.002628 -0.002942 0.000000 0.000000 0.000000
# 2 -0.002628 0.015849 -0.002942 0.000000 0.000000 0.000000
# 3 -0.002942 -0.002942 0.011953 0.000000 0.000000 0.000000
# 4 0.000000 0.000000 0.000000 0.038095 0.000000 0.000000
# 5 0.000000 0.000000 0.000000 0.000000 0.038094 0.000000
# 6 0.000000 0.000000 0.000000 0.000000 0.000000 0.021224
#
#
# Mechanical properties :
#
#
# Convention : Reuss Voigt Hill
#
# Bulk Modulus (GPa) = 37.55449 38.60553 38.08001
# Shear Modulus (GPa) = 29.94669 31.64300 30.79484
#
# Velocity S-wave (km/s) = 3.67834 3.78108 3.73006
# Velocity P-wave (km/s) = 5.91673 6.04189 5.97964
#
# Compressibility (1/GPa) = 0.02662797
#
# Stress axis : x y z
#
# Youngs Moduli (GPa) = 63.09588 63.09529 83.66178
#
# Poissons Ratio (x) = 0.16581 0.24611
# Poissons Ratio (y) = 0.16581 0.24611
# Poissons Ratio (z) = 0.18561 0.18561
#
# Static dielectric constant tensor:
#      x y z
#    x 1.863940 0.000000 0.000000 
#    y 0.000000 1.863940 0.000000 
#    z 0.000000 0.000000 1.779130 
# 
# From -- ./inp_files/22286.got.cif
#   From: 2010.05.17/outbox.cif.g08.bks.cpg/sg91_12_cif.got.tgz:22286.got - 2010.06.03 19:20:03.
