data_PCOD9548383
_publ_section_title
;
Structure prediction by ZEFSAII (Michael W. Deem and Ramdas Pophale) SiO2 
 PCOD9548383
Probable space group: P 41 2 2
;
_chemical_formula_sum "Si O2"
_cell_formula_units_Z 56
_cell_length_a 15.064888
_cell_length_b 15.064888
_cell_length_c 11.266927
_cell_angle_alpha 90.000000
_cell_angle_beta 90.000000
_cell_angle_gamma 90.000000
_cell_volume 2557.038665
_symmetry_space_group_name_H-M "P 41 2 2"
_symmetry_group_IT_number 91
_symmetry_cell_setting 'tetragonal'
loop_
_space_group_symop_operation_xyz
x,y,z
-y,x,1/4+z
-x,-y,1/2+z
y,-x,3/4+z
x,-y,1/2-z
-x,y,-z
y,x,3/4-z
-y,-x,1/4-z
loop_
_atom_site_type_symbol
_atom_site_label
_atom_site_fract_x
_atom_site_fract_y
_atom_site_fract_z
Si Si1 0.655459 0.846009 0.027343
Si Si2 0.527012 0.472989 0.125000
Si Si3 0.560012 0.988647 0.379855
Si Si4 0.226492 0.318068 0.594600
Si Si5 0.191472 0.341059 0.862555
Si Si6 0.088165 0.225917 0.429631
Si Si7 0.500000 0.282427 0.500000
Si Si8 0.502495 0.703879 0.264942
O O1 0.716258 0.772927 0.092524
O O2 0.604710 0.915845 0.106261
O O3 0.708597 0.906655 0.933578
O O4 0.581588 0.782551 0.970703
O O5 0.488171 0.500000 0.250000
O O6 0.630891 0.488238 0.116645
O O7 0.500000 0.973360 0.500000
O O8 0.638122 0.913916 0.375364
O O9 0.512354 0.000000 0.250000
O O10 0.210697 0.357161 0.723936
O O11 0.139802 0.283210 0.528484
O O12 0.266541 0.400601 0.523067
O O13 0.246144 0.246144 0.875000
O O14 0.231174 0.417793 0.947579
O O15 0.142682 0.142682 0.375000
O O16 0.000000 0.198813 0.500000
O O17 0.480164 0.326921 0.628196
#
# Coordination Sequence:
#
# PCOD9548383 Si02
#       8
#     8   4   8   8   8   8   4   8
#     4  11  24  43  68 105 143 185 240 302 372 443
#     4  12  30  48  66  98 138 194 260 324 372 430
#     4  12  26  44  70 104 139 183 240 306 376 448
#     4  11  23  44  71  99 138 192 238 298 378 440
#     4  12  25  44  68 100 142 189 239 306 368 444
#     4  10  22  43  73 110 145 187 240 300 373 459
#     4  12  24  42  68  98 144 188 238 312 362 448
#     4  12  26  45  68  99 140 192 255 302 372 433
#
# _framework density 21.900334000000001
#
# number of rings (size 3 to 8) (size 9 to 14) (size 15 to 20)
#    0.000    0.571    2.857    5.571    3.000    1.714 
#    0.000    0.000    0.000   11.143    0.000    0.000 
#    0.000    0.000    0.000    0.000    0.000    0.000 
#
# Total GULP energy -311943.426252 kJ/mol
# GULP energy per Si atom -5570.418326 kJ/mol
# Density = 2.185049 g / cm^3
# Si number density = 21.900334 Si / 1000 Ang^3
#
#
#
# Elastic Constant Matrix: (Units=GPa)
#
#
# Indices 1 2 3 4 5 6 
#
# 1 74.6454 20.2048 44.7654 0.0000 0.0000 0.0000
# 2 20.2048 74.6442 44.7654 0.0000 0.0000 0.0000
# 3 44.7654 44.7654 183.9634 0.0000 0.0000 0.0000
# 4 0.0000 0.0000 0.0000 14.4125 0.0000 0.0000
# 5 0.0000 0.0000 0.0000 0.0000 14.4127 0.0000
# 6 0.0000 0.0000 0.0000 0.0000 0.0000 18.4289
#
#
#
# Elastic Compliance Matrix: (Units=1/GPa)
#
#
# Indices 1 2 3 4 5 6 
#
# 1 0.016028 -0.002341 -0.003330 0.000000 0.000000 0.000000
# 2 -0.002341 0.016028 -0.003331 0.000000 0.000000 0.000000
# 3 -0.003330 -0.003331 0.007057 0.000000 0.000000 0.000000
# 4 0.000000 0.000000 0.000000 0.069384 0.000000 0.000000
# 5 0.000000 0.000000 0.000000 0.000000 0.069383 0.000000
# 6 0.000000 0.000000 0.000000 0.000000 0.000000 0.054263
#
#
# Mechanical properties :
#
#
# Convention : Reuss Voigt Hill
#
# Bulk Modulus (GPa) = 47.37495 61.41380 54.39437
# Shear Modulus (GPa) = 19.44144 24.35198 21.89671
#
# Velocity S-wave (km/s) = 2.98270 3.33820 3.16545
# Velocity P-wave (km/s) = 5.79146 6.55450 6.18476
#
# Compressibility (1/GPa) = 0.02110820
#
# Stress axis : x y z
#
# Youngs Moduli (GPa) = 62.39210 62.39097 141.70828
#
# Poissons Ratio (x) = 0.14606 0.47196
# Poissons Ratio (y) = 0.14606 0.47197
# Poissons Ratio (z) = 0.20780 0.20780
#
# Static dielectric constant tensor:
#      x y z
#    x 1.899440 0.000000 0.000000 
#    y 0.000000 1.899450 0.000000 
#    z 0.000000 0.000000 1.872260 
# 
# From -- ./inp_files/10890.got.cif
#   From: 2010.05.17/outbox.cif.g08.bks.cpg/sg91_6_cif.got.tgz:10890.got - 2010.06.03 19:20:03.
