data_PCOD9548587
_publ_section_title
;
Structure prediction by ZEFSAII (Michael W. Deem and Ramdas Pophale) SiO2 
 PCOD9548587
Probable space group: P 41 2 2
;
_chemical_formula_sum "Si O2"
_cell_formula_units_Z 36
_cell_length_a 13.538918
_cell_length_b 13.538918
_cell_length_c 9.399719
_cell_angle_alpha 90.000000
_cell_angle_beta 90.000000
_cell_angle_gamma 90.000000
_cell_volume 1722.990118
_symmetry_space_group_name_H-M "P 41 2 2"
_symmetry_group_IT_number 91
_symmetry_cell_setting 'tetragonal'
loop_
_space_group_symop_operation_xyz
x,y,z
-y,x,1/4+z
-x,-y,1/2+z
y,-x,3/4+z
x,-y,1/2-z
-x,y,-z
y,x,3/4-z
-y,-x,1/4-z
loop_
_atom_site_type_symbol
_atom_site_label
_atom_site_fract_x
_atom_site_fract_y
_atom_site_fract_z
Si Si1 0.813803 0.668330 0.287167
Si Si2 0.015744 0.299434 0.331288
Si Si3 0.490115 0.781239 0.300864
Si Si4 0.430277 0.569723 0.625000
Si Si5 0.500000 0.878237 0.000000
Si Si6 0.916372 0.083629 0.625000
O O1 0.740460 0.740460 0.375000
O O2 0.775050 0.610346 0.143956
O O3 0.850838 0.573760 0.379386
O O4 0.909458 0.725144 0.234841
O O5 0.060095 0.397036 0.255179
O O6 0.074981 0.197068 0.320980
O O7 0.000000 0.324154 0.500000
O O8 0.545438 0.678589 0.325344
O O9 0.484116 0.810760 0.138933
O O10 0.456334 0.500000 0.750000
O O11 0.000000 0.071598 0.500000
#
# Coordination Sequence:
#
# PCOD9548587 Si02
#       6
#     8   8   8   4   4   4
#     4  11  22  43  73 101 141 198 241 306 375 456
#     4  11  25  47  75 108 151 191 250 325 385 461
#     4  11  23  44  69 102 148 189 247 297 377 458
#     4  12  24  44  64 100 138 186 232 296 360 448
#     4  12  26  46  72 114 142 194 248 316 390 446
#     4  10  26  52  72 108 148 196 250 324 386 470
#
# _framework density 20.893909000000001
#
# number of rings (size 3 to 8) (size 9 to 14) (size 15 to 20)
#    0.000    0.889    5.556    1.333    3.111    3.556 
#    4.000    0.000    0.000    0.000    0.000    0.000 
#    0.000    0.000    0.000    0.000    0.000    0.000 
#
# Total GULP energy -200544.591666 kJ/mol
# GULP energy per Si atom -5570.683102 kJ/mol
# Density = 2.084635 g / cm^3
# Si number density = 20.893909 Si / 1000 Ang^3
#
#
#
# Elastic Constant Matrix: (Units=GPa)
#
#
# Indices 1 2 3 4 5 6 
#
# 1 151.0550 67.5967 57.3486 0.0000 0.0000 0.0000
# 2 67.5967 151.0573 57.3480 0.0000 0.0000 0.0000
# 3 57.3486 57.3480 140.2333 0.0000 0.0000 0.0000
# 4 0.0000 0.0000 0.0000 36.9314 0.0000 0.0000
# 5 0.0000 0.0000 0.0000 0.0000 36.9317 0.0000
# 6 0.0000 0.0000 0.0000 0.0000 0.0000 55.5629
#
#
#
# Elastic Compliance Matrix: (Units=1/GPa)
#
#
# Indices 1 2 3 4 5 6 
#
# 1 0.008902 -0.003080 -0.002381 0.000000 0.000000 0.000000
# 2 -0.003080 0.008902 -0.002381 0.000000 0.000000 0.000000
# 3 -0.002381 -0.002381 0.009078 0.000000 0.000000 0.000000
# 4 0.000000 0.000000 0.000000 0.027077 0.000000 0.000000
# 5 0.000000 0.000000 0.000000 0.000000 0.027077 0.000000
# 6 0.000000 0.000000 0.000000 0.000000 0.000000 0.017998
#
#
# Mechanical properties :
#
#
# Convention : Reuss Voigt Hill
#
# Bulk Modulus (GPa) = 89.29332 89.65912 89.47622
# Shear Modulus (GPa) = 42.21138 43.22203 42.71671
#
# Velocity S-wave (km/s) = 4.49962 4.55317 4.52647
# Velocity P-wave (km/s) = 8.35612 8.40515 8.38067
#
# Compressibility (1/GPa) = 0.01119905
#
# Stress axis : x y z
#
# Youngs Moduli (GPa) = 112.33082 112.33328 110.15062
#
# Poissons Ratio (x) = 0.34595 0.26229
# Poissons Ratio (y) = 0.34594 0.26227
# Poissons Ratio (z) = 0.26748 0.26747
#
# Static dielectric constant tensor:
#      x y z
#    x 1.805360 0.000000 0.000000 
#    y 0.000000 1.805360 0.000000 
#    z 0.000000 0.000000 1.757540 
# 
# From -- ./inp_files/19343.got.cif
#   From: 2010.05.17/outbox.cif.g08.bks.cpg/sg91_10_cif.got.tgz:19343.got - 2010.06.03 19:20:03.
