data_PCOD9548417
_publ_section_title
;
Structure prediction by ZEFSAII (Michael W. Deem and Ramdas Pophale) SiO2 
 PCOD9548417
Probable space group: P 41 2 2
;
_chemical_formula_sum "Si O2"
_cell_formula_units_Z 24
_cell_length_a 10.995413
_cell_length_b 10.995413
_cell_length_c 7.672418
_cell_angle_alpha 90.000000
_cell_angle_beta 90.000000
_cell_angle_gamma 90.000000
_cell_volume 927.588485
_symmetry_space_group_name_H-M "P 41 2 2"
_symmetry_group_IT_number 91
_symmetry_cell_setting 'tetragonal'
loop_
_space_group_symop_operation_xyz
x,y,z
-y,x,1/4+z
-x,-y,1/2+z
y,-x,3/4+z
x,-y,1/2-z
-x,y,-z
y,x,3/4-z
-y,-x,1/4-z
loop_
_atom_site_type_symbol
_atom_site_label
_atom_site_fract_x
_atom_site_fract_y
_atom_site_fract_z
Si Si1 0.620550 0.379451 0.625000
Si Si2 0.619362 0.953419 0.065761
Si Si3 0.640934 0.775607 0.537768
Si Si4 0.000000 0.839882 0.500000
O O1 0.616196 0.500000 0.750000
O O2 0.722133 0.348964 0.479996
O O3 0.651483 0.077578 0.963868
O O4 0.567413 0.000000 0.250000
O O5 0.751872 0.912378 0.132757
O O6 0.500000 0.883048 0.000000
O O7 0.500000 0.749109 0.500000
O O8 0.713873 0.713873 0.375000
O O9 0.921057 0.921057 0.375000
#
# Coordination Sequence:
#
# PCOD9548417 Si02
#       4
#     4   8   8   4
#     4  12  22  36  62 100 156 204 250 306 382 472
#     4   9  22  46  73 102 145 197 261 332 395 478
#     4  11  21  39  64 102 147 197 252 309 383 472
#     4  10  22  48  80 110 156 208 268 342 406 492
#
# _framework density 25.873543999999999
#
# number of rings (size 3 to 8) (size 9 to 14) (size 15 to 20)
#    1.000    0.667    3.333    2.000    0.000    0.000 
#   15.000    0.000    3.667    0.000    0.000    0.000 
#    0.000    0.000    0.000    0.000    0.000    0.000 
#
# Total GULP energy -133658.813046 kJ/mol
# GULP energy per Si atom -5569.117210 kJ/mol
# Density = 2.581465 g / cm^3
# Si number density = 25.873544 Si / 1000 Ang^3
#
#
#
# Elastic Constant Matrix: (Units=GPa)
#
#
# Indices 1 2 3 4 5 6 
#
# 1 133.5629 59.2989 75.1858 0.0000 0.0000 0.0000
# 2 59.2989 133.5633 75.1859 0.0000 0.0000 0.0000
# 3 75.1858 75.1859 182.6415 0.0000 0.0000 0.0000
# 4 0.0000 0.0000 0.0000 70.5626 0.0000 0.0000
# 5 0.0000 0.0000 0.0000 0.0000 70.5625 0.0000
# 6 0.0000 0.0000 0.0000 0.0000 0.0000 21.3045
#
#
#
# Elastic Compliance Matrix: (Units=1/GPa)
#
#
# Indices 1 2 3 4 5 6 
#
# 1 0.010551 -0.002915 -0.003143 0.000000 0.000000 0.000000
# 2 -0.002915 0.010551 -0.003143 0.000000 0.000000 0.000000
# 3 -0.003143 -0.003143 0.008063 0.000000 0.000000 0.000000
# 4 0.000000 0.000000 0.000000 0.014172 0.000000 0.000000
# 5 0.000000 0.000000 0.000000 0.000000 0.014172 0.000000
# 6 0.000000 0.000000 0.000000 0.000000 0.000000 0.046938
#
#
# Mechanical properties :
#
#
# Convention : Reuss Voigt Hill
#
# Bulk Modulus (GPa) = 92.92399 96.56766 94.74583
# Shear Modulus (GPa) = 39.54546 48.49241 44.01894
#
# Velocity S-wave (km/s) = 3.91373 4.33391 4.12917
# Velocity P-wave (km/s) = 7.51104 7.90238 7.70920
#
# Compressibility (1/GPa) = 0.01076148
#
# Stress axis : x y z
#
# Youngs Moduli (GPa) = 94.78056 94.78081 124.02019
#
# Poissons Ratio (x) = 0.27626 0.38984
# Poissons Ratio (y) = 0.27626 0.38984
# Poissons Ratio (z) = 0.29793 0.29793
#
# Static dielectric constant tensor:
#      x y z
#    x 2.094610 0.000000 0.000000 
#    y 0.000000 2.094610 0.000000 
#    z 0.000000 0.000000 1.952840 
# 
# From -- ./inp_files/8215.got.cif
#   From: 2010.05.17/outbox.cif.g08.bks.cpg/sg91_5_cif.got.tgz:8215.got - 2010.06.03 19:20:03.
