data_PCOD9548844
_publ_section_title
;
Structure prediction by ZEFSAII (Michael W. Deem and Ramdas Pophale) SiO2 
 PCOD9548844
Probable space group: P 41 2 2
;
_chemical_formula_sum "Si O2"
_cell_formula_units_Z 56
_cell_length_a 12.000000
_cell_length_b 12.000000
_cell_length_c 21.000000
_cell_angle_alpha 90.000000
_cell_angle_beta 90.000000
_cell_angle_gamma 90.000000
_cell_volume 3024.000000
_symmetry_space_group_name_H-M "P 41 2 2"
_symmetry_group_IT_number 91
_symmetry_cell_setting 'tetragonal'
loop_
_space_group_symop_operation_xyz
x,y,z
-y,x,1/4+z
-x,-y,1/2+z
y,-x,3/4+z
x,-y,1/2-z
-x,y,-z
y,x,3/4-z
-y,-x,1/4-z
loop_
_atom_site_type_symbol
_atom_site_label
_atom_site_fract_x
_atom_site_fract_y
_atom_site_fract_z
Si Si1 0.132909 0.000000 0.250000
Si Si2 0.546062 0.546062 0.875000
Si Si3 0.493625 0.036878 0.684233
Si Si4 0.259746 0.363611 0.458214
Si Si5 0.662257 0.325888 0.848829
Si Si6 0.912508 0.295806 0.394023
Si Si7 0.405698 0.102770 0.554922
Si Si8 0.775707 0.902663 0.955641
O O1 0.206885 0.928536 0.299391
O O2 0.070806 0.905798 0.211010
O O3 0.621068 0.597895 0.931387
O O4 0.574505 0.415215 0.874266
O O5 0.559084 0.156484 0.686569
O O6 0.425841 0.034761 0.618890
O O7 0.435002 0.000000 0.750000
O O8 0.588621 0.945514 0.675865
O O9 0.273965 0.377486 0.532907
O O10 0.240310 0.231186 0.443517
O O11 0.699390 0.212265 0.884939
O O12 0.770525 0.397315 0.829436
O O13 0.013107 0.274193 0.345310
O O14 0.500000 0.092261 0.500000
O O15 0.290623 0.075606 0.520466
#
# Coordination Sequence:
#
# PCOD9548844 Si02
#       8
#     4   4   8   8   8   8   8   8
#     4  12  20  34  58  94 128 158 192 266 320 376
#     4  12  22  34  58  82 120 162 196 248 306 358
#     4  12  20  35  60  89 121 160 199 251 313 375
#     4  11  20  34  57  91 119 145 194 257 315 359
#     4  11  22  36  55  88 124 154 202 247 304 378
#     4  12  20  34  58  88 127 154 196 252 309 373
#     4  11  21  36  59  90 123 154 193 258 316 362
#     4  11  22  35  59  92 124 152 201 260 318 364
#
# _framework density 18.518519000000001
#
# number of rings (size 3 to 8) (size 9 to 14) (size 15 to 20)
#    0.000    0.571    9.286    3.429    0.000    0.000 
#    0.000    0.000    7.857    0.000    0.000    0.000 
#    0.000    0.000    0.000    0.000    0.000    0.000 
#
# Total GULP energy -311846.107850 kJ/mol
# GULP energy per Si atom -5568.680497 kJ/mol
# Density = 1.847637 g / cm^3
# Si number density = 18.518519 Si / 1000 Ang^3
#
#
#
# Elastic Constant Matrix: (Units=GPa)
#
#
# Indices 1 2 3 4 5 6 
#
# 1 56.2941 15.5353 7.8307 0.0000 0.0000 0.0000
# 2 15.5353 56.2941 7.8307 0.0000 0.0000 0.0000
# 3 7.8307 7.8307 55.8006 0.0000 0.0000 0.0000
# 4 0.0000 0.0000 0.0000 4.2191 0.0000 0.0000
# 5 0.0000 0.0000 0.0000 0.0000 4.2191 0.0000
# 6 0.0000 0.0000 0.0000 0.0000 0.0000 -6.0142
#
#
#
# Elastic Compliance Matrix: (Units=1/GPa)
#
#
# Indices 1 2 3 4 5 6 
#
# 1 0.019448 -0.005087 -0.002015 0.000000 0.000000 0.000000
# 2 -0.005087 0.019448 -0.002015 0.000000 0.000000 0.000000
# 3 -0.002015 -0.002015 0.018487 0.000000 0.000000 0.000000
# 4 0.000000 0.000000 0.000000 0.237015 0.000000 0.000000
# 5 0.000000 0.000000 0.000000 0.000000 0.237015 0.000000
# 6 0.000000 0.000000 0.000000 0.000000 0.000000 -0.166274
#
#
# Mechanical properties :
#
#
# Convention : Reuss Voigt Hill
#
# Bulk Modulus (GPa) = 25.54429 25.64248 25.59338
# Shear Modulus (GPa) = 12.61283 9.63097 11.12190
#
# Velocity S-wave (km/s) = 2.61261 2.28298 2.45334
# Velocity P-wave (km/s) = 4.78799 4.56359 4.67713
#
# Compressibility (1/GPa) = 0.03914769
#
# Stress axis : x y z
#
# Youngs Moduli (GPa) = 51.41937 51.41937 54.09326
#
# Poissons Ratio (x) = 0.26155 0.10902
# Poissons Ratio (y) = 0.26155 0.10902
# Poissons Ratio (z) = 0.10363 0.10363
#
# Static dielectric constant tensor:
#      x y z
#    x 1.695020 0.000000 0.000000 
#    y 0.000000 1.695020 0.000000 
#    z 0.000000 0.000000 0.247950 
# 
# From -- ./inp_files/21542.got.cif
#   From: 2010.05.17/outbox.ucp.g08.bks.cvg/sg91_11_cif.got.tgz:21542.got - 2010.06.11 10:36:11.
