data_PCOD9548071
_publ_section_title
;
Structure prediction by ZEFSAII (Michael W. Deem and Ramdas Pophale) SiO2 
 PCOD9548071
Probable space group: P 41 2 2
;
_chemical_formula_sum "Si O2"
_cell_formula_units_Z 40
_cell_length_a 22.354102
_cell_length_b 22.354102
_cell_length_c 5.206779
_cell_angle_alpha 90.000000
_cell_angle_beta 90.000000
_cell_angle_gamma 90.000000
_cell_volume 2601.858063
_symmetry_space_group_name_H-M "P 41 2 2"
_symmetry_group_IT_number 91
_symmetry_cell_setting 'tetragonal'
loop_
_space_group_symop_operation_xyz
x,y,z
-y,x,1/4+z
-x,-y,1/2+z
y,-x,3/4+z
x,-y,1/2-z
-x,y,-z
y,x,3/4-z
-y,-x,1/4-z
loop_
_atom_site_type_symbol
_atom_site_label
_atom_site_fract_x
_atom_site_fract_y
_atom_site_fract_z
Si Si1 0.842601 0.355833 0.128338
Si Si2 0.958515 0.431291 0.248308
Si Si3 0.436575 0.753158 0.885550
Si Si4 0.683958 0.785327 0.877082
Si Si5 0.563124 0.384656 0.381706
O O1 0.905710 0.383915 0.206956
O O2 0.818878 0.316141 0.359328
O O3 0.798051 0.412355 0.080340
O O4 0.832468 0.318424 0.864840
O O5 0.934908 0.500000 0.250000
O O6 0.000000 0.422249 0.500000
O O7 0.000000 0.427107 0.000000
O O8 0.442036 0.684719 0.801056
O O9 0.500000 0.772605 0.000000
O O10 0.381691 0.755128 0.088406
O O11 0.735682 0.735682 0.875000
O O12 0.500000 0.404006 0.500000
O O13 0.607359 0.392642 0.625000
O O14 0.580580 0.419421 0.125000
#
# Coordination Sequence:
#
# PCOD9548071 Si02
#       5
#     8   8   8   8   8
#     4  10  22  33  55  72  99 131 162 198 251 307
#     4  10  21  35  53  76 105 132 161 200 250 309
#     4   9  23  33  52  74  96 121 158 202 252 315
#     4  10  21  34  51  73  98 130 164 207 254 300
#     4  11  24  40  55  71  88 114 151 199 257 315
#
# _framework density 15.373628
#
# number of rings (size 3 to 8) (size 9 to 14) (size 15 to 20)
#    1.200    0.800    0.000    3.000    8.400    1.600 
#    0.000    0.000    0.000    0.000    0.000    0.000 
#    0.000    0.000    0.000    0.000    0.000    0.000 
#
# Total GULP energy -222685.576323 kJ/mol
# GULP energy per Si atom -5567.139408 kJ/mol
# Density = 1.533864 g / cm^3
# Si number density = 15.373628 Si / 1000 Ang^3
#
#
#
# Elastic Constant Matrix: (Units=GPa)
#
#
# Indices 1 2 3 4 5 6 
#
# 1 52.3183 18.3023 24.6096 0.0000 0.0000 0.0000
# 2 18.3023 52.3185 24.6087 0.0000 0.0000 0.0000
# 3 24.6096 24.6087 110.7961 0.0000 0.0000 0.0000
# 4 0.0000 0.0000 0.0000 15.8653 0.0000 0.0000
# 5 0.0000 0.0000 0.0000 0.0000 15.8652 0.0000
# 6 0.0000 0.0000 0.0000 0.0000 0.0000 7.0380
#
#
#
# Elastic Compliance Matrix: (Units=1/GPa)
#
#
# Indices 1 2 3 4 5 6 
#
# 1 0.023076 -0.006322 -0.003721 0.000000 0.000000 0.000000
# 2 -0.006322 0.023076 -0.003721 0.000000 0.000000 0.000000
# 3 -0.003721 -0.003721 0.010679 0.000000 0.000000 0.000000
# 4 0.000000 0.000000 0.000000 0.063031 0.000000 0.000000
# 5 0.000000 0.000000 0.000000 0.000000 0.063031 0.000000
# 6 0.000000 0.000000 0.000000 0.000000 0.000000 0.142086
#
#
# Mechanical properties :
#
#
# Convention : Reuss Voigt Hill
#
# Bulk Modulus (GPa) = 34.12844 38.94158 36.53501
# Shear Modulus (GPa) = 13.80169 17.61451 15.70810
#
# Velocity S-wave (km/s) = 2.99950 3.38858 3.19996
# Velocity P-wave (km/s) = 5.85180 6.37927 6.12122
#
# Compressibility (1/GPa) = 0.02930107
#
# Stress axis : x y z
#
# Youngs Moduli (GPa) = 43.33535 43.33591 93.64510
#
# Poissons Ratio (x) = 0.27398 0.34848
# Poissons Ratio (y) = 0.27397 0.34845
# Poissons Ratio (z) = 0.16126 0.16125
#
# Static dielectric constant tensor:
#      x y z
#    x 1.511950 0.000000 0.000000 
#    y 0.000000 1.511950 0.000000 
#    z 0.000000 0.000000 1.554330 
# 
# From -- ./inp_files/14223.got.cif
#   From: 2010.05.17/outbox.cif.g08.bks.cpg/sg91_8_cif.got.tgz:14223.got - 2010.06.03 19:20:03.
