data_PCOD9548010
_publ_section_title
;
Structure prediction by ZEFSAII (Michael W. Deem and Ramdas Pophale) SiO2 
 PCOD9548010
Probable space group: P 41 2 2
;
_chemical_formula_sum "Si O2"
_cell_formula_units_Z 44
_cell_length_a 8.381453
_cell_length_b 8.381453
_cell_length_c 29.702428
_cell_angle_alpha 90.000000
_cell_angle_beta 90.000000
_cell_angle_gamma 90.000000
_cell_volume 2086.558569
_symmetry_space_group_name_H-M "P 41 2 2"
_symmetry_group_IT_number 91
_symmetry_cell_setting 'tetragonal'
loop_
_space_group_symop_operation_xyz
x,y,z
-y,x,1/4+z
-x,-y,1/2+z
y,-x,3/4+z
x,-y,1/2-z
-x,y,-z
y,x,3/4-z
-y,-x,1/4-z
loop_
_atom_site_type_symbol
_atom_site_label
_atom_site_fract_x
_atom_site_fract_y
_atom_site_fract_z
Si Si1 0.272927 0.385366 0.423982
Si Si2 0.500000 0.448344 0.500000
Si Si3 0.957212 0.856213 0.450446
Si Si4 0.311151 0.627404 0.676204
Si Si5 0.761285 0.292453 0.342282
Si Si6 0.018157 0.816169 0.913533
O O1 0.322331 0.322331 0.375000
O O2 0.391970 0.350689 0.465126
O O3 0.275729 0.574335 0.416509
O O4 0.102956 0.309349 0.434683
O O5 0.603793 0.562129 0.466561
O O6 0.126799 0.826770 0.426975
O O7 0.000000 0.802193 0.500000
O O8 0.800092 0.769988 0.431369
O O9 0.923855 0.044786 0.446262
O O10 0.380414 0.619587 0.625000
O O11 0.199270 0.467679 0.678081
O O12 0.835358 0.281237 0.391985
O O13 0.913566 0.913566 0.875000
#
# Coordination Sequence:
#
# PCOD9548010 Si02
#       6
#     8   4   8   8   8   8
#     4  10  21  41  63  90 129 171 214 274 340 402
#     4  10  20  40  64 102 130 162 230 284 328 422
#     4  11  23  42  61  97 136 168 224 284 338 413
#     4  11  23  41  69 100 130 178 227 276 355 416
#     4  10  21  39  67  90 126 172 219 276 330 408
#     4   9  21  39  58  87 125 165 214 261 330 402
#
# _framework density 21.087356
#
# number of rings (size 3 to 8) (size 9 to 14) (size 15 to 20)
#    0.000    1.818    0.000    6.000    5.091    0.000 
#    6.545    0.909    0.000    0.000    0.000    0.000 
#    0.000    0.000    0.000    0.000    0.000    0.000 
#
# Total GULP energy -244996.891632 kJ/mol
# GULP energy per Si atom -5568.111173 kJ/mol
# Density = 2.103936 g / cm^3
# Si number density = 21.087356 Si / 1000 Ang^3
#
#
#
# Elastic Constant Matrix: (Units=GPa)
#
#
# Indices 1 2 3 4 5 6 
#
# 1 62.8937 6.8778 25.1429 0.0000 0.0000 0.0000
# 2 6.8778 62.8943 25.1430 0.0000 0.0000 0.0000
# 3 25.1429 25.1430 83.2462 0.0000 0.0000 0.0000
# 4 0.0000 0.0000 0.0000 18.4800 0.0000 0.0000
# 5 0.0000 0.0000 0.0000 0.0000 18.4799 0.0000
# 6 0.0000 0.0000 0.0000 0.0000 0.0000 272.8044
#
#
#
# Elastic Compliance Matrix: (Units=1/GPa)
#
#
# Indices 1 2 3 4 5 6 
#
# 1 0.018086 0.000234 -0.005533 0.000000 0.000000 0.000000
# 2 0.000234 0.018086 -0.005533 0.000000 0.000000 0.000000
# 3 -0.005533 -0.005533 0.015355 0.000000 0.000000 0.000000
# 4 0.000000 0.000000 0.000000 0.054113 0.000000 0.000000
# 5 0.000000 0.000000 0.000000 0.000000 0.054113 0.000000
# 6 0.000000 0.000000 0.000000 0.000000 0.000000 0.003666
#
#
# Mechanical properties :
#
#
# Convention : Reuss Voigt Hill
#
# Bulk Modulus (GPa) = 33.48678 35.92907 34.70792
# Shear Modulus (GPa) = 25.63609 72.07757 48.85683
#
# Velocity S-wave (km/s) = 3.49048 5.85275 4.81862
# Velocity P-wave (km/s) = 5.67090 7.92137 6.88866
#
# Compressibility (1/GPa) = 0.02986253
#
# Stress axis : x y z
#
# Youngs Moduli (GPa) = 55.29054 55.29105 65.12520
#
# Poissons Ratio (x) = -0.01295 0.36036
# Poissons Ratio (y) = -0.01295 0.36036
# Poissons Ratio (z) = 0.30594 0.30594
#
# Static dielectric constant tensor:
#      x y z
#    x 1.737480 0.000000 0.000000 
#    y 0.000000 1.737480 0.000000 
#    z 0.000000 0.000000 1.986550 
# 
# From -- ./inp_files/18074.got.cif
#   From: 2010.05.17/outbox.cif.g08.bks.cpg/sg91_10_cif.got.tgz:18074.got - 2010.06.03 19:20:03.
