data_PCOD9548344
_publ_section_title
;
Structure prediction by ZEFSAII (Michael W. Deem and Ramdas Pophale) SiO2 
 PCOD9548344
Probable space group: P 41 2 2
;
_chemical_formula_sum "Si O2"
_cell_formula_units_Z 48
_cell_length_a 14.420566
_cell_length_b 14.420566
_cell_length_c 10.455615
_cell_angle_alpha 90.000000
_cell_angle_beta 90.000000
_cell_angle_gamma 90.000000
_cell_volume 2174.273618
_symmetry_space_group_name_H-M "P 41 2 2"
_symmetry_group_IT_number 91
_symmetry_cell_setting 'tetragonal'
loop_
_space_group_symop_operation_xyz
x,y,z
-y,x,1/4+z
-x,-y,1/2+z
y,-x,3/4+z
x,-y,1/2-z
-x,y,-z
y,x,3/4-z
-y,-x,1/4-z
loop_
_atom_site_type_symbol
_atom_site_label
_atom_site_fract_x
_atom_site_fract_y
_atom_site_fract_z
Si Si1 0.918173 0.206453 0.215941
Si Si2 0.792207 0.429236 0.857711
Si Si3 0.395757 0.004824 0.892819
Si Si4 0.162315 0.532544 0.886980
Si Si5 0.289851 0.261752 0.235295
Si Si6 0.137552 0.115963 0.521946
O O1 0.837077 0.162924 0.125000
O O2 0.932016 0.318470 0.213103
O O3 0.912344 0.170769 0.362616
O O4 0.016782 0.164983 0.171821
O O5 0.759120 0.500000 0.750000
O O6 0.722827 0.343797 0.864033
O O7 0.898533 0.404026 0.814764
O O8 0.800281 0.471667 0.996755
O O9 0.496008 0.055290 0.875004
O O10 0.355562 0.000000 0.750000
O O11 0.202248 0.500000 0.750000
O O12 0.188359 0.635081 0.936142
O O13 0.305959 0.305959 0.375000
O O14 0.185946 0.222389 0.246575
O O15 0.101512 0.101512 0.375000
#
# Coordination Sequence:
#
# PCOD9548344 Si02
#       6
#     8   8   8   8   8   8
#     4  12  24  41  66  94 137 188 245 294 357 433
#     4  11  22  42  75  99 142 182 232 294 363 430
#     4  10  22  42  66 104 140 182 238 298 362 425
#     4  11  24  42  68 107 141 180 232 294 354 431
#     4  11  23  45  70 105 139 185 237 294 367 435
#     4  11  25  42  64  93 137 188 240 297 353 422
#
# _framework density 22.076338
#
# number of rings (size 3 to 8) (size 9 to 14) (size 15 to 20)
#    0.000    1.000    3.333    3.500    2.333    2.667 
#    0.000    1.667    0.000    3.000    0.000    0.000 
#    0.000    0.000    0.000    0.000    0.000    0.000 
#
# Total GULP energy -267298.040557 kJ/mol
# GULP energy per Si atom -5568.709178 kJ/mol
# Density = 2.202609 g / cm^3
# Si number density = 22.076338 Si / 1000 Ang^3
#
#
#
# Elastic Constant Matrix: (Units=GPa)
#
#
# Indices 1 2 3 4 5 6 
#
# 1 83.7356 40.1249 15.6921 0.0000 0.0000 0.0000
# 2 40.1249 83.7354 15.6918 0.0000 0.0000 0.0000
# 3 15.6921 15.6918 120.8247 0.0000 0.0000 0.0000
# 4 0.0000 0.0000 0.0000 20.4463 0.0000 0.0000
# 5 0.0000 0.0000 0.0000 0.0000 20.4464 0.0000
# 6 0.0000 0.0000 0.0000 0.0000 0.0000 9.5544
#
#
#
# Elastic Compliance Matrix: (Units=1/GPa)
#
#
# Indices 1 2 3 4 5 6 
#
# 1 0.015639 -0.007291 -0.001084 0.000000 0.000000 0.000000
# 2 -0.007291 0.015639 -0.001084 0.000000 0.000000 0.000000
# 3 -0.001084 -0.001084 0.008558 0.000000 0.000000 0.000000
# 4 0.000000 0.000000 0.000000 0.048909 0.000000 0.000000
# 5 0.000000 0.000000 0.000000 0.000000 0.048908 0.000000
# 6 0.000000 0.000000 0.000000 0.000000 0.000000 0.104664
#
#
# Mechanical properties :
#
#
# Convention : Reuss Voigt Hill
#
# Bulk Modulus (GPa) = 47.80611 47.92369 47.86490
# Shear Modulus (GPa) = 18.64218 24.54188 21.59203
#
# Velocity S-wave (km/s) = 2.90908 3.33781 3.13079
# Velocity P-wave (km/s) = 5.74331 6.05061 5.89896
#
# Compressibility (1/GPa) = 0.02091783
#
# Stress axis : x y z
#
# Youngs Moduli (GPa) = 63.94167 63.94156 116.84871
#
# Poissons Ratio (x) = 0.46619 0.12669
# Poissons Ratio (y) = 0.46619 0.12669
# Poissons Ratio (z) = 0.06933 0.06933
#
# Static dielectric constant tensor:
#      x y z
#    x 1.865600 0.000000 0.000000 
#    y 0.000000 1.865600 0.000000 
#    z 0.000000 0.000000 1.940070 
# 
# From -- ./inp_files/20248.got.cif
#   From: 2010.05.17/outbox.cif.g08.bks.cpg/sg91_11_cif.got.tgz:20248.got - 2010.06.03 19:20:03.
