data_PCOD9548846
_publ_section_title
;
Structure prediction by ZEFSAII (Michael W. Deem and Ramdas Pophale) SiO2 
 PCOD9548846
Probable space group: P 41 2 2
;
_chemical_formula_sum "Si O2"
_cell_formula_units_Z 40
_cell_length_a 9.000000
_cell_length_b 9.000000
_cell_length_c 24.000000
_cell_angle_alpha 90.000000
_cell_angle_beta 90.000000
_cell_angle_gamma 90.000000
_cell_volume 1944.000000
_symmetry_space_group_name_H-M "P 41 2 2"
_symmetry_group_IT_number 91
_symmetry_cell_setting 'tetragonal'
loop_
_space_group_symop_operation_xyz
x,y,z
-y,x,1/4+z
-x,-y,1/2+z
y,-x,3/4+z
x,-y,1/2-z
-x,y,-z
y,x,3/4-z
-y,-x,1/4-z
loop_
_atom_site_type_symbol
_atom_site_label
_atom_site_fract_x
_atom_site_fract_y
_atom_site_fract_z
Si Si1 0.321988 0.023680 0.055586
Si Si2 0.295585 0.500000 0.750000
Si Si3 0.465892 0.933448 0.843410
Si Si4 0.250628 0.146608 0.559071
Si Si5 0.504178 0.223866 0.775159
Si Si6 0.980635 0.019366 0.625000
O O1 0.401932 0.181569 0.039021
O O2 0.410954 0.958464 0.108775
O O3 0.158105 0.011394 0.082642
O O4 0.318967 0.931508 0.996756
O O5 0.406331 0.375785 0.777660
O O6 0.341991 0.862385 0.883054
O O7 0.503459 0.831847 0.789618
O O8 0.434021 0.094346 0.814582
O O9 0.231796 0.321647 0.543729
O O10 0.108659 0.049297 0.578497
#
# Coordination Sequence:
#
# PCOD9548846 Si02
#       6
#     8   4   8   8   8   4
#     4  12  25  49  76 110 150 203 256 326 380 464
#     4  12  28  50  74 112 164 196 256 318 400 472
#     4  11  25  51  75 107 155 197 265 316 391 464
#     4  12  26  47  77 114 147 206 256 324 380 468
#     4  11  28  50  75 113 154 209 254 323 400 471
#     4  12  26  46  78 108 150 198 260 318 384 450
#
# _framework density 20.576132000000001
#
# number of rings (size 3 to 8) (size 9 to 14) (size 15 to 20)
#    0.000    0.400    4.000    3.000    8.400    0.800 
#    0.000    0.000    0.000    0.000    0.000    0.000 
#    0.000    0.000    0.000    0.000    0.000    0.000 
#
# Total GULP energy -222852.906742 kJ/mol
# GULP energy per Si atom -5571.322669 kJ/mol
# Density = 2.052930 g / cm^3
# Si number density = 20.576132 Si / 1000 Ang^3
#
#
#
# Elastic Constant Matrix: (Units=GPa)
#
#
# Indices 1 2 3 4 5 6 
#
# 1 116.4595 56.0516 57.0024 0.0000 0.0000 0.0000
# 2 56.0516 116.4597 57.0026 0.0000 0.0000 0.0000
# 3 57.0024 57.0026 188.9608 0.0000 0.0000 0.0000
# 4 0.0000 0.0000 0.0000 53.6356 0.0000 0.0000
# 5 0.0000 0.0000 0.0000 0.0000 53.6356 0.0000
# 6 0.0000 0.0000 0.0000 0.0000 0.0000 21.9960
#
#
#
# Elastic Compliance Matrix: (Units=1/GPa)
#
#
# Indices 1 2 3 4 5 6 
#
# 1 0.011897 -0.004657 -0.002184 0.000000 0.000000 0.000000
# 2 -0.004657 0.011897 -0.002184 0.000000 0.000000 0.000000
# 3 -0.002184 -0.002184 0.006610 0.000000 0.000000 0.000000
# 4 0.000000 0.000000 0.000000 0.018644 0.000000 0.000000
# 5 0.000000 0.000000 0.000000 0.000000 0.018644 0.000000
# 6 0.000000 0.000000 0.000000 0.000000 0.000000 0.045463
#
#
# Mechanical properties :
#
#
# Convention : Reuss Voigt Hill
#
# Bulk Modulus (GPa) = 80.94738 84.66590 82.80664
# Shear Modulus (GPa) = 36.94844 42.64167 39.79506
#
# Velocity S-wave (km/s) = 4.24216 4.55728 4.40254
# Velocity P-wave (km/s) = 7.96369 8.30233 8.13478
#
# Compressibility (1/GPa) = 0.01235370
#
# Stress axis : x y z
#
# Youngs Moduli (GPa) = 84.05421 84.05422 151.29045
#
# Poissons Ratio (x) = 0.39144 0.33043
# Poissons Ratio (y) = 0.39144 0.33043
# Poissons Ratio (z) = 0.18358 0.18358
#
# Static dielectric constant tensor:
#      x y z
#    x 1.826450 0.000000 0.000000 
#    y 0.000000 1.826450 0.000000 
#    z 0.000000 0.000000 1.698460 
# 
# From -- ./inp_files/21733.got.cif
#   From: 2010.05.17/outbox.ucp.g08.bks.cvg/sg91_11_cif.got.tgz:21733.got - 2010.06.11 10:36:11.
