data_PCOD9548127
_publ_section_title
;
Structure prediction by ZEFSAII (Michael W. Deem and Ramdas Pophale) SiO2 
 PCOD9548127
Probable space group: P 41 2 2
;
_chemical_formula_sum "Si O2"
_cell_formula_units_Z 52
_cell_length_a 20.991858
_cell_length_b 20.991858
_cell_length_c 5.496904
_cell_angle_alpha 90.000000
_cell_angle_beta 90.000000
_cell_angle_gamma 90.000000
_cell_volume 2422.255285
_symmetry_space_group_name_H-M "P 41 2 2"
_symmetry_group_IT_number 91
_symmetry_cell_setting 'tetragonal'
loop_
_space_group_symop_operation_xyz
x,y,z
-y,x,1/4+z
-x,-y,1/2+z
y,-x,3/4+z
x,-y,1/2-z
-x,y,-z
y,x,3/4-z
-y,-x,1/4-z
loop_
_atom_site_type_symbol
_atom_site_label
_atom_site_fract_x
_atom_site_fract_y
_atom_site_fract_z
Si Si1 0.118605 0.641340 0.788340
Si Si2 0.714030 0.285971 0.625000
Si Si3 0.338431 0.338431 0.875000
Si Si4 0.515463 0.657399 0.251223
Si Si5 0.058817 0.742097 0.138341
Si Si6 0.740372 0.173612 0.306229
Si Si7 0.362048 0.000000 0.750000
Si Si8 0.534182 0.199615 0.748062
O O1 0.160253 0.674488 0.582644
O O2 0.058332 0.606679 0.652615
O O3 0.093190 0.703954 0.924634
O O4 0.160939 0.598790 0.965411
O O5 0.699985 0.324907 0.376279
O O6 0.713681 0.214807 0.527802
O O7 0.410314 0.326448 0.781814
O O8 0.500000 0.621708 0.500000
O O9 0.472340 0.722587 0.242912
O O10 0.500000 0.623588 0.000000
O O11 0.111187 0.772523 0.319449
O O12 0.031354 0.685118 0.304171
O O13 0.000000 0.776979 0.000000
O O14 0.787340 0.212661 0.125000
O O15 0.500000 0.179064 0.500000
O O16 0.500000 0.182782 0.000000
#
# Coordination Sequence:
#
# PCOD9548127 Si02
#       8
#     8   4   4   8   8   8   4   8
#     4  10  21  38  62  83 122 170 219 280 330 404
#     4  12  26  40  62 100 135 176 208 276 353 418
#     4  12  26  44  68  96 137 170 210 264 343 430
#     4  10  23  42  64  93 125 157 204 248 323 406
#     4   9  19  36  61  81 119 172 234 278 322 398
#     4  11  23  35  56  94 134 171 223 289 347 413
#     4   8  18  36  60  84 106 166 224 276 316 376
#     4  10  24  38  59  87 116 160 198 258 329 394
#
# _framework density 21.467596
#
# number of rings (size 3 to 8) (size 9 to 14) (size 15 to 20)
#    0.000    1.846    0.769    1.846    8.615    3.692 
#    0.000    0.000    5.077    0.923    0.000    0.000 
#    0.000    0.000    0.000    0.000    0.000    0.000 
#
# Total GULP energy -289473.816169 kJ/mol
# GULP energy per Si atom -5566.804157 kJ/mol
# Density = 2.141873 g / cm^3
# Si number density = 21.467596 Si / 1000 Ang^3
#
#
#
# Elastic Constant Matrix: (Units=GPa)
#
#
# Indices 1 2 3 4 5 6 
#
# 1 59.8086 23.9667 35.1297 0.0000 0.0000 0.0000
# 2 23.9667 59.8081 35.1299 0.0000 0.0000 0.0000
# 3 35.1297 35.1299 179.8856 0.0000 0.0000 0.0000
# 4 0.0000 0.0000 0.0000 52.6719 0.0000 0.0000
# 5 0.0000 0.0000 0.0000 0.0000 52.6728 0.0000
# 6 0.0000 0.0000 0.0000 0.0000 0.0000 -19.2661
#
#
#
# Elastic Compliance Matrix: (Units=1/GPa)
#
#
# Indices 1 2 3 4 5 6 
#
# 1 0.021088 -0.006813 -0.002788 0.000000 0.000000 0.000000
# 2 -0.006813 0.021088 -0.002788 0.000000 0.000000 0.000000
# 3 -0.002788 -0.002788 0.006648 0.000000 0.000000 0.000000
# 4 0.000000 0.000000 0.000000 0.018985 0.000000 0.000000
# 5 0.000000 0.000000 0.000000 0.000000 0.018985 0.000000
# 6 0.000000 0.000000 0.000000 0.000000 0.000000 -0.051905
#
#
# Mechanical properties :
#
#
# Convention : Reuss Voigt Hill
#
# Bulk Modulus (GPa) = 41.58613 54.21722 47.90168
# Shear Modulus (GPa) = 73.87587 30.90079 52.38833
#
# Velocity S-wave (km/s) = 5.87260 3.79808 4.94534
# Velocity P-wave (km/s) = 8.08683 6.67413 7.41421
#
# Compressibility (1/GPa) = 0.02404648
#
# Stress axis : x y z
#
# Youngs Moduli (GPa) = 47.42145 47.42098 150.42336
#
# Poissons Ratio (x) = 0.32308 0.41933
# Poissons Ratio (y) = 0.32308 0.41934
# Poissons Ratio (z) = 0.13219 0.13220
#
# Static dielectric constant tensor:
#      x y z
#    x 1.755520 0.000000 0.000000 
#    y 0.000000 1.755520 0.000000 
#    z 0.000000 0.000000 1.759510 
# 
# From -- ./inp_files/14475.got.cif
#   From: 2010.05.17/outbox.cif.g08.bks.cpg/sg91_8_cif.got.tgz:14475.got - 2010.06.03 19:20:03.
