data_PCOD9548199
_publ_section_title
;
Structure prediction by ZEFSAII (Michael W. Deem and Ramdas Pophale) SiO2 
 PCOD9548199
Probable space group: P 41 2 2
;
_chemical_formula_sum "Si O2"
_cell_formula_units_Z 56
_cell_length_a 14.077474
_cell_length_b 14.077474
_cell_length_c 11.151114
_cell_angle_alpha 90.000000
_cell_angle_beta 90.000000
_cell_angle_gamma 90.000000
_cell_volume 2209.875075
_symmetry_space_group_name_H-M "P 41 2 2"
_symmetry_group_IT_number 91
_symmetry_cell_setting 'tetragonal'
loop_
_space_group_symop_operation_xyz
x,y,z
-y,x,1/4+z
-x,-y,1/2+z
y,-x,3/4+z
x,-y,1/2-z
-x,y,-z
y,x,3/4-z
-y,-x,1/4-z
loop_
_atom_site_type_symbol
_atom_site_label
_atom_site_fract_x
_atom_site_fract_y
_atom_site_fract_z
Si Si1 0.313779 0.144048 0.942803
Si Si2 0.886326 0.822278 0.003167
Si Si3 0.832692 0.555568 0.629010
Si Si4 0.894031 0.610706 0.049835
Si Si5 0.757633 0.874989 0.206555
Si Si6 0.545049 0.703284 0.373485
Si Si7 0.368479 0.392864 0.242338
O O1 0.259519 0.080547 0.840781
O O2 0.381945 0.209662 0.861774
O O3 0.376163 0.103273 0.053990
O O4 0.232516 0.208882 0.003258
O O5 0.856314 0.856314 0.875000
O O6 0.851373 0.712717 0.012865
O O7 0.840675 0.887767 0.107635
O O8 0.000000 0.821762 0.000000
O O9 0.862124 0.500000 0.750000
O O10 0.848563 0.478478 0.522282
O O11 0.883445 0.655948 0.608885
O O12 0.723551 0.589845 0.658122
O O13 0.000000 0.607981 0.000000
O O14 0.500000 0.724583 0.500000
O O15 0.611631 0.611631 0.375000
O O16 0.450845 0.672538 0.305353
O O17 0.408149 0.500000 0.250000
O O18 0.351601 0.351601 0.375000
#
# Coordination Sequence:
#
# PCOD9548199 Si02
#       7
#     8   8   8   8   8   8   8
#     4  10  23  39  70 100 144 198 255 326 394 463
#     4  10  22  46  87 117 157 206 259 328 419 503
#     4  11  25  41  65  98 146 194 263 315 379 466
#     4  10  24  49  76 108 148 205 267 323 407 501
#     4  10  21  42  67 110 145 193 257 318 386 470
#     4  12  23  34  54  86 132 186 248 302 368 432
#     4  11  25  39  54  86 139 200 255 317 374 446
#
# _framework density 25.340797999999999
#
# number of rings (size 3 to 8) (size 9 to 14) (size 15 to 20)
#    0.000    1.429    1.429    3.429    6.000    5.143 
#    2.571    0.714   12.571    0.000    0.000    0.000 
#    0.000    0.000    0.000    0.000    0.000    0.000 
#
# Total GULP energy -312313.844016 kJ/mol
# GULP energy per Si atom -5577.032929 kJ/mol
# Density = 2.528312 g / cm^3
# Si number density = 25.340798 Si / 1000 Ang^3
#
#
#
# Elastic Constant Matrix: (Units=GPa)
#
#
# Indices 1 2 3 4 5 6 
#
# 1 80.7020 26.9629 50.7762 0.0000 0.0000 0.0000
# 2 26.9629 80.7020 50.7762 0.0000 0.0000 0.0000
# 3 50.7762 50.7762 161.9594 0.0000 0.0000 0.0000
# 4 0.0000 0.0000 0.0000 20.6074 0.0000 0.0000
# 5 0.0000 0.0000 0.0000 0.0000 20.6074 0.0000
# 6 0.0000 0.0000 0.0000 0.0000 0.0000 25.1087
#
#
#
# Elastic Compliance Matrix: (Units=1/GPa)
#
#
# Indices 1 2 3 4 5 6 
#
# 1 0.015898 -0.002710 -0.004135 0.000000 0.000000 0.000000
# 2 -0.002710 0.015898 -0.004135 0.000000 0.000000 0.000000
# 3 -0.004135 -0.004135 0.008767 0.000000 0.000000 0.000000
# 4 0.000000 0.000000 0.000000 0.048526 0.000000 0.000000
# 5 0.000000 0.000000 0.000000 0.000000 0.048526 0.000000
# 6 0.000000 0.000000 0.000000 0.000000 0.000000 0.039827
#
#
# Mechanical properties :
#
#
# Convention : Reuss Voigt Hill
#
# Bulk Modulus (GPa) = 53.75067 64.48823 59.11945
# Shear Modulus (GPa) = 24.31871 26.25455 25.28663
#
# Velocity S-wave (km/s) = 3.10121 3.22228 3.16232
# Velocity P-wave (km/s) = 5.83785 6.27278 6.05922
#
# Compressibility (1/GPa) = 0.01860442
#
# Stress axis : x y z
#
# Youngs Moduli (GPa) = 62.90031 62.90031 114.06589
#
# Poissons Ratio (x) = 0.17048 0.47161
# Poissons Ratio (y) = 0.17048 0.47161
# Poissons Ratio (z) = 0.26007 0.26007
#
# Static dielectric constant tensor:
#      x y z
#    x 2.029280 0.000000 0.000000 
#    y 0.000000 2.029280 0.000000 
#    z 0.000000 0.000000 2.159540 
# 
# From -- ./inp_files/3905.got.cif
#   From: 2010.05.17/outbox.cif.g08.bks.cpg/sg91_2_cif.got.tgz:3905.got - 2010.06.03 19:20:03.
