data_PCOD9548377
_publ_section_title
;
Structure prediction by ZEFSAII (Michael W. Deem and Ramdas Pophale) SiO2 
 PCOD9548377
Probable space group: P 41 2 2
;
_chemical_formula_sum "Si O2"
_cell_formula_units_Z 24
_cell_length_a 14.010368
_cell_length_b 14.010368
_cell_length_c 4.931313
_cell_angle_alpha 90.000000
_cell_angle_beta 90.000000
_cell_angle_gamma 90.000000
_cell_volume 967.969458
_symmetry_space_group_name_H-M "P 41 2 2"
_symmetry_group_IT_number 91
_symmetry_cell_setting 'tetragonal'
loop_
_space_group_symop_operation_xyz
x,y,z
-y,x,1/4+z
-x,-y,1/2+z
y,-x,3/4+z
x,-y,1/2-z
-x,y,-z
y,x,3/4-z
-y,-x,1/4-z
loop_
_atom_site_type_symbol
_atom_site_label
_atom_site_fract_x
_atom_site_fract_y
_atom_site_fract_z
Si Si1 0.603912 0.396089 0.125000
Si Si2 0.500000 0.258961 0.500000
Si Si3 0.892078 0.622098 0.042103
Si Si4 0.249441 0.107959 0.718475
O O1 0.611162 0.500000 0.250000
O O2 0.587997 0.319154 0.364249
O O3 0.549516 0.190004 0.716160
O O4 0.879928 0.714199 0.839780
O O5 0.885853 0.655418 0.349894
O O6 0.000000 0.585822 0.000000
O O7 0.179080 0.179080 0.875000
O O8 0.211579 0.000000 0.750000
#
# Coordination Sequence:
#
# PCOD9548377 Si02
#       4
#     4   4   8   8
#     4  12  26  50  68 106 152 194 262 324 370 482
#     4  12  28  46  80 102 150 200 256 312 400 436
#     4  10  25  45  71 107 145 188 246 308 369 450
#     4  10  22  43  69 104 145 185 237 297 362 443
#
# _framework density 24.794174000000002
#
# number of rings (size 3 to 8) (size 9 to 14) (size 15 to 20)
#    0.000    1.333    1.667    1.000    7.000    6.667 
#    0.000    5.000    0.000    0.000    0.000    0.000 
#    0.000    0.000    0.000    0.000    0.000    0.000 
#
# Total GULP energy -134231.330870 kJ/mol
# GULP energy per Si atom -5592.972120 kJ/mol
# Density = 2.473774 g / cm^3
# Si number density = 24.794174 Si / 1000 Ang^3
#
#
#
# Elastic Constant Matrix: (Units=GPa)
#
#
# Indices 1 2 3 4 5 6 
#
# 1 198.8682 -23.7994 23.9118 0.0000 0.0000 0.0000
# 2 -23.7994 198.8784 23.9053 0.0000 0.0000 0.0000
# 3 23.9118 23.9053 111.0658 0.0000 0.0000 0.0000
# 4 0.0000 0.0000 0.0000 38.9224 0.0000 0.0000
# 5 0.0000 0.0000 0.0000 0.0000 38.9214 0.0000
# 6 0.0000 0.0000 0.0000 0.0000 0.0000 36.6850
#
#
#
# Elastic Compliance Matrix: (Units=1/GPa)
#
#
# Indices 1 2 3 4 5 6 
#
# 1 0.005280 0.000789 -0.001307 0.000000 0.000000 0.000000
# 2 0.000789 0.005280 -0.001306 0.000000 0.000000 0.000000
# 3 -0.001307 -0.001306 0.009566 0.000000 0.000000 0.000000
# 4 0.000000 0.000000 0.000000 0.025692 0.000000 0.000000
# 5 0.000000 0.000000 0.000000 0.000000 0.025693 0.000000
# 6 0.000000 0.000000 0.000000 0.000000 0.000000 0.027259
#
#
# Mechanical properties :
#
#
# Convention : Reuss Voigt Hill
#
# Bulk Modulus (GPa) = 60.68709 61.87197 61.27953
# Shear Modulus (GPa) = 46.33489 55.22542 50.78015
#
# Velocity S-wave (km/s) = 4.32763 4.72461 4.53047
# Velocity P-wave (km/s) = 7.03567 7.40074 7.22051
#
# Compressibility (1/GPa) = 0.01647797
#
# Stress axis : x y z
#
# Youngs Moduli (GPa) = 189.39526 189.40798 104.53578
#
# Poissons Ratio (x) = -0.14942 0.13658
# Poissons Ratio (y) = -0.14941 0.13654
# Poissons Ratio (z) = 0.24745 0.24740
#
# Static dielectric constant tensor:
#      x y z
#    x 1.973300 0.000000 0.000000 
#    y 0.000000 1.973300 0.000000 
#    z 0.000000 0.000000 1.930390 
# 
# From -- ./inp_files/13779.got.cif
#   From: 2010.05.17/outbox.cif.g08.bks.cpg/sg91_7_cif.got.tgz:13779.got - 2010.06.03 19:20:03.
