data_PCOD9548829
_publ_section_title
;
Structure prediction by ZEFSAII (Michael W. Deem and Ramdas Pophale) SiO2 
 PCOD9548829
Probable space group: P 41 2 2
;
_chemical_formula_sum "Si O2"
_cell_formula_units_Z 56
_cell_length_a 15.000000
_cell_length_b 15.000000
_cell_length_c 12.000000
_cell_angle_alpha 90.000000
_cell_angle_beta 90.000000
_cell_angle_gamma 90.000000
_cell_volume 2700.000000
_symmetry_space_group_name_H-M "P 41 2 2"
_symmetry_group_IT_number 91
_symmetry_cell_setting 'tetragonal'
loop_
_space_group_symop_operation_xyz
x,y,z
-y,x,1/4+z
-x,-y,1/2+z
y,-x,3/4+z
x,-y,1/2-z
-x,y,-z
y,x,3/4-z
-y,-x,1/4-z
loop_
_atom_site_type_symbol
_atom_site_label
_atom_site_fract_x
_atom_site_fract_y
_atom_site_fract_z
Si Si1 0.664618 0.396149 0.245629
Si Si2 0.360573 0.940918 0.521826
Si Si3 0.305967 0.515214 0.376198
Si Si4 0.739669 0.803537 0.600821
Si Si5 0.345020 0.852830 0.925957
Si Si6 0.919126 0.499016 0.427108
Si Si7 0.363553 0.803973 0.183950
O O1 0.686942 0.500000 0.250000
O O2 0.645686 0.354315 0.125000
O O3 0.573411 0.377497 0.310905
O O4 0.741667 0.340918 0.306729
O O5 0.273190 0.892268 0.472684
O O6 0.414349 0.881957 0.613581
O O7 0.429082 0.947806 0.418211
O O8 0.352421 0.040580 0.568839
O O9 0.332553 0.500000 0.250000
O O10 0.213038 0.575224 0.367483
O O11 0.287796 0.419319 0.431835
O O12 0.826014 0.741408 0.603342
O O13 0.717374 0.816206 0.731447
O O14 0.340155 0.826425 0.057318
O O15 0.865353 0.438613 0.511293
O O16 0.000000 0.532377 0.500000
#
# Coordination Sequence:
#
# PCOD9548829 Si02
#       7
#     8   8   8   8   8   8   8
#     4  11  24  39  55  75 110 153 197 249 297 345
#     4  10  21  32  53  84 115 152 197 240 300 369
#     4   9  20  35  56  76 108 153 202 246 292 349
#     4  10  23  36  54  81 116 155 193 247 300 358
#     4  10  19  36  54  82 120 157 190 244 301 363
#     4  10  18  29  52  85 113 149 192 242 297 353
#     4  10  18  33  57  80 112 153 193 240 299 348
#
# _framework density 20.740741
#
# number of rings (size 3 to 8) (size 9 to 14) (size 15 to 20)
#    0.000    2.000    1.429    2.143   10.000    0.571 
#    0.000    2.857    0.000    0.000    0.000    0.000 
#    0.000    9.143    0.000    0.000    0.000    0.000 
#
# Total GULP energy -312144.686547 kJ/mol
# GULP energy per Si atom -5574.012260 kJ/mol
# Density = 2.069353 g / cm^3
# Si number density = 20.740741 Si / 1000 Ang^3
#
#
#
# Elastic Constant Matrix: (Units=GPa)
#
#
# Indices 1 2 3 4 5 6 
#
# 1 42.1170 40.8279 21.2860 0.0000 0.0000 0.0000
# 2 40.8279 42.1167 21.2864 0.0000 0.0000 0.0000
# 3 21.2860 21.2864 42.8723 0.0000 0.0000 0.0000
# 4 0.0000 0.0000 0.0000 7.8992 0.0000 0.0000
# 5 0.0000 0.0000 0.0000 0.0000 7.8977 0.0000
# 6 0.0000 0.0000 0.0000 0.0000 0.0000 74.9978
#
#
#
# Elastic Compliance Matrix: (Units=1/GPa)
#
#
# Indices 1 2 3 4 5 6 
#
# 1 0.395993 -0.379818 -0.008027 0.000000 0.000000 0.000000
# 2 -0.379818 0.396002 -0.008039 0.000000 0.000000 0.000000
# 3 -0.008027 -0.008039 0.031302 0.000000 0.000000 0.000000
# 4 0.000000 0.000000 0.000000 0.126596 0.000000 0.000000
# 5 0.000000 0.000000 0.000000 0.000000 0.126619 0.000000
# 6 0.000000 0.000000 0.000000 0.000000 0.000000 0.013334
#
#
# Mechanical properties :
#
#
# Convention : Reuss Voigt Hill
#
# Bulk Modulus (GPa) = 31.71754 32.65629 32.18691
# Shear Modulus (GPa) = 2.64254 21.07264 11.85759
#
# Velocity S-wave (km/s) = 1.12998 3.19094 2.39363
# Velocity P-wave (km/s) = 4.12650 5.41805 4.81577
#
# Compressibility (1/GPa) = 0.03152830
#
# Stress axis : x y z
#
# Youngs Moduli (GPa) = 2.52530 2.52524 31.94689
#
# Poissons Ratio (x) = 0.95913 0.25644
# Poissons Ratio (y) = 0.95915 0.25683
# Poissons Ratio (z) = 0.02027 0.02030
#
# Static dielectric constant tensor:
#      x y z
#    x 1.857690 0.000000 0.000000 
#    y 0.000000 1.857690 0.000000 
#    z 0.000000 0.000000 1.868320 
# 
# From -- ./inp_files/10840.got.cif
#   From: 2010.05.17/outbox.ucp.g08.bks.cvg/sg91_6_cif.got.tgz:10840.got - 2010.06.11 10:36:11.
