data_PCOD9548734
_publ_section_title
;
Structure prediction by ZEFSAII (Michael W. Deem and Ramdas Pophale) SiO2 
 PCOD9548734
Probable space group: P 41 2 2
;
_chemical_formula_sum "Si O2"
_cell_formula_units_Z 40
_cell_length_a 9.504581
_cell_length_b 9.504581
_cell_length_c 19.320635
_cell_angle_alpha 90.000000
_cell_angle_beta 90.000000
_cell_angle_gamma 90.000000
_cell_volume 1745.369363
_symmetry_space_group_name_H-M "P 41 2 2"
_symmetry_group_IT_number 91
_symmetry_cell_setting 'tetragonal'
loop_
_space_group_symop_operation_xyz
x,y,z
-y,x,1/4+z
-x,-y,1/2+z
y,-x,3/4+z
x,-y,1/2-z
-x,y,-z
y,x,3/4-z
-y,-x,1/4-z
loop_
_atom_site_type_symbol
_atom_site_label
_atom_site_fract_x
_atom_site_fract_y
_atom_site_fract_z
Si Si1 0.395518 0.000000 0.750000
Si Si2 0.164272 0.341921 0.655435
Si Si3 0.344295 0.118846 0.486327
Si Si4 0.022403 0.207612 0.118891
Si Si5 0.408858 0.235166 0.250049
Si Si6 0.500000 0.612111 0.500000
O O1 0.303847 0.939508 0.686486
O O2 0.492287 0.119421 0.715916
O O3 0.191774 0.175779 0.665595
O O4 0.173906 0.368966 0.574530
O O5 0.280664 0.440089 0.692009
O O6 0.009218 0.364721 0.684452
O O7 0.500000 0.176046 0.500000
O O8 0.276376 0.051362 0.556148
O O9 0.260798 0.258685 0.464041
O O10 0.937930 0.062071 0.125000
O O11 0.505426 0.371284 0.236766
#
# Coordination Sequence:
#
# PCOD9548734 Si02
#       6
#     4   8   8   8   8   4
#     4  12  24  44  66 110 136 188 242 302 362 428
#     4  11  24  44  73 106 139 191 240 292 369 435
#     4  11  23  45  67  99 141 187 232 289 364 428
#     4  11  25  42  70 101 141 181 237 301 356 429
#     4  11  26  43  71 106 147 185 240 302 360 435
#     4  12  22  46  72 108 144 186 244 300 354 432
#
# _framework density 22.917788000000002
#
# number of rings (size 3 to 8) (size 9 to 14) (size 15 to 20)
#    0.000    0.800    4.000    3.000    0.000    3.200 
#    0.000    3.000    0.000    0.000    0.000    0.000 
#    0.000    0.000    0.000    0.000    0.000    0.000 
#
# Total GULP energy -223587.421987 kJ/mol
# GULP energy per Si atom -5589.685550 kJ/mol
# Density = 2.286563 g / cm^3
# Si number density = 22.917788 Si / 1000 Ang^3
#
#
#
# Elastic Constant Matrix: (Units=GPa)
#
#
# Indices 1 2 3 4 5 6 
#
# 1 109.6835 27.5915 11.8096 0.0000 0.0000 0.0000
# 2 27.5915 109.6864 11.8100 0.0000 0.0000 0.0000
# 3 11.8096 11.8100 51.4053 0.0000 0.0000 0.0000
# 4 0.0000 0.0000 0.0000 18.6250 0.0000 0.0000
# 5 0.0000 0.0000 0.0000 0.0000 18.6246 0.0000
# 6 0.0000 0.0000 0.0000 0.0000 0.0000 46.1600
#
#
#
# Elastic Compliance Matrix: (Units=1/GPa)
#
#
# Indices 1 2 3 4 5 6 
#
# 1 0.009883 -0.002298 -0.001742 0.000000 0.000000 0.000000
# 2 -0.002298 0.009883 -0.001742 0.000000 0.000000 0.000000
# 3 -0.001742 -0.001742 0.020254 0.000000 0.000000 0.000000
# 4 0.000000 0.000000 0.000000 0.053691 0.000000 0.000000
# 5 0.000000 0.000000 0.000000 0.000000 0.053693 0.000000
# 6 0.000000 0.000000 0.000000 0.000000 0.000000 0.021664
#
#
# Mechanical properties :
#
#
# Convention : Reuss Voigt Hill
#
# Bulk Modulus (GPa) = 35.14582 41.46638 38.30610
# Shear Modulus (GPa) = 26.29947 31.31952 28.80950
#
# Velocity S-wave (km/s) = 3.39124 3.70077 3.54938
# Velocity P-wave (km/s) = 5.54102 6.03272 5.79209
#
# Compressibility (1/GPa) = 0.02845289
#
# Stress axis : x y z
#
# Youngs Moduli (GPa) = 101.18457 101.18713 49.37333
#
# Poissons Ratio (x) = 0.23257 0.08603
# Poissons Ratio (y) = 0.23257 0.08603
# Poissons Ratio (z) = 0.17630 0.17631
#
# Static dielectric constant tensor:
#      x y z
#    x 1.909770 0.000000 0.000000 
#    y 0.000000 1.909770 0.000000 
#    z 0.000000 0.000000 1.817350 
# 
# From -- ./inp_files/12765.got.cif
#   From: 2010.05.17/outbox.cif.g08.bks.cpg/sg91_7_cif.got.tgz:12765.got - 2010.06.03 19:20:03.
