data_PCOD9548352
_publ_section_title
;
Structure prediction by ZEFSAII (Michael W. Deem and Ramdas Pophale) SiO2 
 PCOD9548352
Probable space group: P 41 2 2
;
_chemical_formula_sum "Si O2"
_cell_formula_units_Z 36
_cell_length_a 12.881095
_cell_length_b 12.881095
_cell_length_c 10.729847
_cell_angle_alpha 90.000000
_cell_angle_beta 90.000000
_cell_angle_gamma 90.000000
_cell_volume 1780.324202
_symmetry_space_group_name_H-M "P 41 2 2"
_symmetry_group_IT_number 91
_symmetry_cell_setting 'tetragonal'
loop_
_space_group_symop_operation_xyz
x,y,z
-y,x,1/4+z
-x,-y,1/2+z
y,-x,3/4+z
x,-y,1/2-z
-x,y,-z
y,x,3/4-z
-y,-x,1/4-z
loop_
_atom_site_type_symbol
_atom_site_label
_atom_site_fract_x
_atom_site_fract_y
_atom_site_fract_z
Si Si1 0.457072 0.000000 0.250000
Si Si2 0.606086 0.500000 0.250000
Si Si3 0.063875 0.936126 0.125000
Si Si4 0.286034 0.977672 0.456810
Si Si5 0.589375 0.133451 0.393497
Si Si6 0.266754 0.701368 0.772020
O O1 0.382045 0.990201 0.364694
O O2 0.526723 0.899516 0.229204
O O3 0.540957 0.540957 0.375000
O O4 0.685147 0.411386 0.297107
O O5 0.036547 0.816389 0.156965
O O6 0.035128 0.000000 0.250000
O O7 0.271771 0.854531 0.462181
O O8 0.333601 0.037251 0.575120
O O9 0.500000 0.151749 0.500000
O O10 0.664325 0.226806 0.361543
O O11 0.283601 0.716400 0.625000
#
# Coordination Sequence:
#
# PCOD9548352 Si02
#       6
#     4   4   4   8   8   8
#     4  10  22  42  68  92 132 174 232 286 348 422
#     4  10  26  46  72 104 142 186 238 302 368 438
#     4  12  26  46  70 104 144 186 234 290 362 430
#     4  11  24  44  69  97 141 181 231 295 356 430
#     4  10  23  41  68 101 130 179 233 288 352 430
#     4  11  25  43  69 100 135 184 235 295 360 429
#
# _framework density 20.221036000000002
#
# number of rings (size 3 to 8) (size 9 to 14) (size 15 to 20)
#    0.000    1.333    1.111    2.667   14.000    0.000 
#    4.000    0.000    0.000    0.000    0.000    0.000 
#    0.000    0.000    0.000    0.000    0.000    0.000 
#
# Total GULP energy -200496.459006 kJ/mol
# GULP energy per Si atom -5569.346084 kJ/mol
# Density = 2.017501 g / cm^3
# Si number density = 20.221036 Si / 1000 Ang^3
#
#
#
# Elastic Constant Matrix: (Units=GPa)
#
#
# Indices 1 2 3 4 5 6 
#
# 1 143.5680 94.0462 33.4753 0.0000 0.0000 0.0000
# 2 94.0462 143.5663 33.4751 0.0000 0.0000 0.0000
# 3 33.4753 33.4751 59.3302 0.0000 0.0000 0.0000
# 4 0.0000 0.0000 0.0000 38.6998 0.0000 0.0000
# 5 0.0000 0.0000 0.0000 0.0000 38.6982 0.0000
# 6 0.0000 0.0000 0.0000 0.0000 0.0000 41.2950
#
#
#
# Elastic Compliance Matrix: (Units=1/GPa)
#
#
# Indices 1 2 3 4 5 6 
#
# 1 0.012599 -0.007595 -0.002823 0.000000 0.000000 0.000000
# 2 -0.007595 0.012599 -0.002823 0.000000 0.000000 0.000000
# 3 -0.002823 -0.002823 0.020041 0.000000 0.000000 0.000000
# 4 0.000000 0.000000 0.000000 0.025840 0.000000 0.000000
# 5 0.000000 0.000000 0.000000 0.000000 0.025841 0.000000
# 6 0.000000 0.000000 0.000000 0.000000 0.000000 0.024216
#
#
# Mechanical properties :
#
#
# Convention : Reuss Voigt Hill
#
# Bulk Modulus (GPa) = 53.31791 74.27305 63.79548
# Shear Modulus (GPa) = 32.49496 36.10312 34.29904
#
# Velocity S-wave (km/s) = 4.01307 4.23001 4.12297
# Velocity P-wave (km/s) = 6.92082 7.78894 7.36768
#
# Compressibility (1/GPa) = 0.01875542
#
# Stress axis : x y z
#
# Youngs Moduli (GPa) = 79.37340 79.37244 49.89814
#
# Poissons Ratio (x) = 0.60281 0.14088
# Poissons Ratio (y) = 0.60282 0.14088
# Poissons Ratio (z) = 0.22410 0.22410
#
# Static dielectric constant tensor:
#      x y z
#    x 1.740430 0.000000 0.000000 
#    y 0.000000 1.740440 0.000000 
#    z 0.000000 0.000000 1.679400 
# 
# From -- ./inp_files/3578.got.cif
#   From: 2010.05.17/outbox.cif.g08.bks.cpg/sg91_2_cif.got.tgz:3578.got - 2010.06.03 19:20:03.
