data_PCOD9548995
_publ_section_title
;
Structure prediction by ZEFSAII (Michael W. Deem and Ramdas Pophale) SiO2 
 PCOD9548995
Probable space group: P 41 21 2
;
_chemical_formula_sum "Si O2"
_cell_formula_units_Z 52
_cell_length_a 21.185842
_cell_length_b 21.185842
_cell_length_c 5.152723
_cell_angle_alpha 90.000000
_cell_angle_beta 90.000000
_cell_angle_gamma 90.000000
_cell_volume 2312.747682
_symmetry_space_group_name_H-M "P 41 21 2"
_symmetry_group_IT_number 92
_symmetry_cell_setting 'tetragonal'
loop_
_space_group_symop_operation_xyz
x,y,z
1/2-y,1/2+x,1/4+z
-x,-y,1/2+z
1/2+y,1/2-x,3/4+z
1/2+x,1/2-y,3/4-z
1/2-x,1/2+y,1/4-z
y,x,-z
-y,-x,1/2-z
loop_
_atom_site_type_symbol
_atom_site_label
_atom_site_fract_x
_atom_site_fract_y
_atom_site_fract_z
Si Si1 0.701472 0.701472 0.000000
Si Si2 0.759479 0.759479 0.500000
Si Si3 0.823014 0.469937 0.205678
Si Si4 0.357278 0.464178 0.011005
Si Si5 0.555511 0.715242 0.979421
Si Si6 0.045454 0.578231 0.205627
Si Si7 0.030191 0.030191 0.000000
Si Si8 0.386794 0.816529 0.289788
O O1 0.718597 0.742567 0.247962
O O2 0.711727 0.629309 0.076116
O O3 0.733637 0.829907 0.568695
O O4 0.780622 0.526869 0.106025
O O5 0.892815 0.499048 0.235183
O O6 0.805562 0.438242 0.481962
O O7 0.810829 0.416616 0.993779
O O8 0.302378 0.453579 0.220261
O O9 0.401389 0.517648 0.134162
O O10 0.402482 0.402482 0.000000
O O11 0.334178 0.476432 0.720883
O O12 0.106702 0.624135 0.206999
O O13 0.992026 0.572771 0.424304
O O14 0.985349 0.014651 0.250000
#
# Coordination Sequence:
#
# PCOD9548995 Si02
#       8
#     4   4   8   8   8   8   4   8
#     4  12  24  40  68 102 128 172 225 284 350 407
#     4  12  26  46  71  96 137 186 235 282 330 416
#     4  11  25  43  66  99 139 178 225 282 347 423
#     4  11  20  38  59  88 126 170 221 285 345 409
#     4  12  23  40  62  95 137 174 219 285 355 413
#     4  10  21  40  71 102 136 173 225 287 360 421
#     4  10  20  34  57  84 115 162 222 282 354 413
#     4  11  25  46  68  99 136 184 231 278 341 415
#
# _framework density 22.484079999999999
#
# number of rings (size 3 to 8) (size 9 to 14) (size 15 to 20)
#    0.000    0.923    1.538    6.462    0.000    7.385 
#    0.000    4.615    0.000    0.000    0.000    0.000 
#    0.000    0.000    0.000    0.000    0.000    0.000 
#
# Total GULP energy -290113.484151 kJ/mol
# GULP energy per Si atom -5579.105464 kJ/mol
# Density = 2.243291 g / cm^3
# Si number density = 22.484080 Si / 1000 Ang^3
#
#
#
# Elastic Constant Matrix: (Units=GPa)
#
#
# Indices 1 2 3 4 5 6 
#
# 1 73.6098 27.9918 9.6745 0.0000 0.0000 0.0000
# 2 27.9918 73.6098 9.6745 0.0000 0.0000 0.0000
# 3 9.6745 9.6745 104.0741 0.0000 0.0000 0.0000
# 4 0.0000 0.0000 0.0000 29.4692 0.0000 0.0000
# 5 0.0000 0.0000 0.0000 0.0000 29.4692 0.0000
# 6 0.0000 0.0000 0.0000 0.0000 0.0000 24.4655
#
#
#
# Elastic Compliance Matrix: (Units=1/GPa)
#
#
# Indices 1 2 3 4 5 6 
#
# 1 0.015970 -0.005951 -0.000931 0.000000 0.000000 0.000000
# 2 -0.005951 0.015970 -0.000931 0.000000 0.000000 0.000000
# 3 -0.000931 -0.000931 0.009782 0.000000 0.000000 0.000000
# 4 0.000000 0.000000 0.000000 0.033934 0.000000 0.000000
# 5 0.000000 0.000000 0.000000 0.000000 0.033934 0.000000
# 6 0.000000 0.000000 0.000000 0.000000 0.000000 0.040874
#
#
# Mechanical properties :
#
#
# Convention : Reuss Voigt Hill
#
# Bulk Modulus (GPa) = 38.32071 38.44168 38.38120
# Shear Modulus (GPa) = 28.60584 30.27766 29.44175
#
# Velocity S-wave (km/s) = 3.57076 3.67362 3.62256
# Velocity P-wave (km/s) = 5.83789 5.92692 5.88257
#
# Compressibility (1/GPa) = 0.02609555
#
# Stress axis : x y z
#
# Youngs Moduli (GPa) = 62.61561 62.61561 102.23169
#
# Poissons Ratio (x) = 0.37261 0.09522
# Poissons Ratio (y) = 0.37261 0.09522
# Poissons Ratio (z) = 0.05832 0.05832
#
# Static dielectric constant tensor:
#      x y z
#    x 1.866550 0.000000 0.000000 
#    y 0.000000 1.866550 0.000000 
#    z 0.000000 0.000000 1.834690 
# 
# From -- ./inp_files/752.got.cif
#   From: 2010.05.17/outbox.cif.g08.bks.cpg/sg92_1_cif.got.tgz:752.got - 2010.06.03 19:35:17.
