data_PCOD9548603
_publ_section_title
;
Structure prediction by ZEFSAII (Michael W. Deem and Ramdas Pophale) SiO2 
 PCOD9548603
Probable space group: P 41 2 2
;
_chemical_formula_sum "Si O2"
_cell_formula_units_Z 56
_cell_length_a 11.138324
_cell_length_b 11.138324
_cell_length_c 22.633304
_cell_angle_alpha 90.000000
_cell_angle_beta 90.000000
_cell_angle_gamma 90.000000
_cell_volume 2807.938880
_symmetry_space_group_name_H-M "P 41 2 2"
_symmetry_group_IT_number 91
_symmetry_cell_setting 'tetragonal'
loop_
_space_group_symop_operation_xyz
x,y,z
-y,x,1/4+z
-x,-y,1/2+z
y,-x,3/4+z
x,-y,1/2-z
-x,y,-z
y,x,3/4-z
-y,-x,1/4-z
loop_
_atom_site_type_symbol
_atom_site_label
_atom_site_fract_x
_atom_site_fract_y
_atom_site_fract_z
Si Si1 0.627109 0.300292 0.968198
Si Si2 0.452388 0.636373 0.900290
Si Si3 0.707394 0.432843 0.072853
Si Si4 0.484490 0.901036 0.080407
Si Si5 0.078906 0.116121 0.941140
Si Si6 0.966939 0.404420 0.067423
Si Si7 0.966569 0.673408 0.246925
O O1 0.645182 0.363277 0.906087
O O2 0.500000 0.327369 0.000000
O O3 0.720783 0.351840 0.015080
O O4 0.638899 0.158720 0.966708
O O5 0.568551 0.568551 0.875000
O O6 0.377550 0.545164 0.941304
O O7 0.486901 0.761566 0.928490
O O8 0.642313 0.357688 0.125000
O O9 0.842234 0.463503 0.089819
O O10 0.526409 0.930616 0.146339
O O11 0.579771 0.983348 0.044829
O O12 0.352435 0.937730 0.056303
O O13 0.059742 0.059742 0.875000
O O14 0.055703 0.259340 0.927546
O O15 0.207462 0.067550 0.965862
O O16 0.000000 0.090133 0.000000
O O17 0.000000 0.425664 0.000000
#
# Coordination Sequence:
#
# PCOD9548603 Si02
#       7
#     8   8   8   8   8   8   8
#     4  12  19  35  59  92 120 158 214 270 339 397
#     4  11  25  38  59  90 128 172 212 270 329 415
#     4  11  20  34  60  87 121 158 204 269 334 389
#     4  11  23  39  60  93 132 172 224 262 347 416
#     4  11  23  41  70 101 135 172 231 292 345 402
#     4  11  21  37  61  97 134 167 214 289 341 396
#     4  11  23  39  65  92 129 176 219 278 335 413
#
# _framework density 19.943452000000001
#
# number of rings (size 3 to 8) (size 9 to 14) (size 15 to 20)
#    0.000    0.857    7.143    3.000    2.000    2.286 
#    0.000    0.714    0.000    1.714    0.000    0.000 
#    0.000    0.000    0.000    0.000    0.000    0.000 
#
# Total GULP energy -311768.097545 kJ/mol
# GULP energy per Si atom -5567.287456 kJ/mol
# Density = 1.989806 g / cm^3
# Si number density = 19.943452 Si / 1000 Ang^3
#
#
#
# Elastic Constant Matrix: (Units=GPa)
#
#
# Indices 1 2 3 4 5 6 
#
# 1 83.3525 29.8315 26.2271 0.0000 0.0000 0.0000
# 2 29.8315 83.3525 26.2269 0.0000 0.0000 0.0000
# 3 26.2271 26.2269 106.6929 0.0000 0.0000 0.0000
# 4 0.0000 0.0000 0.0000 26.6886 0.0000 0.0000
# 5 0.0000 0.0000 0.0000 0.0000 26.6886 0.0000
# 6 0.0000 0.0000 0.0000 0.0000 0.0000 12.9598
#
#
#
# Elastic Compliance Matrix: (Units=1/GPa)
#
#
# Indices 1 2 3 4 5 6 
#
# 1 0.014328 -0.004357 -0.002451 0.000000 0.000000 0.000000
# 2 -0.004357 0.014328 -0.002451 0.000000 0.000000 0.000000
# 3 -0.002451 -0.002451 0.010578 0.000000 0.000000 0.000000
# 4 0.000000 0.000000 0.000000 0.037469 0.000000 0.000000
# 5 0.000000 0.000000 0.000000 0.000000 0.037469 0.000000
# 6 0.000000 0.000000 0.000000 0.000000 0.000000 0.077162
#
#
# Mechanical properties :
#
#
# Convention : Reuss Voigt Hill
#
# Bulk Modulus (GPa) = 48.27271 48.66319 48.46795
# Shear Modulus (GPa) = 23.06742 26.00822 24.53782
#
# Velocity S-wave (km/s) = 3.40463 3.61515 3.51147
# Velocity P-wave (km/s) = 6.30180 6.47142 6.38717
#
# Compressibility (1/GPa) = 0.02071564
#
# Stress axis : x y z
#
# Youngs Moduli (GPa) = 69.79489 69.79499 94.53828
#
# Poissons Ratio (x) = 0.30407 0.23172
# Poissons Ratio (y) = 0.30407 0.23172
# Poissons Ratio (z) = 0.17107 0.17107
#
# Static dielectric constant tensor:
#      x y z
#    x 1.751060 0.000000 0.000000 
#    y 0.000000 1.751060 0.000000 
#    z 0.000000 0.000000 1.682900 
# 
# From -- ./inp_files/17636.got.cif
#   From: 2010.05.17/outbox.cif.g08.bks.cpg/sg91_9_cif.got.tgz:17636.got - 2010.06.03 19:20:03.
