data_PCOD9548416
_publ_section_title
;
Structure prediction by ZEFSAII (Michael W. Deem and Ramdas Pophale) SiO2 
 PCOD9548416
Probable space group: P 41 2 2
;
_chemical_formula_sum "Si O2"
_cell_formula_units_Z 28
_cell_length_a 7.247655
_cell_length_b 7.247655
_cell_length_c 19.295676
_cell_angle_alpha 90.000000
_cell_angle_beta 90.000000
_cell_angle_gamma 90.000000
_cell_volume 1013.572975
_symmetry_space_group_name_H-M "P 41 2 2"
_symmetry_group_IT_number 91
_symmetry_cell_setting 'tetragonal'
loop_
_space_group_symop_operation_xyz
x,y,z
-y,x,1/4+z
-x,-y,1/2+z
y,-x,3/4+z
x,-y,1/2-z
-x,y,-z
y,x,3/4-z
-y,-x,1/4-z
loop_
_atom_site_type_symbol
_atom_site_label
_atom_site_fract_x
_atom_site_fract_y
_atom_site_fract_z
Si Si1 0.290160 0.128874 0.480358
Si Si2 0.475634 0.775296 0.765086
Si Si3 0.718685 0.281316 0.125000
Si Si4 0.188665 0.855278 0.869278
O O1 0.500000 0.066925 0.500000
O O2 0.300624 0.335572 0.454220
O O3 0.173237 0.180415 0.549983
O O4 0.183283 0.989738 0.429169
O O5 0.395541 0.682718 0.694805
O O6 0.332672 0.738649 0.826605
O O7 0.474898 0.000000 0.750000
O O8 0.942878 0.283281 0.126635
#
# Coordination Sequence:
#
# PCOD9548416 Si02
#       4
#     8   8   4   8
#     4  12  30  49  82 125 172 231 287 365 434 524
#     4  10  25  47  78 117 162 221 289 352 437 515
#     4  10  22  48  78 112 156 226 270 358 426 506
#     4  11  26  50  78 118 166 222 292 346 436 510
#
# _framework density 27.625048
#
# number of rings (size 3 to 8) (size 9 to 14) (size 15 to 20)
#    0.000    1.143    2.857    0.000   12.000    4.571 
#    0.000    0.000    0.000    0.000    0.000    0.000 
#    0.000    0.000    0.000    0.000    0.000    0.000 
#
# Total GULP energy -156251.823788 kJ/mol
# GULP energy per Si atom -5580.422278 kJ/mol
# Density = 2.756217 g / cm^3
# Si number density = 27.625048 Si / 1000 Ang^3
#
#
#
# Elastic Constant Matrix: (Units=GPa)
#
#
# Indices 1 2 3 4 5 6 
#
# 1 130.1169 20.9560 72.3984 0.0000 0.0000 0.0000
# 2 20.9560 130.1161 72.3984 0.0000 0.0000 0.0000
# 3 72.3984 72.3984 245.2855 0.0000 0.0000 0.0000
# 4 0.0000 0.0000 0.0000 35.3169 0.0000 0.0000
# 5 0.0000 0.0000 0.0000 0.0000 35.3171 0.0000
# 6 0.0000 0.0000 0.0000 0.0000 0.0000 25.9267
#
#
#
# Elastic Compliance Matrix: (Units=1/GPa)
#
#
# Indices 1 2 3 4 5 6 
#
# 1 0.009196 0.000035 -0.002725 0.000000 0.000000 0.000000
# 2 0.000035 0.009196 -0.002725 0.000000 0.000000 0.000000
# 3 -0.002725 -0.002725 0.005685 0.000000 0.000000 0.000000
# 4 0.000000 0.000000 0.000000 0.028315 0.000000 0.000000
# 5 0.000000 0.000000 0.000000 0.000000 0.028315 0.000000
# 6 0.000000 0.000000 0.000000 0.000000 0.000000 0.038570
#
#
# Mechanical properties :
#
#
# Convention : Reuss Voigt Hill
#
# Bulk Modulus (GPa) = 75.48031 93.00268 84.24150
# Shear Modulus (GPa) = 37.16883 41.96319 39.56601
#
# Velocity S-wave (km/s) = 3.67205 3.90170 3.78862
# Velocity P-wave (km/s) = 6.73506 7.35097 7.04975
#
# Compressibility (1/GPa) = 0.01324849
#
# Stress axis : x y z
#
# Youngs Moduli (GPa) = 108.74627 108.74541 175.89456
#
# Poissons Ratio (x) = -0.00380 0.47923
# Poissons Ratio (y) = -0.00380 0.47923
# Poissons Ratio (z) = 0.29628 0.29628
#
# Static dielectric constant tensor:
#      x y z
#    x 2.263180 0.000000 0.000000 
#    y 0.000000 2.263180 0.000000 
#    z 0.000000 0.000000 2.767220 
# 
# From -- ./inp_files/21328.got.cif
#   From: 2010.05.17/outbox.cif.g08.bks.cpg/sg91_11_cif.got.tgz:21328.got - 2010.06.03 19:20:03.
