data_PCOD9548523
_publ_section_title
;
Structure prediction by ZEFSAII (Michael W. Deem and Ramdas Pophale) SiO2 
 PCOD9548523
Probable space group: P 41 2 2
;
_chemical_formula_sum "Si O2"
_cell_formula_units_Z 36
_cell_length_a 12.508818
_cell_length_b 12.508818
_cell_length_c 10.331810
_cell_angle_alpha 90.000000
_cell_angle_beta 90.000000
_cell_angle_gamma 90.000000
_cell_volume 1616.623763
_symmetry_space_group_name_H-M "P 41 2 2"
_symmetry_group_IT_number 91
_symmetry_cell_setting 'tetragonal'
loop_
_space_group_symop_operation_xyz
x,y,z
-y,x,1/4+z
-x,-y,1/2+z
y,-x,3/4+z
x,-y,1/2-z
-x,y,-z
y,x,3/4-z
-y,-x,1/4-z
loop_
_atom_site_type_symbol
_atom_site_label
_atom_site_fract_x
_atom_site_fract_y
_atom_site_fract_z
Si Si1 0.286191 0.486954 0.025858
Si Si2 0.500000 0.357487 0.000000
Si Si3 0.435849 0.937834 0.871136
Si Si4 0.111176 0.111176 0.875000
Si Si5 0.268696 0.731305 0.125000
Si Si6 0.896594 0.790588 0.646539
O O1 0.402480 0.433137 0.050901
O O2 0.188302 0.426667 0.090907
O O3 0.266099 0.608068 0.074631
O O4 0.283666 0.474673 0.871454
O O5 0.315124 0.970797 0.892456
O O6 0.484318 0.000000 0.750000
O O7 0.500000 0.955061 0.000000
O O8 0.181612 0.142130 0.748764
O O9 0.988156 0.122699 0.829971
O O10 0.192194 0.767929 0.244054
#
# Coordination Sequence:
#
# PCOD9548523 Si02
#       6
#     8   4   8   4   4   8
#     4  11  24  43  71 108 154 192 250 303 383 457
#     4  10  24  44  74 112 150 208 248 310 370 466
#     4  12  26  47  72 105 149 193 245 315 381 455
#     4  10  24  49  72  99 140 186 256 306 380 453
#     4  12  24  43  76 109 150 188 248 316 386 447
#     4  11  25  46  74 106 138 195 243 320 375 456
#
# _framework density 22.268632
#
# number of rings (size 3 to 8) (size 9 to 14) (size 15 to 20)
#    0.000    0.889    4.444    2.667    1.556    9.778 
#    0.000    0.000    0.000    0.000    0.000    0.000 
#    0.000    0.000    0.000    0.000    0.000    0.000 
#
# Total GULP energy -200729.633587 kJ/mol
# GULP energy per Si atom -5575.823155 kJ/mol
# Density = 2.221795 g / cm^3
# Si number density = 22.268632 Si / 1000 Ang^3
#
#
#
# Elastic Constant Matrix: (Units=GPa)
#
#
# Indices 1 2 3 4 5 6 
#
# 1 70.7069 58.5863 47.6608 0.0000 0.0000 0.0000
# 2 58.5863 70.7057 47.6605 0.0000 0.0000 0.0000
# 3 47.6608 47.6605 176.0418 0.0000 0.0000 0.0000
# 4 0.0000 0.0000 0.0000 38.3364 0.0000 0.0000
# 5 0.0000 0.0000 0.0000 0.0000 38.3365 0.0000
# 6 0.0000 0.0000 0.0000 0.0000 0.0000 25.7652
#
#
#
# Elastic Compliance Matrix: (Units=1/GPa)
#
#
# Indices 1 2 3 4 5 6 
#
# 1 0.046085 -0.036422 -0.002616 0.000000 0.000000 0.000000
# 2 -0.036422 0.046086 -0.002616 0.000000 0.000000 0.000000
# 3 -0.002616 -0.002616 0.007097 0.000000 0.000000 0.000000
# 4 0.000000 0.000000 0.000000 0.026085 0.000000 0.000000
# 5 0.000000 0.000000 0.000000 0.000000 0.026085 0.000000
# 6 0.000000 0.000000 0.000000 0.000000 0.000000 0.038812
#
#
# Mechanical properties :
#
#
# Convention : Reuss Voigt Hill
#
# Bulk Modulus (GPa) = 62.66159 69.47441 66.06800
# Shear Modulus (GPa) = 17.92894 31.39075 24.65984
#
# Velocity S-wave (km/s) = 2.84054 3.75859 3.33134
# Velocity P-wave (km/s) = 6.24166 7.07828 6.67309
#
# Compressibility (1/GPa) = 0.01595874
#
# Stress axis : x y z
#
# Youngs Moduli (GPa) = 21.69897 21.69857 140.90379
#
# Poissons Ratio (x) = 0.79031 0.36862
# Poissons Ratio (y) = 0.79033 0.36863
# Poissons Ratio (z) = 0.05677 0.05677
#
# Static dielectric constant tensor:
#      x y z
#    x 1.917090 0.000000 0.000000 
#    y 0.000000 1.917090 0.000000 
#    z 0.000000 0.000000 1.923790 
# 
# From -- ./inp_files/3588.got.cif
#   From: 2010.05.17/outbox.cif.g08.bks.cpg/sg91_2_cif.got.tgz:3588.got - 2010.06.03 19:20:03.
