data_PCOD9548604
_publ_section_title
;
Structure prediction by ZEFSAII (Michael W. Deem and Ramdas Pophale) SiO2 
 PCOD9548604
Probable space group: P 41 2 2
;
_chemical_formula_sum "Si O2"
_cell_formula_units_Z 48
_cell_length_a 14.550553
_cell_length_b 14.550553
_cell_length_c 11.347112
_cell_angle_alpha 90.000000
_cell_angle_beta 90.000000
_cell_angle_gamma 90.000000
_cell_volume 2402.394583
_symmetry_space_group_name_H-M "P 41 2 2"
_symmetry_group_IT_number 91
_symmetry_cell_setting 'tetragonal'
loop_
_space_group_symop_operation_xyz
x,y,z
-y,x,1/4+z
-x,-y,1/2+z
y,-x,3/4+z
x,-y,1/2-z
-x,y,-z
y,x,3/4-z
-y,-x,1/4-z
loop_
_atom_site_type_symbol
_atom_site_label
_atom_site_fract_x
_atom_site_fract_y
_atom_site_fract_z
Si Si1 0.332040 0.218554 0.781953
Si Si2 0.954774 0.363514 0.173023
Si Si3 0.094517 0.361557 0.553001
Si Si4 0.855100 0.470127 0.882839
Si Si5 0.846652 0.020286 0.049828
Si Si6 0.166257 0.822933 0.892900
O O1 0.293541 0.293541 0.875000
O O2 0.383768 0.138891 0.855278
O O3 0.408328 0.229424 0.680727
O O4 0.244415 0.181922 0.707865
O O5 0.931908 0.383346 0.310549
O O6 0.962079 0.254314 0.145807
O O7 0.047748 0.413007 0.130967
O O8 0.125607 0.444863 0.470334
O O9 0.164971 0.277223 0.551371
O O10 0.000000 0.324886 0.500000
O O11 0.835218 0.500000 0.750000
O O12 0.929689 0.070311 0.125000
O O13 0.837027 0.911984 0.026508
O O14 0.841631 0.073345 0.928734
#
# Coordination Sequence:
#
# PCOD9548604 Si02
#       6
#     8   8   8   8   8   8
#     4  12  22  40  66  92 121 175 228 281 333 394
#     4  11  21  37  63  92 128 173 233 290 327 390
#     4  11  23  41  57  92 129 171 228 281 351 399
#     4  12  26  40  65  94 130 179 227 285 358 409
#     4  11  20  35  58  85 127 183 241 265 307 369
#     4  11  23  38  59  89 132 178 229 285 316 382
#
# _framework density 19.980065
#
# number of rings (size 3 to 8) (size 9 to 14) (size 15 to 20)
#    0.000    0.667    8.333    2.000    0.000    1.333 
#    0.000    6.667    0.000    0.000    0.000    0.000 
#    0.000    5.333    0.333    0.000    0.000    0.000 
#
# Total GULP energy -267325.352852 kJ/mol
# GULP energy per Si atom -5569.278184 kJ/mol
# Density = 1.993459 g / cm^3
# Si number density = 19.980065 Si / 1000 Ang^3
#
#
#
# Elastic Constant Matrix: (Units=GPa)
#
#
# Indices 1 2 3 4 5 6 
#
# 1 84.1514 14.5853 41.1728 0.0000 0.0000 0.0000
# 2 14.5853 84.1516 41.1730 0.0000 0.0000 0.0000
# 3 41.1728 41.1730 96.8622 0.0000 0.0000 0.0000
# 4 0.0000 0.0000 0.0000 27.0940 0.0000 0.0000
# 5 0.0000 0.0000 0.0000 0.0000 27.0939 0.0000
# 6 0.0000 0.0000 0.0000 0.0000 0.0000 16.0293
#
#
#
# Elastic Compliance Matrix: (Units=1/GPa)
#
#
# Indices 1 2 3 4 5 6 
#
# 1 0.015032 0.000658 -0.006669 0.000000 0.000000 0.000000
# 2 0.000658 0.015032 -0.006669 0.000000 0.000000 0.000000
# 3 -0.006669 -0.006669 0.015994 0.000000 0.000000 0.000000
# 4 0.000000 0.000000 0.000000 0.036909 0.000000 0.000000
# 5 0.000000 0.000000 0.000000 0.000000 0.036909 0.000000
# 6 0.000000 0.000000 0.000000 0.000000 0.000000 0.062386
#
#
# Mechanical properties :
#
#
# Convention : Reuss Voigt Hill
#
# Bulk Modulus (GPa) = 48.31702 51.00302 49.66002
# Shear Modulus (GPa) = 23.30756 25.25905 24.28331
#
# Velocity S-wave (km/s) = 3.41917 3.55943 3.49001
# Velocity P-wave (km/s) = 6.31053 6.51729 6.41474
#
# Compressibility (1/GPa) = 0.02069664
#
# Stress axis : x y z
#
# Youngs Moduli (GPa) = 66.52269 66.52270 62.52427
#
# Poissons Ratio (x) = -0.04375 0.41700
# Poissons Ratio (y) = -0.04375 0.41700
# Poissons Ratio (z) = 0.44366 0.44366
#
# Static dielectric constant tensor:
#      x y z
#    x 1.831140 0.000000 0.000000 
#    y 0.000000 1.831140 0.000000 
#    z 0.000000 0.000000 1.780320 
# 
# From -- ./inp_files/10779.got.cif
#   From: 2010.05.17/outbox.cif.g08.bks.cpg/sg91_6_cif.got.tgz:10779.got - 2010.06.03 19:20:03.
