data_PCOD9548881
_publ_section_title
;
Structure prediction by ZEFSAII (Michael W. Deem and Ramdas Pophale) SiO2 
 PCOD9548881
Probable space group: P 41 21 2
;
_chemical_formula_sum "Si O2"
_cell_formula_units_Z 52
_cell_length_a 19.463904
_cell_length_b 19.463904
_cell_length_c 6.081651
_cell_angle_alpha 90.000000
_cell_angle_beta 90.000000
_cell_angle_gamma 90.000000
_cell_volume 2303.994309
_symmetry_space_group_name_H-M "P 41 21 2"
_symmetry_group_IT_number 92
_symmetry_cell_setting 'tetragonal'
loop_
_space_group_symop_operation_xyz
x,y,z
1/2-y,1/2+x,1/4+z
-x,-y,1/2+z
1/2+y,1/2-x,3/4+z
1/2+x,1/2-y,3/4-z
1/2-x,1/2+y,1/4-z
y,x,-z
-y,-x,1/2-z
loop_
_atom_site_type_symbol
_atom_site_label
_atom_site_fract_x
_atom_site_fract_y
_atom_site_fract_z
Si Si1 0.244061 0.755940 0.750000
Si Si2 0.435887 0.585245 0.510453
Si Si3 0.943234 0.423418 0.011609
Si Si4 0.222626 0.127173 0.752832
Si Si5 0.717582 0.089229 0.328223
Si Si6 0.823660 0.474353 0.256498
Si Si7 0.522558 0.272993 0.863198
O O1 0.269668 0.707313 0.549382
O O2 0.257861 0.837116 0.747803
O O3 0.451093 0.548908 0.750000
O O4 0.355205 0.602696 0.534010
O O5 0.476549 0.657281 0.501636
O O6 0.441400 0.558600 0.250000
O O7 0.909366 0.347896 0.006458
O O8 0.902250 0.455403 0.221340
O O9 0.023902 0.424367 0.067661
O O10 0.275656 0.085825 0.597453
O O11 0.235111 0.095633 0.991995
O O12 0.691159 0.043267 0.127651
O O13 0.774285 0.040879 0.443918
O O14 0.794935 0.484086 0.495247
#
# Coordination Sequence:
#
# PCOD9548881 Si02
#       7
#     4   8   8   8   8   8   8
#     4  12  20  42  62  92 140 178 236 290 354 448
#     4  10  18  32  59  97 125 154 208 277 351 403
#     4  10  22  38  56  84 121 178 231 275 326 407
#     4  10  19  35  63  88 126 161 214 290 338 408
#     4  10  24  39  59  86 131 180 222 286 353 425
#     4  10  19  41  58  86 128 169 222 282 338 410
#     4  10  21  37  60  88 126 166 217 285 359 414
#
# _framework density 22.569500000000001
#
# number of rings (size 3 to 8) (size 9 to 14) (size 15 to 20)
#    0.000    1.846    3.846    0.000    2.154    0.000 
#    5.538    2.308    0.000    0.000    0.000    0.000 
#  138.462    0.000    0.000    0.000    0.000    0.000 
#
# Total GULP energy -289797.287628 kJ/mol
# GULP energy per Si atom -5573.024762 kJ/mol
# Density = 2.251813 g / cm^3
# Si number density = 22.569500 Si / 1000 Ang^3
#
#
#
# Elastic Constant Matrix: (Units=GPa)
#
#
# Indices 1 2 3 4 5 6 
#
# 1 83.3843 87.2804 28.8859 0.0000 0.0000 0.0000
# 2 87.2804 83.3886 28.8876 0.0000 0.0000 0.0000
# 3 28.8859 28.8876 102.0136 0.0000 0.0000 0.0000
# 4 0.0000 0.0000 0.0000 -16.6126 0.0000 0.0000
# 5 0.0000 0.0000 0.0000 0.0000 -16.6127 0.0000
# 6 0.0000 0.0000 0.0000 0.0000 0.0000 30.0555
#
#
#
# Elastic Compliance Matrix: (Units=1/GPa)
#
#
# Indices 1 2 3 4 5 6 
#
# 1 -0.125168 0.131645 -0.001836 0.000000 0.000000 0.000000
# 2 0.131645 -0.125162 -0.001834 0.000000 0.000000 0.000000
# 3 -0.001836 -0.001834 0.010842 0.000000 0.000000 0.000000
# 4 0.000000 0.000000 0.000000 -0.060195 0.000000 0.000000
# 5 0.000000 0.000000 0.000000 0.000000 -0.060195 0.000000
# 6 0.000000 0.000000 0.000000 0.000000 0.000000 0.033272
#
#
# Mechanical properties :
#
#
# Convention : Reuss Voigt Hill
#
# Bulk Modulus (GPa) = 60.74331 62.09937 61.42134
# Shear Modulus (GPa) = -8.66447 7.61489 -0.52479
#
# Velocity S-wave (km/s) = -1.96147 1.83883 -0.48273
# Velocity P-wave (km/s) = 4.67360 5.66417 5.19256
#
# Compressibility (1/GPa) = 0.01646272
#
# Stress axis : x y z
#
# Youngs Moduli (GPa) = -7.98929 -7.98964 92.23494
#
# Poissons Ratio (x) = 1.05180 0.16939
# Poissons Ratio (y) = 1.05175 0.16913
# Poissons Ratio (z) = -0.01467 -0.01465
#
# Static dielectric constant tensor:
#      x y z
#    x 1.870540 0.000000 0.000000 
#    y 0.000000 1.870540 0.000000 
#    z 0.000000 0.000000 1.949230 
# 
# From -- ./inp_files/709.got.cif
#   From: 2010.05.17/outbox.cif.g08.bks.cpg/sg92_1_cif.got.tgz:709.got - 2010.06.03 19:35:17.
