data_PCOD9548052
_publ_section_title
;
Structure prediction by ZEFSAII (Michael W. Deem and Ramdas Pophale) SiO2 
 PCOD9548052
Probable space group: P 41 2 2
;
_chemical_formula_sum "Si O2"
_cell_formula_units_Z 36
_cell_length_a 13.322852
_cell_length_b 13.322852
_cell_length_c 10.233125
_cell_angle_alpha 90.000000
_cell_angle_beta 90.000000
_cell_angle_gamma 90.000000
_cell_volume 1816.363165
_symmetry_space_group_name_H-M "P 41 2 2"
_symmetry_group_IT_number 91
_symmetry_cell_setting 'tetragonal'
loop_
_space_group_symop_operation_xyz
x,y,z
-y,x,1/4+z
-x,-y,1/2+z
y,-x,3/4+z
x,-y,1/2-z
-x,y,-z
y,x,3/4-z
-y,-x,1/4-z
loop_
_atom_site_type_symbol
_atom_site_label
_atom_site_fract_x
_atom_site_fract_y
_atom_site_fract_z
Si Si1 0.170604 0.756225 0.486719
Si Si2 0.338668 0.503278 0.395207
Si Si3 0.920028 0.000000 0.250000
Si Si4 0.901895 0.500000 0.250000
Si Si5 0.000000 0.589401 0.500000
Si Si6 0.630931 0.268049 0.879367
O O1 0.230559 0.769442 0.625000
O O2 0.096410 0.849935 0.481511
O O3 0.097937 0.660052 0.480658
O O4 0.250918 0.754274 0.369991
O O5 0.290037 0.500000 0.250000
O O6 0.440882 0.440882 0.375000
O O7 0.365077 0.617224 0.434952
O O8 0.277323 0.440343 0.502433
O O9 0.986614 0.986614 0.375000
O O10 0.822978 0.587498 0.213865
O O11 0.971399 0.525722 0.373007
#
# Coordination Sequence:
#
# PCOD9548052 Si02
#       6
#     8   8   4   4   4   8
#     4  10  20  42  71  93 127 179 233 285 347 418
#     4   9  21  39  59  99 149 175 221 278 324 394
#     4   9  20  40  71  96 124 160 223 302 355 400
#     4  12  26  42  68  96 138 178 222 288 338 428
#     4  11  24  46  65  98 140 180 235 290 353 410
#     4  11  22  39  68  99 130 186 229 266 344 411
#
# _framework density 19.819824000000001
#
# number of rings (size 3 to 8) (size 9 to 14) (size 15 to 20)
#    0.000    1.778    2.222    1.333    4.667    0.000 
#   20.000    4.444    0.000    0.000    0.000    0.000 
#    0.000    0.000    0.000    0.000    0.000    0.000 
#
# Total GULP energy -200695.465517 kJ/mol
# GULP energy per Si atom -5574.874042 kJ/mol
# Density = 1.977471 g / cm^3
# Si number density = 19.819824 Si / 1000 Ang^3
#
#
#
# Elastic Constant Matrix: (Units=GPa)
#
#
# Indices 1 2 3 4 5 6 
#
# 1 96.6667 31.7502 62.7742 0.0000 0.0000 0.0000
# 2 31.7502 96.6668 62.7739 0.0000 0.0000 0.0000
# 3 62.7742 62.7739 137.2691 0.0000 0.0000 0.0000
# 4 0.0000 0.0000 0.0000 23.9831 0.0000 0.0000
# 5 0.0000 0.0000 0.0000 0.0000 23.9832 0.0000
# 6 0.0000 0.0000 0.0000 0.0000 0.0000 -29.6468
#
#
#
# Elastic Compliance Matrix: (Units=1/GPa)
#
#
# Indices 1 2 3 4 5 6 
#
# 1 0.014744 -0.000660 -0.006441 0.000000 0.000000 0.000000
# 2 -0.000660 0.014744 -0.006441 0.000000 0.000000 0.000000
# 3 -0.006441 -0.006441 0.013176 0.000000 0.000000 0.000000
# 4 0.000000 0.000000 0.000000 0.041696 0.000000 0.000000
# 5 0.000000 0.000000 0.000000 0.000000 0.041696 0.000000
# 6 0.000000 0.000000 0.000000 0.000000 0.000000 -0.033730
#
#
# Mechanical properties :
#
#
# Convention : Reuss Voigt Hill
#
# Bulk Modulus (GPa) = 64.18140 71.68880 67.93510
# Shear Modulus (GPa) = 40.12773 15.21753 27.67263
#
# Velocity S-wave (km/s) = 4.50447 2.77391 3.74064
# Velocity P-wave (km/s) = 7.71404 6.81970 7.28061
#
# Compressibility (1/GPa) = 0.01558084
#
# Stress axis : x y z
#
# Youngs Moduli (GPa) = 67.82335 67.82371 75.89752
#
# Poissons Ratio (x) = 0.04478 0.48883
# Poissons Ratio (y) = 0.04478 0.48883
# Poissons Ratio (z) = 0.43683 0.43683
#
# Static dielectric constant tensor:
#      x y z
#    x 1.705850 0.000000 0.000000 
#    y 0.000000 1.705850 0.000000 
#    z 0.000000 0.000000 1.751380 
# 
# From -- ./inp_files/3594.got.cif
#   From: 2010.05.17/outbox.cif.g08.bks.cpg/sg91_2_cif.got.tgz:3594.got - 2010.06.03 19:20:03.
