data_PCOD9548923
_publ_section_title
;
Structure prediction by ZEFSAII (Michael W. Deem and Ramdas Pophale) SiO2 
 PCOD9548923
Probable space group: P 41 21 2
;
_chemical_formula_sum "Si O2"
_cell_formula_units_Z 56
_cell_length_a 12.461508
_cell_length_b 12.461508
_cell_length_c 17.792210
_cell_angle_alpha 90.000000
_cell_angle_beta 90.000000
_cell_angle_gamma 90.000000
_cell_volume 2762.937730
_symmetry_space_group_name_H-M "P 41 21 2"
_symmetry_group_IT_number 92
_symmetry_cell_setting 'tetragonal'
loop_
_space_group_symop_operation_xyz
x,y,z
1/2-y,1/2+x,1/4+z
-x,-y,1/2+z
1/2+y,1/2-x,3/4+z
1/2+x,1/2-y,3/4-z
1/2-x,1/2+y,1/4-z
y,x,-z
-y,-x,1/2-z
loop_
_atom_site_type_symbol
_atom_site_label
_atom_site_fract_x
_atom_site_fract_y
_atom_site_fract_z
Si Si1 0.992109 0.168471 0.290119
Si Si2 0.840230 0.261682 0.396743
Si Si3 0.475487 0.953873 0.636161
Si Si4 0.779873 0.855665 0.727120
Si Si5 0.694330 0.082437 0.343842
Si Si6 0.714919 0.383079 0.820299
Si Si7 0.554789 0.861576 0.495821
O O1 0.117248 0.153344 0.281488
O O2 0.942852 0.190917 0.371695
O O3 0.961033 0.270281 0.237438
O O4 0.929527 0.070474 0.250000
O O5 0.809459 0.279495 0.483703
O O6 0.742556 0.200000 0.356364
O O7 0.868181 0.379828 0.365576
O O8 0.428493 0.068059 0.606936
O O9 0.538441 0.990025 0.709450
O O10 0.563898 0.899973 0.581459
O O11 0.818868 0.822925 0.644313
O O12 0.737309 0.976345 0.732105
O O13 0.758149 0.004244 0.402371
O O14 0.635291 0.364710 0.750000
O O15 0.656332 0.168749 0.708066
#
# Coordination Sequence:
#
# PCOD9548923 Si02
#       7
#     8   8   8   8   8   8   8
#     4   9  18  34  53  76 108 146 185 226 283 341
#     4  10  19  32  54  80 109 144 185 231 280 333
#     4  10  19  33  53  79 109 139 182 230 280 335
#     4  10  21  35  54  83 113 146 191 238 284 342
#     4   9  19  34  57  82 108 147 188 234 281 338
#     4  10  21  37  58  82 112 151 192 236 291 346
#     4  10  21  35  55  82 111 145 185 235 283 339
#
# _framework density 20.268281999999999
#
# number of rings (size 3 to 8) (size 9 to 14) (size 15 to 20)
#    0.000    2.286    0.000    2.571    0.000    7.429 
#    0.000    0.000    0.000   21.429    0.000    0.000 
#    0.000    0.000    0.000    0.000    0.000    0.000 
#
# Total GULP energy -312108.486856 kJ/mol
# GULP energy per Si atom -5573.365837 kJ/mol
# Density = 2.022215 g / cm^3
# Si number density = 20.268282 Si / 1000 Ang^3
#
#
#
# Elastic Constant Matrix: (Units=GPa)
#
#
# Indices 1 2 3 4 5 6 
#
# 1 48.0241 29.1341 9.0848 0.0000 0.0000 0.0000
# 2 29.1341 48.0231 9.0842 0.0000 0.0000 0.0000
# 3 9.0848 9.0842 58.5836 0.0000 0.0000 0.0000
# 4 0.0000 0.0000 0.0000 21.0243 0.0000 0.0000
# 5 0.0000 0.0000 0.0000 0.0000 21.0237 0.0000
# 6 0.0000 0.0000 0.0000 0.0000 0.0000 27.2515
#
#
#
# Elastic Compliance Matrix: (Units=1/GPa)
#
#
# Indices 1 2 3 4 5 6 
#
# 1 0.033195 -0.019744 -0.002086 0.000000 0.000000 0.000000
# 2 -0.019744 0.033196 -0.002086 0.000000 0.000000 0.000000
# 3 -0.002086 -0.002086 0.017717 0.000000 0.000000 0.000000
# 4 0.000000 0.000000 0.000000 0.047564 0.000000 0.000000
# 5 0.000000 0.000000 0.000000 0.000000 0.047565 0.000000
# 6 0.000000 0.000000 0.000000 0.000000 0.000000 0.036695
#
#
# Mechanical properties :
#
#
# Convention : Reuss Voigt Hill
#
# Bulk Modulus (GPa) = 27.56634 27.69300 27.62967
# Shear Modulus (GPa) = 18.12542 21.01508 19.57025
#
# Velocity S-wave (km/s) = 2.99369 3.22350 3.11072
# Velocity P-wave (km/s) = 5.05765 5.24857 5.15399
#
# Compressibility (1/GPa) = 0.03627613
#
# Stress axis : x y z
#
# Youngs Moduli (GPa) = 30.12482 30.12430 56.44434
#
# Poissons Ratio (x) = 0.59477 0.11775
# Poissons Ratio (y) = 0.59478 0.11773
# Poissons Ratio (z) = 0.06284 0.06283
#
# Static dielectric constant tensor:
#      x y z
#    x 1.731380 0.000000 0.000000 
#    y 0.000000 1.731380 0.000000 
#    z 0.000000 0.000000 1.750630 
# 
# From -- ./inp_files/3563.got.cif
#   From: 2010.05.17/outbox.cif.g08.bks.cpg/sg92_2_cif.got.tgz:3563.got - 2010.06.03 19:35:17.
