data_PCOD9548595
_publ_section_title
;
Structure prediction by ZEFSAII (Michael W. Deem and Ramdas Pophale) SiO2 
 PCOD9548595
Probable space group: P 41 2 2
;
_chemical_formula_sum "Si O2"
_cell_formula_units_Z 40
_cell_length_a 19.913701
_cell_length_b 19.913701
_cell_length_c 4.986123
_cell_angle_alpha 90.000000
_cell_angle_beta 90.000000
_cell_angle_gamma 90.000000
_cell_volume 1977.274437
_symmetry_space_group_name_H-M "P 41 2 2"
_symmetry_group_IT_number 91
_symmetry_cell_setting 'tetragonal'
loop_
_space_group_symop_operation_xyz
x,y,z
-y,x,1/4+z
-x,-y,1/2+z
y,-x,3/4+z
x,-y,1/2-z
-x,y,-z
y,x,3/4-z
-y,-x,1/4-z
loop_
_atom_site_type_symbol
_atom_site_label
_atom_site_fract_x
_atom_site_fract_y
_atom_site_fract_z
Si Si1 0.235050 0.704355 0.872751
Si Si2 0.070887 0.184527 0.906511
Si Si3 0.572157 0.182875 0.961947
Si Si4 0.084949 0.279742 0.406606
Si Si5 0.911344 0.425317 0.784657
O O1 0.246455 0.753546 0.625000
O O2 0.236192 0.630281 0.752289
O O3 0.160164 0.709362 0.986397
O O4 0.282033 0.717968 0.125000
O O5 0.090595 0.234367 0.145026
O O6 0.127960 0.127960 0.875000
O O7 0.057281 0.233654 0.651580
O O8 0.000000 0.153041 0.000000
O O9 0.570082 0.151481 0.666149
O O10 0.500000 0.213802 0.000000
O O11 0.581274 0.119527 0.167056
O O12 0.056830 0.353421 0.308845
O O13 0.945642 0.500000 0.750000
#
# Coordination Sequence:
#
# PCOD9548595 Si02
#       5
#     8   8   8   8   8
#     4  11  19  29  49  79 109 136 172 220 274 331
#     4  12  26  44  64  86 113 148 193 248 308 362
#     4   9  17  28  42  67 107 148 180 213 261 323
#     4  11  21  37  61  87 116 148 184 227 281 349
#     4   9  17  30  52  83 115 150 184 212 256 325
#
# _framework density 20.229868
#
# number of rings (size 3 to 8) (size 9 to 14) (size 15 to 20)
#    0.000    1.600    0.000    9.000    0.000    0.000 
#    0.000    2.000    0.000    2.400    0.000    1.400 
#    0.000    1.600    0.000    2.800    0.000    0.600 
#
# Total GULP energy -222991.892198 kJ/mol
# GULP energy per Si atom -5574.797305 kJ/mol
# Density = 2.018382 g / cm^3
# Si number density = 20.229868 Si / 1000 Ang^3
#
#
#
# Elastic Constant Matrix: (Units=GPa)
#
#
# Indices 1 2 3 4 5 6 
#
# 1 104.9737 50.4467 33.0502 0.0000 0.0000 0.0000
# 2 50.4467 104.9718 33.0493 0.0000 0.0000 0.0000
# 3 33.0502 33.0493 116.7999 0.0000 0.0000 0.0000
# 4 0.0000 0.0000 0.0000 28.7396 0.0000 0.0000
# 5 0.0000 0.0000 0.0000 0.0000 28.7399 0.0000
# 6 0.0000 0.0000 0.0000 0.0000 0.0000 -7.8317
#
#
#
# Elastic Compliance Matrix: (Units=1/GPa)
#
#
# Indices 1 2 3 4 5 6 
#
# 1 0.012827 -0.005513 -0.002070 0.000000 0.000000 0.000000
# 2 -0.005513 0.012827 -0.002070 0.000000 0.000000 0.000000
# 3 -0.002070 -0.002070 0.009733 0.000000 0.000000 0.000000
# 4 0.000000 0.000000 0.000000 0.034795 0.000000 0.000000
# 5 0.000000 0.000000 0.000000 0.000000 0.034795 0.000000
# 6 0.000000 0.000000 0.000000 0.000000 0.000000 -0.127686
#
#
# Mechanical properties :
#
#
# Convention : Reuss Voigt Hill
#
# Bulk Modulus (GPa) = 62.17736 62.20420 62.19078
# Shear Modulus (GPa) = 2555.08705 23.94284 1289.51494
#
# Velocity S-wave (km/s) = 35.57765 3.44399 25.27479
# Velocity P-wave (km/s) = 41.45472 6.82863 29.70795
#
# Compressibility (1/GPa) = 0.01608303
#
# Stress axis : x y z
#
# Youngs Moduli (GPa) = 77.96020 77.95907 102.74395
#
# Poissons Ratio (x) = 0.42977 0.21265
# Poissons Ratio (y) = 0.42977 0.21264
# Poissons Ratio (z) = 0.16136 0.16135
#
# Static dielectric constant tensor:
#      x y z
#    x 1.796030 0.000000 0.000000 
#    y 0.000000 1.796030 0.000000 
#    z 0.000000 0.000000 1.733620 
# 
# From -- ./inp_files/1074.got.cif
#   From: 2010.05.17/outbox.cif.g08.bks.cpg/sg91_1_cif.got.tgz:1074.got - 2010.06.03 19:20:03.
