data_PCOD9548756
_publ_section_title
;
Structure prediction by ZEFSAII (Michael W. Deem and Ramdas Pophale) SiO2 
 PCOD9548756
Probable space group: P 41 2 2
;
_chemical_formula_sum "Si O2"
_cell_formula_units_Z 36
_cell_length_a 10.764949
_cell_length_b 10.764949
_cell_length_c 12.414625
_cell_angle_alpha 90.000000
_cell_angle_beta 90.000000
_cell_angle_gamma 90.000000
_cell_volume 1438.657980
_symmetry_space_group_name_H-M "P 41 2 2"
_symmetry_group_IT_number 91
_symmetry_cell_setting 'tetragonal'
loop_
_space_group_symop_operation_xyz
x,y,z
-y,x,1/4+z
-x,-y,1/2+z
y,-x,3/4+z
x,-y,1/2-z
-x,y,-z
y,x,3/4-z
-y,-x,1/4-z
loop_
_atom_site_type_symbol
_atom_site_label
_atom_site_fract_x
_atom_site_fract_y
_atom_site_fract_z
Si Si1 0.805263 0.580523 0.580685
Si Si2 0.145827 0.176771 0.997632
Si Si3 0.499100 0.940232 0.386569
Si Si4 0.043310 0.225567 0.384835
Si Si5 0.546974 0.453026 0.625000
O O1 0.774750 0.726107 0.568128
O O2 0.853711 0.537206 0.462260
O O3 0.691696 0.496476 0.619504
O O4 0.934071 0.580876 0.647721
O O5 0.186575 0.186575 0.875000
O O6 0.163259 0.040117 0.043404
O O7 0.000000 0.207839 0.000000
O O8 0.500000 0.871577 0.500000
O O9 0.366968 0.003451 0.366753
O O10 0.000000 0.176427 0.500000
O O11 0.186381 0.186381 0.375000
O O12 0.507150 0.500000 0.750000
#
# Coordination Sequence:
#
# PCOD9548756 Si02
#       5
#     8   8   8   8   4
#     4  11  26  49  73 110 148 207 263 323 394 474
#     4  12  25  47  74 109 152 201 261 325 398 481
#     4  11  24  46  75 106 149 205 265 317 394 477
#     4  12  26  41  70 110 151 191 243 321 394 456
#     4  12  32  54  82 116 160 208 272 336 398 468
#
# _framework density 25.023319000000001
#
# number of rings (size 3 to 8) (size 9 to 14) (size 15 to 20)
#    0.000    0.444    4.444    4.667    9.333    0.889 
#    0.000    0.000    0.000    0.000    0.000    0.000 
#    0.000    0.000    0.000    0.000    0.000    0.000 
#
# Total GULP energy -201097.769892 kJ/mol
# GULP energy per Si atom -5586.049164 kJ/mol
# Density = 2.496637 g / cm^3
# Si number density = 25.023319 Si / 1000 Ang^3
#
#
#
# Elastic Constant Matrix: (Units=GPa)
#
#
# Indices 1 2 3 4 5 6 
#
# 1 97.0652 20.6728 1.7376 0.0000 0.0000 0.0000
# 2 20.6728 97.0644 1.7377 0.0000 0.0000 0.0000
# 3 1.7376 1.7377 135.6768 0.0000 0.0000 0.0000
# 4 0.0000 0.0000 0.0000 20.5217 0.0000 0.0000
# 5 0.0000 0.0000 0.0000 0.0000 20.5217 0.0000
# 6 0.0000 0.0000 0.0000 0.0000 0.0000 25.9190
#
#
#
# Elastic Compliance Matrix: (Units=1/GPa)
#
#
# Indices 1 2 3 4 5 6 
#
# 1 0.010793 -0.002297 -0.000109 0.000000 0.000000 0.000000
# 2 -0.002297 0.010794 -0.000109 0.000000 0.000000 0.000000
# 3 -0.000109 -0.000109 0.007373 0.000000 0.000000 0.000000
# 4 0.000000 0.000000 0.000000 0.048729 0.000000 0.000000
# 5 0.000000 0.000000 0.000000 0.000000 0.048729 0.000000
# 6 0.000000 0.000000 0.000000 0.000000 0.000000 0.038582
#
#
# Mechanical properties :
#
#
# Convention : Reuss Voigt Hill
#
# Bulk Modulus (GPa) = 41.78625 42.01141 41.89883
# Shear Modulus (GPa) = 28.08898 33.76971 30.92935
#
# Velocity S-wave (km/s) = 3.35403 3.67758 3.51952
# Velocity P-wave (km/s) = 5.63334 5.90408 5.77030
#
# Compressibility (1/GPa) = 0.02393132
#
# Stress axis : x y z
#
# Youngs Moduli (GPa) = 92.64849 92.64780 135.62550
#
# Poissons Ratio (x) = 0.21280 0.01476
# Poissons Ratio (y) = 0.21280 0.01476
# Poissons Ratio (z) = 0.01008 0.01008
#
# Static dielectric constant tensor:
#      x y z
#    x 2.032270 0.000000 0.000000 
#    y 0.000000 2.032280 0.000000 
#    z 0.000000 0.000000 1.709800 
# 
# From -- ./inp_files/15656.got.cif
#   From: 2010.05.17/outbox.cif.g08.bks.cpg/sg91_8_cif.got.tgz:15656.got - 2010.06.03 19:20:03.
