data_PCOD9548991
_publ_section_title
;
Structure prediction by ZEFSAII (Michael W. Deem and Ramdas Pophale) SiO2 
 PCOD9548991
Probable space group: P 41 21 2
;
_chemical_formula_sum "Si O2"
_cell_formula_units_Z 52
_cell_length_a 18.159763
_cell_length_b 18.159763
_cell_length_c 8.286256
_cell_angle_alpha 90.000000
_cell_angle_beta 90.000000
_cell_angle_gamma 90.000000
_cell_volume 2732.616580
_symmetry_space_group_name_H-M "P 41 21 2"
_symmetry_group_IT_number 92
_symmetry_cell_setting 'tetragonal'
loop_
_space_group_symop_operation_xyz
x,y,z
1/2-y,1/2+x,1/4+z
-x,-y,1/2+z
1/2+y,1/2-x,3/4+z
1/2+x,1/2-y,3/4-z
1/2-x,1/2+y,1/4-z
y,x,-z
-y,-x,1/2-z
loop_
_atom_site_type_symbol
_atom_site_label
_atom_site_fract_x
_atom_site_fract_y
_atom_site_fract_z
Si Si1 0.973145 0.895285 0.679796
Si Si2 0.754733 0.384237 0.467681
Si Si3 0.390436 0.609565 0.750000
Si Si4 0.663261 0.336740 0.750000
Si Si5 0.056946 0.943055 0.250000
Si Si6 0.201454 0.894095 0.923748
Si Si7 0.950245 0.229471 0.724570
Si Si8 0.870158 0.266237 0.401390
O O1 0.957892 0.890448 0.873096
O O2 0.912545 0.841687 0.601090
O O3 0.051491 0.867671 0.615054
O O4 0.950330 0.980491 0.651210
O O5 0.684027 0.388308 0.351891
O O6 0.730095 0.340347 0.627743
O O7 0.764119 0.469767 0.506661
O O8 0.820430 0.338665 0.391767
O O9 0.049939 0.859255 0.186821
O O10 0.177781 0.808874 0.919024
O O11 0.254547 0.909618 0.771159
O O12 0.231864 0.909558 0.102354
O O13 0.917170 0.267172 0.565613
#
# Coordination Sequence:
#
# PCOD9548991 Si02
#       8
#     8   8   4   4   4   8   8   8
#     4  11  21  32  54  89 126 166 199 237 295 365
#     4  11  23  42  55  86 126 165 209 254 305 363
#     4  10  20  35  55  86 125 174 205 246 292 360
#     4  10  20  34  54  82 124 165 195 236 292 370
#     4  12  20  33  57  88 131 167 194 244 296 368
#     4  11  22  40  58  90 127 165 209 243 296 367
#     4  12  23  42  61  90 125 164 211 253 312 372
#     4  11  25  39  61  87 122 166 205 260 304 367
#
# _framework density 19.029378999999999
#
# number of rings (size 3 to 8) (size 9 to 14) (size 15 to 20)
#    0.000    0.923    6.154    2.769    2.154    1.846 
#    0.000    0.000    0.000    0.000    4.000    0.000 
#    0.000    0.000    0.000    0.000    0.000    0.000 
#
# Total GULP energy -289940.605807 kJ/mol
# GULP energy per Si atom -5575.780881 kJ/mol
# Density = 1.898607 g / cm^3
# Si number density = 19.029379 Si / 1000 Ang^3
#
#
#
# Elastic Constant Matrix: (Units=GPa)
#
#
# Indices 1 2 3 4 5 6 
#
# 1 43.9957 32.3174 13.5978 0.0000 0.0000 0.0000
# 2 32.3174 43.9959 13.5978 0.0000 0.0000 0.0000
# 3 13.5978 13.5978 135.1447 0.0000 0.0000 0.0000
# 4 0.0000 0.0000 0.0000 19.8131 0.0000 0.0000
# 5 0.0000 0.0000 0.0000 0.0000 19.8131 0.0000
# 6 0.0000 0.0000 0.0000 0.0000 0.0000 35.9491
#
#
#
# Elastic Compliance Matrix: (Units=1/GPa)
#
#
# Indices 1 2 3 4 5 6 
#
# 1 0.049610 -0.036019 -0.001368 0.000000 0.000000 0.000000
# 2 -0.036019 0.049610 -0.001367 0.000000 0.000000 0.000000
# 3 -0.001368 -0.001367 0.007675 0.000000 0.000000 0.000000
# 4 0.000000 0.000000 0.000000 0.050472 0.000000 0.000000
# 5 0.000000 0.000000 0.000000 0.000000 0.050472 0.000000
# 6 0.000000 0.000000 0.000000 0.000000 0.000000 0.027817
#
#
# Mechanical properties :
#
#
# Convention : Reuss Voigt Hill
#
# Bulk Modulus (GPa) = 34.02852 38.01802 36.02327
# Shear Modulus (GPa) = 15.48189 26.02328 20.75259
#
# Velocity S-wave (km/s) = 2.85542 3.70203 3.30594
# Velocity P-wave (km/s) = 5.36583 6.18832 5.79170
#
# Compressibility (1/GPa) = 0.02938712
#
# Stress axis : x y z
#
# Youngs Moduli (GPa) = 20.15721 20.15732 130.29890
#
# Poissons Ratio (x) = 0.72604 0.17819
# Poissons Ratio (y) = 0.72604 0.17818
# Poissons Ratio (z) = 0.02757 0.02756
#
# Static dielectric constant tensor:
#      x y z
#    x 1.658200 0.000000 0.000000 
#    y 0.000000 1.658200 0.000000 
#    z 0.000000 0.000000 1.830740 
# 
# From -- ./inp_files/1618.got.cif
#   From: 2010.05.17/outbox.cif.g08.bks.cpg/sg92_1_cif.got.tgz:1618.got - 2010.06.03 19:35:17.
