data_PCOD9548725
_publ_section_title
;
Structure prediction by ZEFSAII (Michael W. Deem and Ramdas Pophale) SiO2 
 PCOD9548725
Probable space group: P 41 2 2
;
_chemical_formula_sum "Si O2"
_cell_formula_units_Z 36
_cell_length_a 13.908023
_cell_length_b 13.908023
_cell_length_c 8.476710
_cell_angle_alpha 90.000000
_cell_angle_beta 90.000000
_cell_angle_gamma 90.000000
_cell_volume 1639.676325
_symmetry_space_group_name_H-M "P 41 2 2"
_symmetry_group_IT_number 91
_symmetry_cell_setting 'tetragonal'
loop_
_space_group_symop_operation_xyz
x,y,z
-y,x,1/4+z
-x,-y,1/2+z
y,-x,3/4+z
x,-y,1/2-z
-x,y,-z
y,x,3/4-z
-y,-x,1/4-z
loop_
_atom_site_type_symbol
_atom_site_label
_atom_site_fract_x
_atom_site_fract_y
_atom_site_fract_z
Si Si1 0.261414 0.331087 0.106744
Si Si2 0.500000 0.617211 0.000000
Si Si3 0.201363 0.798638 0.125000
Si Si4 0.840541 0.613559 0.288150
Si Si5 0.161759 0.000000 0.250000
Si Si6 0.796504 0.054939 0.083097
O O1 0.319165 0.422039 0.164070
O O2 0.203007 0.287591 0.252239
O O3 0.193661 0.367583 0.967164
O O4 0.338667 0.248172 0.058973
O O5 0.447857 0.552144 0.125000
O O6 0.206974 0.895348 0.226980
O O7 0.854290 0.500000 0.250000
O O8 0.931076 0.687092 0.272835
O O9 0.135419 0.988625 0.442333
O O10 0.841432 0.158569 0.125000
O O11 0.798448 0.000000 0.250000
#
# Coordination Sequence:
#
# PCOD9548725 Si02
#       6
#     8   4   4   8   4   8
#     4  11  23  44  68  98 146 191 235 298 369 422
#     4  12  26  38  64 110 140 182 242 300 352 436
#     4  12  24  48  70 104 142 188 236 306 372 438
#     4  11  23  44  70  98 137 194 237 289 361 437
#     4  12  24  44  78 102 138 188 242 298 370 440
#     4  12  25  50  74 106 146 188 239 306 372 432
#
# _framework density 21.955552999999998
#
# number of rings (size 3 to 8) (size 9 to 14) (size 15 to 20)
#    0.000    0.444    5.556    4.000    4.667    0.000 
#   10.000    0.000    2.444    0.000    0.000    0.000 
#    0.000    0.000    0.000    0.000    0.000    0.000 
#
# Total GULP energy -200715.114816 kJ/mol
# GULP energy per Si atom -5575.419856 kJ/mol
# Density = 2.190558 g / cm^3
# Si number density = 21.955553 Si / 1000 Ang^3
#
#
#
# Elastic Constant Matrix: (Units=GPa)
#
#
# Indices 1 2 3 4 5 6 
#
# 1 136.2210 -36.6650 17.2775 0.0000 0.0000 0.0000
# 2 -36.6650 136.2185 17.2717 0.0000 0.0000 0.0000
# 3 17.2775 17.2717 127.9499 0.0000 0.0000 0.0000
# 4 0.0000 0.0000 0.0000 16.5822 0.0000 0.0000
# 5 0.0000 0.0000 0.0000 0.0000 16.6021 0.0000
# 6 0.0000 0.0000 0.0000 0.0000 0.0000 -0.6186
#
#
#
# Elastic Compliance Matrix: (Units=1/GPa)
#
#
# Indices 1 2 3 4 5 6 
#
# 1 0.008161 0.002377 -0.001423 0.000000 0.000000 0.000000
# 2 0.002377 0.008161 -0.001423 0.000000 0.000000 0.000000
# 3 -0.001423 -0.001423 0.008200 0.000000 0.000000 0.000000
# 4 0.000000 0.000000 0.000000 0.060306 0.000000 0.000000
# 5 0.000000 0.000000 0.000000 0.000000 0.060233 0.000000
# 6 0.000000 0.000000 0.000000 0.000000 0.000000 -1.616663
#
#
# Mechanical properties :
#
#
# Convention : Reuss Voigt Hill
#
# Bulk Modulus (GPa) = 42.39893 44.01752 43.20822
# Shear Modulus (GPa) = -3.41810 33.34682 14.96436
#
# Velocity S-wave (km/s) = -1.24908 3.90145 2.61353
# Velocity P-wave (km/s) = 4.15607 6.35508 5.36936
#
# Compressibility (1/GPa) = 0.02358550
#
# Stress axis : x y z
#
# Youngs Moduli (GPa) = 122.52924 122.52833 121.95493
#
# Poissons Ratio (x) = -0.29127 0.17353
# Poissons Ratio (y) = -0.29127 0.17350
# Poissons Ratio (z) = 0.17435 0.17432
#
# Static dielectric constant tensor:
#      x y z
#    x 1.842360 0.000000 0.000000 
#    y 0.000000 1.842330 0.000000 
#    z 0.000000 0.000000 1.865030 
# 
# From -- ./inp_files/9657.got.cif
#   From: 2010.05.17/outbox.cif.g08.bks.cpg/sg91_5_cif.got.tgz:9657.got - 2010.06.03 19:20:03.
