data_PCOD9548144
_publ_section_title
;
Structure prediction by ZEFSAII (Michael W. Deem and Ramdas Pophale) SiO2 
 PCOD9548144
Probable space group: P 41 2 2
;
_chemical_formula_sum "Si O2"
_cell_formula_units_Z 48
_cell_length_a 8.376075
_cell_length_b 8.376075
_cell_length_c 35.057318
_cell_angle_alpha 90.000000
_cell_angle_beta 90.000000
_cell_angle_gamma 90.000000
_cell_volume 2459.573487
_symmetry_space_group_name_H-M "P 41 2 2"
_symmetry_group_IT_number 91
_symmetry_cell_setting 'tetragonal'
loop_
_space_group_symop_operation_xyz
x,y,z
-y,x,1/4+z
-x,-y,1/2+z
y,-x,3/4+z
x,-y,1/2-z
-x,y,-z
y,x,3/4-z
-y,-x,1/4-z
loop_
_atom_site_type_symbol
_atom_site_label
_atom_site_fract_x
_atom_site_fract_y
_atom_site_fract_z
Si Si1 0.717058 0.680709 0.765451
Si Si2 0.489958 0.380461 0.333622
Si Si3 0.085840 0.281084 0.731172
Si Si4 0.921990 0.707304 0.569341
Si Si5 0.196462 0.196462 0.875000
Si Si6 0.238907 0.415099 0.803091
Si Si7 0.000000 0.481919 0.500000
O O1 0.690422 0.500000 0.750000
O O2 0.666299 0.670021 0.810000
O O3 0.901917 0.721201 0.758317
O O4 0.616196 0.832539 0.750074
O O5 0.448665 0.448665 0.375000
O O6 0.610754 0.230350 0.335838
O O7 0.586474 0.507927 0.307424
O O8 0.143541 0.135914 0.705781
O O9 0.203648 0.299277 0.767518
O O10 0.119547 0.439636 0.706212
O O11 0.034454 0.772290 0.602250
O O12 0.999021 0.586311 0.538699
O O13 0.207333 0.331505 0.842841
#
# Coordination Sequence:
#
# PCOD9548144 Si02
#       7
#     8   8   8   8   4   8   4
#     4  11  24  41  73 101 133 179 227 282 344 409
#     4  10  23  41  64  96 132 173 220 280 342 399
#     4  10  22  45  64  96 136 175 224 276 338 412
#     4  10  24  42  65  93 137 174 220 278 336 408
#     4  12  24  38  64 100 124 180 226 270 348 392
#     4  10  21  39  67  94 129 169 229 273 320 413
#     4  10  24  44  66 106 134 176 232 286 334 408
#
# _framework density 19.515577
#
# number of rings (size 3 to 8) (size 9 to 14) (size 15 to 20)
#    0.000    1.667    2.500    1.000   11.667    2.000 
#    1.500    3.333    0.000    0.000    0.000    0.000 
#    0.000    0.000    0.000    0.000    0.000    0.000 
#
# Total GULP energy -267804.341837 kJ/mol
# GULP energy per Si atom -5579.257122 kJ/mol
# Density = 1.947116 g / cm^3
# Si number density = 19.515577 Si / 1000 Ang^3
#
#
#
# Elastic Constant Matrix: (Units=GPa)
#
#
# Indices 1 2 3 4 5 6 
#
# 1 94.3891 66.0035 59.5258 0.0000 0.0000 0.0000
# 2 66.0035 94.3891 59.5258 0.0000 0.0000 0.0000
# 3 59.5258 59.5258 123.0164 0.0000 0.0000 0.0000
# 4 0.0000 0.0000 0.0000 34.0713 0.0000 0.0000
# 5 0.0000 0.0000 0.0000 0.0000 34.0713 0.0000
# 6 0.0000 0.0000 0.0000 0.0000 0.0000 20.3763
#
#
#
# Elastic Compliance Matrix: (Units=1/GPa)
#
#
# Indices 1 2 3 4 5 6 
#
# 1 0.022479 -0.012750 -0.004708 0.000000 0.000000 0.000000
# 2 -0.012750 0.022479 -0.004708 0.000000 0.000000 0.000000
# 3 -0.004708 -0.004708 0.012685 0.000000 0.000000 0.000000
# 4 0.000000 0.000000 0.000000 0.029350 0.000000 0.000000
# 5 0.000000 0.000000 0.000000 0.000000 0.029350 0.000000
# 6 0.000000 0.000000 0.000000 0.000000 0.000000 0.049077
#
#
# Mechanical properties :
#
#
# Convention : Reuss Voigt Hill
#
# Bulk Modulus (GPa) = 75.11946 75.76716 75.44331
# Shear Modulus (GPa) = 23.34392 26.15308 24.74850
#
# Velocity S-wave (km/s) = 3.46232 3.66473 3.56496
# Velocity P-wave (km/s) = 7.38642 7.53759 7.46238
#
# Compressibility (1/GPa) = 0.01331213
#
# Stress axis : x y z
#
# Youngs Moduli (GPa) = 44.48585 44.48585 78.83333
#
# Poissons Ratio (x) = 0.56720 0.37113
# Poissons Ratio (y) = 0.56720 0.37113
# Poissons Ratio (z) = 0.20943 0.20943
#
# Static dielectric constant tensor:
#      x y z
#    x 1.699620 0.000000 0.000000 
#    y 0.000000 1.699620 0.000000 
#    z 0.000000 0.000000 1.625610 
# 
# From -- ./inp_files/22288.got.cif
#   From: 2010.05.17/outbox.cif.g08.bks.cpg/sg91_12_cif.got.tgz:22288.got - 2010.06.03 19:20:03.
