data_PCOD9548448
_publ_section_title
;
Structure prediction by ZEFSAII (Michael W. Deem and Ramdas Pophale) SiO2 
 PCOD9548448
Probable space group: P 41 2 2
;
_chemical_formula_sum "Si O2"
_cell_formula_units_Z 40
_cell_length_a 11.327669
_cell_length_b 11.327669
_cell_length_c 14.609555
_cell_angle_alpha 90.000000
_cell_angle_beta 90.000000
_cell_angle_gamma 90.000000
_cell_volume 1874.640901
_symmetry_space_group_name_H-M "P 41 2 2"
_symmetry_group_IT_number 91
_symmetry_cell_setting 'tetragonal'
loop_
_space_group_symop_operation_xyz
x,y,z
-y,x,1/4+z
-x,-y,1/2+z
y,-x,3/4+z
x,-y,1/2-z
-x,y,-z
y,x,3/4-z
-y,-x,1/4-z
loop_
_atom_site_type_symbol
_atom_site_label
_atom_site_fract_x
_atom_site_fract_y
_atom_site_fract_z
Si Si1 0.091731 0.861177 0.224152
Si Si2 0.863194 0.590757 0.495776
Si Si3 0.455302 0.722578 0.400328
Si Si4 0.827760 0.202316 0.333078
Si Si5 0.689891 0.498050 0.649026
O O1 0.154787 0.845214 0.125000
O O2 0.148969 0.805583 0.314902
O O3 0.957267 0.824208 0.205099
O O4 0.092929 0.000000 0.250000
O O5 0.794265 0.553713 0.404486
O O6 0.850723 0.729305 0.516080
O O7 0.789023 0.526442 0.575192
O O8 0.000000 0.556337 0.500000
O O9 0.500000 0.687945 0.500000
O O10 0.341603 0.806363 0.409824
O O11 0.406614 0.604333 0.352846
O O12 0.742167 0.500000 0.750000
O O13 0.621028 0.378973 0.625000
#
# Coordination Sequence:
#
# PCOD9548448 Si02
#       5
#     8   8   8   8   8
#     4   9  19  41  71  99 130 176 230 280 336 414
#     4  11  26  44  64 104 140 173 221 282 348 403
#     4  11  26  44  66  96 134 181 221 280 342 396
#     4  10  23  42  68 101 132 179 228 281 344 406
#     4  11  22  45  75  98 130 179 234 275 324 404
#
# _framework density 21.337419000000001
#
# number of rings (size 3 to 8) (size 9 to 14) (size 15 to 20)
#    0.000    1.600    2.000    1.200    5.600    3.200 
#   10.800    0.000    0.000    0.000    0.000    0.000 
#    0.000    0.000    0.000    0.000    0.000    0.000 
#
# Total GULP energy -223687.272130 kJ/mol
# GULP energy per Si atom -5592.181803 kJ/mol
# Density = 2.128885 g / cm^3
# Si number density = 21.337419 Si / 1000 Ang^3
#
#
#
# Elastic Constant Matrix: (Units=GPa)
#
#
# Indices 1 2 3 4 5 6 
#
# 1 65.0691 14.7518 11.0658 0.0000 0.0000 0.0000
# 2 14.7518 65.0715 11.0666 0.0000 0.0000 0.0000
# 3 11.0658 11.0666 72.2988 0.0000 0.0000 0.0000
# 4 0.0000 0.0000 0.0000 19.8180 0.0000 0.0000
# 5 0.0000 0.0000 0.0000 0.0000 19.8175 0.0000
# 6 0.0000 0.0000 0.0000 0.0000 0.0000 22.7349
#
#
#
# Elastic Compliance Matrix: (Units=1/GPa)
#
#
# Indices 1 2 3 4 5 6 
#
# 1 0.016479 -0.003395 -0.002002 0.000000 0.000000 0.000000
# 2 -0.003395 0.016478 -0.002003 0.000000 0.000000 0.000000
# 3 -0.002002 -0.002003 0.014445 0.000000 0.000000 0.000000
# 4 0.000000 0.000000 0.000000 0.050459 0.000000 0.000000
# 5 0.000000 0.000000 0.000000 0.000000 0.050460 0.000000
# 6 0.000000 0.000000 0.000000 0.000000 0.000000 0.043985
#
#
# Mechanical properties :
#
#
# Convention : Reuss Voigt Hill
#
# Bulk Modulus (GPa) = 30.67426 30.68975 30.68201
# Shear Modulus (GPa) = 22.93860 23.51109 23.22484
#
# Velocity S-wave (km/s) = 3.28234 3.32305 3.30275
# Velocity P-wave (km/s) = 5.36395 5.39794 5.38098
#
# Compressibility (1/GPa) = 0.03260062
#
# Stress axis : x y z
#
# Youngs Moduli (GPa) = 60.68504 60.68703 69.23045
#
# Poissons Ratio (x) = 0.20604 0.13863
# Poissons Ratio (y) = 0.20604 0.13864
# Poissons Ratio (z) = 0.12152 0.12153
#
# Static dielectric constant tensor:
#      x y z
#    x 1.758610 0.000000 0.000000 
#    y 0.000000 1.758610 0.000000 
#    z 0.000000 0.000000 1.781360 
# 
# From -- ./inp_files/11346.got.cif
#   From: 2010.05.17/outbox.cif.g08.bks.cpg/sg91_6_cif.got.tgz:11346.got - 2010.06.03 19:20:03.
