data_PCOD9548667
_publ_section_title
;
Structure prediction by ZEFSAII (Michael W. Deem and Ramdas Pophale) SiO2 
 PCOD9548667
Probable space group: P 41 2 2
;
_chemical_formula_sum "Si O2"
_cell_formula_units_Z 56
_cell_length_a 11.885293
_cell_length_b 11.885293
_cell_length_c 20.209467
_cell_angle_alpha 90.000000
_cell_angle_beta 90.000000
_cell_angle_gamma 90.000000
_cell_volume 2854.793142
_symmetry_space_group_name_H-M "P 41 2 2"
_symmetry_group_IT_number 91
_symmetry_cell_setting 'tetragonal'
loop_
_space_group_symop_operation_xyz
x,y,z
-y,x,1/4+z
-x,-y,1/2+z
y,-x,3/4+z
x,-y,1/2-z
-x,y,-z
y,x,3/4-z
-y,-x,1/4-z
loop_
_atom_site_type_symbol
_atom_site_label
_atom_site_fract_x
_atom_site_fract_y
_atom_site_fract_z
Si Si1 0.340982 0.918546 0.650999
Si Si2 0.920581 0.033837 0.819292
Si Si3 0.174570 0.128237 0.967718
Si Si4 0.222161 0.543011 0.938272
Si Si5 0.179136 0.754981 0.856138
Si Si6 0.474934 0.630429 0.922167
Si Si7 0.825866 0.571576 0.579734
O O1 0.251364 0.880697 0.707366
O O2 0.269836 0.901408 0.585057
O O3 0.436378 0.824598 0.649784
O O4 0.397474 0.041563 0.661449
O O5 0.860713 0.141443 0.850584
O O6 0.043819 0.075200 0.799698
O O7 0.863944 0.000000 0.750000
O O8 0.937789 0.937789 0.875000
O O9 0.229596 0.109536 0.039002
O O10 0.160700 0.649831 0.904476
O O11 0.351734 0.571722 0.923818
O O12 0.196133 0.506568 0.014828
O O13 0.306666 0.763553 0.829747
O O14 0.555669 0.555669 0.875000
O O15 0.480357 0.756925 0.891675
O O16 0.500000 0.634669 0.000000
#
# Coordination Sequence:
#
# PCOD9548667 Si02
#       7
#     8   8   8   8   8   8   8
#     4  11  23  40  69 103 131 175 226 282 354 404
#     4  12  22  37  67  99 132 179 226 277 338 420
#     4  11  22  38  68 102 133 169 226 285 345 422
#     4  11  25  40  68  99 133 172 223 290 339 406
#     4  11  24  42  62  99 139 172 226 282 345 408
#     4  11  24  46  71  99 132 179 235 283 341 406
#     4  11  22  43  72  94 131 179 228 277 338 421
#
# _framework density 19.616133000000001
#
# number of rings (size 3 to 8) (size 9 to 14) (size 15 to 20)
#    0.000    0.857    7.143    0.429    2.000    1.714 
#    2.571    0.000    6.286    0.000    0.000    0.000 
#    0.000    0.000    0.000    0.000    0.000    0.000 
#
# Total GULP energy -311774.399529 kJ/mol
# GULP energy per Si atom -5567.399992 kJ/mol
# Density = 1.957149 g / cm^3
# Si number density = 19.616133 Si / 1000 Ang^3
#
#
#
# Elastic Constant Matrix: (Units=GPa)
#
#
# Indices 1 2 3 4 5 6 
#
# 1 57.2838 60.6552 50.7488 0.0000 0.0000 0.0000
# 2 60.6552 57.2838 50.7488 0.0000 0.0000 0.0000
# 3 50.7488 50.7488 167.2537 0.0000 0.0000 0.0000
# 4 0.0000 0.0000 0.0000 32.1711 0.0000 0.0000
# 5 0.0000 0.0000 0.0000 0.0000 32.1711 0.0000
# 6 0.0000 0.0000 0.0000 0.0000 0.0000 15.1986
#
#
#
# Elastic Compliance Matrix: (Units=1/GPa)
#
#
# Indices 1 2 3 4 5 6 
#
# 1 -0.142567 0.154043 -0.003482 0.000000 0.000000 0.000000
# 2 0.154043 -0.142567 -0.003482 0.000000 0.000000 0.000000
# 3 -0.003482 -0.003482 0.008092 0.000000 0.000000 0.000000
# 4 0.000000 0.000000 0.000000 0.031084 0.000000 0.000000
# 5 0.000000 0.000000 0.000000 0.000000 0.031084 0.000000
# 6 0.000000 0.000000 0.000000 0.000000 0.000000 0.065795
#
#
# Mechanical properties :
#
#
# Convention : Reuss Voigt Hill
#
# Bulk Modulus (GPa) = 58.42769 67.34746 62.88757
# Shear Modulus (GPa) = -11.42772 23.88604 6.22916
#
# Velocity S-wave (km/s) = -2.41626 3.49330 1.78393
# Velocity P-wave (km/s) = 4.69742 7.11886 6.03091
#
# Compressibility (1/GPa) = 0.01711517
#
# Stress axis : x y z
#
# Youngs Moduli (GPa) = -7.01423 -7.01423 123.57951
#
# Poissons Ratio (x) = 1.08049 0.43030
# Poissons Ratio (y) = 1.08049 0.43030
# Poissons Ratio (z) = -0.02442 -0.02442
#
# Static dielectric constant tensor:
#      x y z
#    x 1.693730 0.000000 0.000000 
#    y 0.000000 1.693730 0.000000 
#    z 0.000000 0.000000 1.791010 
# 
# From -- ./inp_files/6395.got.cif
#   From: 2010.05.17/outbox.cif.g08.bks.cpg/sg91_4_cif.got.tgz:6395.got - 2010.06.03 19:20:03.
