data_PCOD9548969
_publ_section_title
;
Structure prediction by ZEFSAII (Michael W. Deem and Ramdas Pophale) SiO2 
 PCOD9548969
Probable space group: P 41 21 2
;
_chemical_formula_sum "Si O2"
_cell_formula_units_Z 48
_cell_length_a 10.789849
_cell_length_b 10.789849
_cell_length_c 17.692363
_cell_angle_alpha 90.000000
_cell_angle_beta 90.000000
_cell_angle_gamma 90.000000
_cell_volume 2059.759788
_symmetry_space_group_name_H-M "P 41 21 2"
_symmetry_group_IT_number 92
_symmetry_cell_setting 'tetragonal'
loop_
_space_group_symop_operation_xyz
x,y,z
1/2-y,1/2+x,1/4+z
-x,-y,1/2+z
1/2+y,1/2-x,3/4+z
1/2+x,1/2-y,3/4-z
1/2-x,1/2+y,1/4-z
y,x,-z
-y,-x,1/2-z
loop_
_atom_site_type_symbol
_atom_site_label
_atom_site_fract_x
_atom_site_fract_y
_atom_site_fract_z
Si Si1 0.343663 0.749719 0.627023
Si Si2 0.054701 0.554165 0.291489
Si Si3 0.439535 0.560466 0.750000
Si Si4 0.153568 0.846433 0.750000
Si Si5 0.655677 0.120361 0.857396
Si Si6 0.324580 0.290373 0.768558
Si Si7 0.983051 0.654646 0.698224
O O1 0.376682 0.623389 0.674634
O O2 0.246387 0.816181 0.681929
O O3 0.474695 0.814758 0.615749
O O4 0.276570 0.761406 0.546323
O O5 0.134792 0.630605 0.231011
O O6 0.960310 0.459211 0.246759
O O7 0.132334 0.493241 0.360407
O O8 0.963213 0.643147 0.339450
O O9 0.404481 0.413953 0.750884
O O10 0.022069 0.792961 0.721948
O O11 0.765148 0.189470 0.898803
O O12 0.382035 0.155690 0.778599
#
# Coordination Sequence:
#
# PCOD9548969 Si02
#       7
#     8   8   4   4   8   8   8
#     4  10  20  37  67 103 132 172 234 305 368 422
#     4  10  21  40  63  97 129 184 233 286 361 447
#     4   9  24  40  66 104 141 184 240 309 362 446
#     4  11  22  38  66 106 137 166 234 305 358 432
#     4  10  19  38  69  94 133 177 236 288 358 449
#     4  11  23  41  67 102 138 190 233 300 374 433
#     4  11  24  40  66 103 141 188 236 303 368 440
#
# _framework density 23.303685999999999
#
# number of rings (size 3 to 8) (size 9 to 14) (size 15 to 20)
#    0.000    1.667    3.333    1.000    2.333    0.667 
#    0.000    6.667    0.000    0.000    0.000    0.000 
#    0.000    0.000    0.000    0.000    0.000    0.000 
#
# Total GULP energy -267238.111023 kJ/mol
# GULP energy per Si atom -5567.460646 kJ/mol
# Density = 2.325065 g / cm^3
# Si number density = 23.303686 Si / 1000 Ang^3
#
#
#
# Elastic Constant Matrix: (Units=GPa)
#
#
# Indices 1 2 3 4 5 6 
#
# 1 57.6733 26.4217 29.5257 0.0000 0.0000 0.0000
# 2 26.4217 57.6725 29.5261 0.0000 0.0000 0.0000
# 3 29.5257 29.5261 166.0350 0.0000 0.0000 0.0000
# 4 0.0000 0.0000 0.0000 25.8326 0.0000 0.0000
# 5 0.0000 0.0000 0.0000 0.0000 25.8326 0.0000
# 6 0.0000 0.0000 0.0000 0.0000 0.0000 8.1133
#
#
#
# Elastic Compliance Matrix: (Units=1/GPa)
#
#
# Indices 1 2 3 4 5 6 
#
# 1 0.022793 -0.009205 -0.002416 0.000000 0.000000 0.000000
# 2 -0.009205 0.022794 -0.002416 0.000000 0.000000 0.000000
# 3 -0.002416 -0.002416 0.006882 0.000000 0.000000 0.000000
# 4 0.000000 0.000000 0.000000 0.038711 0.000000 0.000000
# 5 0.000000 0.000000 0.000000 0.000000 0.038711 0.000000
# 6 0.000000 0.000000 0.000000 0.000000 0.000000 0.123254
#
#
# Mechanical properties :
#
#
# Convention : Reuss Voigt Hill
#
# Bulk Modulus (GPa) = 40.99526 50.25864 45.62695
# Shear Modulus (GPa) = 17.27999 25.01617 21.14808
#
# Velocity S-wave (km/s) = 2.72603 3.27996 3.01574
# Velocity P-wave (km/s) = 5.24769 5.99649 5.63454
#
# Compressibility (1/GPa) = 0.02439306
#
# Stress axis : x y z
#
# Youngs Moduli (GPa) = 43.87257 43.87177 145.30168
#
# Poissons Ratio (x) = 0.40385 0.35109
# Poissons Ratio (y) = 0.40386 0.35111
# Poissons Ratio (z) = 0.10601 0.10601
#
# Static dielectric constant tensor:
#      x y z
#    x 1.988380 0.000000 0.000000 
#    y 0.000000 1.988380 0.000000 
#    z 0.000000 0.000000 2.083260 
# 
# From -- ./inp_files/3161.got.cif
#   From: 2010.05.17/outbox.cif.g08.bks.cpg/sg92_2_cif.got.tgz:3161.got - 2010.06.03 19:35:17.
