data_PCOD9548821
_publ_section_title
;
Structure prediction by ZEFSAII (Michael W. Deem and Ramdas Pophale) SiO2 
 PCOD9548821
Probable space group: P 41 2 2
;
_chemical_formula_sum "Si O2"
_cell_formula_units_Z 40
_cell_length_a 17.476082
_cell_length_b 17.476082
_cell_length_c 6.986627
_cell_angle_alpha 90.000000
_cell_angle_beta 90.000000
_cell_angle_gamma 90.000000
_cell_volume 2133.809801
_symmetry_space_group_name_H-M "P 41 2 2"
_symmetry_group_IT_number 91
_symmetry_cell_setting 'tetragonal'
loop_
_space_group_symop_operation_xyz
x,y,z
-y,x,1/4+z
-x,-y,1/2+z
y,-x,3/4+z
x,-y,1/2-z
-x,y,-z
y,x,3/4-z
-y,-x,1/4-z
loop_
_atom_site_type_symbol
_atom_site_label
_atom_site_fract_x
_atom_site_fract_y
_atom_site_fract_z
Si Si1 0.423586 0.423586 0.375000
Si Si2 0.296747 0.816781 0.518088
Si Si3 0.787973 0.912718 0.810238
Si Si4 0.920870 0.344097 0.886584
Si Si5 0.559148 0.738500 0.672923
Si Si6 0.500000 0.852668 0.000000
O O1 0.500000 0.424024 0.500000
O O2 0.425910 0.345325 0.256335
O O3 0.239834 0.760166 0.625000
O O4 0.251270 0.872083 0.373116
O O5 0.335659 0.860310 0.693441
O O6 0.360847 0.772887 0.398118
O O7 0.860139 0.860139 0.875000
O O8 0.807926 0.000000 0.750000
O O9 0.724455 0.914936 0.981084
O O10 0.904638 0.425859 0.790209
O O11 0.000000 0.341119 0.000000
O O12 0.500000 0.732248 0.500000
O O13 0.522582 0.796266 0.826882
#
# Coordination Sequence:
#
# PCOD9548821 Si02
#       6
#     4   8   8   8   8   4
#     4  12  28  46  66  96 136 188 240 292 348 404
#     4  12  26  42  74 104 137 185 232 287 350 419
#     4  12  26  47  74 108 143 183 233 291 353 423
#     4  12  26  45  72 106 144 184 227 280 354 428
#     4  12  27  44  68 101 142 182 234 295 348 410
#     4  12  26  46  68 108 144 182 230 288 352 418
#
# _framework density 18.745812000000001
#
# number of rings (size 3 to 8) (size 9 to 14) (size 15 to 20)
#    0.000    0.000    9.000    0.600    7.000    2.400 
#    0.000    2.000    0.000    0.000    0.000    0.000 
#    0.000    0.000    0.000    0.000    0.000    0.000 
#
# Total GULP energy -223662.577047 kJ/mol
# GULP energy per Si atom -5591.564426 kJ/mol
# Density = 1.870315 g / cm^3
# Si number density = 18.745812 Si / 1000 Ang^3
#
#
#
# Elastic Constant Matrix: (Units=GPa)
#
#
# Indices 1 2 3 4 5 6 
#
# 1 57.7888 159.4975 61.2237 0.0000 0.0000 0.0000
# 2 159.4975 57.7950 61.2452 0.0000 0.0000 0.0000
# 3 61.2237 61.2452 115.9838 0.0000 0.0000 0.0000
# 4 0.0000 0.0000 0.0000 66.8487 0.0000 0.0000
# 5 0.0000 0.0000 0.0000 0.0000 66.8539 0.0000
# 6 0.0000 0.0000 0.0000 0.0000 0.0000 23.4540
#
#
#
# Elastic Compliance Matrix: (Units=1/GPa)
#
#
# Indices 1 2 3 4 5 6 
#
# 1 -0.001640 0.008192 -0.003460 0.000000 0.000000 0.000000
# 2 0.008192 -0.001641 -0.003458 0.000000 0.000000 0.000000
# 3 -0.003460 -0.003458 0.012274 0.000000 0.000000 0.000000
# 4 0.000000 0.000000 0.000000 0.014959 0.000000 0.000000
# 5 0.000000 0.000000 0.000000 0.000000 0.014958 0.000000
# 6 0.000000 0.000000 0.000000 0.000000 0.000000 0.042637
#
#
# Mechanical properties :
#
#
# Convention : Reuss Voigt Hill
#
# Bulk Modulus (GPa) = 86.64252 88.38892 87.51572
# Shear Modulus (GPa) = 60.35226 28.07139 44.21183
#
# Velocity S-wave (km/s) = 5.68023 3.87392 4.86170
# Velocity P-wave (km/s) = 9.45198 8.20142 8.84882
#
# Compressibility (1/GPa) = 0.01154168
#
# Stress axis : x y z
#
# Youngs Moduli (GPa) = -609.85048 -609.45358 81.47083
#
# Poissons Ratio (x) = 4.99266 0.28191
# Poissons Ratio (y) = 4.99591 0.28171
# Poissons Ratio (z) = -2.11022 -2.10739
#
# Static dielectric constant tensor:
#      x y z
#    x 1.804820 0.000000 0.000000 
#    y 0.000000 1.805100 0.000000 
#    z 0.000000 0.000000 1.624700 
# 
# From -- ./inp_files/858.got.cif
#   From: 2010.05.17/outbox.cif.g08.bks.cpg/sg91_1_cif.got.tgz:858.got - 2010.06.03 19:20:03.
