data_PCOD9548155
_publ_section_title
;
Structure prediction by ZEFSAII (Michael W. Deem and Ramdas Pophale) SiO2 
 PCOD9548155
Probable space group: P 41 2 2
;
_chemical_formula_sum "Si O2"
_cell_formula_units_Z 48
_cell_length_a 8.995814
_cell_length_b 8.995814
_cell_length_c 31.337408
_cell_angle_alpha 90.000000
_cell_angle_beta 90.000000
_cell_angle_gamma 90.000000
_cell_volume 2535.969386
_symmetry_space_group_name_H-M "P 41 2 2"
_symmetry_group_IT_number 91
_symmetry_cell_setting 'tetragonal'
loop_
_space_group_symop_operation_xyz
x,y,z
-y,x,1/4+z
-x,-y,1/2+z
y,-x,3/4+z
x,-y,1/2-z
-x,y,-z
y,x,3/4-z
-y,-x,1/4-z
loop_
_atom_site_type_symbol
_atom_site_label
_atom_site_fract_x
_atom_site_fract_y
_atom_site_fract_z
Si Si1 0.677627 0.346855 0.498724
Si Si2 0.822583 0.332131 0.001657
Si Si3 0.676280 0.818856 0.580422
Si Si4 0.830951 0.681543 0.834979
Si Si5 0.173148 0.329013 0.161768
Si Si6 0.677895 0.821431 0.416621
O O1 0.500000 0.378491 0.500000
O O2 0.766802 0.498856 0.494388
O O3 0.716393 0.262108 0.542428
O O4 0.705832 0.243001 0.457855
O O5 0.753482 0.264978 0.958598
O O6 0.760161 0.240871 0.041842
O O7 0.000000 0.325627 0.000000
O O8 0.742361 0.757764 0.624590
O O9 0.498789 0.795653 0.578933
O O10 0.704444 0.994788 0.576883
O O11 0.775236 0.775236 0.875000
O O12 0.808679 0.506402 0.844997
O O13 0.997756 0.296592 0.161732
O O14 0.738412 0.738412 0.375000
#
# Coordination Sequence:
#
# PCOD9548155 Si02
#       6
#     8   8   8   8   8   8
#     4  10  21  40  64  87 115 156 201 245 294 348
#     4  12  25  40  60  89 121 156 200 247 295 350
#     4  11  23  40  62  88 120 158 198 243 295 352
#     4  10  22  39  61  88 119 155 197 245 295 352
#     4  10  22  40  62  90 121 154 197 245 294 352
#     4  11  23  41  63  90 122 157 198 243 294 352
#
# _framework density 18.927672000000001
#
# number of rings (size 3 to 8) (size 9 to 14) (size 15 to 20)
#    0.000    1.333    0.000    5.500    0.000   12.000 
#    0.000    1.667    0.000    0.000    0.000    0.000 
#    0.000    0.000    0.000    0.000    0.000    0.000 
#
# Total GULP energy -268538.972536 kJ/mol
# GULP energy per Si atom -5594.561928 kJ/mol
# Density = 1.888459 g / cm^3
# Si number density = 18.927672 Si / 1000 Ang^3
#
#
#
# Elastic Constant Matrix: (Units=GPa)
#
#
# Indices 1 2 3 4 5 6 
#
# 1 102.3829 80.9171 60.3680 0.0000 0.0000 0.0000
# 2 80.9171 102.3829 60.3680 0.0000 0.0000 0.0000
# 3 60.3680 60.3680 127.9562 0.0000 0.0000 0.0000
# 4 0.0000 0.0000 0.0000 57.7273 0.0000 0.0000
# 5 0.0000 0.0000 0.0000 0.0000 57.7273 0.0000
# 6 0.0000 0.0000 0.0000 0.0000 0.0000 8.8930
#
#
#
# Elastic Compliance Matrix: (Units=1/GPa)
#
#
# Indices 1 2 3 4 5 6 
#
# 1 0.027251 -0.019335 -0.003734 0.000000 0.000000 0.000000
# 2 -0.019335 0.027251 -0.003734 0.000000 0.000000 0.000000
# 3 -0.003734 -0.003734 0.011339 0.000000 0.000000 0.000000
# 4 0.000000 0.000000 0.000000 0.017323 0.000000 0.000000
# 5 0.000000 0.000000 0.000000 0.000000 0.017323 0.000000
# 6 0.000000 0.000000 0.000000 0.000000 0.000000 0.112448
#
#
# Mechanical properties :
#
#
# Convention : Reuss Voigt Hill
#
# Bulk Modulus (GPa) = 81.75254 81.78090 81.76672
# Shear Modulus (GPa) = 18.47620 33.60745 26.04183
#
# Velocity S-wave (km/s) = 3.12773 4.21833 3.71328
# Velocity P-wave (km/s) = 7.50529 8.18697 7.85353
#
# Compressibility (1/GPa) = 0.01223204
#
# Stress axis : x y z
#
# Youngs Moduli (GPa) = 36.69654 36.69654 88.19301
#
# Poissons Ratio (x) = 0.70954 0.32934
# Poissons Ratio (y) = 0.70954 0.32934
# Poissons Ratio (z) = 0.13704 0.13704
#
# Static dielectric constant tensor:
#      x y z
#    x 1.627030 0.000000 0.000000 
#    y 0.000000 1.627030 0.000000 
#    z 0.000000 0.000000 1.617410 
# 
# From -- ./inp_files/13587.got.cif
#   From: 2010.05.17/outbox.cif.g08.bks.cpg/sg91_7_cif.got.tgz:13587.got - 2010.06.03 19:20:03.
