data_PCOD9548243
_publ_section_title
;
Structure prediction by ZEFSAII (Michael W. Deem and Ramdas Pophale) SiO2 
 PCOD9548243
Probable space group: P 41 2 2
;
_chemical_formula_sum "Si O2"
_cell_formula_units_Z 44
_cell_length_a 11.845316
_cell_length_b 11.845316
_cell_length_c 15.634117
_cell_angle_alpha 90.000000
_cell_angle_beta 90.000000
_cell_angle_gamma 90.000000
_cell_volume 2193.646582
_symmetry_space_group_name_H-M "P 41 2 2"
_symmetry_group_IT_number 91
_symmetry_cell_setting 'tetragonal'
loop_
_space_group_symop_operation_xyz
x,y,z
-y,x,1/4+z
-x,-y,1/2+z
y,-x,3/4+z
x,-y,1/2-z
-x,y,-z
y,x,3/4-z
-y,-x,1/4-z
loop_
_atom_site_type_symbol
_atom_site_label
_atom_site_fract_x
_atom_site_fract_y
_atom_site_fract_z
Si Si1 0.683643 0.410643 0.450543
Si Si2 0.125031 0.464733 0.036628
Si Si3 0.167817 0.741388 0.350467
Si Si4 0.604807 0.056300 0.553650
Si Si5 0.989241 0.175903 0.400034
Si Si6 0.445510 0.445510 0.375000
O O1 0.779289 0.503036 0.468720
O O2 0.747533 0.300205 0.419107
O O3 0.579976 0.429640 0.385831
O O4 0.619507 0.400709 0.541858
O O5 0.143171 0.338399 0.069598
O O6 0.129908 0.545982 0.120941
O O7 0.000000 0.479217 0.000000
O O8 0.123447 0.673244 0.268362
O O9 0.119797 0.866450 0.361374
O O10 0.500000 0.001322 0.500000
O O11 0.706204 0.989709 0.598858
O O12 0.092033 0.092033 0.375000
O O13 0.000000 0.202672 0.500000
#
# Coordination Sequence:
#
# PCOD9548243 Si02
#       6
#     8   8   8   8   8   4
#     4  11  20  39  61  98 129 171 212 271 337 401
#     4  11  23  40  64  94 132 172 219 278 337 400
#     4  11  23  40  66  98 132 171 225 283 339 397
#     4  10  22  40  65  98 126 167 219 275 335 392
#     4  12  24  43  70 100 133 180 232 285 334 414
#     4  10  22  34  68 100 130 162 218 274 334 404
#
# _framework density 20.057926999999999
#
# number of rings (size 3 to 8) (size 9 to 14) (size 15 to 20)
#    0.000    1.091    3.636    3.818    5.091    0.727 
#    0.000    5.455    4.000    0.000    0.000    0.000 
#    0.000    0.000    0.000    0.000    0.000    0.000 
#
# Total GULP energy -245453.319145 kJ/mol
# GULP energy per Si atom -5578.484526 kJ/mol
# Density = 2.001227 g / cm^3
# Si number density = 20.057927 Si / 1000 Ang^3
#
#
#
# Elastic Constant Matrix: (Units=GPa)
#
#
# Indices 1 2 3 4 5 6 
#
# 1 108.5402 24.6804 25.9053 0.0000 0.0000 0.0000
# 2 24.6804 108.5402 25.9053 0.0000 0.0000 0.0000
# 3 25.9053 25.9053 52.1460 0.0000 0.0000 0.0000
# 4 0.0000 0.0000 0.0000 17.0743 0.0000 0.0000
# 5 0.0000 0.0000 0.0000 0.0000 17.0743 0.0000
# 6 0.0000 0.0000 0.0000 0.0000 0.0000 32.0762
#
#
#
# Elastic Compliance Matrix: (Units=1/GPa)
#
#
# Indices 1 2 3 4 5 6 
#
# 1 0.010614 -0.001310 -0.004622 0.000000 0.000000 0.000000
# 2 -0.001310 0.010614 -0.004622 0.000000 0.000000 0.000000
# 3 -0.004622 -0.004622 0.023769 0.000000 0.000000 0.000000
# 4 0.000000 0.000000 0.000000 0.058567 0.000000 0.000000
# 5 0.000000 0.000000 0.000000 0.000000 0.058567 0.000000
# 6 0.000000 0.000000 0.000000 0.000000 0.000000 0.031176
#
#
# Mechanical properties :
#
#
# Convention : Reuss Voigt Hill
#
# Bulk Modulus (GPa) = 41.86042 46.91202 44.38622
# Shear Modulus (GPa) = 22.48402 26.09401 24.28901
#
# Velocity S-wave (km/s) = 3.35170 3.61076 3.48364
# Velocity P-wave (km/s) = 5.99112 6.38925 6.19339
#
# Compressibility (1/GPa) = 0.02388891
#
# Stress axis : x y z
#
# Youngs Moduli (GPa) = 94.21271 94.21271 42.07127
#
# Poissons Ratio (x) = 0.12346 0.19445
# Poissons Ratio (y) = 0.12346 0.19445
# Poissons Ratio (z) = 0.43545 0.43545
#
# Static dielectric constant tensor:
#      x y z
#    x 1.760140 0.000000 0.000000 
#    y 0.000000 1.760140 0.000000 
#    z 0.000000 0.000000 1.710210 
# 
# From -- ./inp_files/16821.got.cif
#   From: 2010.05.17/outbox.cif.g08.bks.cpg/sg91_9_cif.got.tgz:16821.got - 2010.06.03 19:20:03.
