data_PCOD9548847
_publ_section_title
;
Structure prediction by ZEFSAII (Michael W. Deem and Ramdas Pophale) SiO2 
 PCOD9548847
Probable space group: P 41 2 2
;
_chemical_formula_sum "Si O2"
_cell_formula_units_Z 60
_cell_length_a 12.000000
_cell_length_b 12.000000
_cell_length_c 21.000000
_cell_angle_alpha 90.000000
_cell_angle_beta 90.000000
_cell_angle_gamma 90.000000
_cell_volume 3024.000000
_symmetry_space_group_name_H-M "P 41 2 2"
_symmetry_group_IT_number 91
_symmetry_cell_setting 'tetragonal'
loop_
_space_group_symop_operation_xyz
x,y,z
-y,x,1/4+z
-x,-y,1/2+z
y,-x,3/4+z
x,-y,1/2-z
-x,y,-z
y,x,3/4-z
-y,-x,1/4-z
loop_
_atom_site_type_symbol
_atom_site_label
_atom_site_fract_x
_atom_site_fract_y
_atom_site_fract_z
Si Si1 0.451838 0.795376 0.312894
Si Si2 0.089067 0.000000 0.250000
Si Si3 0.082720 0.798193 0.768678
Si Si4 0.704583 0.056807 0.313709
Si Si5 0.707797 0.998422 0.652218
Si Si6 0.675218 0.850348 0.392747
Si Si7 0.462923 0.395450 0.576214
Si Si8 0.485986 0.817269 0.162539
O O1 0.551454 0.834579 0.361739
O O2 0.404827 0.672029 0.329015
O O3 0.489079 0.785834 0.238298
O O4 0.358150 0.891700 0.318548
O O5 0.175961 0.013635 0.309116
O O6 0.006962 0.108077 0.244813
O O7 0.192896 0.865156 0.793296
O O8 0.120871 0.706072 0.716138
O O9 0.029205 0.737714 0.829476
O O10 0.602682 0.118248 0.347712
O O11 0.656734 0.000000 0.250000
O O12 0.737158 0.951453 0.356181
O O13 0.622084 0.102888 0.655095
O O14 0.736891 0.736891 0.375000
O O15 0.500000 0.402683 0.500000
O O16 0.510016 0.489985 0.625000
O O17 0.510006 0.283792 0.611601
#
# Coordination Sequence:
#
# PCOD9548847 Si02
#       8
#     8   4   8   8   8   8   8   8
#     4  12  24  48  73 103 143 194 246 301 367 440
#     4  12  24  48  72 106 154 196 240 308 376 456
#     4  12  26  42  69 115 147 184 246 307 370 443
#     4  12  21  43  72 100 143 196 233 286 370 451
#     4  12  26  46  74 104 145 198 246 303 372 448
#     4  12  23  41  72 104 143 186 239 300 365 439
#     4  12  28  50  78 108 147 193 253 315 373 439
#     4  12  24  48  77 102 144 195 249 292 368 449
#
# _framework density 19.841270000000002
#
# number of rings (size 3 to 8) (size 9 to 14) (size 15 to 20)
#    0.000    0.000    7.333    2.400    0.000    3.733 
#    2.400    0.000    0.000    0.000    0.000    0.000 
#    0.000    0.000    0.000    0.000    0.000    0.000 
#
# Total GULP energy -335135.269541 kJ/mol
# GULP energy per Si atom -5585.587826 kJ/mol
# Density = 1.979611 g / cm^3
# Si number density = 19.841270 Si / 1000 Ang^3
#
#
#
# Elastic Constant Matrix: (Units=GPa)
#
#
# Indices 1 2 3 4 5 6 
#
# 1 106.5810 23.3461 22.6041 0.0000 0.0000 0.0000
# 2 23.3461 106.5801 22.6038 0.0000 0.0000 0.0000
# 3 22.6041 22.6038 124.8040 0.0000 0.0000 0.0000
# 4 0.0000 0.0000 0.0000 37.0951 0.0000 0.0000
# 5 0.0000 0.0000 0.0000 0.0000 37.0951 0.0000
# 6 0.0000 0.0000 0.0000 0.0000 0.0000 34.5166
#
#
#
# Elastic Compliance Matrix: (Units=1/GPa)
#
#
# Indices 1 2 3 4 5 6 
#
# 1 0.010114 -0.001900 -0.001488 0.000000 0.000000 0.000000
# 2 -0.001900 0.010114 -0.001488 0.000000 0.000000 0.000000
# 3 -0.001488 -0.001488 0.008551 0.000000 0.000000 0.000000
# 4 0.000000 0.000000 0.000000 0.026958 0.000000 0.000000
# 5 0.000000 0.000000 0.000000 0.000000 0.026958 0.000000
# 6 0.000000 0.000000 0.000000 0.000000 0.000000 0.028972
#
#
# Mechanical properties :
#
#
# Convention : Reuss Voigt Hill
#
# Bulk Modulus (GPa) = 52.55101 52.78590 52.66846
# Shear Modulus (GPa) = 39.13558 39.70211 39.41884
#
# Velocity S-wave (km/s) = 4.44603 4.47809 4.46209
# Velocity P-wave (km/s) = 7.27320 7.30750 7.29037
#
# Compressibility (1/GPa) = 0.01902913
#
# Stress axis : x y z
#
# Youngs Moduli (GPa) = 98.87050 98.86978 116.93898
#
# Poissons Ratio (x) = 0.18785 0.17398
# Poissons Ratio (y) = 0.18785 0.17397
# Poissons Ratio (z) = 0.14709 0.14709
#
# Static dielectric constant tensor:
#      x y z
#    x 1.713530 0.000000 0.000000 
#    y 0.000000 1.713530 0.000000 
#    z 0.000000 0.000000 1.732070 
# 
# From -- ./inp_files/12508.got.cif
#   From: 2010.05.17/outbox.ucp.g08.bks.cvg/sg91_7_cif.got.tgz:12508.got - 2010.06.11 10:36:11.
