data_PCOD9548948
_publ_section_title
;
Structure prediction by ZEFSAII (Michael W. Deem and Ramdas Pophale) SiO2 
 PCOD9548948
Probable space group: P 41 21 2
;
_chemical_formula_sum "Si O2"
_cell_formula_units_Z 52
_cell_length_a 16.961913
_cell_length_b 16.961913
_cell_length_c 7.626189
_cell_angle_alpha 90.000000
_cell_angle_beta 90.000000
_cell_angle_gamma 90.000000
_cell_volume 2194.104089
_symmetry_space_group_name_H-M "P 41 21 2"
_symmetry_group_IT_number 92
_symmetry_cell_setting 'tetragonal'
loop_
_space_group_symop_operation_xyz
x,y,z
1/2-y,1/2+x,1/4+z
-x,-y,1/2+z
1/2+y,1/2-x,3/4+z
1/2+x,1/2-y,3/4-z
1/2-x,1/2+y,1/4-z
y,x,-z
-y,-x,1/2-z
loop_
_atom_site_type_symbol
_atom_site_label
_atom_site_fract_x
_atom_site_fract_y
_atom_site_fract_z
Si Si1 0.191326 0.376352 0.243919
Si Si2 0.540747 0.085762 0.015786
Si Si3 0.010038 0.330424 0.257431
Si Si4 0.383940 0.456523 0.776753
Si Si5 0.263883 0.736118 0.750000
Si Si6 0.008207 0.991794 0.750000
Si Si7 0.322321 0.322321 0.000000
Si Si8 0.563872 0.254465 0.139658
O O1 0.201580 0.461144 0.340572
O O2 0.225439 0.313740 0.385385
O O3 0.236787 0.351052 0.066199
O O4 0.097672 0.362828 0.221604
O O5 0.456214 0.059329 0.085998
O O6 0.603327 0.047899 0.155226
O O7 0.544702 0.179317 0.021327
O O8 0.028567 0.270293 0.418037
O O9 0.404318 0.490587 0.585228
O O10 0.336612 0.521363 0.887413
O O11 0.471928 0.449603 0.853180
O O12 0.341918 0.376092 0.828681
O O13 0.343000 0.734420 0.635079
#
# Coordination Sequence:
#
# PCOD9548948 Si02
#       8
#     8   8   8   8   4   4   4   8
#     4  11  24  44  68  98 142 183 230 287 346 417
#     4  10  19  36  59  92 128 171 218 257 327 402
#     4  10  20  41  68  95 131 182 221 268 343 407
#     4  10  22  42  64  97 129 173 231 285 352 420
#     4  10  20  39  68  93 129 172 227 284 336 402
#     4   9  20  41  68  84 128 174 219 293 350 404
#     4  11  28  42  58 103 135 174 240 279 358 420
#     4  10  21  36  64 102 125 167 229 279 340 417
#
# _framework density 23.699876
#
# number of rings (size 3 to 8) (size 9 to 14) (size 15 to 20)
#    0.000    1.846    4.615    0.923    4.308    1.231 
#    2.769    0.000    0.000    0.000    0.000    0.000 
#    0.000    0.000    0.000    0.000    0.000    0.000 
#
# Total GULP energy -289664.603651 kJ/mol
# GULP energy per Si atom -5570.473147 kJ/mol
# Density = 2.364593 g / cm^3
# Si number density = 23.699876 Si / 1000 Ang^3
#
#
#
# Elastic Constant Matrix: (Units=GPa)
#
#
# Indices 1 2 3 4 5 6 
#
# 1 89.4979 43.9745 41.2352 0.0000 0.0000 0.0000
# 2 43.9745 89.4952 41.2328 0.0000 0.0000 0.0000
# 3 41.2352 41.2328 56.7676 0.0000 0.0000 0.0000
# 4 0.0000 0.0000 0.0000 22.7119 0.0000 0.0000
# 5 0.0000 0.0000 0.0000 0.0000 22.7127 0.0000
# 6 0.0000 0.0000 0.0000 0.0000 0.0000 34.5955
#
#
#
# Elastic Compliance Matrix: (Units=1/GPa)
#
#
# Indices 1 2 3 4 5 6 
#
# 1 0.017780 -0.004187 -0.009874 0.000000 0.000000 0.000000
# 2 -0.004187 0.017780 -0.009873 0.000000 0.000000 0.000000
# 3 -0.009874 -0.009873 0.031959 0.000000 0.000000 0.000000
# 4 0.000000 0.000000 0.000000 0.044030 0.000000 0.000000
# 5 0.000000 0.000000 0.000000 0.000000 0.044028 0.000000
# 6 0.000000 0.000000 0.000000 0.000000 0.000000 0.028906
#
#
# Mechanical properties :
#
#
# Convention : Reuss Voigt Hill
#
# Bulk Modulus (GPa) = 50.88745 54.29397 52.59071
# Shear Modulus (GPa) = 20.92922 23.29189 22.11055
#
# Velocity S-wave (km/s) = 2.97491 3.13834 3.05772
# Velocity P-wave (km/s) = 5.77221 6.00757 5.89107
#
# Compressibility (1/GPa) = 0.01965121
#
# Stress axis : x y z
#
# Youngs Moduli (GPa) = 56.24260 56.24321 31.29030
#
# Poissons Ratio (x) = 0.23551 0.30895
# Poissons Ratio (y) = 0.23551 0.30892
# Poissons Ratio (z) = 0.55532 0.55527
#
# Static dielectric constant tensor:
#      x y z
#    x 1.928150 0.000000 0.000000 
#    y 0.000000 1.928160 0.000000 
#    z 0.000000 0.000000 1.719510 
# 
# From -- ./inp_files/1620.got.cif
#   From: 2010.05.17/outbox.cif.g08.bks.cpg/sg92_1_cif.got.tgz:1620.got - 2010.06.03 19:35:17.
