data_PCOD9548609
_publ_section_title
;
Structure prediction by ZEFSAII (Michael W. Deem and Ramdas Pophale) SiO2 
 PCOD9548609
Probable space group: P 41 2 2
;
_chemical_formula_sum "Si O2"
_cell_formula_units_Z 60
_cell_length_a 15.154465
_cell_length_b 15.154465
_cell_length_c 15.284850
_cell_angle_alpha 90.000000
_cell_angle_beta 90.000000
_cell_angle_gamma 90.000000
_cell_volume 3510.285169
_symmetry_space_group_name_H-M "P 41 2 2"
_symmetry_group_IT_number 91
_symmetry_cell_setting 'tetragonal'
loop_
_space_group_symop_operation_xyz
x,y,z
-y,x,1/4+z
-x,-y,1/2+z
y,-x,3/4+z
x,-y,1/2-z
-x,y,-z
y,x,3/4-z
-y,-x,1/4-z
loop_
_atom_site_type_symbol
_atom_site_label
_atom_site_fract_x
_atom_site_fract_y
_atom_site_fract_z
Si Si1 0.482066 0.620754 0.345381
Si Si2 0.485914 0.680333 0.847929
Si Si3 0.348968 0.220442 0.423808
Si Si4 0.952475 0.407815 0.909255
Si Si5 0.781624 0.313034 0.878387
Si Si6 0.500000 0.935495 0.500000
Si Si7 0.796196 0.385779 0.359824
Si Si8 0.903535 0.399121 0.536837
O O1 0.573846 0.573846 0.375000
O O2 0.480407 0.650051 0.245577
O O3 0.406807 0.547827 0.354934
O O4 0.447641 0.708352 0.396128
O O5 0.557746 0.733286 0.902795
O O6 0.399510 0.737943 0.829898
O O7 0.276289 0.276289 0.375000
O O8 0.327295 0.225761 0.524656
O O9 0.351640 0.125769 0.376050
O O10 0.885694 0.327045 0.892506
O O11 0.904494 0.498240 0.938189
O O12 0.008252 0.444076 0.823900
O O13 0.000000 0.383519 0.000000
O O14 0.715995 0.234031 0.907245
O O15 0.569861 0.872454 0.550946
O O16 0.833606 0.385811 0.459142
O O17 0.000000 0.375617 0.500000
#
# Coordination Sequence:
#
# PCOD9548609 Si02
#       8
#     8   8   8   8   8   4   8   8
#     4  11  23  36  49  69 106 157 201 238 281 343
#     4  11  22  35  48  71 105 148 197 243 289 331
#     4  12  20  34  55  82 111 145 189 247 299 339
#     4  11  22  40  63  85 116 157 211 242 298 364
#     4  11  23  36  57  84 113 153 199 250 294 356
#     4  12  24  40  64  88 120 168 198 252 314 362
#     4  11  23  39  54  85 117 152 201 249 298 346
#     4  11  20  39  58  79 115 148 191 248 298 356
#
# _framework density 17.092628000000001
#
# number of rings (size 3 to 8) (size 9 to 14) (size 15 to 20)
#    0.000    0.800    6.667    2.800    3.733    2.133 
#    0.000    0.667    0.000    0.000    0.000    0.000 
#    0.000    6.400    0.000    0.000    0.000    0.000 
#
# Total GULP energy -334324.733453 kJ/mol
# GULP energy per Si atom -5572.078891 kJ/mol
# Density = 1.705372 g / cm^3
# Si number density = 17.092628 Si / 1000 Ang^3
#
#
#
# Elastic Constant Matrix: (Units=GPa)
#
#
# Indices 1 2 3 4 5 6 
#
# 1 88.4473 21.6680 26.1604 0.0000 0.0000 0.0000
# 2 21.6680 88.4473 26.1604 0.0000 0.0000 0.0000
# 3 26.1604 26.1604 74.7126 0.0000 0.0000 0.0000
# 4 0.0000 0.0000 0.0000 26.0659 0.0000 0.0000
# 5 0.0000 0.0000 0.0000 0.0000 26.0659 0.0000
# 6 0.0000 0.0000 0.0000 0.0000 0.0000 699.8992
#
#
#
# Elastic Compliance Matrix: (Units=1/GPa)
#
#
# Indices 1 2 3 4 5 6 
#
# 1 0.012934 -0.002040 -0.003814 0.000000 0.000000 0.000000
# 2 -0.002040 0.012934 -0.003814 0.000000 0.000000 0.000000
# 3 -0.003814 -0.003814 0.016056 0.000000 0.000000 0.000000
# 4 0.000000 0.000000 0.000000 0.038364 0.000000 0.000000
# 5 0.000000 0.000000 0.000000 0.000000 0.038364 0.000000
# 6 0.000000 0.000000 0.000000 0.000000 0.000000 0.001429
#
#
# Mechanical properties :
#
#
# Convention : Reuss Voigt Hill
#
# Bulk Modulus (GPa) = 44.27575 44.39830 44.33703
# Shear Modulus (GPa) = 34.02545 162.24744 98.13644
#
# Velocity S-wave (km/s) = 4.46651 9.75339 7.58546
# Velocity P-wave (km/s) = 7.24978 12.36404 10.13481
#
# Compressibility (1/GPa) = 0.02258573
#
# Stress axis : x y z
#
# Youngs Moduli (GPa) = 77.31416 77.31416 62.28266
#
# Poissons Ratio (x) = 0.15776 0.23757
# Poissons Ratio (y) = 0.15776 0.23757
# Poissons Ratio (z) = 0.29491 0.29491
#
# Static dielectric constant tensor:
#      x y z
#    x 1.625030 0.000000 0.000000 
#    y 0.000000 1.625030 0.000000 
#    z 0.000000 0.000000 1.584340 
# 
# From -- ./inp_files/20858.got.cif
#   From: 2010.05.17/outbox.cif.g08.bks.cpg/sg91_11_cif.got.tgz:20858.got - 2010.06.03 19:20:03.
