data_PCOD9548566
_publ_section_title
;
Structure prediction by ZEFSAII (Michael W. Deem and Ramdas Pophale) SiO2 
 PCOD9548566
Probable space group: P 41 2 2
;
_chemical_formula_sum "Si O2"
_cell_formula_units_Z 40
_cell_length_a 14.287961
_cell_length_b 14.287961
_cell_length_c 9.510575
_cell_angle_alpha 90.000000
_cell_angle_beta 90.000000
_cell_angle_gamma 90.000000
_cell_volume 1941.544223
_symmetry_space_group_name_H-M "P 41 2 2"
_symmetry_group_IT_number 91
_symmetry_cell_setting 'tetragonal'
loop_
_space_group_symop_operation_xyz
x,y,z
-y,x,1/4+z
-x,-y,1/2+z
y,-x,3/4+z
x,-y,1/2-z
-x,y,-z
y,x,3/4-z
-y,-x,1/4-z
loop_
_atom_site_type_symbol
_atom_site_label
_atom_site_fract_x
_atom_site_fract_y
_atom_site_fract_z
Si Si1 0.133182 0.284036 0.914098
Si Si2 0.069541 0.930460 0.125000
Si Si3 0.417933 0.196423 0.386711
Si Si4 0.936684 0.736430 0.722694
Si Si5 0.481417 0.906396 0.661697
Si Si6 0.578712 0.578712 0.875000
O O1 0.217143 0.217143 0.875000
O O2 0.161124 0.392254 0.929370
O O3 0.045497 0.291463 0.805478
O O4 0.097981 0.246468 0.064037
O O5 0.058135 0.826650 0.181749
O O6 0.049126 0.000000 0.250000
O O7 0.500000 0.178059 0.500000
O O8 0.331052 0.141672 0.458276
O O9 0.433737 0.142355 0.240776
O O10 0.425020 0.307469 0.351901
O O11 0.500000 0.927458 0.500000
O O12 0.459154 0.000000 0.750000
O O13 0.561316 0.500000 0.750000
#
# Coordination Sequence:
#
# PCOD9548566 Si02
#       6
#     8   4   8   8   8   4
#     4  11  23  41  68 101 145 183 228 303 369 439
#     4  12  29  44  66  96 133 192 232 284 344 437
#     4  11  22  46  73 102 140 183 240 301 362 426
#     4  11  23  44  69  99 135 185 245 294 357 427
#     4  12  24  43  70 104 137 183 238 305 368 434
#     4  10  25  46  74 102 149 200 234 308 378 453
#
# _framework density 20.602156999999998
#
# number of rings (size 3 to 8) (size 9 to 14) (size 15 to 20)
#    0.000    0.800    4.000    3.600    4.200    6.400 
#    1.800    0.000    0.000    0.000    0.000    0.000 
#    0.000    0.000    0.000    0.000    0.000    0.000 
#
# Total GULP energy -222973.533256 kJ/mol
# GULP energy per Si atom -5574.338331 kJ/mol
# Density = 2.055527 g / cm^3
# Si number density = 20.602157 Si / 1000 Ang^3
#
#
#
# Elastic Constant Matrix: (Units=GPa)
#
#
# Indices 1 2 3 4 5 6 
#
# 1 75.2681 76.9703 58.3090 0.0000 0.0000 0.0000
# 2 76.9703 75.2716 58.3119 0.0000 0.0000 0.0000
# 3 58.3090 58.3119 148.2788 0.0000 0.0000 0.0000
# 4 0.0000 0.0000 0.0000 28.1267 0.0000 0.0000
# 5 0.0000 0.0000 0.0000 0.0000 28.1256 0.0000
# 6 0.0000 0.0000 0.0000 0.0000 0.0000 40.7163
#
#
#
# Elastic Compliance Matrix: (Units=1/GPa)
#
#
# Indices 1 2 3 4 5 6 
#
# 1 -0.289348 0.298745 -0.003701 0.000000 0.000000 0.000000
# 2 0.298745 -0.289342 -0.003692 0.000000 0.000000 0.000000
# 3 -0.003701 -0.003692 0.009651 0.000000 0.000000 0.000000
# 4 0.000000 0.000000 0.000000 0.035553 0.000000 0.000000
# 5 0.000000 0.000000 0.000000 0.000000 0.035555 0.000000
# 6 0.000000 0.000000 0.000000 0.000000 0.000000 0.024560
#
#
# Mechanical properties :
#
#
# Convention : Reuss Voigt Hill
#
# Bulk Modulus (GPa) = 73.17714 76.22232 74.69973
# Shear Modulus (GPa) = -4.75503 26.40888 10.82693
#
# Velocity S-wave (km/s) = -1.52087 3.58418 2.29492
# Velocity P-wave (km/s) = 5.70195 7.36247 6.58476
#
# Compressibility (1/GPa) = 0.01366547
#
# Stress axis : x y z
#
# Youngs Moduli (GPa) = -3.45604 -3.45612 103.61112
#
# Poissons Ratio (x) = 1.03250 0.38346
# Poissons Ratio (y) = 1.03248 0.38258
# Poissons Ratio (z) = -0.01279 -0.01276
#
# Static dielectric constant tensor:
#      x y z
#    x 1.774870 0.000000 0.000000 
#    y 0.000000 1.774870 0.000000 
#    z 0.000000 0.000000 1.736960 
# 
# From -- ./inp_files/19440.got.cif
#   From: 2010.05.17/outbox.cif.g08.bks.cpg/sg91_10_cif.got.tgz:19440.got - 2010.06.03 19:20:03.
