data_PCOD9548551
_publ_section_title
;
Structure prediction by ZEFSAII (Michael W. Deem and Ramdas Pophale) SiO2 
 PCOD9548551
Probable space group: P 41 2 2
;
_chemical_formula_sum "Si O2"
_cell_formula_units_Z 40
_cell_length_a 16.787573
_cell_length_b 16.787573
_cell_length_c 6.536084
_cell_angle_alpha 90.000000
_cell_angle_beta 90.000000
_cell_angle_gamma 90.000000
_cell_volume 1842.016234
_symmetry_space_group_name_H-M "P 41 2 2"
_symmetry_group_IT_number 91
_symmetry_cell_setting 'tetragonal'
loop_
_space_group_symop_operation_xyz
x,y,z
-y,x,1/4+z
-x,-y,1/2+z
y,-x,3/4+z
x,-y,1/2-z
-x,y,-z
y,x,3/4-z
-y,-x,1/4-z
loop_
_atom_site_type_symbol
_atom_site_label
_atom_site_fract_x
_atom_site_fract_y
_atom_site_fract_z
Si Si1 0.386331 0.000000 0.750000
Si Si2 0.403636 0.263485 0.157984
Si Si3 0.256014 0.935153 0.064290
Si Si4 0.748944 0.251057 0.625000
Si Si5 0.500000 0.881450 0.500000
Si Si6 0.357432 0.500000 0.250000
Si Si7 0.598013 0.598013 0.375000
Si Si8 0.920068 0.079933 0.625000
O O1 0.444052 0.936131 0.641672
O O2 0.325001 0.038684 0.588767
O O3 0.308761 0.272684 0.188068
O O4 0.442562 0.303143 0.360140
O O5 0.440907 0.176557 0.126887
O O6 0.418847 0.312888 0.951204
O O7 0.269712 0.842283 0.110569
O O8 0.162549 0.927501 0.997135
O O9 0.257897 0.000000 0.250000
O O10 0.409343 0.548817 0.415029
O O11 0.000000 0.079889 0.500000
#
# Coordination Sequence:
#
# PCOD9548551 Si02
#       8
#     4   8   8   4   4   4   4   4
#     4  12  30  48  74 108 152 208 252 324 400 472
#     4  12  26  46  77 108 142 199 260 314 390 468
#     4  10  24  49  69 112 156 194 260 313 386 469
#     4  11  24  44  80 103 148 205 249 328 370 476
#     4  12  30  49  74 109 154 208 262 330 404 479
#     4  12  24  47  78 107 152 184 254 314 396 471
#     4  12  24  48  78 112 139 193 248 320 390 478
#     4   9  20  40  74 113 157 200 245 314 382 460
#
# _framework density 21.715333000000001
#
# number of rings (size 3 to 8) (size 9 to 14) (size 15 to 20)
#    0.000    0.800    4.000    1.200   11.200    0.000 
#    0.000    2.000   30.800    0.000    0.000    0.000 
#    0.000    0.000    0.000    0.000    0.000    0.000 
#
# Total GULP energy -223099.237430 kJ/mol
# GULP energy per Si atom -5577.480936 kJ/mol
# Density = 2.166591 g / cm^3
# Si number density = 21.715333 Si / 1000 Ang^3
#
#
#
# Elastic Constant Matrix: (Units=GPa)
#
#
# Indices 1 2 3 4 5 6 
#
# 1 142.6670 70.8788 68.5659 0.0000 0.0000 0.0000
# 2 70.8788 142.6653 68.5654 0.0000 0.0000 0.0000
# 3 68.5659 68.5654 113.9106 0.0000 0.0000 0.0000
# 4 0.0000 0.0000 0.0000 33.5590 0.0000 0.0000
# 5 0.0000 0.0000 0.0000 0.0000 33.5585 0.0000
# 6 0.0000 0.0000 0.0000 0.0000 0.0000 34.9082
#
#
#
# Elastic Compliance Matrix: (Units=1/GPa)
#
#
# Indices 1 2 3 4 5 6 
#
# 1 0.010782 -0.003148 -0.004595 0.000000 0.000000 0.000000
# 2 -0.003148 0.010782 -0.004595 0.000000 0.000000 0.000000
# 3 -0.004595 -0.004595 0.014310 0.000000 0.000000 0.000000
# 4 0.000000 0.000000 0.000000 0.029798 0.000000 0.000000
# 5 0.000000 0.000000 0.000000 0.000000 0.029799 0.000000
# 6 0.000000 0.000000 0.000000 0.000000 0.000000 0.028647
#
#
# Mechanical properties :
#
#
# Convention : Reuss Voigt Hill
#
# Bulk Modulus (GPa) = 89.30112 90.58477 89.94294
# Shear Modulus (GPa) = 32.78137 33.15399 32.96768
#
# Velocity S-wave (km/s) = 3.88957 3.91161 3.90060
# Velocity P-wave (km/s) = 7.83482 7.88709 7.86100
#
# Compressibility (1/GPa) = 0.01119807
#
# Stress axis : x y z
#
# Youngs Moduli (GPa) = 92.74980 92.74885 69.88003
#
# Poissons Ratio (x) = 0.29200 0.32108
# Poissons Ratio (y) = 0.29200 0.32108
# Poissons Ratio (z) = 0.42616 0.42616
#
# Static dielectric constant tensor:
#      x y z
#    x 1.861240 0.000000 0.000000 
#    y 0.000000 1.861250 0.000000 
#    z 0.000000 0.000000 1.773880 
# 
# From -- ./inp_files/952.got.cif
#   From: 2010.05.17/outbox.cif.g08.bks.cpg/sg91_1_cif.got.tgz:952.got - 2010.06.03 19:20:03.
