data_PCOD9548993
_publ_section_title
;
Structure prediction by ZEFSAII (Michael W. Deem and Ramdas Pophale) SiO2 
 PCOD9548993
Probable space group: P 41 21 2
;
_chemical_formula_sum "Si O2"
_cell_formula_units_Z 40
_cell_length_a 20.288209
_cell_length_b 20.288209
_cell_length_c 4.973768
_cell_angle_alpha 90.000000
_cell_angle_beta 90.000000
_cell_angle_gamma 90.000000
_cell_volume 2047.259731
_symmetry_space_group_name_H-M "P 41 21 2"
_symmetry_group_IT_number 92
_symmetry_cell_setting 'tetragonal'
loop_
_space_group_symop_operation_xyz
x,y,z
1/2-y,1/2+x,1/4+z
-x,-y,1/2+z
1/2+y,1/2-x,3/4+z
1/2+x,1/2-y,3/4-z
1/2-x,1/2+y,1/4-z
y,x,-z
-y,-x,1/2-z
loop_
_atom_site_type_symbol
_atom_site_label
_atom_site_fract_x
_atom_site_fract_y
_atom_site_fract_z
Si Si1 0.984719 0.083492 0.994351
Si Si2 0.149657 0.513193 0.214851
Si Si3 0.156116 0.740421 0.832020
Si Si4 0.434941 0.274210 0.916716
Si Si5 0.095248 0.378880 0.468866
O O1 0.940155 0.059846 0.250000
O O2 0.960424 0.039577 0.750000
O O3 0.969530 0.156915 0.898242
O O4 0.061575 0.061575 0.000000
O O5 0.216530 0.488914 0.069394
O O6 0.114901 0.448586 0.336144
O O7 0.159799 0.560441 0.473037
O O8 0.110478 0.549103 0.977006
O O9 0.224201 0.775800 0.750000
O O10 0.107529 0.758117 0.592497
O O11 0.156841 0.661042 0.832502
O O12 0.117835 0.769766 0.090949
#
# Coordination Sequence:
#
# PCOD9548993 Si02
#       5
#     8   8   8   8   8
#     4  10  20  34  55  85 118 150 190 235 282 346
#     4  11  23  40  61  84 118 151 193 244 291 349
#     4  11  22  38  62  87 114 149 195 241 284 340
#     4  11  21  37  59  85 116 152 192 240 293 341
#     4  11  23  41  60  87 117 152 192 240 294 344
#
# _framework density 19.538312000000001
#
# number of rings (size 3 to 8) (size 9 to 14) (size 15 to 20)
#    0.000    1.200    0.000    9.600    0.000    1.600 
#    0.000    4.000    0.000    0.000    0.000    0.000 
#    0.000    0.000    0.000    0.000    0.000    0.000 
#
# Total GULP energy -223016.002314 kJ/mol
# GULP energy per Si atom -5575.400058 kJ/mol
# Density = 1.949384 g / cm^3
# Si number density = 19.538312 Si / 1000 Ang^3
#
#
#
# Elastic Constant Matrix: (Units=GPa)
#
#
# Indices 1 2 3 4 5 6 
#
# 1 100.2415 34.8850 26.1685 0.0000 0.0000 0.0000
# 2 34.8850 100.2436 26.1695 0.0000 0.0000 0.0000
# 3 26.1685 26.1695 140.5959 0.0000 0.0000 0.0000
# 4 0.0000 0.0000 0.0000 30.4933 0.0000 0.0000
# 5 0.0000 0.0000 0.0000 0.0000 30.4922 0.0000
# 6 0.0000 0.0000 0.0000 0.0000 0.0000 31.5401
#
#
#
# Elastic Compliance Matrix: (Units=1/GPa)
#
#
# Indices 1 2 3 4 5 6 
#
# 1 0.011638 -0.003663 -0.001484 0.000000 0.000000 0.000000
# 2 -0.003663 0.011638 -0.001484 0.000000 0.000000 0.000000
# 3 -0.001484 -0.001484 0.007665 0.000000 0.000000 0.000000
# 4 0.000000 0.000000 0.000000 0.032794 0.000000 0.000000
# 5 0.000000 0.000000 0.000000 0.000000 0.032795 0.000000
# 6 0.000000 0.000000 0.000000 0.000000 0.000000 0.031706
#
#
# Mechanical properties :
#
#
# Convention : Reuss Voigt Hill
#
# Bulk Modulus (GPa) = 56.56706 57.28078 56.92392
# Shear Modulus (GPa) = 33.92326 35.42901 34.67613
#
# Velocity S-wave (km/s) = 4.17135 4.26292 4.21738
# Velocity P-wave (km/s) = 7.22599 7.32194 7.27412
#
# Compressibility (1/GPa) = 0.01767813
#
# Stress axis : x y z
#
# Youngs Moduli (GPa) = 85.92529 85.92688 130.46007
#
# Poissons Ratio (x) = 0.31471 0.19366
# Poissons Ratio (y) = 0.31470 0.19367
# Poissons Ratio (z) = 0.12755 0.12756
#
# Static dielectric constant tensor:
#      x y z
#    x 1.748080 0.000000 0.000000 
#    y 0.000000 1.748070 0.000000 
#    z 0.000000 0.000000 1.660450 
# 
# From -- ./inp_files/441.got.cif
#   From: 2010.05.17/outbox.cif.g08.bks.cpg/sg92_1_cif.got.tgz:441.got - 2010.06.03 19:35:17.
