data_PCOD9548630
_publ_section_title
;
Structure prediction by ZEFSAII (Michael W. Deem and Ramdas Pophale) SiO2 
 PCOD9548630
Probable space group: P 41 2 2
;
_chemical_formula_sum "Si O2"
_cell_formula_units_Z 48
_cell_length_a 12.351312
_cell_length_b 12.351312
_cell_length_c 17.613000
_cell_angle_alpha 90.000000
_cell_angle_beta 90.000000
_cell_angle_gamma 90.000000
_cell_volume 2686.949597
_symmetry_space_group_name_H-M "P 41 2 2"
_symmetry_group_IT_number 91
_symmetry_cell_setting 'tetragonal'
loop_
_space_group_symop_operation_xyz
x,y,z
-y,x,1/4+z
-x,-y,1/2+z
y,-x,3/4+z
x,-y,1/2-z
-x,y,-z
y,x,3/4-z
-y,-x,1/4-z
loop_
_atom_site_type_symbol
_atom_site_label
_atom_site_fract_x
_atom_site_fract_y
_atom_site_fract_z
Si Si1 0.052475 0.232654 0.346945
Si Si2 0.536840 0.949317 0.831636
Si Si3 0.438732 0.305389 0.319903
Si Si4 0.672568 0.405052 0.811203
Si Si5 0.879434 0.958611 0.165385
Si Si6 0.668362 0.087889 0.429226
O O1 0.155336 0.155336 0.375000
O O2 0.024462 0.337203 0.399053
O O3 0.069773 0.290349 0.265236
O O4 0.951176 0.150766 0.340591
O O5 0.540049 0.820114 0.824057
O O6 0.444797 0.964793 0.897816
O O7 0.506601 0.000000 0.750000
O O8 0.338459 0.338459 0.375000
O O9 0.415174 0.338475 0.234632
O O10 0.538706 0.363615 0.361403
O O11 0.701336 0.500000 0.750000
O O12 0.782429 0.342785 0.826016
O O13 0.764988 0.947307 0.125094
O O14 0.864656 0.000000 0.250000
O O15 0.950847 0.049154 0.125000
#
# Coordination Sequence:
#
# PCOD9548630 Si02
#       6
#     8   8   8   8   8   8
#     4  11  23  35  61  89 123 149 196 260 304 348
#     4  11  23  35  56  90 119 153 196 241 297 355
#     4   9  17  32  51  84 112 141 182 230 287 340
#     4   9  17  30  55  84 112 142 184 234 291 337
#     4  11  23  40  57  86 117 162 201 243 296 368
#     4  11  21  38  57  82 121 158 194 241 300 363
#
# _framework density 17.864124
#
# number of rings (size 3 to 8) (size 9 to 14) (size 15 to 20)
#    0.000    1.667    1.667    5.500    4.667    0.000 
#    0.000    0.000    0.000    0.000   47.667    0.000 
#    0.000    0.000    0.000    0.000    0.000    0.000 
#
# Total GULP energy -267240.886045 kJ/mol
# GULP energy per Si atom -5567.518459 kJ/mol
# Density = 1.782346 g / cm^3
# Si number density = 17.864124 Si / 1000 Ang^3
#
#
#
# Elastic Constant Matrix: (Units=GPa)
#
#
# Indices 1 2 3 4 5 6 
#
# 1 43.3575 39.8730 14.6717 0.0000 0.0000 0.0000
# 2 39.8730 43.3573 14.6711 0.0000 0.0000 0.0000
# 3 14.6717 14.6711 79.6477 0.0000 0.0000 0.0000
# 4 0.0000 0.0000 0.0000 116.8931 0.0000 0.0000
# 5 0.0000 0.0000 0.0000 0.0000 116.9807 0.0000
# 6 0.0000 0.0000 0.0000 0.0000 0.0000 3.5872
#
#
#
# Elastic Compliance Matrix: (Units=1/GPa)
#
#
# Indices 1 2 3 4 5 6 
#
# 1 0.149922 -0.137073 -0.002368 0.000000 0.000000 0.000000
# 2 -0.137073 0.149922 -0.002366 0.000000 0.000000 0.000000
# 3 -0.002368 -0.002366 0.013427 0.000000 0.000000 0.000000
# 4 0.000000 0.000000 0.000000 0.008555 0.000000 0.000000
# 5 0.000000 0.000000 0.000000 0.000000 0.008548 0.000000
# 6 0.000000 0.000000 0.000000 0.000000 0.000000 0.278769
#
#
# Mechanical properties :
#
#
# Convention : Reuss Voigt Hill
#
# Bulk Modulus (GPa) = 33.71736 33.86599 33.79168
# Shear Modulus (GPa) = 5.53929 53.96866 29.75398
#
# Velocity S-wave (km/s) = 1.76282 5.50238 4.08557
# Velocity P-wave (km/s) = 4.80195 7.70500 6.41972
#
# Compressibility (1/GPa) = 0.02965831
#
# Stress axis : x y z
#
# Youngs Moduli (GPa) = 6.67015 6.67014 74.47532
#
# Poissons Ratio (x) = 0.91429 0.17635
# Poissons Ratio (y) = 0.91429 0.17620
# Poissons Ratio (z) = 0.01579 0.01578
#
# Static dielectric constant tensor:
#      x y z
#    x 1.621760 0.000000 0.000000 
#    y 0.000000 1.621750 0.000000 
#    z 0.000000 0.000000 1.626010 
# 
# From -- ./inp_files/11941.got.cif
#   From: 2010.05.17/outbox.cif.g08.bks.cpg/sg91_6_cif.got.tgz:11941.got - 2010.06.03 19:20:03.
