data_PCOD9548220
_publ_section_title
;
Structure prediction by ZEFSAII (Michael W. Deem and Ramdas Pophale) SiO2 
 PCOD9548220
Probable space group: P 41 2 2
;
_chemical_formula_sum "Si O2"
_cell_formula_units_Z 48
_cell_length_a 8.701547
_cell_length_b 8.701547
_cell_length_c 28.111752
_cell_angle_alpha 90.000000
_cell_angle_beta 90.000000
_cell_angle_gamma 90.000000
_cell_volume 2128.535283
_symmetry_space_group_name_H-M "P 41 2 2"
_symmetry_group_IT_number 91
_symmetry_cell_setting 'tetragonal'
loop_
_space_group_symop_operation_xyz
x,y,z
-y,x,1/4+z
-x,-y,1/2+z
y,-x,3/4+z
x,-y,1/2-z
-x,y,-z
y,x,3/4-z
-y,-x,1/4-z
loop_
_atom_site_type_symbol
_atom_site_label
_atom_site_fract_x
_atom_site_fract_y
_atom_site_fract_z
Si Si1 0.819273 0.870404 0.678384
Si Si2 0.841617 0.239314 0.926328
Si Si3 0.098669 0.477477 0.954484
Si Si4 0.981630 0.323490 0.255459
Si Si5 0.539293 0.339663 0.274107
Si Si6 0.226828 0.775203 0.069010
O O1 0.859152 0.847218 0.623130
O O2 0.633941 0.844310 0.680529
O O3 0.922145 0.757408 0.711904
O O4 0.829077 0.051547 0.691025
O O5 0.807316 0.127389 0.970852
O O6 0.689056 0.346313 0.931861
O O7 0.986542 0.355473 0.929781
O O8 0.242055 0.397175 0.979214
O O9 0.000000 0.529724 0.000000
O O10 0.917135 0.500000 0.250000
O O11 0.103242 0.345184 0.298165
O O12 0.512237 0.500000 0.250000
O O13 0.380845 0.269360 0.292664
O O14 0.242838 0.757163 0.125000
#
# Coordination Sequence:
#
# PCOD9548220 Si02
#       6
#     8   8   8   8   8   8
#     4  12  24  45  76 105 150 204 250 316 388 458
#     4  11  26  45  73 107 155 195 252 315 388 463
#     4  10  21  44  73  98 142 201 239 299 380 451
#     4  12  27  45  76 118 149 191 257 326 379 458
#     4  11  24  46  72 104 146 200 248 315 381 455
#     4  12  24  44  73 108 144 193 258 306 385 462
#
# _framework density 22.550719999999998
#
# number of rings (size 3 to 8) (size 9 to 14) (size 15 to 20)
#    0.000    0.667    6.667    1.500    4.667    4.000 
#    0.000    0.000    3.667    0.000    0.000    0.000 
#    0.000    0.000    0.000    0.000    0.000    0.000 
#
# Total GULP energy -267304.068510 kJ/mol
# GULP energy per Si atom -5568.834761 kJ/mol
# Density = 2.249939 g / cm^3
# Si number density = 22.550720 Si / 1000 Ang^3
#
#
#
# Elastic Constant Matrix: (Units=GPa)
#
#
# Indices 1 2 3 4 5 6 
#
# 1 72.8170 53.8211 43.4486 0.0000 0.0000 0.0000
# 2 53.8211 72.8170 43.4484 0.0000 0.0000 0.0000
# 3 43.4486 43.4484 96.5220 0.0000 0.0000 0.0000
# 4 0.0000 0.0000 0.0000 22.8653 0.0000 0.0000
# 5 0.0000 0.0000 0.0000 0.0000 22.8653 0.0000
# 6 0.0000 0.0000 0.0000 0.0000 0.0000 19.9529
#
#
#
# Elastic Compliance Matrix: (Units=1/GPa)
#
#
# Indices 1 2 3 4 5 6 
#
# 1 0.032034 -0.020609 -0.005143 0.000000 0.000000 0.000000
# 2 -0.020609 0.032034 -0.005143 0.000000 0.000000 0.000000
# 3 -0.005143 -0.005143 0.014991 0.000000 0.000000 0.000000
# 4 0.000000 0.000000 0.000000 0.043734 0.000000 0.000000
# 5 0.000000 0.000000 0.000000 0.000000 0.043734 0.000000
# 6 0.000000 0.000000 0.000000 0.000000 0.000000 0.050118
#
#
# Mechanical properties :
#
#
# Convention : Reuss Voigt Hill
#
# Bulk Modulus (GPa) = 57.90615 58.17692 58.04154
# Shear Modulus (GPa) = 17.59371 19.89922 18.74647
#
# Velocity S-wave (km/s) = 2.79621 2.97378 2.88636
# Velocity P-wave (km/s) = 6.01323 6.13559 6.07472
#
# Compressibility (1/GPa) = 0.01726932
#
# Stress axis : x y z
#
# Youngs Moduli (GPa) = 31.21646 31.21659 66.70829
#
# Poissons Ratio (x) = 0.64333 0.34310
# Poissons Ratio (y) = 0.64333 0.34309
# Poissons Ratio (z) = 0.16055 0.16055
#
# Static dielectric constant tensor:
#      x y z
#    x 1.959040 0.000000 0.000000 
#    y 0.000000 1.959040 0.000000 
#    z 0.000000 0.000000 1.838790 
# 
# From -- ./inp_files/7997.got.cif
#   From: 2010.05.17/outbox.cif.g08.bks.cpg/sg91_4_cif.got.tgz:7997.got - 2010.06.03 19:20:03.
