data_PCOD9548075
_publ_section_title
;
Structure prediction by ZEFSAII (Michael W. Deem and Ramdas Pophale) SiO2 
 PCOD9548075
Probable space group: P 41 2 2
;
_chemical_formula_sum "Si O2"
_cell_formula_units_Z 64
_cell_length_a 18.121922
_cell_length_b 18.121922
_cell_length_c 11.503741
_cell_angle_alpha 90.000000
_cell_angle_beta 90.000000
_cell_angle_gamma 90.000000
_cell_volume 3777.875215
_symmetry_space_group_name_H-M "P 41 2 2"
_symmetry_group_IT_number 91
_symmetry_cell_setting 'tetragonal'
loop_
_space_group_symop_operation_xyz
x,y,z
-y,x,1/4+z
-x,-y,1/2+z
y,-x,3/4+z
x,-y,1/2-z
-x,y,-z
y,x,3/4-z
-y,-x,1/4-z
loop_
_atom_site_type_symbol
_atom_site_label
_atom_site_fract_x
_atom_site_fract_y
_atom_site_fract_z
Si Si1 0.027654 0.563362 0.632141
Si Si2 0.919169 0.408823 0.458692
Si Si3 0.716398 0.835165 0.107111
Si Si4 0.889787 0.285268 0.116419
Si Si5 0.126106 0.950259 0.360296
Si Si6 0.819886 0.974763 0.092509
Si Si7 0.153861 0.261947 0.631162
Si Si8 0.575534 0.874602 0.971203
O O1 0.067327 0.482348 0.621134
O O2 0.077646 0.634858 0.652162
O O3 0.000000 0.572886 0.500000
O O4 0.955532 0.571324 0.714384
O O5 0.874362 0.342462 0.402185
O O6 0.883082 0.425568 0.583081
O O7 0.000000 0.382108 0.500000
O O8 0.703971 0.847674 0.245291
O O9 0.761946 0.908841 0.074004
O O10 0.766682 0.763791 0.088093
O O11 0.644587 0.835532 0.028640
O O12 0.846018 0.256324 0.228396
O O13 0.956314 0.225236 0.103381
O O14 0.063496 0.891715 0.398850
O O15 0.199925 0.902624 0.333090
O O16 0.104785 0.000000 0.250000
O O17 0.149568 0.999325 0.468543
O O18 0.500000 0.834311 0.000000
#
# Coordination Sequence:
#
# PCOD9548075 Si02
#       8
#     8   8   8   8   8   8   8   8
#     4  11  19  32  54  84 105 129 173 225 277 322
#     4  11  22  34  53  81 111 132 175 220 268 327
#     4  11  22  37  52  74 101 139 179 216 269 331
#     4  11  19  37  57  72 101 131 179 226 269 326
#     4  10  21  36  50  64  92 127 177 228 277 318
#     4  10  21  35  51  70  89 129 171 233 280 314
#     4  10  24  35  51  74 101 143 175 215 270 324
#     4  12  21  34  56  80 105 134 169 222 274 321
#
# _framework density 16.940740999999999
#
# number of rings (size 3 to 8) (size 9 to 14) (size 15 to 20)
#    0.000    1.250    5.000    2.250    3.500    0.500 
#    0.000   11.875    0.000    0.000    0.000    0.000 
#    0.000    0.000    0.000    0.000   61.750    0.000 
#
# Total GULP energy -357057.963081 kJ/mol
# GULP energy per Si atom -5579.030673 kJ/mol
# Density = 1.690218 g / cm^3
# Si number density = 16.940741 Si / 1000 Ang^3
#
#
#
# Elastic Constant Matrix: (Units=GPa)
#
#
# Indices 1 2 3 4 5 6 
#
# 1 76.7648 37.4917 22.8643 0.0000 0.0000 0.0000
# 2 37.4917 76.7648 22.8643 0.0000 0.0000 0.0000
# 3 22.8643 22.8643 62.2133 0.0000 0.0000 0.0000
# 4 0.0000 0.0000 0.0000 22.0045 0.0000 0.0000
# 5 0.0000 0.0000 0.0000 0.0000 22.0045 0.0000
# 6 0.0000 0.0000 0.0000 0.0000 0.0000 22.1131
#
#
#
# Elastic Compliance Matrix: (Units=1/GPa)
#
#
# Indices 1 2 3 4 5 6 
#
# 1 0.017862 -0.007601 -0.003771 0.000000 0.000000 0.000000
# 2 -0.007601 0.017862 -0.003771 0.000000 0.000000 0.000000
# 3 -0.003771 -0.003771 0.018846 0.000000 0.000000 0.000000
# 4 0.000000 0.000000 0.000000 0.045445 0.000000 0.000000
# 5 0.000000 0.000000 0.000000 0.000000 0.045445 0.000000
# 6 0.000000 0.000000 0.000000 0.000000 0.000000 0.045222
#
#
# Mechanical properties :
#
#
# Convention : Reuss Voigt Hill
#
# Bulk Modulus (GPa) = 41.17973 42.46483 41.82228
# Shear Modulus (GPa) = 21.82799 22.05924 21.94361
#
# Velocity S-wave (km/s) = 3.59345 3.61243 3.60295
# Velocity P-wave (km/s) = 6.44810 6.52079 6.48455
#
# Compressibility (1/GPa) = 0.02428379
#
# Stress axis : x y z
#
# Youngs Moduli (GPa) = 55.98420 55.98420 53.06237
#
# Poissons Ratio (x) = 0.42551 0.20011
# Poissons Ratio (y) = 0.42551 0.20011
# Poissons Ratio (z) = 0.21113 0.21113
#
# Static dielectric constant tensor:
#      x y z
#    x 1.589290 0.000000 0.000000 
#    y 0.000000 1.589290 0.000000 
#    z 0.000000 0.000000 1.665380 
# 
# From -- ./inp_files/4049.got.cif
#   From: 2010.05.17/outbox.cif.g08.bks.cpg/sg91_3_cif.got.tgz:4049.got - 2010.06.03 19:20:03.
