data_PCOD9548357
_publ_section_title
;
Structure prediction by ZEFSAII (Michael W. Deem and Ramdas Pophale) SiO2 
 PCOD9548357
Probable space group: P 41 2 2
;
_chemical_formula_sum "Si O2"
_cell_formula_units_Z 48
_cell_length_a 9.006167
_cell_length_b 9.006167
_cell_length_c 25.948840
_cell_angle_alpha 90.000000
_cell_angle_beta 90.000000
_cell_angle_gamma 90.000000
_cell_volume 2104.737504
_symmetry_space_group_name_H-M "P 41 2 2"
_symmetry_group_IT_number 91
_symmetry_cell_setting 'tetragonal'
loop_
_space_group_symop_operation_xyz
x,y,z
-y,x,1/4+z
-x,-y,1/2+z
y,-x,3/4+z
x,-y,1/2-z
-x,y,-z
y,x,3/4-z
-y,-x,1/4-z
loop_
_atom_site_type_symbol
_atom_site_label
_atom_site_fract_x
_atom_site_fract_y
_atom_site_fract_z
Si Si1 0.104322 0.705369 0.298521
Si Si2 0.632848 0.569360 0.033090
Si Si3 0.971106 0.000000 0.250000
Si Si4 0.582995 0.417006 0.125000
Si Si5 0.758537 0.143943 0.329129
Si Si6 0.536699 0.874937 0.583166
Si Si7 0.526495 0.042292 0.802223
O O1 0.260138 0.662968 0.271961
O O2 0.129933 0.752360 0.358708
O O3 0.050253 0.847769 0.266773
O O4 0.994309 0.563434 0.303215
O O5 0.575535 0.563186 0.091086
O O6 0.787515 0.481975 0.038606
O O7 0.500000 0.504591 0.000000
O O8 0.876165 0.960236 0.199267
O O9 0.571920 0.264203 0.094148
O O10 0.802984 0.311318 0.312550
O O11 0.603082 0.078031 0.308408
O O12 0.585015 0.943161 0.639354
O O13 0.615690 0.000000 0.750000
#
# Coordination Sequence:
#
# PCOD9548357 Si02
#       7
#     8   8   4   4   8   8   8
#     4  11  26  48  67 106 151 188 250 304 379 455
#     4  11  26  43  70 104 144 187 236 307 377 443
#     4  12  28  40  74 100 144 202 246 302 378 446
#     4  10  22  46  66 102 130 190 230 302 352 426
#     4  11  23  47  70 103 138 194 247 310 369 436
#     4  10  24  42  72  98 147 183 242 306 361 435
#     4  10  22  42  69 101 140 187 242 301 366 444
#
# _framework density 22.805692000000001
#
# number of rings (size 3 to 8) (size 9 to 14) (size 15 to 20)
#    0.000    1.333    4.167    0.500   12.833    0.000 
#    0.000    0.000    0.000    0.000    0.000    0.000 
#    0.000    0.000    0.000    0.000    0.000    0.000 
#
# Total GULP energy -267410.619325 kJ/mol
# GULP energy per Si atom -5571.054569 kJ/mol
# Density = 2.275379 g / cm^3
# Si number density = 22.805692 Si / 1000 Ang^3
#
#
#
# Elastic Constant Matrix: (Units=GPa)
#
#
# Indices 1 2 3 4 5 6 
#
# 1 84.7696 40.6171 16.3496 0.0000 0.0000 0.0000
# 2 40.6171 84.7695 16.3499 0.0000 0.0000 0.0000
# 3 16.3496 16.3499 71.3258 0.0000 0.0000 0.0000
# 4 0.0000 0.0000 0.0000 19.7188 0.0000 0.0000
# 5 0.0000 0.0000 0.0000 0.0000 19.7189 0.0000
# 6 0.0000 0.0000 0.0000 0.0000 0.0000 38.9871
#
#
#
# Elastic Compliance Matrix: (Units=1/GPa)
#
#
# Indices 1 2 3 4 5 6 
#
# 1 0.015566 -0.007083 -0.001944 0.000000 0.000000 0.000000
# 2 -0.007083 0.015566 -0.001944 0.000000 0.000000 0.000000
# 3 -0.001944 -0.001944 0.014912 0.000000 0.000000 0.000000
# 4 0.000000 0.000000 0.000000 0.050713 0.000000 0.000000
# 5 0.000000 0.000000 0.000000 0.000000 0.050713 0.000000
# 6 0.000000 0.000000 0.000000 0.000000 0.000000 0.025649
#
#
# Mechanical properties :
#
#
# Convention : Reuss Voigt Hill
#
# Bulk Modulus (GPa) = 41.49578 43.05534 42.27556
# Shear Modulus (GPa) = 24.61902 26.85485 25.73694
#
# Velocity S-wave (km/s) = 3.28916 3.43527 3.36301
# Velocity P-wave (km/s) = 5.71486 5.88685 5.80149
#
# Compressibility (1/GPa) = 0.02409884
#
# Stress axis : x y z
#
# Youngs Moduli (GPa) = 64.24427 64.24412 67.06195
#
# Poissons Ratio (x) = 0.45505 0.13039
# Poissons Ratio (y) = 0.45506 0.13040
# Poissons Ratio (z) = 0.12491 0.12492
#
# Static dielectric constant tensor:
#      x y z
#    x 1.884770 0.000000 0.000000 
#    y 0.000000 1.884760 0.000000 
#    z 0.000000 0.000000 2.057070 
# 
# From -- ./inp_files/8033.got.cif
#   From: 2010.05.17/outbox.cif.g08.bks.cpg/sg91_5_cif.got.tgz:8033.got - 2010.06.03 19:20:03.
