data_PCOD9548817
_publ_section_title
;
Structure prediction by ZEFSAII (Michael W. Deem and Ramdas Pophale) SiO2 
 PCOD9548817
Probable space group: P 41 2 2
;
_chemical_formula_sum "Si O2"
_cell_formula_units_Z 32
_cell_length_a 11.306646
_cell_length_b 11.306646
_cell_length_c 10.845607
_cell_angle_alpha 90.000000
_cell_angle_beta 90.000000
_cell_angle_gamma 90.000000
_cell_volume 1386.505043
_symmetry_space_group_name_H-M "P 41 2 2"
_symmetry_group_IT_number 91
_symmetry_cell_setting 'tetragonal'
loop_
_space_group_symop_operation_xyz
x,y,z
-y,x,1/4+z
-x,-y,1/2+z
y,-x,3/4+z
x,-y,1/2-z
-x,y,-z
y,x,3/4-z
-y,-x,1/4-z
loop_
_atom_site_type_symbol
_atom_site_label
_atom_site_fract_x
_atom_site_fract_y
_atom_site_fract_z
Si Si1 0.900771 0.283807 0.339535
Si Si2 0.799906 0.486330 0.513290
Si Si3 0.951827 0.048174 0.625000
Si Si4 0.724137 0.724137 0.375000
Si Si5 0.955249 0.500000 0.750000
Si Si6 0.445403 0.445403 0.375000
O O1 0.837957 0.363120 0.446882
O O2 0.799413 0.240637 0.245916
O O3 0.997031 0.182864 0.373808
O O4 0.971514 0.382154 0.266317
O O5 0.757086 0.588056 0.416073
O O6 0.896734 0.518928 0.615117
O O7 0.691057 0.465689 0.604968
O O8 0.000000 0.994041 0.500000
O O9 0.500000 0.493255 0.500000
#
# Coordination Sequence:
#
# PCOD9548817 Si02
#       6
#     8   8   4   4   4   4
#     4  12  28  51  81 118 163 217 275 347 413 495
#     4  12  26  49  79 118 160 215 270 339 416 498
#     4  12  29  53  82 120 168 218 285 345 414 493
#     4  12  26  50  81 119 164 210 277 340 426 492
#     4  12  26  50  78 112 158 216 270 334 414 490
#     4  12  25  47  77 117 162 210 268 339 420 505
#
# _framework density 23.079615
#
# number of rings (size 3 to 8) (size 9 to 14) (size 15 to 20)
#    0.000    0.000    3.750    5.250    3.500    2.000 
#    0.000    0.000    0.000    0.000    0.000    0.000 
#    0.000    0.000    0.000    0.000    0.000    0.000 
#
# Total GULP energy -178362.956736 kJ/mol
# GULP energy per Si atom -5573.842398 kJ/mol
# Density = 2.302708 g / cm^3
# Si number density = 23.079615 Si / 1000 Ang^3
#
#
#
# Elastic Constant Matrix: (Units=GPa)
#
#
# Indices 1 2 3 4 5 6 
#
# 1 96.7218 36.3014 41.9760 0.0000 0.0000 0.0000
# 2 36.3014 96.7227 41.9760 0.0000 0.0000 0.0000
# 3 41.9760 41.9760 166.5547 0.0000 0.0000 0.0000
# 4 0.0000 0.0000 0.0000 37.4154 0.0000 0.0000
# 5 0.0000 0.0000 0.0000 0.0000 37.4168 0.0000
# 6 0.0000 0.0000 0.0000 0.0000 0.0000 4.3656
#
#
#
# Elastic Compliance Matrix: (Units=1/GPa)
#
#
# Indices 1 2 3 4 5 6 
#
# 1 0.012745 -0.003806 -0.002253 0.000000 0.000000 0.000000
# 2 -0.003806 0.012745 -0.002253 0.000000 0.000000 0.000000
# 3 -0.002253 -0.002253 0.007140 0.000000 0.000000 0.000000
# 4 0.000000 0.000000 0.000000 0.026727 0.000000 0.000000
# 5 0.000000 0.000000 0.000000 0.000000 0.026726 0.000000
# 6 0.000000 0.000000 0.000000 0.000000 0.000000 0.229062
#
#
# Mechanical properties :
#
#
# Convention : Reuss Voigt Hill
#
# Bulk Modulus (GPa) = 62.47463 66.72290 64.59876
# Shear Modulus (GPa) = 14.83225 31.82262 23.32744
#
# Velocity S-wave (km/s) = 2.53782 3.71727 3.18266
# Velocity P-wave (km/s) = 5.97623 6.88453 6.44640
#
# Compressibility (1/GPa) = 0.01600650
#
# Stress axis : x y z
#
# Youngs Moduli (GPa) = 78.46212 78.46298 140.06338
#
# Poissons Ratio (x) = 0.29860 0.31556
# Poissons Ratio (y) = 0.29860 0.31555
# Poissons Ratio (z) = 0.17677 0.17677
#
# Static dielectric constant tensor:
#      x y z
#    x 1.896290 0.000000 0.000000 
#    y 0.000000 1.896290 0.000000 
#    z 0.000000 0.000000 1.880530 
# 
# From -- ./inp_files/3476.got.cif
#   From: 2010.05.17/outbox.cif.g08.bks.cpg/sg91_2_cif.got.tgz:3476.got - 2010.06.03 19:20:03.
