data_PCOD9548470
_publ_section_title
;
Structure prediction by ZEFSAII (Michael W. Deem and Ramdas Pophale) SiO2 
 PCOD9548470
Probable space group: P 41 2 2
;
_chemical_formula_sum "Si O2"
_cell_formula_units_Z 56
_cell_length_a 13.847489
_cell_length_b 13.847489
_cell_length_c 12.592049
_cell_angle_alpha 90.000000
_cell_angle_beta 90.000000
_cell_angle_gamma 90.000000
_cell_volume 2414.562563
_symmetry_space_group_name_H-M "P 41 2 2"
_symmetry_group_IT_number 91
_symmetry_cell_setting 'tetragonal'
loop_
_space_group_symop_operation_xyz
x,y,z
-y,x,1/4+z
-x,-y,1/2+z
y,-x,3/4+z
x,-y,1/2-z
-x,y,-z
y,x,3/4-z
-y,-x,1/4-z
loop_
_atom_site_type_symbol
_atom_site_label
_atom_site_fract_x
_atom_site_fract_y
_atom_site_fract_z
Si Si1 0.388219 0.770663 0.856229
Si Si2 0.750408 0.592642 0.201793
Si Si3 0.617133 0.770886 0.902590
Si Si4 0.309125 0.145548 0.855990
Si Si5 0.385308 0.099065 0.216683
Si Si6 0.044252 0.819666 0.886488
Si Si7 0.994335 0.156366 0.843978
O O1 0.326528 0.674253 0.829688
O O2 0.503768 0.758194 0.872969
O O3 0.361076 0.838759 0.757030
O O4 0.361205 0.800208 0.976346
O O5 0.697499 0.500000 0.250000
O O6 0.825278 0.624102 0.294334
O O7 0.816133 0.566788 0.100464
O O8 0.673849 0.673849 0.875000
O O9 0.652979 0.854153 0.824751
O O10 0.223811 0.223811 0.875000
O O11 0.254038 0.044694 0.867751
O O12 0.291127 0.071731 0.149154
O O13 0.438297 0.000000 0.250000
O O14 0.981991 0.835462 0.782439
O O15 0.135587 0.888385 0.861871
O O16 0.000000 0.848956 0.000000
O O17 0.065017 0.065017 0.875000
#
# Coordination Sequence:
#
# PCOD9548470 Si02
#       7
#     8   8   8   8   8   8   8
#     4  10  23  45  72 104 139 178 232 293 374 430
#     4  11  21  44  74  98 139 181 225 295 353 429
#     4  11  23  45  75 102 144 182 229 306 363 437
#     4   9  20  38  62  91 135 177 224 275 346 425
#     4  11  25  45  69 101 140 191 246 285 354 435
#     4  11  23  40  61  97 135 181 242 293 359 427
#     4  11  21  38  61  92 138 181 228 298 350 415
#
# _framework density 23.192606999999999
#
# number of rings (size 3 to 8) (size 9 to 14) (size 15 to 20)
#    0.000    1.429    2.857    2.571    0.000    2.286 
#    5.143    0.000    3.143    0.000    0.000    0.000 
#    0.000    0.000    0.000    0.000    0.000    0.000 
#
# Total GULP energy -312848.172348 kJ/mol
# GULP energy per Si atom -5586.574506 kJ/mol
# Density = 2.313982 g / cm^3
# Si number density = 23.192607 Si / 1000 Ang^3
#
#
#
# Elastic Constant Matrix: (Units=GPa)
#
#
# Indices 1 2 3 4 5 6 
#
# 1 46.0971 12.6282 16.4643 0.0000 0.0000 0.0000
# 2 12.6282 46.0971 16.4643 0.0000 0.0000 0.0000
# 3 16.4643 16.4643 164.4940 0.0000 0.0000 0.0000
# 4 0.0000 0.0000 0.0000 30.9016 0.0000 0.0000
# 5 0.0000 0.0000 0.0000 0.0000 30.9016 0.0000
# 6 0.0000 0.0000 0.0000 0.0000 0.0000 -4.8075
#
#
#
# Elastic Compliance Matrix: (Units=1/GPa)
#
#
# Indices 1 2 3 4 5 6 
#
# 1 0.023960 -0.005919 -0.001806 0.000000 0.000000 0.000000
# 2 -0.005919 0.023960 -0.001806 0.000000 0.000000 0.000000
# 3 -0.001806 -0.001806 0.006441 0.000000 0.000000 0.000000
# 4 0.000000 0.000000 0.000000 0.032361 0.000000 0.000000
# 5 0.000000 0.000000 0.000000 0.000000 0.032361 0.000000
# 6 0.000000 0.000000 0.000000 0.000000 0.000000 -0.208007
#
#
# Mechanical properties :
#
#
# Convention : Reuss Voigt Hill
#
# Bulk Modulus (GPa) = 28.32887 38.64468 33.48677
# Shear Modulus (GPa) = -86.06180 25.47455 -30.29362
#
# Velocity S-wave (km/s) = -6.09820 3.31779 -3.61803
# Velocity P-wave (km/s) = 6.11088 5.60140 1.72731
#
# Compressibility (1/GPa) = 0.03529968
#
# Stress axis : x y z
#
# Youngs Moduli (GPa) = 41.73675 41.73675 155.26209
#
# Poissons Ratio (x) = 0.24703 0.28036
# Poissons Ratio (y) = 0.24703 0.28036
# Poissons Ratio (z) = 0.07537 0.07537
#
# Static dielectric constant tensor:
#      x y z
#    x 1.904970 0.000000 0.000000 
#    y 0.000000 1.904970 0.000000 
#    z 0.000000 0.000000 1.877880 
# 
# From -- ./inp_files/10851.got.cif
#   From: 2010.05.17/outbox.cif.g08.bks.cpg/sg91_6_cif.got.tgz:10851.got - 2010.06.03 19:20:03.
