data_PCOD9548146
_publ_section_title
;
Structure prediction by ZEFSAII (Michael W. Deem and Ramdas Pophale) SiO2 
 PCOD9548146
Probable space group: P 41 2 2
;
_chemical_formula_sum "Si O2"
_cell_formula_units_Z 48
_cell_length_a 14.593665
_cell_length_b 14.593665
_cell_length_c 10.452671
_cell_angle_alpha 90.000000
_cell_angle_beta 90.000000
_cell_angle_gamma 90.000000
_cell_volume 2226.158214
_symmetry_space_group_name_H-M "P 41 2 2"
_symmetry_group_IT_number 91
_symmetry_cell_setting 'tetragonal'
loop_
_space_group_symop_operation_xyz
x,y,z
-y,x,1/4+z
-x,-y,1/2+z
y,-x,3/4+z
x,-y,1/2-z
-x,y,-z
y,x,3/4-z
-y,-x,1/4-z
loop_
_atom_site_type_symbol
_atom_site_label
_atom_site_fract_x
_atom_site_fract_y
_atom_site_fract_z
Si Si1 0.918554 0.591037 0.318288
Si Si2 0.104701 0.154728 0.018436
Si Si3 0.557566 0.297957 0.383863
Si Si4 0.629065 0.278983 0.751188
Si Si5 0.725642 0.090504 0.835425
Si Si6 0.884825 0.634221 0.591099
O O1 0.887242 0.500000 0.250000
O O2 0.919639 0.672106 0.218094
O O3 0.861918 0.610151 0.444710
O O4 0.023496 0.584182 0.365285
O O5 0.169230 0.103087 0.120017
O O6 0.148856 0.148856 0.875000
O O7 0.099610 0.257166 0.079185
O O8 0.000000 0.122444 0.000000
O O9 0.500000 0.341394 0.500000
O O10 0.479481 0.281361 0.278381
O O11 0.652804 0.353143 0.377887
O O12 0.597505 0.198371 0.423749
O O13 0.677843 0.322158 0.625000
O O14 0.677803 0.180770 0.773662
O O15 0.713772 0.000000 0.750000
#
# Coordination Sequence:
#
# PCOD9548146 Si02
#       6
#     8   8   8   8   8   8
#     4  11  24  39  65 101 135 170 221 283 355 423
#     4  12  24  47  68  90 136 191 232 281 352 416
#     4  10  21  39  68 101 136 181 226 279 349 416
#     4  10  23  41  69  99 141 180 229 285 353 418
#     4  12  27  42  67 106 140 176 242 298 344 413
#     4  11  21  41  67  93 135 178 218 277 356 414
#
# _framework density 21.561810000000001
#
# number of rings (size 3 to 8) (size 9 to 14) (size 15 to 20)
#    0.000    1.000    5.000    1.500    9.333    2.000 
#    0.000    0.000    0.000   30.000    0.000    0.000 
#    0.000    0.000    0.000    0.000    0.000    0.000 
#
# Total GULP energy -267540.166870 kJ/mol
# GULP energy per Si atom -5573.753476 kJ/mol
# Density = 2.151273 g / cm^3
# Si number density = 21.561810 Si / 1000 Ang^3
#
#
#
# Elastic Constant Matrix: (Units=GPa)
#
#
# Indices 1 2 3 4 5 6 
#
# 1 113.7331 39.1028 25.4868 0.0000 0.0000 0.0000
# 2 39.1028 113.7330 25.4865 0.0000 0.0000 0.0000
# 3 25.4868 25.4865 61.0208 0.0000 0.0000 0.0000
# 4 0.0000 0.0000 0.0000 43.2741 0.0000 0.0000
# 5 0.0000 0.0000 0.0000 0.0000 43.2748 0.0000
# 6 0.0000 0.0000 0.0000 0.0000 0.0000 22.6605
#
#
#
# Elastic Compliance Matrix: (Units=1/GPa)
#
#
# Indices 1 2 3 4 5 6 
#
# 1 0.010501 -0.002899 -0.003175 0.000000 0.000000 0.000000
# 2 -0.002899 0.010501 -0.003175 0.000000 0.000000 0.000000
# 3 -0.003175 -0.003175 0.019040 0.000000 0.000000 0.000000
# 4 0.000000 0.000000 0.000000 0.023108 0.000000 0.000000
# 5 0.000000 0.000000 0.000000 0.000000 0.023108 0.000000
# 6 0.000000 0.000000 0.000000 0.000000 0.000000 0.044130
#
#
# Mechanical properties :
#
#
# Convention : Reuss Voigt Hill
#
# Bulk Modulus (GPa) = 46.41754 52.07099 49.24427
# Shear Modulus (GPa) = 32.03756 35.06927 33.55342
#
# Velocity S-wave (km/s) = 3.85885 4.03731 3.94909
# Velocity P-wave (km/s) = 6.43651 6.77755 6.60923
#
# Compressibility (1/GPa) = 0.02154358
#
# Stress axis : x y z
#
# Youngs Moduli (GPa) = 95.23209 95.23224 52.52063
#
# Poissons Ratio (x) = 0.27605 0.16676
# Poissons Ratio (y) = 0.27605 0.16676
# Poissons Ratio (z) = 0.30237 0.30237
#
# Static dielectric constant tensor:
#      x y z
#    x 1.807600 0.000000 0.000000 
#    y 0.000000 1.807600 0.000000 
#    z 0.000000 0.000000 1.642660 
# 
# From -- ./inp_files/15889.got.cif
#   From: 2010.05.17/outbox.cif.g08.bks.cpg/sg91_8_cif.got.tgz:15889.got - 2010.06.03 19:20:03.
