data_PCOD9548376
_publ_section_title
;
Structure prediction by ZEFSAII (Michael W. Deem and Ramdas Pophale) SiO2 
 PCOD9548376
Probable space group: P 41 2 2
;
_chemical_formula_sum "Si O2"
_cell_formula_units_Z 20
_cell_length_a 9.507226
_cell_length_b 9.507226
_cell_length_c 9.222804
_cell_angle_alpha 90.000000
_cell_angle_beta 90.000000
_cell_angle_gamma 90.000000
_cell_volume 833.624778
_symmetry_space_group_name_H-M "P 41 2 2"
_symmetry_group_IT_number 91
_symmetry_cell_setting 'tetragonal'
loop_
_space_group_symop_operation_xyz
x,y,z
-y,x,1/4+z
-x,-y,1/2+z
y,-x,3/4+z
x,-y,1/2-z
-x,y,-z
y,x,3/4-z
-y,-x,1/4-z
loop_
_atom_site_type_symbol
_atom_site_label
_atom_site_fract_x
_atom_site_fract_y
_atom_site_fract_z
Si Si1 0.885248 0.114753 0.625000
Si Si2 0.413749 0.144556 0.297471
Si Si3 0.336655 0.328903 0.032906
O O1 0.894463 0.284677 0.652841
O O2 0.000000 0.088052 0.500000
O O3 0.532948 0.255741 0.336841
O O4 0.485631 0.000000 0.250000
O O5 0.340216 0.211520 0.155280
O O6 0.280748 0.280748 0.875000
O O7 0.500000 0.362558 0.000000
#
# Coordination Sequence:
#
# PCOD9548376 Si02
#       3
#     4   8   8
#     4  10  24  48  66 100 152 202 252 296 366 426
#     4  10  22  43  68 109 142 190 246 295 370 437
#     4   9  20  42  74 107 144 183 237 315 376 421
#
# _framework density 23.991607999999999
#
# number of rings (size 3 to 8) (size 9 to 14) (size 15 to 20)
#    0.000    2.400    0.000    0.000    8.400    0.000 
#   57.600    2.000    0.000    2.400    0.000    0.000 
#    0.000    0.000    0.000    0.000    0.000    0.000 
#
# Total GULP energy -111578.045440 kJ/mol
# GULP energy per Si atom -5578.902272 kJ/mol
# Density = 2.393700 g / cm^3
# Si number density = 23.991608 Si / 1000 Ang^3
#
#
#
# Elastic Constant Matrix: (Units=GPa)
#
#
# Indices 1 2 3 4 5 6 
#
# 1 130.1063 54.6275 37.8133 0.0000 0.0000 0.0000
# 2 54.6275 130.1072 37.8126 0.0000 0.0000 0.0000
# 3 37.8133 37.8126 125.4211 0.0000 0.0000 0.0000
# 4 0.0000 0.0000 0.0000 19.6599 0.0000 0.0000
# 5 0.0000 0.0000 0.0000 0.0000 19.6600 0.0000
# 6 0.0000 0.0000 0.0000 0.0000 0.0000 16.1174
#
#
#
# Elastic Compliance Matrix: (Units=1/GPa)
#
#
# Indices 1 2 3 4 5 6 
#
# 1 0.009712 -0.003537 -0.001862 0.000000 0.000000 0.000000
# 2 -0.003537 0.009712 -0.001862 0.000000 0.000000 0.000000
# 3 -0.001862 -0.001862 0.009096 0.000000 0.000000 0.000000
# 4 0.000000 0.000000 0.000000 0.050865 0.000000 0.000000
# 5 0.000000 0.000000 0.000000 0.000000 0.050865 0.000000
# 6 0.000000 0.000000 0.000000 0.000000 0.000000 0.062045
#
#
# Mechanical properties :
#
#
# Convention : Reuss Voigt Hill
#
# Bulk Modulus (GPa) = 71.43221 71.79350 71.61286
# Shear Modulus (GPa) = 23.64279 28.11288 25.87784
#
# Velocity S-wave (km/s) = 3.14261 3.42684 3.28780
# Velocity P-wave (km/s) = 6.55793 6.75626 6.65783
#
# Compressibility (1/GPa) = 0.01399929
#
# Stress axis : x y z
#
# Youngs Moduli (GPa) = 102.96460 102.96575 109.94130
#
# Poissons Ratio (x) = 0.36416 0.20469
# Poissons Ratio (y) = 0.36415 0.20468
# Poissons Ratio (z) = 0.19170 0.19170
#
# Static dielectric constant tensor:
#      x y z
#    x 1.898970 0.000000 0.000000 
#    y 0.000000 1.898960 0.000000 
#    z 0.000000 0.000000 2.068010 
# 
# From -- ./inp_files/1744.got.cif
#   From: 2010.05.17/outbox.cif.g08.bks.cpg/sg91_1_cif.got.tgz:1744.got - 2010.06.03 19:20:03.
