data_PCOD9548324
_publ_section_title
;
Structure prediction by ZEFSAII (Michael W. Deem and Ramdas Pophale) SiO2 
 PCOD9548324
Probable space group: P 41 2 2
;
_chemical_formula_sum "Si O2"
_cell_formula_units_Z 32
_cell_length_a 9.445136
_cell_length_b 9.445136
_cell_length_c 18.901328
_cell_angle_alpha 90.000000
_cell_angle_beta 90.000000
_cell_angle_gamma 90.000000
_cell_volume 1686.198699
_symmetry_space_group_name_H-M "P 41 2 2"
_symmetry_group_IT_number 91
_symmetry_cell_setting 'tetragonal'
loop_
_space_group_symop_operation_xyz
x,y,z
-y,x,1/4+z
-x,-y,1/2+z
y,-x,3/4+z
x,-y,1/2-z
-x,y,-z
y,x,3/4-z
-y,-x,1/4-z
loop_
_atom_site_type_symbol
_atom_site_label
_atom_site_fract_x
_atom_site_fract_y
_atom_site_fract_z
Si Si1 0.199256 0.630964 0.674152
Si Si2 0.025217 0.867382 0.199967
Si Si3 0.636205 0.135748 0.454688
Si Si4 0.746807 0.682328 0.170177
O O1 0.239114 0.760887 0.625000
O O2 0.240004 0.478423 0.642580
O O3 0.285799 0.658344 0.746778
O O4 0.031591 0.622197 0.687091
O O5 0.082408 0.917593 0.125000
O O6 0.137276 0.775655 0.245634
O O7 0.894744 0.766210 0.178902
O O8 0.982130 0.000000 0.250000
O O9 0.500000 0.178945 0.500000
O O10 0.654375 0.225734 0.383447
#
# Coordination Sequence:
#
# PCOD9548324 Si02
#       4
#     8   8   8   8
#     4  10  22  43  65  90 129 166 217 261 316 400
#     4  11  21  36  62  95 127 158 205 261 325 376
#     4  11  22  42  63  92 129 165 208 271 313 377
#     4  10  22  41  63  92 127 165 210 264 321 378
#
# _framework density 18.977595999999998
#
# number of rings (size 3 to 8) (size 9 to 14) (size 15 to 20)
#    0.000    1.500    7.500    0.000    7.000    0.000 
#    9.000    2.500    0.000    0.000    0.000    0.000 
#    0.000    0.000    0.000    0.000    0.000    0.000 
#
# Total GULP energy -178216.908575 kJ/mol
# GULP energy per Si atom -5569.278393 kJ/mol
# Density = 1.893440 g / cm^3
# Si number density = 18.977596 Si / 1000 Ang^3
#
#
#
# Elastic Constant Matrix: (Units=GPa)
#
#
# Indices 1 2 3 4 5 6 
#
# 1 59.8325 32.0624 46.0969 0.0000 0.0000 0.0000
# 2 32.0624 59.8296 46.0964 0.0000 0.0000 0.0000
# 3 46.0969 46.0964 99.2651 0.0000 0.0000 0.0000
# 4 0.0000 0.0000 0.0000 39.4746 0.0000 0.0000
# 5 0.0000 0.0000 0.0000 0.0000 39.4749 0.0000
# 6 0.0000 0.0000 0.0000 0.0000 0.0000 -32.1560
#
#
#
# Elastic Compliance Matrix: (Units=1/GPa)
#
#
# Indices 1 2 3 4 5 6 
#
# 1 0.028192 -0.007819 -0.009461 0.000000 0.000000 0.000000
# 2 -0.007819 0.028194 -0.009462 0.000000 0.000000 0.000000
# 3 -0.009461 -0.009462 0.018862 0.000000 0.000000 0.000000
# 4 0.000000 0.000000 0.000000 0.025333 0.000000 0.000000
# 5 0.000000 0.000000 0.000000 0.000000 0.025333 0.000000
# 6 0.000000 0.000000 0.000000 0.000000 0.000000 -0.031098
#
#
# Mechanical properties :
#
#
# Convention : Reuss Voigt Hill
#
# Bulk Modulus (GPa) = 45.94633 51.93764 48.94198
# Shear Modulus (GPa) = 32.14336 15.67013 23.90674
#
# Velocity S-wave (km/s) = 4.11999 2.87665 3.55313
# Velocity P-wave (km/s) = 6.84805 6.20167 6.53286
#
# Compressibility (1/GPa) = 0.02176452
#
# Stress axis : x y z
#
# Youngs Moduli (GPa) = 35.47065 35.46841 53.01800
#
# Poissons Ratio (x) = 0.27732 0.50161
# Poissons Ratio (y) = 0.27733 0.50165
# Poissons Ratio (z) = 0.33560 0.33560
#
# Static dielectric constant tensor:
#      x y z
#    x 1.670010 0.000000 0.000000 
#    y 0.000000 1.670010 0.000000 
#    z 0.000000 0.000000 1.729760 
# 
# From -- ./inp_files/5956.got.cif
#   From: 2010.05.17/outbox.cif.g08.bks.cpg/sg91_3_cif.got.tgz:5956.got - 2010.06.03 19:20:03.
