data_PCOD9548281
_publ_section_title
;
Structure prediction by ZEFSAII (Michael W. Deem and Ramdas Pophale) SiO2 
 PCOD9548281
Probable space group: P 41 2 2
;
_chemical_formula_sum "Si O2"
_cell_formula_units_Z 48
_cell_length_a 11.641958
_cell_length_b 11.641958
_cell_length_c 16.656371
_cell_angle_alpha 90.000000
_cell_angle_beta 90.000000
_cell_angle_gamma 90.000000
_cell_volume 2257.524343
_symmetry_space_group_name_H-M "P 41 2 2"
_symmetry_group_IT_number 91
_symmetry_cell_setting 'tetragonal'
loop_
_space_group_symop_operation_xyz
x,y,z
-y,x,1/4+z
-x,-y,1/2+z
y,-x,3/4+z
x,-y,1/2-z
-x,y,-z
y,x,3/4-z
-y,-x,1/4-z
loop_
_atom_site_type_symbol
_atom_site_label
_atom_site_fract_x
_atom_site_fract_y
_atom_site_fract_z
Si Si1 0.714117 0.824517 0.443013
Si Si2 0.347676 0.749403 0.839380
Si Si3 0.196492 0.834037 0.291253
Si Si4 0.889787 0.572709 0.948287
Si Si5 0.251289 0.984864 0.074420
Si Si6 0.508773 0.312485 0.094213
O O1 0.811363 0.811363 0.375000
O O2 0.742967 0.722096 0.505961
O O3 0.712679 0.932654 0.500883
O O4 0.589848 0.800871 0.400587
O O5 0.279227 0.823471 0.904880
O O6 0.472841 0.799305 0.821336
O O7 0.331386 0.619925 0.873666
O O8 0.323075 0.839694 0.251912
O O9 0.193704 0.937980 0.355344
O O10 0.108692 0.829681 0.217604
O O11 0.930672 0.636843 0.867076
O O12 0.000000 0.529166 0.000000
O O13 0.586621 0.413380 0.125000
O O14 0.500000 0.326884 0.000000
#
# Coordination Sequence:
#
# PCOD9548281 Si02
#       6
#     8   8   8   8   8   8
#     4   9  20  40  66  94 130 167 218 276 335 383
#     4  10  22  39  60  98 128 174 220 259 324 400
#     4  10  23  43  68  93 132 172 225 269 331 387
#     4  10  23  43  66  93 135 177 214 273 328 393
#     4  10  22  46  66  96 130 175 220 272 331 393
#     4   9  19  35  57  90 127 168 204 259 326 381
#
# _framework density 21.262229000000001
#
# number of rings (size 3 to 8) (size 9 to 14) (size 15 to 20)
#    0.000    2.333    0.000    0.500    7.000    3.333 
#   18.000    9.167    0.000    0.000    0.000    0.000 
#    0.000    0.000    0.000    0.000    0.000    0.000 
#
# Total GULP energy -267509.300566 kJ/mol
# GULP energy per Si atom -5573.110428 kJ/mol
# Density = 2.121384 g / cm^3
# Si number density = 21.262229 Si / 1000 Ang^3
#
#
#
# Elastic Constant Matrix: (Units=GPa)
#
#
# Indices 1 2 3 4 5 6 
#
# 1 94.7988 67.9707 51.5779 0.0000 0.0000 0.0000
# 2 67.9707 94.7974 51.5806 0.0000 0.0000 0.0000
# 3 51.5779 51.5806 90.4267 0.0000 0.0000 0.0000
# 4 0.0000 0.0000 0.0000 35.4992 0.0000 0.0000
# 5 0.0000 0.0000 0.0000 0.0000 35.5064 0.0000
# 6 0.0000 0.0000 0.0000 0.0000 0.0000 22.3606
#
#
#
# Elastic Compliance Matrix: (Units=1/GPa)
#
#
# Indices 1 2 3 4 5 6 
#
# 1 0.023448 -0.013827 -0.005487 0.000000 0.000000 0.000000
# 2 -0.013827 0.023450 -0.005489 0.000000 0.000000 0.000000
# 3 -0.005487 -0.005489 0.017320 0.000000 0.000000 0.000000
# 4 0.000000 0.000000 0.000000 0.028170 0.000000 0.000000
# 5 0.000000 0.000000 0.000000 0.000000 0.028164 0.000000
# 6 0.000000 0.000000 0.000000 0.000000 0.000000 0.044722
#
#
# Mechanical properties :
#
#
# Convention : Reuss Voigt Hill
#
# Bulk Modulus (GPa) = 68.44468 69.14239 68.79354
# Shear Modulus (GPa) = 22.75317 25.93281 24.34299
#
# Velocity S-wave (km/s) = 3.27482 3.49616 3.38730
# Velocity P-wave (km/s) = 6.82348 6.99192 6.90822
#
# Compressibility (1/GPa) = 0.01461034
#
# Stress axis : x y z
#
# Youngs Moduli (GPa) = 42.64767 42.64479 57.73716
#
# Poissons Ratio (x) = 0.58963 0.31683
# Poissons Ratio (y) = 0.58967 0.31694
# Poissons Ratio (z) = 0.23403 0.23410
#
# Static dielectric constant tensor:
#      x y z
#    x 1.815170 0.000000 0.000000 
#    y 0.000000 1.815160 0.000000 
#    z 0.000000 0.000000 1.813140 
# 
# From -- ./inp_files/11932.got.cif
#   From: 2010.05.17/outbox.cif.g08.bks.cpg/sg91_6_cif.got.tgz:11932.got - 2010.06.03 19:20:03.
