data_PCOD9548106
_publ_section_title
;
Structure prediction by ZEFSAII (Michael W. Deem and Ramdas Pophale) SiO2 
 PCOD9548106
Probable space group: P 41 2 2
;
_chemical_formula_sum "Si O2"
_cell_formula_units_Z 48
_cell_length_a 14.845759
_cell_length_b 14.845759
_cell_length_c 10.484772
_cell_angle_alpha 90.000000
_cell_angle_beta 90.000000
_cell_angle_gamma 90.000000
_cell_volume 2310.807684
_symmetry_space_group_name_H-M "P 41 2 2"
_symmetry_group_IT_number 91
_symmetry_cell_setting 'tetragonal'
loop_
_space_group_symop_operation_xyz
x,y,z
-y,x,1/4+z
-x,-y,1/2+z
y,-x,3/4+z
x,-y,1/2-z
-x,y,-z
y,x,3/4-z
-y,-x,1/4-z
loop_
_atom_site_type_symbol
_atom_site_label
_atom_site_fract_x
_atom_site_fract_y
_atom_site_fract_z
Si Si1 0.364476 0.000000 0.250000
Si Si2 0.500000 0.682171 0.000000
Si Si3 0.330427 0.691640 0.271073
Si Si4 0.067967 0.067967 0.375000
Si Si5 0.245228 0.004368 0.489087
Si Si6 0.837102 0.162899 0.125000
Si Si7 0.822787 0.473462 0.520252
Si Si8 0.148141 0.674808 0.431394
O O1 0.306876 0.970058 0.372975
O O2 0.423380 0.084037 0.297530
O O3 0.409209 0.627575 0.974710
O O4 0.519466 0.751063 0.885006
O O5 0.402561 0.765974 0.316389
O O6 0.238732 0.683648 0.348875
O O7 0.296850 0.703151 0.125000
O O8 0.169999 0.064629 0.423806
O O9 0.000000 0.054398 0.500000
O O10 0.303282 0.060583 0.593235
O O11 0.180562 0.927557 0.546992
O O12 0.753218 0.158941 0.217948
O O13 0.850114 0.577484 0.498735
#
# Coordination Sequence:
#
# PCOD9548106 Si02
#       8
#     4   4   8   4   8   4   8   8
#     4  12  24  40  66 104 130 170 230 284 336 410
#     4   8  16  34  60  94 124 170 206 276 324 392
#     4   9  17  35  66  95 128 166 220 271 332 393
#     4  12  25  44  70 100 136 179 238 298 354 424
#     4  12  26  44  69  98 129 178 228 283 341 412
#     4  12  27  46  64  92 134 181 218 268 342 406
#     4  10  21  37  62  97 131 171 218 274 335 398
#     4  11  25  44  67  94 137 180 223 279 342 407
#
# _framework density 20.771957
#
# number of rings (size 3 to 8) (size 9 to 14) (size 15 to 20)
#    0.000    1.333    0.833    6.000    5.833    0.000 
#    0.000    2.500    9.167    0.000    0.000    0.000 
#    0.000    0.000    0.000    0.000    0.000    0.000 
#
# Total GULP energy -267268.737272 kJ/mol
# GULP energy per Si atom -5568.098693 kJ/mol
# Density = 2.072468 g / cm^3
# Si number density = 20.771957 Si / 1000 Ang^3
#
#
#
# Elastic Constant Matrix: (Units=GPa)
#
#
# Indices 1 2 3 4 5 6 
#
# 1 105.1104 35.2293 4.6163 0.0000 0.0000 0.0000
# 2 35.2293 105.1098 4.6165 0.0000 0.0000 0.0000
# 3 4.6163 4.6165 41.9543 0.0000 0.0000 0.0000
# 4 0.0000 0.0000 0.0000 71.3912 0.0000 0.0000
# 5 0.0000 0.0000 0.0000 0.0000 71.3765 0.0000
# 6 0.0000 0.0000 0.0000 0.0000 0.0000 8.7471
#
#
#
# Elastic Compliance Matrix: (Units=1/GPa)
#
#
# Indices 1 2 3 4 5 6 
#
# 1 0.010744 -0.003566 -0.000790 0.000000 0.000000 0.000000
# 2 -0.003566 0.010744 -0.000790 0.000000 0.000000 0.000000
# 3 -0.000790 -0.000790 0.024009 0.000000 0.000000 0.000000
# 4 0.000000 0.000000 0.000000 0.014007 0.000000 0.000000
# 5 0.000000 0.000000 0.000000 0.000000 0.014010 0.000000
# 6 0.000000 0.000000 0.000000 0.000000 0.000000 0.114323
#
#
# Mechanical properties :
#
#
# Convention : Reuss Voigt Hill
#
# Bulk Modulus (GPa) = 28.40488 37.89988 33.15238
# Shear Modulus (GPa) = 23.82494 44.15045 33.98770
#
# Velocity S-wave (km/s) = 3.39038 4.61530 4.04942
# Velocity P-wave (km/s) = 5.38800 6.83276 6.15293
#
# Compressibility (1/GPa) = 0.03520522
#
# Stress axis : x y z
#
# Youngs Moduli (GPa) = 93.07710 93.07651 41.65061
#
# Poissons Ratio (x) = 0.33194 0.03289
# Poissons Ratio (y) = 0.33194 0.03290
# Poissons Ratio (z) = 0.07351 0.07351
#
# Static dielectric constant tensor:
#      x y z
#    x 1.746480 0.000000 0.000000 
#    y 0.000000 1.746460 0.000000 
#    z 0.000000 0.000000 1.832310 
# 
# From -- ./inp_files/20293.got.cif
#   From: 2010.05.17/outbox.cif.g08.bks.cpg/sg91_11_cif.got.tgz:20293.got - 2010.06.03 19:20:03.
