data_PCOD9548272
_publ_section_title
;
Structure prediction by ZEFSAII (Michael W. Deem and Ramdas Pophale) SiO2 
 PCOD9548272
Probable space group: P 41 2 2
;
_chemical_formula_sum "Si O2"
_cell_formula_units_Z 32
_cell_length_a 9.963799
_cell_length_b 9.963799
_cell_length_c 12.483245
_cell_angle_alpha 90.000000
_cell_angle_beta 90.000000
_cell_angle_gamma 90.000000
_cell_volume 1239.302740
_symmetry_space_group_name_H-M "P 41 2 2"
_symmetry_group_IT_number 91
_symmetry_cell_setting 'tetragonal'
loop_
_space_group_symop_operation_xyz
x,y,z
-y,x,1/4+z
-x,-y,1/2+z
y,-x,3/4+z
x,-y,1/2-z
-x,y,-z
y,x,3/4-z
-y,-x,1/4-z
loop_
_atom_site_type_symbol
_atom_site_label
_atom_site_fract_x
_atom_site_fract_y
_atom_site_fract_z
Si Si1 0.688867 0.733525 0.119422
Si Si2 0.927980 0.845342 0.763065
Si Si3 0.463254 0.149727 0.251283
Si Si4 0.150465 0.322731 0.811109
O O1 0.804427 0.841837 0.091348
O O2 0.551568 0.810891 0.144719
O O3 0.721343 0.628154 0.026253
O O4 0.726632 0.658612 0.230024
O O5 0.025722 0.717291 0.760761
O O6 0.974834 0.000000 0.750000
O O7 0.847837 0.847837 0.875000
O O8 0.565509 0.133393 0.150132
O O9 0.398250 0.000000 0.250000
O O10 0.186953 0.186953 0.875000
#
# Coordination Sequence:
#
# PCOD9548272 Si02
#       4
#     8   8   8   8
#     4  11  24  43  68 106 138 191 237 297 366 430
#     4  12  22  36  61 103 146 179 234 296 372 430
#     4  11  23  44  73 107 146 185 253 299 365 446
#     4  10  22  38  65 102 141 184 226 297 367 442
#
# _framework density 25.820971
#
# number of rings (size 3 to 8) (size 9 to 14) (size 15 to 20)
#    0.000    1.000    5.000    2.250    0.000    0.000 
#    0.000    1.250    0.000   16.500    0.000    0.000 
#    0.000    0.000    0.000    0.000    0.000    0.000 
#
# Total GULP energy -178383.217199 kJ/mol
# GULP energy per Si atom -5574.475537 kJ/mol
# Density = 2.576220 g / cm^3
# Si number density = 25.820971 Si / 1000 Ang^3
#
#
#
# Elastic Constant Matrix: (Units=GPa)
#
#
# Indices 1 2 3 4 5 6 
#
# 1 61.8206 40.4754 14.3224 0.0000 0.0000 0.0000
# 2 40.4754 61.8206 14.3224 0.0000 0.0000 0.0000
# 3 14.3224 14.3224 78.6924 0.0000 0.0000 0.0000
# 4 0.0000 0.0000 0.0000 49.1411 0.0000 0.0000
# 5 0.0000 0.0000 0.0000 0.0000 49.1411 0.0000
# 6 0.0000 0.0000 0.0000 0.0000 0.0000 18.3375
#
#
#
# Elastic Compliance Matrix: (Units=1/GPa)
#
#
# Indices 1 2 3 4 5 6 
#
# 1 0.028575 -0.018274 -0.001875 0.000000 0.000000 0.000000
# 2 -0.018274 0.028575 -0.001875 0.000000 0.000000 0.000000
# 3 -0.001875 -0.001875 0.013390 0.000000 0.000000 0.000000
# 4 0.000000 0.000000 0.000000 0.020350 0.000000 0.000000
# 5 0.000000 0.000000 0.000000 0.000000 0.020350 0.000000
# 6 0.000000 0.000000 0.000000 0.000000 0.000000 0.054533
#
#
# Mechanical properties :
#
#
# Convention : Reuss Voigt Hill
#
# Bulk Modulus (GPa) = 37.74696 37.84154 37.79425
# Shear Modulus (GPa) = 22.86762 32.20483 27.53622
#
# Velocity S-wave (km/s) = 2.97917 3.53545 3.26916
# Velocity P-wave (km/s) = 5.14630 5.59938 5.37761
#
# Compressibility (1/GPa) = 0.02649220
#
# Stress axis : x y z
#
# Youngs Moduli (GPa) = 34.99603 34.99603 74.68186
#
# Poissons Ratio (x) = 0.63952 0.14001
# Poissons Ratio (y) = 0.63952 0.14001
# Poissons Ratio (z) = 0.06561 0.06561
#
# Static dielectric constant tensor:
#      x y z
#    x 2.116620 0.000000 0.000000 
#    y 0.000000 2.116620 0.000000 
#    z 0.000000 0.000000 2.090800 
# 
# From -- ./inp_files/10399.got.cif
#   From: 2010.05.17/outbox.cif.g08.bks.cpg/sg91_6_cif.got.tgz:10399.got - 2010.06.03 19:20:03.
