data_PCOD9548938
_publ_section_title
;
Structure prediction by ZEFSAII (Michael W. Deem and Ramdas Pophale) SiO2 
 PCOD9548938
Probable space group: P 41 21 2
;
_chemical_formula_sum "Si O2"
_cell_formula_units_Z 60
_cell_length_a 11.135769
_cell_length_b 11.135769
_cell_length_c 23.333051
_cell_angle_alpha 90.000000
_cell_angle_beta 90.000000
_cell_angle_gamma 90.000000
_cell_volume 2893.423184
_symmetry_space_group_name_H-M "P 41 21 2"
_symmetry_group_IT_number 92
_symmetry_cell_setting 'tetragonal'
loop_
_space_group_symop_operation_xyz
x,y,z
1/2-y,1/2+x,1/4+z
-x,-y,1/2+z
1/2+y,1/2-x,3/4+z
1/2+x,1/2-y,3/4-z
1/2-x,1/2+y,1/4-z
y,x,-z
-y,-x,1/2-z
loop_
_atom_site_type_symbol
_atom_site_label
_atom_site_fract_x
_atom_site_fract_y
_atom_site_fract_z
Si Si1 0.657793 0.290807 0.041317
Si Si2 0.460591 0.629622 0.117493
Si Si3 0.171480 0.354282 0.998611
Si Si4 0.064122 0.296347 0.822078
Si Si5 0.462881 0.409788 0.204317
Si Si6 0.306602 0.983747 0.369507
Si Si7 0.963519 0.036482 0.250000
Si Si8 0.224015 0.431720 0.282319
O O1 0.618387 0.218288 0.097994
O O2 0.797641 0.323781 0.041072
O O3 0.632663 0.201372 0.988538
O O4 0.573329 0.407006 0.028134
O O5 0.317379 0.623562 0.104127
O O6 0.478649 0.511770 0.156211
O O7 0.508054 0.735930 0.157547
O O8 0.530996 0.619741 0.056959
O O9 0.214253 0.410868 0.939334
O O10 0.218343 0.218343 0.000000
O O11 0.226645 0.427921 0.051966
O O12 0.028698 0.362584 0.003203
O O13 0.074520 0.420665 0.855933
O O14 0.569332 0.430669 0.250000
O O15 0.460722 0.288400 0.169127
O O16 0.340265 0.425252 0.240453
#
# Coordination Sequence:
#
# PCOD9548938 Si02
#       8
#     8   8   8   8   8   8   4   8
#     4  10  22  38  66  89 132 173 223 274 333 418
#     4  10  20  36  64  92 126 170 218 273 338 407
#     4  11  23  37  64  97 134 167 219 287 353 403
#     4  10  21  37  60  97 127 165 215 277 339 408
#     4  10  19  34  62  90 125 169 221 263 327 412
#     4  11  20  38  61  93 127 178 213 275 344 403
#     4  10  20  40  62  96 118 178 234 274 334 406
#     4  11  22  41  59  98 134 171 223 286 342 406
#
# _framework density 20.736684
#
# number of rings (size 3 to 8) (size 9 to 14) (size 15 to 20)
#    0.000    1.600    2.667    3.600    6.533    0.000 
#    7.200    0.000    1.467    0.000    0.000    0.000 
#    0.000    0.000    0.000    0.000    0.000    0.000 
#
# Total GULP energy -334070.063738 kJ/mol
# GULP energy per Si atom -5567.834396 kJ/mol
# Density = 2.068949 g / cm^3
# Si number density = 20.736684 Si / 1000 Ang^3
#
#
#
# Elastic Constant Matrix: (Units=GPa)
#
#
# Indices 1 2 3 4 5 6 
#
# 1 75.8633 21.2173 23.7911 0.0000 0.0000 0.0000
# 2 21.2173 75.8628 23.7910 0.0000 0.0000 0.0000
# 3 23.7911 23.7910 114.2680 0.0000 0.0000 0.0000
# 4 0.0000 0.0000 0.0000 29.0105 0.0000 0.0000
# 5 0.0000 0.0000 0.0000 0.0000 29.0105 0.0000
# 6 0.0000 0.0000 0.0000 0.0000 0.0000 18.4293
#
#
#
# Elastic Compliance Matrix: (Units=1/GPa)
#
#
# Indices 1 2 3 4 5 6 
#
# 1 0.014885 -0.003414 -0.002388 0.000000 0.000000 0.000000
# 2 -0.003414 0.014886 -0.002388 0.000000 0.000000 0.000000
# 3 -0.002388 -0.002388 0.009746 0.000000 0.000000 0.000000
# 4 0.000000 0.000000 0.000000 0.034470 0.000000 0.000000
# 5 0.000000 0.000000 0.000000 0.000000 0.034470 0.000000
# 6 0.000000 0.000000 0.000000 0.000000 0.000000 0.054261
#
#
# Mechanical properties :
#
#
# Convention : Reuss Voigt Hill
#
# Bulk Modulus (GPa) = 43.22440 44.84368 44.03404
# Shear Modulus (GPa) = 26.76482 28.43638 27.60060
#
# Velocity S-wave (km/s) = 3.59653 3.70713 3.65225
# Velocity P-wave (km/s) = 6.17546 6.32424 6.25030
#
# Compressibility (1/GPa) = 0.02313508
#
# Stress axis : x y z
#
# Youngs Moduli (GPa) = 67.17958 67.17911 102.60724
#
# Poissons Ratio (x) = 0.22936 0.24507
# Poissons Ratio (y) = 0.22936 0.24507
# Poissons Ratio (z) = 0.16045 0.16045
#
# Static dielectric constant tensor:
#      x y z
#    x 1.784930 0.000000 0.000000 
#    y 0.000000 1.784930 0.000000 
#    z 0.000000 0.000000 1.779760 
# 
# From -- ./inp_files/3628.got.cif
#   From: 2010.05.17/outbox.cif.g08.bks.cpg/sg92_2_cif.got.tgz:3628.got - 2010.06.03 19:35:17.
