data_PCOD9548291
_publ_section_title
;
Structure prediction by ZEFSAII (Michael W. Deem and Ramdas Pophale) SiO2 
 PCOD9548291
Probable space group: P 41 2 2
;
_chemical_formula_sum "Si O2"
_cell_formula_units_Z 48
_cell_length_a 11.010557
_cell_length_b 11.010557
_cell_length_c 16.946891
_cell_angle_alpha 90.000000
_cell_angle_beta 90.000000
_cell_angle_gamma 90.000000
_cell_volume 2054.511683
_symmetry_space_group_name_H-M "P 41 2 2"
_symmetry_group_IT_number 91
_symmetry_cell_setting 'tetragonal'
loop_
_space_group_symop_operation_xyz
x,y,z
-y,x,1/4+z
-x,-y,1/2+z
y,-x,3/4+z
x,-y,1/2-z
-x,y,-z
y,x,3/4-z
-y,-x,1/4-z
loop_
_atom_site_type_symbol
_atom_site_label
_atom_site_fract_x
_atom_site_fract_y
_atom_site_fract_z
Si Si1 0.734714 0.000000 0.750000
Si Si2 0.726273 0.000000 0.250000
Si Si3 0.913290 0.913290 0.875000
Si Si4 0.340894 0.642564 0.953492
Si Si5 0.804428 0.095369 0.993578
Si Si6 0.071320 0.636709 0.340219
Si Si7 0.881462 0.580119 0.137926
Si Si8 0.598702 0.598702 0.875000
O O1 0.818602 0.088837 0.697328
O O2 0.651778 0.057763 0.815912
O O3 0.808743 0.891726 0.283920
O O4 0.651108 0.931997 0.183856
O O5 0.037281 0.884364 0.828061
O O6 0.351670 0.790490 0.940843
O O7 0.248169 0.558197 0.902872
O O8 0.469707 0.608065 0.916630
O O9 0.318055 0.620223 0.047288
O O10 0.681539 0.145931 0.954278
O O11 0.751909 0.994151 0.050882
O O12 0.979737 0.519539 0.332496
#
# Coordination Sequence:
#
# PCOD9548291 Si02
#       8
#     4   4   4   8   8   8   8   4
#     4  10  22  40  66 112 138 195 237 314 378 454
#     4  12  26  46  68 106 152 201 249 320 400 470
#     4  10  22  39  70  99 146 186 242 306 381 469
#     4  11  26  53  78 113 152 203 267 330 397 462
#     4  11  25  43  68 106 147 196 242 314 395 477
#     4  12  27  47  73 109 153 202 255 318 398 474
#     4  11  25  44  72 110 149 194 256 311 389 466
#     4  10  28  49  80 107 148 206 264 336 373 461
#
# _framework density 23.363216000000001
#
# number of rings (size 3 to 8) (size 9 to 14) (size 15 to 20)
#    0.000    1.000    1.667    3.000   14.000    2.667 
#    9.000    0.000    0.000    0.000    0.000    0.000 
#    0.000    0.000    0.000    0.000    0.000    0.000 
#
# Total GULP energy -267357.525327 kJ/mol
# GULP energy per Si atom -5569.948444 kJ/mol
# Density = 2.331004 g / cm^3
# Si number density = 23.363216 Si / 1000 Ang^3
#
#
#
# Elastic Constant Matrix: (Units=GPa)
#
#
# Indices 1 2 3 4 5 6 
#
# 1 62.6251 25.9389 26.0028 0.0000 0.0000 0.0000
# 2 25.9389 62.6251 26.0028 0.0000 0.0000 0.0000
# 3 26.0028 26.0028 139.8515 0.0000 0.0000 0.0000
# 4 0.0000 0.0000 0.0000 33.5489 0.0000 0.0000
# 5 0.0000 0.0000 0.0000 0.0000 33.5489 0.0000
# 6 0.0000 0.0000 0.0000 0.0000 0.0000 22.7764
#
#
#
# Elastic Compliance Matrix: (Units=1/GPa)
#
#
# Indices 1 2 3 4 5 6 
#
# 1 0.019967 -0.007292 -0.002357 0.000000 0.000000 0.000000
# 2 -0.007292 0.019967 -0.002357 0.000000 0.000000 0.000000
# 3 -0.002357 -0.002357 0.008027 0.000000 0.000000 0.000000
# 4 0.000000 0.000000 0.000000 0.029807 0.000000 0.000000
# 5 0.000000 0.000000 0.000000 0.000000 0.029807 0.000000
# 6 0.000000 0.000000 0.000000 0.000000 0.000000 0.043905
#
#
# Mechanical properties :
#
#
# Convention : Reuss Voigt Hill
#
# Bulk Modulus (GPa) = 41.75317 46.77673 44.26495
# Shear Modulus (GPa) = 27.25196 30.45198 28.85197
#
# Velocity S-wave (km/s) = 3.41903 3.61420 3.51797
# Velocity P-wave (km/s) = 5.78762 6.12222 5.95727
#
# Compressibility (1/GPa) = 0.02395028
#
# Stress axis : x y z
#
# Youngs Moduli (GPa) = 50.08343 50.08343 124.58243
#
# Poissons Ratio (x) = 0.36519 0.29360
# Poissons Ratio (y) = 0.36519 0.29360
# Poissons Ratio (z) = 0.11803 0.11803
#
# Static dielectric constant tensor:
#      x y z
#    x 2.041770 0.000000 0.000000 
#    y 0.000000 2.041770 0.000000 
#    z 0.000000 0.000000 2.184250 
# 
# From -- ./inp_files/5684.got.cif
#   From: 2010.05.17/outbox.cif.g08.bks.cpg/sg91_3_cif.got.tgz:5684.got - 2010.06.03 19:20:03.
