data_PCOD9548932
_publ_section_title
;
Structure prediction by ZEFSAII (Michael W. Deem and Ramdas Pophale) SiO2 
 PCOD9548932
Probable space group: P 41 21 2
;
_chemical_formula_sum "Si O2"
_cell_formula_units_Z 40
_cell_length_a 20.972131
_cell_length_b 20.972131
_cell_length_c 5.446102
_cell_angle_alpha 90.000000
_cell_angle_beta 90.000000
_cell_angle_gamma 90.000000
_cell_volume 2395.360560
_symmetry_space_group_name_H-M "P 41 21 2"
_symmetry_group_IT_number 92
_symmetry_cell_setting 'tetragonal'
loop_
_space_group_symop_operation_xyz
x,y,z
1/2-y,1/2+x,1/4+z
-x,-y,1/2+z
1/2+y,1/2-x,3/4+z
1/2+x,1/2-y,3/4-z
1/2-x,1/2+y,1/4-z
y,x,-z
-y,-x,1/2-z
loop_
_atom_site_type_symbol
_atom_site_label
_atom_site_fract_x
_atom_site_fract_y
_atom_site_fract_z
Si Si1 0.342104 0.232655 0.494985
Si Si2 0.215243 0.893844 0.242379
Si Si3 0.738905 0.363128 0.140794
Si Si4 0.028127 0.028127 0.500000
Si Si5 0.645204 0.354797 0.750000
Si Si6 0.165613 0.030685 0.367145
O O1 0.285428 0.285428 0.500000
O O2 0.377653 0.243202 0.236448
O O3 0.306205 0.165416 0.533656
O O4 0.382758 0.247806 0.737606
O O5 0.155842 0.844159 0.250000
O O6 0.189798 0.965569 0.253385
O O7 0.685483 0.314518 0.250000
O O8 0.721218 0.432863 0.236390
O O9 0.716735 0.360260 0.859170
O O10 0.103709 0.015880 0.530819
O O11 0.006113 0.993887 0.250000
O O12 0.640813 0.415335 0.571306
#
# Coordination Sequence:
#
# PCOD9548932 Si02
#       6
#     8   8   8   4   4   8
#     4   9  20  35  53  74  97 138 175 223 275 321
#     4  10  22  35  50  74 110 141 174 213 274 320
#     4   9  19  33  56  73  99 135 189 231 266 309
#     4  12  25  36  50  70 108 150 194 214 245 294
#     4  10  19  34  56  76 106 140 192 228 263 300
#     4  11  22  35  51  78 104 151 184 227 258 310
#
# _framework density 16.698948000000001
#
# number of rings (size 3 to 8) (size 9 to 14) (size 15 to 20)
#    0.000    2.000    3.000    1.200   12.600    2.400 
#    0.000    0.000    0.000    0.000    0.000    0.000 
#    0.000    3.200    0.000    0.000    0.000    0.000 
#
# Total GULP energy -222780.474071 kJ/mol
# GULP energy per Si atom -5569.511852 kJ/mol
# Density = 1.666094 g / cm^3
# Si number density = 16.698948 Si / 1000 Ang^3
#
#
#
# Elastic Constant Matrix: (Units=GPa)
#
#
# Indices 1 2 3 4 5 6 
#
# 1 46.4204 71.0890 36.0666 0.0000 0.0000 0.0000
# 2 71.0890 46.4128 36.0652 0.0000 0.0000 0.0000
# 3 36.0666 36.0652 94.6525 0.0000 0.0000 0.0000
# 4 0.0000 0.0000 0.0000 18.5248 0.0000 0.0000
# 5 0.0000 0.0000 0.0000 0.0000 18.5250 0.0000
# 6 0.0000 0.0000 0.0000 0.0000 0.0000 25.8052
#
#
#
# Elastic Compliance Matrix: (Units=1/GPa)
#
#
# Indices 1 2 3 4 5 6 
#
# 1 -0.014710 0.025820 -0.004233 0.000000 0.000000 0.000000
# 2 0.025820 -0.014713 -0.004232 0.000000 0.000000 0.000000
# 3 -0.004233 -0.004232 0.013791 0.000000 0.000000 0.000000
# 4 0.000000 0.000000 0.000000 0.053982 0.000000 0.000000
# 5 0.000000 0.000000 0.000000 0.000000 0.053981 0.000000
# 6 0.000000 0.000000 0.000000 0.000000 0.000000 0.038752
#
#
# Mechanical properties :
#
#
# Convention : Reuss Voigt Hill
#
# Bulk Modulus (GPa) = 52.41994 52.65861 52.53927
# Shear Modulus (GPa) = 48.66991 15.52200 32.09596
#
# Velocity S-wave (km/s) = 5.40451 3.05211 4.38886
# Velocity P-wave (km/s) = 8.39073 6.63499 7.56397
#
# Compressibility (1/GPa) = 0.01907671
#
# Stress axis : x y z
#
# Youngs Moduli (GPa) = -67.98186 -67.96822 72.51315
#
# Poissons Ratio (x) = 1.75493 0.30695
# Poissons Ratio (y) = 1.75528 0.30691
# Poissons Ratio (z) = -0.28777 -0.28767
#
# Static dielectric constant tensor:
#      x y z
#    x 1.564480 0.000000 0.000000 
#    y 0.000000 1.564490 0.000000 
#    z 0.000000 0.000000 1.721890 
# 
# From -- ./inp_files/547.got.cif
#   From: 2010.05.17/outbox.cif.g08.bks.cpg/sg92_1_cif.got.tgz:547.got - 2010.06.03 19:35:17.
