data_PCOD9548498
_publ_section_title
;
Structure prediction by ZEFSAII (Michael W. Deem and Ramdas Pophale) SiO2 
 PCOD9548498
Probable space group: P 41 2 2
;
_chemical_formula_sum "Si O2"
_cell_formula_units_Z 36
_cell_length_a 8.952805
_cell_length_b 8.952805
_cell_length_c 22.771876
_cell_angle_alpha 90.000000
_cell_angle_beta 90.000000
_cell_angle_gamma 90.000000
_cell_volume 1825.227741
_symmetry_space_group_name_H-M "P 41 2 2"
_symmetry_group_IT_number 91
_symmetry_cell_setting 'tetragonal'
loop_
_space_group_symop_operation_xyz
x,y,z
-y,x,1/4+z
-x,-y,1/2+z
y,-x,3/4+z
x,-y,1/2-z
-x,y,-z
y,x,3/4-z
-y,-x,1/4-z
loop_
_atom_site_type_symbol
_atom_site_label
_atom_site_fract_x
_atom_site_fract_y
_atom_site_fract_z
Si Si1 0.407514 0.759861 0.739354
Si Si2 0.715158 0.778996 0.693089
Si Si3 0.000000 0.062629 0.500000
Si Si4 0.235607 0.764394 0.625000
Si Si5 0.200582 0.910531 0.833950
Si Si6 0.602203 0.500000 0.750000
O O1 0.549440 0.837739 0.707943
O O2 0.305936 0.701468 0.685101
O O3 0.309671 0.858421 0.782137
O O4 0.489501 0.626075 0.774733
O O5 0.832931 0.859991 0.735225
O O6 0.774031 0.812553 0.628631
O O7 0.699441 0.601193 0.706090
O O8 0.959207 0.954345 0.553889
O O9 0.057200 0.741337 0.618136
#
# Coordination Sequence:
#
# PCOD9548498 Si02
#       6
#     8   8   4   4   8   4
#     4  10  24  41  69  98 133 178 226 280 332 410
#     4  10  24  44  69  94 138 178 221 284 340 400
#     4  12  22  44  64 108 134 174 224 284 336 418
#     4  12  22  42  68 100 130 184 222 274 344 398
#     4  12  22  45  68 102 137 174 235 276 343 413
#     4   8  24  46  62  98 130 176 226 272 334 404
#
# _framework density 19.723568
#
# number of rings (size 3 to 8) (size 9 to 14) (size 15 to 20)
#    1.333    0.000    4.444    0.000    6.222    0.889 
#    4.000    4.444    0.000    0.000    0.000    0.000 
#    0.000    0.000    0.000    0.000    0.000    0.000 
#
# Total GULP energy -200415.659002 kJ/mol
# GULP energy per Si atom -5567.101639 kJ/mol
# Density = 1.967868 g / cm^3
# Si number density = 19.723568 Si / 1000 Ang^3
#
#
#
# Elastic Constant Matrix: (Units=GPa)
#
#
# Indices 1 2 3 4 5 6 
#
# 1 105.2707 47.2460 44.7802 0.0000 0.0000 0.0000
# 2 47.2460 105.2713 44.7805 0.0000 0.0000 0.0000
# 3 44.7802 44.7805 88.0551 0.0000 0.0000 0.0000
# 4 0.0000 0.0000 0.0000 21.1768 0.0000 0.0000
# 5 0.0000 0.0000 0.0000 0.0000 21.1767 0.0000
# 6 0.0000 0.0000 0.0000 0.0000 0.0000 43.6578
#
#
#
# Elastic Compliance Matrix: (Units=1/GPa)
#
#
# Indices 1 2 3 4 5 6 
#
# 1 0.013291 -0.003943 -0.004754 0.000000 0.000000 0.000000
# 2 -0.003943 0.013291 -0.004754 0.000000 0.000000 0.000000
# 3 -0.004754 -0.004754 0.016192 0.000000 0.000000 0.000000
# 4 0.000000 0.000000 0.000000 0.047221 0.000000 0.000000
# 5 0.000000 0.000000 0.000000 0.000000 0.047222 0.000000
# 6 0.000000 0.000000 0.000000 0.000000 0.000000 0.022905
#
#
# Mechanical properties :
#
#
# Convention : Reuss Voigt Hill
#
# Bulk Modulus (GPa) = 63.00317 63.57894 63.29106
# Shear Modulus (GPa) = 25.99896 27.98830 26.99363
#
# Velocity S-wave (km/s) = 3.63460 3.77109 3.70347
# Velocity P-wave (km/s) = 7.04458 7.16006 7.10256
#
# Compressibility (1/GPa) = 0.01587222
#
# Stress axis : x y z
#
# Youngs Moduli (GPa) = 75.23799 75.23818 61.75932
#
# Poissons Ratio (x) = 0.29665 0.29361
# Poissons Ratio (y) = 0.29665 0.29361
# Poissons Ratio (z) = 0.35769 0.35769
#
# Static dielectric constant tensor:
#      x y z
#    x 1.709330 0.000000 0.000000 
#    y 0.000000 1.709320 0.000000 
#    z 0.000000 0.000000 1.714640 
# 
# From -- ./inp_files/7320.got.cif
#   From: 2010.05.17/outbox.cif.g08.bks.cpg/sg91_4_cif.got.tgz:7320.got - 2010.06.03 19:20:03.
