data_PCOD9548842
_publ_section_title
;
Structure prediction by ZEFSAII (Michael W. Deem and Ramdas Pophale) SiO2 
 PCOD9548842
Probable space group: P 41 2 2
;
_chemical_formula_sum "Si O2"
_cell_formula_units_Z 64
_cell_length_a 12.000000
_cell_length_b 12.000000
_cell_length_c 24.000000
_cell_angle_alpha 90.000000
_cell_angle_beta 90.000000
_cell_angle_gamma 90.000000
_cell_volume 3456.000000
_symmetry_space_group_name_H-M "P 41 2 2"
_symmetry_group_IT_number 91
_symmetry_cell_setting 'tetragonal'
loop_
_space_group_symop_operation_xyz
x,y,z
-y,x,1/4+z
-x,-y,1/2+z
y,-x,3/4+z
x,-y,1/2-z
-x,y,-z
y,x,3/4-z
-y,-x,1/4-z
loop_
_atom_site_type_symbol
_atom_site_label
_atom_site_fract_x
_atom_site_fract_y
_atom_site_fract_z
Si Si1 0.211083 0.529807 0.900180
Si Si2 0.884735 0.285266 0.650292
Si Si3 0.255907 0.070044 0.192104
Si Si4 0.070853 0.254013 0.217969
Si Si5 0.596102 0.633808 0.258866
Si Si6 0.397499 0.854994 0.542187
Si Si7 0.476390 0.179377 0.565571
Si Si8 0.615714 0.434460 0.888962
O O1 0.140738 0.629684 0.929404
O O2 0.288365 0.463757 0.945135
O O3 0.148635 0.448496 0.855538
O O4 0.304301 0.587747 0.861759
O O5 0.774069 0.225932 0.625000
O O6 0.902668 0.254770 0.715434
O O7 0.875842 0.419703 0.652661
O O8 0.984565 0.247928 0.609819
O O9 0.143783 0.147269 0.196716
O O10 0.266534 0.000000 0.250000
O O11 0.121666 0.356935 0.182644
O O12 0.939378 0.291548 0.213433
O O13 0.570575 0.500000 0.250000
O O14 0.728387 0.635071 0.273786
O O15 0.551281 0.674299 0.198675
O O16 0.500000 0.890625 0.500000
O O17 0.500000 0.183042 0.500000
O O18 0.464395 0.301515 0.589844
O O19 0.506227 0.506227 0.875000
#
# Coordination Sequence:
#
# PCOD9548842 Si02
#       8
#     8   8   8   8   8   8   8   8
#     4  12  23  42  64  95 137 172 216 271 336 407
#     4  11  23  43  66  95 130 167 218 276 329 397
#     4  12  26  43  66  95 130 173 212 275 342 388
#     4  11  23  43  68  94 124 172 231 270 326 398
#     4  11  23  37  62  97 135 172 214 268 334 397
#     4  11  21  42  68  94 124 175 227 271 320 394
#     4  10  23  38  62  96 130 172 213 261 322 397
#     4  12  22  34  59  97 138 171 204 257 327 406
#
# _framework density 18.518519000000001
#
# number of rings (size 3 to 8) (size 9 to 14) (size 15 to 20)
#    0.000    0.750    6.250    3.375    3.500    0.000 
#    0.000    1.250    0.000    0.000    0.000    0.000 
#    0.000    0.000    0.000    0.000    0.000    0.000 
#
# Total GULP energy -356601.491407 kJ/mol
# GULP energy per Si atom -5571.898303 kJ/mol
# Density = 1.847637 g / cm^3
# Si number density = 18.518519 Si / 1000 Ang^3
#
#
#
# Elastic Constant Matrix: (Units=GPa)
#
#
# Indices 1 2 3 4 5 6 
#
# 1 86.3195 36.0084 39.0134 0.0000 0.0000 0.0000
# 2 36.0084 86.3177 39.0133 0.0000 0.0000 0.0000
# 3 39.0134 39.0133 92.5259 0.0000 0.0000 0.0000
# 4 0.0000 0.0000 0.0000 28.4109 0.0000 0.0000
# 5 0.0000 0.0000 0.0000 0.0000 28.4111 0.0000
# 6 0.0000 0.0000 0.0000 0.0000 0.0000 39.1152
#
#
#
# Elastic Compliance Matrix: (Units=1/GPa)
#
#
# Indices 1 2 3 4 5 6 
#
# 1 0.015529 -0.004347 -0.004715 0.000000 0.000000 0.000000
# 2 -0.004347 0.015530 -0.004715 0.000000 0.000000 0.000000
# 3 -0.004715 -0.004715 0.014784 0.000000 0.000000 0.000000
# 4 0.000000 0.000000 0.000000 0.035198 0.000000 0.000000
# 5 0.000000 0.000000 0.000000 0.000000 0.035198 0.000000
# 6 0.000000 0.000000 0.000000 0.000000 0.000000 0.025566
#
#
# Mechanical properties :
#
#
# Convention : Reuss Voigt Hill
#
# Bulk Modulus (GPa) = 54.67908 54.80370 54.74139
# Shear Modulus (GPa) = 28.49745 29.26262 28.88003
#
# Velocity S-wave (km/s) = 3.92709 3.97946 3.95336
# Velocity P-wave (km/s) = 7.08191 7.12552 7.10375
#
# Compressibility (1/GPa) = 0.01828853
#
# Stress axis : x y z
#
# Youngs Moduli (GPa) = 64.39438 64.39282 67.64104
#
# Poissons Ratio (x) = 0.27993 0.31892
# Poissons Ratio (y) = 0.27994 0.31893
# Poissons Ratio (z) = 0.30361 0.30362
#
# Static dielectric constant tensor:
#      x y z
#    x 1.669900 0.000000 0.000000 
#    y 0.000000 1.669900 0.000000 
#    z 0.000000 0.000000 1.677280 
# 
# From -- ./inp_files/21869.got.cif
#   From: 2010.05.17/outbox.ucp.g08.bks.cvg/sg91_11_cif.got.tgz:21869.got - 2010.06.11 10:36:11.
