data_PCOD9548270
_publ_section_title
;
Structure prediction by ZEFSAII (Michael W. Deem and Ramdas Pophale) SiO2 
 PCOD9548270
Probable space group: P 41 2 2
;
_chemical_formula_sum "Si O2"
_cell_formula_units_Z 44
_cell_length_a 9.193103
_cell_length_b 9.193103
_cell_length_c 27.896067
_cell_angle_alpha 90.000000
_cell_angle_beta 90.000000
_cell_angle_gamma 90.000000
_cell_volume 2357.584293
_symmetry_space_group_name_H-M "P 41 2 2"
_symmetry_group_IT_number 91
_symmetry_cell_setting 'tetragonal'
loop_
_space_group_symop_operation_xyz
x,y,z
-y,x,1/4+z
-x,-y,1/2+z
y,-x,3/4+z
x,-y,1/2-z
-x,y,-z
y,x,3/4-z
-y,-x,1/4-z
loop_
_atom_site_type_symbol
_atom_site_label
_atom_site_fract_x
_atom_site_fract_y
_atom_site_fract_z
Si Si1 0.220829 0.077817 0.068138
Si Si2 0.236457 0.560493 0.593852
Si Si3 0.343620 0.272131 0.991931
Si Si4 0.794044 0.777899 0.080091
Si Si5 0.099366 0.000000 0.250000
Si Si6 0.448582 0.990058 0.576016
O O1 0.173128 0.119004 0.121779
O O2 0.377161 0.993879 0.071123
O O3 0.267447 0.225800 0.040727
O O4 0.102301 0.997489 0.035237
O O5 0.365848 0.634153 0.625000
O O6 0.241820 0.637197 0.542752
O O7 0.247426 0.389014 0.587908
O O8 0.089792 0.584586 0.623759
O O9 0.387974 0.124325 0.963388
O O10 0.500000 0.347858 0.000000
O O11 0.647083 0.867849 0.072873
O O12 0.897051 0.806380 0.034594
#
# Coordination Sequence:
#
# PCOD9548270 Si02
#       6
#     8   8   8   8   4   8
#     4  10  22  38  62  89 119 161 210 243 298 375
#     4   9  20  39  63  89 118 156 207 253 295 364
#     4   9  17  36  61  87 111 154 205 248 289 357
#     4  11  23  41  61  92 127 161 201 255 313 357
#     4  12  24  38  60  92 128 162 202 252 306 378
#     4   9  19  39  64  82 121 161 198 248 306 360
#
# _framework density 18.663173
#
# number of rings (size 3 to 8) (size 9 to 14) (size 15 to 20)
#    0.000    2.182    1.818    1.636    2.545    1.455 
#    9.818    3.636    0.000    0.000    0.000    0.000 
#    0.000    0.000    0.000    0.000    0.000    0.000 
#
# Total GULP energy -245397.797140 kJ/mol
# GULP energy per Si atom -5577.222662 kJ/mol
# Density = 1.862070 g / cm^3
# Si number density = 18.663173 Si / 1000 Ang^3
#
#
#
# Elastic Constant Matrix: (Units=GPa)
#
#
# Indices 1 2 3 4 5 6 
#
# 1 53.4669 40.6420 17.8496 0.0000 0.0000 0.0000
# 2 40.6420 53.4669 17.8490 0.0000 0.0000 0.0000
# 3 17.8496 17.8490 100.2214 0.0000 0.0000 0.0000
# 4 0.0000 0.0000 0.0000 23.9055 0.0000 0.0000
# 5 0.0000 0.0000 0.0000 0.0000 23.9052 0.0000
# 6 0.0000 0.0000 0.0000 0.0000 0.0000 20.1716
#
#
#
# Elastic Compliance Matrix: (Units=1/GPa)
#
#
# Indices 1 2 3 4 5 6 
#
# 1 0.044685 -0.033289 -0.002030 0.000000 0.000000 0.000000
# 2 -0.033289 0.044685 -0.002029 0.000000 0.000000 0.000000
# 3 -0.002030 -0.002029 0.010701 0.000000 0.000000 0.000000
# 4 0.000000 0.000000 0.000000 0.041831 0.000000 0.000000
# 5 0.000000 0.000000 0.000000 0.000000 0.041832 0.000000
# 6 0.000000 0.000000 0.000000 0.000000 0.000000 0.049575
#
#
# Mechanical properties :
#
#
# Convention : Reuss Voigt Hill
#
# Bulk Modulus (GPa) = 39.41006 39.98183 39.69594
# Shear Modulus (GPa) = 15.79969 22.31743 19.05856
#
# Velocity S-wave (km/s) = 2.91274 3.46179 3.19907
# Velocity P-wave (km/s) = 5.69863 6.11947 5.91280
#
# Compressibility (1/GPa) = 0.02537423
#
# Stress axis : x y z
#
# Youngs Moduli (GPa) = 22.37902 22.37911 93.45061
#
# Poissons Ratio (x) = 0.74497 0.18969
# Poissons Ratio (y) = 0.74497 0.18964
# Poissons Ratio (z) = 0.04543 0.04541
#
# Static dielectric constant tensor:
#      x y z
#    x 1.638510 0.000000 0.000000 
#    y 0.000000 1.638510 0.000000 
#    z 0.000000 0.000000 1.679180 
# 
# From -- ./inp_files/7815.got.cif
#   From: 2010.05.17/outbox.cif.g08.bks.cpg/sg91_4_cif.got.tgz:7815.got - 2010.06.03 19:20:03.
