data_PCOD9548074
_publ_section_title
;
Structure prediction by ZEFSAII (Michael W. Deem and Ramdas Pophale) SiO2 
 PCOD9548074
Probable space group: P 41 2 2
;
_chemical_formula_sum "Si O2"
_cell_formula_units_Z 36
_cell_length_a 13.128418
_cell_length_b 13.128418
_cell_length_c 10.452964
_cell_angle_alpha 90.000000
_cell_angle_beta 90.000000
_cell_angle_gamma 90.000000
_cell_volume 1801.624365
_symmetry_space_group_name_H-M "P 41 2 2"
_symmetry_group_IT_number 91
_symmetry_cell_setting 'tetragonal'
loop_
_space_group_symop_operation_xyz
x,y,z
-y,x,1/4+z
-x,-y,1/2+z
y,-x,3/4+z
x,-y,1/2-z
-x,y,-z
y,x,3/4-z
-y,-x,1/4-z
loop_
_atom_site_type_symbol
_atom_site_label
_atom_site_fract_x
_atom_site_fract_y
_atom_site_fract_z
Si Si1 0.956592 0.611370 0.733274
Si Si2 0.730286 0.000000 0.250000
Si Si3 0.200311 0.200311 0.875000
Si Si4 0.098723 0.000000 0.250000
Si Si5 0.190888 0.608271 0.789591
Si Si6 0.721340 0.147651 0.710838
O O1 0.909919 0.500000 0.750000
O O2 0.933500 0.663600 0.599161
O O3 0.930832 0.677931 0.856455
O O4 0.078144 0.600686 0.729376
O O5 0.790384 0.084011 0.170705
O O6 0.227958 0.284746 0.768367
O O7 0.177296 0.095279 0.227363
O O8 0.033336 0.033336 0.375000
O O9 0.241071 0.500000 0.750000
O O10 0.176556 0.634111 0.938807
O O11 0.758337 0.241664 0.625000
#
# Coordination Sequence:
#
# PCOD9548074 Si02
#       6
#     8   4   4   4   8   8
#     4  10  21  34  62  86 120 159 215 264 328 375
#     4  10  22  39  59  92 130 168 207 271 302 394
#     4  10  22  40  62  92 128 162 214 254 322 370
#     4  10  22  41  59  82 126 184 227 261 316 384
#     4  10  21  38  63  89 122 163 211 270 316 371
#     4  11  21  39  59  85 126 166 209 271 322 387
#
# _framework density 19.981968999999999
#
# number of rings (size 3 to 8) (size 9 to 14) (size 15 to 20)
#    0.000    1.778    2.222    1.333    9.333    0.000 
#    2.000    4.444   19.556    0.000    2.889    0.000 
#    0.000    0.000    0.000    0.000    0.000    0.000 
#
# Total GULP energy -200639.367670 kJ/mol
# GULP energy per Si atom -5573.315769 kJ/mol
# Density = 1.993649 g / cm^3
# Si number density = 19.981969 Si / 1000 Ang^3
#
#
#
# Elastic Constant Matrix: (Units=GPa)
#
#
# Indices 1 2 3 4 5 6 
#
# 1 72.3432 18.9189 30.3793 0.0000 0.0000 0.0000
# 2 18.9189 72.3410 30.3795 0.0000 0.0000 0.0000
# 3 30.3793 30.3795 105.6333 0.0000 0.0000 0.0000
# 4 0.0000 0.0000 0.0000 23.3116 0.0000 0.0000
# 5 0.0000 0.0000 0.0000 0.0000 23.3123 0.0000
# 6 0.0000 0.0000 0.0000 0.0000 0.0000 1.6548
#
#
#
# Elastic Compliance Matrix: (Units=1/GPa)
#
#
# Indices 1 2 3 4 5 6 
#
# 1 0.016135 -0.002583 -0.003897 0.000000 0.000000 0.000000
# 2 -0.002583 0.016136 -0.003898 0.000000 0.000000 0.000000
# 3 -0.003897 -0.003898 0.011709 0.000000 0.000000 0.000000
# 4 0.000000 0.000000 0.000000 0.042897 0.000000 0.000000
# 5 0.000000 0.000000 0.000000 0.000000 0.042896 0.000000
# 6 0.000000 0.000000 0.000000 0.000000 0.000000 0.604319
#
#
# Mechanical properties :
#
#
# Convention : Reuss Voigt Hill
#
# Bulk Modulus (GPa) = 43.06052 45.51919 44.28985
# Shear Modulus (GPa) = 6.55662 21.03173 13.79417
#
# Velocity S-wave (km/s) = 1.81339 3.24780 2.63027
# Velocity P-wave (km/s) = 5.09715 6.07403 5.60691
#
# Compressibility (1/GPa) = 0.02322313
#
# Stress axis : x y z
#
# Youngs Moduli (GPa) = 61.97637 61.97408 85.40767
#
# Poissons Ratio (x) = 0.16008 0.33288
# Poissons Ratio (y) = 0.16009 0.33289
# Poissons Ratio (z) = 0.24155 0.24156
#
# Static dielectric constant tensor:
#      x y z
#    x 1.776840 0.000000 0.000000 
#    y 0.000000 1.776840 0.000000 
#    z 0.000000 0.000000 1.753240 
# 
# From -- ./inp_files/9646.got.cif
#   From: 2010.05.17/outbox.cif.g08.bks.cpg/sg91_5_cif.got.tgz:9646.got - 2010.06.03 19:20:03.
