data_PCOD9548736
_publ_section_title
;
Structure prediction by ZEFSAII (Michael W. Deem and Ramdas Pophale) SiO2 
 PCOD9548736
Probable space group: P 41 2 2
;
_chemical_formula_sum "Si O2"
_cell_formula_units_Z 40
_cell_length_a 9.199937
_cell_length_b 9.199937
_cell_length_c 21.746903
_cell_angle_alpha 90.000000
_cell_angle_beta 90.000000
_cell_angle_gamma 90.000000
_cell_volume 1840.632661
_symmetry_space_group_name_H-M "P 41 2 2"
_symmetry_group_IT_number 91
_symmetry_cell_setting 'tetragonal'
loop_
_space_group_symop_operation_xyz
x,y,z
-y,x,1/4+z
-x,-y,1/2+z
y,-x,3/4+z
x,-y,1/2-z
-x,y,-z
y,x,3/4-z
-y,-x,1/4-z
loop_
_atom_site_type_symbol
_atom_site_label
_atom_site_fract_x
_atom_site_fract_y
_atom_site_fract_z
Si Si1 0.573419 0.039072 0.937111
Si Si2 0.516928 0.278956 0.163135
Si Si3 0.511117 0.721037 0.104262
Si Si4 0.135830 0.632942 0.473500
Si Si5 0.952814 0.079035 0.311324
O O1 0.520955 0.874684 0.926598
O O2 0.528049 0.144081 0.880555
O O3 0.747626 0.029462 0.941733
O O4 0.500000 0.094496 0.000000
O O5 0.601465 0.398536 0.125000
O O6 0.372720 0.368758 0.183056
O O7 0.628740 0.234998 0.216431
O O8 0.369990 0.630011 0.125000
O O9 0.578548 0.764366 0.169574
O O10 0.063659 0.778104 0.445263
O O11 0.000000 0.539394 0.500000
O O12 0.014592 0.000000 0.250000
O O13 0.014003 0.014003 0.375000
#
# Coordination Sequence:
#
# PCOD9548736 Si02
#       5
#     8   8   8   8   8
#     4  12  26  45  71 109 147 189 248 313 387 460
#     4  11  25  44  73 102 143 191 245 303 371 458
#     4  11  26  45  68 105 143 188 244 305 381 441
#     4  11  23  45  73 103 142 192 248 306 383 453
#     4  11  27  49  78 110 148 198 260 320 389 473
#
# _framework density 21.731660000000002
#
# number of rings (size 3 to 8) (size 9 to 14) (size 15 to 20)
#    0.000    0.800    4.000    1.800    5.600    4.800 
#    3.600    0.000    0.000    0.000    0.000    0.000 
#    0.000    0.000    0.000    0.000    0.000    0.000 
#
# Total GULP energy -223097.381012 kJ/mol
# GULP energy per Si atom -5577.434525 kJ/mol
# Density = 2.168220 g / cm^3
# Si number density = 21.731660 Si / 1000 Ang^3
#
#
#
# Elastic Constant Matrix: (Units=GPa)
#
#
# Indices 1 2 3 4 5 6 
#
# 1 100.9442 20.8373 32.5210 0.0000 0.0000 0.0000
# 2 20.8373 100.9429 32.5201 0.0000 0.0000 0.0000
# 3 32.5210 32.5201 113.2968 0.0000 0.0000 0.0000
# 4 0.0000 0.0000 0.0000 16.8785 0.0000 0.0000
# 5 0.0000 0.0000 0.0000 0.0000 16.8759 0.0000
# 6 0.0000 0.0000 0.0000 0.0000 0.0000 28.6257
#
#
#
# Elastic Compliance Matrix: (Units=1/GPa)
#
#
# Indices 1 2 3 4 5 6 
#
# 1 0.011091 -0.001393 -0.002784 0.000000 0.000000 0.000000
# 2 -0.001393 0.011091 -0.002784 0.000000 0.000000 0.000000
# 3 -0.002784 -0.002784 0.010424 0.000000 0.000000 0.000000
# 4 0.000000 0.000000 0.000000 0.059247 0.000000 0.000000
# 5 0.000000 0.000000 0.000000 0.000000 0.059256 0.000000
# 6 0.000000 0.000000 0.000000 0.000000 0.000000 0.034934
#
#
# Mechanical properties :
#
#
# Convention : Reuss Voigt Hill
#
# Bulk Modulus (GPa) = 53.51638 54.10453 53.81045
# Shear Modulus (GPa) = 24.24927 27.76306 26.00616
#
# Velocity S-wave (km/s) = 3.34406 3.57815 3.46308
# Velocity P-wave (km/s) = 6.29204 6.48240 6.38793
#
# Compressibility (1/GPa) = 0.01868587
#
# Stress axis : x y z
#
# Youngs Moduli (GPa) = 90.16500 90.16423 95.92816
#
# Poissons Ratio (x) = 0.12556 0.26705
# Poissons Ratio (y) = 0.12556 0.26704
# Poissons Ratio (z) = 0.25100 0.25099
#
# Static dielectric constant tensor:
#      x y z
#    x 1.880880 0.000000 0.000000 
#    y 0.000000 1.880880 0.000000 
#    z 0.000000 0.000000 1.876910 
# 
# From -- ./inp_files/6781.got.cif
#   From: 2010.05.17/outbox.cif.g08.bks.cpg/sg91_4_cif.got.tgz:6781.got - 2010.06.03 19:20:03.
