data_PCOD9548904
_publ_section_title
;
Structure prediction by ZEFSAII (Michael W. Deem and Ramdas Pophale) SiO2 
 PCOD9548904
Probable space group: P 41 21 2
;
_chemical_formula_sum "Si O2"
_cell_formula_units_Z 48
_cell_length_a 10.828248
_cell_length_b 10.828248
_cell_length_c 17.841315
_cell_angle_alpha 90.000000
_cell_angle_beta 90.000000
_cell_angle_gamma 90.000000
_cell_volume 2091.911218
_symmetry_space_group_name_H-M "P 41 21 2"
_symmetry_group_IT_number 92
_symmetry_cell_setting 'tetragonal'
loop_
_space_group_symop_operation_xyz
x,y,z
1/2-y,1/2+x,1/4+z
-x,-y,1/2+z
1/2+y,1/2-x,3/4+z
1/2+x,1/2-y,3/4-z
1/2-x,1/2+y,1/4-z
y,x,-z
-y,-x,1/2-z
loop_
_atom_site_type_symbol
_atom_site_label
_atom_site_fract_x
_atom_site_fract_y
_atom_site_fract_z
Si Si1 0.452285 0.834756 0.133709
Si Si2 0.447370 0.552631 0.250000
Si Si3 0.753888 0.234659 0.397744
Si Si4 0.507414 0.348863 0.368089
Si Si5 0.276088 0.638756 0.058756
Si Si6 0.941411 0.666403 0.447992
Si Si7 0.959858 0.040143 0.750000
O O1 0.594052 0.796930 0.145918
O O2 0.384973 0.717314 0.097538
O O3 0.403290 0.867621 0.217481
O O4 0.417908 0.944190 0.076962
O O5 0.458856 0.436804 0.303664
O O6 0.314482 0.538205 0.209858
O O7 0.644280 0.300678 0.352426
O O8 0.757389 0.292316 0.481554
O O9 0.893654 0.244184 0.367487
O O10 0.523192 0.433790 0.439783
O O11 0.169087 0.640787 0.122240
O O12 0.331270 0.502084 0.038766
#
# Coordination Sequence:
#
# PCOD9548904 Si02
#       7
#     8   4   8   8   8   8   4
#     4  12  22  43  69  98 138 183 223 296 371 427
#     4  12  20  47  71 100 136 186 240 278 365 433
#     4  11  24  44  66 102 144 186 236 304 366 432
#     4  11  23  41  71  97 136 187 235 289 359 437
#     4  11  21  42  66  91 134 180 231 291 361 425
#     4  12  23  41  70  98 131 185 235 285 357 437
#     4  10  18  37  69  88 120 182 232 268 353 433
#
# _framework density 22.945523999999999
#
# number of rings (size 3 to 8) (size 9 to 14) (size 15 to 20)
#    0.000    0.667    8.333    0.000    0.000    2.000 
#    3.000    3.333    0.000    0.000    0.000    0.000 
#    0.000    0.000    0.000    0.000    0.000    0.000 
#
# Total GULP energy -267685.353304 kJ/mol
# GULP energy per Si atom -5576.778194 kJ/mol
# Density = 2.289330 g / cm^3
# Si number density = 22.945524 Si / 1000 Ang^3
#
#
#
# Elastic Constant Matrix: (Units=GPa)
#
#
# Indices 1 2 3 4 5 6 
#
# 1 42.4706 -15.1938 12.5187 0.0000 0.0000 0.0000
# 2 -15.1938 42.4721 12.5175 0.0000 0.0000 0.0000
# 3 12.5187 12.5175 50.7417 0.0000 0.0000 0.0000
# 4 0.0000 0.0000 0.0000 -10.3068 0.0000 0.0000
# 5 0.0000 0.0000 0.0000 0.0000 -10.3052 0.0000
# 6 0.0000 0.0000 0.0000 0.0000 0.0000 25.5000
#
#
#
# Elastic Compliance Matrix: (Units=1/GPa)
#
#
# Indices 1 2 3 4 5 6 
#
# 1 0.032367 0.015025 -0.011692 0.000000 0.000000 0.000000
# 2 0.015025 0.032365 -0.011691 0.000000 0.000000 0.000000
# 3 -0.011692 -0.011691 0.025476 0.000000 0.000000 0.000000
# 4 0.000000 0.000000 0.000000 -0.097023 0.000000 0.000000
# 5 0.000000 0.000000 0.000000 0.000000 -0.097039 0.000000
# 6 0.000000 0.000000 0.000000 0.000000 0.000000 0.039216
#
#
# Mechanical properties :
#
#
# Convention : Reuss Voigt Hill
#
# Bulk Modulus (GPa) = 13.60687 17.26324 15.43506
# Shear Modulus (GPa) = -213.46045 9.36707 -102.04669
#
# Velocity S-wave (km/s) = -9.65563 2.02266 -6.67608
# Velocity P-wave (km/s) = 10.87958 3.60483 7.25846
#
# Compressibility (1/GPa) = 0.07349230
#
# Stress axis : x y z
#
# Youngs Moduli (GPa) = 30.89563 30.89727 39.25224
#
# Poissons Ratio (x) = -0.46422 0.45893
# Poissons Ratio (y) = -0.46420 0.45890
# Poissons Ratio (z) = 0.36123 0.36122
#
# Static dielectric constant tensor:
#      x y z
#    x 1.899410 0.000000 0.000000 
#    y 0.000000 1.899410 0.000000 
#    z 0.000000 0.000000 1.978180 
# 
# From -- ./inp_files/3169.got.cif
#   From: 2010.05.17/outbox.cif.g08.bks.cpg/sg92_2_cif.got.tgz:3169.got - 2010.06.03 19:35:17.
