data_PCOD9548710
_publ_section_title
;
Structure prediction by ZEFSAII (Michael W. Deem and Ramdas Pophale) SiO2 
 PCOD9548710
Probable space group: P 41 2 2
;
_chemical_formula_sum "Si O2"
_cell_formula_units_Z 60
_cell_length_a 11.011242
_cell_length_b 11.011242
_cell_length_c 22.094424
_cell_angle_alpha 90.000000
_cell_angle_beta 90.000000
_cell_angle_gamma 90.000000
_cell_volume 2678.892578
_symmetry_space_group_name_H-M "P 41 2 2"
_symmetry_group_IT_number 91
_symmetry_cell_setting 'tetragonal'
loop_
_space_group_symop_operation_xyz
x,y,z
-y,x,1/4+z
-x,-y,1/2+z
y,-x,3/4+z
x,-y,1/2-z
-x,y,-z
y,x,3/4-z
-y,-x,1/4-z
loop_
_atom_site_type_symbol
_atom_site_label
_atom_site_fract_x
_atom_site_fract_y
_atom_site_fract_z
Si Si1 0.628737 0.888420 0.614856
Si Si2 0.229023 0.270177 0.530827
Si Si3 0.632546 0.480307 0.521219
Si Si4 0.248562 0.357762 0.754854
Si Si5 0.289862 0.145427 0.424184
Si Si6 0.540493 0.240251 0.385545
Si Si7 0.611799 0.017134 0.176245
Si Si8 0.199796 0.199796 0.875000
O O1 0.711773 0.879316 0.674096
O O2 0.674264 0.791846 0.564057
O O3 0.492904 0.895041 0.644791
O O4 0.657775 0.013969 0.584157
O O5 0.256142 0.388944 0.490461
O O6 0.223972 0.157017 0.487726
O O7 0.349825 0.263655 0.570175
O O8 0.500000 0.437896 0.500000
O O9 0.650895 0.606970 0.486628
O O10 0.648224 0.520504 0.590214
O O11 0.211587 0.500000 0.750000
O O12 0.203156 0.284684 0.813499
O O13 0.198146 0.198146 0.375000
O O14 0.413023 0.224618 0.420183
O O15 0.576652 0.115693 0.350444
O O16 0.742109 0.074062 0.154675
O O17 0.606598 0.000000 0.250000
#
# Coordination Sequence:
#
# PCOD9548710 Si02
#       8
#     8   8   8   8   8   8   8   4
#     4  11  25  44  71  99 143 191 240 298 374 453
#     4  12  24  41  68  98 140 183 230 295 366 437
#     4  11  23  38  66 105 150 180 222 294 373 441
#     4  11  23  41  63 105 144 184 236 291 365 456
#     4  11  25  42  69 100 132 178 244 297 355 438
#     4  11  23  43  65 103 141 187 233 288 363 442
#     4  11  25  44  71 105 147 194 249 306 373 454
#     4  12  24  42  74 100 144 194 254 314 366 436
#
# _framework density 22.397314999999999
#
# number of rings (size 3 to 8) (size 9 to 14) (size 15 to 20)
#    0.000    0.800    4.000    3.600    3.733    0.000 
#    0.000    0.000    1.467    1.600    0.000    0.000 
#    0.000    0.000    0.000    0.000    0.000    0.000 
#
# Total GULP energy -334216.154463 kJ/mol
# GULP energy per Si atom -5570.269241 kJ/mol
# Density = 2.234634 g / cm^3
# Si number density = 22.397315 Si / 1000 Ang^3
#
#
#
# Elastic Constant Matrix: (Units=GPa)
#
#
# Indices 1 2 3 4 5 6 
#
# 1 33.7985 13.9489 14.0968 0.0000 0.0000 0.0000
# 2 13.9489 33.7985 14.0968 0.0000 0.0000 0.0000
# 3 14.0968 14.0968 103.6338 0.0000 0.0000 0.0000
# 4 0.0000 0.0000 0.0000 -10.1338 0.0000 0.0000
# 5 0.0000 0.0000 0.0000 0.0000 -10.1338 0.0000
# 6 0.0000 0.0000 0.0000 0.0000 0.0000 18.5798
#
#
#
# Elastic Compliance Matrix: (Units=1/GPa)
#
#
# Indices 1 2 3 4 5 6 
#
# 1 0.036576 -0.013803 -0.003098 0.000000 0.000000 0.000000
# 2 -0.013803 0.036576 -0.003098 0.000000 0.000000 0.000000
# 3 -0.003098 -0.003098 0.010492 0.000000 0.000000 0.000000
# 4 0.000000 0.000000 0.000000 -0.098680 0.000000 0.000000
# 5 0.000000 0.000000 0.000000 0.000000 -0.098680 0.000000
# 6 0.000000 0.000000 0.000000 0.000000 0.000000 0.053822
#
#
# Mechanical properties :
#
#
# Convention : Reuss Voigt Hill
#
# Bulk Modulus (GPa) = 22.91124 28.39065 25.65095
# Shear Modulus (GPa) = -934.83878 8.26834 -463.28522
#
# Velocity S-wave (km/s) = -20.45226 1.92346 -14.39783
# Velocity P-wave (km/s) = 23.39818 4.19956 16.27634
#
# Compressibility (1/GPa) = 0.04364671
#
# Stress axis : x y z
#
# Youngs Moduli (GPa) = 27.34056 27.34056 95.30997
#
# Poissons Ratio (x) = 0.37738 0.29524
# Poissons Ratio (y) = 0.37738 0.29524
# Poissons Ratio (z) = 0.08469 0.08469
#
# Static dielectric constant tensor:
#      x y z
#    x 1.879610 0.000000 0.000000 
#    y 0.000000 1.879610 0.000000 
#    z 0.000000 0.000000 1.937980 
# 
# From -- ./inp_files/21585.got.cif
#   From: 2010.05.17/outbox.cif.g08.bks.cpg/sg91_11_cif.got.tgz:21585.got - 2010.06.03 19:20:03.
