data_PCOD9548366
_publ_section_title
;
Structure prediction by ZEFSAII (Michael W. Deem and Ramdas Pophale) SiO2 
 PCOD9548366
Probable space group: P 41 2 2
;
_chemical_formula_sum "Si O2"
_cell_formula_units_Z 56
_cell_length_a 14.715111
_cell_length_b 14.715111
_cell_length_c 12.578471
_cell_angle_alpha 90.000000
_cell_angle_beta 90.000000
_cell_angle_gamma 90.000000
_cell_volume 2723.672825
_symmetry_space_group_name_H-M "P 41 2 2"
_symmetry_group_IT_number 91
_symmetry_cell_setting 'tetragonal'
loop_
_space_group_symop_operation_xyz
x,y,z
-y,x,1/4+z
-x,-y,1/2+z
y,-x,3/4+z
x,-y,1/2-z
-x,y,-z
y,x,3/4-z
-y,-x,1/4-z
loop_
_atom_site_type_symbol
_atom_site_label
_atom_site_fract_x
_atom_site_fract_y
_atom_site_fract_z
Si Si1 0.477874 0.744234 0.811009
Si Si2 0.811246 0.916648 0.170040
Si Si3 0.157035 0.984660 0.067390
Si Si4 0.327420 0.327420 0.375000
Si Si5 0.500000 0.126855 0.500000
Si Si6 0.442052 0.813399 0.403070
Si Si7 0.736508 0.703789 0.638721
Si Si8 0.633920 0.003103 0.625697
O O1 0.567882 0.689024 0.842634
O O2 0.499195 0.794600 0.702175
O O3 0.381877 0.695691 0.821721
O O4 0.459098 0.815167 0.905036
O O5 0.742267 0.830653 0.160991
O O6 0.914057 0.883376 0.194449
O O7 0.786240 0.000000 0.250000
O O8 0.820778 0.951469 0.050265
O O9 0.085159 0.914842 0.125000
O O10 0.256690 0.990883 0.121447
O O11 0.267994 0.306862 0.268755
O O12 0.584779 0.080766 0.558927
O O13 0.500000 0.774908 0.500000
O O14 0.342295 0.776234 0.380605
O O15 0.416178 0.916820 0.424628
O O16 0.608945 0.000000 0.750000
#
# Coordination Sequence:
#
# PCOD9548366 Si02
#       8
#     8   8   8   4   4   8   8   8
#     4  11  23  44  70 103 139 168 229 297 349 423
#     4  12  26  45  66  97 143 192 234 286 351 416
#     4  12  26  44  70  99 139 182 239 294 343 414
#     4  10  22  42  76 102 136 170 230 304 364 408
#     4  12  22  40  68 100 136 168 228 290 360 402
#     4  11  25  45  68  99 141 186 229 280 349 432
#     4  11  24  45  71 105 138 186 235 290 357 426
#     4  12  24  42  68 100 133 179 231 293 349 407
#
# _framework density 20.560471
#
# number of rings (size 3 to 8) (size 9 to 14) (size 15 to 20)
#    0.000    0.571    5.000    3.429    1.000    1.714 
#    5.143    2.857    0.000    0.000    0.000    0.000 
#    0.000    0.000    0.000    0.000    0.000    0.000 
#
# Total GULP energy -312135.336983 kJ/mol
# GULP energy per Si atom -5573.845303 kJ/mol
# Density = 2.051367 g / cm^3
# Si number density = 20.560471 Si / 1000 Ang^3
#
#
#
# Elastic Constant Matrix: (Units=GPa)
#
#
# Indices 1 2 3 4 5 6 
#
# 1 82.9150 11.0883 29.1998 0.0000 0.0000 0.0000
# 2 11.0883 82.9145 29.1986 0.0000 0.0000 0.0000
# 3 29.1998 29.1986 93.9485 0.0000 0.0000 0.0000
# 4 0.0000 0.0000 0.0000 30.5755 0.0000 0.0000
# 5 0.0000 0.0000 0.0000 0.0000 30.5752 0.0000
# 6 0.0000 0.0000 0.0000 0.0000 0.0000 90.5361
#
#
#
# Elastic Compliance Matrix: (Units=1/GPa)
#
#
# Indices 1 2 3 4 5 6 
#
# 1 0.013553 -0.000370 -0.004097 0.000000 0.000000 0.000000
# 2 -0.000370 0.013553 -0.004097 0.000000 0.000000 0.000000
# 3 -0.004097 -0.004097 0.013191 0.000000 0.000000 0.000000
# 4 0.000000 0.000000 0.000000 0.032706 0.000000 0.000000
# 5 0.000000 0.000000 0.000000 0.000000 0.032706 0.000000
# 6 0.000000 0.000000 0.000000 0.000000 0.000000 0.011045
#
#
# Mechanical properties :
#
#
# Convention : Reuss Voigt Hill
#
# Bulk Modulus (GPa) = 43.16244 44.30571 43.73407
# Shear Modulus (GPa) = 35.30929 43.02347 39.16638
#
# Velocity S-wave (km/s) = 4.14857 4.57938 4.36929
# Velocity P-wave (km/s) = 6.63220 7.03966 6.83896
#
# Compressibility (1/GPa) = 0.02316829
#
# Stress axis : x y z
#
# Youngs Moduli (GPa) = 73.78469 73.78485 75.80883
#
# Poissons Ratio (x) = 0.02726 0.31063
# Poissons Ratio (y) = 0.02726 0.31061
# Poissons Ratio (z) = 0.30233 0.30232
#
# Static dielectric constant tensor:
#      x y z
#    x 1.880850 0.000000 0.000000 
#    y 0.000000 1.880840 0.000000 
#    z 0.000000 0.000000 1.739360 
# 
# From -- ./inp_files/20352.got.cif
#   From: 2010.05.17/outbox.cif.g08.bks.cpg/sg91_11_cif.got.tgz:20352.got - 2010.06.03 19:20:03.
