data_PCOD9548046
_publ_section_title
;
Structure prediction by ZEFSAII (Michael W. Deem and Ramdas Pophale) SiO2 
 PCOD9548046
Probable space group: P 41 2 2
;
_chemical_formula_sum "Si O2"
_cell_formula_units_Z 28
_cell_length_a 7.398319
_cell_length_b 7.398319
_cell_length_c 22.758597
_cell_angle_alpha 90.000000
_cell_angle_beta 90.000000
_cell_angle_gamma 90.000000
_cell_volume 1245.694629
_symmetry_space_group_name_H-M "P 41 2 2"
_symmetry_group_IT_number 91
_symmetry_cell_setting 'tetragonal'
loop_
_space_group_symop_operation_xyz
x,y,z
-y,x,1/4+z
-x,-y,1/2+z
y,-x,3/4+z
x,-y,1/2-z
-x,y,-z
y,x,3/4-z
-y,-x,1/4-z
loop_
_atom_site_type_symbol
_atom_site_label
_atom_site_fract_x
_atom_site_fract_y
_atom_site_fract_z
Si Si1 0.421292 0.421292 0.375000
Si Si2 0.867486 0.619036 0.416072
Si Si3 0.954217 0.692625 0.846264
Si Si4 0.740629 0.295497 0.958113
O O1 0.397190 0.585948 0.419466
O O2 0.234374 0.412352 0.337950
O O3 0.745244 0.745244 0.375000
O O4 0.922581 0.421153 0.391978
O O5 0.771999 0.614159 0.479267
O O6 0.065057 0.704558 0.426067
O O7 0.082972 0.697566 0.789922
O O8 0.879646 0.879646 0.875000
#
# Coordination Sequence:
#
# PCOD9548046 Si02
#       4
#     4   8   8   8
#     4   8  20  40  62  96 130 172 226 272 342 412
#     4  10  22  40  63  99 135 174 236 284 344 418
#     4   9  20  41  64  94 133 175 224 278 345 413
#     4  10  20  42  66  93 135 181 225 288 341 416
#
# _framework density 22.477419999999999
#
# number of rings (size 3 to 8) (size 9 to 14) (size 15 to 20)
#    0.857    1.714    0.000    0.857    2.000    1.143 
#   15.429    0.000    0.000    0.000    0.000    0.000 
#    0.000    0.000    0.000    0.000    0.000    0.000 
#
# Total GULP energy -155939.893421 kJ/mol
# GULP energy per Si atom -5569.281908 kJ/mol
# Density = 2.242626 g / cm^3
# Si number density = 22.477420 Si / 1000 Ang^3
#
#
#
# Elastic Constant Matrix: (Units=GPa)
#
#
# Indices 1 2 3 4 5 6 
#
# 1 130.3389 52.4804 45.3172 0.0000 0.0000 0.0000
# 2 52.4804 130.3389 45.3172 0.0000 0.0000 0.0000
# 3 45.3172 45.3172 47.3950 0.0000 0.0000 0.0000
# 4 0.0000 0.0000 0.0000 19.7189 0.0000 0.0000
# 5 0.0000 0.0000 0.0000 0.0000 19.7189 0.0000
# 6 0.0000 0.0000 0.0000 0.0000 0.0000 19.6827
#
#
#
# Elastic Compliance Matrix: (Units=1/GPa)
#
#
# Indices 1 2 3 4 5 6 
#
# 1 0.011622 -0.001222 -0.009944 0.000000 0.000000 0.000000
# 2 -0.001222 0.011622 -0.009944 0.000000 0.000000 0.000000
# 3 -0.009944 -0.009944 0.040115 0.000000 0.000000 0.000000
# 4 0.000000 0.000000 0.000000 0.050713 0.000000 0.000000
# 5 0.000000 0.000000 0.000000 0.000000 0.050713 0.000000
# 6 0.000000 0.000000 0.000000 0.000000 0.000000 0.050806
#
#
# Mechanical properties :
#
#
# Convention : Reuss Voigt Hill
#
# Bulk Modulus (GPa) = 47.30535 66.03359 56.66947
# Shear Modulus (GPa) = 18.87830 22.82132 20.84981
#
# Velocity S-wave (km/s) = 2.90121 3.18983 3.04894
# Velocity P-wave (km/s) = 5.68455 6.55807 6.13687
#
# Compressibility (1/GPa) = 0.02113926
#
# Stress axis : x y z
#
# Youngs Moduli (GPa) = 86.04626 86.04626 24.92859
#
# Poissons Ratio (x) = 0.10516 0.24788
# Poissons Ratio (y) = 0.10516 0.24788
# Poissons Ratio (z) = 0.85561 0.85561
#
# Static dielectric constant tensor:
#      x y z
#    x 1.896200 0.000000 0.000000 
#    y 0.000000 1.896200 0.000000 
#    z 0.000000 0.000000 1.840320 
# 
# From -- ./inp_files/5872.got.cif
#   From: 2010.05.17/outbox.cif.g08.bks.cpg/sg91_3_cif.got.tgz:5872.got - 2010.06.03 19:20:03.
