data_PCOD9548909
_publ_section_title
;
Structure prediction by ZEFSAII (Michael W. Deem and Ramdas Pophale) SiO2 
 PCOD9548909
Probable space group: P 41 21 2
;
_chemical_formula_sum "Si O2"
_cell_formula_units_Z 60
_cell_length_a 17.351691
_cell_length_b 17.351691
_cell_length_c 9.131951
_cell_angle_alpha 90.000000
_cell_angle_beta 90.000000
_cell_angle_gamma 90.000000
_cell_volume 2749.458588
_symmetry_space_group_name_H-M "P 41 21 2"
_symmetry_group_IT_number 92
_symmetry_cell_setting 'tetragonal'
loop_
_space_group_symop_operation_xyz
x,y,z
1/2-y,1/2+x,1/4+z
-x,-y,1/2+z
1/2+y,1/2-x,3/4+z
1/2+x,1/2-y,3/4-z
1/2-x,1/2+y,1/4-z
y,x,-z
-y,-x,1/2-z
loop_
_atom_site_type_symbol
_atom_site_label
_atom_site_fract_x
_atom_site_fract_y
_atom_site_fract_z
Si Si1 0.333611 0.333611 0.000000
Si Si2 0.364763 0.848436 0.708217
Si Si3 0.005599 0.157701 0.863952
Si Si4 0.822284 0.486382 0.523002
Si Si5 0.039060 0.584087 0.547595
Si Si6 0.095358 0.738017 0.038487
Si Si7 0.687305 0.436128 0.213751
Si Si8 0.607971 0.486377 0.946670
O O1 0.328926 0.417861 0.069305
O O2 0.330998 0.274100 0.131736
O O3 0.426834 0.867402 0.579553
O O4 0.381089 0.889454 0.861967
O O5 0.290108 0.879582 0.622050
O O6 0.381571 0.758360 0.740932
O O7 0.045578 0.236258 0.809015
O O8 0.044839 0.082132 0.797586
O O9 0.005997 0.140348 0.034960
O O10 0.856032 0.503584 0.681889
O O11 0.819401 0.560349 0.412971
O O12 0.060400 0.516116 0.433206
O O13 0.022279 0.796882 0.026782
O O14 0.608156 0.391845 0.250000
O O15 0.678466 0.456994 0.044464
O O16 0.563606 0.563606 0.000000
#
# Coordination Sequence:
#
# PCOD9548909 Si02
#       8
#     4   8   8   8   8   8   8   8
#     4  10  18  40  62  92 132 170 226 288 340 416
#     4  11  24  44  66  97 137 185 226 291 355 432
#     4  10  22  37  64  97 133 180 228 286 350 415
#     4  10  22  42  66  92 137 172 231 287 358 418
#     4  12  24  40  69  99 128 173 236 297 355 420
#     4  10  22  42  69  95 136 187 236 285 356 433
#     4  11  24  44  68  98 142 184 229 298 363 425
#     4  11  22  36  66 103 136 182 235 287 343 425
#
# _framework density 21.822478
#
# number of rings (size 3 to 8) (size 9 to 14) (size 15 to 20)
#    0.000    1.333    0.667    6.400    5.600    0.000 
#    4.800    2.000    0.000    0.000    0.000    0.000 
#    0.000    0.000    0.000    0.000    0.000    0.000 
#
# Total GULP energy -334269.769383 kJ/mol
# GULP energy per Si atom -5571.162823 kJ/mol
# Density = 2.177281 g / cm^3
# Si number density = 21.822478 Si / 1000 Ang^3
#
#
#
# Elastic Constant Matrix: (Units=GPa)
#
#
# Indices 1 2 3 4 5 6 
#
# 1 25.0277 27.7731 34.2874 0.0000 0.0000 0.0000
# 2 27.7731 25.0288 34.2880 0.0000 0.0000 0.0000
# 3 34.2874 34.2880 164.0915 0.0000 0.0000 0.0000
# 4 0.0000 0.0000 0.0000 18.8711 0.0000 0.0000
# 5 0.0000 0.0000 0.0000 0.0000 18.8685 0.0000
# 6 0.0000 0.0000 0.0000 0.0000 0.0000 25.7004
#
#
#
# Elastic Compliance Matrix: (Units=1/GPa)
#
#
# Indices 1 2 3 4 5 6 
#
# 1 -0.169163 0.195152 -0.005431 0.000000 0.000000 0.000000
# 2 0.195152 -0.169155 -0.005431 0.000000 0.000000 0.000000
# 3 -0.005431 -0.005431 0.008364 0.000000 0.000000 0.000000
# 4 0.000000 0.000000 0.000000 0.052991 0.000000 0.000000
# 5 0.000000 0.000000 0.000000 0.000000 0.052998 0.000000
# 6 0.000000 0.000000 0.000000 0.000000 0.000000 0.038910
#
#
# Mechanical properties :
#
#
# Convention : Reuss Voigt Hill
#
# Bulk Modulus (GPa) = 25.89044 45.20501 35.54773
# Shear Modulus (GPa) = -9.24629 20.54130 5.64751
#
# Velocity S-wave (km/s) = -2.06064 3.07138 1.61045
# Velocity P-wave (km/s) = 2.49564 5.77388 4.44780
#
# Compressibility (1/GPa) = 0.03862429
#
# Stress axis : x y z
#
# Youngs Moduli (GPa) = -5.91146 -5.91175 119.56050
#
# Poissons Ratio (x) = 1.15369 0.64935
# Poissons Ratio (y) = 1.15363 0.64939
# Poissons Ratio (z) = -0.03211 -0.03211
#
# Static dielectric constant tensor:
#      x y z
#    x 2.219930 0.000000 0.000000 
#    y 0.000000 2.219950 0.000000 
#    z 0.000000 0.000000 1.814540 
# 
# From -- ./inp_files/1629.got.cif
#   From: 2010.05.17/outbox.cif.g08.bks.cpg/sg92_1_cif.got.tgz:1629.got - 2010.06.03 19:35:17.
