data_PCOD9548580
_publ_section_title
;
Structure prediction by ZEFSAII (Michael W. Deem and Ramdas Pophale) SiO2 
 PCOD9548580
Probable space group: P 41 2 2
;
_chemical_formula_sum "Si O2"
_cell_formula_units_Z 40
_cell_length_a 11.182845
_cell_length_b 11.182845
_cell_length_c 15.696417
_cell_angle_alpha 90.000000
_cell_angle_beta 90.000000
_cell_angle_gamma 90.000000
_cell_volume 1962.931474
_symmetry_space_group_name_H-M "P 41 2 2"
_symmetry_group_IT_number 91
_symmetry_cell_setting 'tetragonal'
loop_
_space_group_symop_operation_xyz
x,y,z
-y,x,1/4+z
-x,-y,1/2+z
y,-x,3/4+z
x,-y,1/2-z
-x,y,-z
y,x,3/4-z
-y,-x,1/4-z
loop_
_atom_site_type_symbol
_atom_site_label
_atom_site_fract_x
_atom_site_fract_y
_atom_site_fract_z
Si Si1 0.364619 0.545333 0.488298
Si Si2 0.741091 0.060547 0.997955
Si Si3 0.070231 0.500000 0.250000
Si Si4 0.110952 0.842268 0.934752
Si Si5 0.284035 0.284035 0.875000
Si Si6 0.348327 0.291141 0.558496
O O1 0.500000 0.585252 0.500000
O O2 0.286630 0.597177 0.566200
O O3 0.367441 0.400909 0.492851
O O4 0.331450 0.607991 0.400706
O O5 0.819155 0.076474 0.912808
O O6 0.722560 0.175968 0.057428
O O7 0.609396 0.012972 0.968864
O O8 0.816472 0.964881 0.052586
O O9 0.168047 0.576907 0.301709
O O10 0.210050 0.741211 0.952773
O O11 0.000000 0.836922 0.000000
#
# Coordination Sequence:
#
# PCOD9548580 Si02
#       6
#     8   8   4   8   4   8
#     4  12  23  42  71 106 142 182 227 290 358 430
#     4  11  27  48  72 100 142 179 244 290 354 419
#     4  10  26  46  66 104 142 180 226 300 340 430
#     4  11  26  48  72 100 136 191 235 292 351 419
#     4  12  26  42  74 100 138 190 234 296 350 418
#     4  11  24  44  70 104 141 185 234 283 364 423
#
# _framework density 20.377687000000002
#
# number of rings (size 3 to 8) (size 9 to 14) (size 15 to 20)
#    0.000    0.800    5.000    0.600    9.800    0.000 
#    0.000    0.000    0.000    0.000    0.000    0.000 
#    0.000    0.000    0.000    0.000    0.000    0.000 
#
# Total GULP energy -222890.504981 kJ/mol
# GULP energy per Si atom -5572.262625 kJ/mol
# Density = 2.033131 g / cm^3
# Si number density = 20.377687 Si / 1000 Ang^3
#
#
#
# Elastic Constant Matrix: (Units=GPa)
#
#
# Indices 1 2 3 4 5 6 
#
# 1 83.7997 49.9067 36.9572 0.0000 0.0000 0.0000
# 2 49.9067 83.7997 36.9572 0.0000 0.0000 0.0000
# 3 36.9572 36.9572 55.7187 0.0000 0.0000 0.0000
# 4 0.0000 0.0000 0.0000 63.1651 0.0000 0.0000
# 5 0.0000 0.0000 0.0000 0.0000 63.1651 0.0000
# 6 0.0000 0.0000 0.0000 0.0000 0.0000 32.5104
#
#
#
# Elastic Compliance Matrix: (Units=1/GPa)
#
#
# Indices 1 2 3 4 5 6 
#
# 1 0.020657 -0.008848 -0.007833 0.000000 0.000000 0.000000
# 2 -0.008848 0.020657 -0.007833 0.000000 0.000000 0.000000
# 3 -0.007833 -0.007833 0.028338 0.000000 0.000000 0.000000
# 4 0.000000 0.000000 0.000000 0.015832 0.000000 0.000000
# 5 0.000000 0.000000 0.000000 0.000000 0.015832 0.000000
# 6 0.000000 0.000000 0.000000 0.000000 0.000000 0.030759
#
#
# Mechanical properties :
#
#
# Convention : Reuss Voigt Hill
#
# Bulk Modulus (GPa) = 48.48460 52.32893 50.40676
# Shear Modulus (GPa) = 26.59920 38.40128 32.50024
#
# Velocity S-wave (km/s) = 3.61683 4.34577 3.99794
# Velocity P-wave (km/s) = 6.42546 7.13556 6.78980
#
# Compressibility (1/GPa) = 0.02062511
#
# Stress axis : x y z
#
# Youngs Moduli (GPa) = 48.41007 48.41007 35.28842
#
# Poissons Ratio (x) = 0.42832 0.27641
# Poissons Ratio (y) = 0.42832 0.27641
# Poissons Ratio (z) = 0.37918 0.37918
#
# Static dielectric constant tensor:
#      x y z
#    x 1.565660 0.000000 0.000000 
#    y 0.000000 1.565660 0.000000 
#    z 0.000000 0.000000 1.061760 
# 
# From -- ./inp_files/4804.got.cif
#   From: 2010.05.17/outbox.cif.g08.bks.cpg/sg91_3_cif.got.tgz:4804.got - 2010.06.03 19:20:03.
