data_PCOD9548073
_publ_section_title
;
Structure prediction by ZEFSAII (Michael W. Deem and Ramdas Pophale) SiO2 
 PCOD9548073
Probable space group: P 41 2 2
;
_chemical_formula_sum "Si O2"
_cell_formula_units_Z 52
_cell_length_a 17.523990
_cell_length_b 17.523990
_cell_length_c 8.393614
_cell_angle_alpha 90.000000
_cell_angle_beta 90.000000
_cell_angle_gamma 90.000000
_cell_volume 2577.596816
_symmetry_space_group_name_H-M "P 41 2 2"
_symmetry_group_IT_number 91
_symmetry_cell_setting 'tetragonal'
loop_
_space_group_symop_operation_xyz
x,y,z
-y,x,1/4+z
-x,-y,1/2+z
y,-x,3/4+z
x,-y,1/2-z
-x,y,-z
y,x,3/4-z
-y,-x,1/4-z
loop_
_atom_site_type_symbol
_atom_site_label
_atom_site_fract_x
_atom_site_fract_y
_atom_site_fract_z
Si Si1 0.758585 0.420445 0.832680
Si Si2 0.128071 0.528068 0.572711
Si Si3 0.713895 0.262286 0.805689
Si Si4 0.205987 0.205987 0.875000
Si Si5 0.025941 0.209028 0.838560
Si Si6 0.647715 0.000000 0.250000
Si Si7 0.755449 0.000000 0.750000
Si Si8 0.870265 0.371052 0.564673
O O1 0.737126 0.500000 0.750000
O O2 0.698089 0.352427 0.820929
O O3 0.831595 0.383512 0.737680
O O4 0.791832 0.442797 0.002996
O O5 0.133734 0.500000 0.750000
O O6 0.068660 0.595820 0.553645
O O7 0.098138 0.454699 0.473982
O O8 0.749046 0.250954 0.625000
O O9 0.644208 0.203385 0.799023
O O10 0.764057 0.242767 0.960542
O O11 0.115924 0.219676 0.858077
O O12 0.984535 0.291441 0.860286
O O13 0.009475 0.191342 0.655876
O O14 0.000000 0.164791 0.000000
O O15 0.697808 0.927947 0.775727
#
# Coordination Sequence:
#
# PCOD9548073 Si02
#       8
#     8   8   8   4   8   4   4   8
#     4   9  20  37  53  77 119 160 203 256 315 369
#     4  11  21  32  52  79 117 162 201 243 300 375
#     4  10  22  37  59  86 121 164 212 268 317 377
#     4  12  22  40  62  92 118 168 214 272 320 370
#     4  10  25  37  60  86 120 152 208 250 312 379
#     4  10  21  38  48  82 119 164 190 252 298 389
#     4  12  19  38  54  84 119 158 198 250 308 387
#     4  10  21  34  55  84 115 165 207 246 307 385
#
# _framework density 20.173832000000001
#
# number of rings (size 3 to 8) (size 9 to 14) (size 15 to 20)
#    0.462    1.231    1.538    3.231    6.462    1.846 
#    0.000    0.000    0.000    0.000    2.000    0.000 
#    0.000   29.538    0.000    0.000    0.000    0.000 
#
# Total GULP energy -289507.093600 kJ/mol
# GULP energy per Si atom -5567.444108 kJ/mol
# Density = 2.012792 g / cm^3
# Si number density = 20.173832 Si / 1000 Ang^3
#
#
#
# Elastic Constant Matrix: (Units=GPa)
#
#
# Indices 1 2 3 4 5 6 
#
# 1 54.4032 7.5580 16.5194 0.0000 0.0000 0.0000
# 2 7.5580 54.4032 16.5193 0.0000 0.0000 0.0000
# 3 16.5194 16.5193 141.6850 0.0000 0.0000 0.0000
# 4 0.0000 0.0000 0.0000 17.3434 0.0000 0.0000
# 5 0.0000 0.0000 0.0000 0.0000 17.3433 0.0000
# 6 0.0000 0.0000 0.0000 0.0000 0.0000 3.9000
#
#
#
# Elastic Compliance Matrix: (Units=1/GPa)
#
#
# Indices 1 2 3 4 5 6 
#
# 1 0.019278 -0.002069 -0.002006 0.000000 0.000000 0.000000
# 2 -0.002069 0.019278 -0.002006 0.000000 0.000000 0.000000
# 3 -0.002006 -0.002006 0.007526 0.000000 0.000000 0.000000
# 4 0.000000 0.000000 0.000000 0.057659 0.000000 0.000000
# 5 0.000000 0.000000 0.000000 0.000000 0.057659 0.000000
# 6 0.000000 0.000000 0.000000 0.000000 0.000000 0.256408
#
#
# Mechanical properties :
#
#
# Convention : Reuss Voigt Hill
#
# Bulk Modulus (GPa) = 29.48283 36.85386 33.16835
# Shear Modulus (GPa) = 11.33075 21.71033 16.52054
#
# Velocity S-wave (km/s) = 2.37250 3.28405 2.86476
# Velocity P-wave (km/s) = 4.70650 5.71732 5.23636
#
# Compressibility (1/GPa) = 0.03391805
#
# Stress axis : x y z
#
# Youngs Moduli (GPa) = 51.87272 51.87272 132.87661
#
# Poissons Ratio (x) = 0.10732 0.26661
# Poissons Ratio (y) = 0.10732 0.26661
# Poissons Ratio (z) = 0.10408 0.10408
#
# Static dielectric constant tensor:
#      x y z
#    x 1.739670 0.000000 0.000000 
#    y 0.000000 1.739670 0.000000 
#    z 0.000000 0.000000 1.823450 
# 
# From -- ./inp_files/2787.got.cif
#   From: 2010.05.17/outbox.cif.g08.bks.cpg/sg91_2_cif.got.tgz:2787.got - 2010.06.03 19:20:03.
