data_PCOD9548143
_publ_section_title
;
Structure prediction by ZEFSAII (Michael W. Deem and Ramdas Pophale) SiO2 
 PCOD9548143
Probable space group: P 41 2 2
;
_chemical_formula_sum "Si O2"
_cell_formula_units_Z 48
_cell_length_a 11.751287
_cell_length_b 11.751287
_cell_length_c 17.707509
_cell_angle_alpha 90.000000
_cell_angle_beta 90.000000
_cell_angle_gamma 90.000000
_cell_volume 2445.278545
_symmetry_space_group_name_H-M "P 41 2 2"
_symmetry_group_IT_number 91
_symmetry_cell_setting 'tetragonal'
loop_
_space_group_symop_operation_xyz
x,y,z
-y,x,1/4+z
-x,-y,1/2+z
y,-x,3/4+z
x,-y,1/2-z
-x,y,-z
y,x,3/4-z
-y,-x,1/4-z
loop_
_atom_site_type_symbol
_atom_site_label
_atom_site_fract_x
_atom_site_fract_y
_atom_site_fract_z
Si Si1 0.231751 0.619259 0.019959
Si Si2 0.158266 0.893947 0.299023
Si Si3 0.518412 0.918741 0.322346
Si Si4 0.065479 0.753799 0.656208
Si Si5 0.313150 0.032124 0.066754
Si Si6 0.202636 0.597444 0.193376
O O1 0.210653 0.572252 0.104454
O O2 0.354240 0.678627 0.025618
O O3 0.154348 0.729319 0.995995
O O4 0.203861 0.521551 0.959925
O O5 0.214086 0.937785 0.376173
O O6 0.056484 0.812489 0.327074
O O7 0.112652 0.000000 0.250000
O O8 0.646588 0.935791 0.349731
O O9 0.432642 0.946100 0.390895
O O10 0.495571 0.000000 0.250000
O O11 0.152692 0.847309 0.625000
O O12 0.097437 0.702970 0.738510
O O13 0.309861 0.896970 0.053338
O O14 0.164871 0.500000 0.250000
#
# Coordination Sequence:
#
# PCOD9548143 Si02
#       6
#     8   8   8   8   8   8
#     4  10  21  39  65  94 129 165 218 276 334 390
#     4  11  23  39  62  98 137 176 214 270 332 397
#     4  11  23  44  66  92 127 175 226 274 327 399
#     4  12  29  40  64  97 140 182 217 269 334 415
#     4  11  22  42  65  92 130 177 219 269 334 397
#     4  11  20  36  66 102 124 162 219 285 337 390
#
# _framework density 19.629667000000001
#
# number of rings (size 3 to 8) (size 9 to 14) (size 15 to 20)
#    0.000    1.000    5.000    2.500    4.667    0.000 
#    3.000    0.000    3.667    0.000    0.000    0.000 
#    0.000    0.000    0.000    0.000    0.000    0.000 
#
# Total GULP energy -267581.264462 kJ/mol
# GULP energy per Si atom -5574.609676 kJ/mol
# Density = 1.958499 g / cm^3
# Si number density = 19.629667 Si / 1000 Ang^3
#
#
#
# Elastic Constant Matrix: (Units=GPa)
#
#
# Indices 1 2 3 4 5 6 
#
# 1 79.2922 43.9524 47.1525 0.0000 0.0000 0.0000
# 2 43.9524 79.2911 47.1524 0.0000 0.0000 0.0000
# 3 47.1525 47.1524 121.6774 0.0000 0.0000 0.0000
# 4 0.0000 0.0000 0.0000 30.9116 0.0000 0.0000
# 5 0.0000 0.0000 0.0000 0.0000 30.9111 0.0000
# 6 0.0000 0.0000 0.0000 0.0000 0.0000 91.8991
#
#
#
# Elastic Compliance Matrix: (Units=1/GPa)
#
#
# Indices 1 2 3 4 5 6 
#
# 1 0.019916 -0.008382 -0.004470 0.000000 0.000000 0.000000
# 2 -0.008382 0.019916 -0.004470 0.000000 0.000000 0.000000
# 3 -0.004470 -0.004470 0.011683 0.000000 0.000000 0.000000
# 4 0.000000 0.000000 0.000000 0.032350 0.000000 0.000000
# 5 0.000000 0.000000 0.000000 0.000000 0.032351 0.000000
# 6 0.000000 0.000000 0.000000 0.000000 0.000000 0.010881
#
#
# Mechanical properties :
#
#
# Convention : Reuss Voigt Hill
#
# Bulk Modulus (GPa) = 59.26943 61.86393 60.56668
# Shear Modulus (GPa) = 29.87524 40.21125 35.04324
#
# Velocity S-wave (km/s) = 3.90544 4.53094 4.22977
# Velocity P-wave (km/s) = 7.11309 7.67831 7.40110
#
# Compressibility (1/GPa) = 0.01687210
#
# Stress axis : x y z
#
# Youngs Moduli (GPa) = 50.21213 50.21128 85.59688
#
# Poissons Ratio (x) = 0.42085 0.38259
# Poissons Ratio (y) = 0.42085 0.38260
# Poissons Ratio (z) = 0.22443 0.22443
#
# Static dielectric constant tensor:
#      x y z
#    x 1.723450 0.000000 0.000000 
#    y 0.000000 1.723450 0.000000 
#    z 0.000000 0.000000 1.711140 
# 
# From -- ./inp_files/11934.got.cif
#   From: 2010.05.17/outbox.cif.g08.bks.cpg/sg91_6_cif.got.tgz:11934.got - 2010.06.03 19:20:03.
