data_PCOD9548959
_publ_section_title
;
Structure prediction by ZEFSAII (Michael W. Deem and Ramdas Pophale) SiO2 
 PCOD9548959
Probable space group: P 41 21 2
;
_chemical_formula_sum "Si O2"
_cell_formula_units_Z 48
_cell_length_a 8.503046
_cell_length_b 8.503046
_cell_length_c 32.979496
_cell_angle_alpha 90.000000
_cell_angle_beta 90.000000
_cell_angle_gamma 90.000000
_cell_volume 2384.476636
_symmetry_space_group_name_H-M "P 41 21 2"
_symmetry_group_IT_number 92
_symmetry_cell_setting 'tetragonal'
loop_
_space_group_symop_operation_xyz
x,y,z
1/2-y,1/2+x,1/4+z
-x,-y,1/2+z
1/2+y,1/2-x,3/4+z
1/2+x,1/2-y,3/4-z
1/2-x,1/2+y,1/4-z
y,x,-z
-y,-x,1/2-z
loop_
_atom_site_type_symbol
_atom_site_label
_atom_site_fract_x
_atom_site_fract_y
_atom_site_fract_z
Si Si1 0.492011 0.181395 0.532952
Si Si2 0.502052 0.190022 0.214477
Si Si3 0.257952 0.282975 0.681396
Si Si4 0.718154 0.530033 0.746197
Si Si5 0.354745 0.730428 0.845095
Si Si6 0.287866 0.537871 0.005133
O O1 0.632705 0.052723 0.532795
O O2 0.394024 0.194054 0.573814
O O3 0.578573 0.342111 0.521363
O O4 0.374113 0.124745 0.497629
O O5 0.414024 0.346245 0.230814
O O6 0.595343 0.245104 0.174868
O O7 0.360660 0.061805 0.214764
O O8 0.403271 0.233463 0.709842
O O9 0.236103 0.173657 0.642746
O O10 0.287293 0.462021 0.666976
O O11 0.109780 0.268689 0.711950
O O12 0.635118 0.364883 0.750000
O O13 0.372280 0.372280 0.000000
#
# Coordination Sequence:
#
# PCOD9548959 Si02
#       6
#     8   8   8   8   8   8
#     4  10  20  33  65  89 115 162 215 255 302 379
#     4  10  19  37  65  82 117 170 204 254 304 384
#     4  10  24  35  65  89 124 162 213 266 311 381
#     4  10  19  40  62  89 116 167 213 255 312 377
#     4  12  21  39  61  91 126 160 216 259 323 372
#     4  10  22  39  62  95 120 161 218 259 314 371
#
# _framework density 20.130205
#
# number of rings (size 3 to 8) (size 9 to 14) (size 15 to 20)
#    0.000    2.000    5.000    1.500    7.000    0.667 
#    0.000    0.000   14.667    0.000    0.000    0.000 
#    0.000    0.000    0.000    0.000    0.000    0.000 
#
# Total GULP energy -267873.919986 kJ/mol
# GULP energy per Si atom -5580.706666 kJ/mol
# Density = 2.008439 g / cm^3
# Si number density = 20.130205 Si / 1000 Ang^3
#
#
#
# Elastic Constant Matrix: (Units=GPa)
#
#
# Indices 1 2 3 4 5 6 
#
# 1 62.4520 93.0554 21.1556 0.0000 0.0000 0.0000
# 2 93.0554 62.4537 21.1567 0.0000 0.0000 0.0000
# 3 21.1556 21.1567 89.6655 0.0000 0.0000 0.0000
# 4 0.0000 0.0000 0.0000 17.1400 0.0000 0.0000
# 5 0.0000 0.0000 0.0000 0.0000 17.1395 0.0000
# 6 0.0000 0.0000 0.0000 0.0000 0.0000 61.6418
#
#
#
# Elastic Compliance Matrix: (Units=1/GPa)
#
#
# Indices 1 2 3 4 5 6 
#
# 1 -0.012903 0.019774 -0.001622 0.000000 0.000000 0.000000
# 2 0.019774 -0.012903 -0.001621 0.000000 0.000000 0.000000
# 3 -0.001622 -0.001621 0.011918 0.000000 0.000000 0.000000
# 4 0.000000 0.000000 0.000000 0.058343 0.000000 0.000000
# 5 0.000000 0.000000 0.000000 0.000000 0.058345 0.000000
# 6 0.000000 0.000000 0.000000 0.000000 0.000000 0.016223
#
#
# Mechanical properties :
#
#
# Convention : Reuss Voigt Hill
#
# Bulk Modulus (GPa) = 52.14947 53.92296 53.03621
# Shear Modulus (GPa) = 54.14105 24.46451 39.30278
#
# Velocity S-wave (km/s) = 5.19171 3.48992 4.42342
# Velocity P-wave (km/s) = 7.86770 6.56389 7.24518
#
# Compressibility (1/GPa) = 0.01917565
#
# Stress axis : x y z
#
# Youngs Moduli (GPa) = -77.50251 -77.50417 83.90914
#
# Poissons Ratio (x) = 1.53259 0.13606
# Poissons Ratio (y) = 1.53256 0.13603
# Poissons Ratio (z) = -0.12567 -0.12565
#
# Static dielectric constant tensor:
#      x y z
#    x 1.775220 0.000000 0.000000 
#    y 0.000000 1.775220 0.000000 
#    z 0.000000 0.000000 1.667690 
# 
# From -- ./inp_files/4518.got.cif
#   From: 2010.05.17/outbox.cif.g08.bks.cpg/sg92_3_cif.got.tgz:4518.got - 2010.06.03 19:35:17.
