data_PCOD9548296
_publ_section_title
;
Structure prediction by ZEFSAII (Michael W. Deem and Ramdas Pophale) SiO2 
 PCOD9548296
Probable space group: P 41 2 2
;
_chemical_formula_sum "Si O2"
_cell_formula_units_Z 40
_cell_length_a 13.814269
_cell_length_b 13.814269
_cell_length_c 9.305033
_cell_angle_alpha 90.000000
_cell_angle_beta 90.000000
_cell_angle_gamma 90.000000
_cell_volume 1775.716928
_symmetry_space_group_name_H-M "P 41 2 2"
_symmetry_group_IT_number 91
_symmetry_cell_setting 'tetragonal'
loop_
_space_group_symop_operation_xyz
x,y,z
-y,x,1/4+z
-x,-y,1/2+z
y,-x,3/4+z
x,-y,1/2-z
-x,y,-z
y,x,3/4-z
-y,-x,1/4-z
loop_
_atom_site_type_symbol
_atom_site_label
_atom_site_fract_x
_atom_site_fract_y
_atom_site_fract_z
Si Si1 0.254731 0.507835 0.919334
Si Si2 0.828691 0.166528 0.953510
Si Si3 0.055478 0.207391 0.305741
Si Si4 0.416299 0.125897 0.403318
Si Si5 0.656707 0.703390 0.110227
O O1 0.240250 0.500000 0.750000
O O2 0.332559 0.593752 0.939877
O O3 0.157890 0.540591 0.001985
O O4 0.287336 0.410462 0.999512
O O5 0.920867 0.205657 0.864921
O O6 0.742747 0.235716 0.896616
O O7 0.822179 0.053672 0.915809
O O8 0.828665 0.171336 0.125000
O O9 0.134329 0.134329 0.375000
O O10 0.070565 0.316333 0.357938
O O11 0.500000 0.078036 0.500000
O O12 0.387530 0.224781 0.490729
#
# Coordination Sequence:
#
# PCOD9548296 Si02
#       5
#     8   8   8   8   8
#     4  11  20  36  61  90 123 161 203 254 312 372
#     4  11  23  41  63  92 127 164 210 268 325 384
#     4  11  23  39  64  94 126 167 214 264 326 394
#     4   9  20  40  63  89 124 167 210 255 314 382
#     4  10  22  40  61  87 124 165 206 255 314 382
#
# _framework density 22.526112000000001
#
# number of rings (size 3 to 8) (size 9 to 14) (size 15 to 20)
#    0.000    1.600    0.000    6.000    0.000    2.400 
#    0.000   14.000    0.000    9.600    0.000    0.000 
#    0.000    0.000    0.000    0.000    0.000    0.000 
#
# Total GULP energy -223764.042996 kJ/mol
# GULP energy per Si atom -5594.101075 kJ/mol
# Density = 2.247484 g / cm^3
# Si number density = 22.526112 Si / 1000 Ang^3
#
#
#
# Elastic Constant Matrix: (Units=GPa)
#
#
# Indices 1 2 3 4 5 6 
#
# 1 50.5793 61.3309 5.9583 0.0000 0.0000 0.0000
# 2 61.3309 50.5797 5.9584 0.0000 0.0000 0.0000
# 3 5.9583 5.9584 109.8029 0.0000 0.0000 0.0000
# 4 0.0000 0.0000 0.0000 27.8225 0.0000 0.0000
# 5 0.0000 0.0000 0.0000 0.0000 27.8226 0.0000
# 6 0.0000 0.0000 0.0000 0.0000 0.0000 -6.3501
#
#
#
# Elastic Compliance Matrix: (Units=1/GPa)
#
#
# Indices 1 2 3 4 5 6 
#
# 1 -0.042012 0.051000 -0.000488 0.000000 0.000000 0.000000
# 2 0.051000 -0.042012 -0.000488 0.000000 0.000000 0.000000
# 3 -0.000488 -0.000488 0.009160 0.000000 0.000000 0.000000
# 4 0.000000 0.000000 0.000000 0.035942 0.000000 0.000000
# 5 0.000000 0.000000 0.000000 0.000000 0.035942 0.000000
# 6 0.000000 0.000000 0.000000 0.000000 0.000000 -0.157478
#
#
# Mechanical properties :
#
#
# Convention : Reuss Voigt Hill
#
# Bulk Modulus (GPa) = 39.70674 39.71745 39.71209
# Shear Modulus (GPa) = -19.83254 19.03997 -0.39629
#
# Velocity S-wave (km/s) = -2.97041 2.91046 -0.41989
# Velocity P-wave (km/s) = 2.42915 5.38185 4.17523
#
# Compressibility (1/GPa) = 0.02518464
#
# Stress axis : x y z
#
# Youngs Moduli (GPa) = -23.80262 -23.80284 109.16846
#
# Poissons Ratio (x) = 1.21394 0.05324
# Poissons Ratio (y) = 1.21393 0.05324
# Poissons Ratio (z) = -0.01161 -0.01161
#
# Static dielectric constant tensor:
#      x y z
#    x 1.832120 0.000000 0.000000 
#    y 0.000000 1.832120 0.000000 
#    z 0.000000 0.000000 1.879940 
# 
# From -- ./inp_files/19401.got.cif
#   From: 2010.05.17/outbox.cif.g08.bks.cpg/sg91_10_cif.got.tgz:19401.got - 2010.06.03 19:20:03.
