data_PCOD9548442
_publ_section_title
;
Structure prediction by ZEFSAII (Michael W. Deem and Ramdas Pophale) SiO2 
 PCOD9548442
Probable space group: P 41 2 2
;
_chemical_formula_sum "Si O2"
_cell_formula_units_Z 28
_cell_length_a 8.226323
_cell_length_b 8.226323
_cell_length_c 17.012471
_cell_angle_alpha 90.000000
_cell_angle_beta 90.000000
_cell_angle_gamma 90.000000
_cell_volume 1151.274574
_symmetry_space_group_name_H-M "P 41 2 2"
_symmetry_group_IT_number 91
_symmetry_cell_setting 'tetragonal'
loop_
_space_group_symop_operation_xyz
x,y,z
-y,x,1/4+z
-x,-y,1/2+z
y,-x,3/4+z
x,-y,1/2-z
-x,y,-z
y,x,3/4-z
-y,-x,1/4-z
loop_
_atom_site_type_symbol
_atom_site_label
_atom_site_fract_x
_atom_site_fract_y
_atom_site_fract_z
Si Si1 0.331296 0.382702 0.033911
Si Si2 0.136131 0.565864 0.912280
Si Si3 0.000000 0.166534 0.500000
Si Si4 0.061974 0.252760 0.813944
O O1 0.371910 0.302464 0.118474
O O2 0.500000 0.449677 0.000000
O O3 0.193872 0.500520 0.998222
O O4 0.290472 0.219444 0.986523
O O5 0.047959 0.420248 0.863694
O O6 0.020262 0.718139 0.924489
O O7 0.167589 0.066833 0.507504
O O8 0.111570 0.111570 0.875000
#
# Coordination Sequence:
#
# PCOD9548442 Si02
#       4
#     8   8   4   8
#     4   9  19  43  71  95 135 190 233 284 360 429
#     4  10  23  41  70 100 142 184 235 297 362 416
#     4  12  26  36  68 102 128 180 240 290 352 424
#     4   9  22  42  66  97 137 179 235 295 346 417
#
# _framework density 24.320872000000001
#
# number of rings (size 3 to 8) (size 9 to 14) (size 15 to 20)
#    0.000    2.286    0.000    2.571    8.000    2.286 
#    0.000    7.143    0.000    0.000    0.000    0.000 
#    0.000    0.000    0.000    0.000    0.000    0.000 
#
# Total GULP energy -155889.089489 kJ/mol
# GULP energy per Si atom -5567.467482 kJ/mol
# Density = 2.426552 g / cm^3
# Si number density = 24.320872 Si / 1000 Ang^3
#
#
#
# Elastic Constant Matrix: (Units=GPa)
#
#
# Indices 1 2 3 4 5 6 
#
# 1 62.8352 55.2036 30.2921 0.0000 0.0000 0.0000
# 2 55.2036 62.8352 30.2921 0.0000 0.0000 0.0000
# 3 30.2921 30.2921 98.7096 0.0000 0.0000 0.0000
# 4 0.0000 0.0000 0.0000 21.4904 0.0000 0.0000
# 5 0.0000 0.0000 0.0000 0.0000 21.4904 0.0000
# 6 0.0000 0.0000 0.0000 0.0000 0.0000 15.2700
#
#
#
# Elastic Compliance Matrix: (Units=1/GPa)
#
#
# Indices 1 2 3 4 5 6 
#
# 1 0.070545 -0.060489 -0.003086 0.000000 0.000000 0.000000
# 2 -0.060489 0.070545 -0.003086 0.000000 0.000000 0.000000
# 3 -0.003086 -0.003086 0.012025 0.000000 0.000000 0.000000
# 4 0.000000 0.000000 0.000000 0.046532 0.000000 0.000000
# 5 0.000000 0.000000 0.000000 0.000000 0.046532 0.000000
# 6 0.000000 0.000000 0.000000 0.000000 0.000000 0.065488
#
#
# Mechanical properties :
#
#
# Convention : Reuss Voigt Hill
#
# Bulk Modulus (GPa) = 50.52426 50.66173 50.59299
# Shear Modulus (GPa) = 11.07206 18.88964 14.98085
#
# Velocity S-wave (km/s) = 2.13597 2.78993 2.48456
# Velocity P-wave (km/s) = 5.18674 5.59053 5.39242
#
# Compressibility (1/GPa) = 0.01979247
#
# Stress axis : x y z
#
# Youngs Moduli (GPa) = 14.17536 14.17536 83.16200
#
# Poissons Ratio (x) = 0.85746 0.25663
# Poissons Ratio (y) = 0.85746 0.25663
# Poissons Ratio (z) = 0.04374 0.04374
#
# Static dielectric constant tensor:
#      x y z
#    x 2.068320 0.000000 0.000000 
#    y 0.000000 2.068320 0.000000 
#    z 0.000000 0.000000 2.112880 
# 
# From -- ./inp_files/11695.got.cif
#   From: 2010.05.17/outbox.cif.g08.bks.cpg/sg91_6_cif.got.tgz:11695.got - 2010.06.03 19:20:03.
