data_PCOD9548594
_publ_section_title
;
Structure prediction by ZEFSAII (Michael W. Deem and Ramdas Pophale) SiO2 
 PCOD9548594
Probable space group: P 41 2 2
;
_chemical_formula_sum "Si O2"
_cell_formula_units_Z 56
_cell_length_a 16.725493
_cell_length_b 16.725493
_cell_length_c 12.309563
_cell_angle_alpha 90.000000
_cell_angle_beta 90.000000
_cell_angle_gamma 90.000000
_cell_volume 3443.503202
_symmetry_space_group_name_H-M "P 41 2 2"
_symmetry_group_IT_number 91
_symmetry_cell_setting 'tetragonal'
loop_
_space_group_symop_operation_xyz
x,y,z
-y,x,1/4+z
-x,-y,1/2+z
y,-x,3/4+z
x,-y,1/2-z
-x,y,-z
y,x,3/4-z
-y,-x,1/4-z
loop_
_atom_site_type_symbol
_atom_site_label
_atom_site_fract_x
_atom_site_fract_y
_atom_site_fract_z
Si Si1 0.151654 0.131396 0.575534
Si Si2 0.577480 0.903633 0.769947
Si Si3 0.602856 0.087445 0.306674
Si Si4 0.861615 0.727539 0.393691
Si Si5 0.000000 0.813875 0.500000
Si Si6 0.694465 0.109249 0.911967
Si Si7 0.000000 0.955050 0.000000
Si Si8 0.686468 0.075610 0.533714
O O1 0.142167 0.222175 0.614540
O O2 0.232761 0.116637 0.508862
O O3 0.077798 0.100028 0.505470
O O4 0.149260 0.073610 0.682658
O O5 0.486477 0.880023 0.792657
O O6 0.620107 0.870446 0.663542
O O7 0.637052 0.884829 0.868838
O O8 0.575162 0.000000 0.750000
O O9 0.669501 0.142360 0.247352
O O10 0.627628 0.073786 0.430409
O O11 0.606090 0.000000 0.250000
O O12 0.796216 0.796216 0.375000
O O13 0.949608 0.767006 0.408568
O O14 0.861032 0.678727 0.283118
O O15 0.705136 0.013439 0.922925
O O16 0.996835 0.996835 0.875000
#
# Coordination Sequence:
#
# PCOD9548594 Si02
#       8
#     8   8   8   8   4   8   4   8
#     4  12  24  36  55  71 107 146 189 237 278 320
#     4   9  23  33  52  72  96 129 176 226 286 332
#     4  11  18  36  55  75  94 129 175 229 276 336
#     4  12  20  34  55  79 103 135 181 227 271 322
#     4  12  21  38  52  73 100 142 196 225 268 314
#     4  11  21  35  50  75 107 133 178 235 280 321
#     4  12  29  42  52  75 102 150 204 243 288 328
#     4  11  20  37  51  71  97 135 182 234 271 324
#
# _framework density 16.262509000000001
#
# number of rings (size 3 to 8) (size 9 to 14) (size 15 to 20)
#    0.000    0.857    6.429    1.714    5.000    1.143 
#    0.000    0.000    0.000    0.000    0.000    0.000 
#    0.000    0.000    0.000    0.000   70.571    0.000 
#
# Total GULP energy -312068.332100 kJ/mol
# GULP energy per Si atom -5572.648788 kJ/mol
# Density = 1.622549 g / cm^3
# Si number density = 16.262509 Si / 1000 Ang^3
#
#
#
# Elastic Constant Matrix: (Units=GPa)
#
#
# Indices 1 2 3 4 5 6 
#
# 1 63.6611 19.8633 16.0387 0.0000 0.0000 0.0000
# 2 19.8633 63.6611 16.0387 0.0000 0.0000 0.0000
# 3 16.0387 16.0387 83.1945 0.0000 0.0000 0.0000
# 4 0.0000 0.0000 0.0000 17.1502 0.0000 0.0000
# 5 0.0000 0.0000 0.0000 0.0000 17.1502 0.0000
# 6 0.0000 0.0000 0.0000 0.0000 0.0000 2.4790
#
#
#
# Elastic Compliance Matrix: (Units=1/GPa)
#
#
# Indices 1 2 3 4 5 6 
#
# 1 0.017881 -0.004951 -0.002493 0.000000 0.000000 0.000000
# 2 -0.004951 0.017881 -0.002493 0.000000 0.000000 0.000000
# 3 -0.002493 -0.002493 0.012981 0.000000 0.000000 0.000000
# 4 0.000000 0.000000 0.000000 0.058308 0.000000 0.000000
# 5 0.000000 0.000000 0.000000 0.000000 0.058308 0.000000
# 6 0.000000 0.000000 0.000000 0.000000 0.000000 0.403395
#
#
# Mechanical properties :
#
#
# Convention : Reuss Voigt Hill
#
# Bulk Modulus (GPa) = 34.63792 34.93313 34.78552
# Shear Modulus (GPa) = 8.35769 17.92763 13.14266
#
# Velocity S-wave (km/s) = 2.26945 3.32383 2.84589
# Velocity P-wave (km/s) = 5.31156 6.02145 5.67761
#
# Compressibility (1/GPa) = 0.02887009
#
# Stress axis : x y z
#
# Youngs Moduli (GPa) = 55.92526 55.92526 77.03488
#
# Poissons Ratio (x) = 0.27689 0.19202
# Poissons Ratio (y) = 0.27689 0.19202
# Poissons Ratio (z) = 0.13940 0.13940
#
# Static dielectric constant tensor:
#      x y z
#    x 1.552590 0.000000 0.000000 
#    y 0.000000 1.552590 0.000000 
#    z 0.000000 0.000000 1.622470 
# 
# From -- ./inp_files/4031.got.cif
#   From: 2010.05.17/outbox.cif.g08.bks.cpg/sg91_3_cif.got.tgz:4031.got - 2010.06.03 19:20:03.
