data_PCOD9548277
_publ_section_title
;
Structure prediction by ZEFSAII (Michael W. Deem and Ramdas Pophale) SiO2 
 PCOD9548277
Probable space group: P 41 2 2
;
_chemical_formula_sum "Si O2"
_cell_formula_units_Z 48
_cell_length_a 8.971794
_cell_length_b 8.971794
_cell_length_c 31.766674
_cell_angle_alpha 90.000000
_cell_angle_beta 90.000000
_cell_angle_gamma 90.000000
_cell_volume 2556.997672
_symmetry_space_group_name_H-M "P 41 2 2"
_symmetry_group_IT_number 91
_symmetry_cell_setting 'tetragonal'
loop_
_space_group_symop_operation_xyz
x,y,z
-y,x,1/4+z
-x,-y,1/2+z
y,-x,3/4+z
x,-y,1/2-z
-x,y,-z
y,x,3/4-z
-y,-x,1/4-z
loop_
_atom_site_type_symbol
_atom_site_label
_atom_site_fract_x
_atom_site_fract_y
_atom_site_fract_z
Si Si1 0.679576 0.823362 0.915122
Si Si2 0.308595 0.177115 0.091262
Si Si3 0.135046 0.401656 0.792419
Si Si4 0.670515 0.176499 0.743838
Si Si5 0.174241 0.323132 0.009896
Si Si6 0.812105 0.330792 0.824014
O O1 0.735370 0.735370 0.875000
O O2 0.771100 0.772718 0.955618
O O3 0.507134 0.787203 0.922690
O O4 0.700052 0.998508 0.906603
O O5 0.480373 0.202880 0.075936
O O6 0.210607 0.238636 0.052954
O O7 0.247422 0.251629 0.133725
O O8 0.093143 0.500000 0.750000
O O9 0.249715 0.278240 0.775854
O O10 0.988952 0.324545 0.812541
O O11 0.497470 0.211221 0.735117
O O12 0.723649 0.259880 0.785463
O O13 0.684041 0.000000 0.750000
O O14 0.000000 0.309353 0.000000
#
# Coordination Sequence:
#
# PCOD9548277 Si02
#       6
#     8   8   8   8   8   8
#     4  11  23  39  61  88 117 154 198 240 290 348
#     4  10  22  39  59  86 118 151 192 243 292 349
#     4   9  20  40  60  82 117 155 193 239 292 348
#     4  11  23  39  59  87 120 153 195 242 289 348
#     4  10  22  39  60  86 116 153 196 243 292 345
#     4  11  22  38  61  87 117 152 194 241 293 350
#
# _framework density 18.772016000000001
#
# number of rings (size 3 to 8) (size 9 to 14) (size 15 to 20)
#    0.000    1.667    0.000    5.500    0.000   13.333 
#    0.000    1.667    0.000    0.000    0.000    0.000 
#    0.000    0.000    0.000    0.000    0.000    0.000 
#
# Total GULP energy -268090.268836 kJ/mol
# GULP energy per Si atom -5585.213934 kJ/mol
# Density = 1.872929 g / cm^3
# Si number density = 18.772016 Si / 1000 Ang^3
#
#
#
# Elastic Constant Matrix: (Units=GPa)
#
#
# Indices 1 2 3 4 5 6 
#
# 1 57.5315 53.9438 21.1398 0.0000 0.0000 0.0000
# 2 53.9438 57.5315 21.1398 0.0000 0.0000 0.0000
# 3 21.1398 21.1398 82.5825 0.0000 0.0000 0.0000
# 4 0.0000 0.0000 0.0000 33.9933 0.0000 0.0000
# 5 0.0000 0.0000 0.0000 0.0000 33.9933 0.0000
# 6 0.0000 0.0000 0.0000 0.0000 0.0000 30.4667
#
#
#
# Elastic Compliance Matrix: (Units=1/GPa)
#
#
# Indices 1 2 3 4 5 6 
#
# 1 0.144332 -0.134397 -0.002543 0.000000 0.000000 0.000000
# 2 -0.134397 0.144332 -0.002543 0.000000 0.000000 0.000000
# 3 -0.002543 -0.002543 0.013411 0.000000 0.000000 0.000000
# 4 0.000000 0.000000 0.000000 0.029418 0.000000 0.000000
# 5 0.000000 0.000000 0.000000 0.000000 0.029418 0.000000
# 6 0.000000 0.000000 0.000000 0.000000 0.000000 0.032823
#
#
# Mechanical properties :
#
#
# Convention : Reuss Voigt Hill
#
# Bulk Modulus (GPa) = 43.27408 43.34362 43.30885
# Shear Modulus (GPa) = 7.34858 26.45212 16.90035
#
# Velocity S-wave (km/s) = 1.98069 3.75790 3.00375
# Velocity P-wave (km/s) = 5.32291 6.47833 5.92883
#
# Compressibility (1/GPa) = 0.02310852
#
# Stress axis : x y z
#
# Youngs Moduli (GPa) = 6.92846 6.92846 74.56476
#
# Poissons Ratio (x) = 0.93116 0.18964
# Poissons Ratio (y) = 0.93116 0.18964
# Poissons Ratio (z) = 0.01762 0.01762
#
# Static dielectric constant tensor:
#      x y z
#    x 1.644660 0.000000 0.000000 
#    y 0.000000 1.644660 0.000000 
#    z 0.000000 0.000000 1.670770 
# 
# From -- ./inp_files/13601.got.cif
#   From: 2010.05.17/outbox.cif.g08.bks.cpg/sg91_7_cif.got.tgz:13601.got - 2010.06.03 19:20:03.
