data_PCOD9548980
_publ_section_title
;
Structure prediction by ZEFSAII (Michael W. Deem and Ramdas Pophale) SiO2 
 PCOD9548980
Probable space group: P 41 21 2
;
_chemical_formula_sum "Si O2"
_cell_formula_units_Z 56
_cell_length_a 13.475606
_cell_length_b 13.475606
_cell_length_c 15.559919
_cell_angle_alpha 90.000000
_cell_angle_beta 90.000000
_cell_angle_gamma 90.000000
_cell_volume 2825.556143
_symmetry_space_group_name_H-M "P 41 21 2"
_symmetry_group_IT_number 92
_symmetry_cell_setting 'tetragonal'
loop_
_space_group_symop_operation_xyz
x,y,z
1/2-y,1/2+x,1/4+z
-x,-y,1/2+z
1/2+y,1/2-x,3/4+z
1/2+x,1/2-y,3/4-z
1/2-x,1/2+y,1/4-z
y,x,-z
-y,-x,1/2-z
loop_
_atom_site_type_symbol
_atom_site_label
_atom_site_fract_x
_atom_site_fract_y
_atom_site_fract_z
Si Si1 0.939279 0.394474 0.616834
Si Si2 0.986943 0.423915 0.235757
Si Si3 0.928195 0.172317 0.933132
Si Si4 0.683127 0.048424 0.423347
Si Si5 0.708736 0.393030 0.572093
Si Si6 0.680530 0.205681 0.672484
Si Si7 0.674972 0.541232 0.434534
O O1 0.022043 0.402535 0.541992
O O2 0.828391 0.400843 0.578538
O O3 0.939998 0.292474 0.671044
O O4 0.969302 0.490218 0.672741
O O5 0.085118 0.397830 0.290017
O O6 0.949120 0.332649 0.178641
O O7 0.883143 0.257062 0.869195
O O8 0.871858 0.071692 0.907139
O O9 0.040250 0.164840 0.899943
O O10 0.917922 0.217459 0.027919
O O11 0.676488 0.930523 0.446734
O O12 0.676634 0.283404 0.594505
O O13 0.670950 0.435953 0.481873
O O14 0.738577 0.261424 0.750000
O O15 0.611541 0.611541 0.500000
#
# Coordination Sequence:
#
# PCOD9548980 Si02
#       7
#     8   8   8   8   8   8   8
#     4  11  17  30  48  78 113 151 175 229 298 347
#     4  10  20  28  50  76 124 143 179 239 293 368
#     4  11  20  31  51  79 116 151 189 238 286 354
#     4  11  20  33  48  86 116 152 188 233 305 354
#     4  11  20  30  47  82 114 151 191 235 289 351
#     4  12  20  31  53  81 120 152 183 236 297 354
#     4  10  22  32  50  83 115 147 194 239 288 348
#
# _framework density 19.819106999999999
#
# number of rings (size 3 to 8) (size 9 to 14) (size 15 to 20)
#    0.000    1.143    7.143    2.143    2.000    0.000 
#    0.000    0.000    0.000    0.000   18.571    8.000 
#    0.000    0.000    0.000    0.000    0.000    0.000 
#
# Total GULP energy -311980.160764 kJ/mol
# GULP energy per Si atom -5571.074299 kJ/mol
# Density = 1.977400 g / cm^3
# Si number density = 19.819107 Si / 1000 Ang^3
#
#
#
# Elastic Constant Matrix: (Units=GPa)
#
#
# Indices 1 2 3 4 5 6 
#
# 1 32.1210 0.5080 14.8777 0.0000 0.0000 0.0000
# 2 0.5080 32.1211 14.8777 0.0000 0.0000 0.0000
# 3 14.8777 14.8777 56.3984 0.0000 0.0000 0.0000
# 4 0.0000 0.0000 0.0000 36.8605 0.0000 0.0000
# 5 0.0000 0.0000 0.0000 0.0000 36.8606 0.0000
# 6 0.0000 0.0000 0.0000 0.0000 0.0000 21.7853
#
#
#
# Elastic Compliance Matrix: (Units=1/GPa)
#
#
# Indices 1 2 3 4 5 6 
#
# 1 0.035994 0.004362 -0.010646 0.000000 0.000000 0.000000
# 2 0.004362 0.035994 -0.010646 0.000000 0.000000 0.000000
# 3 -0.010646 -0.010646 0.023348 0.000000 0.000000 0.000000
# 4 0.000000 0.000000 0.000000 0.027129 0.000000 0.000000
# 5 0.000000 0.000000 0.000000 0.000000 0.027129 0.000000
# 6 0.000000 0.000000 0.000000 0.000000 0.000000 0.045903
#
#
# Mechanical properties :
#
#
# Convention : Reuss Voigt Hill
#
# Bulk Modulus (GPa) = 16.26644 20.12969 18.19806
# Shear Modulus (GPa) = 20.01212 25.12641 22.56926
#
# Velocity S-wave (km/s) = 3.18109 3.56446 3.37822
# Velocity P-wave (km/s) = 4.66022 5.20762 4.94151
#
# Compressibility (1/GPa) = 0.06147626
#
# Stress axis : x y z
#
# Youngs Moduli (GPa) = 27.78226 27.78237 42.83097
#
# Poissons Ratio (x) = -0.12118 0.45597
# Poissons Ratio (y) = -0.12118 0.45596
# Poissons Ratio (z) = 0.29576 0.29576
#
# Static dielectric constant tensor:
#      x y z
#    x 1.717450 0.000000 0.000000 
#    y 0.000000 1.717450 0.000000 
#    z 0.000000 0.000000 1.793100 
# 
# From -- ./inp_files/3224.got.cif
#   From: 2010.05.17/outbox.cif.g08.bks.cpg/sg92_2_cif.got.tgz:3224.got - 2010.06.03 19:35:17.
