data_PCOD9548423
_publ_section_title
;
Structure prediction by ZEFSAII (Michael W. Deem and Ramdas Pophale) SiO2 
 PCOD9548423
Probable space group: P 41 2 2
;
_chemical_formula_sum "Si O2"
_cell_formula_units_Z 40
_cell_length_a 13.967699
_cell_length_b 13.967699
_cell_length_c 8.831693
_cell_angle_alpha 90.000000
_cell_angle_beta 90.000000
_cell_angle_gamma 90.000000
_cell_volume 1723.033412
_symmetry_space_group_name_H-M "P 41 2 2"
_symmetry_group_IT_number 91
_symmetry_cell_setting 'tetragonal'
loop_
_space_group_symop_operation_xyz
x,y,z
-y,x,1/4+z
-x,-y,1/2+z
y,-x,3/4+z
x,-y,1/2-z
-x,y,-z
y,x,3/4-z
-y,-x,1/4-z
loop_
_atom_site_type_symbol
_atom_site_label
_atom_site_fract_x
_atom_site_fract_y
_atom_site_fract_z
Si Si1 0.100470 0.236775 0.418080
Si Si2 0.370008 0.370008 0.875000
Si Si3 0.535509 0.306972 0.663671
Si Si4 0.301569 0.980534 0.577161
Si Si5 0.191265 0.632778 0.852127
Si Si6 0.917749 0.082252 0.125000
O O1 0.131223 0.131223 0.375000
O O2 0.178366 0.276755 0.534668
O O3 0.000000 0.239038 0.500000
O O4 0.079326 0.295996 0.266454
O O5 0.459453 0.369102 0.760360
O O6 0.277745 0.365161 0.765923
O O7 0.500000 0.275813 0.500000
O O8 0.628496 0.371505 0.625000
O O9 0.553036 0.217985 0.775333
O O10 0.370427 0.906283 0.492225
O O11 0.193315 0.933659 0.573696
O O12 0.325940 0.000000 0.750000
O O13 0.930961 0.000000 0.250000
#
# Coordination Sequence:
#
# PCOD9548423 Si02
#       6
#     8   4   8   8   8   4
#     4  10  24  40  63  96 142 190 244 300 361 421
#     4  12  27  44  78 108 144 185 234 298 356 455
#     4  12  27  46  74 114 148 183 226 300 380 449
#     4  10  24  41  66  99 147 194 245 306 359 424
#     4  11  25  44  68 106 144 188 236 287 360 436
#     4  10  23  34  54  94 140 187 234 300 364 415
#
# _framework density 23.214872
#
# number of rings (size 3 to 8) (size 9 to 14) (size 15 to 20)
#    0.000    1.200    2.000    1.800   16.800    0.000 
#    0.000    0.000    0.000   36.000    0.000    0.000 
#    0.000    0.000    0.000    0.000    0.000    0.000 
#
# Total GULP energy -223519.935395 kJ/mol
# GULP energy per Si atom -5587.998385 kJ/mol
# Density = 2.316203 g / cm^3
# Si number density = 23.214872 Si / 1000 Ang^3
#
#
#
# Elastic Constant Matrix: (Units=GPa)
#
#
# Indices 1 2 3 4 5 6 
#
# 1 43.3695 43.6214 47.9784 0.0000 0.0000 0.0000
# 2 43.6214 43.3706 47.9779 0.0000 0.0000 0.0000
# 3 47.9784 47.9779 214.4063 0.0000 0.0000 0.0000
# 4 0.0000 0.0000 0.0000 28.2968 0.0000 0.0000
# 5 0.0000 0.0000 0.0000 0.0000 28.2966 0.0000
# 6 0.0000 0.0000 0.0000 0.0000 0.0000 12.8624
#
#
#
# Elastic Compliance Matrix: (Units=1/GPa)
#
#
# Indices 1 2 3 4 5 6 
#
# 1 -1.982079 1.997301 -0.003402 0.000000 0.000000 0.000000
# 2 1.997301 -1.981997 -0.003429 0.000000 0.000000 0.000000
# 3 -0.003402 -0.003429 0.006193 0.000000 0.000000 0.000000
# 4 0.000000 0.000000 0.000000 0.035340 0.000000 0.000000
# 5 0.000000 0.000000 0.000000 0.000000 0.035340 0.000000
# 6 0.000000 0.000000 0.000000 0.000000 0.000000 0.077746
#
#
# Mechanical properties :
#
#
# Convention : Reuss Voigt Hill
#
# Bulk Modulus (GPa) = 43.37163 64.47797 53.92480
# Shear Modulus (GPa) = -0.64245 24.66241 12.00998
#
# Velocity S-wave (km/s) = -0.52663 3.26291 2.27698
# Velocity P-wave (km/s) = 4.28409 6.48307 5.49471
#
# Compressibility (1/GPa) = 0.02305654
#
# Stress axis : x y z
#
# Youngs Moduli (GPa) = -0.50452 -0.50454 161.48371
#
# Poissons Ratio (x) = 1.00772 0.54934
# Poissons Ratio (y) = 1.00768 0.55371
# Poissons Ratio (z) = -0.00172 -0.00173
#
# Static dielectric constant tensor:
#      x y z
#    x 1.894750 0.000000 0.000000 
#    y 0.000000 1.894750 0.000000 
#    z 0.000000 0.000000 1.902300 
# 
# From -- ./inp_files/15064.got.cif
#   From: 2010.05.17/outbox.cif.g08.bks.cpg/sg91_8_cif.got.tgz:15064.got - 2010.06.03 19:20:03.
