data_PCOD9548702
_publ_section_title
;
Structure prediction by ZEFSAII (Michael W. Deem and Ramdas Pophale) SiO2 
 PCOD9548702
Probable space group: P 41 2 2
;
_chemical_formula_sum "Si O2"
_cell_formula_units_Z 36
_cell_length_a 11.663312
_cell_length_b 11.663312
_cell_length_c 11.614329
_cell_angle_alpha 90.000000
_cell_angle_beta 90.000000
_cell_angle_gamma 90.000000
_cell_volume 1579.930238
_symmetry_space_group_name_H-M "P 41 2 2"
_symmetry_group_IT_number 91
_symmetry_cell_setting 'tetragonal'
loop_
_space_group_symop_operation_xyz
x,y,z
-y,x,1/4+z
-x,-y,1/2+z
y,-x,3/4+z
x,-y,1/2-z
-x,y,-z
y,x,3/4-z
-y,-x,1/4-z
loop_
_atom_site_type_symbol
_atom_site_label
_atom_site_fract_x
_atom_site_fract_y
_atom_site_fract_z
Si Si1 0.500000 0.415921 0.500000
Si Si2 0.239578 0.573487 0.590769
Si Si3 0.060867 0.746735 0.623639
Si Si4 0.145773 0.138587 0.246862
Si Si5 0.695227 0.687255 0.114580
O O1 0.517480 0.482521 0.625000
O O2 0.389312 0.336670 0.509177
O O3 0.346536 0.653465 0.625000
O O4 0.120791 0.623916 0.638982
O O5 0.248126 0.610138 0.455116
O O6 0.261087 0.444093 0.630962
O O7 0.167037 0.832964 0.625000
O O8 0.000000 0.749518 0.500000
O O9 0.972041 0.798836 0.713448
O O10 0.176304 0.176304 0.375000
O O11 0.237561 0.193114 0.160023
O O12 0.134696 0.000000 0.250000
#
# Coordination Sequence:
#
# PCOD9548702 Si02
#       5
#     4   8   8   8   8
#     4  12  24  42  72 106 158 212 256 310 388 476
#     4  11  25  43  75 107 149 195 255 308 372 461
#     4  11  22  44  74 100 134 192 246 307 372 443
#     4  12  27  47  73 106 143 192 249 314 384 454
#     4  12  25  45  71 111 149 200 250 311 384 460
#
# _framework density 22.785817000000002
#
# number of rings (size 3 to 8) (size 9 to 14) (size 15 to 20)
#    0.000    0.444    4.444    4.667    3.111    0.889 
#    0.000    0.000    0.000    0.000    0.000    0.000 
#    0.000    0.000    0.000    0.000    0.000    0.000 
#
# Total GULP energy -200692.176491 kJ/mol
# GULP energy per Si atom -5574.782680 kJ/mol
# Density = 2.273396 g / cm^3
# Si number density = 22.785817 Si / 1000 Ang^3
#
#
#
# Elastic Constant Matrix: (Units=GPa)
#
#
# Indices 1 2 3 4 5 6 
#
# 1 104.7440 73.1465 16.4174 0.0000 0.0000 0.0000
# 2 73.1465 104.7396 16.4138 0.0000 0.0000 0.0000
# 3 16.4174 16.4138 91.1999 0.0000 0.0000 0.0000
# 4 0.0000 0.0000 0.0000 27.1273 0.0000 0.0000
# 5 0.0000 0.0000 0.0000 0.0000 27.1273 0.0000
# 6 0.0000 0.0000 0.0000 0.0000 0.0000 45.7830
#
#
#
# Elastic Compliance Matrix: (Units=1/GPa)
#
#
# Indices 1 2 3 4 5 6 
#
# 1 0.018732 -0.012918 -0.001047 0.000000 0.000000 0.000000
# 2 -0.012918 0.018733 -0.001046 0.000000 0.000000 0.000000
# 3 -0.001047 -0.001046 0.011342 0.000000 0.000000 0.000000
# 4 0.000000 0.000000 0.000000 0.036863 0.000000 0.000000
# 5 0.000000 0.000000 0.000000 0.000000 0.036863 0.000000
# 6 0.000000 0.000000 0.000000 0.000000 0.000000 0.021842
#
#
# Mechanical properties :
#
#
# Convention : Reuss Voigt Hill
#
# Bulk Modulus (GPa) = 53.23520 56.95991 55.09755
# Shear Modulus (GPa) = 27.67648 32.98791 30.33220
#
# Velocity S-wave (km/s) = 3.48894 3.80904 3.65250
# Velocity P-wave (km/s) = 6.29637 6.66313 6.48235
#
# Compressibility (1/GPa) = 0.01878457
#
# Stress axis : x y z
#
# Youngs Moduli (GPa) = 53.38404 53.38242 88.17018
#
# Poissons Ratio (x) = 0.68958 0.09233
# Poissons Ratio (y) = 0.68960 0.09223
# Poissons Ratio (z) = 0.05590 0.05584
#
# Static dielectric constant tensor:
#      x y z
#    x 1.878110 0.000000 0.000000 
#    y 0.000000 1.878110 0.000000 
#    z 0.000000 0.000000 2.160620 
# 
# From -- ./inp_files/10508.got.cif
#   From: 2010.05.17/outbox.cif.g08.bks.cpg/sg91_6_cif.got.tgz:10508.got - 2010.06.03 19:20:03.
