data_PCOD9548394
_publ_section_title
;
Structure prediction by ZEFSAII (Michael W. Deem and Ramdas Pophale) SiO2 
 PCOD9548394
Probable space group: P 41 2 2
;
_chemical_formula_sum "Si O2"
_cell_formula_units_Z 32
_cell_length_a 8.342283
_cell_length_b 8.342283
_cell_length_c 20.479305
_cell_angle_alpha 90.000000
_cell_angle_beta 90.000000
_cell_angle_gamma 90.000000
_cell_volume 1425.230315
_symmetry_space_group_name_H-M "P 41 2 2"
_symmetry_group_IT_number 91
_symmetry_cell_setting 'tetragonal'
loop_
_space_group_symop_operation_xyz
x,y,z
-y,x,1/4+z
-x,-y,1/2+z
y,-x,3/4+z
x,-y,1/2-z
-x,y,-z
y,x,3/4-z
-y,-x,1/4-z
loop_
_atom_site_type_symbol
_atom_site_label
_atom_site_fract_x
_atom_site_fract_y
_atom_site_fract_z
Si Si1 0.620056 0.961716 0.817644
Si Si2 0.534248 0.610983 0.187600
Si Si3 0.117045 0.729292 0.571964
Si Si4 0.216282 0.858559 0.431276
O O1 0.457060 0.071052 0.812244
O O2 0.711518 0.000808 0.885672
O O3 0.714803 0.000000 0.750000
O O4 0.562157 0.778942 0.812491
O O5 0.507844 0.500000 0.250000
O O6 0.479467 0.520534 0.125000
O O7 0.718934 0.653846 0.178001
O O8 0.253232 0.746769 0.625000
O O9 0.170165 0.834727 0.508692
O O10 0.952574 0.804835 0.599797
#
# Coordination Sequence:
#
# PCOD9548394 Si02
#       4
#     8   8   8   8
#     4  11  22  44  67  98 138 177 234 288 351 425
#     4  11  24  42  66 100 137 178 230 286 351 417
#     4  10  22  44  68  98 136 179 241 284 350 431
#     4  10  23  43  66  99 135 185 228 290 354 414
#
# _framework density 22.452514000000001
#
# number of rings (size 3 to 8) (size 9 to 14) (size 15 to 20)
#    0.000    1.500    5.000    1.500    3.500    1.000 
#   18.000    0.000    0.000    0.000    0.000    0.000 
#    0.000    0.000    0.000    0.000    0.000    0.000 
#
# Total GULP energy -178266.276440 kJ/mol
# GULP energy per Si atom -5570.821139 kJ/mol
# Density = 2.240141 g / cm^3
# Si number density = 22.452514 Si / 1000 Ang^3
#
#
#
# Elastic Constant Matrix: (Units=GPa)
#
#
# Indices 1 2 3 4 5 6 
#
# 1 -25.7185 159.6624 66.9777 0.0000 0.0000 0.0000
# 2 159.6624 -25.6956 66.9608 0.0000 0.0000 0.0000
# 3 66.9777 66.9608 134.2571 0.0000 0.0000 0.0000
# 4 0.0000 0.0000 0.0000 35.4810 0.0000 0.0000
# 5 0.0000 0.0000 0.0000 0.0000 35.4807 0.0000
# 6 0.0000 0.0000 0.0000 0.0000 0.0000 -12.9279
#
#
#
# Elastic Compliance Matrix: (Units=1/GPa)
#
#
# Indices 1 2 3 4 5 6 
#
# 1 0.004748 0.010144 -0.007428 0.000000 0.000000 0.000000
# 2 0.010144 0.004751 -0.007430 0.000000 0.000000 0.000000
# 3 -0.007428 -0.007430 0.014860 0.000000 0.000000 0.000000
# 4 0.000000 0.000000 0.000000 0.028184 0.000000 0.000000
# 5 0.000000 0.000000 0.000000 0.000000 0.028184 0.000000
# 6 0.000000 0.000000 0.000000 0.000000 0.000000 -0.077352
#
#
# Mechanical properties :
#
#
# Convention : Reuss Voigt Hill
#
# Bulk Modulus (GPa) = 66.97765 74.44940 70.71353
# Shear Modulus (GPa) = 281.22881 -2.44375 139.39253
#
# Velocity S-wave (km/s) = 11.20388 -1.04440 7.88784
# Velocity P-wave (km/s) = 14.04510 5.63704 10.70142
#
# Compressibility (1/GPa) = 0.01493035
#
# Stress axis : x y z
#
# Youngs Moduli (GPa) = 210.63007 210.48889 67.29628
#
# Poissons Ratio (x) = -2.13518 0.49986
# Poissons Ratio (y) = -2.13661 0.50001
# Poissons Ratio (z) = 1.56451 1.56394
#
# Static dielectric constant tensor:
#      x y z
#    x 1.851380 0.000000 0.000000 
#    y 0.000000 1.851380 0.000000 
#    z 0.000000 0.000000 1.942560 
# 
# From -- ./inp_files/5998.got.cif
#   From: 2010.05.17/outbox.cif.g08.bks.cpg/sg91_3_cif.got.tgz:5998.got - 2010.06.03 19:20:03.
