data_PCOD9548883
_publ_section_title
;
Structure prediction by ZEFSAII (Michael W. Deem and Ramdas Pophale) SiO2 
 PCOD9548883
Probable space group: P 41 21 2
;
_chemical_formula_sum "Si O2"
_cell_formula_units_Z 48
_cell_length_a 24.566451
_cell_length_b 24.566451
_cell_length_c 5.051885
_cell_angle_alpha 90.000000
_cell_angle_beta 90.000000
_cell_angle_gamma 90.000000
_cell_volume 3048.865717
_symmetry_space_group_name_H-M "P 41 21 2"
_symmetry_group_IT_number 92
_symmetry_cell_setting 'tetragonal'
loop_
_space_group_symop_operation_xyz
x,y,z
1/2-y,1/2+x,1/4+z
-x,-y,1/2+z
1/2+y,1/2-x,3/4+z
1/2+x,1/2-y,3/4-z
1/2-x,1/2+y,1/4-z
y,x,-z
-y,-x,1/2-z
loop_
_atom_site_type_symbol
_atom_site_label
_atom_site_fract_x
_atom_site_fract_y
_atom_site_fract_z
Si Si1 0.811507 0.718577 0.505102
Si Si2 0.544488 0.672888 0.129644
Si Si3 0.823005 0.969054 0.861545
Si Si4 0.715765 0.661421 0.749729
Si Si5 0.641529 0.264570 0.248761
Si Si6 0.943436 0.056565 0.250000
Si Si7 0.061244 0.061244 0.500000
O O1 0.765740 0.765740 0.500000
O O2 0.776277 0.669844 0.630415
O O3 0.836206 0.720597 0.213422
O O4 0.856232 0.738282 0.712770
O O5 0.501184 0.690915 0.347266
O O6 0.600695 0.705180 0.148951
O O7 0.560770 0.609486 0.186335
O O8 0.513843 0.676073 0.847585
O O9 0.784755 0.918289 0.926036
O O10 0.883410 0.942386 0.833965
O O11 0.676855 0.676855 0.500000
O O12 0.701134 0.701134 0.000000
O O13 0.683861 0.316140 0.250000
O O14 0.004751 0.060910 0.347390
#
# Coordination Sequence:
#
# PCOD9548883 Si02
#       7
#     8   8   8   8   8   4   4
#     4   9  18  30  51  69  87 111 149 194 248 278
#     4  11  23  33  49  66  92 125 159 201 254 285
#     4  11  22  34  47  68  91 124 158 200 253 289
#     4  11  20  34  51  70  92 119 157 205 242 293
#     4  10  18  33  48  69  91 116 150 201 238 291
#     4  10  20  34  46  61  82 122 168 213 242 278
#     4  10  20  32  46  61  82 122 166 215 238 284
#
# _framework density 15.743558999999999
#
# number of rings (size 3 to 8) (size 9 to 14) (size 15 to 20)
#    0.000    1.667    1.667    5.500    2.333    2.000 
#    0.000    0.000    0.000    0.000    0.000    0.000 
#    0.000    0.000    0.000    0.000    0.000   46.667 
#
# Total GULP energy -267457.870055 kJ/mol
# GULP energy per Si atom -5572.038959 kJ/mol
# Density = 1.570773 g / cm^3
# Si number density = 15.743559 Si / 1000 Ang^3
#
#
#
# Elastic Constant Matrix: (Units=GPa)
#
#
# Indices 1 2 3 4 5 6 
#
# 1 48.7451 35.0299 2.6280 0.0000 0.0000 0.0000
# 2 35.0299 48.7448 2.6282 0.0000 0.0000 0.0000
# 3 2.6280 2.6282 57.2349 0.0000 0.0000 0.0000
# 4 0.0000 0.0000 0.0000 18.8872 0.0000 0.0000
# 5 0.0000 0.0000 0.0000 0.0000 18.8852 0.0000
# 6 0.0000 0.0000 0.0000 0.0000 0.0000 27.0015
#
#
#
# Elastic Compliance Matrix: (Units=1/GPa)
#
#
# Indices 1 2 3 4 5 6 
#
# 1 0.042442 -0.030471 -0.000550 0.000000 0.000000 0.000000
# 2 -0.030471 0.042442 -0.000550 0.000000 0.000000 0.000000
# 3 -0.000550 -0.000550 0.017522 0.000000 0.000000 0.000000
# 4 0.000000 0.000000 0.000000 0.052946 0.000000 0.000000
# 5 0.000000 0.000000 0.000000 0.000000 0.052951 0.000000
# 6 0.000000 0.000000 0.000000 0.000000 0.000000 0.037035
#
#
# Mechanical properties :
#
#
# Convention : Reuss Voigt Hill
#
# Bulk Modulus (GPa) = 25.46729 26.14412 25.80570
# Shear Modulus (GPa) = 15.54883 20.58404 18.06644
#
# Velocity S-wave (km/s) = 3.14607 3.61980 3.39122
# Velocity P-wave (km/s) = 5.42295 5.84062 5.63566
#
# Compressibility (1/GPa) = 0.03926605
#
# Stress axis : x y z
#
# Youngs Moduli (GPa) = 23.56161 23.56147 57.06999
#
# Poissons Ratio (x) = 0.71794 0.03136
# Poissons Ratio (y) = 0.71794 0.03138
# Poissons Ratio (z) = 0.01295 0.01295
#
# Static dielectric constant tensor:
#      x y z
#    x 1.584830 0.000000 0.000000 
#    y 0.000000 1.584850 0.000000 
#    z 0.000000 0.000000 1.580170 
# 
# From -- ./inp_files/816.got.cif
#   From: 2010.05.17/outbox.cif.g08.bks.cpg/sg92_1_cif.got.tgz:816.got - 2010.06.03 19:35:17.
