data_PCOD9548549
_publ_section_title
;
Structure prediction by ZEFSAII (Michael W. Deem and Ramdas Pophale) SiO2 
 PCOD9548549
Probable space group: P 41 2 2
;
_chemical_formula_sum "Si O2"
_cell_formula_units_Z 40
_cell_length_a 11.218929
_cell_length_b 11.218929
_cell_length_c 14.153984
_cell_angle_alpha 90.000000
_cell_angle_beta 90.000000
_cell_angle_gamma 90.000000
_cell_volume 1781.482250
_symmetry_space_group_name_H-M "P 41 2 2"
_symmetry_group_IT_number 91
_symmetry_cell_setting 'tetragonal'
loop_
_space_group_symop_operation_xyz
x,y,z
-y,x,1/4+z
-x,-y,1/2+z
y,-x,3/4+z
x,-y,1/2-z
-x,y,-z
y,x,3/4-z
-y,-x,1/4-z
loop_
_atom_site_type_symbol
_atom_site_label
_atom_site_fract_x
_atom_site_fract_y
_atom_site_fract_z
Si Si1 0.729030 0.633407 0.965438
Si Si2 0.842143 0.817321 0.676682
Si Si3 0.778400 0.406982 0.080594
Si Si4 0.954723 0.718242 0.845505
Si Si5 0.741206 0.000000 0.250000
Si Si6 0.928797 0.500000 0.250000
O O1 0.643631 0.643631 0.875000
O O2 0.856863 0.661764 0.914958
O O3 0.718390 0.739012 0.044949
O O4 0.724682 0.504270 0.010493
O O5 0.765310 0.930895 0.648776
O O6 0.908183 0.823297 0.777263
O O7 0.940314 0.802138 0.593311
O O8 0.682945 0.317056 0.125000
O O9 0.843723 0.480191 0.162060
O O10 0.886373 0.334365 0.033771
O O11 0.992422 0.614911 0.772117
#
# Coordination Sequence:
#
# PCOD9548549 Si02
#       6
#     8   8   8   8   4   4
#     4  10  24  48  76 104 145 196 257 309 375 454
#     4  11  24  43  69 104 150 192 245 300 375 446
#     4  12  26  46  77 108 145 196 248 315 383 456
#     4  11  23  45  69 109 144 202 245 310 372 458
#     4  12  26  44  70 110 146 194 246 310 378 466
#     4  12  22  44  76 100 142 188 246 296 382 458
#
# _framework density 22.453212000000001
#
# number of rings (size 3 to 8) (size 9 to 14) (size 15 to 20)
#    0.000    0.800    4.000    3.000    0.000    0.000 
#   14.400    1.000    0.000    0.000    0.000    0.000 
#    0.000    0.000    0.000    0.000    0.000    0.000 
#
# Total GULP energy -223388.693660 kJ/mol
# GULP energy per Si atom -5584.717341 kJ/mol
# Density = 2.240211 g / cm^3
# Si number density = 22.453212 Si / 1000 Ang^3
#
#
#
# Elastic Constant Matrix: (Units=GPa)
#
#
# Indices 1 2 3 4 5 6 
#
# 1 81.6600 48.9649 53.2468 0.0000 0.0000 0.0000
# 2 48.9649 81.6604 53.2478 0.0000 0.0000 0.0000
# 3 53.2468 53.2478 120.6836 0.0000 0.0000 0.0000
# 4 0.0000 0.0000 0.0000 47.3982 0.0000 0.0000
# 5 0.0000 0.0000 0.0000 0.0000 47.3979 0.0000
# 6 0.0000 0.0000 0.0000 0.0000 0.0000 92.4526
#
#
#
# Elastic Compliance Matrix: (Units=1/GPa)
#
#
# Indices 1 2 3 4 5 6 
#
# 1 0.021271 -0.009315 -0.005275 0.000000 0.000000 0.000000
# 2 -0.009315 0.021271 -0.005275 0.000000 0.000000 0.000000
# 3 -0.005275 -0.005275 0.012941 0.000000 0.000000 0.000000
# 4 0.000000 0.000000 0.000000 0.021098 0.000000 0.000000
# 5 0.000000 0.000000 0.000000 0.000000 0.021098 0.000000
# 6 0.000000 0.000000 0.000000 0.000000 0.000000 0.010816
#
#
# Mechanical properties :
#
#
# Convention : Reuss Voigt Hill
#
# Bulk Modulus (GPa) = 63.48150 66.10254 64.79202
# Shear Modulus (GPa) = 32.57832 46.01938 39.29885
#
# Velocity S-wave (km/s) = 3.81326 4.53213 4.18814
# Velocity P-wave (km/s) = 6.90812 7.54261 7.23232
#
# Compressibility (1/GPa) = 0.01575262
#
# Stress axis : x y z
#
# Youngs Moduli (GPa) = 47.01283 47.01244 77.27269
#
# Poissons Ratio (x) = 0.43790 0.40762
# Poissons Ratio (y) = 0.43791 0.40765
# Poissons Ratio (z) = 0.24800 0.24801
#
# Static dielectric constant tensor:
#      x y z
#    x 1.874930 0.000000 0.000000 
#    y 0.000000 1.874950 0.000000 
#    z 0.000000 0.000000 1.795840 
# 
# From -- ./inp_files/11397.got.cif
#   From: 2010.05.17/outbox.cif.g08.bks.cpg/sg91_6_cif.got.tgz:11397.got - 2010.06.03 19:20:03.
