data_PCOD9548635
_publ_section_title
;
Structure prediction by ZEFSAII (Michael W. Deem and Ramdas Pophale) SiO2 
 PCOD9548635
Probable space group: P 41 2 2
;
_chemical_formula_sum "Si O2"
_cell_formula_units_Z 56
_cell_length_a 14.349172
_cell_length_b 14.349172
_cell_length_c 12.311319
_cell_angle_alpha 90.000000
_cell_angle_beta 90.000000
_cell_angle_gamma 90.000000
_cell_volume 2534.885034
_symmetry_space_group_name_H-M "P 41 2 2"
_symmetry_group_IT_number 91
_symmetry_cell_setting 'tetragonal'
loop_
_space_group_symop_operation_xyz
x,y,z
-y,x,1/4+z
-x,-y,1/2+z
y,-x,3/4+z
x,-y,1/2-z
-x,y,-z
y,x,3/4-z
-y,-x,1/4-z
loop_
_atom_site_type_symbol
_atom_site_label
_atom_site_fract_x
_atom_site_fract_y
_atom_site_fract_z
Si Si1 0.296552 0.774315 0.344733
Si Si2 0.934262 0.214130 0.251247
Si Si3 0.500000 0.019625 0.500000
Si Si4 0.882812 0.690953 0.696563
Si Si5 0.398367 0.694777 0.546392
Si Si6 0.866716 0.341006 0.053785
Si Si7 0.910347 0.556186 0.059278
Si Si8 0.032286 0.000000 0.750000
O O1 0.250570 0.865107 0.404394
O O2 0.221488 0.721223 0.272189
O O3 0.333357 0.706980 0.440781
O O4 0.387000 0.817984 0.286454
O O5 0.910443 0.270179 0.140336
O O6 0.043199 0.243500 0.258584
O O7 0.922813 0.103112 0.242632
O O8 0.583116 0.086580 0.460046
O O9 0.440597 0.944408 0.432182
O O10 0.876919 0.703331 0.565035
O O11 0.500000 0.714000 0.500000
O O12 0.395282 0.604719 0.625000
O O13 0.365815 0.770736 0.635216
O O14 0.906310 0.445607 0.039833
O O15 0.000000 0.596736 0.000000
O O16 0.990274 0.990274 0.875000
#
# Coordination Sequence:
#
# PCOD9548635 Si02
#       8
#     8   8   4   8   8   8   8   4
#     4  11  24  40  64 104 141 181 237 308 380 458
#     4  11  24  42  66 102 141 196 256 311 367 452
#     4  12  22  42  68 104 136 180 238 322 380 446
#     4  12  23  42  69 104 140 186 251 312 386 468
#     4  11  21  38  67  97 137 170 228 306 391 457
#     4  11  21  38  74 108 131 173 248 327 386 438
#     4  12  21  42  70 101 134 180 236 316 382 434
#     4  12  30  50  68  96 158 228 266 322 384 462
#
# _framework density 22.091729999999998
#
# number of rings (size 3 to 8) (size 9 to 14) (size 15 to 20)
#    0.000    0.571    7.143    2.143    4.000    0.000 
#    5.143    0.714    1.571    0.000    0.000    0.000 
#    0.000    0.000    0.000    0.000    0.000    0.000 
#
# Total GULP energy -311762.177829 kJ/mol
# GULP energy per Si atom -5567.181747 kJ/mol
# Density = 2.204145 g / cm^3
# Si number density = 22.091730 Si / 1000 Ang^3
#
#
#
# Elastic Constant Matrix: (Units=GPa)
#
#
# Indices 1 2 3 4 5 6 
#
# 1 102.1341 46.3421 1.8929 0.0000 0.0000 0.0000
# 2 46.3421 102.1378 1.8933 0.0000 0.0000 0.0000
# 3 1.8929 1.8933 23.8642 0.0000 0.0000 0.0000
# 4 0.0000 0.0000 0.0000 21.6529 0.0000 0.0000
# 5 0.0000 0.0000 0.0000 0.0000 21.6529 0.0000
# 6 0.0000 0.0000 0.0000 0.0000 0.0000 37.9659
#
#
#
# Elastic Compliance Matrix: (Units=1/GPa)
#
#
# Indices 1 2 3 4 5 6 
#
# 1 0.012336 -0.005587 -0.000535 0.000000 0.000000 0.000000
# 2 -0.005587 0.012336 -0.000535 0.000000 0.000000 0.000000
# 3 -0.000535 -0.000535 0.041989 0.000000 0.000000 0.000000
# 4 0.000000 0.000000 0.000000 0.046183 0.000000 0.000000
# 5 0.000000 0.000000 0.000000 0.000000 0.046183 0.000000
# 6 0.000000 0.000000 0.000000 0.000000 0.000000 0.026339
#
#
# Mechanical properties :
#
#
# Convention : Reuss Voigt Hill
#
# Bulk Modulus (GPa) = 18.74603 36.48808 27.61706
# Shear Modulus (GPa) = 23.09855 28.12153 25.61004
#
# Velocity S-wave (km/s) = 3.23704 3.57170 3.40848
# Velocity P-wave (km/s) = 4.74080 5.79326 5.29326
#
# Compressibility (1/GPa) = 0.05334461
#
# Stress axis : x y z
#
# Youngs Moduli (GPa) = 81.06286 81.06569 23.81590
#
# Poissons Ratio (x) = 0.45293 0.01275
# Poissons Ratio (y) = 0.45292 0.01275
# Poissons Ratio (z) = 0.04339 0.04341
#
# Static dielectric constant tensor:
#      x y z
#    x 1.937240 0.000000 0.000000 
#    y 0.000000 1.937240 0.000000 
#    z 0.000000 0.000000 1.908650 
# 
# From -- ./inp_files/4997.got.cif
#   From: 2010.05.17/outbox.cif.g08.bks.cpg/sg91_3_cif.got.tgz:4997.got - 2010.06.03 19:20:03.
