data_PCOD9548229
_publ_section_title
;
Structure prediction by ZEFSAII (Michael W. Deem and Ramdas Pophale) SiO2 
 PCOD9548229
Probable space group: P 41 2 2
;
_chemical_formula_sum "Si O2"
_cell_formula_units_Z 56
_cell_length_a 12.484844
_cell_length_b 12.484844
_cell_length_c 17.842420
_cell_angle_alpha 90.000000
_cell_angle_beta 90.000000
_cell_angle_gamma 90.000000
_cell_volume 2781.121731
_symmetry_space_group_name_H-M "P 41 2 2"
_symmetry_group_IT_number 91
_symmetry_cell_setting 'tetragonal'
loop_
_space_group_symop_operation_xyz
x,y,z
-y,x,1/4+z
-x,-y,1/2+z
y,-x,3/4+z
x,-y,1/2-z
-x,y,-z
y,x,3/4-z
-y,-x,1/4-z
loop_
_atom_site_type_symbol
_atom_site_label
_atom_site_fract_x
_atom_site_fract_y
_atom_site_fract_z
Si Si1 0.389350 0.923621 0.981257
Si Si2 0.763079 0.763079 0.375000
Si Si3 0.046237 0.370136 0.916084
Si Si4 0.626468 0.305994 0.980214
Si Si5 0.000000 0.298939 0.500000
Si Si6 0.615141 0.554109 0.959086
Si Si7 0.895411 0.590426 0.141444
Si Si8 0.746989 0.234738 0.713594
O O1 0.380989 0.952307 0.894534
O O2 0.500000 0.863783 0.000000
O O3 0.294550 0.847587 0.002788
O O4 0.397103 0.030064 0.033980
O O5 0.884309 0.735194 0.398678
O O6 0.729196 0.693737 0.302592
O O7 0.121133 0.469620 0.889211
O O8 0.000000 0.377075 0.000000
O O9 0.651026 0.429719 0.961587
O O10 0.641853 0.217994 0.914442
O O11 0.500000 0.300028 0.000000
O O12 0.032704 0.363040 0.574620
O O13 0.110493 0.242120 0.481969
O O14 0.588803 0.588803 0.875000
O O15 0.707105 0.635631 0.988264
O O16 0.500000 0.561953 0.000000
O O17 0.752076 0.247925 0.625000
#
# Coordination Sequence:
#
# PCOD9548229 Si02
#       8
#     8   4   8   8   4   8   8   8
#     4  10  21  45  73  93 135 180 225 296 355 405
#     4  12  24  42  68 104 146 180 232 298 362 432
#     4  11  24  42  69 103 133 182 242 292 351 431
#     4  11  23  38  66  97 144 183 217 274 350 426
#     4  12  26  38  72  96 126 178 238 290 332 422
#     4  10  25  40  61  96 142 186 215 264 338 425
#     4  11  21  42  66 102 134 181 237 285 341 412
#     4  11  24  45  65  98 136 171 235 285 346 414
#
# _framework density 20.135762
#
# number of rings (size 3 to 8) (size 9 to 14) (size 15 to 20)
#    0.000    1.143    5.000    0.857    8.000    1.143 
#    2.571    0.000    3.143    0.000    0.000    0.000 
#    0.000    0.000    0.000    0.000    0.000    0.000 
#
# Total GULP energy -312524.045211 kJ/mol
# GULP energy per Si atom -5580.786522 kJ/mol
# Density = 2.008993 g / cm^3
# Si number density = 20.135762 Si / 1000 Ang^3
#
#
#
# Elastic Constant Matrix: (Units=GPa)
#
#
# Indices 1 2 3 4 5 6 
#
# 1 102.6124 51.0101 41.3627 0.0000 0.0000 0.0000
# 2 51.0101 102.6126 41.3627 0.0000 0.0000 0.0000
# 3 41.3627 41.3627 153.8118 0.0000 0.0000 0.0000
# 4 0.0000 0.0000 0.0000 22.8390 0.0000 0.0000
# 5 0.0000 0.0000 0.0000 0.0000 22.8390 0.0000
# 6 0.0000 0.0000 0.0000 0.0000 0.0000 15.9950
#
#
#
# Elastic Compliance Matrix: (Units=1/GPa)
#
#
# Indices 1 2 3 4 5 6 
#
# 1 0.013495 -0.005884 -0.002047 0.000000 0.000000 0.000000
# 2 -0.005884 0.013495 -0.002047 0.000000 0.000000 0.000000
# 3 -0.002047 -0.002047 0.007602 0.000000 0.000000 0.000000
# 4 0.000000 0.000000 0.000000 0.043785 0.000000 0.000000
# 5 0.000000 0.000000 0.000000 0.000000 0.043785 0.000000
# 6 0.000000 0.000000 0.000000 0.000000 0.000000 0.062520
#
#
# Mechanical properties :
#
#
# Convention : Reuss Voigt Hill
#
# Bulk Modulus (GPa) = 68.31487 69.61199 68.96343
# Shear Modulus (GPa) = 23.86450 27.35470 25.60960
#
# Velocity S-wave (km/s) = 3.44638 3.68980 3.57016
# Velocity P-wave (km/s) = 7.05957 7.26631 7.16368
#
# Compressibility (1/GPa) = 0.01463810
#
# Stress axis : x y z
#
# Youngs Moduli (GPa) = 74.09963 74.09983 131.53813
#
# Poissons Ratio (x) = 0.43597 0.26925
# Poissons Ratio (y) = 0.43597 0.26925
# Poissons Ratio (z) = 0.15168 0.15168
#
# Static dielectric constant tensor:
#      x y z
#    x 1.694170 0.000000 0.000000 
#    y 0.000000 1.694170 0.000000 
#    z 0.000000 0.000000 1.736910 
# 
# From -- ./inp_files/6441.got.cif
#   From: 2010.05.17/outbox.cif.g08.bks.cpg/sg91_4_cif.got.tgz:6441.got - 2010.06.03 19:20:03.
