data_PCOD9548781
_publ_section_title
;
Structure prediction by ZEFSAII (Michael W. Deem and Ramdas Pophale) SiO2 
 PCOD9548781
Probable space group: P 41 2 2
;
_chemical_formula_sum "Si O2"
_cell_formula_units_Z 28
_cell_length_a 8.279605
_cell_length_b 8.279605
_cell_length_c 18.124089
_cell_angle_alpha 90.000000
_cell_angle_beta 90.000000
_cell_angle_gamma 90.000000
_cell_volume 1242.439993
_symmetry_space_group_name_H-M "P 41 2 2"
_symmetry_group_IT_number 91
_symmetry_cell_setting 'tetragonal'
loop_
_space_group_symop_operation_xyz
x,y,z
-y,x,1/4+z
-x,-y,1/2+z
y,-x,3/4+z
x,-y,1/2-z
-x,y,-z
y,x,3/4-z
-y,-x,1/4-z
loop_
_atom_site_type_symbol
_atom_site_label
_atom_site_fract_x
_atom_site_fract_y
_atom_site_fract_z
Si Si1 0.208059 0.833892 0.847199
Si Si2 0.318072 0.657752 0.984837
Si Si3 0.324654 0.193252 0.805191
Si Si4 0.834090 0.165911 0.625000
O O1 0.321406 0.759255 0.909296
O O2 0.221947 0.755244 0.766278
O O3 0.027267 0.814111 0.876507
O O4 0.260373 0.019189 0.832310
O O5 0.199132 0.507495 0.972078
O O6 0.500000 0.599327 0.000000
O O7 0.250864 0.762324 0.052611
O O8 0.308541 0.308541 0.875000
#
# Coordination Sequence:
#
# PCOD9548781 Si02
#       4
#     8   8   8   4
#     4  11  26  47  76 105 147 202 251 303 370 452
#     4  12  29  46  76 111 155 194 248 315 385 442
#     4  11  26  48  72 106 151 195 249 306 370 445
#     4  12  26  50  76 110 148 202 254 312 366 466
#
# _framework density 22.536299
#
# number of rings (size 3 to 8) (size 9 to 14) (size 15 to 20)
#    0.000    0.571    1.429    4.286   22.000    0.000 
#    0.000    0.000    0.000    0.000    0.000    0.000 
#    0.000    0.000    0.000    0.000    0.000    0.000 
#
# Total GULP energy -156733.179288 kJ/mol
# GULP energy per Si atom -5597.613546 kJ/mol
# Density = 2.248501 g / cm^3
# Si number density = 22.536299 Si / 1000 Ang^3
#
#
#
# Elastic Constant Matrix: (Units=GPa)
#
#
# Indices 1 2 3 4 5 6 
#
# 1 50.5211 53.6697 18.3210 0.0000 0.0000 0.0000
# 2 53.6697 50.5197 18.3200 0.0000 0.0000 0.0000
# 3 18.3210 18.3200 116.6401 0.0000 0.0000 0.0000
# 4 0.0000 0.0000 0.0000 29.5277 0.0000 0.0000
# 5 0.0000 0.0000 0.0000 0.0000 29.5277 0.0000
# 6 0.0000 0.0000 0.0000 0.0000 0.0000 26.9781
#
#
#
# Elastic Compliance Matrix: (Units=1/GPa)
#
#
# Indices 1 2 3 4 5 6 
#
# 1 -0.153685 0.163846 -0.001595 0.000000 0.000000 0.000000
# 2 0.163846 -0.153689 -0.001597 0.000000 0.000000 0.000000
# 3 -0.001595 -0.001597 0.009075 0.000000 0.000000 0.000000
# 4 0.000000 0.000000 0.000000 0.033867 0.000000 0.000000
# 5 0.000000 0.000000 0.000000 0.000000 0.033866 0.000000
# 6 0.000000 0.000000 0.000000 0.000000 0.000000 0.037067
#
#
# Mechanical properties :
#
#
# Convention : Reuss Voigt Hill
#
# Bulk Modulus (GPa) = 43.45938 44.25579 43.85759
# Shear Modulus (GPa) = -9.85925 25.69805 7.91940
#
# Velocity S-wave (km/s) = -2.09388 3.38049 1.87662
# Velocity P-wave (km/s) = 3.67155 5.90907 4.91922
#
# Compressibility (1/GPa) = 0.02300999
#
# Stress axis : x y z
#
# Youngs Moduli (GPa) = -6.50681 -6.50667 110.19726
#
# Poissons Ratio (x) = 1.06609 0.17572
# Poissons Ratio (y) = 1.06611 0.17596
# Poissons Ratio (z) = -0.01038 -0.01039
#
# Static dielectric constant tensor:
#      x y z
#    x 1.832390 0.000000 0.000000 
#    y 0.000000 1.832390 0.000000 
#    z 0.000000 0.000000 1.825880 
# 
# From -- ./inp_files/5867.got.cif
#   From: 2010.05.17/outbox.cif.g08.bks.cpg/sg91_3_cif.got.tgz:5867.got - 2010.06.03 19:20:03.
