data_PCOD9548775
_publ_section_title
;
Structure prediction by ZEFSAII (Michael W. Deem and Ramdas Pophale) SiO2 
 PCOD9548775
Probable space group: P 41 2 2
;
_chemical_formula_sum "Si O2"
_cell_formula_units_Z 48
_cell_length_a 8.750071
_cell_length_b 8.750071
_cell_length_c 28.299831
_cell_angle_alpha 90.000000
_cell_angle_beta 90.000000
_cell_angle_gamma 90.000000
_cell_volume 2166.740974
_symmetry_space_group_name_H-M "P 41 2 2"
_symmetry_group_IT_number 91
_symmetry_cell_setting 'tetragonal'
loop_
_space_group_symop_operation_xyz
x,y,z
-y,x,1/4+z
-x,-y,1/2+z
y,-x,3/4+z
x,-y,1/2-z
-x,y,-z
y,x,3/4-z
-y,-x,1/4-z
loop_
_atom_site_type_symbol
_atom_site_label
_atom_site_fract_x
_atom_site_fract_y
_atom_site_fract_z
Si Si1 0.964530 0.964530 0.875000
Si Si2 0.568612 0.568612 0.375000
Si Si3 0.139157 0.923012 0.704742
Si Si4 0.813794 0.430073 0.202235
Si Si5 0.586610 0.619955 0.951440
Si Si6 0.466128 0.913027 0.799204
Si Si7 0.622670 0.060729 0.597914
O O1 0.993653 0.795966 0.855456
O O2 0.080189 0.010216 0.915600
O O3 0.552274 0.723852 0.403227
O O4 0.539110 0.447041 0.415704
O O5 0.183755 0.749207 0.712485
O O6 0.066499 0.000000 0.750000
O O7 0.290483 0.026877 0.694643
O O8 0.744247 0.500000 0.250000
O O9 0.968065 0.521037 0.189873
O O10 0.732302 0.505542 0.957274
O O11 0.641611 0.771554 0.924628
O O12 0.500000 0.651269 0.000000
O O13 0.546713 0.946442 0.849790
O O14 0.515937 0.000000 0.750000
#
# Coordination Sequence:
#
# PCOD9548775 Si02
#       7
#     4   4   8   8   8   8   8
#     4  12  24  46  72 104 150 198 248 310 394 456
#     4  12  26  44  78 106 146 194 256 318 384 460
#     4  11  27  47  71 108 151 195 251 314 386 469
#     4  12  28  48  74 114 147 199 259 316 394 466
#     4  12  27  48  73 113 150 203 258 322 390 463
#     4  11  25  48  72 107 155 197 259 319 386 468
#     4  12  25  50  72 108 154 200 259 321 381 472
#
# _framework density 22.153084
#
# number of rings (size 3 to 8) (size 9 to 14) (size 15 to 20)
#    0.000    0.333    3.333    4.500   14.000    2.000 
#    3.000    0.000    0.000    0.000    0.000    0.000 
#    0.000    0.000    0.000    0.000    0.000    0.000 
#
# Total GULP energy -268015.759461 kJ/mol
# GULP energy per Si atom -5583.661655 kJ/mol
# Density = 2.210266 g / cm^3
# Si number density = 22.153084 Si / 1000 Ang^3
#
#
#
# Elastic Constant Matrix: (Units=GPa)
#
#
# Indices 1 2 3 4 5 6 
#
# 1 389.5392 -254.6451 28.8927 0.0000 0.0000 0.0000
# 2 -254.6451 389.5392 28.8927 0.0000 0.0000 0.0000
# 3 28.8927 28.8927 141.0058 0.0000 0.0000 0.0000
# 4 0.0000 0.0000 0.0000 46.1284 0.0000 0.0000
# 5 0.0000 0.0000 0.0000 0.0000 46.1284 0.0000
# 6 0.0000 0.0000 0.0000 0.0000 0.0000 17.5978
#
#
#
# Elastic Compliance Matrix: (Units=1/GPa)
#
#
# Indices 1 2 3 4 5 6 
#
# 1 0.004839 0.003287 -0.001665 0.000000 0.000000 0.000000
# 2 0.003287 0.004839 -0.001665 0.000000 0.000000 0.000000
# 3 -0.001665 -0.001665 0.007774 0.000000 0.000000 0.000000
# 4 0.000000 0.000000 0.000000 0.021679 0.000000 0.000000
# 5 0.000000 0.000000 0.000000 0.000000 0.021679 0.000000
# 6 0.000000 0.000000 0.000000 0.000000 0.000000 0.056825
#
#
# Mechanical properties :
#
#
# Convention : Reuss Voigt Hill
#
# Bulk Modulus (GPa) = 57.58138 58.48499 58.03318
# Shear Modulus (GPa) = 40.48216 96.43385 68.45800
#
# Velocity S-wave (km/s) = 4.27943 6.60493 5.56501
# Velocity P-wave (km/s) = 7.10401 9.19916 8.21862
#
# Compressibility (1/GPa) = 0.01736673
#
# Stress axis : x y z
#
# Youngs Moduli (GPa) = 206.63544 206.63543 128.62891
#
# Poissons Ratio (x) = -0.67923 0.21419
# Poissons Ratio (y) = -0.67923 0.21419
# Poissons Ratio (z) = 0.34408 0.34408
#
# Static dielectric constant tensor:
#      x y z
#    x 1.786070 0.000000 0.000000 
#    y 0.000000 1.786070 0.000000 
#    z 0.000000 0.000000 1.760570 
# 
# From -- ./inp_files/22310.got.cif
#   From: 2010.05.17/outbox.cif.g08.bks.cpg/sg91_12_cif.got.tgz:22310.got - 2010.06.03 19:20:03.
