data_PCOD9548049
_publ_section_title
;
Structure prediction by ZEFSAII (Michael W. Deem and Ramdas Pophale) SiO2 
 PCOD9548049
Probable space group: P 41 2 2
;
_chemical_formula_sum "Si O2"
_cell_formula_units_Z 48
_cell_length_a 9.114573
_cell_length_b 9.114573
_cell_length_c 26.067668
_cell_angle_alpha 90.000000
_cell_angle_beta 90.000000
_cell_angle_gamma 90.000000
_cell_volume 2165.583014
_symmetry_space_group_name_H-M "P 41 2 2"
_symmetry_group_IT_number 91
_symmetry_cell_setting 'tetragonal'
loop_
_space_group_symop_operation_xyz
x,y,z
-y,x,1/4+z
-x,-y,1/2+z
y,-x,3/4+z
x,-y,1/2-z
-x,y,-z
y,x,3/4-z
-y,-x,1/4-z
loop_
_atom_site_type_symbol
_atom_site_label
_atom_site_fract_x
_atom_site_fract_y
_atom_site_fract_z
Si Si1 0.205467 0.000000 0.750000
Si Si2 0.418967 0.134233 0.552159
Si Si3 0.442649 0.784055 0.779795
Si Si4 0.500000 0.311447 0.000000
Si Si5 0.674718 0.870980 0.708640
Si Si6 0.148279 0.263305 0.822110
Si Si7 0.886409 0.339862 0.615569
O O1 0.304400 0.891176 0.785255
O O2 0.127187 0.884330 0.712216
O O3 0.500000 0.086160 0.500000
O O4 0.333978 0.007895 0.582463
O O5 0.286448 0.245456 0.539231
O O6 0.557562 0.165920 0.588018
O O7 0.405084 0.614255 0.782981
O O8 0.508009 0.831589 0.724460
O O9 0.573589 0.818587 0.817696
O O10 0.612823 0.226254 0.036944
O O11 0.726297 0.000000 0.750000
O O12 0.676811 0.944819 0.652354
O O13 0.228983 0.228983 0.875000
O O14 0.818155 0.181846 0.625000
#
# Coordination Sequence:
#
# PCOD9548049 Si02
#       7
#     4   8   8   4   8   8   8
#     4  10  20  44  70  92 142 182 228 284 360 430
#     4  12  26  45  68 102 141 179 236 300 342 424
#     4  10  20  42  68  95 130 180 224 287 350 414
#     4  10  24  40  70 102 142 176 232 300 356 432
#     4  10  23  44  70  94 135 186 229 287 354 426
#     4  11  25  45  69 103 143 187 235 292 361 426
#     4  11  24  43  67 103 137 181 243 290 356 431
#
# _framework density 22.164932
#
# number of rings (size 3 to 8) (size 9 to 14) (size 15 to 20)
#    0.000    1.333    3.333    3.000    7.000    2.667 
#    3.000    0.000    0.000    0.000    0.000    0.000 
#    0.000    0.000    0.000    0.000    0.000    0.000 
#
# Total GULP energy -267484.506043 kJ/mol
# GULP energy per Si atom -5572.593876 kJ/mol
# Density = 2.211448 g / cm^3
# Si number density = 22.164932 Si / 1000 Ang^3
#
#
#
# Elastic Constant Matrix: (Units=GPa)
#
#
# Indices 1 2 3 4 5 6 
#
# 1 61.0304 2.4563 6.2498 0.0000 0.0000 0.0000
# 2 2.4563 61.0311 6.2500 0.0000 0.0000 0.0000
# 3 6.2498 6.2500 69.3861 0.0000 0.0000 0.0000
# 4 0.0000 0.0000 0.0000 21.7820 0.0000 0.0000
# 5 0.0000 0.0000 0.0000 0.0000 21.7815 0.0000
# 6 0.0000 0.0000 0.0000 0.0000 0.0000 31.4362
#
#
#
# Elastic Compliance Matrix: (Units=1/GPa)
#
#
# Indices 1 2 3 4 5 6 
#
# 1 0.016554 -0.000518 -0.001444 0.000000 0.000000 0.000000
# 2 -0.000518 0.016554 -0.001444 0.000000 0.000000 0.000000
# 3 -0.001444 -0.001444 0.014672 0.000000 0.000000 0.000000
# 4 0.000000 0.000000 0.000000 0.045909 0.000000 0.000000
# 5 0.000000 0.000000 0.000000 0.000000 0.045910 0.000000
# 6 0.000000 0.000000 0.000000 0.000000 0.000000 0.031810
#
#
# Mechanical properties :
#
#
# Convention : Reuss Voigt Hill
#
# Bulk Modulus (GPa) = 24.41048 24.59552 24.50300
# Shear Modulus (GPa) = 26.05793 26.76605 26.41199
#
# Velocity S-wave (km/s) = 3.43248 3.47880 3.45572
# Velocity P-wave (km/s) = 5.17167 5.22080 5.19630
#
# Compressibility (1/GPa) = 0.04096600
#
# Stress axis : x y z
#
# Youngs Moduli (GPa) = 60.40820 60.40881 68.15561
#
# Poissons Ratio (x) = 0.03131 0.09844
# Poissons Ratio (y) = 0.03131 0.09844
# Poissons Ratio (z) = 0.08725 0.08726
#
# Static dielectric constant tensor:
#      x y z
#    x 1.886560 0.000000 0.000000 
#    y 0.000000 1.886560 0.000000 
#    z 0.000000 0.000000 2.353890 
# 
# From -- ./inp_files/22296.got.cif
#   From: 2010.05.17/outbox.cif.g08.bks.cpg/sg91_12_cif.got.tgz:22296.got - 2010.06.03 19:20:03.
