data_PCOD9548148
_publ_section_title
;
Structure prediction by ZEFSAII (Michael W. Deem and Ramdas Pophale) SiO2 
 PCOD9548148
Probable space group: P 41 2 2
;
_chemical_formula_sum "Si O2"
_cell_formula_units_Z 56
_cell_length_a 11.023081
_cell_length_b 11.023081
_cell_length_c 19.458713
_cell_angle_alpha 90.000000
_cell_angle_beta 90.000000
_cell_angle_gamma 90.000000
_cell_volume 2364.395423
_symmetry_space_group_name_H-M "P 41 2 2"
_symmetry_group_IT_number 91
_symmetry_cell_setting 'tetragonal'
loop_
_space_group_symop_operation_xyz
x,y,z
-y,x,1/4+z
-x,-y,1/2+z
y,-x,3/4+z
x,-y,1/2-z
-x,y,-z
y,x,3/4-z
-y,-x,1/4-z
loop_
_atom_site_type_symbol
_atom_site_label
_atom_site_fract_x
_atom_site_fract_y
_atom_site_fract_z
Si Si1 0.122768 0.175603 0.301406
Si Si2 0.053416 0.402031 0.933123
Si Si3 0.537576 0.897591 0.927915
Si Si4 0.756708 0.682692 0.627221
Si Si5 0.513921 0.402926 0.308142
Si Si6 0.377318 0.195416 0.243796
Si Si7 0.992617 0.190761 0.155550
O O1 0.108778 0.108778 0.375000
O O2 0.127419 0.320249 0.318415
O O3 0.255936 0.135191 0.274241
O O4 0.028274 0.169605 0.236544
O O5 0.134909 0.495538 0.976036
O O6 0.088178 0.305001 0.873846
O O7 0.971510 0.497189 0.889109
O O8 0.000000 0.330901 0.000000
O O9 0.440625 0.787505 0.920836
O O10 0.500000 0.959159 0.000000
O O11 0.682885 0.631837 0.563797
O O12 0.665052 0.760260 0.670164
O O13 0.878481 0.762143 0.623496
O O14 0.530232 0.500000 0.250000
O O15 0.478412 0.478412 0.375000
O O16 0.406326 0.309701 0.291646
O O17 0.925196 0.074805 0.125000
#
# Coordination Sequence:
#
# PCOD9548148 Si02
#       7
#     8   8   8   8   8   8   8
#     4  11  21  39  77 120 147 188 265 339 410 464
#     4  11  23  42  69 101 147 204 255 309 389 487
#     4  11  19  41  73 104 149 195 245 316 400 471
#     4  10  21  39  70 107 150 202 247 305 392 465
#     4  12  23  38  65 109 165 202 239 307 384 492
#     4  11  21  37  66 108 149 195 241 306 395 476
#     4  10  23  46  75 103 146 210 274 322 390 467
#
# _framework density 23.684704
#
# number of rings (size 3 to 8) (size 9 to 14) (size 15 to 20)
#    0.000    1.143    5.714    4.714    0.000    0.000 
#    2.571    6.429    0.000   22.286    0.000    0.000 
#    0.000    0.000    0.000    0.000    0.000    0.000 
#
# Total GULP energy -311899.776270 kJ/mol
# GULP energy per Si atom -5569.638862 kJ/mol
# Density = 2.363080 g / cm^3
# Si number density = 23.684704 Si / 1000 Ang^3
#
#
#
# Elastic Constant Matrix: (Units=GPa)
#
#
# Indices 1 2 3 4 5 6 
#
# 1 75.6983 67.1422 59.7307 0.0000 0.0000 0.0000
# 2 67.1422 75.7008 59.7308 0.0000 0.0000 0.0000
# 3 59.7307 59.7308 181.4421 0.0000 0.0000 0.0000
# 4 0.0000 0.0000 0.0000 28.5019 0.0000 0.0000
# 5 0.0000 0.0000 0.0000 0.0000 28.5020 0.0000
# 6 0.0000 0.0000 0.0000 0.0000 0.0000 -18.5299
#
#
#
# Elastic Compliance Matrix: (Units=1/GPa)
#
#
# Indices 1 2 3 4 5 6 
#
# 1 0.063261 -0.053599 -0.003181 0.000000 0.000000 0.000000
# 2 -0.053599 0.063258 -0.003180 0.000000 0.000000 0.000000
# 3 -0.003181 -0.003180 0.007605 0.000000 0.000000 0.000000
# 4 0.000000 0.000000 0.000000 0.035085 0.000000 0.000000
# 5 0.000000 0.000000 0.000000 0.000000 0.035085 0.000000
# 6 0.000000 0.000000 0.000000 0.000000 0.000000 -0.053967
#
#
# Mechanical properties :
#
#
# Convention : Reuss Voigt Hill
#
# Bulk Modulus (GPa) = 70.39645 78.44985 74.42315
# Shear Modulus (GPa) = 18.18305 17.44395 17.81350
#
# Velocity S-wave (km/s) = 2.77377 2.71681 2.74544
# Velocity P-wave (km/s) = 6.32813 6.56018 6.44520
#
# Compressibility (1/GPa) = 0.01420526
#
# Stress axis : x y z
#
# Youngs Moduli (GPa) = 15.80764 15.80830 131.48803
#
# Poissons Ratio (x) = 0.84731 0.41821
# Poissons Ratio (y) = 0.84727 0.41811
# Poissons Ratio (z) = 0.05028 0.05027
#
# Static dielectric constant tensor:
#      x y z
#    x 1.968220 0.000000 0.000000 
#    y 0.000000 1.968220 0.000000 
#    z 0.000000 0.000000 1.903990 
# 
# From -- ./inp_files/21534.got.cif
#   From: 2010.05.17/outbox.cif.g08.bks.cpg/sg91_11_cif.got.tgz:21534.got - 2010.06.03 19:20:03.
