data_PCOD9548431
_publ_section_title
;
Structure prediction by ZEFSAII (Michael W. Deem and Ramdas Pophale) SiO2 
 PCOD9548431
Probable space group: P 41 2 2
;
_chemical_formula_sum "Si O2"
_cell_formula_units_Z 48
_cell_length_a 11.743640
_cell_length_b 11.743640
_cell_length_c 17.899720
_cell_angle_alpha 90.000000
_cell_angle_beta 90.000000
_cell_angle_gamma 90.000000
_cell_volume 2468.605524
_symmetry_space_group_name_H-M "P 41 2 2"
_symmetry_group_IT_number 91
_symmetry_cell_setting 'tetragonal'
loop_
_space_group_symop_operation_xyz
x,y,z
-y,x,1/4+z
-x,-y,1/2+z
y,-x,3/4+z
x,-y,1/2-z
-x,y,-z
y,x,3/4-z
-y,-x,1/4-z
loop_
_atom_site_type_symbol
_atom_site_label
_atom_site_fract_x
_atom_site_fract_y
_atom_site_fract_z
Si Si1 0.511716 0.970255 0.674416
Si Si2 0.290629 0.434785 0.923531
Si Si3 0.073766 0.927541 0.425753
Si Si4 0.349113 0.680736 0.425012
Si Si5 0.664441 0.057120 0.965972
Si Si6 0.316576 0.099712 0.610113
O O1 0.462891 0.842849 0.674212
O O2 0.590761 0.986704 0.603157
O O3 0.577771 0.000000 0.750000
O O4 0.405729 0.055156 0.670838
O O5 0.324160 0.324160 0.875000
O O6 0.341600 0.541585 0.877041
O O7 0.332861 0.409094 0.007609
O O8 0.203117 0.946377 0.447660
O O9 0.062652 0.810661 0.380092
O O10 0.000000 0.917870 0.500000
O O11 0.028364 0.028364 0.375000
O O12 0.362198 0.805744 0.465898
O O13 0.237067 0.683184 0.371044
O O14 0.647506 0.972858 0.036441
#
# Coordination Sequence:
#
# PCOD9548431 Si02
#       6
#     8   8   8   8   8   8
#     4  11  22  40  65  93 127 165 207 260 317 371
#     4  11  22  41  67  93 124 162 212 267 319 373
#     4  11  22  38  61  93 129 165 209 257 312 371
#     4  10  23  41  65  94 126 164 213 266 318 374
#     4  10  23  40  62  93 127 167 210 259 311 377
#     4  11  21  39  63  92 128 163 212 259 313 372
#
# _framework density 19.444175000000001
#
# number of rings (size 3 to 8) (size 9 to 14) (size 15 to 20)
#    0.000    1.333    3.333    2.500    2.333    4.000 
#    3.000    3.333    0.000    0.000    0.000    0.000 
#    0.000    0.000    0.000    0.000    0.000    0.000 
#
# Total GULP energy -267701.006061 kJ/mol
# GULP energy per Si atom -5577.104293 kJ/mol
# Density = 1.939992 g / cm^3
# Si number density = 19.444175 Si / 1000 Ang^3
#
#
#
# Elastic Constant Matrix: (Units=GPa)
#
#
# Indices 1 2 3 4 5 6 
#
# 1 124.6211 -34.8351 44.7648 0.0000 0.0000 0.0000
# 2 -34.8351 124.6211 44.7648 0.0000 0.0000 0.0000
# 3 44.7648 44.7648 136.7566 0.0000 0.0000 0.0000
# 4 0.0000 0.0000 0.0000 36.3573 0.0000 0.0000
# 5 0.0000 0.0000 0.0000 0.0000 36.3573 0.0000
# 6 0.0000 0.0000 0.0000 0.0000 0.0000 80.3407
#
#
#
# Elastic Compliance Matrix: (Units=1/GPa)
#
#
# Indices 1 2 3 4 5 6 
#
# 1 0.011403 0.005132 -0.005412 0.000000 0.000000 0.000000
# 2 0.005132 0.011403 -0.005412 0.000000 0.000000 0.000000
# 3 -0.005412 -0.005412 0.010855 0.000000 0.000000 0.000000
# 4 0.000000 0.000000 0.000000 0.027505 0.000000 0.000000
# 5 0.000000 0.000000 0.000000 0.000000 0.027505 0.000000
# 6 0.000000 0.000000 0.000000 0.000000 0.000000 0.012447
#
#
# Mechanical properties :
#
#
# Convention : Reuss Voigt Hill
#
# Bulk Modulus (GPa) = 44.89282 55.04307 49.96794
# Shear Modulus (GPa) = 41.69146 52.69801 47.19474
#
# Velocity S-wave (km/s) = 4.63553 5.21163 4.93200
# Velocity P-wave (km/s) = 7.19646 8.03644 7.62802
#
# Compressibility (1/GPa) = 0.02227528
#
# Stress axis : x y z
#
# Youngs Moduli (GPa) = 87.69747 87.69747 92.11966
#
# Poissons Ratio (x) = -0.45002 0.49857
# Poissons Ratio (y) = -0.45002 0.49857
# Poissons Ratio (z) = 0.47464 0.47464
#
# Static dielectric constant tensor:
#      x y z
#    x 1.676440 0.000000 0.000000 
#    y 0.000000 1.676440 0.000000 
#    z 0.000000 0.000000 1.713600 
# 
# From -- ./inp_files/5562.got.cif
#   From: 2010.05.17/outbox.cif.g08.bks.cpg/sg91_3_cif.got.tgz:5562.got - 2010.06.03 19:20:03.
