data_PCOD9548227
_publ_section_title
;
Structure prediction by ZEFSAII (Michael W. Deem and Ramdas Pophale) SiO2 
 PCOD9548227
Probable space group: P 41 2 2
;
_chemical_formula_sum "Si O2"
_cell_formula_units_Z 36
_cell_length_a 15.162032
_cell_length_b 15.162032
_cell_length_c 7.416302
_cell_angle_alpha 90.000000
_cell_angle_beta 90.000000
_cell_angle_gamma 90.000000
_cell_volume 1704.913008
_symmetry_space_group_name_H-M "P 41 2 2"
_symmetry_group_IT_number 91
_symmetry_cell_setting 'tetragonal'
loop_
_space_group_symop_operation_xyz
x,y,z
-y,x,1/4+z
-x,-y,1/2+z
y,-x,3/4+z
x,-y,1/2-z
-x,y,-z
y,x,3/4-z
-y,-x,1/4-z
loop_
_atom_site_type_symbol
_atom_site_label
_atom_site_fract_x
_atom_site_fract_y
_atom_site_fract_z
Si Si1 0.909173 0.909173 0.375000
Si Si2 0.000000 0.606719 0.500000
Si Si3 0.390476 0.609525 0.625000
Si Si4 0.726315 0.058794 0.916530
Si Si5 0.677082 0.427626 0.485041
Si Si6 0.134984 0.539323 0.952211
O O1 0.906254 0.817608 0.257053
O O2 0.000000 0.909050 0.500000
O O3 0.015318 0.670888 0.669015
O O4 0.075134 0.534583 0.454447
O O5 0.485518 0.618277 0.715032
O O6 0.320062 0.614448 0.784643
O O7 0.642665 0.109893 0.820853
O O8 0.758411 0.000000 0.750000
O O9 0.638757 0.361244 0.625000
O O10 0.770982 0.461229 0.541705
O O11 0.141172 0.500000 0.750000
#
# Coordination Sequence:
#
# PCOD9548227 Si02
#       6
#     4   4   4   8   8   8
#     4  12  26  51  78 110 149 194 238 306 378 450
#     4  10  22  48  76 102 146 190 236 306 364 428
#     4  10  22  39  60  82 131 176 224 280 332 410
#     4  11  24  47  76 107 142 190 241 296 369 445
#     4  11  23  41  61  95 132 183 231 283 344 412
#     4  10  21  45  70 102 140 185 237 298 361 419
#
# _framework density 21.115447
#
# number of rings (size 3 to 8) (size 9 to 14) (size 15 to 20)
#    0.000    1.333    4.444    1.333    6.222    0.889 
#   12.000    0.000    0.000    0.000    0.000    0.000 
#    0.000    0.000    0.000    0.000    0.000    0.000 
#
# Total GULP energy -200404.831407 kJ/mol
# GULP energy per Si atom -5566.800872 kJ/mol
# Density = 2.106739 g / cm^3
# Si number density = 21.115447 Si / 1000 Ang^3
#
#
#
# Elastic Constant Matrix: (Units=GPa)
#
#
# Indices 1 2 3 4 5 6 
#
# 1 119.5863 58.6277 28.3581 0.0000 0.0000 0.0000
# 2 58.6277 119.5906 28.3626 0.0000 0.0000 0.0000
# 3 28.3581 28.3626 70.0018 0.0000 0.0000 0.0000
# 4 0.0000 0.0000 0.0000 19.4688 0.0000 0.0000
# 5 0.0000 0.0000 0.0000 0.0000 19.4660 0.0000
# 6 0.0000 0.0000 0.0000 0.0000 0.0000 269.1681
#
#
#
# Elastic Compliance Matrix: (Units=1/GPa)
#
#
# Indices 1 2 3 4 5 6 
#
# 1 0.011423 -0.004981 -0.002609 0.000000 0.000000 0.000000
# 2 -0.004981 0.011423 -0.002610 0.000000 0.000000 0.000000
# 3 -0.002609 -0.002610 0.016400 0.000000 0.000000 0.000000
# 4 0.000000 0.000000 0.000000 0.051364 0.000000 0.000000
# 5 0.000000 0.000000 0.000000 0.000000 0.051372 0.000000
# 6 0.000000 0.000000 0.000000 0.000000 0.000000 0.003715
#
#
# Mechanical properties :
#
#
# Convention : Reuss Voigt Hill
#
# Bulk Modulus (GPa) = 53.06633 59.98618 56.52625
# Shear Modulus (GPa) = 29.00574 74.54261 51.77418
#
# Velocity S-wave (km/s) = 3.71033 5.94803 4.95710
# Velocity P-wave (km/s) = 6.59860 8.69726 7.71958
#
# Compressibility (1/GPa) = 0.01884434
#
# Stress axis : x y z
#
# Youngs Moduli (GPa) = 87.54327 87.54381 60.97563
#
# Poissons Ratio (x) = 0.43606 0.15910
# Poissons Ratio (y) = 0.43606 0.15917
# Poissons Ratio (z) = 0.22843 0.22852
#
# Static dielectric constant tensor:
#      x y z
#    x 1.804230 0.000000 0.000000 
#    y 0.000000 1.804230 0.000000 
#    z 0.000000 0.000000 1.858280 
# 
# From -- ./inp_files/2326.got.cif
#   From: 2010.05.17/outbox.cif.g08.bks.cpg/sg91_2_cif.got.tgz:2326.got - 2010.06.03 19:20:03.
