data_PCOD9548140
_publ_section_title
;
Structure prediction by ZEFSAII (Michael W. Deem and Ramdas Pophale) SiO2 
 PCOD9548140
Probable space group: P 41 2 2
;
_chemical_formula_sum "Si O2"
_cell_formula_units_Z 48
_cell_length_a 8.636343
_cell_length_b 8.636343
_cell_length_c 31.165009
_cell_angle_alpha 90.000000
_cell_angle_beta 90.000000
_cell_angle_gamma 90.000000
_cell_volume 2324.486463
_symmetry_space_group_name_H-M "P 41 2 2"
_symmetry_group_IT_number 91
_symmetry_cell_setting 'tetragonal'
loop_
_space_group_symop_operation_xyz
x,y,z
-y,x,1/4+z
-x,-y,1/2+z
y,-x,3/4+z
x,-y,1/2-z
-x,y,-z
y,x,3/4-z
-y,-x,1/4-z
loop_
_atom_site_type_symbol
_atom_site_label
_atom_site_fract_x
_atom_site_fract_y
_atom_site_fract_z
Si Si1 0.894592 0.105924 0.208580
Si Si2 0.851430 0.197870 0.343387
Si Si3 0.355702 0.818101 0.240827
Si Si4 0.315693 0.679475 0.761901
Si Si5 0.323277 0.818133 0.086709
Si Si6 0.682098 0.817787 0.069113
O O1 0.752716 0.213461 0.223785
O O2 0.031441 0.220477 0.195230
O O3 0.938468 0.000000 0.250000
O O4 0.855141 0.981411 0.171830
O O5 0.796838 0.294998 0.302179
O O6 0.740429 0.221887 0.383443
O O7 0.022006 0.256022 0.354861
O O8 0.519441 0.750982 0.225800
O O9 0.232854 0.779170 0.203859
O O10 0.309911 0.728517 0.284161
O O11 0.363461 0.000000 0.250000
O O12 0.326053 0.500000 0.750000
O O13 0.305697 0.694303 0.125000
O O14 0.498387 0.839117 0.070925
#
# Coordination Sequence:
#
# PCOD9548140 Si02
#       6
#     8   8   8   8   8   8
#     4  10  21  39  63  91 124 167 213 256 309 382
#     4  11  23  41  65  93 127 167 214 262 316 390
#     4  12  24  42  65  91 126 168 211 259 322 387
#     4  11  23  42  65  93 128 166 211 266 324 379
#     4  12  25  42  64  93 127 165 213 266 320 384
#     4  12  24  40  64  93 125 163 208 263 321 380
#
# _framework density 20.649722000000001
#
# number of rings (size 3 to 8) (size 9 to 14) (size 15 to 20)
#    0.000    0.667    0.000   11.000    0.000    1.333 
#    0.000    1.667    0.000    0.000    0.000    0.000 
#    0.000    0.000    0.000    0.000    0.000    0.000 
#
# Total GULP energy -268661.180003 kJ/mol
# GULP energy per Si atom -5597.107917 kJ/mol
# Density = 2.060272 g / cm^3
# Si number density = 20.649722 Si / 1000 Ang^3
#
#
#
# Elastic Constant Matrix: (Units=GPa)
#
#
# Indices 1 2 3 4 5 6 
#
# 1 103.1345 15.7625 11.3019 0.0000 0.0000 0.0000
# 2 15.7625 103.1345 11.3019 0.0000 0.0000 0.0000
# 3 11.3019 11.3019 64.9912 0.0000 0.0000 0.0000
# 4 0.0000 0.0000 0.0000 15.2988 0.0000 0.0000
# 5 0.0000 0.0000 0.0000 0.0000 15.2988 0.0000
# 6 0.0000 0.0000 0.0000 0.0000 0.0000 29.4659
#
#
#
# Elastic Compliance Matrix: (Units=1/GPa)
#
#
# Indices 1 2 3 4 5 6 
#
# 1 0.010072 -0.001374 -0.001513 0.000000 0.000000 0.000000
# 2 -0.001374 0.010072 -0.001513 0.000000 0.000000 0.000000
# 3 -0.001513 -0.001513 0.015913 0.000000 0.000000 0.000000
# 4 0.000000 0.000000 0.000000 0.065364 0.000000 0.000000
# 5 0.000000 0.000000 0.000000 0.000000 0.065364 0.000000
# 6 0.000000 0.000000 0.000000 0.000000 0.000000 0.033938
#
#
# Mechanical properties :
#
#
# Convention : Reuss Voigt Hill
#
# Bulk Modulus (GPa) = 36.68545 38.66586 37.67565
# Shear Modulus (GPa) = 22.87214 27.53897 25.20555
#
# Velocity S-wave (km/s) = 3.33171 3.65584 3.49753
# Velocity P-wave (km/s) = 5.71004 6.04860 5.88176
#
# Compressibility (1/GPa) = 0.02725876
#
# Stress axis : x y z
#
# Youngs Moduli (GPa) = 99.28748 99.28748 62.84262
#
# Poissons Ratio (x) = 0.13638 0.09506
# Poissons Ratio (y) = 0.13638 0.09506
# Poissons Ratio (z) = 0.15018 0.15018
#
# Static dielectric constant tensor:
#      x y z
#    x 1.745120 0.000000 0.000000 
#    y 0.000000 1.745120 0.000000 
#    z 0.000000 0.000000 1.717900 
# 
# From -- ./inp_files/13607.got.cif
#   From: 2010.05.17/outbox.cif.g08.bks.cpg/sg91_7_cif.got.tgz:13607.got - 2010.06.03 19:20:03.
