data_PCOD9548274
_publ_section_title
;
Structure prediction by ZEFSAII (Michael W. Deem and Ramdas Pophale) SiO2 
 PCOD9548274
Probable space group: P 41 2 2
;
_chemical_formula_sum "Si O2"
_cell_formula_units_Z 40
_cell_length_a 9.378991
_cell_length_b 9.378991
_cell_length_c 22.789805
_cell_angle_alpha 90.000000
_cell_angle_beta 90.000000
_cell_angle_gamma 90.000000
_cell_volume 2004.715958
_symmetry_space_group_name_H-M "P 41 2 2"
_symmetry_group_IT_number 91
_symmetry_cell_setting 'tetragonal'
loop_
_space_group_symop_operation_xyz
x,y,z
-y,x,1/4+z
-x,-y,1/2+z
y,-x,3/4+z
x,-y,1/2-z
-x,y,-z
y,x,3/4-z
-y,-x,1/4-z
loop_
_atom_site_type_symbol
_atom_site_label
_atom_site_fract_x
_atom_site_fract_y
_atom_site_fract_z
Si Si1 0.967694 0.442123 0.438974
Si Si2 0.778058 0.278277 0.028055
Si Si3 0.084726 0.084726 0.875000
Si Si4 0.504965 0.288152 0.652469
Si Si5 0.768229 0.798530 0.610492
Si Si6 0.500000 0.604335 0.500000
O O1 0.870482 0.579355 0.456720
O O2 0.899164 0.352286 0.387060
O O3 0.000000 0.359400 0.500000
O O4 0.124332 0.483332 0.418646
O O5 0.844727 0.158074 0.068390
O O6 0.779071 0.229186 0.959817
O O7 0.610360 0.306352 0.039902
O O8 0.919432 0.131116 0.873102
O O9 0.646397 0.353604 0.625000
O O10 0.357502 0.282768 0.615613
O O11 0.479985 0.393315 0.707867
#
# Coordination Sequence:
#
# PCOD9548274 Si02
#       6
#     8   8   4   8   8   4
#     4  12  23  47  71  99 149 192 235 307 378 432
#     4  11  24  46  71 106 138 190 246 296 370 444
#     4  12  24  44  72  98 146 194 242 300 358 468
#     4  11  24  43  67 104 138 180 245 307 363 441
#     4  11  26  43  71 103 141 196 244 299 378 449
#     4  10  22  38  70 102 132 178 232 306 358 430
#
# _framework density 19.952952
#
# number of rings (size 3 to 8) (size 9 to 14) (size 15 to 20)
#    0.000    0.800    6.000    1.800    8.400    1.600 
#    0.000    0.000    0.000    0.000    0.000    0.000 
#    0.000    0.000    0.000    0.000    0.000    0.000 
#
# Total GULP energy -222817.610211 kJ/mol
# GULP energy per Si atom -5570.440255 kJ/mol
# Density = 1.990754 g / cm^3
# Si number density = 19.952952 Si / 1000 Ang^3
#
#
#
# Elastic Constant Matrix: (Units=GPa)
#
#
# Indices 1 2 3 4 5 6 
#
# 1 143.1284 69.5937 51.9408 0.0000 0.0000 0.0000
# 2 69.5937 143.1300 51.9410 0.0000 0.0000 0.0000
# 3 51.9408 51.9410 78.6489 0.0000 0.0000 0.0000
# 4 0.0000 0.0000 0.0000 27.6703 0.0000 0.0000
# 5 0.0000 0.0000 0.0000 0.0000 27.6700 0.0000
# 6 0.0000 0.0000 0.0000 0.0000 0.0000 -0.6328
#
#
#
# Elastic Compliance Matrix: (Units=1/GPa)
#
#
# Indices 1 2 3 4 5 6 
#
# 1 0.010269 -0.003330 -0.004582 0.000000 0.000000 0.000000
# 2 -0.003330 0.010269 -0.004582 0.000000 0.000000 0.000000
# 3 -0.004582 -0.004582 0.018767 0.000000 0.000000 0.000000
# 4 0.000000 0.000000 0.000000 0.036140 0.000000 0.000000
# 5 0.000000 0.000000 0.000000 0.000000 0.036140 0.000000
# 6 0.000000 0.000000 0.000000 0.000000 0.000000 -1.580298
#
#
# Mechanical properties :
#
#
# Convention : Reuss Voigt Hill
#
# Bulk Modulus (GPa) = 69.85648 79.09538 74.47593
# Shear Modulus (GPa) = -3.47475 23.70363 10.11444
#
# Velocity S-wave (km/s) = -1.32108 3.45044 2.25392
# Velocity P-wave (km/s) = 5.72360 7.45661 6.64683
#
# Compressibility (1/GPa) = 0.01431507
#
# Stress axis : x y z
#
# Youngs Moduli (GPa) = 97.38147 97.38281 53.28393
#
# Poissons Ratio (x) = 0.32429 0.24417
# Poissons Ratio (y) = 0.32429 0.24417
# Poissons Ratio (z) = 0.44625 0.44625
#
# Static dielectric constant tensor:
#      x y z
#    x 1.749560 0.000000 0.000000 
#    y 0.000000 1.749560 0.000000 
#    z 0.000000 0.000000 1.766240 
# 
# From -- ./inp_files/12773.got.cif
#   From: 2010.05.17/outbox.cif.g08.bks.cpg/sg91_7_cif.got.tgz:12773.got - 2010.06.03 19:20:03.
