data_PCOD9548444
_publ_section_title
;
Structure prediction by ZEFSAII (Michael W. Deem and Ramdas Pophale) SiO2 
 PCOD9548444
Probable space group: P 41 2 2
;
_chemical_formula_sum "Si O2"
_cell_formula_units_Z 56
_cell_length_a 14.776297
_cell_length_b 14.776297
_cell_length_c 12.203592
_cell_angle_alpha 90.000000
_cell_angle_beta 90.000000
_cell_angle_gamma 90.000000
_cell_volume 2664.519501
_symmetry_space_group_name_H-M "P 41 2 2"
_symmetry_group_IT_number 91
_symmetry_cell_setting 'tetragonal'
loop_
_space_group_symop_operation_xyz
x,y,z
-y,x,1/4+z
-x,-y,1/2+z
y,-x,3/4+z
x,-y,1/2-z
-x,y,-z
y,x,3/4-z
-y,-x,1/4-z
loop_
_atom_site_type_symbol
_atom_site_label
_atom_site_fract_x
_atom_site_fract_y
_atom_site_fract_z
Si Si1 0.667826 0.057443 0.952077
Si Si2 0.296959 0.153670 0.837418
Si Si3 0.481464 0.258453 0.876042
Si Si4 0.472918 0.472918 0.875000
Si Si5 0.834510 0.335325 0.844729
Si Si6 0.765034 0.100018 0.620106
Si Si7 0.062450 0.500000 0.250000
Si Si8 0.222953 0.331552 0.552390
O O1 0.673402 0.158997 0.908276
O O2 0.740210 0.004476 0.876989
O O3 0.686791 0.069855 0.081015
O O4 0.572158 0.004246 0.939550
O O5 0.209374 0.209374 0.875000
O O6 0.384846 0.219291 0.844455
O O7 0.295906 0.132794 0.709589
O O8 0.486208 0.365798 0.880540
O O9 0.561162 0.234166 0.791276
O O10 0.500000 0.224363 0.000000
O O11 0.508553 0.500000 0.750000
O O12 0.876777 0.275599 0.748423
O O13 0.872406 0.436434 0.824092
O O14 0.726926 0.313208 0.828081
O O15 0.868138 0.131863 0.625000
O O16 0.710822 0.165247 0.703494
#
# Coordination Sequence:
#
# PCOD9548444 Si02
#       8
#     8   8   8   4   8   8   4   8
#     4  11  21  39  66  99 126 167 223 265 336 390
#     4  12  22  39  66  97 132 176 218 277 328 400
#     4  11  21  38  61  85 124 172 226 267 318 377
#     4  10  24  44  56  86 122 176 234 284 316 370
#     4  10  23  42  60  92 140 175 216 269 341 392
#     4   9  22  41  59  90 130 167 209 267 331 405
#     4  10  24  42  58 100 136 168 218 286 330 384
#     4  11  21  41  65  91 128 176 220 266 325 402
#
# _framework density 21.016923999999999
#
# number of rings (size 3 to 8) (size 9 to 14) (size 15 to 20)
#    0.000    1.429    3.571    1.286    6.000    2.286 
#   10.286    0.000    0.000    0.000    0.000   30.000 
#    0.000    0.000    0.000    0.000    0.000    0.000 
#
# Total GULP energy -311969.329627 kJ/mol
# GULP energy per Si atom -5570.880886 kJ/mol
# Density = 2.096909 g / cm^3
# Si number density = 21.016924 Si / 1000 Ang^3
#
#
#
# Elastic Constant Matrix: (Units=GPa)
#
#
# Indices 1 2 3 4 5 6 
#
# 1 72.7243 30.8793 14.6754 0.0000 0.0000 0.0000
# 2 30.8793 72.7253 14.6757 0.0000 0.0000 0.0000
# 3 14.6754 14.6757 130.1727 0.0000 0.0000 0.0000
# 4 0.0000 0.0000 0.0000 28.0258 0.0000 0.0000
# 5 0.0000 0.0000 0.0000 0.0000 28.0254 0.0000
# 6 0.0000 0.0000 0.0000 0.0000 0.0000 30.6389
#
#
#
# Elastic Compliance Matrix: (Units=1/GPa)
#
#
# Indices 1 2 3 4 5 6 
#
# 1 0.016934 -0.006963 -0.001124 0.000000 0.000000 0.000000
# 2 -0.006963 0.016934 -0.001124 0.000000 0.000000 0.000000
# 3 -0.001124 -0.001124 0.007936 0.000000 0.000000 0.000000
# 4 0.000000 0.000000 0.000000 0.035681 0.000000 0.000000
# 5 0.000000 0.000000 0.000000 0.000000 0.035682 0.000000
# 6 0.000000 0.000000 0.000000 0.000000 0.000000 0.032638
#
#
# Mechanical properties :
#
#
# Convention : Reuss Voigt Hill
#
# Bulk Modulus (GPa) = 42.77083 44.00923 43.39003
# Shear Modulus (GPa) = 29.06608 31.69747 30.38178
#
# Velocity S-wave (km/s) = 3.72288 3.88775 3.80621
# Velocity P-wave (km/s) = 6.23496 6.41391 6.32506
#
# Compressibility (1/GPa) = 0.02338042
#
# Stress axis : x y z
#
# Youngs Moduli (GPa) = 59.05239 59.05311 126.01509
#
# Poissons Ratio (x) = 0.41121 0.14165
# Poissons Ratio (y) = 0.41121 0.14165
# Poissons Ratio (z) = 0.06638 0.06638
#
# Static dielectric constant tensor:
#      x y z
#    x 1.881640 0.000000 0.000000 
#    y 0.000000 1.881630 0.000000 
#    z 0.000000 0.000000 1.869660 
# 
# From -- ./inp_files/15997.got.cif
#   From: 2010.05.17/outbox.cif.g08.bks.cpg/sg91_8_cif.got.tgz:15997.got - 2010.06.03 19:20:03.
