data_PCOD9548651
_publ_section_title
;
Structure prediction by ZEFSAII (Michael W. Deem and Ramdas Pophale) SiO2 
 PCOD9548651
Probable space group: P 41 2 2
;
_chemical_formula_sum "Si O2"
_cell_formula_units_Z 36
_cell_length_a 11.429871
_cell_length_b 11.429871
_cell_length_c 12.257548
_cell_angle_alpha 90.000000
_cell_angle_beta 90.000000
_cell_angle_gamma 90.000000
_cell_volume 1601.349986
_symmetry_space_group_name_H-M "P 41 2 2"
_symmetry_group_IT_number 91
_symmetry_cell_setting 'tetragonal'
loop_
_space_group_symop_operation_xyz
x,y,z
-y,x,1/4+z
-x,-y,1/2+z
y,-x,3/4+z
x,-y,1/2-z
-x,y,-z
y,x,3/4-z
-y,-x,1/4-z
loop_
_atom_site_type_symbol
_atom_site_label
_atom_site_fract_x
_atom_site_fract_y
_atom_site_fract_z
Si Si1 0.100864 0.160028 0.583518
Si Si2 0.118611 0.500000 0.250000
Si Si3 0.572615 0.243608 0.111334
Si Si4 0.858684 0.609124 0.972923
Si Si5 0.970823 0.278991 0.188915
O O1 0.168420 0.259072 0.512543
O O2 0.051860 0.227104 0.689523
O O3 0.000000 0.118407 0.500000
O O4 0.182620 0.052645 0.616769
O O5 0.173053 0.427163 0.349863
O O6 0.041503 0.399924 0.193711
O O7 0.630438 0.369563 0.125000
O O8 0.482445 0.209271 0.203834
O O9 0.678106 0.149700 0.111620
O O10 0.500000 0.233144 0.000000
O O11 0.000000 0.598527 0.000000
#
# Coordination Sequence:
#
# PCOD9548651 Si02
#       5
#     8   4   8   8   8
#     4  11  23  40  68  99 151 185 221 295 360 421
#     4  12  22  40  68  96 136 188 246 268 338 422
#     4  12  26  47  76 100 141 182 234 303 357 422
#     4  11  21  42  69  99 138 186 233 289 349 423
#     4  12  23  42  68 106 140 186 232 289 355 432
#
# _framework density 22.481031000000002
#
# number of rings (size 3 to 8) (size 9 to 14) (size 15 to 20)
#    0.000    0.444   10.000    0.667    3.111    1.778 
#    0.000    0.000    9.778    0.000    0.000    0.000 
#    0.000    0.000    0.000    0.000    0.000    0.000 
#
# Total GULP energy -201229.927775 kJ/mol
# GULP energy per Si atom -5589.720216 kJ/mol
# Density = 2.242986 g / cm^3
# Si number density = 22.481031 Si / 1000 Ang^3
#
#
#
# Elastic Constant Matrix: (Units=GPa)
#
#
# Indices 1 2 3 4 5 6 
#
# 1 72.3388 55.1105 3.1637 0.0000 0.0000 0.0000
# 2 55.1105 72.3352 3.1627 0.0000 0.0000 0.0000
# 3 3.1637 3.1627 67.3318 0.0000 0.0000 0.0000
# 4 0.0000 0.0000 0.0000 -7.8166 0.0000 0.0000
# 5 0.0000 0.0000 0.0000 0.0000 -7.8218 0.0000
# 6 0.0000 0.0000 0.0000 0.0000 0.0000 6.4126
#
#
#
# Elastic Compliance Matrix: (Units=1/GPa)
#
#
# Indices 1 2 3 4 5 6 
#
# 1 0.032957 -0.025093 -0.000370 0.000000 0.000000 0.000000
# 2 -0.025093 0.032958 -0.000369 0.000000 0.000000 0.000000
# 3 -0.000370 -0.000369 0.014887 0.000000 0.000000 0.000000
# 4 0.000000 0.000000 0.000000 -0.127933 0.000000 0.000000
# 5 0.000000 0.000000 0.000000 0.000000 -0.127848 0.000000
# 6 0.000000 0.000000 0.000000 0.000000 0.000000 0.155943
#
#
# Mechanical properties :
#
#
# Convention : Reuss Voigt Hill
#
# Bulk Modulus (GPa) = 34.31941 37.20886 35.76414
# Shear Modulus (GPa) = 118.09482 8.19278 63.14380
#
# Velocity S-wave (km/s) = 7.25568 1.91108 5.30552
# Velocity P-wave (km/s) = 9.24620 4.63215 7.31263
#
# Compressibility (1/GPa) = 0.02913803
#
# Stress axis : x y z
#
# Youngs Moduli (GPa) = 30.34289 30.34144 67.17479
#
# Poissons Ratio (x) = 0.76135 0.02485
# Poissons Ratio (y) = 0.76139 0.02479
# Poissons Ratio (z) = 0.01122 0.01120
#
# Static dielectric constant tensor:
#      x y z
#    x 1.826630 0.000000 0.000000 
#    y 0.000000 1.826630 0.000000 
#    z 0.000000 0.000000 1.907070 
# 
# From -- ./inp_files/3522.got.cif
#   From: 2010.05.17/outbox.cif.g08.bks.cpg/sg91_2_cif.got.tgz:3522.got - 2010.06.03 19:20:03.
