data_PCOD9548513
_publ_section_title
;
Structure prediction by ZEFSAII (Michael W. Deem and Ramdas Pophale) SiO2 
 PCOD9548513
Probable space group: P 41 2 2
;
_chemical_formula_sum "Si O2"
_cell_formula_units_Z 32
_cell_length_a 8.540412
_cell_length_b 8.540412
_cell_length_c 19.936392
_cell_angle_alpha 90.000000
_cell_angle_beta 90.000000
_cell_angle_gamma 90.000000
_cell_volume 1454.133262
_symmetry_space_group_name_H-M "P 41 2 2"
_symmetry_group_IT_number 91
_symmetry_cell_setting 'tetragonal'
loop_
_space_group_symop_operation_xyz
x,y,z
-y,x,1/4+z
-x,-y,1/2+z
y,-x,3/4+z
x,-y,1/2-z
-x,y,-z
y,x,3/4-z
-y,-x,1/4-z
loop_
_atom_site_type_symbol
_atom_site_label
_atom_site_fract_x
_atom_site_fract_y
_atom_site_fract_z
Si Si1 0.767261 0.769632 0.262497
Si Si2 0.983588 0.500000 0.750000
Si Si3 0.419542 0.419542 0.875000
Si Si4 0.628778 0.790516 0.123444
Si Si5 0.932583 0.936251 0.682537
O O1 0.657152 0.671502 0.312340
O O2 0.658763 0.834951 0.202096
O O3 0.899914 0.646280 0.237635
O O4 0.884850 0.887507 0.302180
O O5 0.881611 0.480437 0.818828
O O6 0.605598 0.397292 0.875195
O O7 0.793936 0.832189 0.091449
O O8 0.864293 0.000000 0.750000
O O9 0.936441 0.063560 0.625000
#
# Coordination Sequence:
#
# PCOD9548513 Si02
#       5
#     8   4   4   8   8
#     4  11  22  44  72  97 140 182 239 294 349 439
#     4  10  24  44  64 104 140 176 236 296 356 410
#     4  12  24  44  72 108 132 190 242 288 370 430
#     4  11  25  43  69 100 142 184 231 302 353 424
#     4  11  22  43  68 102 139 187 236 293 354 429
#
# _framework density 22.006238
#
# number of rings (size 3 to 8) (size 9 to 14) (size 15 to 20)
#    0.000    1.000    6.250    0.000    3.500    0.000 
#    4.500    0.000    0.000    0.000    0.000    0.000 
#    0.000    0.000    0.000    0.000    0.000    0.000 
#
# Total GULP energy -178411.672454 kJ/mol
# GULP energy per Si atom -5575.364764 kJ/mol
# Density = 2.195615 g / cm^3
# Si number density = 22.006238 Si / 1000 Ang^3
#
#
#
# Elastic Constant Matrix: (Units=GPa)
#
#
# Indices 1 2 3 4 5 6 
#
# 1 26.4275 14.8636 22.4890 0.0000 0.0000 0.0000
# 2 14.8636 26.4276 22.4901 0.0000 0.0000 0.0000
# 3 22.4890 22.4901 167.6608 0.0000 0.0000 0.0000
# 4 0.0000 0.0000 0.0000 52.8263 0.0000 0.0000
# 5 0.0000 0.0000 0.0000 0.0000 52.8284 0.0000
# 6 0.0000 0.0000 0.0000 0.0000 0.0000 17.5976
#
#
#
# Elastic Compliance Matrix: (Units=1/GPa)
#
#
# Indices 1 2 3 4 5 6 
#
# 1 0.057419 -0.029056 -0.003804 0.000000 0.000000 0.000000
# 2 -0.029056 0.057419 -0.003805 0.000000 0.000000 0.000000
# 3 -0.003804 -0.003805 0.006985 0.000000 0.000000 0.000000
# 4 0.000000 0.000000 0.000000 0.018930 0.000000 0.000000
# 5 0.000000 0.000000 0.000000 0.000000 0.018929 0.000000
# 6 0.000000 0.000000 0.000000 0.000000 0.000000 0.056826
#
#
# Mechanical properties :
#
#
# Convention : Reuss Voigt Hill
#
# Bulk Modulus (GPa) = 20.62183 37.80013 29.21098
# Shear Modulus (GPa) = 16.33969 35.36200 25.85085
#
# Velocity S-wave (km/s) = 2.72785 4.01297 3.43112
# Velocity P-wave (km/s) = 4.39463 6.21983 5.38512
#
# Compressibility (1/GPa) = 0.04849229
#
# Stress axis : x y z
#
# Youngs Moduli (GPa) = 17.41594 17.41572 143.16263
#
# Poissons Ratio (x) = 0.50604 0.54461
# Poissons Ratio (y) = 0.50605 0.54471
# Poissons Ratio (z) = 0.06625 0.06626
#
# Static dielectric constant tensor:
#      x y z
#    x 1.740540 0.000000 0.000000 
#    y 0.000000 1.740520 0.000000 
#    z 0.000000 0.000000 1.755120 
# 
# From -- ./inp_files/6058.got.cif
#   From: 2010.05.17/outbox.cif.g08.bks.cpg/sg91_4_cif.got.tgz:6058.got - 2010.06.03 19:20:03.
