data_PCOD9548911
_publ_section_title
;
Structure prediction by ZEFSAII (Michael W. Deem and Ramdas Pophale) SiO2 
 PCOD9548911
Probable space group: P 41 21 2
;
_chemical_formula_sum "Si O2"
_cell_formula_units_Z 52
_cell_length_a 20.896846
_cell_length_b 20.896846
_cell_length_c 5.022364
_cell_angle_alpha 90.000000
_cell_angle_beta 90.000000
_cell_angle_gamma 90.000000
_cell_volume 2193.156734
_symmetry_space_group_name_H-M "P 41 21 2"
_symmetry_group_IT_number 92
_symmetry_cell_setting 'tetragonal'
loop_
_space_group_symop_operation_xyz
x,y,z
1/2-y,1/2+x,1/4+z
-x,-y,1/2+z
1/2+y,1/2-x,3/4+z
1/2+x,1/2-y,3/4-z
1/2-x,1/2+y,1/4-z
y,x,-z
-y,-x,1/2-z
loop_
_atom_site_type_symbol
_atom_site_label
_atom_site_fract_x
_atom_site_fract_y
_atom_site_fract_z
Si Si1 0.081942 0.447750 0.870006
Si Si2 0.808684 0.907014 0.411064
Si Si3 0.771753 0.436000 0.346221
Si Si4 0.848777 0.151224 0.750000
Si Si5 0.923328 0.244079 0.454700
Si Si6 0.896096 0.362057 0.130814
Si Si7 0.534263 0.623633 0.105426
O O1 0.076171 0.511595 0.042699
O O2 0.121114 0.402277 0.071484
O O3 0.110816 0.452773 0.572912
O O4 0.841935 0.841935 0.500000
O O5 0.749503 0.920568 0.605743
O O6 0.860275 0.964188 0.457718
O O7 0.783126 0.912120 0.110304
O O8 0.776726 0.513695 0.334589
O O9 0.834550 0.398218 0.252230
O O10 0.861495 0.220153 0.617422
O O11 0.856824 0.090381 0.556547
O O12 0.899648 0.287519 0.209450
O O13 0.953925 0.176276 0.371745
O O14 0.553309 0.553309 0.000000
#
# Coordination Sequence:
#
# PCOD9548911 Si02
#       7
#     8   8   8   4   8   8   8
#     4  12  24  42  64  97 137 174 224 288 352 410
#     4  11  23  44  66  95 135 181 218 273 353 427
#     4  11  23  44  66  96 136 179 227 283 349 417
#     4  10  18  40  66  92 128 170 226 288 346 386
#     4  10  22  39  67  92 133 173 229 286 340 414
#     4  12  26  41  68 100 130 185 232 284 344 420
#     4   9  20  39  63  96 124 167 217 281 340 401
#
# _framework density 23.710114999999998
#
# number of rings (size 3 to 8) (size 9 to 14) (size 15 to 20)
#    0.000    1.231    1.538    5.077    2.154    1.231 
#    2.769    3.077    0.000    0.000    0.000    0.000 
#    0.000    0.000    0.000    0.000    0.000    0.000 
#
# Total GULP energy -290242.452457 kJ/mol
# GULP energy per Si atom -5581.585624 kJ/mol
# Density = 2.365615 g / cm^3
# Si number density = 23.710115 Si / 1000 Ang^3
#
#
#
# Elastic Constant Matrix: (Units=GPa)
#
#
# Indices 1 2 3 4 5 6 
#
# 1 55.4148 33.3429 4.3848 0.0000 0.0000 0.0000
# 2 33.3429 55.4153 4.3848 0.0000 0.0000 0.0000
# 3 4.3848 4.3848 88.8364 0.0000 0.0000 0.0000
# 4 0.0000 0.0000 0.0000 39.1420 0.0000 0.0000
# 5 0.0000 0.0000 0.0000 0.0000 39.1417 0.0000
# 6 0.0000 0.0000 0.0000 0.0000 0.0000 37.1606
#
#
#
# Elastic Compliance Matrix: (Units=1/GPa)
#
#
# Indices 1 2 3 4 5 6 
#
# 1 0.028314 -0.016992 -0.000559 0.000000 0.000000 0.000000
# 2 -0.016992 0.028314 -0.000559 0.000000 0.000000 0.000000
# 3 -0.000559 -0.000559 0.011312 0.000000 0.000000 0.000000
# 4 0.000000 0.000000 0.000000 0.025548 0.000000 0.000000
# 5 0.000000 0.000000 0.000000 0.000000 0.025548 0.000000
# 6 0.000000 0.000000 0.000000 0.000000 0.000000 0.026910
#
#
# Mechanical properties :
#
#
# Convention : Reuss Voigt Hill
#
# Bulk Modulus (GPa) = 31.52571 31.54350 31.53460
# Shear Modulus (GPa) = 25.94185 33.59247 29.76716
#
# Velocity S-wave (km/s) = 3.31135 3.76812 3.54709
# Velocity P-wave (km/s) = 5.28632 5.68017 5.48678
#
# Compressibility (1/GPa) = 0.03172014
#
# Stress axis : x y z
#
# Youngs Moduli (GPa) = 35.31823 35.31853 88.40321
#
# Poissons Ratio (x) = 0.60013 0.04940
# Poissons Ratio (y) = 0.60013 0.04940
# Poissons Ratio (z) = 0.01974 0.01974
#
# Static dielectric constant tensor:
#      x y z
#    x 1.977350 0.000000 0.000000 
#    y 0.000000 1.977350 0.000000 
#    z 0.000000 0.000000 -16.837540 
# 
# From -- ./inp_files/728.got.cif
#   From: 2010.05.17/outbox.cif.g08.bks.cpg/sg92_1_cif.got.tgz:728.got - 2010.06.03 19:35:17.
