data_PCOD9548118
_publ_section_title
;
Structure prediction by ZEFSAII (Michael W. Deem and Ramdas Pophale) SiO2 
 PCOD9548118
Probable space group: P 41 2 2
;
_chemical_formula_sum "Si O2"
_cell_formula_units_Z 40
_cell_length_a 12.425727
_cell_length_b 12.425727
_cell_length_c 13.436251
_cell_angle_alpha 90.000000
_cell_angle_beta 90.000000
_cell_angle_gamma 90.000000
_cell_volume 2074.539573
_symmetry_space_group_name_H-M "P 41 2 2"
_symmetry_group_IT_number 91
_symmetry_cell_setting 'tetragonal'
loop_
_space_group_symop_operation_xyz
x,y,z
-y,x,1/4+z
-x,-y,1/2+z
y,-x,3/4+z
x,-y,1/2-z
-x,y,-z
y,x,3/4-z
-y,-x,1/4-z
loop_
_atom_site_type_symbol
_atom_site_label
_atom_site_fract_x
_atom_site_fract_y
_atom_site_fract_z
Si Si1 0.612723 0.500000 0.250000
Si Si2 0.867645 0.132355 0.625000
Si Si3 0.100466 0.705687 0.554143
Si Si4 0.332523 0.879689 0.274570
Si Si5 0.473841 0.721824 0.709262
Si Si6 0.913968 0.792517 0.225505
O O1 0.543654 0.391586 0.264258
O O2 0.686685 0.512907 0.345379
O O3 0.769934 0.138107 0.703057
O O4 0.979104 0.147176 0.685732
O O5 0.204781 0.632287 0.538879
O O6 0.125021 0.818087 0.498860
O O7 0.074013 0.729878 0.669546
O O8 0.000000 0.652375 0.500000
O O9 0.424236 0.791665 0.258369
O O10 0.288903 0.879933 0.387682
O O11 0.373133 0.000000 0.250000
#
# Coordination Sequence:
#
# PCOD9548118 Si02
#       6
#     4   4   8   8   8   8
#     4  10  22  36  60  80 108 150 186 242 290 342
#     4  10  22  38  58  86 118 158 194 230 294 356
#     4  11  22  35  59  88 115 151 193 244 292 350
#     4  10  21  38  60  83 118 156 189 239 289 347
#     4  11  21  39  58  85 114 147 197 242 299 354
#     4  10  21  38  57  85 120 154 195 238 291 352
#
# _framework density 19.281385
#
# number of rings (size 3 to 8) (size 9 to 14) (size 15 to 20)
#    0.000    1.600    0.000    6.600    0.000    5.600 
#    0.000    0.000    0.000    4.800    0.000    0.000 
#    0.000    0.000    0.000    0.000    0.000    0.000 
#
# Total GULP energy -223407.826732 kJ/mol
# GULP energy per Si atom -5585.195668 kJ/mol
# Density = 1.923750 g / cm^3
# Si number density = 19.281385 Si / 1000 Ang^3
#
#
#
# Elastic Constant Matrix: (Units=GPa)
#
#
# Indices 1 2 3 4 5 6 
#
# 1 138.1778 92.8271 44.9627 0.0000 0.0000 0.0000
# 2 92.8271 138.1771 44.9631 0.0000 0.0000 0.0000
# 3 44.9627 44.9631 80.0165 0.0000 0.0000 0.0000
# 4 0.0000 0.0000 0.0000 7.6155 0.0000 0.0000
# 5 0.0000 0.0000 0.0000 0.0000 7.6144 0.0000
# 6 0.0000 0.0000 0.0000 0.0000 0.0000 6.5979
#
#
#
# Elastic Compliance Matrix: (Units=1/GPa)
#
#
# Indices 1 2 3 4 5 6 
#
# 1 0.013796 -0.008255 -0.003113 0.000000 0.000000 0.000000
# 2 -0.008255 0.013796 -0.003114 0.000000 0.000000 0.000000
# 3 -0.003113 -0.003114 0.015997 0.000000 0.000000 0.000000
# 4 0.000000 0.000000 0.000000 0.131312 0.000000 0.000000
# 5 0.000000 0.000000 0.000000 0.000000 0.131330 0.000000
# 6 0.000000 0.000000 0.000000 0.000000 0.000000 0.151564
#
#
# Mechanical properties :
#
#
# Convention : Reuss Voigt Hill
#
# Bulk Modulus (GPa) = 68.37982 80.20860 74.29421
# Shear Modulus (GPa) = 10.17018 15.94011 13.05514
#
# Velocity S-wave (km/s) = 2.29914 2.87838 2.60491
# Velocity P-wave (km/s) = 6.52604 7.26196 6.90381
#
# Compressibility (1/GPa) = 0.01462420
#
# Stress axis : x y z
#
# Youngs Moduli (GPa) = 72.48635 72.48566 62.51331
#
# Poissons Ratio (x) = 0.59835 0.19464
# Poissons Ratio (y) = 0.59836 0.19465
# Poissons Ratio (z) = 0.22569 0.22570
#
# Static dielectric constant tensor:
#      x y z
#    x 1.695010 0.000000 0.000000 
#    y 0.000000 1.695010 0.000000 
#    z 0.000000 0.000000 1.654820 
# 
# From -- ./inp_files/11407.got.cif
#   From: 2010.05.17/outbox.cif.g08.bks.cpg/sg91_6_cif.got.tgz:11407.got - 2010.06.03 19:20:03.
