data_PCOD9548266
_publ_section_title
;
Structure prediction by ZEFSAII (Michael W. Deem and Ramdas Pophale) SiO2 
 PCOD9548266
Probable space group: P 41 2 2
;
_chemical_formula_sum "Si O2"
_cell_formula_units_Z 40
_cell_length_a 13.740092
_cell_length_b 13.740092
_cell_length_c 10.239473
_cell_angle_alpha 90.000000
_cell_angle_beta 90.000000
_cell_angle_gamma 90.000000
_cell_volume 1933.111420
_symmetry_space_group_name_H-M "P 41 2 2"
_symmetry_group_IT_number 91
_symmetry_cell_setting 'tetragonal'
loop_
_space_group_symop_operation_xyz
x,y,z
-y,x,1/4+z
-x,-y,1/2+z
y,-x,3/4+z
x,-y,1/2-z
-x,y,-z
y,x,3/4-z
-y,-x,1/4-z
loop_
_atom_site_type_symbol
_atom_site_label
_atom_site_fract_x
_atom_site_fract_y
_atom_site_fract_z
Si Si1 0.819040 0.818509 0.142068
Si Si2 0.006014 0.726351 0.721971
Si Si3 0.140800 0.558326 0.618395
Si Si4 0.873869 0.424993 0.633741
Si Si5 0.260517 0.739484 0.125000
Si Si6 0.709207 0.290794 0.125000
O O1 0.781298 0.927111 0.116694
O O2 0.753681 0.759464 0.245502
O O3 0.925572 0.802298 0.201503
O O4 0.802098 0.769518 0.001571
O O5 0.950704 0.660114 0.830395
O O6 0.071144 0.652666 0.634841
O O7 0.125232 0.500000 0.750000
O O8 0.118241 0.487057 0.498375
O O9 0.251460 0.599400 0.619462
O O10 0.885083 0.500000 0.750000
O O11 0.769544 0.371603 0.645221
#
# Coordination Sequence:
#
# PCOD9548266 Si02
#       6
#     8   8   8   8   4   4
#     4  10  22  38  62  83 126 169 200 254 300 365
#     4  10  23  40  62  95 126 166 214 253 311 362
#     4  11  23  38  64  91 119 156 202 255 300 365
#     4  11  23  38  64  91 119 156 202 255 300 365
#     4  10  22  40  58  90 126 158 194 250 326 362
#     4  10  22  40  58  90 126 158 194 250 326 362
#
# _framework density 20.692029000000002
#
# number of rings (size 3 to 8) (size 9 to 14) (size 15 to 20)
#    0.000    1.600    0.000    5.400    0.000   19.200 
#    0.000    0.000    0.000   80.400    0.000    0.000 
#    0.000    0.000    0.000    0.000    0.000    0.000 
#
# Total GULP energy -223382.144085 kJ/mol
# GULP energy per Si atom -5584.553602 kJ/mol
# Density = 2.064493 g / cm^3
# Si number density = 20.692029 Si / 1000 Ang^3
#
#
#
# Elastic Constant Matrix: (Units=GPa)
#
#
# Indices 1 2 3 4 5 6 
#
# 1 70.0917 64.5924 17.1317 0.0000 0.0000 0.0000
# 2 64.5924 70.0934 17.1322 0.0000 0.0000 0.0000
# 3 17.1317 17.1322 111.1756 0.0000 0.0000 0.0000
# 4 0.0000 0.0000 0.0000 32.6248 0.0000 0.0000
# 5 0.0000 0.0000 0.0000 0.0000 32.6248 0.0000
# 6 0.0000 0.0000 0.0000 0.0000 0.0000 63.9257
#
#
#
# Elastic Compliance Matrix: (Units=1/GPa)
#
#
# Indices 1 2 3 4 5 6 
#
# 1 0.094772 -0.087043 -0.001191 0.000000 0.000000 0.000000
# 2 -0.087043 0.094769 -0.001191 0.000000 0.000000 0.000000
# 3 -0.001191 -0.001191 0.009362 0.000000 0.000000 0.000000
# 4 0.000000 0.000000 0.000000 0.030652 0.000000 0.000000
# 5 0.000000 0.000000 0.000000 0.000000 0.030652 0.000000
# 6 0.000000 0.000000 0.000000 0.000000 0.000000 0.015643
#
#
# Mechanical properties :
#
#
# Convention : Reuss Voigt Hill
#
# Bulk Modulus (GPa) = 49.86573 49.89706 49.88139
# Shear Modulus (GPa) = 10.83700 36.00201 23.41950
#
# Velocity S-wave (km/s) = 2.29099 4.17573 3.36789
# Velocity P-wave (km/s) = 5.58118 6.88589 6.26758
#
# Compressibility (1/GPa) = 0.02005385
#
# Stress axis : x y z
#
# Youngs Moduli (GPa) = 10.55169 10.55193 106.81720
#
# Poissons Ratio (x) = 0.91847 0.12717
# Poissons Ratio (y) = 0.91845 0.12723
# Poissons Ratio (z) = 0.01256 0.01257
#
# Static dielectric constant tensor:
#      x y z
#    x 1.721380 0.000000 0.000000 
#    y 0.000000 1.721380 0.000000 
#    z 0.000000 0.000000 1.731790 
# 
# From -- ./inp_files/19464.got.cif
#   From: 2010.05.17/outbox.cif.g08.bks.cpg/sg91_10_cif.got.tgz:19464.got - 2010.06.03 19:20:03.
