data_PCOD9548485
_publ_section_title
;
Structure prediction by ZEFSAII (Michael W. Deem and Ramdas Pophale) SiO2 
 PCOD9548485
Probable space group: P 41 2 2
;
_chemical_formula_sum "Si O2"
_cell_formula_units_Z 60
_cell_length_a 18.965754
_cell_length_b 18.965754
_cell_length_c 9.278717
_cell_angle_alpha 90.000000
_cell_angle_beta 90.000000
_cell_angle_gamma 90.000000
_cell_volume 3337.552879
_symmetry_space_group_name_H-M "P 41 2 2"
_symmetry_group_IT_number 91
_symmetry_cell_setting 'tetragonal'
loop_
_space_group_symop_operation_xyz
x,y,z
-y,x,1/4+z
-x,-y,1/2+z
y,-x,3/4+z
x,-y,1/2-z
-x,y,-z
y,x,3/4-z
-y,-x,1/4-z
loop_
_atom_site_type_symbol
_atom_site_label
_atom_site_fract_x
_atom_site_fract_y
_atom_site_fract_z
Si Si1 0.776132 0.227870 0.789393
Si Si2 0.465409 0.779415 0.859659
Si Si3 0.002807 0.401101 0.248751
Si Si4 0.122822 0.331617 0.056335
Si Si5 0.253542 0.434427 0.647900
Si Si6 0.000000 0.503562 0.000000
Si Si7 0.677334 0.867716 0.528535
Si Si8 0.665164 0.641170 0.713461
O O1 0.791912 0.208089 0.625000
O O2 0.841210 0.265754 0.864813
O O3 0.719440 0.292421 0.783552
O O4 0.742256 0.164128 0.880922
O O5 0.401589 0.827594 0.804283
O O6 0.530497 0.767078 0.753797
O O7 0.426590 0.706844 0.907342
O O8 0.500000 0.813147 0.000000
O O9 0.056801 0.355647 0.154089
O O10 0.037263 0.445900 0.380970
O O11 0.941670 0.356523 0.325404
O O12 0.966938 0.451040 0.121954
O O13 0.117254 0.308899 0.890040
O O14 0.258224 0.500000 0.750000
O O15 0.192945 0.381691 0.701259
O O16 0.328156 0.395268 0.638104
O O17 0.635217 0.635217 0.875000
#
# Coordination Sequence:
#
# PCOD9548485 Si02
#       8
#     8   8   8   8   8   4   8   8
#     4   9  21  37  57  77 102 143 191 238 275 320
#     4  11  22  32  57  77  99 137 179 227 277 338
#     4  11  24  37  56  81 121 156 194 228 279 338
#     4  11  22  37  54  83 111 148 189 228 278 337
#     4  11  22  34  54  79 100 135 176 227 277 337
#     4  10  24  36  48  78 120 164 188 224 270 346
#     4  11  22  37  56  78 116 147 186 233 277 328
#     4   9  18  36  51  73 101 125 173 229 280 325
#
# _framework density 17.977243999999999
#
# number of rings (size 3 to 8) (size 9 to 14) (size 15 to 20)
#    0.000    1.600    4.000    0.400    9.333    0.533 
#    0.000    0.000    0.000    2.400    0.000    0.000 
#    0.000    0.000    0.000    9.600    0.000    0.400 
#
# Total GULP energy -334110.693441 kJ/mol
# GULP energy per Si atom -5568.511557 kJ/mol
# Density = 1.793633 g / cm^3
# Si number density = 17.977244 Si / 1000 Ang^3
#
#
#
# Elastic Constant Matrix: (Units=GPa)
#
#
# Indices 1 2 3 4 5 6 
#
# 1 60.1558 36.7626 29.1368 0.0000 0.0000 0.0000
# 2 36.7626 60.1561 29.1370 0.0000 0.0000 0.0000
# 3 29.1368 29.1370 113.0718 0.0000 0.0000 0.0000
# 4 0.0000 0.0000 0.0000 22.4765 0.0000 0.0000
# 5 0.0000 0.0000 0.0000 0.0000 22.4766 0.0000
# 6 0.0000 0.0000 0.0000 0.0000 0.0000 12.0952
#
#
#
# Elastic Compliance Matrix: (Units=1/GPa)
#
#
# Indices 1 2 3 4 5 6 
#
# 1 0.027479 -0.015269 -0.003146 0.000000 0.000000 0.000000
# 2 -0.015269 0.027478 -0.003146 0.000000 0.000000 0.000000
# 3 -0.003146 -0.003146 0.010465 0.000000 0.000000 0.000000
# 4 0.000000 0.000000 0.000000 0.044491 0.000000 0.000000
# 5 0.000000 0.000000 0.000000 0.000000 0.044491 0.000000
# 6 0.000000 0.000000 0.000000 0.000000 0.000000 0.082678
#
#
# Mechanical properties :
#
#
# Convention : Reuss Voigt Hill
#
# Bulk Modulus (GPa) = 44.84351 47.05073 45.94712
# Shear Modulus (GPa) = 17.38300 20.63281 19.00791
#
# Velocity S-wave (km/s) = 3.11295 3.39147 3.25519
# Velocity P-wave (km/s) = 6.15787 6.44712 6.30415
#
# Compressibility (1/GPa) = 0.02229977
#
# Stress axis : x y z
#
# Youngs Moduli (GPa) = 36.39205 36.39220 95.55275
#
# Poissons Ratio (x) = 0.55566 0.30063
# Poissons Ratio (y) = 0.55566 0.30063
# Poissons Ratio (z) = 0.11450 0.11450
#
# Static dielectric constant tensor:
#      x y z
#    x 1.628760 0.000000 0.000000 
#    y 0.000000 1.628760 0.000000 
#    z 0.000000 0.000000 1.599180 
# 
# From -- ./inp_files/15328.got.cif
#   From: 2010.05.17/outbox.cif.g08.bks.cpg/sg91_8_cif.got.tgz:15328.got - 2010.06.03 19:20:03.
