data_PCOD9548318
_publ_section_title
;
Structure prediction by ZEFSAII (Michael W. Deem and Ramdas Pophale) SiO2 
 PCOD9548318
Probable space group: P 41 2 2
;
_chemical_formula_sum "Si O2"
_cell_formula_units_Z 40
_cell_length_a 8.110049
_cell_length_b 8.110049
_cell_length_c 24.306594
_cell_angle_alpha 90.000000
_cell_angle_beta 90.000000
_cell_angle_gamma 90.000000
_cell_volume 1598.715050
_symmetry_space_group_name_H-M "P 41 2 2"
_symmetry_group_IT_number 91
_symmetry_cell_setting 'tetragonal'
loop_
_space_group_symop_operation_xyz
x,y,z
-y,x,1/4+z
-x,-y,1/2+z
y,-x,3/4+z
x,-y,1/2-z
-x,y,-z
y,x,3/4-z
-y,-x,1/4-z
loop_
_atom_site_type_symbol
_atom_site_label
_atom_site_fract_x
_atom_site_fract_y
_atom_site_fract_z
Si Si1 0.688101 0.224699 0.839406
Si Si2 0.839287 0.072954 0.069581
Si Si3 0.805387 0.799570 0.204595
Si Si4 0.116554 0.435266 0.431749
Si Si5 0.443686 0.236750 0.442425
O O1 0.670597 0.193885 0.904764
O O2 0.616963 0.069742 0.807763
O O3 0.634986 0.406463 0.820646
O O4 0.886319 0.215295 0.829822
O O5 0.819889 0.180112 0.125000
O O6 0.039017 0.082046 0.059812
O O7 0.752988 0.143511 0.015728
O O8 0.617551 0.858288 0.203799
O O9 0.264626 0.316827 0.450703
O O10 0.139212 0.435595 0.364887
O O11 0.500000 0.157214 0.500000
#
# Coordination Sequence:
#
# PCOD9548318 Si02
#       5
#     8   8   8   8   8
#     4  10  22  40  70 103 131 181 232 285 351 410
#     4   9  19  35  65  98 133 169 223 282 331 428
#     4   9  20  38  64 100 138 171 232 278 344 428
#     4  10  23  44  71  94 141 190 215 298 356 407
#     4  10  24  40  68 106 134 171 250 283 331 439
#
# _framework density 25.020092000000002
#
# number of rings (size 3 to 8) (size 9 to 14) (size 15 to 20)
#    0.000    2.400    0.000    0.000   11.200    5.600 
#    0.000    0.000   88.000    2.400    0.000    0.000 
#    0.000    0.000    0.000    0.000    0.000    0.000 
#
# Total GULP energy -223579.944549 kJ/mol
# GULP energy per Si atom -5589.498614 kJ/mol
# Density = 2.496314 g / cm^3
# Si number density = 25.020092 Si / 1000 Ang^3
#
#
#
# Elastic Constant Matrix: (Units=GPa)
#
#
# Indices 1 2 3 4 5 6 
#
# 1 71.7499 40.3952 3.3080 0.0000 0.0000 0.0000
# 2 40.3952 71.7498 3.3080 0.0000 0.0000 0.0000
# 3 3.3080 3.3080 165.2680 0.0000 0.0000 0.0000
# 4 0.0000 0.0000 0.0000 21.3417 0.0000 0.0000
# 5 0.0000 0.0000 0.0000 0.0000 21.3417 0.0000
# 6 0.0000 0.0000 0.0000 0.0000 0.0000 -1.3283
#
#
#
# Elastic Compliance Matrix: (Units=1/GPa)
#
#
# Indices 1 2 3 4 5 6 
#
# 1 0.020410 -0.011483 -0.000179 0.000000 0.000000 0.000000
# 2 -0.011483 0.020410 -0.000179 0.000000 0.000000 0.000000
# 3 -0.000179 -0.000179 0.006058 0.000000 0.000000 0.000000
# 4 0.000000 0.000000 0.000000 0.046857 0.000000 0.000000
# 5 0.000000 0.000000 0.000000 0.000000 0.046857 0.000000
# 6 0.000000 0.000000 0.000000 0.000000 0.000000 -0.752829
#
#
# Mechanical properties :
#
#
# Convention : Reuss Voigt Hill
#
# Bulk Modulus (GPa) = 43.10662 44.75445 43.93053
# Shear Modulus (GPa) = -8.60846 25.72145 8.55650
#
# Velocity S-wave (km/s) = -1.85690 3.20977 1.85129
# Velocity P-wave (km/s) = 3.55932 5.62700 4.70807
#
# Compressibility (1/GPa) = 0.02319829
#
# Stress axis : x y z
#
# Youngs Moduli (GPa) = 48.99475 48.99467 165.07280
#
# Poissons Ratio (x) = 0.56260 0.02950
# Poissons Ratio (y) = 0.56260 0.02950
# Poissons Ratio (z) = 0.00876 0.00875
#
# Static dielectric constant tensor:
#      x y z
#    x 1.986180 0.000000 0.000000 
#    y 0.000000 1.986190 0.000000 
#    z 0.000000 0.000000 2.252840 
# 
# From -- ./inp_files/21980.got.cif
#   From: 2010.05.17/outbox.cif.g08.bks.cpg/sg91_11_cif.got.tgz:21980.got - 2010.06.03 19:20:03.
