data_PCOD9548172
_publ_section_title
;
Structure prediction by ZEFSAII (Michael W. Deem and Ramdas Pophale) SiO2 
 PCOD9548172
Probable space group: P 41 2 2
;
_chemical_formula_sum "Si O2"
_cell_formula_units_Z 56
_cell_length_a 14.991693
_cell_length_b 14.991693
_cell_length_c 10.979260
_cell_angle_alpha 90.000000
_cell_angle_beta 90.000000
_cell_angle_gamma 90.000000
_cell_volume 2467.598116
_symmetry_space_group_name_H-M "P 41 2 2"
_symmetry_group_IT_number 91
_symmetry_cell_setting 'tetragonal'
loop_
_space_group_symop_operation_xyz
x,y,z
-y,x,1/4+z
-x,-y,1/2+z
y,-x,3/4+z
x,-y,1/2-z
-x,y,-z
y,x,3/4-z
-y,-x,1/4-z
loop_
_atom_site_type_symbol
_atom_site_label
_atom_site_fract_x
_atom_site_fract_y
_atom_site_fract_z
Si Si1 0.903471 0.638939 0.004716
Si Si2 0.524513 0.642417 0.803506
Si Si3 0.104864 0.798310 0.511963
Si Si4 0.155662 0.899160 0.261551
Si Si5 0.258728 0.417939 0.661612
Si Si6 0.802182 0.595222 0.780663
Si Si7 0.661064 0.749526 0.226171
O O1 0.909932 0.740003 0.047310
O O2 0.829882 0.585905 0.080967
O O3 0.865770 0.646451 0.869611
O O4 0.000000 0.595416 0.000000
O O5 0.548850 0.548850 0.875000
O O6 0.577807 0.654502 0.676959
O O7 0.567318 0.712852 0.897511
O O8 0.432337 0.692988 0.758672
O O9 0.137099 0.862902 0.625000
O O10 0.122298 0.843960 0.378836
O O11 0.161747 0.706211 0.530294
O O12 0.000000 0.778973 0.500000
O O13 0.117670 0.000000 0.250000
O O14 0.142345 0.857655 0.125000
O O15 0.258909 0.500000 0.750000
O O16 0.266393 0.328139 0.738479
O O17 0.845535 0.500000 0.750000
O O18 0.778209 0.651081 0.664341
#
# Coordination Sequence:
#
# PCOD9548172 Si02
#       7
#     8   8   8   8   8   8   8
#     4  10  22  39  65  99 135 185 255 314 374 454
#     4  10  21  40  70 101 134 182 249 304 374 448
#     4  12  28  48  74 112 162 214 260 327 416 488
#     4  11  23  42  72 105 138 192 263 328 383 461
#     4  11  24  41  65  98 141 190 240 316 388 456
#     4   9  19  38  65  98 127 177 239 305 373 439
#     4  11  23  44  70  99 148 199 242 316 386 466
#
# _framework density 22.694133999999998
#
# number of rings (size 3 to 8) (size 9 to 14) (size 15 to 20)
#    0.000    1.429    2.857    1.714    2.000    3.429 
#    2.571    6.429    0.000    0.000    0.000    0.000 
#    0.000    0.000    0.000    0.000    0.000    0.000 
#
# Total GULP energy -311899.222499 kJ/mol
# GULP energy per Si atom -5569.628973 kJ/mol
# Density = 2.264248 g / cm^3
# Si number density = 22.694134 Si / 1000 Ang^3
#
#
#
# Elastic Constant Matrix: (Units=GPa)
#
#
# Indices 1 2 3 4 5 6 
#
# 1 104.6273 54.3564 35.4127 0.0000 0.0000 0.0000
# 2 54.3564 104.6270 35.4123 0.0000 0.0000 0.0000
# 3 35.4127 35.4123 96.9443 0.0000 0.0000 0.0000
# 4 0.0000 0.0000 0.0000 25.2040 0.0000 0.0000
# 5 0.0000 0.0000 0.0000 0.0000 25.2039 0.0000
# 6 0.0000 0.0000 0.0000 0.0000 0.0000 20.5870
#
#
#
# Elastic Compliance Matrix: (Units=1/GPa)
#
#
# Indices 1 2 3 4 5 6 
#
# 1 0.013702 -0.006190 -0.002744 0.000000 0.000000 0.000000
# 2 -0.006190 0.013702 -0.002744 0.000000 0.000000 0.000000
# 3 -0.002744 -0.002744 0.012320 0.000000 0.000000 0.000000
# 4 0.000000 0.000000 0.000000 0.039676 0.000000 0.000000
# 5 0.000000 0.000000 0.000000 0.000000 0.039676 0.000000
# 6 0.000000 0.000000 0.000000 0.000000 0.000000 0.048574
#
#
# Mechanical properties :
#
#
# Convention : Reuss Voigt Hill
#
# Bulk Modulus (GPa) = 61.09424 61.84014 61.46719
# Shear Modulus (GPa) = 25.44991 26.26680 25.85836
#
# Velocity S-wave (km/s) = 3.35241 3.40579 3.37921
# Velocity P-wave (km/s) = 6.47797 6.54022 6.50916
#
# Compressibility (1/GPa) = 0.01636816
#
# Stress axis : x y z
#
# Youngs Moduli (GPa) = 72.98002 72.98005 81.16847
#
# Poissons Ratio (x) = 0.45174 0.22275
# Poissons Ratio (y) = 0.45174 0.22274
# Poissons Ratio (z) = 0.20028 0.20027
#
# Static dielectric constant tensor:
#      x y z
#    x 1.902900 0.000000 0.000000 
#    y 0.000000 1.902900 0.000000 
#    z 0.000000 0.000000 1.852410 
# 
# From -- ./inp_files/10861.got.cif
#   From: 2010.05.17/outbox.cif.g08.bks.cpg/sg91_6_cif.got.tgz:10861.got - 2010.06.03 19:20:03.
