data_PCOD9548600
_publ_section_title
;
Structure prediction by ZEFSAII (Michael W. Deem and Ramdas Pophale) SiO2 
 PCOD9548600
Probable space group: P 41 2 2
;
_chemical_formula_sum "Si O2"
_cell_formula_units_Z 32
_cell_length_a 12.850977
_cell_length_b 12.850977
_cell_length_c 10.597072
_cell_angle_alpha 90.000000
_cell_angle_beta 90.000000
_cell_angle_gamma 90.000000
_cell_volume 1750.081112
_symmetry_space_group_name_H-M "P 41 2 2"
_symmetry_group_IT_number 91
_symmetry_cell_setting 'tetragonal'
loop_
_space_group_symop_operation_xyz
x,y,z
-y,x,1/4+z
-x,-y,1/2+z
y,-x,3/4+z
x,-y,1/2-z
-x,y,-z
y,x,3/4-z
-y,-x,1/4-z
loop_
_atom_site_type_symbol
_atom_site_label
_atom_site_fract_x
_atom_site_fract_y
_atom_site_fract_z
Si Si1 0.219015 0.144497 0.009156
Si Si2 0.084307 0.871124 0.254505
Si Si3 0.325253 0.498709 0.110930
Si Si4 0.733415 0.408389 0.350173
O O1 0.141999 0.171765 0.123670
O O2 0.330735 0.174654 0.062721
O O3 0.198860 0.198860 0.875000
O O4 0.187946 0.024408 0.993853
O O5 0.071037 0.000000 0.250000
O O6 0.146844 0.853157 0.125000
O O7 0.274296 0.500000 0.250000
O O8 0.430775 0.569226 0.125000
O O9 0.352623 0.378975 0.083870
O O10 0.264534 0.548479 0.993324
O O11 0.734526 0.500000 0.250000
#
# Coordination Sequence:
#
# PCOD9548600 Si02
#       4
#     8   8   8   8
#     4  11  20  32  56  82 108 139 175 228 283 335
#     4   9  19  37  59  81 102 134 188 241 279 326
#     4   9  18  33  53  75 105 143 182 223 258 315
#     4  11  20  32  52  82 112 142 180 222 276 332
#
# _framework density 18.284866000000001
#
# number of rings (size 3 to 8) (size 9 to 14) (size 15 to 20)
#    0.000    2.000    0.000    7.500    0.000    3.000 
#    0.000    0.000    0.000   22.500    0.000    0.000 
#    0.000    0.000    0.000    0.000    0.000    0.000 
#
# Total GULP energy -178223.001560 kJ/mol
# GULP energy per Si atom -5569.468799 kJ/mol
# Density = 1.824325 g / cm^3
# Si number density = 18.284866 Si / 1000 Ang^3
#
#
#
# Elastic Constant Matrix: (Units=GPa)
#
#
# Indices 1 2 3 4 5 6 
#
# 1 58.1964 11.5306 41.0664 0.0000 0.0000 0.0000
# 2 11.5306 58.2005 41.0710 0.0000 0.0000 0.0000
# 3 41.0664 41.0710 184.6022 0.0000 0.0000 0.0000
# 4 0.0000 0.0000 0.0000 29.3782 0.0000 0.0000
# 5 0.0000 0.0000 0.0000 0.0000 29.3961 0.0000
# 6 0.0000 0.0000 0.0000 0.0000 0.0000 49.3483
#
#
#
# Elastic Compliance Matrix: (Units=1/GPa)
#
#
# Indices 1 2 3 4 5 6 
#
# 1 0.020432 -0.000997 -0.004323 0.000000 0.000000 0.000000
# 2 -0.000997 0.020431 -0.004324 0.000000 0.000000 0.000000
# 3 -0.004323 -0.004324 0.007341 0.000000 0.000000 0.000000
# 4 0.000000 0.000000 0.000000 0.034039 0.000000 0.000000
# 5 0.000000 0.000000 0.000000 0.000000 0.034018 0.000000
# 6 0.000000 0.000000 0.000000 0.000000 0.000000 0.020264
#
#
# Mechanical properties :
#
#
# Convention : Reuss Voigt Hill
#
# Bulk Modulus (GPa) = 34.58422 54.25947 44.42184
# Shear Modulus (GPa) = 30.22055 35.44660 32.83358
#
# Velocity S-wave (km/s) = 4.06983 4.40770 4.24213
# Velocity P-wave (km/s) = 6.40624 7.45941 6.95279
#
# Compressibility (1/GPa) = 0.02891492
#
# Stress axis : x y z
#
# Youngs Moduli (GPa) = 48.94396 48.94606 136.22521
#
# Poissons Ratio (x) = 0.04880 0.58895
# Poissons Ratio (y) = 0.04879 0.58900
# Poissons Ratio (z) = 0.21160 0.21163
#
# Static dielectric constant tensor:
#      x y z
#    x 1.555780 0.000000 0.000000 
#    y 0.000000 1.555740 0.000000 
#    z 0.000000 0.000000 1.714800 
# 
# From -- ./inp_files/3374.got.cif
#   From: 2010.05.17/outbox.cif.g08.bks.cpg/sg91_2_cif.got.tgz:3374.got - 2010.06.03 19:20:03.
