data_PCOD9548059
_publ_section_title
;
Structure prediction by ZEFSAII (Michael W. Deem and Ramdas Pophale) SiO2 
 PCOD9548059
Probable space group: P 41 2 2
;
_chemical_formula_sum "Si O2"
_cell_formula_units_Z 36
_cell_length_a 8.016591
_cell_length_b 8.016591
_cell_length_c 21.366490
_cell_angle_alpha 90.000000
_cell_angle_beta 90.000000
_cell_angle_gamma 90.000000
_cell_volume 1373.133104
_symmetry_space_group_name_H-M "P 41 2 2"
_symmetry_group_IT_number 91
_symmetry_cell_setting 'tetragonal'
loop_
_space_group_symop_operation_xyz
x,y,z
-y,x,1/4+z
-x,-y,1/2+z
y,-x,3/4+z
x,-y,1/2-z
-x,y,-z
y,x,3/4-z
-y,-x,1/4-z
loop_
_atom_site_type_symbol
_atom_site_label
_atom_site_fract_x
_atom_site_fract_y
_atom_site_fract_z
Si Si1 0.830180 0.716468 0.306931
Si Si2 0.841652 0.198694 0.454867
Si Si3 0.615006 0.615006 0.875000
Si Si4 0.000000 0.368850 0.000000
Si Si5 0.995531 0.431844 0.368816
Si Si6 0.500000 0.382770 0.500000
O O1 0.006192 0.809122 0.301853
O O2 0.895005 0.526909 0.315242
O O3 0.723840 0.820874 0.256697
O O4 0.749460 0.749460 0.375000
O O5 0.673036 0.288506 0.479778
O O6 0.000000 0.223937 0.500000
O O7 0.896323 0.267582 0.387596
O O8 0.809116 0.595182 0.856118
O O9 0.521052 0.552368 0.813134
O O10 0.998623 0.467414 0.934524
#
# Coordination Sequence:
#
# PCOD9548059 Si02
#       6
#     8   8   4   4   8   4
#     4  10  23  41  70 102 138 191 251 307 381 466
#     4  12  23  44  72 105 147 198 247 319 392 466
#     4  12  24  46  72 104 158 194 260 326 392 488
#     4  10  20  44  68 100 144 186 250 310 378 462
#     4  11  23  44  68 105 144 194 245 318 389 465
#     4  12  26  46  72 114 154 196 268 322 406 484
#
# _framework density 26.217410999999998
#
# number of rings (size 3 to 8) (size 9 to 14) (size 15 to 20)
#    0.000    0.889    6.667    0.000    1.556    0.000 
#   10.000    0.000    0.000    5.333    0.000    0.000 
#    0.000    0.000    0.000    0.000    0.000    0.000 
#
# Total GULP energy -201199.915988 kJ/mol
# GULP energy per Si atom -5588.886555 kJ/mol
# Density = 2.615774 g / cm^3
# Si number density = 26.217411 Si / 1000 Ang^3
#
#
#
# Elastic Constant Matrix: (Units=GPa)
#
#
# Indices 1 2 3 4 5 6 
#
# 1 76.4136 2.1246 0.9901 0.0000 0.0000 0.0000
# 2 2.1246 76.4136 0.9901 0.0000 0.0000 0.0000
# 3 0.9901 0.9901 108.0209 0.0000 0.0000 0.0000
# 4 0.0000 0.0000 0.0000 -58.7754 0.0000 0.0000
# 5 0.0000 0.0000 0.0000 0.0000 -58.7754 0.0000
# 6 0.0000 0.0000 0.0000 0.0000 0.0000 27.1712
#
#
#
# Elastic Compliance Matrix: (Units=1/GPa)
#
#
# Indices 1 2 3 4 5 6 
#
# 1 0.013098 -0.000363 -0.000117 0.000000 0.000000 0.000000
# 2 -0.000363 0.013098 -0.000117 0.000000 0.000000 0.000000
# 3 -0.000117 -0.000117 0.009260 0.000000 0.000000 0.000000
# 4 0.000000 0.000000 0.000000 -0.017014 0.000000 0.000000
# 5 0.000000 0.000000 0.000000 0.000000 -0.017014 0.000000
# 6 0.000000 0.000000 0.000000 0.000000 0.000000 0.036804
#
#
# Mechanical properties :
#
#
# Convention : Reuss Voigt Hill
#
# Bulk Modulus (GPa) = 29.18528 29.89533 29.54030
# Shear Modulus (GPa) = 98.33702 -0.95972 48.68865
#
# Velocity S-wave (km/s) = 6.13105 -0.60569 4.31410
# Velocity P-wave (km/s) = 7.82789 3.30734 6.00892
#
# Compressibility (1/GPa) = 0.03426385
#
# Stress axis : x y z
#
# Youngs Moduli (GPa) = 76.34595 76.34595 107.99595
#
# Poissons Ratio (x) = 0.02769 0.01261
# Poissons Ratio (y) = 0.02769 0.01261
# Poissons Ratio (z) = 0.00891 0.00891
#
# Static dielectric constant tensor:
#      x y z
#    x 2.156310 0.000000 0.000000 
#    y 0.000000 2.156310 0.000000 
#    z 0.000000 0.000000 2.137370 
# 
# From -- ./inp_files/7317.got.cif
#   From: 2010.05.17/outbox.cif.g08.bks.cpg/sg91_4_cif.got.tgz:7317.got - 2010.06.03 19:20:03.
