data_PCOD9548097
_publ_section_title
;
Structure prediction by ZEFSAII (Michael W. Deem and Ramdas Pophale) SiO2 
 PCOD9548097
Probable space group: P 41 2 2
;
_chemical_formula_sum "Si O2"
_cell_formula_units_Z 48
_cell_length_a 23.543895
_cell_length_b 23.543895
_cell_length_c 5.310957
_cell_angle_alpha 90.000000
_cell_angle_beta 90.000000
_cell_angle_gamma 90.000000
_cell_volume 2943.943086
_symmetry_space_group_name_H-M "P 41 2 2"
_symmetry_group_IT_number 91
_symmetry_cell_setting 'tetragonal'
loop_
_space_group_symop_operation_xyz
x,y,z
-y,x,1/4+z
-x,-y,1/2+z
y,-x,3/4+z
x,-y,1/2-z
-x,y,-z
y,x,3/4-z
-y,-x,1/4-z
loop_
_atom_site_type_symbol
_atom_site_label
_atom_site_fract_x
_atom_site_fract_y
_atom_site_fract_z
Si Si1 0.279164 0.763125 0.380271
Si Si2 0.156724 0.611910 0.809153
Si Si3 0.962264 0.434000 0.249545
Si Si4 0.792448 0.564844 0.706603
Si Si5 0.683097 0.634370 0.670702
Si Si6 0.380834 0.534466 0.517527
O O1 0.239337 0.760664 0.625000
O O2 0.326757 0.812064 0.408784
O O3 0.310351 0.700935 0.383029
O O4 0.242143 0.757858 0.125000
O O5 0.090206 0.609381 0.747369
O O6 0.186609 0.579014 0.575228
O O7 0.162636 0.578861 0.074387
O O8 0.940858 0.500000 0.250000
O O9 0.000000 0.426866 0.500000
O O10 0.000000 0.427402 0.000000
O O11 0.773892 0.500000 0.750000
O O12 0.742622 0.609700 0.760516
O O13 0.662760 0.587007 0.483802
O O14 0.633145 0.633145 0.875000
O O15 0.383959 0.500000 0.250000
O O16 0.439929 0.560072 0.625000
O O17 0.357105 0.500000 0.750000
#
# Coordination Sequence:
#
# PCOD9548097 Si02
#       6
#     8   8   8   8   8   8
#     4  11  20  37  57  76 103 137 161 206 263 318
#     4  12  22  39  57  82 108 137 174 211 261 325
#     4  10  21  37  57  79 109 141 171 211 261 314
#     4  12  24  34  54  81 106 131 167 211 255 323
#     4  11  22  42  58  75 104 126 157 200 272 320
#     4  12  27  44  61  75  86 116 158 205 257 326
#
# _framework density 16.304663999999999
#
# number of rings (size 3 to 8) (size 9 to 14) (size 15 to 20)
#    0.000    0.667    5.000    5.000    0.000    6.000 
#    0.000    0.833    0.000    0.000    0.000    0.000 
#    0.000    0.000    0.000    0.000    0.000    0.000 
#
# Total GULP energy -267454.397710 kJ/mol
# GULP energy per Si atom -5571.966619 kJ/mol
# Density = 1.626755 g / cm^3
# Si number density = 16.304664 Si / 1000 Ang^3
#
#
#
# Elastic Constant Matrix: (Units=GPa)
#
#
# Indices 1 2 3 4 5 6 
#
# 1 65.5334 27.1474 18.0785 0.0000 0.0000 0.0000
# 2 27.1474 65.5329 18.0781 0.0000 0.0000 0.0000
# 3 18.0785 18.0781 111.7771 0.0000 0.0000 0.0000
# 4 0.0000 0.0000 0.0000 13.3985 0.0000 0.0000
# 5 0.0000 0.0000 0.0000 0.0000 13.3998 0.0000
# 6 0.0000 0.0000 0.0000 0.0000 0.0000 -26.5596
#
#
#
# Elastic Compliance Matrix: (Units=1/GPa)
#
#
# Indices 1 2 3 4 5 6 
#
# 1 0.018784 -0.007267 -0.001863 0.000000 0.000000 0.000000
# 2 -0.007267 0.018784 -0.001863 0.000000 0.000000 0.000000
# 3 -0.001863 -0.001863 0.009549 0.000000 0.000000 0.000000
# 4 0.000000 0.000000 0.000000 0.074635 0.000000 0.000000
# 5 0.000000 0.000000 0.000000 0.000000 0.074628 0.000000
# 6 0.000000 0.000000 0.000000 0.000000 0.000000 -0.037651
#
#
# Mechanical properties :
#
#
# Convention : Reuss Voigt Hill
#
# Bulk Modulus (GPa) = 39.79113 41.05016 40.42064
# Shear Modulus (GPa) = 26.44223 12.01701 19.22962
#
# Velocity S-wave (km/s) = 4.03148 2.71777 3.43796
# Velocity P-wave (km/s) = 6.79177 5.92284 6.37213
#
# Compressibility (1/GPa) = 0.02513123
#
# Stress axis : x y z
#
# Youngs Moduli (GPa) = 53.23732 53.23703 104.72433
#
# Poissons Ratio (x) = 0.38690 0.19506
# Poissons Ratio (y) = 0.38690 0.19506
# Poissons Ratio (z) = 0.09916 0.09916
#
# Static dielectric constant tensor:
#      x y z
#    x 1.655330 0.000000 0.000000 
#    y 0.000000 1.655260 0.000000 
#    z 0.000000 0.000000 1.872520 
# 
# From -- ./inp_files/8913.got.cif
#   From: 2010.05.17/outbox.cif.g08.bks.cpg/sg91_5_cif.got.tgz:8913.got - 2010.06.03 19:20:03.
