data_PCOD9548686
_publ_section_title
;
Structure prediction by ZEFSAII (Michael W. Deem and Ramdas Pophale) SiO2 
 PCOD9548686
Probable space group: P 41 2 2
;
_chemical_formula_sum "Si O2"
_cell_formula_units_Z 40
_cell_length_a 9.401661
_cell_length_b 9.401661
_cell_length_c 21.752053
_cell_angle_alpha 90.000000
_cell_angle_beta 90.000000
_cell_angle_gamma 90.000000
_cell_volume 1922.690710
_symmetry_space_group_name_H-M "P 41 2 2"
_symmetry_group_IT_number 91
_symmetry_cell_setting 'tetragonal'
loop_
_space_group_symop_operation_xyz
x,y,z
-y,x,1/4+z
-x,-y,1/2+z
y,-x,3/4+z
x,-y,1/2-z
-x,y,-z
y,x,3/4-z
-y,-x,1/4-z
loop_
_atom_site_type_symbol
_atom_site_label
_atom_site_fract_x
_atom_site_fract_y
_atom_site_fract_z
Si Si1 0.394658 0.964913 0.593475
Si Si2 0.725911 0.725911 0.875000
Si Si3 0.997858 0.289548 0.293051
Si Si4 0.713398 0.133755 0.294974
Si Si5 0.610189 0.523771 0.544558
Si Si6 0.354346 0.354346 0.875000
O O1 0.557043 0.960843 0.571529
O O2 0.305927 0.992721 0.530929
O O3 0.366168 0.816752 0.628274
O O4 0.359303 0.088590 0.641347
O O5 0.585140 0.704278 0.833432
O O6 0.852914 0.741916 0.825989
O O7 0.875271 0.177291 0.308104
O O8 0.633625 0.273658 0.267895
O O9 0.705240 0.000000 0.250000
O O10 0.500000 0.440028 0.500000
O O11 0.490735 0.614209 0.580481
#
# Coordination Sequence:
#
# PCOD9548686 Si02
#       6
#     8   4   8   8   8   4
#     4  11  23  44  71  99 141 188 232 302 360 432
#     4  11  26  45  66 100 140 191 236 295 376 442
#     4  11  25  45  67  99 145 185 239 292 367 439
#     4  12  25  45  72 110 143 189 239 297 367 439
#     4  11  23  41  70 105 138 178 246 309 353 424
#     4  11  22  41  74 102 134 185 244 291 354 424
#
# _framework density 20.804179999999999
#
# number of rings (size 3 to 8) (size 9 to 14) (size 15 to 20)
#    0.000    0.800    4.000    3.600    2.800    2.400 
#    3.600    1.000    0.000    0.000    0.000    0.000 
#    0.000    0.000    0.000    0.000    0.000    0.000 
#
# Total GULP energy -222752.469618 kJ/mol
# GULP energy per Si atom -5568.811740 kJ/mol
# Density = 2.075683 g / cm^3
# Si number density = 20.804180 Si / 1000 Ang^3
#
#
#
# Elastic Constant Matrix: (Units=GPa)
#
#
# Indices 1 2 3 4 5 6 
#
# 1 355.8783 -179.6801 59.2059 0.0000 0.0000 0.0000
# 2 -179.6801 355.8783 59.2059 0.0000 0.0000 0.0000
# 3 59.2059 59.2059 102.2163 0.0000 0.0000 0.0000
# 4 0.0000 0.0000 0.0000 26.6251 0.0000 0.0000
# 5 0.0000 0.0000 0.0000 0.0000 26.6251 0.0000
# 6 0.0000 0.0000 0.0000 0.0000 0.0000 38.9781
#
#
#
# Elastic Compliance Matrix: (Units=1/GPa)
#
#
# Indices 1 2 3 4 5 6 
#
# 1 0.005580 0.003713 -0.005383 0.000000 0.000000 0.000000
# 2 0.003713 0.005580 -0.005383 0.000000 0.000000 0.000000
# 3 -0.005383 -0.005383 0.016019 0.000000 0.000000 0.000000
# 4 0.000000 0.000000 0.000000 0.037559 0.000000 0.000000
# 5 0.000000 0.000000 0.000000 0.000000 0.037559 0.000000
# 6 0.000000 0.000000 0.000000 0.000000 0.000000 0.025655
#
#
# Mechanical properties :
#
#
# Convention : Reuss Voigt Hill
#
# Bulk Modulus (GPa) = 76.48889 76.82626 76.65757
# Shear Modulus (GPa) = 34.14982 76.79505 55.47243
#
# Velocity S-wave (km/s) = 4.05592 6.08222 5.16933
# Velocity P-wave (km/s) = 7.66681 9.29156 8.51801
#
# Compressibility (1/GPa) = 0.01307379
#
# Stress axis : x y z
#
# Youngs Moduli (GPa) = 179.21295 179.21295 62.42769
#
# Poissons Ratio (x) = -0.66537 0.33602
# Poissons Ratio (y) = -0.66537 0.33602
# Poissons Ratio (z) = 0.96462 0.96462
#
# Static dielectric constant tensor:
#      x y z
#    x 1.753310 0.000000 0.000000 
#    y 0.000000 1.753310 0.000000 
#    z 0.000000 0.000000 1.852760 
# 
# From -- ./inp_files/21743.got.cif
#   From: 2010.05.17/outbox.cif.g08.bks.cpg/sg91_11_cif.got.tgz:21743.got - 2010.06.03 19:20:03.
