data_PCOD9548841
_publ_section_title
;
Structure prediction by ZEFSAII (Michael W. Deem and Ramdas Pophale) SiO2 
 PCOD9548841
Probable space group: P 41 2 2
;
_chemical_formula_sum "Si O2"
_cell_formula_units_Z 56
_cell_length_a 15.000000
_cell_length_b 15.000000
_cell_length_c 12.000000
_cell_angle_alpha 90.000000
_cell_angle_beta 90.000000
_cell_angle_gamma 90.000000
_cell_volume 2700.000000
_symmetry_space_group_name_H-M "P 41 2 2"
_symmetry_group_IT_number 91
_symmetry_cell_setting 'tetragonal'
loop_
_space_group_symop_operation_xyz
x,y,z
-y,x,1/4+z
-x,-y,1/2+z
y,-x,3/4+z
x,-y,1/2-z
-x,y,-z
y,x,3/4-z
-y,-x,1/4-z
loop_
_atom_site_type_symbol
_atom_site_label
_atom_site_fract_x
_atom_site_fract_y
_atom_site_fract_z
Si Si1 0.180089 0.623880 0.436930
Si Si2 0.175236 0.417114 0.670808
Si Si3 0.671892 0.648978 0.060813
Si Si4 0.062599 0.304118 0.263367
Si Si5 0.916152 0.450692 0.550197
Si Si6 0.272376 0.130924 0.910479
Si Si7 0.500000 0.453433 0.500000
Si Si8 0.769292 0.769292 0.875000
O O1 0.281746 0.640923 0.405482
O O2 0.120145 0.669824 0.343225
O O3 0.160851 0.519372 0.423628
O O4 0.145629 0.663370 0.553649
O O5 0.147854 0.500000 0.750000
O O6 0.272294 0.429926 0.618424
O O7 0.114098 0.400597 0.562249
O O8 0.179337 0.326979 0.741655
O O9 0.587203 0.608494 0.001072
O O10 0.735275 0.705025 0.975667
O O11 0.057317 0.391304 0.344145
O O12 0.128434 0.243060 0.337354
O O13 0.969401 0.268189 0.212282
O O14 0.000000 0.504959 0.500000
O O15 0.180527 0.180527 0.875000
O O16 0.499888 0.500113 0.625000
#
# Coordination Sequence:
#
# PCOD9548841 Si02
#       8
#     8   8   8   8   8   8   4   4
#     4  11  25  39  68  99 141 181 232 292 370 432
#     4  12  25  41  67  97 142 187 234 293 358 439
#     4  11  25  46  66  97 139 192 248 302 366 437
#     4  11  24  41  70 101 135 181 233 294 358 431
#     4  12  23  39  66 100 139 173 230 294 357 425
#     4  12  24  45  64 106 145 186 224 289 373 452
#     4  12  30  48  70  98 142 202 270 318 368 444
#     4  10  22  44  70 100 132 182 246 304 362 434
#
# _framework density 20.740741
#
# number of rings (size 3 to 8) (size 9 to 14) (size 15 to 20)
#    0.000    0.571    6.429    1.714    7.000    0.000 
#    0.000    0.000    0.000    0.000    7.429    0.000 
#    0.000    0.000    0.000    0.000    0.000    0.000 
#
# Total GULP energy -312037.560327 kJ/mol
# GULP energy per Si atom -5572.099292 kJ/mol
# Density = 2.069353 g / cm^3
# Si number density = 20.740741 Si / 1000 Ang^3
#
#
#
# Elastic Constant Matrix: (Units=GPa)
#
#
# Indices 1 2 3 4 5 6 
#
# 1 52.0732 2.8235 11.7971 0.0000 0.0000 0.0000
# 2 2.8235 52.0728 11.7968 0.0000 0.0000 0.0000
# 3 11.7971 11.7968 79.0015 0.0000 0.0000 0.0000
# 4 0.0000 0.0000 0.0000 20.4580 0.0000 0.0000
# 5 0.0000 0.0000 0.0000 0.0000 20.4574 0.0000
# 6 0.0000 0.0000 0.0000 0.0000 0.0000 25.4207
#
#
#
# Elastic Compliance Matrix: (Units=1/GPa)
#
#
# Indices 1 2 3 4 5 6 
#
# 1 0.019885 -0.000420 -0.002907 0.000000 0.000000 0.000000
# 2 -0.000420 0.019885 -0.002907 0.000000 0.000000 0.000000
# 3 -0.002907 -0.002907 0.013526 0.000000 0.000000 0.000000
# 4 0.000000 0.000000 0.000000 0.048881 0.000000 0.000000
# 5 0.000000 0.000000 0.000000 0.000000 0.048882 0.000000
# 6 0.000000 0.000000 0.000000 0.000000 0.000000 0.039338
#
#
# Mechanical properties :
#
#
# Convention : Reuss Voigt Hill
#
# Bulk Modulus (GPa) = 24.49174 26.22025 25.35599
# Shear Modulus (GPa) = 23.09755 23.71589 23.40672
#
# Velocity S-wave (km/s) = 3.34073 3.38515 3.36302
# Velocity P-wave (km/s) = 5.16864 5.28662 5.22796
#
# Compressibility (1/GPa) = 0.04083009
#
# Stress axis : x y z
#
# Youngs Moduli (GPa) = 50.28919 50.28880 73.93136
#
# Poissons Ratio (x) = 0.02111 0.21490
# Poissons Ratio (y) = 0.02111 0.21489
# Poissons Ratio (z) = 0.14618 0.14617
#
# Static dielectric constant tensor:
#      x y z
#    x 1.953080 0.000000 0.000000 
#    y 0.000000 1.953080 0.000000 
#    z 0.000000 0.000000 1.773200 
# 
# From -- ./inp_files/3946.got.cif
#   From: 2010.05.17/outbox.ucp.g08.bks.cvg/sg91_2_cif.got.tgz:3946.got - 2010.06.11 10:36:11.
