data_PCOD9548102
_publ_section_title
;
Structure prediction by ZEFSAII (Michael W. Deem and Ramdas Pophale) SiO2 
 PCOD9548102
Probable space group: P 41 2 2
;
_chemical_formula_sum "Si O2"
_cell_formula_units_Z 40
_cell_length_a 14.417150
_cell_length_b 14.417150
_cell_length_c 8.711600
_cell_angle_alpha 90.000000
_cell_angle_beta 90.000000
_cell_angle_gamma 90.000000
_cell_volume 1810.742772
_symmetry_space_group_name_H-M "P 41 2 2"
_symmetry_group_IT_number 91
_symmetry_cell_setting 'tetragonal'
loop_
_space_group_symop_operation_xyz
x,y,z
-y,x,1/4+z
-x,-y,1/2+z
y,-x,3/4+z
x,-y,1/2-z
-x,y,-z
y,x,3/4-z
-y,-x,1/4-z
loop_
_atom_site_type_symbol
_atom_site_label
_atom_site_fract_x
_atom_site_fract_y
_atom_site_fract_z
Si Si1 0.581247 0.581247 0.875000
Si Si2 0.853797 0.853797 0.875000
Si Si3 0.092086 0.427981 0.106718
Si Si4 0.900490 0.688432 0.085108
Si Si5 0.987294 0.233112 0.830691
Si Si6 0.523687 0.242710 0.826035
O O1 0.574624 0.500000 0.750000
O O2 0.565682 0.676454 0.780251
O O3 0.769251 0.850549 0.757553
O O4 0.948089 0.842950 0.782925
O O5 0.090017 0.500000 0.250000
O O6 0.082038 0.322027 0.163807
O O7 0.187578 0.442072 0.013367
O O8 0.000000 0.442328 0.000000
O O9 0.839461 0.598224 0.090100
O O10 0.921508 0.724016 0.255433
O O11 0.000000 0.672886 0.000000
O O12 0.000000 0.197809 0.000000
O O13 0.500000 0.274256 0.000000
#
# Coordination Sequence:
#
# PCOD9548102 Si02
#       6
#     4   4   8   8   8   8
#     4  12  29  52  68  88 126 176 229 280 318 380
#     4  10  21  38  58  84 124 168 197 236 310 384
#     4  11  20  35  62  99 134 164 206 271 341 396
#     4  10  21  38  63  96 131 164 206 264 321 382
#     4  10  21  37  60  92 128 161 203 263 317 372
#     4  12  24  41  68  95 124 169 218 268 335 395
#
# _framework density 22.090382000000002
#
# number of rings (size 3 to 8) (size 9 to 14) (size 15 to 20)
#    0.000    1.200    0.000    9.000    0.000    2.400 
#    0.000    2.000    0.000   32.400    0.000    0.000 
#    0.000    0.000    0.000    0.000    0.000    0.000 
#
# Total GULP energy -223707.635836 kJ/mol
# GULP energy per Si atom -5592.690896 kJ/mol
# Density = 2.204010 g / cm^3
# Si number density = 22.090382 Si / 1000 Ang^3
#
#
#
# Elastic Constant Matrix: (Units=GPa)
#
#
# Indices 1 2 3 4 5 6 
#
# 1 73.3070 31.5420 34.1289 0.0000 0.0000 0.0000
# 2 31.5420 73.3070 34.1289 0.0000 0.0000 0.0000
# 3 34.1289 34.1289 147.1125 0.0000 0.0000 0.0000
# 4 0.0000 0.0000 0.0000 10.6609 0.0000 0.0000
# 5 0.0000 0.0000 0.0000 0.0000 10.6609 0.0000
# 6 0.0000 0.0000 0.0000 0.0000 0.0000 32.2772
#
#
#
# Elastic Compliance Matrix: (Units=1/GPa)
#
#
# Indices 1 2 3 4 5 6 
#
# 1 0.017589 -0.006355 -0.002606 0.000000 0.000000 0.000000
# 2 -0.006355 0.017589 -0.002606 0.000000 0.000000 0.000000
# 3 -0.002606 -0.002606 0.008007 0.000000 0.000000 0.000000
# 4 0.000000 0.000000 0.000000 0.093800 0.000000 0.000000
# 5 0.000000 0.000000 0.000000 0.000000 0.093800 0.000000
# 6 0.000000 0.000000 0.000000 0.000000 0.000000 0.030982
#
#
# Mechanical properties :
#
#
# Convention : Reuss Voigt Hill
#
# Bulk Modulus (GPa) = 49.87474 54.81401 52.34438
# Shear Modulus (GPa) = 17.14768 23.64826 20.39797
#
# Velocity S-wave (km/s) = 2.78915 3.27543 3.04202
# Velocity P-wave (km/s) = 5.74448 6.25875 6.00712
#
# Compressibility (1/GPa) = 0.02005023
#
# Stress axis : x y z
#
# Youngs Moduli (GPa) = 56.85413 56.85413 124.89427
#
# Poissons Ratio (x) = 0.36129 0.32551
# Poissons Ratio (y) = 0.36129 0.32551
# Poissons Ratio (z) = 0.14818 0.14818
#
# Static dielectric constant tensor:
#      x y z
#    x 1.815400 0.000000 0.000000 
#    y 0.000000 1.815400 0.000000 
#    z 0.000000 0.000000 1.841610 
# 
# From -- ./inp_files/15066.got.cif
#   From: 2010.05.17/outbox.cif.g08.bks.cpg/sg91_8_cif.got.tgz:15066.got - 2010.06.03 19:20:03.
