data_PCOD9548104
_publ_section_title
;
Structure prediction by ZEFSAII (Michael W. Deem and Ramdas Pophale) SiO2 
 PCOD9548104
Probable space group: P 41 2 2
;
_chemical_formula_sum "Si O2"
_cell_formula_units_Z 48
_cell_length_a 11.342091
_cell_length_b 11.342091
_cell_length_c 18.342754
_cell_angle_alpha 90.000000
_cell_angle_beta 90.000000
_cell_angle_gamma 90.000000
_cell_volume 2359.667421
_symmetry_space_group_name_H-M "P 41 2 2"
_symmetry_group_IT_number 91
_symmetry_cell_setting 'tetragonal'
loop_
_space_group_symop_operation_xyz
x,y,z
-y,x,1/4+z
-x,-y,1/2+z
y,-x,3/4+z
x,-y,1/2-z
-x,y,-z
y,x,3/4-z
-y,-x,1/4-z
loop_
_atom_site_type_symbol
_atom_site_label
_atom_site_fract_x
_atom_site_fract_y
_atom_site_fract_z
Si Si1 0.281717 0.215684 0.167098
Si Si2 0.700655 0.142356 0.069959
Si Si3 0.381358 0.621987 0.039155
Si Si4 0.970332 0.898730 0.691375
Si Si5 0.478297 0.094222 0.814087
Si Si6 0.639468 0.311032 0.272992
O O1 0.316712 0.277898 0.243203
O O2 0.156489 0.152174 0.169382
O O3 0.393847 0.130055 0.155855
O O4 0.279948 0.311883 0.102660
O O5 0.783277 0.216724 0.125000
O O6 0.606739 0.069092 0.117385
O O7 0.790647 0.052969 0.030928
O O8 0.643688 0.244989 0.020399
O O9 0.361259 0.638742 0.125000
O O10 0.384951 0.479420 0.031162
O O11 0.500000 0.666875 0.000000
O O12 0.954064 0.000000 0.750000
O O13 0.039291 0.960710 0.625000
O O14 0.411302 0.201642 0.773427
O O15 0.490199 0.000000 0.750000
#
# Coordination Sequence:
#
# PCOD9548104 Si02
#       6
#     8   8   8   8   8   8
#     4  11  23  38  63  93 129 174 218 268 334 409
#     4   9  20  37  63  94 120 160 218 283 335 385
#     4  11  23  40  65  94 134 177 214 268 337 419
#     4  11  23  41  65  90 124 170 223 274 330 395
#     4  10  21  38  59  88 127 166 208 273 342 394
#     4  10  21  37  62  92 123 159 219 268 324 395
#
# _framework density 20.341849
#
# number of rings (size 3 to 8) (size 9 to 14) (size 15 to 20)
#    0.000    1.667    1.667    2.500    2.333    6.000 
#    0.000    3.333    0.000    0.000    0.000    0.000 
#    0.000    0.000    0.000    0.000    0.000    0.000 
#
# Total GULP energy -267593.488343 kJ/mol
# GULP energy per Si atom -5574.864340 kJ/mol
# Density = 2.029555 g / cm^3
# Si number density = 20.341849 Si / 1000 Ang^3
#
#
#
# Elastic Constant Matrix: (Units=GPa)
#
#
# Indices 1 2 3 4 5 6 
#
# 1 47.0259 63.4712 17.1593 0.0000 0.0000 0.0000
# 2 63.4712 47.0275 17.1597 0.0000 0.0000 0.0000
# 3 17.1593 17.1597 79.8138 0.0000 0.0000 0.0000
# 4 0.0000 0.0000 0.0000 -4.4153 0.0000 0.0000
# 5 0.0000 0.0000 0.0000 0.0000 -4.4259 0.0000
# 6 0.0000 0.0000 0.0000 0.0000 0.0000 14.7669
#
#
#
# Elastic Compliance Matrix: (Units=1/GPa)
#
#
# Indices 1 2 3 4 5 6 
#
# 1 -0.025557 0.035254 -0.002085 0.000000 0.000000 0.000000
# 2 0.035254 -0.025556 -0.002085 0.000000 0.000000 0.000000
# 3 -0.002085 -0.002085 0.013426 0.000000 0.000000 0.000000
# 4 0.000000 0.000000 0.000000 -0.226485 0.000000 0.000000
# 5 0.000000 0.000000 0.000000 0.000000 -0.225941 0.000000
# 6 0.000000 0.000000 0.000000 0.000000 0.000000 0.067719
#
#
# Mechanical properties :
#
#
# Convention : Reuss Voigt Hill
#
# Bulk Modulus (GPa) = 40.84800 41.04974 40.94887
# Shear Modulus (GPa) = -10.49534 6.25692 -2.11921
#
# Velocity S-wave (km/s) = -2.27391 1.75572 -1.02179
# Velocity P-wave (km/s) = 3.63732 4.93293 4.33382
#
# Compressibility (1/GPa) = 0.02448100
#
# Stress axis : x y z
#
# Youngs Moduli (GPa) = -39.12815 -39.12939 74.48434
#
# Poissons Ratio (x) = 1.37947 0.15530
# Poissons Ratio (y) = 1.37943 0.15529
# Poissons Ratio (z) = -0.08158 -0.08158
#
# Static dielectric constant tensor:
#      x y z
#    x 1.871940 0.000000 0.000000 
#    y 0.000000 1.872000 0.000000 
#    z 0.000000 0.000000 1.748190 
# 
# From -- ./inp_files/11937.got.cif
#   From: 2010.05.17/outbox.cif.g08.bks.cpg/sg91_6_cif.got.tgz:11937.got - 2010.06.03 19:20:03.
