data_PCOD9548238
_publ_section_title
;
Structure prediction by ZEFSAII (Michael W. Deem and Ramdas Pophale) SiO2 
 PCOD9548238
Probable space group: P 41 2 2
;
_chemical_formula_sum "Si O2"
_cell_formula_units_Z 28
_cell_length_a 18.591667
_cell_length_b 18.591667
_cell_length_c 5.020556
_cell_angle_alpha 90.000000
_cell_angle_beta 90.000000
_cell_angle_gamma 90.000000
_cell_volume 1735.355592
_symmetry_space_group_name_H-M "P 41 2 2"
_symmetry_group_IT_number 91
_symmetry_cell_setting 'tetragonal'
loop_
_space_group_symop_operation_xyz
x,y,z
-y,x,1/4+z
-x,-y,1/2+z
y,-x,3/4+z
x,-y,1/2-z
-x,y,-z
y,x,3/4-z
-y,-x,1/4-z
loop_
_atom_site_type_symbol
_atom_site_label
_atom_site_fract_x
_atom_site_fract_y
_atom_site_fract_z
Si Si1 0.000000 0.220211 0.500000
Si Si2 0.329818 0.893999 0.571179
Si Si3 0.578937 0.923270 0.903670
Si Si4 0.863165 0.136836 0.625000
Si Si5 0.790419 0.790419 0.375000
O O1 0.952925 0.272762 0.304735
O O2 0.944820 0.165306 0.643522
O O3 0.384404 0.878090 0.330302
O O4 0.289955 0.819676 0.642062
O O5 0.369963 0.922258 0.835943
O O6 0.571716 0.000000 0.750000
O O7 0.500000 0.901847 0.000000
O O8 0.830306 0.176312 0.375003
#
# Coordination Sequence:
#
# PCOD9548238 Si02
#       5
#     4   8   8   4   4
#     4  10  22  38  52  70  92 132 162 226 270 308
#     4  11  22  36  55  69 104 129 169 210 260 297
#     4  12  24  34  52  78 101 130 165 208 257 309
#     4  10  22  34  53  66  96 112 180 208 281 322
#     4  10  22  36  51  78  88 134 168 208 245 328
#
# _framework density 16.135020999999998
#
# number of rings (size 3 to 8) (size 9 to 14) (size 15 to 20)
#    0.000    1.143    1.429    6.857    4.000    3.429 
#    0.000    5.714    0.000    0.000    0.000    0.000 
#    0.000    0.000    0.000    0.000    0.000   40.000 
#
# Total GULP energy -155989.519133 kJ/mol
# GULP energy per Si atom -5571.054255 kJ/mol
# Density = 1.609830 g / cm^3
# Si number density = 16.135021 Si / 1000 Ang^3
#
#
#
# Elastic Constant Matrix: (Units=GPa)
#
#
# Indices 1 2 3 4 5 6 
#
# 1 77.0213 43.7318 29.2504 0.0000 0.0000 0.0000
# 2 43.7318 77.0202 29.2505 0.0000 0.0000 0.0000
# 3 29.2504 29.2505 117.5177 0.0000 0.0000 0.0000
# 4 0.0000 0.0000 0.0000 27.0810 0.0000 0.0000
# 5 0.0000 0.0000 0.0000 0.0000 27.0814 0.0000
# 6 0.0000 0.0000 0.0000 0.0000 0.0000 8.4995
#
#
#
# Elastic Compliance Matrix: (Units=1/GPa)
#
#
# Indices 1 2 3 4 5 6 
#
# 1 0.019728 -0.010312 -0.002344 0.000000 0.000000 0.000000
# 2 -0.010312 0.019729 -0.002344 0.000000 0.000000 0.000000
# 3 -0.002344 -0.002344 0.009676 0.000000 0.000000 0.000000
# 4 0.000000 0.000000 0.000000 0.036926 0.000000 0.000000
# 5 0.000000 0.000000 0.000000 0.000000 0.036926 0.000000
# 6 0.000000 0.000000 0.000000 0.000000 0.000000 0.117655
#
#
# Mechanical properties :
#
#
# Convention : Reuss Voigt Hill
#
# Bulk Modulus (GPa) = 52.26176 52.89162 52.57669
# Shear Modulus (GPa) = 18.04947 23.82081 20.93514
#
# Velocity S-wave (km/s) = 3.34825 3.84649 3.60599
# Velocity P-wave (km/s) = 6.88537 7.25114 7.07062
#
# Compressibility (1/GPa) = 0.01913445
#
# Stress axis : x y z
#
# Youngs Moduli (GPa) = 50.68861 50.68773 103.34676
#
# Poissons Ratio (x) = 0.52267 0.24223
# Poissons Ratio (y) = 0.52268 0.24224
# Poissons Ratio (z) = 0.11881 0.11881
#
# Static dielectric constant tensor:
#      x y z
#    x 1.596030 0.000000 0.000000 
#    y 0.000000 1.596030 0.000000 
#    z 0.000000 0.000000 1.564540 
# 
# From -- ./inp_files/13946.got.cif
#   From: 2010.05.17/outbox.cif.g08.bks.cpg/sg91_7_cif.got.tgz:13946.got - 2010.06.03 19:20:03.
