data_PCOD9548848
_publ_section_title
;
Structure prediction by ZEFSAII (Michael W. Deem and Ramdas Pophale) SiO2 
 PCOD9548848
Probable space group: P 41 21 2
;
_chemical_formula_sum "Si O2"
_cell_formula_units_Z 56
_cell_length_a 11.944797
_cell_length_b 11.944797
_cell_length_c 13.790026
_cell_angle_alpha 90.000000
_cell_angle_beta 90.000000
_cell_angle_gamma 90.000000
_cell_volume 1967.535748
_symmetry_space_group_name_H-M "P 41 21 2"
_symmetry_group_IT_number 92
_symmetry_cell_setting 'tetragonal'
loop_
_space_group_symop_operation_xyz
x,y,z
1/2-y,1/2+x,1/4+z
-x,-y,1/2+z
1/2+y,1/2-x,3/4+z
1/2+x,1/2-y,3/4-z
1/2-x,1/2+y,1/4-z
y,x,-z
-y,-x,1/2-z
loop_
_atom_site_type_symbol
_atom_site_label
_atom_site_fract_x
_atom_site_fract_y
_atom_site_fract_z
Si Si1 0.364823 0.919419 0.357033
Si Si2 0.534871 0.228086 0.568075
Si Si3 0.557200 0.438659 0.429197
Si Si4 0.142376 0.899623 0.965591
Si Si5 0.527283 0.121875 0.297765
Si Si6 0.767605 0.577940 0.603121
Si Si7 0.273688 0.708489 0.636678
O O1 0.290248 0.897557 0.261391
O O2 0.451963 0.817439 0.379393
O O3 0.444366 0.025753 0.333205
O O4 0.317771 0.962021 0.460555
O O5 0.527358 0.342800 0.509363
O O6 0.488103 0.266588 0.672962
O O7 0.452318 0.136766 0.522222
O O8 0.651621 0.167310 0.590096
O O9 0.543956 0.543956 0.500000
O O10 0.474549 0.426837 0.337332
O O11 0.679717 0.397260 0.398917
O O12 0.193203 0.786288 0.919316
O O13 0.155142 0.908724 0.081335
O O14 0.589950 0.207028 0.369759
O O15 0.270404 0.729597 0.750000
#
# Coordination Sequence:
#
# PCOD9548848 Si02
#       7
#     8   8   8   8   8   8   8
#     4   9  17  25  43  73 105 147 164 197 278 338
#     4   9  15  27  44  70 103 130 158 213 263 318
#     4  10  20  33  52  76 102 135 173 225 278 321
#     4  10  18  29  49  79 103 132 173 221 279 324
#     4   9  17  27  45  72 108 137 166 209 264 332
#     4  10  15  25  43  69 106 134 168 205 263 332
#     4  11  21  34  54  79 106 139 182 231 278 327
#
# _framework density 28.462
#
# number of rings (size 3 to 8) (size 9 to 14) (size 15 to 20)
#    0.000    2.286    2.857    3.000    4.000    0.000 
#    0.000    0.000    3.143    0.000    0.000    0.000 
#    0.000    0.000    0.000    0.000    0.000    0.000 
#
# Total GULP energy -313260.030587 kJ/mol
# GULP energy per Si atom -5593.929118 kJ/mol
# Density = 2.839722 g / cm^3
# Si number density = 28.462000 Si / 1000 Ang^3
#
#
#
# Elastic Constant Matrix: (Units=GPa)
#
#
# Indices 1 2 3 4 5 6 
#
# 1 41.9509 54.5638 25.5479 0.0000 0.0000 0.0000
# 2 54.5638 41.9510 25.5481 0.0000 0.0000 0.0000
# 3 25.5479 25.5481 160.1467 0.0000 0.0000 0.0000
# 4 0.0000 0.0000 0.0000 52.3563 0.0000 0.0000
# 5 0.0000 0.0000 0.0000 0.0000 52.3563 0.0000
# 6 0.0000 0.0000 0.0000 0.0000 0.0000 43.3950
#
#
#
# Elastic Compliance Matrix: (Units=1/GPa)
#
#
# Indices 1 2 3 4 5 6 
#
# 1 -0.033984 0.045301 -0.001805 0.000000 0.000000 0.000000
# 2 0.045301 -0.033984 -0.001805 0.000000 0.000000 0.000000
# 3 -0.001805 -0.001805 0.006820 0.000000 0.000000 0.000000
# 4 0.000000 0.000000 0.000000 0.019100 0.000000 0.000000
# 5 0.000000 0.000000 0.000000 0.000000 0.019100 0.000000
# 6 0.000000 0.000000 0.000000 0.000000 0.000000 0.023044
#
#
# Mechanical properties :
#
#
# Convention : Reuss Voigt Hill
#
# Bulk Modulus (GPa) = 44.97899 50.59646 47.78773
# Shear Modulus (GPa) = -65.90072 38.84744 -13.52664
#
# Velocity S-wave (km/s) = -4.81707 3.69845 -2.18239
# Velocity P-wave (km/s) = 3.88606 6.00445 3.23667
#
# Compressibility (1/GPa) = 0.02223260
#
# Stress axis : x y z
#
# Youngs Moduli (GPa) = -29.42593 -29.42596 146.62130
#
# Poissons Ratio (x) = 1.33301 0.26471
# Poissons Ratio (y) = 1.33301 0.26470
# Poissons Ratio (z) = -0.05313 -0.05312
#
# Static dielectric constant tensor:
#      x y z
#    x 2.304840 0.000000 0.000000 
#    y 0.000000 2.304840 0.000000 
#    z 0.000000 0.000000 2.304100 
# 
# From -- ./inp_files/2765.got.cif
#   From: 2010.05.17/outbox.cif.g08.bks.cpg/sg92_2_cif.got.tgz:2765.got - 2010.06.03 19:35:17.
