data_PCOD9548953
_publ_section_title
;
Structure prediction by ZEFSAII (Michael W. Deem and Ramdas Pophale) SiO2 
 PCOD9548953
Probable space group: P 41 21 2
;
_chemical_formula_sum "Si O2"
_cell_formula_units_Z 44
_cell_length_a 18.351540
_cell_length_b 18.351540
_cell_length_c 5.425012
_cell_angle_alpha 90.000000
_cell_angle_beta 90.000000
_cell_angle_gamma 90.000000
_cell_volume 1827.030227
_symmetry_space_group_name_H-M "P 41 21 2"
_symmetry_group_IT_number 92
_symmetry_cell_setting 'tetragonal'
loop_
_space_group_symop_operation_xyz
x,y,z
1/2-y,1/2+x,1/4+z
-x,-y,1/2+z
1/2+y,1/2-x,3/4+z
1/2+x,1/2-y,3/4-z
1/2-x,1/2+y,1/4-z
y,x,-z
-y,-x,1/2-z
loop_
_atom_site_type_symbol
_atom_site_label
_atom_site_fract_x
_atom_site_fract_y
_atom_site_fract_z
Si Si1 0.084219 0.635273 0.461716
Si Si2 0.148417 0.536780 0.829056
Si Si3 0.551841 0.735119 0.914683
Si Si4 0.319261 0.680740 0.750000
Si Si5 0.548633 0.391462 0.491634
Si Si6 0.309926 0.821055 0.428315
O O1 0.103973 0.558875 0.587679
O O2 0.054032 0.703076 0.622865
O O3 0.158769 0.671795 0.352287
O O4 0.024594 0.618216 0.255515
O O5 0.229170 0.506882 0.772425
O O6 0.150263 0.615383 0.950622
O O7 0.525368 0.655912 0.997529
O O8 0.629085 0.743295 0.774364
O O9 0.330499 0.609584 0.577229
O O10 0.306969 0.742499 0.545720
O O11 0.570596 0.429405 0.750000
O O12 0.555480 0.444520 0.250000
#
# Coordination Sequence:
#
# PCOD9548953 Si02
#       6
#     8   8   8   4   8   8
#     4  10  22  33  63  74 119 160 211 249 311 364
#     4  10  19  37  54  78 109 162 199 255 299 361
#     4  10  21  37  58  83 122 157 199 255 314 368
#     4  10  22  38  62  94 118 160 208 260 312 372
#     4  10  23  36  64  91 120 153 209 258 311 363
#     4  10  21  37  60  83 119 158 199 250 316 367
#
# _framework density 24.082796999999999
#
# number of rings (size 3 to 8) (size 9 to 14) (size 15 to 20)
#    0.545    1.455    1.818    1.091   10.182    0.000 
#    0.000    0.000  144.000    0.000    0.000    1.273 
#    0.000    0.000    0.000    0.000    0.000    0.000 
#
# Total GULP energy -245215.495629 kJ/mol
# GULP energy per Si atom -5573.079446 kJ/mol
# Density = 2.402798 g / cm^3
# Si number density = 24.082797 Si / 1000 Ang^3
#
#
#
# Elastic Constant Matrix: (Units=GPa)
#
#
# Indices 1 2 3 4 5 6 
#
# 1 49.7916 42.7629 13.9268 0.0000 0.0000 0.0000
# 2 42.7629 49.7901 13.9290 0.0000 0.0000 0.0000
# 3 13.9268 13.9290 75.1757 0.0000 0.0000 0.0000
# 4 0.0000 0.0000 0.0000 17.0016 0.0000 0.0000
# 5 0.0000 0.0000 0.0000 0.0000 17.0018 0.0000
# 6 0.0000 0.0000 0.0000 0.0000 0.0000 29.3310
#
#
#
# Elastic Compliance Matrix: (Units=1/GPa)
#
#
# Indices 1 2 3 4 5 6 
#
# 1 0.076864 -0.065423 -0.002118 0.000000 0.000000 0.000000
# 2 -0.065423 0.076867 -0.002122 0.000000 0.000000 0.000000
# 3 -0.002118 -0.002122 0.014088 0.000000 0.000000 0.000000
# 4 0.000000 0.000000 0.000000 0.058818 0.000000 0.000000
# 5 0.000000 0.000000 0.000000 0.000000 0.058817 0.000000
# 6 0.000000 0.000000 0.000000 0.000000 0.000000 0.034094
#
#
# Mechanical properties :
#
#
# Convention : Reuss Voigt Hill
#
# Bulk Modulus (GPa) = 35.09638 35.11051 35.10345
# Shear Modulus (GPa) = 10.67530 19.60948 15.14239
#
# Velocity S-wave (km/s) = 2.10769 2.85661 2.51024
# Velocity P-wave (km/s) = 4.53079 5.04886 4.79682
#
# Compressibility (1/GPa) = 0.02849296
#
# Stress axis : x y z
#
# Youngs Moduli (GPa) = 13.01007 13.00942 70.98388
#
# Poissons Ratio (x) = 0.85111 0.15031
# Poissons Ratio (y) = 0.85116 0.15066
# Poissons Ratio (z) = 0.02755 0.02761
#
# Static dielectric constant tensor:
#      x y z
#    x 1.962820 0.000000 0.000000 
#    y 0.000000 1.962820 0.000000 
#    z 0.000000 0.000000 2.355850 
# 
# From -- ./inp_files/588.got.cif
#   From: 2010.05.17/outbox.cif.g08.bks.cpg/sg92_1_cif.got.tgz:588.got - 2010.06.03 19:35:17.
