data_PCOD9548865
_publ_section_title
;
Structure prediction by ZEFSAII (Michael W. Deem and Ramdas Pophale) SiO2 
 PCOD9548865
Probable space group: P 41 21 2
;
_chemical_formula_sum "Si O2"
_cell_formula_units_Z 56
_cell_length_a 13.619394
_cell_length_b 13.619394
_cell_length_c 16.360560
_cell_angle_alpha 90.000000
_cell_angle_beta 90.000000
_cell_angle_gamma 90.000000
_cell_volume 3034.685802
_symmetry_space_group_name_H-M "P 41 21 2"
_symmetry_group_IT_number 92
_symmetry_cell_setting 'tetragonal'
loop_
_space_group_symop_operation_xyz
x,y,z
1/2-y,1/2+x,1/4+z
-x,-y,1/2+z
1/2+y,1/2-x,3/4+z
1/2+x,1/2-y,3/4-z
1/2-x,1/2+y,1/4-z
y,x,-z
-y,-x,1/2-z
loop_
_atom_site_type_symbol
_atom_site_label
_atom_site_fract_x
_atom_site_fract_y
_atom_site_fract_z
Si Si1 0.393117 0.992999 0.273476
Si Si2 0.686180 0.446441 0.698805
Si Si3 0.598088 0.951170 0.356298
Si Si4 0.351330 0.155693 0.148992
Si Si5 0.239719 0.690123 0.488680
Si Si6 0.728393 0.590009 0.844814
Si Si7 0.912883 0.957912 0.304521
O O1 0.498518 0.991434 0.317437
O O2 0.399660 0.924692 0.192923
O O3 0.322751 0.946041 0.342925
O O4 0.372512 0.098858 0.233917
O O5 0.647642 0.352359 0.750000
O O6 0.788104 0.420060 0.656253
O O7 0.696481 0.535923 0.760609
O O8 0.605063 0.457879 0.628824
O O9 0.652352 0.877809 0.294983
O O10 0.672584 0.038641 0.374582
O O11 0.275649 0.240072 0.172583
O O12 0.201125 0.743837 0.570580
O O13 0.335272 0.618121 0.488306
O O14 0.646884 0.551804 0.908808
O O15 0.998496 0.001505 0.250000
#
# Coordination Sequence:
#
# PCOD9548865 Si02
#       7
#     8   8   8   8   8   8   8
#     4  10  19  32  52  80 115 140 169 223 286 326
#     4   9  17  34  59  79 108 139 182 225 273 327
#     4  10  17  32  57  78 107 138 183 218 274 326
#     4  10  20  33  50  81 115 139 173 228 278 324
#     4  10  20  34  55  80 106 141 190 225 263 334
#     4  10  17  34  56  81 100 144 190 226 261 327
#     4   9  20  36  56  79 112 148 179 227 281 330
#
# _framework density 18.453309999999998
#
# number of rings (size 3 to 8) (size 9 to 14) (size 15 to 20)
#    0.000    2.286    2.857    1.714    0.000    0.000 
#    7.714    0.000    0.000    2.571    0.000    0.000 
#    0.000    0.000    0.000    0.000    0.000    0.000 
#
# Total GULP energy -311824.539894 kJ/mol
# GULP energy per Si atom -5568.295355 kJ/mol
# Density = 1.841131 g / cm^3
# Si number density = 18.453310 Si / 1000 Ang^3
#
#
#
# Elastic Constant Matrix: (Units=GPa)
#
#
# Indices 1 2 3 4 5 6 
#
# 1 34.4727 17.6358 25.8174 0.0000 0.0000 0.0000
# 2 17.6358 34.4742 25.8179 0.0000 0.0000 0.0000
# 3 25.8174 25.8179 61.1129 0.0000 0.0000 0.0000
# 4 0.0000 0.0000 0.0000 24.6309 0.0000 0.0000
# 5 0.0000 0.0000 0.0000 0.0000 24.6299 0.0000
# 6 0.0000 0.0000 0.0000 0.0000 0.0000 17.2846
#
#
#
# Elastic Compliance Matrix: (Units=1/GPa)
#
#
# Indices 1 2 3 4 5 6 
#
# 1 0.046201 -0.013191 -0.013945 0.000000 0.000000 0.000000
# 2 -0.013191 0.046199 -0.013944 0.000000 0.000000 0.000000
# 3 -0.013945 -0.013944 0.028145 0.000000 0.000000 0.000000
# 4 0.000000 0.000000 0.000000 0.040599 0.000000 0.000000
# 5 0.000000 0.000000 0.000000 0.000000 0.040601 0.000000
# 6 0.000000 0.000000 0.000000 0.000000 0.000000 0.057855
#
#
# Mechanical properties :
#
#
# Convention : Reuss Voigt Hill
#
# Bulk Modulus (GPa) = 26.05305 29.84466 27.94885
# Shear Modulus (GPa) = 14.10217 17.36164 15.73191
#
# Velocity S-wave (km/s) = 2.76743 3.07064 2.92297
# Velocity P-wave (km/s) = 4.93564 5.36470 5.15464
#
# Compressibility (1/GPa) = 0.03838323
#
# Stress axis : x y z
#
# Youngs Moduli (GPa) = 21.64476 21.64572 35.53004
#
# Poissons Ratio (x) = 0.28554 0.49546
# Poissons Ratio (y) = 0.28552 0.49545
# Poissons Ratio (z) = 0.30183 0.30184
#
# Static dielectric constant tensor:
#      x y z
#    x 1.666890 0.000000 0.000000 
#    y 0.000000 1.666890 0.000000 
#    z 0.000000 0.000000 1.665930 
# 
# From -- ./inp_files/2769.got.cif
#   From: 2010.05.17/outbox.cif.g08.bks.cpg/sg92_2_cif.got.tgz:2769.got - 2010.06.03 19:35:17.
