data_PCOD9548259
_publ_section_title
;
Structure prediction by ZEFSAII (Michael W. Deem and Ramdas Pophale) SiO2 
 PCOD9548259
Probable space group: P 41 2 2
;
_chemical_formula_sum "Si O2"
_cell_formula_units_Z 40
_cell_length_a 9.389681
_cell_length_b 9.389681
_cell_length_c 19.898061
_cell_angle_alpha 90.000000
_cell_angle_beta 90.000000
_cell_angle_gamma 90.000000
_cell_volume 1754.334621
_symmetry_space_group_name_H-M "P 41 2 2"
_symmetry_group_IT_number 91
_symmetry_cell_setting 'tetragonal'
loop_
_space_group_symop_operation_xyz
x,y,z
-y,x,1/4+z
-x,-y,1/2+z
y,-x,3/4+z
x,-y,1/2-z
-x,y,-z
y,x,3/4-z
-y,-x,1/4-z
loop_
_atom_site_type_symbol
_atom_site_label
_atom_site_fract_x
_atom_site_fract_y
_atom_site_fract_z
Si Si1 0.914797 0.220165 0.564006
Si Si2 0.392498 0.665979 0.250910
Si Si3 0.859079 0.571270 0.129507
Si Si4 0.229752 0.696295 0.461579
Si Si5 0.060783 0.730164 0.601055
O O1 0.885163 0.114838 0.625000
O O2 0.764237 0.277459 0.536477
O O3 0.000000 0.159354 0.500000
O O4 0.007521 0.354246 0.591654
O O5 0.358113 0.500000 0.250000
O O6 0.411423 0.729031 0.326182
O O7 0.543474 0.694809 0.214121
O O8 0.816771 0.656403 0.195559
O O9 0.886291 0.406128 0.142590
O O10 0.141027 0.708907 0.529959
O O11 0.107447 0.715901 0.405637
O O12 0.120013 0.879988 0.625000
#
# Coordination Sequence:
#
# PCOD9548259 Si02
#       5
#     8   8   8   8   8
#     4  10  22  45  69  98 143 186 234 303 365 434
#     4  10  22  37  66 102 131 175 225 285 357 417
#     4  10  22  40  64  96 132 175 223 281 349 409
#     4  10  22  41  64  96 138 172 223 289 341 415
#     4  10  22  42  66  94 134 179 222 278 346 413
#
# _framework density 22.800668000000002
#
# number of rings (size 3 to 8) (size 9 to 14) (size 15 to 20)
#    0.000    2.000    2.000    0.000    8.400    0.800 
#   10.800    0.000    0.000    0.000    0.000    0.000 
#    0.000    0.000    0.000    0.000    0.000    0.000 
#
# Total GULP energy -223683.844600 kJ/mol
# GULP energy per Si atom -5592.096115 kJ/mol
# Density = 2.274877 g / cm^3
# Si number density = 22.800668 Si / 1000 Ang^3
#
#
#
# Elastic Constant Matrix: (Units=GPa)
#
#
# Indices 1 2 3 4 5 6 
#
# 1 122.2166 40.2491 35.3250 0.0000 0.0000 0.0000
# 2 40.2491 122.2149 35.3251 0.0000 0.0000 0.0000
# 3 35.3250 35.3251 65.7149 0.0000 0.0000 0.0000
# 4 0.0000 0.0000 0.0000 28.7177 0.0000 0.0000
# 5 0.0000 0.0000 0.0000 0.0000 28.7178 0.0000
# 6 0.0000 0.0000 0.0000 0.0000 0.0000 21.4934
#
#
#
# Elastic Compliance Matrix: (Units=1/GPa)
#
#
# Indices 1 2 3 4 5 6 
#
# 1 0.010116 -0.002084 -0.004318 0.000000 0.000000 0.000000
# 2 -0.002084 0.010117 -0.004318 0.000000 0.000000 0.000000
# 3 -0.004318 -0.004318 0.019860 0.000000 0.000000 0.000000
# 4 0.000000 0.000000 0.000000 0.034822 0.000000 0.000000
# 5 0.000000 0.000000 0.000000 0.000000 0.034822 0.000000
# 6 0.000000 0.000000 0.000000 0.000000 0.000000 0.046526
#
#
# Mechanical properties :
#
#
# Convention : Reuss Voigt Hill
#
# Bulk Modulus (GPa) = 53.61038 59.10499 56.35769
# Shear Modulus (GPa) = 27.18583 29.06893 28.12738
#
# Velocity S-wave (km/s) = 3.45675 3.57447 3.51610
# Velocity P-wave (km/s) = 6.28457 6.55855 6.42302
#
# Compressibility (1/GPa) = 0.01865310
#
# Stress axis : x y z
#
# Youngs Moduli (GPa) = 98.84897 98.84729 50.35331
#
# Poissons Ratio (x) = 0.20595 0.21743
# Poissons Ratio (y) = 0.20596 0.21743
# Poissons Ratio (z) = 0.42684 0.42684
#
# Static dielectric constant tensor:
#      x y z
#    x 1.833370 0.000000 0.000000 
#    y 0.000000 1.833370 0.000000 
#    z 0.000000 0.000000 1.733710 
# 
# From -- ./inp_files/6802.got.cif
#   From: 2010.05.17/outbox.cif.g08.bks.cpg/sg91_4_cif.got.tgz:6802.got - 2010.06.03 19:20:03.
