data_PCOD9548435
_publ_section_title
;
Structure prediction by ZEFSAII (Michael W. Deem and Ramdas Pophale) SiO2 
 PCOD9548435
Probable space group: P 41 2 2
;
_chemical_formula_sum "Si O2"
_cell_formula_units_Z 40
_cell_length_a 16.213944
_cell_length_b 16.213944
_cell_length_c 8.030277
_cell_angle_alpha 90.000000
_cell_angle_beta 90.000000
_cell_angle_gamma 90.000000
_cell_volume 2111.095421
_symmetry_space_group_name_H-M "P 41 2 2"
_symmetry_group_IT_number 91
_symmetry_cell_setting 'tetragonal'
loop_
_space_group_symop_operation_xyz
x,y,z
-y,x,1/4+z
-x,-y,1/2+z
y,-x,3/4+z
x,-y,1/2-z
-x,y,-z
y,x,3/4-z
-y,-x,1/4-z
loop_
_atom_site_type_symbol
_atom_site_label
_atom_site_fract_x
_atom_site_fract_y
_atom_site_fract_z
Si Si1 0.168627 0.831374 0.125000
Si Si2 0.169762 0.742994 0.772196
Si Si3 0.275465 0.019207 0.435249
Si Si4 0.422606 0.577395 0.625000
Si Si5 0.572316 0.080742 0.365361
Si Si6 0.423236 0.235663 0.877243
O O1 0.221959 0.813643 0.292209
O O2 0.074253 0.806913 0.167049
O O3 0.198438 0.801563 0.625000
O O4 0.217325 0.657919 0.737503
O O5 0.071955 0.734129 0.744595
O O6 0.341072 0.070053 0.540185
O O7 0.308675 0.000000 0.250000
O O8 0.428788 0.500000 0.750000
O O9 0.328626 0.574534 0.554556
O O10 0.500000 0.082666 0.500000
O O11 0.573128 0.164131 0.259317
O O12 0.561119 0.000000 0.250000
O O13 0.500000 0.227243 0.000000
#
# Coordination Sequence:
#
# PCOD9548435 Si02
#       6
#     4   8   8   4   8   8
#     4  10  24  38  67  92 127 176 228 258 326 406
#     4  11  22  42  67  93 132 174 222 280 337 397
#     4  10  23  41  62  92 129 174 215 274 332 404
#     4  10  24  48  71  90 129 176 230 290 344 402
#     4  12  24  37  61  96 134 176 218 272 355 426
#     4  11  24  41  62  98 133 168 222 282 338 416
#
# _framework density 18.947510000000001
#
# number of rings (size 3 to 8) (size 9 to 14) (size 15 to 20)
#    0.000    1.200    3.000    2.400    5.600    0.800 
#    0.000    4.000   19.800    0.000    0.000    0.000 
#    0.000    0.000    0.000    0.000    0.000    0.000 
#
# Total GULP energy -223219.992545 kJ/mol
# GULP energy per Si atom -5580.499814 kJ/mol
# Density = 1.890438 g / cm^3
# Si number density = 18.947510 Si / 1000 Ang^3
#
#
#
# Elastic Constant Matrix: (Units=GPa)
#
#
# Indices 1 2 3 4 5 6 
#
# 1 187.0673 7.9847 50.3970 0.0000 0.0000 0.0000
# 2 7.9847 187.0705 50.3758 0.0000 0.0000 0.0000
# 3 50.3970 50.3758 71.6573 0.0000 0.0000 0.0000
# 4 0.0000 0.0000 0.0000 30.9199 0.0000 0.0000
# 5 0.0000 0.0000 0.0000 0.0000 30.9187 0.0000
# 6 0.0000 0.0000 0.0000 0.0000 0.0000 29.1409
#
#
#
# Elastic Compliance Matrix: (Units=1/GPa)
#
#
# Indices 1 2 3 4 5 6 
#
# 1 0.006819 0.001234 -0.005663 0.000000 0.000000 0.000000
# 2 0.001234 0.006817 -0.005660 0.000000 0.000000 0.000000
# 3 -0.005663 -0.005660 0.021918 0.000000 0.000000 0.000000
# 4 0.000000 0.000000 0.000000 0.032342 0.000000 0.000000
# 5 0.000000 0.000000 0.000000 0.000000 0.032343 0.000000
# 6 0.000000 0.000000 0.000000 0.000000 0.000000 0.034316
#
#
# Mechanical properties :
#
#
# Convention : Reuss Voigt Hill
#
# Bulk Modulus (GPa) = 65.04360 73.70113 69.37237
# Shear Modulus (GPa) = 31.27781 40.66508 35.97144
#
# Velocity S-wave (km/s) = 4.06736 4.63773 4.36188
# Velocity P-wave (km/s) = 7.51404 8.22557 7.87784
#
# Compressibility (1/GPa) = 0.01537430
#
# Stress axis : x y z
#
# Youngs Moduli (GPa) = 146.65623 146.68800 45.62558
#
# Poissons Ratio (x) = -0.18101 0.25838
# Poissons Ratio (y) = -0.18097 0.25826
# Poissons Ratio (z) = 0.83053 0.83031
#
# Static dielectric constant tensor:
#      x y z
#    x 1.696150 0.000000 0.000000 
#    y 0.000000 1.696160 0.000000 
#    z 0.000000 0.000000 1.659950 
# 
# From -- ./inp_files/15050.got.cif
#   From: 2010.05.17/outbox.cif.g08.bks.cpg/sg91_8_cif.got.tgz:15050.got - 2010.06.03 19:20:03.
