data_PCOD9548080
_publ_section_title
;
Structure prediction by ZEFSAII (Michael W. Deem and Ramdas Pophale) SiO2 
 PCOD9548080
Probable space group: P 41 2 2
;
_chemical_formula_sum "Si O2"
_cell_formula_units_Z 48
_cell_length_a 8.326119
_cell_length_b 8.326119
_cell_length_c 34.311508
_cell_angle_alpha 90.000000
_cell_angle_beta 90.000000
_cell_angle_gamma 90.000000
_cell_volume 2378.619819
_symmetry_space_group_name_H-M "P 41 2 2"
_symmetry_group_IT_number 91
_symmetry_cell_setting 'tetragonal'
loop_
_space_group_symop_operation_xyz
x,y,z
-y,x,1/4+z
-x,-y,1/2+z
y,-x,3/4+z
x,-y,1/2-z
-x,y,-z
y,x,3/4-z
-y,-x,1/4-z
loop_
_atom_site_type_symbol
_atom_site_label
_atom_site_fract_x
_atom_site_fract_y
_atom_site_fract_z
Si Si1 0.326932 0.201051 0.172880
Si Si2 0.156680 0.693704 0.475864
Si Si3 0.371714 0.158156 0.323018
Si Si4 0.156595 0.530689 0.164240
Si Si5 0.580816 0.607711 0.282188
Si Si6 0.383053 0.800905 0.418214
O O1 0.211991 0.354562 0.177473
O O2 0.477976 0.251058 0.199190
O O3 0.376929 0.211531 0.127861
O O4 0.280837 0.014792 0.179939
O O5 0.153014 0.510743 0.459567
O O6 0.304753 0.713150 0.505699
O O7 0.206658 0.790266 0.437465
O O8 0.000000 0.734514 0.500000
O O9 0.450743 0.162542 0.366669
O O10 0.264456 0.319106 0.320703
O O11 0.974999 0.550366 0.177725
O O12 0.488734 0.500000 0.250000
O O13 0.658757 0.493191 0.314448
#
# Coordination Sequence:
#
# PCOD9548080 Si02
#       6
#     8   8   8   8   8   8
#     4  11  20  38  65  91 120 163 215 263 318 381
#     4  11  20  40  60  85 125 161 209 258 322 377
#     4  10  21  38  64  95 119 166 209 264 320 380
#     4  10  21  39  63  90 130 157 209 269 315 373
#     4  10  21  35  60  87 115 159 212 257 311 383
#     4  10  22  38  59  92 120 164 209 257 319 383
#
# _framework density 20.179770000000001
#
# number of rings (size 3 to 8) (size 9 to 14) (size 15 to 20)
#    0.000    1.667    3.333    2.500    2.333    0.000 
#    3.000    8.333    7.333    0.000    0.000    0.000 
#    0.000    0.000    0.000    0.000    0.000    0.000 
#
# Total GULP energy -267467.754290 kJ/mol
# GULP energy per Si atom -5572.244881 kJ/mol
# Density = 2.013384 g / cm^3
# Si number density = 20.179770 Si / 1000 Ang^3
#
#
#
# Elastic Constant Matrix: (Units=GPa)
#
#
# Indices 1 2 3 4 5 6 
#
# 1 88.0540 26.5699 7.9104 0.0000 0.0000 0.0000
# 2 26.5699 88.0540 7.9104 0.0000 0.0000 0.0000
# 3 7.9104 7.9104 61.1283 0.0000 0.0000 0.0000
# 4 0.0000 0.0000 0.0000 13.8494 0.0000 0.0000
# 5 0.0000 0.0000 0.0000 0.0000 13.8494 0.0000
# 6 0.0000 0.0000 0.0000 0.0000 0.0000 17.9263
#
#
#
# Elastic Compliance Matrix: (Units=1/GPa)
#
#
# Indices 1 2 3 4 5 6 
#
# 1 0.012574 -0.003691 -0.001149 0.000000 0.000000 0.000000
# 2 -0.003691 0.012574 -0.001149 0.000000 0.000000 0.000000
# 3 -0.001149 -0.001149 0.016657 0.000000 0.000000 0.000000
# 4 0.000000 0.000000 0.000000 0.072205 0.000000 0.000000
# 5 0.000000 0.000000 0.000000 0.000000 0.072205 0.000000
# 6 0.000000 0.000000 0.000000 0.000000 0.000000 0.055784
#
#
# Mechanical properties :
#
#
# Convention : Reuss Voigt Hill
#
# Bulk Modulus (GPa) = 33.52978 35.77975 34.65476
# Shear Modulus (GPa) = 18.94518 22.11472 20.52995
#
# Velocity S-wave (km/s) = 3.06734 3.31401 3.19306
# Velocity P-wave (km/s) = 5.40337 5.69320 5.55018
#
# Compressibility (1/GPa) = 0.02982423
#
# Stress axis : x y z
#
# Youngs Moduli (GPa) = 79.53173 79.53173 60.03647
#
# Poissons Ratio (x) = 0.29353 0.06901
# Poissons Ratio (y) = 0.29353 0.06901
# Poissons Ratio (z) = 0.09142 0.09142
#
# Static dielectric constant tensor:
#      x y z
#    x 1.755280 0.000000 0.000000 
#    y 0.000000 1.755280 0.000000 
#    z 0.000000 0.000000 1.765520 
# 
# From -- ./inp_files/22247.got.cif
#   From: 2010.05.17/outbox.cif.g08.bks.cpg/sg91_12_cif.got.tgz:22247.got - 2010.06.03 19:20:03.
