data_PCOD9548343
_publ_section_title
;
Structure prediction by ZEFSAII (Michael W. Deem and Ramdas Pophale) SiO2 
 PCOD9548343
Probable space group: P 41 2 2
;
_chemical_formula_sum "Si O2"
_cell_formula_units_Z 48
_cell_length_a 8.783099
_cell_length_b 8.783099
_cell_length_c 30.719772
_cell_angle_alpha 90.000000
_cell_angle_beta 90.000000
_cell_angle_gamma 90.000000
_cell_volume 2369.810089
_symmetry_space_group_name_H-M "P 41 2 2"
_symmetry_group_IT_number 91
_symmetry_cell_setting 'tetragonal'
loop_
_space_group_symop_operation_xyz
x,y,z
-y,x,1/4+z
-x,-y,1/2+z
y,-x,3/4+z
x,-y,1/2-z
-x,y,-z
y,x,3/4-z
-y,-x,1/4-z
loop_
_atom_site_type_symbol
_atom_site_label
_atom_site_fract_x
_atom_site_fract_y
_atom_site_fract_z
Si Si1 0.338178 0.826921 0.825383
Si Si2 0.319402 0.835869 0.504384
Si Si3 0.660582 0.683133 0.664841
Si Si4 0.679898 0.667985 0.924474
Si Si5 0.181161 0.837134 0.995059
Si Si6 0.813704 0.667277 0.414920
O O1 0.225780 0.754216 0.790118
O O2 0.298172 0.773127 0.874092
O O3 0.506671 0.760295 0.816643
O O4 0.338022 0.008788 0.823465
O O5 0.500000 0.852664 0.500000
O O6 0.279408 0.719637 0.542849
O O7 0.243049 0.996140 0.516148
O O8 0.648438 0.502969 0.675212
O O9 0.722723 0.768589 0.707080
O O10 0.498230 0.751650 0.651757
O O11 0.717231 0.717231 0.875000
O O12 0.738431 0.784859 0.960296
O O13 0.000000 0.837504 0.000000
O O14 0.780028 0.780028 0.375000
#
# Coordination Sequence:
#
# PCOD9548343 Si02
#       6
#     8   8   8   8   8   8
#     4  11  24  42  65  94 126 163 211 266 321 380
#     4  12  25  43  65  91 126 169 214 262 322 388
#     4  11  23  42  67  93 127 170 216 260 317 393
#     4  10  22  42  65  92 124 167 215 259 314 386
#     4  12  25  41  63  95 131 167 211 268 328 380
#     4  12  24  42  66  95 129 166 213 267 324 385
#
# _framework density 20.254787
#
# number of rings (size 3 to 8) (size 9 to 14) (size 15 to 20)
#    0.000    0.667    0.000    9.500    0.000    5.333 
#    0.000    0.833    0.000    0.000    0.000    0.000 
#    0.000    0.000    0.000    0.000    0.000    0.000 
#
# Total GULP energy -268774.402244 kJ/mol
# GULP energy per Si atom -5599.466713 kJ/mol
# Density = 2.020869 g / cm^3
# Si number density = 20.254787 Si / 1000 Ang^3
#
#
#
# Elastic Constant Matrix: (Units=GPa)
#
#
# Indices 1 2 3 4 5 6 
#
# 1 92.9662 -20.0209 10.3378 0.0000 0.0000 0.0000
# 2 -20.0209 92.9662 10.3378 0.0000 0.0000 0.0000
# 3 10.3378 10.3378 54.9040 0.0000 0.0000 0.0000
# 4 0.0000 0.0000 0.0000 -28.5181 0.0000 0.0000
# 5 0.0000 0.0000 0.0000 0.0000 -28.5181 0.0000
# 6 0.0000 0.0000 0.0000 0.0000 0.0000 29.9307
#
#
#
# Elastic Compliance Matrix: (Units=1/GPa)
#
#
# Indices 1 2 3 4 5 6 
#
# 1 0.011666 0.002816 -0.002727 0.000000 0.000000 0.000000
# 2 0.002816 0.011666 -0.002727 0.000000 0.000000 0.000000
# 3 -0.002727 -0.002727 0.019240 0.000000 0.000000 0.000000
# 4 0.000000 0.000000 0.000000 -0.035065 0.000000 0.000000
# 5 0.000000 0.000000 0.000000 0.000000 -0.035065 0.000000
# 6 0.000000 0.000000 0.000000 0.000000 0.000000 0.033411
#
#
# Mechanical properties :
#
#
# Convention : Reuss Voigt Hill
#
# Bulk Modulus (GPa) = 26.81184 26.90510 26.85847
# Shear Modulus (GPa) = 212.21944 10.59102 111.40523
#
# Velocity S-wave (km/s) = 10.24707 2.28916 7.42437
# Velocity P-wave (km/s) = 12.38020 4.50546 9.31580
#
# Compressibility (1/GPa) = 0.03729695
#
# Stress axis : x y z
#
# Youngs Moduli (GPa) = 85.71790 85.71790 51.97382
#
# Poissons Ratio (x) = -0.24135 0.14172
# Poissons Ratio (y) = -0.24135 0.14172
# Poissons Ratio (z) = 0.23373 0.23373
#
# Static dielectric constant tensor:
#      x y z
#    x 1.689990 0.000000 0.000000 
#    y 0.000000 1.689990 0.000000 
#    z 0.000000 0.000000 1.689820 
# 
# From -- ./inp_files/22252.got.cif
#   From: 2010.05.17/outbox.cif.g08.bks.cpg/sg91_12_cif.got.tgz:22252.got - 2010.06.03 19:20:03.
