data_PCOD9548107
_publ_section_title
;
Structure prediction by ZEFSAII (Michael W. Deem and Ramdas Pophale) SiO2 
 PCOD9548107
Probable space group: P 41 2 2
;
_chemical_formula_sum "Si O2"
_cell_formula_units_Z 24
_cell_length_a 7.664379
_cell_length_b 7.664379
_cell_length_c 15.624222
_cell_angle_alpha 90.000000
_cell_angle_beta 90.000000
_cell_angle_gamma 90.000000
_cell_volume 917.809071
_symmetry_space_group_name_H-M "P 41 2 2"
_symmetry_group_IT_number 91
_symmetry_cell_setting 'tetragonal'
loop_
_space_group_symop_operation_xyz
x,y,z
-y,x,1/4+z
-x,-y,1/2+z
y,-x,3/4+z
x,-y,1/2-z
-x,y,-z
y,x,3/4-z
-y,-x,1/4-z
loop_
_atom_site_type_symbol
_atom_site_label
_atom_site_fract_x
_atom_site_fract_y
_atom_site_fract_z
Si Si1 0.278860 0.798994 0.039931
Si Si2 0.652464 0.118809 0.372721
Si Si3 0.412975 0.256624 0.792983
O O1 0.167413 0.832588 0.125000
O O2 0.470196 0.823008 0.082427
O O3 0.230276 0.908625 0.956535
O O4 0.270806 0.606044 0.996915
O O5 0.700233 0.252742 0.295917
O O6 0.616410 0.932615 0.332506
O O7 0.380305 0.380305 0.875000
#
# Coordination Sequence:
#
# PCOD9548107 Si02
#       3
#     8   8   8
#     4   9  19  36  57  83 119 157 197 250 314 365
#     4   9  20  37  56  88 128 153 196 264 313 365
#     4  10  21  37  63  91 117 160 208 253 313 381
#
# _framework density 26.149227
#
# number of rings (size 3 to 8) (size 9 to 14) (size 15 to 20)
#    0.000    2.667    0.000    0.000    0.000   17.333 
#    0.000    0.000    0.000   38.000    0.000    0.000 
#    0.000    0.000    0.000    0.000    0.000    0.000 
#
# Total GULP energy -133620.479320 kJ/mol
# GULP energy per Si atom -5567.519972 kJ/mol
# Density = 2.608971 g / cm^3
# Si number density = 26.149227 Si / 1000 Ang^3
#
#
#
# Elastic Constant Matrix: (Units=GPa)
#
#
# Indices 1 2 3 4 5 6 
#
# 1 22.5359 26.3228 51.9221 0.0000 0.0000 0.0000
# 2 26.3228 22.5356 51.9224 0.0000 0.0000 0.0000
# 3 51.9221 51.9224 318.2594 0.0000 0.0000 0.0000
# 4 0.0000 0.0000 0.0000 41.8708 0.0000 0.0000
# 5 0.0000 0.0000 0.0000 0.0000 41.8708 0.0000
# 6 0.0000 0.0000 0.0000 0.0000 0.0000 26.9597
#
#
#
# Elastic Compliance Matrix: (Units=1/GPa)
#
#
# Indices 1 2 3 4 5 6 
#
# 1 -0.116362 0.147695 -0.005112 0.000000 0.000000 0.000000
# 2 0.147695 -0.116365 -0.005111 0.000000 0.000000 0.000000
# 3 -0.005112 -0.005111 0.004810 0.000000 0.000000 0.000000
# 4 0.000000 0.000000 0.000000 0.023883 0.000000 0.000000
# 5 0.000000 0.000000 0.000000 0.000000 0.023883 0.000000
# 6 0.000000 0.000000 0.000000 0.000000 0.000000 0.037092
#
#
# Mechanical properties :
#
#
# Convention : Reuss Voigt Hill
#
# Bulk Modulus (GPa) = 21.26460 69.29615 45.28037
# Shear Modulus (GPa) = -12.42771 37.68449 12.62839
#
# Velocity S-wave (km/s) = -2.18241 3.80034 2.19996
# Velocity P-wave (km/s) = 1.34131 6.76865 4.87923
#
# Compressibility (1/GPa) = 0.04702652
#
# Stress axis : x y z
#
# Youngs Moduli (GPa) = -8.59387 -8.59365 207.90337
#
# Poissons Ratio (x) = 1.26924 1.06278
# Poissons Ratio (y) = 1.26927 1.06263
# Poissons Ratio (z) = -0.04393 -0.04392
#
# Static dielectric constant tensor:
#      x y z
#    x 2.224600 0.000000 0.000000 
#    y 0.000000 2.224600 0.000000 
#    z 0.000000 0.000000 2.501360 
# 
# From -- ./inp_files/16130.got.cif
#   From: 2010.05.17/outbox.cif.g08.bks.cpg/sg91_9_cif.got.tgz:16130.got - 2010.06.03 19:20:03.
