data_PCOD9548152
_publ_section_title
;
Structure prediction by ZEFSAII (Michael W. Deem and Ramdas Pophale) SiO2 
 PCOD9548152
Probable space group: P 41 2 2
;
_chemical_formula_sum "Si O2"
_cell_formula_units_Z 48
_cell_length_a 8.545854
_cell_length_b 8.545854
_cell_length_c 32.576286
_cell_angle_alpha 90.000000
_cell_angle_beta 90.000000
_cell_angle_gamma 90.000000
_cell_volume 2379.098959
_symmetry_space_group_name_H-M "P 41 2 2"
_symmetry_group_IT_number 91
_symmetry_cell_setting 'tetragonal'
loop_
_space_group_symop_operation_xyz
x,y,z
-y,x,1/4+z
-x,-y,1/2+z
y,-x,3/4+z
x,-y,1/2-z
-x,y,-z
y,x,3/4-z
-y,-x,1/4-z
loop_
_atom_site_type_symbol
_atom_site_label
_atom_site_fract_x
_atom_site_fract_y
_atom_site_fract_z
Si Si1 0.816925 0.831545 0.496404
Si Si2 0.304661 0.188135 0.163412
Si Si3 0.161595 0.320346 0.240614
Si Si4 0.351422 0.321661 0.829981
Si Si5 0.668169 0.694163 0.174464
Si Si6 0.610870 0.893676 0.790387
O O1 0.740598 0.757235 0.455987
O O2 0.721141 0.768948 0.535083
O O3 0.000000 0.793322 0.500000
O O4 0.792129 0.015384 0.496389
O O5 0.209163 0.300706 0.193380
O O6 0.484664 0.232904 0.172052
O O7 0.270532 0.231253 0.116414
O O8 0.290430 0.010770 0.180275
O O9 0.126891 0.500000 0.250000
O O10 0.295741 0.250354 0.269975
O O11 0.284809 0.284809 0.875000
O O12 0.377647 0.509991 0.827818
O O13 0.525178 0.814256 0.182424
O O14 0.565105 0.000000 0.750000
#
# Coordination Sequence:
#
# PCOD9548152 Si02
#       6
#     8   8   8   8   8   8
#     4  12  24  39  59  88 123 161 199 249 314 372
#     4  10  22  40  61  90 120 155 201 252 308 366
#     4  11  23  41  63  87 119 159 206 256 308 369
#     4  10  22  40  62  89 118 157 208 252 298 366
#     4  11  22  38  63  89 119 159 204 248 301 371
#     4  10  21  40  62  87 121 161 201 251 309 368
#
# _framework density 20.175706000000002
#
# number of rings (size 3 to 8) (size 9 to 14) (size 15 to 20)
#    0.000    1.333    0.000    7.500    0.000    5.333 
#    0.000    4.167    0.000    0.000    0.000    0.000 
#    0.000    0.000    0.000    0.000    0.000    0.000 
#
# Total GULP energy -268018.326574 kJ/mol
# GULP energy per Si atom -5583.715137 kJ/mol
# Density = 2.012979 g / cm^3
# Si number density = 20.175706 Si / 1000 Ang^3
#
#
#
# Elastic Constant Matrix: (Units=GPa)
#
#
# Indices 1 2 3 4 5 6 
#
# 1 54.8845 -1.7098 29.8325 0.0000 0.0000 0.0000
# 2 -1.7098 54.8845 29.8325 0.0000 0.0000 0.0000
# 3 29.8325 29.8325 154.7250 0.0000 0.0000 0.0000
# 4 0.0000 0.0000 0.0000 -4.1252 0.0000 0.0000
# 5 0.0000 0.0000 0.0000 0.0000 -4.1252 0.0000
# 6 0.0000 0.0000 0.0000 0.0000 0.0000 45.1538
#
#
#
# Elastic Compliance Matrix: (Units=1/GPa)
#
#
# Indices 1 2 3 4 5 6 
#
# 1 0.020834 0.003164 -0.004627 0.000000 0.000000 0.000000
# 2 0.003164 0.020834 -0.004627 0.000000 0.000000 0.000000
# 3 -0.004627 -0.004627 0.008247 0.000000 0.000000 0.000000
# 4 0.000000 0.000000 0.000000 -0.242411 0.000000 0.000000
# 5 0.000000 0.000000 0.000000 0.000000 -0.242411 0.000000
# 6 0.000000 0.000000 0.000000 0.000000 0.000000 0.022147
#
#
# Mechanical properties :
#
#
# Convention : Reuss Voigt Hill
#
# Bulk Modulus (GPa) = 26.50078 42.26714 34.38396
# Shear Modulus (GPa) = -12.88650 21.14992 4.13171
#
# Velocity S-wave (km/s) = -2.53002 3.24124 1.43259
# Velocity P-wave (km/s) = 2.15147 5.91629 4.45148
#
# Compressibility (1/GPa) = 0.03773474
#
# Stress axis : x y z
#
# Youngs Moduli (GPa) = 47.99928 47.99928 121.25130
#
# Poissons Ratio (x) = -0.15187 0.56103
# Poissons Ratio (y) = -0.15187 0.56103
# Poissons Ratio (z) = 0.22209 0.22209
#
# Static dielectric constant tensor:
#      x y z
#    x 1.737820 0.000000 0.000000 
#    y 0.000000 1.737820 0.000000 
#    z 0.000000 0.000000 1.584760 
# 
# From -- ./inp_files/7969.got.cif
#   From: 2010.05.17/outbox.cif.g08.bks.cpg/sg91_4_cif.got.tgz:7969.got - 2010.06.03 19:20:03.
