data_PCOD9548744
_publ_section_title
;
Structure prediction by ZEFSAII (Michael W. Deem and Ramdas Pophale) SiO2 
 PCOD9548744
Probable space group: P 41 2 2
;
_chemical_formula_sum "Si O2"
_cell_formula_units_Z 48
_cell_length_a 10.972590
_cell_length_b 10.972590
_cell_length_c 19.522587
_cell_angle_alpha 90.000000
_cell_angle_beta 90.000000
_cell_angle_gamma 90.000000
_cell_volume 2350.475184
_symmetry_space_group_name_H-M "P 41 2 2"
_symmetry_group_IT_number 91
_symmetry_cell_setting 'tetragonal'
loop_
_space_group_symop_operation_xyz
x,y,z
-y,x,1/4+z
-x,-y,1/2+z
y,-x,3/4+z
x,-y,1/2-z
-x,y,-z
y,x,3/4-z
-y,-x,1/4-z
loop_
_atom_site_type_symbol
_atom_site_label
_atom_site_fract_x
_atom_site_fract_y
_atom_site_fract_z
Si Si1 0.560095 0.433224 0.813274
Si Si2 0.808977 0.191024 0.125000
Si Si3 0.998186 0.402976 0.344877
Si Si4 0.600433 0.779570 0.269223
Si Si5 0.308697 0.965864 0.947076
Si Si6 0.417135 0.000000 0.250000
Si Si7 0.263378 0.249324 0.114140
O O1 0.621225 0.500000 0.750000
O O2 0.518485 0.518485 0.875000
O O3 0.448410 0.356855 0.781198
O O4 0.648829 0.337072 0.844968
O O5 0.812035 0.312105 0.080602
O O6 0.920855 0.218720 0.177503
O O7 0.031823 0.364396 0.423590
O O8 0.861377 0.348666 0.340528
O O9 0.056078 0.337394 0.277841
O O10 0.014306 0.551081 0.334079
O O11 0.679215 0.785512 0.201276
O O12 0.495149 0.879267 0.265735
O O13 0.236870 0.852588 0.913444
#
# Coordination Sequence:
#
# PCOD9548744 Si02
#       7
#     8   4   8   8   8   4   8
#     4  12  25  37  60  96 137 175 216 275 332 414
#     4  12  20  40  70 100 124 158 228 306 344 380
#     4  11  24  42  67  98 138 180 223 277 339 412
#     4  12  22  37  65  97 132 169 224 278 343 398
#     4  11  25  41  70 103 131 171 225 293 341 401
#     4  12  22  42  66 100 130 186 222 264 338 430
#     4  12  24  43  64  97 137 177 221 271 343 411
#
# _framework density 20.421403000000002
#
# number of rings (size 3 to 8) (size 9 to 14) (size 15 to 20)
#    0.000    0.333    9.167    0.000    2.333    0.000 
#    0.000    0.833    3.667    0.000    0.000    0.000 
#    0.000    0.000    0.000    0.000    0.000    0.000 
#
# Total GULP energy -267311.626618 kJ/mol
# GULP energy per Si atom -5568.992221 kJ/mol
# Density = 2.037492 g / cm^3
# Si number density = 20.421403 Si / 1000 Ang^3
#
#
#
# Elastic Constant Matrix: (Units=GPa)
#
#
# Indices 1 2 3 4 5 6 
#
# 1 4.1757 13.0279 -5.6642 0.0000 0.0000 0.0000
# 2 13.0279 4.1762 -5.6661 0.0000 0.0000 0.0000
# 3 -5.6642 -5.6661 136.9889 0.0000 0.0000 0.0000
# 4 0.0000 0.0000 0.0000 44.0475 0.0000 0.0000
# 5 0.0000 0.0000 0.0000 0.0000 44.0491 0.0000
# 6 0.0000 0.0000 0.0000 0.0000 0.0000 1.8413
#
#
#
# Elastic Compliance Matrix: (Units=1/GPa)
#
#
# Indices 1 2 3 4 5 6 
#
# 1 -0.026609 0.086362 0.002472 0.000000 0.000000 0.000000
# 2 0.086362 -0.026606 0.002470 0.000000 0.000000 0.000000
# 3 0.002472 0.002470 0.007504 0.000000 0.000000 0.000000
# 4 0.000000 0.000000 0.000000 0.022703 0.000000 0.000000
# 5 0.000000 0.000000 0.000000 0.000000 0.022702 0.000000
# 6 0.000000 0.000000 0.000000 0.000000 0.000000 0.543105
#
#
# Mechanical properties :
#
#
# Convention : Reuss Voigt Hill
#
# Bulk Modulus (GPa) = 7.30476 16.52620 11.91548
# Shear Modulus (GPa) = 12.32062 27.56380 19.94221
#
# Velocity S-wave (km/s) = 2.45892 3.67788 3.12835
# Velocity P-wave (km/s) = 3.41270 5.11331 4.34698
#
# Compressibility (1/GPa) = 0.13689707
#
# Stress axis : x y z
#
# Youngs Moduli (GPa) = -37.58169 -37.58502 133.25784
#
# Poissons Ratio (x) = 3.24591 -0.32940
# Poissons Ratio (y) = 3.24562 -0.32920
# Poissons Ratio (z) = 0.09290 0.09285
#
# Static dielectric constant tensor:
#      x y z
#    x 1.706110 0.000000 0.000000 
#    y 0.000000 1.706100 0.000000 
#    z 0.000000 0.000000 1.768650 
# 
# From -- ./inp_files/21158.got.cif
#   From: 2010.05.17/outbox.cif.g08.bks.cpg/sg91_11_cif.got.tgz:21158.got - 2010.06.03 19:20:03.
