data_PCOD9548060
_publ_section_title
;
Structure prediction by ZEFSAII (Michael W. Deem and Ramdas Pophale) SiO2 
 PCOD9548060
Probable space group: P 41 2 2
;
_chemical_formula_sum "Si O2"
_cell_formula_units_Z 40
_cell_length_a 7.936159
_cell_length_b 7.936159
_cell_length_c 24.764141
_cell_angle_alpha 90.000000
_cell_angle_beta 90.000000
_cell_angle_gamma 90.000000
_cell_volume 1559.710474
_symmetry_space_group_name_H-M "P 41 2 2"
_symmetry_group_IT_number 91
_symmetry_cell_setting 'tetragonal'
loop_
_space_group_symop_operation_xyz
x,y,z
-y,x,1/4+z
-x,-y,1/2+z
y,-x,3/4+z
x,-y,1/2-z
-x,y,-z
y,x,3/4-z
-y,-x,1/4-z
loop_
_atom_site_type_symbol
_atom_site_label
_atom_site_fract_x
_atom_site_fract_y
_atom_site_fract_z
Si Si1 0.666232 0.681947 0.763529
Si Si2 0.806713 0.977156 0.481649
Si Si3 0.000000 0.572344 0.500000
Si Si4 0.990658 0.666851 0.380687
Si Si5 0.840769 0.689759 0.155573
Si Si6 0.200924 0.799077 0.125000
O O1 0.593197 0.500000 0.750000
O O2 0.844212 0.708971 0.734189
O O3 0.721337 0.704826 0.824746
O O4 0.543744 0.836267 0.753054
O O5 0.787215 0.937303 0.418488
O O6 0.000000 0.006786 0.500000
O O7 0.719080 0.864572 0.529366
O O8 0.968788 0.675452 0.445537
O O9 0.199701 0.683205 0.383900
O O10 0.882084 0.500963 0.362391
O O11 0.002186 0.775438 0.127261
#
# Coordination Sequence:
#
# PCOD9548060 Si02
#       6
#     8   8   4   8   8   4
#     4  11  22  42  76 112 156 219 280 356 433 532
#     4  11  23  44  78 115 149 213 291 351 426 524
#     4  12  26  46  72 116 176 218 282 364 468 514
#     4  12  25  47  76 118 166 218 280 363 440 538
#     4  11  24  44  79 108 160 212 280 351 436 520
#     4  10  20  44  70 108 144 202 288 344 424 522
#
# _framework density 25.645783000000002
#
# number of rings (size 3 to 8) (size 9 to 14) (size 15 to 20)
#    0.000    0.800    3.000    6.600    1.400    0.000 
#    0.000    2.000    0.000    0.000    0.000    0.000 
#    0.000    0.000    0.000    0.000    0.000    0.000 
#
# Total GULP energy -223320.775113 kJ/mol
# GULP energy per Si atom -5583.019378 kJ/mol
# Density = 2.558741 g / cm^3
# Si number density = 25.645783 Si / 1000 Ang^3
#
#
#
# Elastic Constant Matrix: (Units=GPa)
#
#
# Indices 1 2 3 4 5 6 
#
# 1 115.4138 27.5091 44.2622 0.0000 0.0000 0.0000
# 2 27.5091 115.4143 44.2622 0.0000 0.0000 0.0000
# 3 44.2622 44.2622 249.0409 0.0000 0.0000 0.0000
# 4 0.0000 0.0000 0.0000 97.1880 0.0000 0.0000
# 5 0.0000 0.0000 0.0000 0.0000 97.1855 0.0000
# 6 0.0000 0.0000 0.0000 0.0000 0.0000 17.0365
#
#
#
# Elastic Compliance Matrix: (Units=1/GPa)
#
#
# Indices 1 2 3 4 5 6 
#
# 1 0.009619 -0.001757 -0.001397 0.000000 0.000000 0.000000
# 2 -0.001757 0.009619 -0.001397 0.000000 0.000000 0.000000
# 3 -0.001397 -0.001397 0.004512 0.000000 0.000000 0.000000
# 4 0.000000 0.000000 0.000000 0.010289 0.000000 0.000000
# 5 0.000000 0.000000 0.000000 0.000000 0.010290 0.000000
# 6 0.000000 0.000000 0.000000 0.000000 0.000000 0.058698
#
#
# Mechanical properties :
#
#
# Convention : Reuss Voigt Hill
#
# Bulk Modulus (GPa) = 68.27246 79.10400 73.68823
# Shear Modulus (GPa) = 42.73051 66.53769 54.63410
#
# Velocity S-wave (km/s) = 4.08632 5.09914 4.62056
# Velocity P-wave (km/s) = 6.99593 8.09815 7.56714
#
# Compressibility (1/GPa) = 0.01464719
#
# Stress axis : x y z
#
# Youngs Moduli (GPa) = 103.95964 103.96007 221.62561
#
# Poissons Ratio (x) = 0.18264 0.30969
# Poissons Ratio (y) = 0.18264 0.30969
# Poissons Ratio (z) = 0.14527 0.14527
#
# Static dielectric constant tensor:
#      x y z
#    x 2.091760 0.000000 0.000000 
#    y 0.000000 2.091750 0.000000 
#    z 0.000000 0.000000 2.146800 
# 
# From -- ./inp_files/21739.got.cif
#   From: 2010.05.17/outbox.cif.g08.bks.cpg/sg91_11_cif.got.tgz:21739.got - 2010.06.03 19:20:03.
