data_PCOD9548500
_publ_section_title
;
Structure prediction by ZEFSAII (Michael W. Deem and Ramdas Pophale) SiO2 
 PCOD9548500
Probable space group: P 41 2 2
;
_chemical_formula_sum "Si O2"
_cell_formula_units_Z 56
_cell_length_a 14.429705
_cell_length_b 14.429705
_cell_length_c 13.499415
_cell_angle_alpha 90.000000
_cell_angle_beta 90.000000
_cell_angle_gamma 90.000000
_cell_volume 2810.799410
_symmetry_space_group_name_H-M "P 41 2 2"
_symmetry_group_IT_number 91
_symmetry_cell_setting 'tetragonal'
loop_
_space_group_symop_operation_xyz
x,y,z
-y,x,1/4+z
-x,-y,1/2+z
y,-x,3/4+z
x,-y,1/2-z
-x,y,-z
y,x,3/4-z
-y,-x,1/4-z
loop_
_atom_site_type_symbol
_atom_site_label
_atom_site_fract_x
_atom_site_fract_y
_atom_site_fract_z
Si Si1 0.179641 0.601159 0.748501
Si Si2 0.740547 0.534798 0.534779
Si Si3 0.198200 0.678699 0.294632
Si Si4 0.722575 0.135062 0.822513
Si Si5 0.531165 0.063904 0.170978
Si Si6 0.349073 0.349073 0.375000
Si Si7 0.658273 0.951374 0.880787
Si Si8 0.663859 0.336142 0.125000
O O1 0.225804 0.500000 0.750000
O O2 0.173999 0.642267 0.856484
O O3 0.089127 0.582773 0.681177
O O4 0.244065 0.667042 0.688282
O O5 0.775256 0.609403 0.616785
O O6 0.837413 0.513824 0.476348
O O7 0.684142 0.451287 0.587313
O O8 0.672610 0.580466 0.452794
O O9 0.198473 0.787370 0.324168
O O10 0.282519 0.671006 0.217192
O O11 0.107190 0.653778 0.230842
O O12 0.687041 0.114676 0.711212
O O13 0.734286 0.033895 0.873109
O O14 0.439832 0.997558 0.356491
O O15 0.584139 0.000000 0.250000
#
# Coordination Sequence:
#
# PCOD9548500 Si02
#       8
#     8   8   8   8   8   4   8   4
#     4  11  21  37  61  85 126 175 219 276 333 396
#     4  11  26  43  65  90 135 188 238 290 340 408
#     4  12  24  43  65  94 141 175 222 289 350 412
#     4  11  21  39  62  93 134 172 212 277 350 420
#     4  11  21  36  60  99 128 162 222 285 352 414
#     4  12  24  42  59  90 126 181 238 286 328 396
#     4  11  21  37  66  97 132 169 215 283 356 412
#     4  10  24  42  61  82 122 185 230 270 328 400
#
# _framework density 19.923158999999998
#
# number of rings (size 3 to 8) (size 9 to 14) (size 15 to 20)
#    0.000    0.857    5.714    2.143    4.000    1.143 
#    0.000    5.000    0.000    0.000    0.000    0.000 
#   30.000    0.000    0.000    0.000    0.000    0.000 
#
# Total GULP energy -311999.258737 kJ/mol
# GULP energy per Si atom -5571.415335 kJ/mol
# Density = 1.987781 g / cm^3
# Si number density = 19.923159 Si / 1000 Ang^3
#
#
#
# Elastic Constant Matrix: (Units=GPa)
#
#
# Indices 1 2 3 4 5 6 
#
# 1 90.1231 47.0572 42.5089 0.0000 0.0000 0.0000
# 2 47.0572 90.1227 42.5087 0.0000 0.0000 0.0000
# 3 42.5089 42.5087 105.2588 0.0000 0.0000 0.0000
# 4 0.0000 0.0000 0.0000 38.1604 0.0000 0.0000
# 5 0.0000 0.0000 0.0000 0.0000 38.1605 0.0000
# 6 0.0000 0.0000 0.0000 0.0000 0.0000 27.1600
#
#
#
# Elastic Compliance Matrix: (Units=1/GPa)
#
#
# Indices 1 2 3 4 5 6 
#
# 1 0.016472 -0.006749 -0.003927 0.000000 0.000000 0.000000
# 2 -0.006749 0.016472 -0.003927 0.000000 0.000000 0.000000
# 3 -0.003927 -0.003927 0.012672 0.000000 0.000000 0.000000
# 4 0.000000 0.000000 0.000000 0.026205 0.000000 0.000000
# 5 0.000000 0.000000 0.000000 0.000000 0.026205 0.000000
# 6 0.000000 0.000000 0.000000 0.000000 0.000000 0.036819
#
#
# Mechanical properties :
#
#
# Convention : Reuss Voigt Hill
#
# Bulk Modulus (GPa) = 60.93246 61.07268 61.00257
# Shear Modulus (GPa) = 29.49513 30.92482 30.20998
#
# Velocity S-wave (km/s) = 3.85183 3.94408 3.89823
# Velocity P-wave (km/s) = 7.10157 7.17368 7.13771
#
# Compressibility (1/GPa) = 0.01641161
#
# Stress axis : x y z
#
# Youngs Moduli (GPa) = 60.70984 60.70963 78.91394
#
# Poissons Ratio (x) = 0.40970 0.30988
# Poissons Ratio (y) = 0.40970 0.30988
# Poissons Ratio (z) = 0.23839 0.23839
#
# Static dielectric constant tensor:
#      x y z
#    x 1.767330 0.000000 0.000000 
#    y 0.000000 1.767330 0.000000 
#    z 0.000000 0.000000 1.564690 
# 
# From -- ./inp_files/3981.got.cif
#   From: 2010.05.17/outbox.cif.g08.bks.cpg/sg91_2_cif.got.tgz:3981.got - 2010.06.03 19:20:03.
