data_PCOD9548048
_publ_section_title
;
Structure prediction by ZEFSAII (Michael W. Deem and Ramdas Pophale) SiO2 
 PCOD9548048
Probable space group: P 41 2 2
;
_chemical_formula_sum "Si O2"
_cell_formula_units_Z 36
_cell_length_a 8.660939
_cell_length_b 8.660939
_cell_length_c 20.146683
_cell_angle_alpha 90.000000
_cell_angle_beta 90.000000
_cell_angle_gamma 90.000000
_cell_volume 1511.240253
_symmetry_space_group_name_H-M "P 41 2 2"
_symmetry_group_IT_number 91
_symmetry_cell_setting 'tetragonal'
loop_
_space_group_symop_operation_xyz
x,y,z
-y,x,1/4+z
-x,-y,1/2+z
y,-x,3/4+z
x,-y,1/2-z
-x,y,-z
y,x,3/4-z
-y,-x,1/4-z
loop_
_atom_site_type_symbol
_atom_site_label
_atom_site_fract_x
_atom_site_fract_y
_atom_site_fract_z
Si Si1 0.171235 0.500000 0.250000
Si Si2 0.349260 0.303268 0.034463
Si Si3 0.365714 0.763309 0.192763
Si Si4 0.045256 0.458651 0.621284
Si Si5 0.888507 0.206790 0.059420
O O1 0.274035 0.658453 0.246100
O O2 0.064052 0.504800 0.184682
O O3 0.244959 0.450256 0.048029
O O4 0.383554 0.199572 0.098161
O O5 0.500000 0.370483 0.000000
O O6 0.276246 0.199472 0.976484
O O7 0.325854 0.674147 0.125000
O O8 0.343895 0.944681 0.175726
O O9 0.086587 0.616967 0.583610
O O10 0.895193 0.104808 0.125000
O O11 0.000000 0.164291 0.000000
#
# Coordination Sequence:
#
# PCOD9548048 Si02
#       5
#     4   8   8   8   8
#     4  10  20  42  68 104 138 182 234 294 360 428
#     4  12  23  41  71 102 134 187 232 300 359 434
#     4  10  23  39  69 104 136 180 239 294 354 424
#     4  11  23  43  67 102 146 175 230 303 364 422
#     4  12  25  45  68 100 144 189 240 295 373 441
#
# _framework density 23.821493
#
# number of rings (size 3 to 8) (size 9 to 14) (size 15 to 20)
#    0.000    0.889    6.667    0.000    3.111    0.000 
#    0.000    5.556    0.000    0.000    0.000    0.000 
#    0.000    0.000    0.000    0.000    0.000    0.000 
#
# Total GULP energy -201072.628610 kJ/mol
# GULP energy per Si atom -5585.350795 kJ/mol
# Density = 2.376727 g / cm^3
# Si number density = 23.821493 Si / 1000 Ang^3
#
#
#
# Elastic Constant Matrix: (Units=GPa)
#
#
# Indices 1 2 3 4 5 6 
#
# 1 52.9235 6.2045 24.0487 0.0000 0.0000 0.0000
# 2 6.2045 52.9248 24.0481 0.0000 0.0000 0.0000
# 3 24.0487 24.0481 139.8198 0.0000 0.0000 0.0000
# 4 0.0000 0.0000 0.0000 62.3577 0.0000 0.0000
# 5 0.0000 0.0000 0.0000 0.0000 62.3594 0.0000
# 6 0.0000 0.0000 0.0000 0.0000 0.0000 8.6360
#
#
#
# Elastic Compliance Matrix: (Units=1/GPa)
#
#
# Indices 1 2 3 4 5 6 
#
# 1 0.020534 -0.000870 -0.003382 0.000000 0.000000 0.000000
# 2 -0.000870 0.020533 -0.003382 0.000000 0.000000 0.000000
# 3 -0.003382 -0.003382 0.008315 0.000000 0.000000 0.000000
# 4 0.000000 0.000000 0.000000 0.016037 0.000000 0.000000
# 5 0.000000 0.000000 0.000000 0.000000 0.016036 0.000000
# 6 0.000000 0.000000 0.000000 0.000000 0.000000 0.115795
#
#
# Mechanical properties :
#
#
# Convention : Reuss Voigt Hill
#
# Bulk Modulus (GPa) = 29.31347 39.36342 34.33845
# Shear Modulus (GPa) = 22.33231 39.42838 30.88034
#
# Velocity S-wave (km/s) = 3.06516 4.07278 3.60435
# Velocity P-wave (km/s) = 4.98589 6.21908 5.63631
#
# Compressibility (1/GPa) = 0.03411401
#
# Stress axis : x y z
#
# Youngs Moduli (GPa) = 48.69944 48.70098 120.25812
#
# Poissons Ratio (x) = 0.04239 0.40673
# Poissons Ratio (y) = 0.04239 0.40670
# Poissons Ratio (z) = 0.16471 0.16470
#
# Static dielectric constant tensor:
#      x y z
#    x 1.227130 0.000000 0.000000 
#    y 0.000000 1.227050 0.000000 
#    z 0.000000 0.000000 1.093810 
# 
# From -- ./inp_files/6121.got.cif
#   From: 2010.05.17/outbox.cif.g08.bks.cpg/sg91_4_cif.got.tgz:6121.got - 2010.06.03 19:20:03.
