data_PCOD9548765
_publ_section_title
;
Structure prediction by ZEFSAII (Michael W. Deem and Ramdas Pophale) SiO2 
 PCOD9548765
Probable space group: P 41 2 2
;
_chemical_formula_sum "Si O2"
_cell_formula_units_Z 40
_cell_length_a 15.080875
_cell_length_b 15.080875
_cell_length_c 8.227253
_cell_angle_alpha 90.000000
_cell_angle_beta 90.000000
_cell_angle_gamma 90.000000
_cell_volume 1871.147110
_symmetry_space_group_name_H-M "P 41 2 2"
_symmetry_group_IT_number 91
_symmetry_cell_setting 'tetragonal'
loop_
_space_group_symop_operation_xyz
x,y,z
-y,x,1/4+z
-x,-y,1/2+z
y,-x,3/4+z
x,-y,1/2-z
-x,y,-z
y,x,3/4-z
-y,-x,1/4-z
loop_
_atom_site_type_symbol
_atom_site_label
_atom_site_fract_x
_atom_site_fract_y
_atom_site_fract_z
Si Si1 0.914670 0.085331 0.125000
Si Si2 0.763534 0.763534 0.875000
Si Si3 0.737826 0.401546 0.172731
Si Si4 0.793039 0.410831 0.812643
Si Si5 0.406663 0.003465 0.554420
Si Si6 0.735758 0.121810 0.919933
O O1 0.904093 0.174962 0.233107
O O2 0.915539 0.000000 0.250000
O O3 0.756190 0.678738 0.759489
O O4 0.760989 0.849825 0.761564
O O5 0.729912 0.500000 0.250000
O O6 0.643990 0.356011 0.125000
O O7 0.795353 0.325827 0.265855
O O8 0.790190 0.413038 0.004921
O O9 0.747560 0.500000 0.750000
O O10 0.894313 0.410216 0.755855
O O11 0.500000 0.961243 0.500000
O O12 0.393715 0.000000 0.750000
O O13 0.329636 0.958624 0.453398
#
# Coordination Sequence:
#
# PCOD9548765 Si02
#       6
#     4   4   8   8   8   8
#     4  12  30  55  78 110 153 208 260 318 380 476
#     4  12  26  43  68 114 141 198 240 298 378 460
#     4  12  24  46  76 110 148 202 253 315 381 457
#     4  11  25  43  69 107 147 184 248 306 375 449
#     4  11  25  42  71 111 147 186 238 321 386 446
#     4  12  25  47  77 103 146 199 255 312 384 453
#
# _framework density 21.377261000000001
#
# number of rings (size 3 to 8) (size 9 to 14) (size 15 to 20)
#    0.000    0.400    5.000    2.400    8.400    0.800 
#    0.000    1.000    0.000    0.000    0.000    0.000 
#    0.000    0.000    0.000    0.000    0.000    0.000 
#
# Total GULP energy -223321.119326 kJ/mol
# GULP energy per Si atom -5583.027983 kJ/mol
# Density = 2.132861 g / cm^3
# Si number density = 21.377261 Si / 1000 Ang^3
#
#
#
# Elastic Constant Matrix: (Units=GPa)
#
#
# Indices 1 2 3 4 5 6 
#
# 1 132.7976 71.7555 54.3881 0.0000 0.0000 0.0000
# 2 71.7555 132.7961 54.3877 0.0000 0.0000 0.0000
# 3 54.3881 54.3877 124.8532 0.0000 0.0000 0.0000
# 4 0.0000 0.0000 0.0000 36.2396 0.0000 0.0000
# 5 0.0000 0.0000 0.0000 0.0000 36.2398 0.0000
# 6 0.0000 0.0000 0.0000 0.0000 0.0000 26.6866
#
#
#
# Elastic Compliance Matrix: (Units=1/GPa)
#
#
# Indices 1 2 3 4 5 6 
#
# 1 0.011372 -0.005010 -0.002772 0.000000 0.000000 0.000000
# 2 -0.005010 0.011373 -0.002772 0.000000 0.000000 0.000000
# 3 -0.002772 -0.002772 0.010424 0.000000 0.000000 0.000000
# 4 0.000000 0.000000 0.000000 0.027594 0.000000 0.000000
# 5 0.000000 0.000000 0.000000 0.000000 0.027594 0.000000
# 6 0.000000 0.000000 0.000000 0.000000 0.000000 0.037472
#
#
# Mechanical properties :
#
#
# Convention : Reuss Voigt Hill
#
# Bulk Modulus (GPa) = 82.89962 83.50107 83.20035
# Shear Modulus (GPa) = 33.12212 33.82756 33.47484
#
# Velocity S-wave (km/s) = 3.94052 3.98227 3.96145
# Velocity P-wave (km/s) = 7.71798 7.76467 7.74136
#
# Compressibility (1/GPa) = 0.01206278
#
# Stress axis : x y z
#
# Youngs Moduli (GPa) = 87.93209 87.93118 95.93108
#
# Poissons Ratio (x) = 0.44052 0.26589
# Poissons Ratio (y) = 0.44053 0.26589
# Poissons Ratio (z) = 0.24372 0.24371
#
# Static dielectric constant tensor:
#      x y z
#    x 1.822470 0.000000 0.000000 
#    y 0.000000 1.822470 0.000000 
#    z 0.000000 0.000000 1.793050 
# 
# From -- ./inp_files/9722.got.cif
#   From: 2010.05.17/outbox.cif.g08.bks.cpg/sg91_5_cif.got.tgz:9722.got - 2010.06.03 19:20:03.
