data_PCOD9548941
_publ_section_title
;
Structure prediction by ZEFSAII (Michael W. Deem and Ramdas Pophale) SiO2 
 PCOD9548941
Probable space group: P 41 21 2
;
_chemical_formula_sum "Si O2"
_cell_formula_units_Z 48
_cell_length_a 8.812756
_cell_length_b 8.812756
_cell_length_c 32.927922
_cell_angle_alpha 90.000000
_cell_angle_beta 90.000000
_cell_angle_gamma 90.000000
_cell_volume 2557.336140
_symmetry_space_group_name_H-M "P 41 21 2"
_symmetry_group_IT_number 92
_symmetry_cell_setting 'tetragonal'
loop_
_space_group_symop_operation_xyz
x,y,z
1/2-y,1/2+x,1/4+z
-x,-y,1/2+z
1/2+y,1/2-x,3/4+z
1/2+x,1/2-y,3/4-z
1/2-x,1/2+y,1/4-z
y,x,-z
-y,-x,1/2-z
loop_
_atom_site_type_symbol
_atom_site_label
_atom_site_fract_x
_atom_site_fract_y
_atom_site_fract_z
Si Si1 0.311210 0.311210 0.500000
Si Si2 0.815069 0.825900 0.245309
Si Si3 0.823534 0.172350 0.837412
Si Si4 0.671318 0.824580 0.084260
Si Si5 0.834480 0.809860 0.665704
Si Si6 0.178464 0.821537 0.250000
Si Si7 0.312781 0.165108 0.337673
O O1 0.492423 0.289346 0.492735
O O2 0.262368 0.223300 0.540461
O O3 0.761296 0.771764 0.289779
O O4 0.759454 0.745414 0.204472
O O5 0.996948 0.800213 0.246686
O O6 0.762344 0.254346 0.877084
O O7 0.773516 0.243203 0.793708
O O8 0.006982 0.168073 0.837222
O O9 0.755809 0.003791 0.838403
O O10 0.505779 0.749083 0.084504
O O11 0.756298 0.753421 0.122486
O O12 0.662680 0.005547 0.088058
#
# Coordination Sequence:
#
# PCOD9548941 Si02
#       7
#     4   8   8   8   8   4   8
#     4   9  18  36  56  75 106 144 184 229 280 341
#     4   8  16  33  54  74 103 143 183 226 278 333
#     4  10  19  35  57  80 111 148 192 235 280 339
#     4  11  22  36  56  83 113 147 186 230 287 341
#     4  10  20  36  56  83 114 149 189 234 289 342
#     4   7  14  30  52  73 100 142 182 223 274 327
#     4  11  21  36  57  81 110 147 189 231 279 341
#
# _framework density 18.76953
#
# number of rings (size 3 to 8) (size 9 to 14) (size 15 to 20)
#    0.000    2.333    0.000    6.000    0.000    1.333 
#    0.000   13.333    0.000    1.000    0.000    0.000 
#    0.000    0.000    0.000    0.000    0.000    0.000 
#
# Total GULP energy -267508.645916 kJ/mol
# GULP energy per Si atom -5573.096790 kJ/mol
# Density = 1.872681 g / cm^3
# Si number density = 18.769530 Si / 1000 Ang^3
#
#
#
# Elastic Constant Matrix: (Units=GPa)
#
#
# Indices 1 2 3 4 5 6 
#
# 1 63.1612 18.9278 62.7024 0.0000 0.0000 0.0000
# 2 18.9278 63.1614 62.7023 0.0000 0.0000 0.0000
# 3 62.7024 62.7023 236.5608 0.0000 0.0000 0.0000
# 4 0.0000 0.0000 0.0000 33.5288 0.0000 0.0000
# 5 0.0000 0.0000 0.0000 0.0000 33.5287 0.0000
# 6 0.0000 0.0000 0.0000 0.0000 0.0000 22.8535
#
#
#
# Elastic Compliance Matrix: (Units=1/GPa)
#
#
# Indices 1 2 3 4 5 6 
#
# 1 0.021539 -0.001068 -0.005426 0.000000 0.000000 0.000000
# 2 -0.001068 0.021539 -0.005426 0.000000 0.000000 0.000000
# 3 -0.005426 -0.005426 0.007104 0.000000 0.000000 0.000000
# 4 0.000000 0.000000 0.000000 0.029825 0.000000 0.000000
# 5 0.000000 0.000000 0.000000 0.000000 0.029825 0.000000
# 6 0.000000 0.000000 0.000000 0.000000 0.000000 0.043757
#
#
# Mechanical properties :
#
#
# Convention : Reuss Voigt Hill
#
# Bulk Modulus (GPa) = 37.96275 72.39429 55.17852
# Shear Modulus (GPa) = 26.85140 32.55226 29.70183
#
# Velocity S-wave (km/s) = 3.78641 4.16903 3.98232
# Velocity P-wave (km/s) = 6.27579 7.86309 7.11385
#
# Compressibility (1/GPa) = 0.02634161
#
# Stress axis : x y z
#
# Youngs Moduli (GPa) = 46.42699 46.42723 140.77268
#
# Poissons Ratio (x) = 0.04959 0.76383
# Poissons Ratio (y) = 0.04959 0.76383
# Poissons Ratio (z) = 0.25191 0.25191
#
# Static dielectric constant tensor:
#      x y z
#    x 1.593510 0.000000 0.000000 
#    y 0.000000 1.593510 0.000000 
#    z 0.000000 0.000000 1.724060 
# 
# From -- ./inp_files/4577.got.cif
#   From: 2010.05.17/outbox.cif.g08.bks.cpg/sg92_3_cif.got.tgz:4577.got - 2010.06.03 19:35:17.
