data_PCOD9548836
_publ_section_title
;
Structure prediction by ZEFSAII (Michael W. Deem and Ramdas Pophale) SiO2 
 PCOD9548836
Probable space group: P 41 2 2
;
_chemical_formula_sum "Si O2"
_cell_formula_units_Z 60
_cell_length_a 12.000000
_cell_length_b 12.000000
_cell_length_c 21.000000
_cell_angle_alpha 90.000000
_cell_angle_beta 90.000000
_cell_angle_gamma 90.000000
_cell_volume 3024.000000
_symmetry_space_group_name_H-M "P 41 2 2"
_symmetry_group_IT_number 91
_symmetry_cell_setting 'tetragonal'
loop_
_space_group_symop_operation_xyz
x,y,z
-y,x,1/4+z
-x,-y,1/2+z
y,-x,3/4+z
x,-y,1/2-z
-x,y,-z
y,x,3/4-z
-y,-x,1/4-z
loop_
_atom_site_type_symbol
_atom_site_label
_atom_site_fract_x
_atom_site_fract_y
_atom_site_fract_z
Si Si1 0.133796 0.704063 0.591041
Si Si2 0.588459 0.538073 0.948410
Si Si3 0.861921 0.954951 0.612175
Si Si4 0.708925 0.914733 0.096798
Si Si5 0.098437 0.667997 0.088247
Si Si6 0.688051 0.221589 0.530876
Si Si7 0.000000 0.872633 0.500000
Si Si8 0.831779 0.437815 0.964197
O O1 0.241842 0.758159 0.625000
O O2 0.153127 0.611022 0.535924
O O3 0.044401 0.674254 0.646299
O O4 0.066772 0.799523 0.551722
O O5 0.546273 0.546273 0.875000
O O6 0.622614 0.662323 0.971301
O O7 0.703370 0.470287 0.952744
O O8 0.500000 0.494489 0.000000
O O9 0.898258 0.842428 0.648105
O O10 0.898950 0.932880 0.538415
O O11 0.740291 0.991524 0.638868
O O12 0.940228 0.059772 0.625000
O O13 0.653958 0.862206 0.160703
O O14 0.673947 0.852018 0.032213
O O15 0.182668 0.745081 0.046193
O O16 0.160067 0.646287 0.155537
O O17 0.095702 0.549291 0.052028
#
# Coordination Sequence:
#
# PCOD9548836 Si02
#       8
#     8   8   8   8   8   8   4   8
#     4  11  23  42  68  98 135 198 243 280 359 452
#     4  11  22  42  72  98 126 178 241 301 363 426
#     4  11  22  36  63 105 135 178 228 285 350 430
#     4  11  23  39  67  99 139 191 229 284 367 440
#     4  10  22  39  63  98 142 170 224 294 367 426
#     4  10  20  39  61  99 131 166 225 289 358 424
#     4  10  20  40  66  96 144 184 234 288 348 450
#     4  11  22  45  66  95 143 187 236 295 365 442
#
# _framework density 19.841270000000002
#
# number of rings (size 3 to 8) (size 9 to 14) (size 15 to 20)
#    0.000    1.333    6.667    2.400    3.733    1.067 
#    9.600    0.000    0.000    0.000    0.000    0.000 
#    0.000    0.000    0.000    0.000    0.000    0.000 
#
# Total GULP energy -334675.823424 kJ/mol
# GULP energy per Si atom -5577.930390 kJ/mol
# Density = 1.979611 g / cm^3
# Si number density = 19.841270 Si / 1000 Ang^3
#
#
#
# Elastic Constant Matrix: (Units=GPa)
#
#
# Indices 1 2 3 4 5 6 
#
# 1 78.4668 26.1701 32.0149 0.0000 0.0000 0.0000
# 2 26.1701 78.4656 32.0142 0.0000 0.0000 0.0000
# 3 32.0149 32.0142 120.0955 0.0000 0.0000 0.0000
# 4 0.0000 0.0000 0.0000 38.5931 0.0000 0.0000
# 5 0.0000 0.0000 0.0000 0.0000 38.5928 0.0000
# 6 0.0000 0.0000 0.0000 0.0000 0.0000 28.5260
#
#
#
# Elastic Compliance Matrix: (Units=1/GPa)
#
#
# Indices 1 2 3 4 5 6 
#
# 1 0.015271 -0.003851 -0.003044 0.000000 0.000000 0.000000
# 2 -0.003851 0.015271 -0.003044 0.000000 0.000000 0.000000
# 3 -0.003044 -0.003044 0.009950 0.000000 0.000000 0.000000
# 4 0.000000 0.000000 0.000000 0.025911 0.000000 0.000000
# 5 0.000000 0.000000 0.000000 0.000000 0.025912 0.000000
# 6 0.000000 0.000000 0.000000 0.000000 0.000000 0.035056
#
#
# Mechanical properties :
#
#
# Convention : Reuss Voigt Hill
#
# Bulk Modulus (GPa) = 48.51469 50.82515 49.66992
# Shear Modulus (GPa) = 32.44228 33.59763 33.01995
#
# Velocity S-wave (km/s) = 4.04801 4.11946 4.08389
# Velocity P-wave (km/s) = 6.80831 6.94968 6.87936
#
# Compressibility (1/GPa) = 0.02061231
#
# Stress axis : x y z
#
# Youngs Moduli (GPa) = 65.48484 65.48402 100.50513
#
# Poissons Ratio (x) = 0.25218 0.30596
# Poissons Ratio (y) = 0.25219 0.30596
# Poissons Ratio (z) = 0.19935 0.19935
#
# Static dielectric constant tensor:
#      x y z
#    x 1.744420 0.000000 0.000000 
#    y 0.000000 1.744420 0.000000 
#    z 0.000000 0.000000 1.723710 
# 
# From -- ./inp_files/12528.got.cif
#   From: 2010.05.17/outbox.ucp.g08.bks.cvg/sg91_7_cif.got.tgz:12528.got - 2010.06.11 10:36:11.
