data_PCOD9548916
_publ_section_title
;
Structure prediction by ZEFSAII (Michael W. Deem and Ramdas Pophale) SiO2 
 PCOD9548916
Probable space group: P 41 21 2
;
_chemical_formula_sum "Si O2"
_cell_formula_units_Z 44
_cell_length_a 15.550065
_cell_length_b 15.550065
_cell_length_c 9.597797
_cell_angle_alpha 90.000000
_cell_angle_beta 90.000000
_cell_angle_gamma 90.000000
_cell_volume 2320.790711
_symmetry_space_group_name_H-M "P 41 21 2"
_symmetry_group_IT_number 92
_symmetry_cell_setting 'tetragonal'
loop_
_space_group_symop_operation_xyz
x,y,z
1/2-y,1/2+x,1/4+z
-x,-y,1/2+z
1/2+y,1/2-x,3/4+z
1/2+x,1/2-y,3/4-z
1/2-x,1/2+y,1/4-z
y,x,-z
-y,-x,1/2-z
loop_
_atom_site_type_symbol
_atom_site_label
_atom_site_fract_x
_atom_site_fract_y
_atom_site_fract_z
Si Si1 0.893810 0.252714 0.384323
Si Si2 0.422801 0.197629 0.669398
Si Si3 0.760493 0.735324 0.664593
Si Si4 0.170278 0.075924 0.874870
Si Si5 0.415421 0.006568 0.571199
Si Si6 0.577754 0.577754 0.000000
O O1 0.872926 0.276369 0.223622
O O2 0.819827 0.268013 0.495807
O O3 0.972836 0.317222 0.417394
O O4 0.910020 0.150378 0.370889
O O5 0.363919 0.223621 0.797729
O O6 0.510684 0.252275 0.666748
O O7 0.431299 0.095792 0.653947
O O8 0.746379 0.746379 0.500000
O O9 0.846621 0.786100 0.709153
O O10 0.099723 0.016367 0.802440
O O11 0.122573 0.122573 0.000000
O O12 0.473823 0.940450 0.661220
#
# Coordination Sequence:
#
# PCOD9548916 Si02
#       6
#     8   8   8   8   8   4
#     4  10  19  37  63  86 116 168 217 247 302 392
#     4  10  19  41  63  80 121 170 207 247 316 383
#     4  11  21  36  60  92 120 157 206 267 322 364
#     4  10  22  38  60  92 124 163 213 252 324 376
#     4  10  22  36  60  92 123 163 206 261 320 374
#     4  10  18  42  64  76 120 174 218 248 300 384
#
# _framework density 18.959054999999999
#
# number of rings (size 3 to 8) (size 9 to 14) (size 15 to 20)
#    0.000    1.818    3.636    3.273    0.000    4.364 
#    1.636    9.091    0.000    0.000    0.000    0.000 
#    0.000    0.000    0.000    0.000    0.000    0.000 
#
# Total GULP energy -245037.868045 kJ/mol
# GULP energy per Si atom -5569.042456 kJ/mol
# Density = 1.891590 g / cm^3
# Si number density = 18.959055 Si / 1000 Ang^3
#
#
#
# Elastic Constant Matrix: (Units=GPa)
#
#
# Indices 1 2 3 4 5 6 
#
# 1 86.0857 39.6494 28.7763 0.0000 0.0000 0.0000
# 2 39.6494 86.0857 28.7763 0.0000 0.0000 0.0000
# 3 28.7763 28.7763 60.7230 0.0000 0.0000 0.0000
# 4 0.0000 0.0000 0.0000 30.0180 0.0000 0.0000
# 5 0.0000 0.0000 0.0000 0.0000 30.0180 0.0000
# 6 0.0000 0.0000 0.0000 0.0000 0.0000 36.4793
#
#
#
# Elastic Compliance Matrix: (Units=1/GPa)
#
#
# Indices 1 2 3 4 5 6 
#
# 1 0.015846 -0.005689 -0.004813 0.000000 0.000000 0.000000
# 2 -0.005689 0.015846 -0.004813 0.000000 0.000000 0.000000
# 3 -0.004813 -0.004813 0.021030 0.000000 0.000000 0.000000
# 4 0.000000 0.000000 0.000000 0.033313 0.000000 0.000000
# 5 0.000000 0.000000 0.000000 0.000000 0.033313 0.000000
# 6 0.000000 0.000000 0.000000 0.000000 0.000000 0.027413
#
#
# Mechanical properties :
#
#
# Convention : Reuss Voigt Hill
#
# Bulk Modulus (GPa) = 45.26839 47.47761 46.37300
# Shear Modulus (GPa) = 27.06290 28.34921 27.70605
#
# Velocity S-wave (km/s) = 3.78225 3.87109 3.82692
# Velocity P-wave (km/s) = 6.55764 6.71394 6.63625
#
# Compressibility (1/GPa) = 0.02209047
#
# Stress axis : x y z
#
# Youngs Moduli (GPa) = 63.10908 63.10908 47.55125
#
# Poissons Ratio (x) = 0.35905 0.22886
# Poissons Ratio (y) = 0.35905 0.22886
# Poissons Ratio (z) = 0.30374 0.30374
#
# Static dielectric constant tensor:
#      x y z
#    x 1.702000 0.000000 0.000000 
#    y 0.000000 1.702000 0.000000 
#    z 0.000000 0.000000 1.612880 
# 
# From -- ./inp_files/2130.got.cif
#   From: 2010.05.17/outbox.cif.g08.bks.cpg/sg92_2_cif.got.tgz:2130.got - 2010.06.03 19:35:17.
