data_PCOD9548412
_publ_section_title
;
Structure prediction by ZEFSAII (Michael W. Deem and Ramdas Pophale) SiO2 
 PCOD9548412
Probable space group: P 41 2 2
;
_chemical_formula_sum "Si O2"
_cell_formula_units_Z 44
_cell_length_a 11.083691
_cell_length_b 11.083691
_cell_length_c 17.405275
_cell_angle_alpha 90.000000
_cell_angle_beta 90.000000
_cell_angle_gamma 90.000000
_cell_volume 2138.206812
_symmetry_space_group_name_H-M "P 41 2 2"
_symmetry_group_IT_number 91
_symmetry_cell_setting 'tetragonal'
loop_
_space_group_symop_operation_xyz
x,y,z
-y,x,1/4+z
-x,-y,1/2+z
y,-x,3/4+z
x,-y,1/2-z
-x,y,-z
y,x,3/4-z
-y,-x,1/4-z
loop_
_atom_site_type_symbol
_atom_site_label
_atom_site_fract_x
_atom_site_fract_y
_atom_site_fract_z
Si Si1 0.076462 0.076462 0.875000
Si Si2 0.555322 0.079477 0.919076
Si Si3 0.861002 0.173225 0.294964
Si Si4 0.663855 0.519723 0.114046
Si Si5 0.537582 0.345321 0.696886
Si Si6 0.415603 0.100600 0.684207
O O1 0.113644 0.151337 0.797112
O O2 0.939625 0.090787 0.905078
O O3 0.700700 0.077253 0.929482
O O4 0.530128 0.195183 0.867120
O O5 0.473976 0.969056 0.888534
O O6 0.500000 0.114485 0.000000
O O7 0.717207 0.162887 0.314699
O O8 0.616517 0.383484 0.125000
O O9 0.590663 0.591550 0.178376
O O10 0.620323 0.574366 0.032856
O O11 0.620366 0.379635 0.625000
O O12 0.511288 0.204700 0.699077
O O13 0.407892 0.000000 0.750000
#
# Coordination Sequence:
#
# PCOD9548412 Si02
#       6
#     4   8   8   8   8   8
#     4  10  22  46  78 100 142 188 238 298 364 420
#     4  12  26  42  70 108 137 183 241 298 368 436
#     4  11  24  47  73 107 141 189 244 303 362 442
#     4  11  22  40  65  98 133 174 228 283 356 423
#     4  11  23  42  65  94 137 185 226 286 361 429
#     4  12  24  45  68 101 143 183 238 303 358 433
#
# _framework density 20.577988999999999
#
# number of rings (size 3 to 8) (size 9 to 14) (size 15 to 20)
#    0.000    0.727    5.455    4.364    0.000    1.455 
#    9.818    0.000    0.000    0.000    0.000    0.000 
#    0.000    0.000    0.000    0.000    0.000    0.000 
#
# Total GULP energy -245157.944799 kJ/mol
# GULP energy per Si atom -5571.771473 kJ/mol
# Density = 2.053115 g / cm^3
# Si number density = 20.577989 Si / 1000 Ang^3
#
#
#
# Elastic Constant Matrix: (Units=GPa)
#
#
# Indices 1 2 3 4 5 6 
#
# 1 60.0542 10.0573 28.1569 0.0000 0.0000 0.0000
# 2 10.0573 60.0566 28.1561 0.0000 0.0000 0.0000
# 3 28.1569 28.1561 127.8933 0.0000 0.0000 0.0000
# 4 0.0000 0.0000 0.0000 24.2688 0.0000 0.0000
# 5 0.0000 0.0000 0.0000 0.0000 24.2684 0.0000
# 6 0.0000 0.0000 0.0000 0.0000 0.0000 31.9237
#
#
#
# Elastic Compliance Matrix: (Units=1/GPa)
#
#
# Indices 1 2 3 4 5 6 
#
# 1 0.018664 -0.001337 -0.003815 0.000000 0.000000 0.000000
# 2 -0.001337 0.018663 -0.003814 0.000000 0.000000 0.000000
# 3 -0.003815 -0.003814 0.009499 0.000000 0.000000 0.000000
# 4 0.000000 0.000000 0.000000 0.041205 0.000000 0.000000
# 5 0.000000 0.000000 0.000000 0.000000 0.041206 0.000000
# 6 0.000000 0.000000 0.000000 0.000000 0.000000 0.031325
#
#
# Mechanical properties :
#
#
# Convention : Reuss Voigt Hill
#
# Bulk Modulus (GPa) = 34.60988 42.30496 38.45742
# Shear Modulus (GPa) = 26.57807 28.20112 27.38959
#
# Velocity S-wave (km/s) = 3.59775 3.70598 3.65226
# Velocity P-wave (km/s) = 5.84070 6.23822 6.04273
#
# Compressibility (1/GPa) = 0.02889348
#
# Stress axis : x y z
#
# Youngs Moduli (GPa) = 53.57878 53.58151 105.27861
#
# Poissons Ratio (x) = 0.07164 0.40161
# Poissons Ratio (y) = 0.07164 0.40157
# Poissons Ratio (z) = 0.20439 0.20438
#
# Static dielectric constant tensor:
#      x y z
#    x 1.785390 0.000000 0.000000 
#    y 0.000000 1.785390 0.000000 
#    z 0.000000 0.000000 1.744340 
# 
# From -- ./inp_files/21038.got.cif
#   From: 2010.05.17/outbox.cif.g08.bks.cpg/sg91_11_cif.got.tgz:21038.got - 2010.06.03 19:20:03.
