data_PCOD9548690
_publ_section_title
;
Structure prediction by ZEFSAII (Michael W. Deem and Ramdas Pophale) SiO2 
 PCOD9548690
Probable space group: P 41 2 2
;
_chemical_formula_sum "Si O2"
_cell_formula_units_Z 32
_cell_length_a 9.482929
_cell_length_b 9.482929
_cell_length_c 15.336068
_cell_angle_alpha 90.000000
_cell_angle_beta 90.000000
_cell_angle_gamma 90.000000
_cell_volume 1379.110368
_symmetry_space_group_name_H-M "P 41 2 2"
_symmetry_group_IT_number 91
_symmetry_cell_setting 'tetragonal'
loop_
_space_group_symop_operation_xyz
x,y,z
-y,x,1/4+z
-x,-y,1/2+z
y,-x,3/4+z
x,-y,1/2-z
-x,y,-z
y,x,3/4-z
-y,-x,1/4-z
loop_
_atom_site_type_symbol
_atom_site_label
_atom_site_fract_x
_atom_site_fract_y
_atom_site_fract_z
Si Si1 0.749824 0.363269 0.859289
Si Si2 0.583629 0.103981 0.828854
Si Si3 0.132544 0.729547 0.542126
Si Si4 0.865505 0.324451 0.682564
O O1 0.612490 0.271595 0.829204
O O2 0.852317 0.299874 0.785156
O O3 0.531670 0.223978 0.594907
O O4 0.774682 0.321117 0.959115
O O5 0.418489 0.077354 0.830674
O O6 0.634163 0.000000 0.750000
O O7 0.652285 0.028078 0.911037
O O8 0.197905 0.802096 0.625000
O O9 0.000000 0.809698 0.500000
O O10 0.797591 0.202410 0.625000
#
# Coordination Sequence:
#
# PCOD9548690 Si02
#       4
#     8   8   8   8
#     4  11  23  38  72 101 133 187 232 296 358 428
#     4  11  22  45  68  99 144 183 231 298 368 432
#     4  11  25  46  66  98 142 186 242 293 360 439
#     4  11  22  42  70 103 142 177 238 294 363 434
#
# _framework density 23.203367
#
# number of rings (size 3 to 8) (size 9 to 14) (size 15 to 20)
#    0.000    1.000    7.500    0.000    3.500    2.000 
#    0.000    2.500    0.000    0.000    0.000    0.000 
#    0.000    0.000    0.000    0.000    0.000    0.000 
#
# Total GULP energy -178184.551325 kJ/mol
# GULP energy per Si atom -5568.267229 kJ/mol
# Density = 2.315056 g / cm^3
# Si number density = 23.203367 Si / 1000 Ang^3
#
#
#
# Elastic Constant Matrix: (Units=GPa)
#
#
# Indices 1 2 3 4 5 6 
#
# 1 52.4273 19.9779 10.0709 0.0000 0.0000 0.0000
# 2 19.9779 52.4280 10.0709 0.0000 0.0000 0.0000
# 3 10.0709 10.0709 149.8099 0.0000 0.0000 0.0000
# 4 0.0000 0.0000 0.0000 34.2527 0.0000 0.0000
# 5 0.0000 0.0000 0.0000 0.0000 34.2526 0.0000
# 6 0.0000 0.0000 0.0000 0.0000 0.0000 30.4684
#
#
#
# Elastic Compliance Matrix: (Units=1/GPa)
#
#
# Indices 1 2 3 4 5 6 
#
# 1 0.022446 -0.008371 -0.000946 0.000000 0.000000 0.000000
# 2 -0.008371 0.022445 -0.000946 0.000000 0.000000 0.000000
# 3 -0.000946 -0.000946 0.006802 0.000000 0.000000 0.000000
# 4 0.000000 0.000000 0.000000 0.029195 0.000000 0.000000
# 5 0.000000 0.000000 0.000000 0.000000 0.029195 0.000000
# 6 0.000000 0.000000 0.000000 0.000000 0.000000 0.032821
#
#
# Mechanical properties :
#
#
# Convention : Reuss Voigt Hill
#
# Bulk Modulus (GPa) = 32.08585 37.21161 34.64873
# Shear Modulus (GPa) = 28.76541 34.09779 31.43160
#
# Velocity S-wave (km/s) = 3.52477 3.83759 3.68450
# Velocity P-wave (km/s) = 5.51575 5.97563 5.75028
#
# Compressibility (1/GPa) = 0.03116639
#
# Stress axis : x y z
#
# Youngs Moduli (GPa) = 44.55188 44.55254 147.00841
#
# Poissons Ratio (x) = 0.37296 0.13909
# Poissons Ratio (y) = 0.37296 0.13909
# Poissons Ratio (z) = 0.04215 0.04215
#
# Static dielectric constant tensor:
#      x y z
#    x 1.935050 0.000000 0.000000 
#    y 0.000000 1.935050 0.000000 
#    z 0.000000 0.000000 1.996120 
# 
# From -- ./inp_files/11178.got.cif
#   From: 2010.05.17/outbox.cif.g08.bks.cpg/sg91_6_cif.got.tgz:11178.got - 2010.06.03 19:20:03.
