data_PCOD9548801
_publ_section_title
;
Structure prediction by ZEFSAII (Michael W. Deem and Ramdas Pophale) SiO2 
 PCOD9548801
Probable space group: P 41 2 2
;
_chemical_formula_sum "Si O2"
_cell_formula_units_Z 36
_cell_length_a 11.162222
_cell_length_b 11.162222
_cell_length_c 12.902712
_cell_angle_alpha 90.000000
_cell_angle_beta 90.000000
_cell_angle_gamma 90.000000
_cell_volume 1607.615982
_symmetry_space_group_name_H-M "P 41 2 2"
_symmetry_group_IT_number 91
_symmetry_cell_setting 'tetragonal'
loop_
_space_group_symop_operation_xyz
x,y,z
-y,x,1/4+z
-x,-y,1/2+z
y,-x,3/4+z
x,-y,1/2-z
-x,y,-z
y,x,3/4-z
-y,-x,1/4-z
loop_
_atom_site_type_symbol
_atom_site_label
_atom_site_fract_x
_atom_site_fract_y
_atom_site_fract_z
Si Si1 0.624014 0.624014 0.375000
Si Si2 0.786679 0.731782 0.216342
Si Si3 0.642135 0.034102 0.489986
Si Si4 0.243518 0.756483 0.125000
Si Si5 0.633858 0.362479 0.463004
Si Si6 0.728608 0.000000 0.250000
O O1 0.735836 0.640507 0.301130
O O2 0.627193 0.498874 0.430970
O O3 0.916374 0.679658 0.194385
O O4 0.684894 0.718827 0.128917
O O5 0.794931 0.870403 0.251524
O O6 0.500000 0.058328 0.500000
O O7 0.727307 0.133526 0.548001
O O8 0.667804 0.008836 0.366226
O O9 0.355226 0.737448 0.201197
O O10 0.500000 0.329005 0.500000
#
# Coordination Sequence:
#
# PCOD9548801 Si02
#       6
#     4   8   8   4   8   4
#     4  12  23  42  75 108 148 212 264 326 411 497
#     4  12  26  47  77 110 150 217 267 320 403 496
#     4  12  28  51  81 117 160 210 267 337 405 485
#     4  12  27  46  75 116 154 206 260 334 393 477
#     4  12  25  44  72 112 160 199 258 342 416 480
#     4  12  26  54  76 104 162 212 260 330 396 484
#
# _framework density 22.393407
#
# number of rings (size 3 to 8) (size 9 to 14) (size 15 to 20)
#    0.000    0.000    4.444    6.000    3.111    0.889 
#    4.000    0.000    0.000    0.000    0.000    0.000 
#    0.000    0.000    0.000    0.000    0.000    0.000 
#
# Total GULP energy -200486.245918 kJ/mol
# GULP energy per Si atom -5569.062387 kJ/mol
# Density = 2.234244 g / cm^3
# Si number density = 22.393407 Si / 1000 Ang^3
#
#
#
# Elastic Constant Matrix: (Units=GPa)
#
#
# Indices 1 2 3 4 5 6 
#
# 1 130.2795 58.4531 25.7271 0.0000 0.0000 0.0000
# 2 58.4531 130.2790 25.7273 0.0000 0.0000 0.0000
# 3 25.7271 25.7273 82.6482 0.0000 0.0000 0.0000
# 4 0.0000 0.0000 0.0000 34.7072 0.0000 0.0000
# 5 0.0000 0.0000 0.0000 0.0000 34.7072 0.0000
# 6 0.0000 0.0000 0.0000 0.0000 0.0000 25.6667
#
#
#
# Elastic Compliance Matrix: (Units=1/GPa)
#
#
# Indices 1 2 3 4 5 6 
#
# 1 0.009856 -0.004066 -0.001802 0.000000 0.000000 0.000000
# 2 -0.004066 0.009856 -0.001802 0.000000 0.000000 0.000000
# 3 -0.001802 -0.001802 0.013222 0.000000 0.000000 0.000000
# 4 0.000000 0.000000 0.000000 0.028812 0.000000 0.000000
# 5 0.000000 0.000000 0.000000 0.000000 0.028812 0.000000
# 6 0.000000 0.000000 0.000000 0.000000 0.000000 0.038961
#
#
# Mechanical properties :
#
#
# Convention : Reuss Voigt Hill
#
# Bulk Modulus (GPa) = 56.84378 62.55795 59.70086
# Shear Modulus (GPa) = 33.17285 34.56951 33.87118
#
# Velocity S-wave (km/s) = 3.85303 3.93330 3.89337
# Velocity P-wave (km/s) = 6.72560 6.97312 6.85048
#
# Compressibility (1/GPa) = 0.01759207
#
# Stress axis : x y z
#
# Youngs Moduli (GPa) = 101.45936 101.45890 75.63419
#
# Poissons Ratio (x) = 0.41256 0.13631
# Poissons Ratio (y) = 0.41257 0.13632
# Poissons Ratio (z) = 0.18286 0.18286
#
# Static dielectric constant tensor:
#      x y z
#    x 1.850640 0.000000 0.000000 
#    y 0.000000 1.850640 0.000000 
#    z 0.000000 0.000000 2.075490 
# 
# From -- ./inp_files/15696.got.cif
#   From: 2010.05.17/outbox.cif.g08.bks.cpg/sg91_8_cif.got.tgz:15696.got - 2010.06.03 19:20:03.
