data_PCOD9548079
_publ_section_title
;
Structure prediction by ZEFSAII (Michael W. Deem and Ramdas Pophale) SiO2 
 PCOD9548079
Probable space group: P 41 2 2
;
_chemical_formula_sum "Si O2"
_cell_formula_units_Z 48
_cell_length_a 15.536601
_cell_length_b 15.536601
_cell_length_c 10.841391
_cell_angle_alpha 90.000000
_cell_angle_beta 90.000000
_cell_angle_gamma 90.000000
_cell_volume 2616.959690
_symmetry_space_group_name_H-M "P 41 2 2"
_symmetry_group_IT_number 91
_symmetry_cell_setting 'tetragonal'
loop_
_space_group_symop_operation_xyz
x,y,z
-y,x,1/4+z
-x,-y,1/2+z
y,-x,3/4+z
x,-y,1/2-z
-x,y,-z
y,x,3/4-z
-y,-x,1/4-z
loop_
_atom_site_type_symbol
_atom_site_label
_atom_site_fract_x
_atom_site_fract_y
_atom_site_fract_z
Si Si1 0.916608 0.203415 0.083771
Si Si2 0.599831 0.137926 0.513539
Si Si3 0.638496 0.062217 0.991792
Si Si4 0.775244 0.452744 0.129159
Si Si5 0.764144 0.301982 0.948364
Si Si6 0.810915 0.366553 0.468700
O O1 0.892060 0.107941 0.125000
O O2 0.934042 0.268309 0.195776
O O3 0.830674 0.236420 0.012706
O O4 0.000000 0.207362 0.000000
O O5 0.500000 0.162386 0.500000
O O6 0.646811 0.177642 0.397196
O O7 0.647047 0.174181 0.636548
O O8 0.605076 0.034446 0.508200
O O9 0.582189 0.131863 0.070652
O O10 0.641126 0.099439 0.854411
O O11 0.733759 0.500000 0.250000
O O12 0.785048 0.533395 0.039636
O O13 0.736855 0.372288 0.052909
O O14 0.690793 0.253566 0.867284
#
# Coordination Sequence:
#
# PCOD9548079 Si02
#       6
#     8   8   8   8   8   8
#     4  11  21  40  67  84 117 158 206 256 311 365
#     4  12  22  36  56  87 128 162 202 255 321 374
#     4  10  21  35  59  92 117 156 195 258 316 378
#     4   9  20  35  54  88 117 152 200 253 307 363
#     4  11  22  37  59  89 120 162 207 247 315 380
#     4  11  21  37  56  85 124 161 204 248 307 366
#
# _framework density 18.341895000000001
#
# number of rings (size 3 to 8) (size 9 to 14) (size 15 to 20)
#    0.000    1.333    5.000    2.500    0.000    0.000 
#    0.000    0.000    3.667    0.000    0.000   10.500 
#    0.000    0.000    0.000    0.000    0.000    0.000 
#
# Total GULP energy -267422.878915 kJ/mol
# GULP energy per Si atom -5571.309977 kJ/mol
# Density = 1.830015 g / cm^3
# Si number density = 18.341895 Si / 1000 Ang^3
#
#
#
# Elastic Constant Matrix: (Units=GPa)
#
#
# Indices 1 2 3 4 5 6 
#
# 1 37.8776 60.7806 39.3223 0.0000 0.0000 0.0000
# 2 60.7806 37.8859 39.3260 0.0000 0.0000 0.0000
# 3 39.3223 39.3260 112.0152 0.0000 0.0000 0.0000
# 4 0.0000 0.0000 0.0000 32.9085 0.0000 0.0000
# 5 0.0000 0.0000 0.0000 0.0000 32.9075 0.0000
# 6 0.0000 0.0000 0.0000 0.0000 0.0000 -5.4917
#
#
#
# Elastic Compliance Matrix: (Units=1/GPa)
#
#
# Indices 1 2 3 4 5 6 
#
# 1 -0.014800 0.028872 -0.004941 0.000000 0.000000 0.000000
# 2 0.028872 -0.014796 -0.004941 0.000000 0.000000 0.000000
# 3 -0.004941 -0.004941 0.012396 0.000000 0.000000 0.000000
# 4 0.000000 0.000000 0.000000 0.030387 0.000000 0.000000
# 5 0.000000 0.000000 0.000000 0.000000 0.030388 0.000000
# 6 0.000000 0.000000 0.000000 0.000000 0.000000 -0.182093
#
#
# Mechanical properties :
#
#
# Convention : Reuss Voigt Hill
#
# Bulk Modulus (GPa) = 48.12025 51.84849 49.98437
# Shear Modulus (GPa) = -29.48620 15.28819 -7.09900
#
# Velocity S-wave (km/s) = -4.01382 2.89019 -1.96946
# Velocity P-wave (km/s) = 2.19342 6.28226 4.70520
#
# Compressibility (1/GPa) = 0.02078127
#
# Stress axis : x y z
#
# Youngs Moduli (GPa) = -67.56841 -67.58462 80.66816
#
# Poissons Ratio (x) = 1.95132 0.39858
# Poissons Ratio (y) = 1.95085 0.39857
# Poissons Ratio (z) = -0.33385 -0.33392
#
# Static dielectric constant tensor:
#      x y z
#    x 1.643990 0.000000 0.000000 
#    y 0.000000 1.643990 0.000000 
#    z 0.000000 0.000000 1.671380 
# 
# From -- ./inp_files/20229.got.cif
#   From: 2010.05.17/outbox.cif.g08.bks.cpg/sg91_11_cif.got.tgz:20229.got - 2010.06.03 19:20:03.
