data_PCOD9548418
_publ_section_title
;
Structure prediction by ZEFSAII (Michael W. Deem and Ramdas Pophale) SiO2 
 PCOD9548418
Probable space group: P 41 2 2
;
_chemical_formula_sum "Si O2"
_cell_formula_units_Z 36
_cell_length_a 8.290335
_cell_length_b 8.290335
_cell_length_c 23.405489
_cell_angle_alpha 90.000000
_cell_angle_beta 90.000000
_cell_angle_gamma 90.000000
_cell_volume 1608.651170
_symmetry_space_group_name_H-M "P 41 2 2"
_symmetry_group_IT_number 91
_symmetry_cell_setting 'tetragonal'
loop_
_space_group_symop_operation_xyz
x,y,z
-y,x,1/4+z
-x,-y,1/2+z
y,-x,3/4+z
x,-y,1/2-z
-x,y,-z
y,x,3/4-z
-y,-x,1/4-z
loop_
_atom_site_type_symbol
_atom_site_label
_atom_site_fract_x
_atom_site_fract_y
_atom_site_fract_z
Si Si1 0.504588 0.653413 0.435136
Si Si2 0.352399 0.005815 0.567747
Si Si3 0.776409 0.528858 0.904196
Si Si4 0.828876 0.160571 0.529495
Si Si5 0.000472 0.999529 0.125000
O O1 0.500000 0.573002 0.500000
O O2 0.588443 0.588443 0.375000
O O3 0.315255 0.634807 0.421165
O O4 0.587633 0.825556 0.444047
O O5 0.479467 0.087522 0.610099
O O6 0.316965 0.108726 0.510814
O O7 0.177076 0.007534 0.598138
O O8 0.641146 0.641146 0.875000
O O9 0.828443 0.651022 0.953587
O O10 0.851543 0.036248 0.581779
O O11 0.000000 0.136035 0.500000
#
# Coordination Sequence:
#
# PCOD9548418 Si02
#       5
#     8   8   8   8   4
#     4  11  28  49  74 112 152 201 256 324 400 471
#     4  11  26  46  76 102 151 196 260 312 388 465
#     4  11  27  43  70 101 148 184 244 310 385 455
#     4  10  24  44  73 102 137 193 250 311 373 463
#     4  10  22  50  70 104 140 196 260 308 378 454
#
# _framework density 22.378995
#
# number of rings (size 3 to 8) (size 9 to 14) (size 15 to 20)
#    0.000    1.333    2.222    0.000   18.667    0.000 
#    0.000    0.000    0.000    0.000    0.000    0.000 
#    0.000    0.000    0.000    0.000    0.000    0.000 
#
# Total GULP energy -200408.806972 kJ/mol
# GULP energy per Si atom -5566.911305 kJ/mol
# Density = 2.232806 g / cm^3
# Si number density = 22.378995 Si / 1000 Ang^3
#
#
#
# Elastic Constant Matrix: (Units=GPa)
#
#
# Indices 1 2 3 4 5 6 
#
# 1 99.9608 27.6747 43.7288 0.0000 0.0000 0.0000
# 2 27.6747 99.9606 43.7293 0.0000 0.0000 0.0000
# 3 43.7288 43.7293 126.4642 0.0000 0.0000 0.0000
# 4 0.0000 0.0000 0.0000 38.7769 0.0000 0.0000
# 5 0.0000 0.0000 0.0000 0.0000 38.7768 0.0000
# 6 0.0000 0.0000 0.0000 0.0000 0.0000 41.6131
#
#
#
# Elastic Compliance Matrix: (Units=1/GPa)
#
#
# Indices 1 2 3 4 5 6 
#
# 1 0.012051 -0.001783 -0.003550 0.000000 0.000000 0.000000
# 2 -0.001783 0.012051 -0.003550 0.000000 0.000000 0.000000
# 3 -0.003550 -0.003550 0.010363 0.000000 0.000000 0.000000
# 4 0.000000 0.000000 0.000000 0.025789 0.000000 0.000000
# 5 0.000000 0.000000 0.000000 0.000000 0.025789 0.000000
# 6 0.000000 0.000000 0.000000 0.000000 0.000000 0.024031
#
#
# Mechanical properties :
#
#
# Convention : Reuss Voigt Hill
#
# Bulk Modulus (GPa) = 59.89299 61.85013 60.87156
# Shear Modulus (GPa) = 37.47974 37.91690 37.69832
#
# Velocity S-wave (km/s) = 4.09684 4.12066 4.10877
# Velocity P-wave (km/s) = 7.01427 7.09488 7.05469
#
# Compressibility (1/GPa) = 0.01669645
#
# Stress axis : x y z
#
# Youngs Moduli (GPa) = 82.98262 82.98208 96.50031
#
# Poissons Ratio (x) = 0.14797 0.34260
# Poissons Ratio (y) = 0.14797 0.34261
# Poissons Ratio (z) = 0.29461 0.29462
#
# Static dielectric constant tensor:
#      x y z
#    x 1.817070 0.000000 0.000000 
#    y 0.000000 1.817070 0.000000 
#    z 0.000000 0.000000 1.196510 
# 
# From -- ./inp_files/12280.got.cif
#   From: 2010.05.17/outbox.cif.g08.bks.cpg/sg91_7_cif.got.tgz:12280.got - 2010.06.03 19:20:03.
