data_PCOD9548061
_publ_section_title
;
Structure prediction by ZEFSAII (Michael W. Deem and Ramdas Pophale) SiO2 
 PCOD9548061
Probable space group: P 41 2 2
;
_chemical_formula_sum "Si O2"
_cell_formula_units_Z 32
_cell_length_a 8.014019
_cell_length_b 8.014019
_cell_length_c 21.950862
_cell_angle_alpha 90.000000
_cell_angle_beta 90.000000
_cell_angle_gamma 90.000000
_cell_volume 1409.783148
_symmetry_space_group_name_H-M "P 41 2 2"
_symmetry_group_IT_number 91
_symmetry_cell_setting 'tetragonal'
loop_
_space_group_symop_operation_xyz
x,y,z
-y,x,1/4+z
-x,-y,1/2+z
y,-x,3/4+z
x,-y,1/2-z
-x,y,-z
y,x,3/4-z
-y,-x,1/4-z
loop_
_atom_site_type_symbol
_atom_site_label
_atom_site_fract_x
_atom_site_fract_y
_atom_site_fract_z
Si Si1 0.756872 0.000000 0.750000
Si Si2 0.495733 0.504268 0.625000
Si Si3 0.943706 0.664332 0.705657
Si Si4 0.522793 0.844989 0.174803
Si Si5 0.683943 0.321636 0.030584
O O1 0.856606 0.830284 0.733215
O O2 0.635724 0.953728 0.806800
O O3 0.523357 0.349325 0.668726
O O4 0.336218 0.531576 0.580715
O O5 0.925938 0.500000 0.750000
O O6 0.881281 0.609481 0.639059
O O7 0.137146 0.708302 0.694858
O O8 0.643304 0.827682 0.232506
O O9 0.500000 0.309612 0.000000
#
# Coordination Sequence:
#
# PCOD9548061 Si02
#       5
#     4   4   8   8   8
#     4  12  28  46  74 114 144 204 248 308 386 446
#     4  10  20  44  72 100 138 198 238 306 360 456
#     4  11  26  48  71 107 151 193 246 318 371 451
#     4  11  24  43  73 102 146 187 253 301 373 456
#     4   9  22  42  71 103 141 192 245 301 377 439
#
# _framework density 22.698528
#
# number of rings (size 3 to 8) (size 9 to 14) (size 15 to 20)
#    0.000    1.500    0.000    3.000   14.000    3.000 
#    0.000    0.000    0.000    0.000    0.000    0.000 
#    0.000    0.000    0.000    0.000    0.000    0.000 
#
# Total GULP energy -178353.851412 kJ/mol
# GULP energy per Si atom -5573.557857 kJ/mol
# Density = 2.264687 g / cm^3
# Si number density = 22.698528 Si / 1000 Ang^3
#
#
#
# Elastic Constant Matrix: (Units=GPa)
#
#
# Indices 1 2 3 4 5 6 
#
# 1 108.8373 58.6571 26.9391 0.0000 0.0000 0.0000
# 2 58.6571 108.8378 26.9393 0.0000 0.0000 0.0000
# 3 26.9391 26.9393 65.2001 0.0000 0.0000 0.0000
# 4 0.0000 0.0000 0.0000 117.5623 0.0000 0.0000
# 5 0.0000 0.0000 0.0000 0.0000 117.5775 0.0000
# 6 0.0000 0.0000 0.0000 0.0000 0.0000 18.8018
#
#
#
# Elastic Compliance Matrix: (Units=1/GPa)
#
#
# Indices 1 2 3 4 5 6 
#
# 1 0.013407 -0.006521 -0.002845 0.000000 0.000000 0.000000
# 2 -0.006521 0.013407 -0.002845 0.000000 0.000000 0.000000
# 3 -0.002845 -0.002845 0.017688 0.000000 0.000000 0.000000
# 4 0.000000 0.000000 0.000000 0.008506 0.000000 0.000000
# 5 0.000000 0.000000 0.000000 0.000000 0.008505 0.000000
# 6 0.000000 0.000000 0.000000 0.000000 0.000000 0.053186
#
#
# Mechanical properties :
#
#
# Convention : Reuss Voigt Hill
#
# Bulk Modulus (GPa) = 49.80185 56.43846 53.12015
# Shear Modulus (GPa) = 34.29003 62.14430 48.21716
#
# Velocity S-wave (km/s) = 3.89095 5.23809 4.61395
# Velocity P-wave (km/s) = 6.49417 7.84231 7.19986
#
# Compressibility (1/GPa) = 0.02007958
#
# Stress axis : x y z
#
# Youngs Moduli (GPa) = 74.58896 74.58925 56.53451
#
# Poissons Ratio (x) = 0.48642 0.16084
# Poissons Ratio (y) = 0.48642 0.16084
# Poissons Ratio (z) = 0.21220 0.21220
#
# Static dielectric constant tensor:
#      x y z
#    x 1.764410 0.000000 0.000000 
#    y 0.000000 1.764400 0.000000 
#    z 0.000000 0.000000 2.001320 
# 
# From -- ./inp_files/21342.got.cif
#   From: 2010.05.17/outbox.cif.g08.bks.cpg/sg91_11_cif.got.tgz:21342.got - 2010.06.03 19:20:03.
