data_PCOD9548044
_publ_section_title
;
Structure prediction by ZEFSAII (Michael W. Deem and Ramdas Pophale) SiO2 
 PCOD9548044
Probable space group: P 41 2 2
;
_chemical_formula_sum "Si O2"
_cell_formula_units_Z 40
_cell_length_a 8.668462
_cell_length_b 8.668462
_cell_length_c 25.778590
_cell_angle_alpha 90.000000
_cell_angle_beta 90.000000
_cell_angle_gamma 90.000000
_cell_volume 1937.060828
_symmetry_space_group_name_H-M "P 41 2 2"
_symmetry_group_IT_number 91
_symmetry_cell_setting 'tetragonal'
loop_
_space_group_symop_operation_xyz
x,y,z
-y,x,1/4+z
-x,-y,1/2+z
y,-x,3/4+z
x,-y,1/2-z
-x,y,-z
y,x,3/4-z
-y,-x,1/4-z
loop_
_atom_site_type_symbol
_atom_site_label
_atom_site_fract_x
_atom_site_fract_y
_atom_site_fract_z
Si Si1 0.030050 0.771066 0.295898
Si Si2 0.084115 0.397225 0.103552
Si Si3 0.000000 0.785454 0.500000
Si Si4 0.500000 0.768666 0.000000
Si Si5 0.594523 0.610875 0.656325
Si Si6 0.937132 0.663303 0.057598
O O1 0.990949 0.675986 0.347998
O O2 0.124070 0.649487 0.259819
O O3 0.156313 0.899052 0.313806
O O4 0.893758 0.856760 0.266837
O O5 0.262140 0.369884 0.117238
O O6 0.041874 0.315807 0.049958
O O7 0.049831 0.578594 0.097330
O O8 0.492701 0.659002 0.050260
O O9 0.450633 0.549368 0.625000
O O10 0.575813 0.773885 0.684748
O O11 0.000000 0.644694 0.000000
#
# Coordination Sequence:
#
# PCOD9548044 Si02
#       6
#     8   8   4   4   8   8
#     4  10  23  40  63  90 123 162 216 250 309 380
#     4  10  23  39  60  92 121 161 204 252 313 371
#     4  12  22  38  64  90 128 166 198 258 316 378
#     4   8  20  40  58  86 124 154 204 260 298 362
#     4  10  24  39  64  94 121 161 213 260 308 379
#     4  10  20  42  62  84 123 164 193 251 317 366
#
# _framework density 20.649842
#
# number of rings (size 3 to 8) (size 9 to 14) (size 15 to 20)
#    0.000    2.400    2.000    0.600    5.600    8.000 
#    0.000    0.000    0.000    0.000    0.000    0.000 
#    0.000    0.000    0.000    0.000    0.000    0.000 
#
# Total GULP energy -223170.192539 kJ/mol
# GULP energy per Si atom -5579.254813 kJ/mol
# Density = 2.060284 g / cm^3
# Si number density = 20.649842 Si / 1000 Ang^3
#
#
#
# Elastic Constant Matrix: (Units=GPa)
#
#
# Indices 1 2 3 4 5 6 
#
# 1 43.1885 11.7812 16.6456 0.0000 0.0000 0.0000
# 2 11.7812 43.1873 16.6453 0.0000 0.0000 0.0000
# 3 16.6456 16.6453 94.3335 0.0000 0.0000 0.0000
# 4 0.0000 0.0000 0.0000 28.9767 0.0000 0.0000
# 5 0.0000 0.0000 0.0000 0.0000 28.9773 0.0000
# 6 0.0000 0.0000 0.0000 0.0000 0.0000 14.0830
#
#
#
# Elastic Compliance Matrix: (Units=1/GPa)
#
#
# Indices 1 2 3 4 5 6 
#
# 1 0.026104 -0.005736 -0.003594 0.000000 0.000000 0.000000
# 2 -0.005736 0.026105 -0.003594 0.000000 0.000000 0.000000
# 3 -0.003594 -0.003594 0.011869 0.000000 0.000000 0.000000
# 4 0.000000 0.000000 0.000000 0.034510 0.000000 0.000000
# 5 0.000000 0.000000 0.000000 0.000000 0.034510 0.000000
# 6 0.000000 0.000000 0.000000 0.000000 0.000000 0.071008
#
#
# Mechanical properties :
#
#
# Convention : Reuss Voigt Hill
#
# Bulk Modulus (GPa) = 26.15743 30.09484 28.12614
# Shear Modulus (GPa) = 20.60176 23.44988 22.02582
#
# Velocity S-wave (km/s) = 3.16202 3.37352 3.26948
# Velocity P-wave (km/s) = 5.10155 5.45708 5.28230
#
# Compressibility (1/GPa) = 0.03823005
#
# Stress axis : x y z
#
# Youngs Moduli (GPa) = 38.30800 38.30692 84.25255
#
# Poissons Ratio (x) = 0.21972 0.30281
# Poissons Ratio (y) = 0.21973 0.30282
# Poissons Ratio (z) = 0.13768 0.13768
#
# Static dielectric constant tensor:
#      x y z
#    x 1.763430 0.000000 0.000000 
#    y 0.000000 1.763430 0.000000 
#    z 0.000000 0.000000 1.725070 
# 
# From -- ./inp_files/17814.got.cif
#   From: 2010.05.17/outbox.cif.g08.bks.cpg/sg91_9_cif.got.tgz:17814.got - 2010.06.03 19:20:03.
