data_PCOD9548870
_publ_section_title
;
Structure prediction by ZEFSAII (Michael W. Deem and Ramdas Pophale) SiO2 
 PCOD9548870
Probable space group: P 41 21 2
;
_chemical_formula_sum "Si O2"
_cell_formula_units_Z 32
_cell_length_a 17.017337
_cell_length_b 17.017337
_cell_length_c 5.007570
_cell_angle_alpha 90.000000
_cell_angle_beta 90.000000
_cell_angle_gamma 90.000000
_cell_volume 1450.140987
_symmetry_space_group_name_H-M "P 41 21 2"
_symmetry_group_IT_number 92
_symmetry_cell_setting 'tetragonal'
loop_
_space_group_symop_operation_xyz
x,y,z
1/2-y,1/2+x,1/4+z
-x,-y,1/2+z
1/2+y,1/2-x,3/4+z
1/2+x,1/2-y,3/4-z
1/2-x,1/2+y,1/4-z
y,x,-z
-y,-x,1/2-z
loop_
_atom_site_type_symbol
_atom_site_label
_atom_site_fract_x
_atom_site_fract_y
_atom_site_fract_z
Si Si1 0.587558 0.915800 0.702828
Si Si2 0.678464 0.443373 0.377731
Si Si3 0.541334 0.541334 0.500000
Si Si4 0.317693 0.121963 0.674578
Si Si5 0.301713 0.698288 0.250000
O O1 0.498469 0.905723 0.608413
O O2 0.634631 0.910761 0.426018
O O3 0.625342 0.858636 0.925465
O O4 0.609187 0.390814 0.250000
O O5 0.632973 0.522247 0.451121
O O6 0.752918 0.440413 0.185051
O O7 0.703805 0.388482 0.623018
O O8 0.488191 0.511809 0.250000
O O9 0.266099 0.195790 0.779943
#
# Coordination Sequence:
#
# PCOD9548870 Si02
#       5
#     8   8   4   8   4
#     4  12  25  44  68  98 127 162 221 290 348 384
#     4   9  18  32  56  92 130 169 219 258 307 380
#     4  10  18  28  50  85 130 170 206 267 312 342
#     4  11  22  38  66  97 130 166 210 277 326 402
#     4  10  18  38  60 101 132 168 224 257 306 412
#
# _framework density 22.06682
#
# number of rings (size 3 to 8) (size 9 to 14) (size 15 to 20)
#    0.000    1.500    3.750    3.000    0.000    0.000 
#    0.000    0.000    0.000    1.500    6.500    0.000 
#    0.000    0.000    0.000    0.000    0.000    0.000 
#
# Total GULP energy -178456.570583 kJ/mol
# GULP energy per Si atom -5576.767831 kJ/mol
# Density = 2.201659 g / cm^3
# Si number density = 22.066820 Si / 1000 Ang^3
#
#
#
# Elastic Constant Matrix: (Units=GPa)
#
#
# Indices 1 2 3 4 5 6 
#
# 1 45.5972 11.8838 25.1654 0.0000 0.0000 0.0000
# 2 11.8838 45.5958 25.1660 0.0000 0.0000 0.0000
# 3 25.1654 25.1660 159.6171 0.0000 0.0000 0.0000
# 4 0.0000 0.0000 0.0000 35.0191 0.0000 0.0000
# 5 0.0000 0.0000 0.0000 0.0000 35.0193 0.0000
# 6 0.0000 0.0000 0.0000 0.0000 0.0000 3.1542
#
#
#
# Elastic Compliance Matrix: (Units=1/GPa)
#
#
# Indices 1 2 3 4 5 6 
#
# 1 0.024923 -0.004739 -0.003182 0.000000 0.000000 0.000000
# 2 -0.004739 0.024924 -0.003182 0.000000 0.000000 0.000000
# 3 -0.003182 -0.003182 0.007268 0.000000 0.000000 0.000000
# 4 0.000000 0.000000 0.000000 0.028556 0.000000 0.000000
# 5 0.000000 0.000000 0.000000 0.000000 0.028556 0.000000
# 6 0.000000 0.000000 0.000000 0.000000 0.000000 0.317042
#
#
# Mechanical properties :
#
#
# Convention : Reuss Voigt Hill
#
# Bulk Modulus (GPa) = 28.64758 41.69340 35.17049
# Shear Modulus (GPa) = 10.75011 27.21149 18.98080
#
# Velocity S-wave (km/s) = 2.20957 3.51542 2.93602
# Velocity P-wave (km/s) = 4.41814 5.95086 5.24084
#
# Compressibility (1/GPa) = 0.03490696
#
# Stress axis : x y z
#
# Youngs Moduli (GPa) = 40.12429 40.12268 137.58130
#
# Poissons Ratio (x) = 0.19016 0.43780
# Poissons Ratio (y) = 0.19016 0.43783
# Poissons Ratio (z) = 0.12768 0.12769
#
# Static dielectric constant tensor:
#      x y z
#    x 1.861130 0.000000 0.000000 
#    y 0.000000 1.861130 0.000000 
#    z 0.000000 0.000000 1.900270 
# 
# From -- ./inp_files/362.got.cif
#   From: 2010.05.17/outbox.cif.g08.bks.cpg/sg92_1_cif.got.tgz:362.got - 2010.06.03 19:35:17.
