data_PCOD9548402
_publ_section_title
;
Structure prediction by ZEFSAII (Michael W. Deem and Ramdas Pophale) SiO2 
 PCOD9548402
Probable space group: P 41 2 2
;
_chemical_formula_sum "Si O2"
_cell_formula_units_Z 16
_cell_length_a 9.690397
_cell_length_b 9.690397
_cell_length_c 7.995623
_cell_angle_alpha 90.000000
_cell_angle_beta 90.000000
_cell_angle_gamma 90.000000
_cell_volume 750.819335
_symmetry_space_group_name_H-M "P 41 2 2"
_symmetry_group_IT_number 91
_symmetry_cell_setting 'tetragonal'
loop_
_space_group_symop_operation_xyz
x,y,z
-y,x,1/4+z
-x,-y,1/2+z
y,-x,3/4+z
x,-y,1/2-z
-x,y,-z
y,x,3/4-z
-y,-x,1/4-z
loop_
_atom_site_type_symbol
_atom_site_label
_atom_site_fract_x
_atom_site_fract_y
_atom_site_fract_z
Si Si1 0.757799 0.000000 0.750000
Si Si2 0.500000 0.679809 0.000000
Si Si3 0.101086 0.289627 0.157023
O O1 0.847770 0.867380 0.693212
O O2 0.670364 0.034283 0.585736
O O3 0.589592 0.589592 0.875000
O O4 0.393230 0.771762 0.892363
O O5 0.000000 0.292213 0.000000
#
# Coordination Sequence:
#
# PCOD9548402 Si02
#       3
#     4   4   8
#     4  10  22  44  72 114 138 182 252 304 382 448
#     4  12  28  52  70 108 154 208 262 304 378 470
#     4  11  25  43  76 110 147 190 241 321 379 442
#
# _framework density 21.310054999999998
#
# number of rings (size 3 to 8) (size 9 to 14) (size 15 to 20)
#    0.000    1.000    5.000    1.500   17.500    4.000 
#    0.000    0.000    0.000    0.000    0.000    0.000 
#    0.000    0.000    0.000    0.000    0.000    0.000 
#
# Total GULP energy -89416.022660 kJ/mol
# GULP energy per Si atom -5588.501416 kJ/mol
# Density = 2.126155 g / cm^3
# Si number density = 21.310055 Si / 1000 Ang^3
#
#
#
# Elastic Constant Matrix: (Units=GPa)
#
#
# Indices 1 2 3 4 5 6 
#
# 1 114.3584 110.9583 69.4391 0.0000 0.0000 0.0000
# 2 110.9583 114.3584 69.4391 0.0000 0.0000 0.0000
# 3 69.4391 69.4391 179.7285 0.0000 0.0000 0.0000
# 4 0.0000 0.0000 0.0000 25.5230 0.0000 0.0000
# 5 0.0000 0.0000 0.0000 0.0000 25.5230 0.0000
# 6 0.0000 0.0000 0.0000 0.0000 0.0000 32.0302
#
#
#
# Elastic Compliance Matrix: (Units=1/GPa)
#
#
# Indices 1 2 3 4 5 6 
#
# 1 0.149971 -0.144145 -0.002251 0.000000 0.000000 0.000000
# 2 -0.144145 0.149971 -0.002251 0.000000 0.000000 0.000000
# 3 -0.002251 -0.002251 0.007303 0.000000 0.000000 0.000000
# 4 0.000000 0.000000 0.000000 0.039180 0.000000 0.000000
# 5 0.000000 0.000000 0.000000 0.000000 0.039180 0.000000
# 6 0.000000 0.000000 0.000000 0.000000 0.000000 0.031221
#
#
# Mechanical properties :
#
#
# Convention : Reuss Voigt Hill
#
# Bulk Modulus (GPa) = 100.49026 100.90201 100.69614
# Shear Modulus (GPa) = 6.96925 27.18915 17.07920
#
# Velocity S-wave (km/s) = 1.81039 3.57583 2.83408
# Velocity P-wave (km/s) = 7.18531 8.03125 7.62003
#
# Compressibility (1/GPa) = 0.00995121
#
# Stress axis : x y z
#
# Youngs Moduli (GPa) = 6.66796 6.66796 136.92843
#
# Poissons Ratio (x) = 0.96116 0.30818
# Poissons Ratio (y) = 0.96116 0.30818
# Poissons Ratio (z) = 0.01501 0.01501
#
# Static dielectric constant tensor:
#      x y z
#    x 1.814400 0.000000 0.000000 
#    y 0.000000 1.814400 0.000000 
#    z 0.000000 0.000000 1.914600 
# 
# From -- ./inp_files/1583.got.cif
#   From: 2010.05.17/outbox.cif.g08.bks.cpg/sg91_1_cif.got.tgz:1583.got - 2010.06.03 19:20:03.
