data_PCOD9548590
_publ_section_title
;
Structure prediction by ZEFSAII (Michael W. Deem and Ramdas Pophale) SiO2 
 PCOD9548590
Probable space group: P 41 2 2
;
_chemical_formula_sum "Si O2"
_cell_formula_units_Z 40
_cell_length_a 11.471413
_cell_length_b 11.471413
_cell_length_c 14.073053
_cell_angle_alpha 90.000000
_cell_angle_beta 90.000000
_cell_angle_gamma 90.000000
_cell_volume 1851.919714
_symmetry_space_group_name_H-M "P 41 2 2"
_symmetry_group_IT_number 91
_symmetry_cell_setting 'tetragonal'
loop_
_space_group_symop_operation_xyz
x,y,z
-y,x,1/4+z
-x,-y,1/2+z
y,-x,3/4+z
x,-y,1/2-z
-x,y,-z
y,x,3/4-z
-y,-x,1/4-z
loop_
_atom_site_type_symbol
_atom_site_label
_atom_site_fract_x
_atom_site_fract_y
_atom_site_fract_z
Si Si1 0.514325 0.126762 0.222259
Si Si2 0.772277 0.294304 0.890696
Si Si3 0.175410 0.328820 0.810717
Si Si4 0.154872 0.983377 0.862633
Si Si5 0.372308 0.390160 0.485607
O O1 0.625303 0.146310 0.292410
O O2 0.558764 0.125739 0.113412
O O3 0.449757 0.249627 0.237726
O O4 0.462400 0.000000 0.250000
O O5 0.856174 0.191968 0.855408
O O6 0.718008 0.372095 0.808337
O O7 0.676157 0.231014 0.956879
O O8 0.283248 0.283248 0.875000
O O9 0.074748 0.231735 0.825837
O O10 0.178897 0.000000 0.750000
O O11 0.021982 0.021982 0.875000
O O12 0.500000 0.451110 0.500000
O O13 0.362863 0.362863 0.375000
#
# Coordination Sequence:
#
# PCOD9548590 Si02
#       5
#     8   8   8   8   8
#     4  11  21  44  75 105 140 189 252 302 367 457
#     4  11  21  42  69 100 141 187 243 310 374 445
#     4   9  17  33  67 103 129 171 240 301 342 431
#     4  11  17  34  66 101 136 180 234 296 373 428
#     4  12  28  50  71 100 149 207 242 307 390 450
#
# _framework density 21.599208000000001
#
# number of rings (size 3 to 8) (size 9 to 14) (size 15 to 20)
#    0.000    1.200   10.000    0.000    0.000    3.200 
#    3.600    4.000    0.000    0.000    0.000    0.000 
#    0.000    0.000    0.000    0.000    0.000    0.000 
#
# Total GULP energy -222775.649462 kJ/mol
# GULP energy per Si atom -5569.391237 kJ/mol
# Density = 2.155005 g / cm^3
# Si number density = 21.599208 Si / 1000 Ang^3
#
#
#
# Elastic Constant Matrix: (Units=GPa)
#
#
# Indices 1 2 3 4 5 6 
#
# 1 73.9184 37.3704 18.6484 0.0000 0.0000 0.0000
# 2 37.3704 73.9184 18.6484 0.0000 0.0000 0.0000
# 3 18.6484 18.6484 109.7313 0.0000 0.0000 0.0000
# 4 0.0000 0.0000 0.0000 14.9916 0.0000 0.0000
# 5 0.0000 0.0000 0.0000 0.0000 14.9916 0.0000
# 6 0.0000 0.0000 0.0000 0.0000 0.0000 35.9542
#
#
#
# Elastic Compliance Matrix: (Units=1/GPa)
#
#
# Indices 1 2 3 4 5 6 
#
# 1 0.018445 -0.008916 -0.001619 0.000000 0.000000 0.000000
# 2 -0.008916 0.018445 -0.001619 0.000000 0.000000 0.000000
# 3 -0.001619 -0.001619 0.009664 0.000000 0.000000 0.000000
# 4 0.000000 0.000000 0.000000 0.066704 0.000000 0.000000
# 5 0.000000 0.000000 0.000000 0.000000 0.066704 0.000000
# 6 0.000000 0.000000 0.000000 0.000000 0.000000 0.027813
#
#
# Mechanical properties :
#
#
# Convention : Reuss Voigt Hill
#
# Bulk Modulus (GPa) = 44.95799 45.21140 45.08470
# Shear Modulus (GPa) = 20.87693 25.38088 23.12891
#
# Velocity S-wave (km/s) = 3.11233 3.43167 3.27589
# Velocity P-wave (km/s) = 5.81165 6.05634 5.93525
#
# Compressibility (1/GPa) = 0.02224298
#
# Stress axis : x y z
#
# Youngs Moduli (GPa) = 54.21590 54.21590 103.48151
#
# Poissons Ratio (x) = 0.48341 0.16757
# Poissons Ratio (y) = 0.48341 0.16757
# Poissons Ratio (z) = 0.08779 0.08779
#
# Static dielectric constant tensor:
#      x y z
#    x 1.866040 0.000000 0.000000 
#    y 0.000000 1.866040 0.000000 
#    z 0.000000 0.000000 1.816300 
# 
# From -- ./inp_files/4737.got.cif
#   From: 2010.05.17/outbox.cif.g08.bks.cpg/sg91_3_cif.got.tgz:4737.got - 2010.06.03 19:20:03.
