data_PCOD9548163
_publ_section_title
;
Structure prediction by ZEFSAII (Michael W. Deem and Ramdas Pophale) SiO2 
 PCOD9548163
Probable space group: P 41 2 2
;
_chemical_formula_sum "Si O2"
_cell_formula_units_Z 52
_cell_length_a 15.743791
_cell_length_b 15.743791
_cell_length_c 9.590607
_cell_angle_alpha 90.000000
_cell_angle_beta 90.000000
_cell_angle_gamma 90.000000
_cell_volume 2377.194554
_symmetry_space_group_name_H-M "P 41 2 2"
_symmetry_group_IT_number 91
_symmetry_cell_setting 'tetragonal'
loop_
_space_group_symop_operation_xyz
x,y,z
-y,x,1/4+z
-x,-y,1/2+z
y,-x,3/4+z
x,-y,1/2-z
-x,y,-z
y,x,3/4-z
-y,-x,1/4-z
loop_
_atom_site_type_symbol
_atom_site_label
_atom_site_fract_x
_atom_site_fract_y
_atom_site_fract_z
Si Si1 0.075233 0.600425 0.087512
Si Si2 0.939029 0.670665 0.619674
Si Si3 0.455644 0.798680 0.795666
Si Si4 0.764470 0.834599 0.725913
Si Si5 0.500000 0.751112 0.500000
Si Si6 0.862252 0.906607 0.222160
Si Si7 0.318469 0.683650 0.459683
O O1 0.036583 0.636854 0.229971
O O2 0.155594 0.537858 0.110338
O O3 0.109555 0.682259 0.007117
O O4 0.000000 0.557936 0.000000
O O5 0.851233 0.626075 0.588990
O O6 0.929957 0.770991 0.596886
O O7 0.000000 0.639765 0.500000
O O8 0.470663 0.805763 0.630886
O O9 0.415082 0.705813 0.821922
O O10 0.834136 0.888797 0.638066
O O11 0.729184 0.754513 0.634928
O O12 0.802031 0.802031 0.875000
O O13 0.419267 0.698126 0.446987
O O14 0.863199 0.863199 0.375000
O O15 0.903365 0.000000 0.250000
O O16 0.299687 0.700314 0.625000
#
# Coordination Sequence:
#
# PCOD9548163 Si02
#       7
#     8   8   8   8   4   8   8
#     4  12  27  42  68 109 147 186 234 302 365 431
#     4  11  25  42  67 102 144 187 230 285 364 436
#     4  11  22  39  67  99 147 184 236 291 353 421
#     4  12  23  43  68 101 140 189 235 288 359 435
#     4  10  22  36  66 104 126 184 254 294 350 414
#     4  11  26  46  73 101 137 182 242 294 355 432
#     4  10  21  40  66  99 137 192 238 294 345 432
#
# _framework density 21.874524999999998
#
# number of rings (size 3 to 8) (size 9 to 14) (size 15 to 20)
#    0.000    0.923    4.615    1.385    8.615    0.000 
#    0.000    1.538    0.000    2.769    8.000    0.000 
#    0.000    0.000    0.000    0.000    0.000    0.000 
#
# Total GULP energy -289833.162934 kJ/mol
# GULP energy per Si atom -5573.714672 kJ/mol
# Density = 2.182474 g / cm^3
# Si number density = 21.874525 Si / 1000 Ang^3
#
#
#
# Elastic Constant Matrix: (Units=GPa)
#
#
# Indices 1 2 3 4 5 6 
#
# 1 64.8934 22.7664 28.0114 0.0000 0.0000 0.0000
# 2 22.7664 64.8934 28.0116 0.0000 0.0000 0.0000
# 3 28.0114 28.0116 123.6878 0.0000 0.0000 0.0000
# 4 0.0000 0.0000 0.0000 15.1758 0.0000 0.0000
# 5 0.0000 0.0000 0.0000 0.0000 15.1753 0.0000
# 6 0.0000 0.0000 0.0000 0.0000 0.0000 6.7999
#
#
#
# Elastic Compliance Matrix: (Units=1/GPa)
#
#
# Indices 1 2 3 4 5 6 
#
# 1 0.018538 -0.005200 -0.003021 0.000000 0.000000 0.000000
# 2 -0.005200 0.018538 -0.003021 0.000000 0.000000 0.000000
# 3 -0.003021 -0.003021 0.009453 0.000000 0.000000 0.000000
# 4 0.000000 0.000000 0.000000 0.065895 0.000000 0.000000
# 5 0.000000 0.000000 0.000000 0.000000 0.065896 0.000000
# 6 0.000000 0.000000 0.000000 0.000000 0.000000 0.147062
#
#
# Mechanical properties :
#
#
# Convention : Reuss Voigt Hill
#
# Bulk Modulus (GPa) = 41.58566 45.67260 43.62913
# Shear Modulus (GPa) = 14.04969 19.07587 16.56278
#
# Velocity S-wave (km/s) = 2.53708 2.95627 2.75466
# Velocity P-wave (km/s) = 5.25687 5.70766 5.48690
#
# Compressibility (1/GPa) = 0.02404675
#
# Stress axis : x y z
#
# Youngs Moduli (GPa) = 53.94333 53.94313 105.78575
#
# Poissons Ratio (x) = 0.28049 0.31954
# Poissons Ratio (y) = 0.28049 0.31955
# Poissons Ratio (z) = 0.16295 0.16295
#
# Static dielectric constant tensor:
#      x y z
#    x 2.030110 0.000000 0.000000 
#    y 0.000000 2.030110 0.000000 
#    z 0.000000 0.000000 1.862290 
# 
# From -- ./inp_files/2755.got.cif
#   From: 2010.05.17/outbox.cif.g08.bks.cpg/sg91_2_cif.got.tgz:2755.got - 2010.06.03 19:20:03.
