data_PCOD9548166
_publ_section_title
;
Structure prediction by ZEFSAII (Michael W. Deem and Ramdas Pophale) SiO2 
 PCOD9548166
Probable space group: P 41 2 2
;
_chemical_formula_sum "Si O2"
_cell_formula_units_Z 60
_cell_length_a 18.264361
_cell_length_b 18.264361
_cell_length_c 9.048371
_cell_angle_alpha 90.000000
_cell_angle_beta 90.000000
_cell_angle_gamma 90.000000
_cell_volume 3018.417876
_symmetry_space_group_name_H-M "P 41 2 2"
_symmetry_group_IT_number 91
_symmetry_cell_setting 'tetragonal'
loop_
_space_group_symop_operation_xyz
x,y,z
-y,x,1/4+z
-x,-y,1/2+z
y,-x,3/4+z
x,-y,1/2-z
-x,y,-z
y,x,3/4-z
-y,-x,1/4-z
loop_
_atom_site_type_symbol
_atom_site_label
_atom_site_fract_x
_atom_site_fract_y
_atom_site_fract_z
Si Si1 0.161894 0.097506 0.512783
Si Si2 0.308262 0.427886 0.334080
Si Si3 0.638396 0.103691 0.880718
Si Si4 0.192800 0.634032 0.401343
Si Si5 0.085723 0.000000 0.750000
Si Si6 0.773696 0.797210 0.533389
Si Si7 0.507542 0.789379 0.656952
Si Si8 0.056601 0.323213 0.297202
O O1 0.107111 0.107111 0.375000
O O2 0.181092 0.178170 0.573811
O O3 0.235194 0.056170 0.462877
O O4 0.132072 0.056915 0.655593
O O5 0.337437 0.500000 0.250000
O O6 0.370416 0.370416 0.375000
O O7 0.247666 0.392802 0.226211
O O8 0.263757 0.453046 0.477871
O O9 0.697645 0.160013 0.948878
O O10 0.559392 0.141210 0.876127
O O11 0.657746 0.087582 0.709232
O O12 0.645005 0.025414 0.962422
O O13 0.227195 0.709049 0.462961
O O14 0.188548 0.569953 0.521996
O O15 0.113720 0.649457 0.326961
O O16 0.038729 0.961272 0.625000
O O17 0.812243 0.812243 0.375000
O O18 0.500000 0.750334 0.500000
#
# Coordination Sequence:
#
# PCOD9548166 Si02
#       8
#     8   8   8   8   4   8   8   8
#     4  11  24  43  68  90 127 171 223 285 343 406
#     4  10  21  40  68  94 129 171 220 263 328 401
#     4  11  22  40  67  93 131 172 220 274 329 396
#     4  10  22  41  65  94 130 171 220 271 321 407
#     4  12  28  44  64  92 128 174 220 288 360 420
#     4  11  23  40  66  96 126 171 223 277 334 394
#     4  11  23  43  64  98 133 170 215 274 333 394
#     4  10  23  40  62  97 127 173 227 270 328 400
#
# _framework density 19.877962
#
# number of rings (size 3 to 8) (size 9 to 14) (size 15 to 20)
#    0.000    1.333    2.667    2.400    3.733    0.000 
#    4.800    2.667    0.000    0.000    0.000    0.000 
#    0.000    0.000    0.000    0.000    0.000    0.000 
#
# Total GULP energy -335225.888642 kJ/mol
# GULP energy per Si atom -5587.098144 kJ/mol
# Density = 1.983272 g / cm^3
# Si number density = 19.877962 Si / 1000 Ang^3
#
#
#
# Elastic Constant Matrix: (Units=GPa)
#
#
# Indices 1 2 3 4 5 6 
#
# 1 97.7529 79.9609 40.0920 0.0000 0.0000 0.0000
# 2 79.9609 97.7546 40.0905 0.0000 0.0000 0.0000
# 3 40.0920 40.0905 113.2466 0.0000 0.0000 0.0000
# 4 0.0000 0.0000 0.0000 29.4296 0.0000 0.0000
# 5 0.0000 0.0000 0.0000 0.0000 29.4290 0.0000
# 6 0.0000 0.0000 0.0000 0.0000 0.0000 27.4580
#
#
#
# Elastic Compliance Matrix: (Units=1/GPa)
#
#
# Indices 1 2 3 4 5 6 
#
# 1 0.031450 -0.024753 -0.002371 0.000000 0.000000 0.000000
# 2 -0.024753 0.031449 -0.002370 0.000000 0.000000 0.000000
# 3 -0.002371 -0.002370 0.010509 0.000000 0.000000 0.000000
# 4 0.000000 0.000000 0.000000 0.033979 0.000000 0.000000
# 5 0.000000 0.000000 0.000000 0.000000 0.033980 0.000000
# 6 0.000000 0.000000 0.000000 0.000000 0.000000 0.036419
#
#
# Mechanical properties :
#
#
# Convention : Reuss Voigt Hill
#
# Bulk Modulus (GPa) = 69.35190 69.89345 69.62267
# Shear Modulus (GPa) = 20.69691 27.17068 23.93380
#
# Velocity S-wave (km/s) = 3.23026 3.70114 3.47369
# Velocity P-wave (km/s) = 6.99124 7.31452 7.15470
#
# Compressibility (1/GPa) = 0.01441922
#
# Stress axis : x y z
#
# Youngs Moduli (GPa) = 31.79641 31.79745 95.15790
#
# Poissons Ratio (x) = 0.78708 0.22565
# Poissons Ratio (y) = 0.78705 0.22554
# Poissons Ratio (z) = 0.07540 0.07537
#
# Static dielectric constant tensor:
#      x y z
#    x 1.707940 0.000000 0.000000 
#    y 0.000000 1.707940 0.000000 
#    z 0.000000 0.000000 1.711950 
# 
# From -- ./inp_files/2794.got.cif
#   From: 2010.05.17/outbox.cif.g08.bks.cpg/sg91_2_cif.got.tgz:2794.got - 2010.06.03 19:20:03.
