data_PCOD9548574
_publ_section_title
;
Structure prediction by ZEFSAII (Michael W. Deem and Ramdas Pophale) SiO2 
 PCOD9548574
Probable space group: P 41 2 2
;
_chemical_formula_sum "Si O2"
_cell_formula_units_Z 40
_cell_length_a 12.277085
_cell_length_b 12.277085
_cell_length_c 11.982495
_cell_angle_alpha 90.000000
_cell_angle_beta 90.000000
_cell_angle_gamma 90.000000
_cell_volume 1806.083320
_symmetry_space_group_name_H-M "P 41 2 2"
_symmetry_group_IT_number 91
_symmetry_cell_setting 'tetragonal'
loop_
_space_group_symop_operation_xyz
x,y,z
-y,x,1/4+z
-x,-y,1/2+z
y,-x,3/4+z
x,-y,1/2-z
-x,y,-z
y,x,3/4-z
-y,-x,1/4-z
loop_
_atom_site_type_symbol
_atom_site_label
_atom_site_fract_x
_atom_site_fract_y
_atom_site_fract_z
Si Si1 0.287514 0.334503 0.161847
Si Si2 0.000000 0.960150 0.500000
Si Si3 0.951901 0.407536 0.115776
Si Si4 0.154560 0.771371 0.739212
Si Si5 0.705212 0.462193 0.063968
Si Si6 0.500000 0.131711 0.500000
O O1 0.412667 0.327891 0.194082
O O2 0.206128 0.391439 0.248877
O O3 0.254439 0.222036 0.100385
O O4 0.282763 0.417521 0.059166
O O5 0.108293 0.889518 0.505131
O O6 0.012603 0.012603 0.375000
O O7 0.940158 0.313410 0.208605
O O8 0.828865 0.455194 0.113416
O O9 0.046293 0.491364 0.148398
O O10 0.000000 0.360156 0.000000
O O11 0.228437 0.771564 0.625000
O O12 0.610982 0.389019 0.125000
#
# Coordination Sequence:
#
# PCOD9548574 Si02
#       6
#     8   4   8   8   8   4
#     4  12  26  45  66 108 144 195 245 307 382 456
#     4  10  26  42  74 108 146 198 254 334 384 468
#     4  12  23  47  76 109 140 189 257 319 380 451
#     4  11  22  43  75 103 136 189 257 321 376 460
#     4  12  25  45  74 105 141 191 253 308 365 457
#     4  12  28  40  72 102 150 188 228 318 380 446
#
# _framework density 22.147372000000001
#
# number of rings (size 3 to 8) (size 9 to 14) (size 15 to 20)
#    0.000    0.400    6.000    1.800   14.000    0.000 
#    0.000    2.000    0.000    0.000    0.000    0.000 
#    0.000    0.000    0.000    0.000    0.000    0.000 
#
# Total GULP energy -223098.005234 kJ/mol
# GULP energy per Si atom -5577.450131 kJ/mol
# Density = 2.209696 g / cm^3
# Si number density = 22.147372 Si / 1000 Ang^3
#
#
#
# Elastic Constant Matrix: (Units=GPa)
#
#
# Indices 1 2 3 4 5 6 
#
# 1 118.1323 78.8166 30.9594 0.0000 0.0000 0.0000
# 2 78.8166 118.1271 30.9581 0.0000 0.0000 0.0000
# 3 30.9594 30.9581 65.8329 0.0000 0.0000 0.0000
# 4 0.0000 0.0000 0.0000 34.3820 0.0000 0.0000
# 5 0.0000 0.0000 0.0000 0.0000 34.3825 0.0000
# 6 0.0000 0.0000 0.0000 0.0000 0.0000 24.5822
#
#
#
# Elastic Compliance Matrix: (Units=1/GPa)
#
#
# Indices 1 2 3 4 5 6 
#
# 1 0.015697 -0.009739 -0.002802 0.000000 0.000000 0.000000
# 2 -0.009739 0.015698 -0.002802 0.000000 0.000000 0.000000
# 3 -0.002802 -0.002802 0.017825 0.000000 0.000000 0.000000
# 4 0.000000 0.000000 0.000000 0.029085 0.000000 0.000000
# 5 0.000000 0.000000 0.000000 0.000000 0.029085 0.000000
# 6 0.000000 0.000000 0.000000 0.000000 0.000000 0.040680
#
#
# Mechanical properties :
#
#
# Convention : Reuss Voigt Hill
#
# Bulk Modulus (GPa) = 53.95455 64.84003 59.39729
# Shear Modulus (GPa) = 27.03661 29.42657 28.23159
#
# Velocity S-wave (km/s) = 3.49773 3.64905 3.57419
# Velocity P-wave (km/s) = 6.38174 6.86253 6.62649
#
# Compressibility (1/GPa) = 0.01853412
#
# Stress axis : x y z
#
# Youngs Moduli (GPa) = 63.70515 63.70267 56.09989
#
# Poissons Ratio (x) = 0.62041 0.15720
# Poissons Ratio (y) = 0.62044 0.15719
# Poissons Ratio (z) = 0.17851 0.17849
#
# Static dielectric constant tensor:
#      x y z
#    x 1.899500 0.000000 0.000000 
#    y 0.000000 1.899500 0.000000 
#    z 0.000000 0.000000 2.006060 
# 
# From -- ./inp_files/11392.got.cif
#   From: 2010.05.17/outbox.cif.g08.bks.cpg/sg91_6_cif.got.tgz:11392.got - 2010.06.03 19:20:03.
