data_PCOD9548558
_publ_section_title
;
Structure prediction by ZEFSAII (Michael W. Deem and Ramdas Pophale) SiO2 
 PCOD9548558
Probable space group: P 41 2 2
;
_chemical_formula_sum "Si O2"
_cell_formula_units_Z 56
_cell_length_a 15.272417
_cell_length_b 15.272417
_cell_length_c 13.214155
_cell_angle_alpha 90.000000
_cell_angle_beta 90.000000
_cell_angle_gamma 90.000000
_cell_volume 3082.158325
_symmetry_space_group_name_H-M "P 41 2 2"
_symmetry_group_IT_number 91
_symmetry_cell_setting 'tetragonal'
loop_
_space_group_symop_operation_xyz
x,y,z
-y,x,1/4+z
-x,-y,1/2+z
y,-x,3/4+z
x,-y,1/2-z
-x,y,-z
y,x,3/4-z
-y,-x,1/4-z
loop_
_atom_site_type_symbol
_atom_site_label
_atom_site_fract_x
_atom_site_fract_y
_atom_site_fract_z
Si Si1 0.709342 0.589350 0.805968
Si Si2 0.178634 0.676759 0.369347
Si Si3 0.733699 0.808137 0.472002
Si Si4 0.039145 0.523730 0.892850
Si Si5 0.004993 0.652102 0.732384
Si Si6 0.803853 0.504208 0.984762
Si Si7 0.305220 0.562594 0.655353
O O1 0.679057 0.500000 0.750000
O O2 0.638181 0.638181 0.875000
O O3 0.753423 0.649048 0.719097
O O4 0.784388 0.560282 0.886017
O O5 0.221068 0.754489 0.436047
O O6 0.166847 0.591373 0.442380
O O7 0.082883 0.690492 0.317907
O O8 0.795956 0.795956 0.375000
O O9 0.713911 0.910371 0.490199
O O10 0.642237 0.760842 0.437581
O O11 0.990439 0.604094 0.839999
O O12 0.035416 0.434415 0.830241
O O13 0.136384 0.547071 0.927839
O O14 0.000000 0.502248 0.000000
O O15 0.720144 0.484124 0.051430
O O16 0.308205 0.500000 0.750000
O O17 0.395649 0.604352 0.625000
#
# Coordination Sequence:
#
# PCOD9548558 Si02
#       7
#     8   8   8   8   8   8   8
#     4  10  25  41  63  83 120 171 211 255 311 355
#     4  11  22  41  60  89 129 155 200 258 312 383
#     4  11  22  39  62  88 120 164 197 249 318 367
#     4  11  20  32  59  88 123 156 188 255 316 370
#     4  11  23  35  57  97 122 154 206 243 313 384
#     4  11  20  36  60  83 117 160 200 255 312 363
#     4  11  22  36  56  81 111 158 210 257 297 351
#
# _framework density 18.169087000000001
#
# number of rings (size 3 to 8) (size 9 to 14) (size 15 to 20)
#    0.000    1.143    5.714    1.714    8.000    0.000 
#    0.000    2.143    0.000    0.000    0.000    3.000 
#    0.000    0.000    0.000    0.000    0.000    0.000 
#
# Total GULP energy -311987.908991 kJ/mol
# GULP energy per Si atom -5571.212661 kJ/mol
# Density = 1.812773 g / cm^3
# Si number density = 18.169087 Si / 1000 Ang^3
#
#
#
# Elastic Constant Matrix: (Units=GPa)
#
#
# Indices 1 2 3 4 5 6 
#
# 1 72.8945 36.7693 36.5218 0.0000 0.0000 0.0000
# 2 36.7693 72.8938 36.5219 0.0000 0.0000 0.0000
# 3 36.5218 36.5219 105.2730 0.0000 0.0000 0.0000
# 4 0.0000 0.0000 0.0000 -8.4261 0.0000 0.0000
# 5 0.0000 0.0000 0.0000 0.0000 -8.3659 0.0000
# 6 0.0000 0.0000 0.0000 0.0000 0.0000 -41.2835
#
#
#
# Elastic Compliance Matrix: (Units=1/GPa)
#
#
# Indices 1 2 3 4 5 6 
#
# 1 0.019770 -0.007911 -0.004114 0.000000 0.000000 0.000000
# 2 -0.007911 0.019771 -0.004114 0.000000 0.000000 0.000000
# 3 -0.004114 -0.004114 0.012354 0.000000 0.000000 0.000000
# 4 0.000000 0.000000 0.000000 -0.118678 0.000000 0.000000
# 5 0.000000 0.000000 0.000000 0.000000 -0.119532 0.000000
# 6 0.000000 0.000000 0.000000 0.000000 0.000000 -0.024223
#
#
# Mechanical properties :
#
#
# Convention : Reuss Voigt Hill
#
# Bulk Modulus (GPa) = 50.98097 52.29861 51.63979
# Shear Modulus (GPa) = -29.11706 -2.19856 -15.65781
#
# Velocity S-wave (km/s) = -4.00754 -1.10122 -2.93880
# Velocity P-wave (km/s) = 2.58964 5.21823 4.11924
#
# Compressibility (1/GPa) = 0.01961516
#
# Stress axis : x y z
#
# Youngs Moduli (GPa) = 50.58078 50.58006 80.94686
#
# Poissons Ratio (x) = 0.40015 0.33303
# Poissons Ratio (y) = 0.40016 0.33304
# Poissons Ratio (z) = 0.20810 0.20810
#
# Static dielectric constant tensor:
#      x y z
#    x 1.586410 0.000000 0.000000 
#    y 0.000000 1.586310 0.000000 
#    z 0.000000 0.000000 1.665170 
# 
# From -- ./inp_files/3925.got.cif
#   From: 2010.05.17/outbox.cif.g08.bks.cpg/sg91_2_cif.got.tgz:3925.got - 2010.06.03 19:20:03.
