data_PCOD9548492
_publ_section_title
;
Structure prediction by ZEFSAII (Michael W. Deem and Ramdas Pophale) SiO2 
 PCOD9548492
Probable space group: P 41 2 2
;
_chemical_formula_sum "Si O2"
_cell_formula_units_Z 24
_cell_length_a 13.836801
_cell_length_b 13.836801
_cell_length_c 5.704217
_cell_angle_alpha 90.000000
_cell_angle_beta 90.000000
_cell_angle_gamma 90.000000
_cell_volume 1092.112627
_symmetry_space_group_name_H-M "P 41 2 2"
_symmetry_group_IT_number 91
_symmetry_cell_setting 'tetragonal'
loop_
_space_group_symop_operation_xyz
x,y,z
-y,x,1/4+z
-x,-y,1/2+z
y,-x,3/4+z
x,-y,1/2-z
-x,y,-z
y,x,3/4-z
-y,-x,1/4-z
loop_
_atom_site_type_symbol
_atom_site_label
_atom_site_fract_x
_atom_site_fract_y
_atom_site_fract_z
Si Si1 0.681484 0.748332 0.631454
Si Si2 0.500000 0.855794 0.500000
Si Si3 0.000000 0.643740 0.500000
Si Si4 0.066430 0.186425 0.696139
O O1 0.697977 0.697977 0.375000
O O2 0.575315 0.792465 0.639708
O O3 0.759235 0.835794 0.632628
O O4 0.693303 0.693303 0.875000
O O5 0.569180 0.916555 0.324727
O O6 0.000015 0.723512 0.707331
O O7 0.000000 0.141434 0.500000
O O8 0.106854 0.106854 0.875000
#
# Coordination Sequence:
#
# PCOD9548492 Si02
#       4
#     8   4   4   8
#     4  10  24  43  68 106 146 180 226 289 366 428
#     4  10  24  40  74 106 134 182 236 300 352 418
#     4  10  24  40  64 104 134 174 240 298 342 410
#     4  10  24  41  68  95 139 192 237 293 352 414
#
# _framework density 21.975756000000001
#
# number of rings (size 3 to 8) (size 9 to 14) (size 15 to 20)
#    0.000    2.000    0.000    0.000   23.333    1.333 
#    0.000    0.000    3.667   10.000    0.000    0.000 
#    0.000    0.000    0.000    0.000    0.000    0.000 
#
# Total GULP energy -133790.124097 kJ/mol
# GULP energy per Si atom -5574.588504 kJ/mol
# Density = 2.192574 g / cm^3
# Si number density = 21.975756 Si / 1000 Ang^3
#
#
#
# Elastic Constant Matrix: (Units=GPa)
#
#
# Indices 1 2 3 4 5 6 
#
# 1 116.0944 80.9026 83.5966 0.0000 0.0000 0.0000
# 2 80.9026 116.0944 83.5966 0.0000 0.0000 0.0000
# 3 83.5966 83.5966 154.0109 0.0000 0.0000 0.0000
# 4 0.0000 0.0000 0.0000 19.9998 0.0000 0.0000
# 5 0.0000 0.0000 0.0000 0.0000 19.9998 0.0000
# 6 0.0000 0.0000 0.0000 0.0000 0.0000 20.2030
#
#
#
# Elastic Compliance Matrix: (Units=1/GPa)
#
#
# Indices 1 2 3 4 5 6 
#
# 1 0.018914 -0.009502 -0.005109 0.000000 0.000000 0.000000
# 2 -0.009502 0.018914 -0.005109 0.000000 0.000000 0.000000
# 3 -0.005109 -0.005109 0.012039 0.000000 0.000000 0.000000
# 4 0.000000 0.000000 0.000000 0.050001 0.000000 0.000000
# 5 0.000000 0.000000 0.000000 0.000000 0.050001 0.000000
# 6 0.000000 0.000000 0.000000 0.000000 0.000000 0.049498
#
#
# Mechanical properties :
#
#
# Convention : Reuss Voigt Hill
#
# Bulk Modulus (GPa) = 95.89565 98.04350 96.96958
# Shear Modulus (GPa) = 20.63718 21.24743 20.94231
#
# Velocity S-wave (km/s) = 3.06778 3.11281 3.09038
# Velocity P-wave (km/s) = 7.50201 7.59149 7.54688
#
# Compressibility (1/GPa) = 0.01042800
#
# Stress axis : x y z
#
# Youngs Moduli (GPa) = 52.87109 52.87109 83.06161
#
# Poissons Ratio (x) = 0.50237 0.42435
# Poissons Ratio (y) = 0.50237 0.42435
# Poissons Ratio (z) = 0.27011 0.27011
#
# Static dielectric constant tensor:
#      x y z
#    x 1.670780 0.000000 0.000000 
#    y 0.000000 1.670780 0.000000 
#    z 0.000000 0.000000 2.006690 
# 
# From -- ./inp_files/303.got.cif
#   From: 2010.05.17/outbox.cif.g08.bks.cpg/sg91_1_cif.got.tgz:303.got - 2010.06.03 19:20:03.
