data_PCOD9548021
_publ_section_title
;
Structure prediction by ZEFSAII (Michael W. Deem and Ramdas Pophale) SiO2 
 PCOD9548021
Probable space group: P 41 2 2
;
_chemical_formula_sum "Si O2"
_cell_formula_units_Z 48
_cell_length_a 20.014103
_cell_length_b 20.014103
_cell_length_c 5.691884
_cell_angle_alpha 90.000000
_cell_angle_beta 90.000000
_cell_angle_gamma 90.000000
_cell_volume 2279.965638
_symmetry_space_group_name_H-M "P 41 2 2"
_symmetry_group_IT_number 91
_symmetry_cell_setting 'tetragonal'
loop_
_space_group_symop_operation_xyz
x,y,z
-y,x,1/4+z
-x,-y,1/2+z
y,-x,3/4+z
x,-y,1/2-z
-x,y,-z
y,x,3/4-z
-y,-x,1/4-z
loop_
_atom_site_type_symbol
_atom_site_label
_atom_site_fract_x
_atom_site_fract_y
_atom_site_fract_z
Si Si1 0.216832 0.040324 0.006948
Si Si2 0.284914 0.820163 0.541333
Si Si3 0.422368 0.976172 0.002025
Si Si4 0.071271 0.928730 0.625000
Si Si5 0.722191 0.623812 0.991437
Si Si6 0.411793 0.826592 0.871398
Si Si7 0.760535 0.500000 0.250000
O O1 0.264555 0.104766 0.020073
O O2 0.226865 0.000000 0.250000
O O3 0.140536 0.068611 0.017026
O O4 0.223770 0.000000 0.750000
O O5 0.219736 0.780265 0.625000
O O6 0.319898 0.771850 0.349326
O O7 0.340836 0.826460 0.741145
O O8 0.420365 0.896529 0.998891
O O9 0.393100 0.000000 0.750000
O O10 0.500000 0.999876 0.000000
O O11 0.392504 0.000000 0.250000
O O12 0.000000 0.927796 0.500000
O O13 0.658616 0.658616 0.875000
O O14 0.763892 0.589160 0.789006
O O15 0.715518 0.563783 0.177791
O O16 0.470247 0.811796 0.689769
#
# Coordination Sequence:
#
# PCOD9548021 Si02
#       7
#     8   8   8   4   8   8   4
#     4  11  26  44  68  98 133 183 242 306 379 445
#     4  11  24  45  65  98 139 183 231 296 358 442
#     4  10  23  39  62  90 129 179 229 281 340 402
#     4  10  20  40  66  96 122 168 234 308 372 448
#     4  11  23  42  72 102 144 183 232 284 362 423
#     4  11  24  43  67  99 136 188 230 293 350 424
#     4  10  24  40  72 104 144 172 240 292 346 422
#
# _framework density 21.052948000000001
#
# number of rings (size 3 to 8) (size 9 to 14) (size 15 to 20)
#    0.000    1.333    2.500    2.000   10.500    2.667 
#    0.000    0.000    0.000    0.000    0.000    0.000 
#   35.000    0.000    0.000    0.000    0.000    0.000 
#
# Total GULP energy -267879.985265 kJ/mol
# GULP energy per Si atom -5580.833026 kJ/mol
# Density = 2.100503 g / cm^3
# Si number density = 21.052948 Si / 1000 Ang^3
#
#
#
# Elastic Constant Matrix: (Units=GPa)
#
#
# Indices 1 2 3 4 5 6 
#
# 1 104.5468 46.9970 42.9526 0.0000 0.0000 0.0000
# 2 46.9970 104.5451 42.9524 0.0000 0.0000 0.0000
# 3 42.9526 42.9524 121.4081 0.0000 0.0000 0.0000
# 4 0.0000 0.0000 0.0000 17.2713 0.0000 0.0000
# 5 0.0000 0.0000 0.0000 0.0000 17.2773 0.0000
# 6 0.0000 0.0000 0.0000 0.0000 0.0000 32.6993
#
#
#
# Elastic Compliance Matrix: (Units=1/GPa)
#
#
# Indices 1 2 3 4 5 6 
#
# 1 0.012815 -0.004561 -0.002920 0.000000 0.000000 0.000000
# 2 -0.004561 0.012815 -0.002920 0.000000 0.000000 0.000000
# 3 -0.002920 -0.002920 0.010303 0.000000 0.000000 0.000000
# 4 0.000000 0.000000 0.000000 0.057900 0.000000 0.000000
# 5 0.000000 0.000000 0.000000 0.000000 0.057880 0.000000
# 6 0.000000 0.000000 0.000000 0.000000 0.000000 0.030582
#
#
# Mechanical properties :
#
#
# Convention : Reuss Voigt Hill
#
# Bulk Modulus (GPa) = 66.09195 66.25600 66.17398
# Shear Modulus (GPa) = 24.02216 26.62276 25.32246
#
# Velocity S-wave (km/s) = 3.38159 3.55993 3.47190
# Velocity P-wave (km/s) = 6.83434 6.95966 6.89728
#
# Compressibility (1/GPa) = 0.01513043
#
# Stress axis : x y z
#
# Youngs Moduli (GPa) = 78.03223 78.03085 97.05966
#
# Poissons Ratio (x) = 0.35591 0.28343
# Poissons Ratio (y) = 0.35592 0.28344
# Poissons Ratio (z) = 0.22787 0.22787
#
# Static dielectric constant tensor:
#      x y z
#    x 1.783160 0.000000 0.000000 
#    y 0.000000 1.783150 0.000000 
#    z 0.000000 0.000000 1.777190 
# 
# From -- ./inp_files/1288.got.cif
#   From: 2010.05.17/outbox.cif.g08.bks.cpg/sg91_1_cif.got.tgz:1288.got - 2010.06.03 19:20:03.
