data_PCOD9548110
_publ_section_title
;
Structure prediction by ZEFSAII (Michael W. Deem and Ramdas Pophale) SiO2 
 PCOD9548110
Probable space group: P 41 2 2
;
_chemical_formula_sum "Si O2"
_cell_formula_units_Z 48
_cell_length_a 11.800251
_cell_length_b 11.800251
_cell_length_c 16.258711
_cell_angle_alpha 90.000000
_cell_angle_beta 90.000000
_cell_angle_gamma 90.000000
_cell_volume 2263.959231
_symmetry_space_group_name_H-M "P 41 2 2"
_symmetry_group_IT_number 91
_symmetry_cell_setting 'tetragonal'
loop_
_space_group_symop_operation_xyz
x,y,z
-y,x,1/4+z
-x,-y,1/2+z
y,-x,3/4+z
x,-y,1/2-z
-x,y,-z
y,x,3/4-z
-y,-x,1/4-z
loop_
_atom_site_type_symbol
_atom_site_label
_atom_site_fract_x
_atom_site_fract_y
_atom_site_fract_z
Si Si1 0.578582 0.123024 0.788786
Si Si2 0.722050 0.434779 0.677966
Si Si3 0.927692 0.328315 0.793856
Si Si4 0.378328 0.171374 0.024605
Si Si5 0.207130 0.624552 0.450618
Si Si6 0.871409 0.817089 0.969384
O O1 0.613890 0.124682 0.882621
O O2 0.457541 0.181252 0.776595
O O3 0.688999 0.170506 0.740657
O O4 0.563172 0.000000 0.750000
O O5 0.654479 0.500000 0.750000
O O6 0.658287 0.341714 0.625000
O O7 0.837211 0.388230 0.726837
O O8 0.737631 0.535337 0.612650
O O9 0.896871 0.343339 0.889830
O O10 0.905645 0.198498 0.772743
O O11 0.056681 0.361497 0.777658
O O12 0.281361 0.267067 0.025142
O O13 0.500000 0.222126 0.000000
O O14 0.850620 0.850620 0.875000
O O15 0.000000 0.818293 0.000000
#
# Coordination Sequence:
#
# PCOD9548110 Si02
#       6
#     8   8   8   8   8   8
#     4  11  22  43  71 102 130 178 239 280 345 417
#     4  10  21  37  64  97 128 169 221 287 347 402
#     4  11  21  43  68  98 133 177 235 284 343 409
#     4  12  26  45  68  98 138 188 226 288 359 419
#     4  11  24  40  65 102 134 175 231 277 345 426
#     4  11  22  38  71 108 137 173 230 302 355 410
#
# _framework density 21.201796000000002
#
# number of rings (size 3 to 8) (size 9 to 14) (size 15 to 20)
#    0.000    1.000    1.667    8.000    2.333    1.333 
#    0.000    0.833    3.667    0.000    0.000    0.000 
#    0.000    0.000    0.000    0.000    0.000    0.000 
#
# Total GULP energy -267531.508693 kJ/mol
# GULP energy per Si atom -5573.573098 kJ/mol
# Density = 2.115354 g / cm^3
# Si number density = 21.201796 Si / 1000 Ang^3
#
#
#
# Elastic Constant Matrix: (Units=GPa)
#
#
# Indices 1 2 3 4 5 6 
#
# 1 88.3775 25.3411 10.4417 0.0000 0.0000 0.0000
# 2 25.3411 88.3776 10.4414 0.0000 0.0000 0.0000
# 3 10.4417 10.4414 31.6549 0.0000 0.0000 0.0000
# 4 0.0000 0.0000 0.0000 30.7236 0.0000 0.0000
# 5 0.0000 0.0000 0.0000 0.0000 30.7236 0.0000
# 6 0.0000 0.0000 0.0000 0.0000 0.0000 26.2584
#
#
#
# Elastic Compliance Matrix: (Units=1/GPa)
#
#
# Indices 1 2 3 4 5 6 
#
# 1 0.012612 -0.003252 -0.003088 0.000000 0.000000 0.000000
# 2 -0.003252 0.012612 -0.003088 0.000000 0.000000 0.000000
# 3 -0.003088 -0.003088 0.033628 0.000000 0.000000 0.000000
# 4 0.000000 0.000000 0.000000 0.032548 0.000000 0.000000
# 5 0.000000 0.000000 0.000000 0.000000 0.032548 0.000000
# 6 0.000000 0.000000 0.000000 0.000000 0.000000 0.038083
#
#
# Mechanical properties :
#
#
# Convention : Reuss Voigt Hill
#
# Bulk Modulus (GPa) = 25.00109 33.42872 29.21490
# Shear Modulus (GPa) = 25.74422 28.35350 27.04886
#
# Velocity S-wave (km/s) = 3.48839 3.66090 3.57568
# Velocity P-wave (km/s) = 5.29553 5.80265 5.55488
#
# Compressibility (1/GPa) = 0.03999826
#
# Stress axis : x y z
#
# Youngs Moduli (GPa) = 79.28790 79.28819 29.73745
#
# Poissons Ratio (x) = 0.25781 0.09182
# Poissons Ratio (y) = 0.25781 0.09182
# Poissons Ratio (z) = 0.24482 0.24481
#
# Static dielectric constant tensor:
#      x y z
#    x 1.841070 0.000000 0.000000 
#    y 0.000000 1.841070 0.000000 
#    z 0.000000 0.000000 1.844540 
# 
# From -- ./inp_files/5609.got.cif
#   From: 2010.05.17/outbox.cif.g08.bks.cpg/sg91_3_cif.got.tgz:5609.got - 2010.06.03 19:20:03.
