data_PCOD9548237
_publ_section_title
;
Structure prediction by ZEFSAII (Michael W. Deem and Ramdas Pophale) SiO2 
 PCOD9548237
Probable space group: P 41 2 2
;
_chemical_formula_sum "Si O2"
_cell_formula_units_Z 48
_cell_length_a 20.796179
_cell_length_b 20.796179
_cell_length_c 5.743120
_cell_angle_alpha 90.000000
_cell_angle_beta 90.000000
_cell_angle_gamma 90.000000
_cell_volume 2483.790631
_symmetry_space_group_name_H-M "P 41 2 2"
_symmetry_group_IT_number 91
_symmetry_cell_setting 'tetragonal'
loop_
_space_group_symop_operation_xyz
x,y,z
-y,x,1/4+z
-x,-y,1/2+z
y,-x,3/4+z
x,-y,1/2-z
-x,y,-z
y,x,3/4-z
-y,-x,1/4-z
loop_
_atom_site_type_symbol
_atom_site_label
_atom_site_fract_x
_atom_site_fract_y
_atom_site_fract_z
Si Si1 0.558655 0.803929 0.178585
Si Si2 0.700280 0.015995 0.493027
Si Si3 0.430308 0.070173 0.006893
Si Si4 0.572209 0.326678 0.030978
Si Si5 0.856340 0.351106 0.599868
Si Si6 0.691151 0.259851 0.868743
O O1 0.561280 0.869378 0.330999
O O2 0.559033 0.737900 0.318394
O O3 0.500000 0.803635 0.000000
O O4 0.623267 0.805352 0.030862
O O5 0.689969 0.091832 0.514213
O O6 0.727355 0.000000 0.750000
O O7 0.631711 0.976186 0.475893
O O8 0.734375 0.000000 0.250000
O O9 0.500000 0.036526 0.000000
O O10 0.411868 0.103946 0.249993
O O11 0.614995 0.385006 0.125000
O O12 0.500000 0.351506 0.000000
O O13 0.621965 0.296118 0.843741
O O14 0.817304 0.320512 0.386976
O O15 0.728252 0.271749 0.625000
O O16 0.718726 0.281275 0.125000
#
# Coordination Sequence:
#
# PCOD9548237 Si02
#       6
#     8   8   8   8   8   8
#     4  12  21  35  61  79 105 143 179 222 284 356
#     4  10  22  34  50  77 112 152 184 215 262 327
#     4  11  21  34  49  77 113 147 184 217 268 336
#     4  11  24  43  60  84 104 133 177 235 312 391
#     4  11  21  36  54  78 112 147 184 227 278 337
#     4  11  24  41  64  87 110 140 186 243 299 361
#
# _framework density 19.325299000000001
#
# number of rings (size 3 to 8) (size 9 to 14) (size 15 to 20)
#    0.000    1.000    5.000    3.500    0.000    2.667 
#    0.000    1.667    0.000    0.000    0.000    0.000 
#    0.000    0.000    0.000    0.000    0.000    0.000 
#
# Total GULP energy -267210.045759 kJ/mol
# GULP energy per Si atom -5566.875953 kJ/mol
# Density = 1.928131 g / cm^3
# Si number density = 19.325299 Si / 1000 Ang^3
#
#
#
# Elastic Constant Matrix: (Units=GPa)
#
#
# Indices 1 2 3 4 5 6 
#
# 1 68.7759 19.1171 19.6333 0.0000 0.0000 0.0000
# 2 19.1171 68.7804 19.6356 0.0000 0.0000 0.0000
# 3 19.6333 19.6356 108.0498 0.0000 0.0000 0.0000
# 4 0.0000 0.0000 0.0000 26.1447 0.0000 0.0000
# 5 0.0000 0.0000 0.0000 0.0000 26.1444 0.0000
# 6 0.0000 0.0000 0.0000 0.0000 0.0000 8.2106
#
#
#
# Elastic Compliance Matrix: (Units=1/GPa)
#
#
# Indices 1 2 3 4 5 6 
#
# 1 0.016260 -0.003877 -0.002250 0.000000 0.000000 0.000000
# 2 -0.003877 0.016259 -0.002250 0.000000 0.000000 0.000000
# 3 -0.002250 -0.002250 0.010073 0.000000 0.000000 0.000000
# 4 0.000000 0.000000 0.000000 0.038249 0.000000 0.000000
# 5 0.000000 0.000000 0.000000 0.000000 0.038249 0.000000
# 6 0.000000 0.000000 0.000000 0.000000 0.000000 0.121794
#
#
# Mechanical properties :
#
#
# Convention : Reuss Voigt Hill
#
# Bulk Modulus (GPa) = 38.70378 40.26422 39.48400
# Shear Modulus (GPa) = 18.77932 24.58128 21.68030
#
# Velocity S-wave (km/s) = 3.12067 3.57034 3.35305
# Velocity P-wave (km/s) = 5.74941 6.15440 5.95535
#
# Compressibility (1/GPa) = 0.02583727
#
# Stress axis : x y z
#
# Youngs Moduli (GPa) = 61.50085 61.50427 99.27776
#
# Poissons Ratio (x) = 0.23845 0.22337
# Poissons Ratio (y) = 0.23844 0.22340
# Poissons Ratio (z) = 0.13837 0.13840
#
# Static dielectric constant tensor:
#      x y z
#    x 1.745200 0.000000 0.000000 
#    y 0.000000 1.745200 0.000000 
#    z 0.000000 0.000000 1.942450 
# 
# From -- ./inp_files/8897.got.cif
#   From: 2010.05.17/outbox.cif.g08.bks.cpg/sg91_5_cif.got.tgz:8897.got - 2010.06.03 19:20:03.
