data_PCOD9548203
_publ_section_title
;
Structure prediction by ZEFSAII (Michael W. Deem and Ramdas Pophale) SiO2 
 PCOD9548203
Probable space group: P 41 2 2
;
_chemical_formula_sum "Si O2"
_cell_formula_units_Z 40
_cell_length_a 11.106282
_cell_length_b 11.106282
_cell_length_c 14.690117
_cell_angle_alpha 90.000000
_cell_angle_beta 90.000000
_cell_angle_gamma 90.000000
_cell_volume 1812.018585
_symmetry_space_group_name_H-M "P 41 2 2"
_symmetry_group_IT_number 91
_symmetry_cell_setting 'tetragonal'
loop_
_space_group_symop_operation_xyz
x,y,z
-y,x,1/4+z
-x,-y,1/2+z
y,-x,3/4+z
x,-y,1/2-z
-x,y,-z
y,x,3/4-z
-y,-x,1/4-z
loop_
_atom_site_type_symbol
_atom_site_label
_atom_site_fract_x
_atom_site_fract_y
_atom_site_fract_z
Si Si1 0.125388 0.269534 0.545982
Si Si2 0.175781 0.824220 0.125000
Si Si3 0.534196 0.663417 0.098383
Si Si4 0.497601 0.233297 0.206537
Si Si5 0.861732 0.916272 0.534425
Si Si6 0.760941 0.760941 0.375000
O O1 0.205453 0.266849 0.455624
O O2 0.122776 0.409321 0.570300
O O3 0.157991 0.176403 0.624815
O O4 0.000000 0.230051 0.500000
O O5 0.049062 0.824157 0.180580
O O6 0.435439 0.564562 0.125000
O O7 0.533548 0.749245 0.186856
O O8 0.655545 0.584080 0.082050
O O9 0.500000 0.719070 0.000000
O O10 0.624693 0.224830 0.157437
O O11 0.787551 0.857620 0.453671
O O12 0.000000 0.917357 0.500000
#
# Coordination Sequence:
#
# PCOD9548203 Si02
#       6
#     8   4   8   8   8   4
#     4  10  23  39  61  91 129 164 206 272 341 386
#     4  10  21  42  69  94 118 162 222 280 323 388
#     4   9  19  35  60  86 114 169 223 262 291 366
#     4  11  22  39  59  90 135 167 216 260 325 397
#     4  11  22  42  69  95 121 165 226 277 328 393
#     4  12  25  38  67  98 134 174 208 276 335 388
#
# _framework density 22.074829999999999
#
# number of rings (size 3 to 8) (size 9 to 14) (size 15 to 20)
#    0.000    1.600    1.000    4.800    4.200    3.200 
#    0.000    2.000    0.000    0.000    0.000    0.000 
#    0.000    0.000    0.000    0.000    0.000    0.000 
#
# Total GULP energy -222830.573483 kJ/mol
# GULP energy per Si atom -5570.764337 kJ/mol
# Density = 2.202459 g / cm^3
# Si number density = 22.074830 Si / 1000 Ang^3
#
#
#
# Elastic Constant Matrix: (Units=GPa)
#
#
# Indices 1 2 3 4 5 6 
#
# 1 51.1260 47.7399 45.7163 0.0000 0.0000 0.0000
# 2 47.7399 51.1263 45.7159 0.0000 0.0000 0.0000
# 3 45.7163 45.7159 165.8925 0.0000 0.0000 0.0000
# 4 0.0000 0.0000 0.0000 21.1784 0.0000 0.0000
# 5 0.0000 0.0000 0.0000 0.0000 21.1780 0.0000
# 6 0.0000 0.0000 0.0000 0.0000 0.0000 27.1534
#
#
#
# Elastic Compliance Matrix: (Units=1/GPa)
#
#
# Indices 1 2 3 4 5 6 
#
# 1 0.154443 -0.140867 -0.003741 0.000000 0.000000 0.000000
# 2 -0.140867 0.154440 -0.003740 0.000000 0.000000 0.000000
# 3 -0.003741 -0.003740 0.008090 0.000000 0.000000 0.000000
# 4 0.000000 0.000000 0.000000 0.047218 0.000000 0.000000
# 5 0.000000 0.000000 0.000000 0.000000 0.047219 0.000000
# 6 0.000000 0.000000 0.000000 0.000000 0.000000 0.036828
#
#
# Mechanical properties :
#
#
# Convention : Reuss Voigt Hill
#
# Bulk Modulus (GPa) = 49.32153 60.72100 55.02127
# Shear Modulus (GPa) = 6.65165 22.50014 14.57590
#
# Velocity S-wave (km/s) = 1.73775 3.19606 2.57241
# Velocity P-wave (km/s) = 5.13982 6.41766 5.81395
#
# Compressibility (1/GPa) = 0.02027512
#
# Stress axis : x y z
#
# Youngs Moduli (GPa) = 6.47490 6.47499 123.61385
#
# Poissons Ratio (x) = 0.91211 0.46248
# Poissons Ratio (y) = 0.91210 0.46233
# Poissons Ratio (z) = 0.02422 0.02422
#
# Static dielectric constant tensor:
#      x y z
#    x 1.917160 0.000000 0.000000 
#    y 0.000000 1.917160 0.000000 
#    z 0.000000 0.000000 1.999310 
# 
# From -- ./inp_files/11381.got.cif
#   From: 2010.05.17/outbox.cif.g08.bks.cpg/sg91_6_cif.got.tgz:11381.got - 2010.06.03 19:20:03.
