data_PCOD9548380
_publ_section_title
;
Structure prediction by ZEFSAII (Michael W. Deem and Ramdas Pophale) SiO2 
 PCOD9548380
Probable space group: P 41 2 2
;
_chemical_formula_sum "Si O2"
_cell_formula_units_Z 40
_cell_length_a 18.744811
_cell_length_b 18.744811
_cell_length_c 5.464218
_cell_angle_alpha 90.000000
_cell_angle_beta 90.000000
_cell_angle_gamma 90.000000
_cell_volume 1919.951019
_symmetry_space_group_name_H-M "P 41 2 2"
_symmetry_group_IT_number 91
_symmetry_cell_setting 'tetragonal'
loop_
_space_group_symop_operation_xyz
x,y,z
-y,x,1/4+z
-x,-y,1/2+z
y,-x,3/4+z
x,-y,1/2-z
-x,y,-z
y,x,3/4-z
-y,-x,1/4-z
loop_
_atom_site_type_symbol
_atom_site_label
_atom_site_fract_x
_atom_site_fract_y
_atom_site_fract_z
Si Si1 0.342513 0.224610 0.443616
Si Si2 0.500000 0.120392 0.000000
Si Si3 0.247829 0.860440 0.740349
Si Si4 0.347122 0.076149 0.124596
Si Si5 0.212329 0.500000 0.250000
Si Si6 0.958449 0.149842 0.736844
O O1 0.286238 0.286238 0.375000
O O2 0.311009 0.193372 0.694125
O O3 0.342565 0.152108 0.275196
O O4 0.423659 0.250875 0.469858
O O5 0.426839 0.076926 0.013894
O O6 0.505763 0.166034 0.250807
O O7 0.184242 0.815759 0.625000
O O8 0.284535 0.918293 0.571842
O O9 0.209807 0.899412 0.962762
O O10 0.340889 0.000000 0.250000
O O11 0.920370 0.079631 0.625000
O O12 0.000000 0.175383 0.500000
O O13 0.000000 0.138059 0.000000
#
# Coordination Sequence:
#
# PCOD9548380 Si02
#       6
#     8   4   8   8   4   8
#     4  11  23  42  70 102 144 187 243 291 363 419
#     4  10  22  47  64  96 145 186 238 290 351 424
#     4  12  25  44  69  98 136 180 236 297 364 428
#     4  11  26  42  68 100 142 194 237 296 359 431
#     4  10  22  43  72 104 141 190 242 290 355 428
#     4  12  29  50  73  97 129 174 233 305 374 435
#
# _framework density 20.833864999999999
#
# number of rings (size 3 to 8) (size 9 to 14) (size 15 to 20)
#    0.000    0.800    4.000    2.400    5.600    4.000 
#    0.000    1.000    0.000    0.000    0.000    7.000 
#    0.000    0.000    0.000    0.000    0.000    0.000 
#
# Total GULP energy -223293.094493 kJ/mol
# GULP energy per Si atom -5582.327362 kJ/mol
# Density = 2.078645 g / cm^3
# Si number density = 20.833865 Si / 1000 Ang^3
#
#
#
# Elastic Constant Matrix: (Units=GPa)
#
#
# Indices 1 2 3 4 5 6 
#
# 1 133.9331 73.4188 48.8169 0.0000 0.0000 0.0000
# 2 73.4188 133.9347 48.8171 0.0000 0.0000 0.0000
# 3 48.8169 48.8171 107.9524 0.0000 0.0000 0.0000
# 4 0.0000 0.0000 0.0000 28.2978 0.0000 0.0000
# 5 0.0000 0.0000 0.0000 0.0000 28.2981 0.0000
# 6 0.0000 0.0000 0.0000 0.0000 0.0000 33.3217
#
#
#
# Elastic Compliance Matrix: (Units=1/GPa)
#
#
# Indices 1 2 3 4 5 6 
#
# 1 0.011326 -0.005199 -0.002771 0.000000 0.000000 0.000000
# 2 -0.005199 0.011326 -0.002771 0.000000 0.000000 0.000000
# 3 -0.002771 -0.002771 0.011769 0.000000 0.000000 0.000000
# 4 0.000000 0.000000 0.000000 0.035338 0.000000 0.000000
# 5 0.000000 0.000000 0.000000 0.000000 0.035338 0.000000
# 6 0.000000 0.000000 0.000000 0.000000 0.000000 0.030010
#
#
# Mechanical properties :
#
#
# Convention : Reuss Voigt Hill
#
# Bulk Modulus (GPa) = 77.27560 79.76955 78.52258
# Shear Modulus (GPa) = 31.07465 31.63469 31.35467
#
# Velocity S-wave (km/s) = 3.86624 3.90093 3.88362
# Velocity P-wave (km/s) = 7.55661 7.65906 7.60800
#
# Compressibility (1/GPa) = 0.01294070
#
# Stress axis : x y z
#
# Youngs Moduli (GPa) = 88.29114 88.29227 84.96642
#
# Poissons Ratio (x) = 0.45901 0.23543
# Poissons Ratio (y) = 0.45900 0.23543
# Poissons Ratio (z) = 0.24464 0.24464
#
# Static dielectric constant tensor:
#      x y z
#    x 1.785470 0.000000 0.000000 
#    y 0.000000 1.785460 0.000000 
#    z 0.000000 0.000000 1.822070 
# 
# From -- ./inp_files/8565.got.cif
#   From: 2010.05.17/outbox.cif.g08.bks.cpg/sg91_5_cif.got.tgz:8565.got - 2010.06.03 19:20:03.
