data_PCOD9548780
_publ_section_title
;
Structure prediction by ZEFSAII (Michael W. Deem and Ramdas Pophale) SiO2 
 PCOD9548780
Probable space group: P 41 2 2
;
_chemical_formula_sum "Si O2"
_cell_formula_units_Z 60
_cell_length_a 11.605766
_cell_length_b 11.605766
_cell_length_c 19.038216
_cell_angle_alpha 90.000000
_cell_angle_beta 90.000000
_cell_angle_gamma 90.000000
_cell_volume 2564.329743
_symmetry_space_group_name_H-M "P 41 2 2"
_symmetry_group_IT_number 91
_symmetry_cell_setting 'tetragonal'
loop_
_space_group_symop_operation_xyz
x,y,z
-y,x,1/4+z
-x,-y,1/2+z
y,-x,3/4+z
x,-y,1/2-z
-x,y,-z
y,x,3/4-z
-y,-x,1/4-z
loop_
_atom_site_type_symbol
_atom_site_label
_atom_site_fract_x
_atom_site_fract_y
_atom_site_fract_z
Si Si1 0.532668 0.880495 0.137710
Si Si2 0.901018 0.446654 0.172761
Si Si3 0.876288 0.820832 0.031874
Si Si4 0.281859 0.632959 0.026084
Si Si5 0.769895 0.753744 0.571351
Si Si6 0.251443 0.500000 0.250000
Si Si7 0.334828 0.473257 0.624961
Si Si8 0.924111 0.188740 0.192728
O O1 0.441042 0.798485 0.174674
O O2 0.651808 0.862670 0.177928
O O3 0.554509 0.828853 0.059513
O O4 0.488057 0.010974 0.129135
O O5 0.909267 0.500000 0.250000
O O6 0.827928 0.208113 0.252288
O O7 0.768768 0.445929 0.150958
O O8 0.949943 0.319022 0.170622
O O9 0.840013 0.784969 0.111817
O O10 0.865078 0.958559 0.028302
O O11 0.782167 0.753764 0.986139
O O12 0.000000 0.787256 0.000000
O O13 0.412066 0.668444 0.042727
O O14 0.301611 0.565549 0.953186
O O15 0.645449 0.687199 0.579919
O O16 0.453956 0.546045 0.625000
O O17 0.879902 0.120099 0.125000
#
# Coordination Sequence:
#
# PCOD9548780 Si02
#       8
#     8   8   8   8   8   4   8   8
#     4  12  26  46  75 106 145 200 248 323 381 465
#     4  12  25  46  73 102 150 200 255 315 387 470
#     4  11  27  52  76 114 156 201 262 325 396 479
#     4  11  28  45  76 111 153 200 256 319 391 473
#     4  11  26  51  74 114 156 195 265 325 383 478
#     4  12  22  50  70 108 150 190 258 312 388 456
#     4  11  26  46  72 109 151 199 249 311 391 467
#     4  12  28  50  76 112 152 208 259 322 398 463
#
# _framework density 23.397929000000001
#
# number of rings (size 3 to 8) (size 9 to 14) (size 15 to 20)
#    0.000    0.533    6.000    0.800   11.200    0.000 
#    2.400    0.000    0.000    0.000    0.000    0.000 
#    0.000    0.000    0.000    0.000    0.000    0.000 
#
# Total GULP energy -335407.173293 kJ/mol
# GULP energy per Si atom -5590.119555 kJ/mol
# Density = 2.334467 g / cm^3
# Si number density = 23.397929 Si / 1000 Ang^3
#
#
#
# Elastic Constant Matrix: (Units=GPa)
#
#
# Indices 1 2 3 4 5 6 
#
# 1 118.5168 52.7687 43.1765 0.0000 0.0000 0.0000
# 2 52.7687 118.5204 43.1771 0.0000 0.0000 0.0000
# 3 43.1765 43.1771 73.5199 0.0000 0.0000 0.0000
# 4 0.0000 0.0000 0.0000 8.2623 0.0000 0.0000
# 5 0.0000 0.0000 0.0000 0.0000 8.2641 0.0000
# 6 0.0000 0.0000 0.0000 0.0000 0.0000 30.0696
#
#
#
# Elastic Compliance Matrix: (Units=1/GPa)
#
#
# Indices 1 2 3 4 5 6 
#
# 1 0.011752 -0.003458 -0.004871 0.000000 0.000000 0.000000
# 2 -0.003458 0.011751 -0.004871 0.000000 0.000000 0.000000
# 3 -0.004871 -0.004871 0.019323 0.000000 0.000000 0.000000
# 4 0.000000 0.000000 0.000000 0.121032 0.000000 0.000000
# 5 0.000000 0.000000 0.000000 0.000000 0.121005 0.000000
# 6 0.000000 0.000000 0.000000 0.000000 0.000000 0.033256
#
#
# Mechanical properties :
#
#
# Convention : Reuss Voigt Hill
#
# Bulk Modulus (GPa) = 60.87459 65.42239 63.14849
# Shear Modulus (GPa) = 14.28599 20.74817 17.51708
#
# Velocity S-wave (km/s) = 2.47364 2.98107 2.73913
# Velocity P-wave (km/s) = 5.85082 6.31431 6.08698
#
# Compressibility (1/GPa) = 0.01642722
#
# Stress axis : x y z
#
# Youngs Moduli (GPa) = 85.09478 85.09742 51.75256
#
# Poissons Ratio (x) = 0.29424 0.25207
# Poissons Ratio (y) = 0.29423 0.25207
# Poissons Ratio (z) = 0.41448 0.41448
#
# Static dielectric constant tensor:
#      x y z
#    x 1.918390 0.000000 0.000000 
#    y 0.000000 1.918390 0.000000 
#    z 0.000000 0.000000 1.941990 
# 
# From -- ./inp_files/6462.got.cif
#   From: 2010.05.17/outbox.cif.g08.bks.cpg/sg91_4_cif.got.tgz:6462.got - 2010.06.03 19:20:03.
