data_PCOD9548664
_publ_section_title
;
Structure prediction by ZEFSAII (Michael W. Deem and Ramdas Pophale) SiO2 
 PCOD9548664
Probable space group: P 41 2 2
;
_chemical_formula_sum "Si O2"
_cell_formula_units_Z 56
_cell_length_a 15.058451
_cell_length_b 15.058451
_cell_length_c 12.215377
_cell_angle_alpha 90.000000
_cell_angle_beta 90.000000
_cell_angle_gamma 90.000000
_cell_volume 2769.921589
_symmetry_space_group_name_H-M "P 41 2 2"
_symmetry_group_IT_number 91
_symmetry_cell_setting 'tetragonal'
loop_
_space_group_symop_operation_xyz
x,y,z
-y,x,1/4+z
-x,-y,1/2+z
y,-x,3/4+z
x,-y,1/2-z
-x,y,-z
y,x,3/4-z
-y,-x,1/4-z
loop_
_atom_site_type_symbol
_atom_site_label
_atom_site_fract_x
_atom_site_fract_y
_atom_site_fract_z
Si Si1 0.297495 0.072517 0.522601
Si Si2 0.833861 0.020322 0.626319
Si Si3 0.444249 0.795337 0.896094
Si Si4 0.885634 0.370169 0.253065
Si Si5 0.102290 0.165531 0.037987
Si Si6 0.500625 0.905376 0.304254
Si Si7 0.260785 0.715646 0.505926
O O1 0.385109 0.126808 0.548389
O O2 0.214745 0.100987 0.596179
O O3 0.253238 0.076098 0.405586
O O4 0.316915 0.969645 0.540980
O O5 0.854238 0.931431 0.554474
O O6 0.818340 0.000000 0.750000
O O7 0.921709 0.078292 0.625000
O O8 0.503799 0.838667 0.798999
O O9 0.367530 0.742620 0.826963
O O10 0.500000 0.756717 0.000000
O O11 0.866578 0.431828 0.146672
O O12 0.919163 0.417810 0.364406
O O13 0.798606 0.317259 0.287761
O O14 0.163196 0.238503 0.974726
O O15 0.000000 0.157185 0.000000
O O16 0.527300 0.000000 0.250000
O O17 0.302470 0.697531 0.625000
#
# Coordination Sequence:
#
# PCOD9548664 Si02
#       7
#     8   8   8   8   8   8   8
#     4  11  23  38  55  84 118 163 222 267 323 374
#     4  12  24  38  52  75 118 174 227 273 318 372
#     4  11  24  42  62  92 129 174 215 269 343 403
#     4  11  22  38  61  96 124 166 224 269 339 388
#     4  11  24  35  56  81 118 171 225 279 317 360
#     4  11  22  38  64  93 133 171 215 270 329 411
#     4  11  22  40  65  94 127 164 223 287 330 386
#
# _framework density 20.217178000000001
#
# number of rings (size 3 to 8) (size 9 to 14) (size 15 to 20)
#    0.000    0.857    5.714    2.143    2.000    1.714 
#    0.000    0.714    0.000    0.000    0.000    0.000 
#   12.857    0.000    0.000    0.000    0.000    0.000 
#
# Total GULP energy -311768.104131 kJ/mol
# GULP energy per Si atom -5567.287574 kJ/mol
# Density = 2.017116 g / cm^3
# Si number density = 20.217178 Si / 1000 Ang^3
#
#
#
# Elastic Constant Matrix: (Units=GPa)
#
#
# Indices 1 2 3 4 5 6 
#
# 1 46.9683 24.6299 25.5032 0.0000 0.0000 0.0000
# 2 24.6299 46.9687 25.5035 0.0000 0.0000 0.0000
# 3 25.5032 25.5035 125.3629 0.0000 0.0000 0.0000
# 4 0.0000 0.0000 0.0000 20.3222 0.0000 0.0000
# 5 0.0000 0.0000 0.0000 0.0000 20.3243 0.0000
# 6 0.0000 0.0000 0.0000 0.0000 0.0000 22.5436
#
#
#
# Elastic Compliance Matrix: (Units=1/GPa)
#
#
# Indices 1 2 3 4 5 6 
#
# 1 0.030550 -0.014216 -0.003323 0.000000 0.000000 0.000000
# 2 -0.014216 0.030550 -0.003323 0.000000 0.000000 0.000000
# 3 -0.003323 -0.003323 0.009329 0.000000 0.000000 0.000000
# 4 0.000000 0.000000 0.000000 0.049207 0.000000 0.000000
# 5 0.000000 0.000000 0.000000 0.000000 0.049202 0.000000
# 6 0.000000 0.000000 0.000000 0.000000 0.000000 0.044358
#
#
# Mechanical properties :
#
#
# Convention : Reuss Voigt Hill
#
# Bulk Modulus (GPa) = 34.83686 41.17478 38.00582
# Shear Modulus (GPa) = 18.90445 22.21558 20.56002
#
# Velocity S-wave (km/s) = 3.06121 3.31848 3.19244
# Velocity P-wave (km/s) = 5.45558 5.92398 5.69460
#
# Compressibility (1/GPa) = 0.02870523
#
# Stress axis : x y z
#
# Youngs Moduli (GPa) = 32.73335 32.73352 107.19427
#
# Poissons Ratio (x) = 0.46533 0.35620
# Poissons Ratio (y) = 0.46533 0.35621
# Poissons Ratio (z) = 0.10877 0.10877
#
# Static dielectric constant tensor:
#      x y z
#    x 1.783780 0.000000 0.000000 
#    y 0.000000 1.783780 0.000000 
#    z 0.000000 0.000000 1.825300 
# 
# From -- ./inp_files/3928.got.cif
#   From: 2010.05.17/outbox.cif.g08.bks.cpg/sg91_2_cif.got.tgz:3928.got - 2010.06.03 19:20:03.
