data_PCOD9548750
_publ_section_title
;
Structure prediction by ZEFSAII (Michael W. Deem and Ramdas Pophale) SiO2 
 PCOD9548750
Probable space group: P 41 2 2
;
_chemical_formula_sum "Si O2"
_cell_formula_units_Z 24
_cell_length_a 14.379629
_cell_length_b 14.379629
_cell_length_c 5.064505
_cell_angle_alpha 90.000000
_cell_angle_beta 90.000000
_cell_angle_gamma 90.000000
_cell_volume 1047.206590
_symmetry_space_group_name_H-M "P 41 2 2"
_symmetry_group_IT_number 91
_symmetry_cell_setting 'tetragonal'
loop_
_space_group_symop_operation_xyz
x,y,z
-y,x,1/4+z
-x,-y,1/2+z
y,-x,3/4+z
x,-y,1/2-z
-x,y,-z
y,x,3/4-z
-y,-x,1/4-z
loop_
_atom_site_type_symbol
_atom_site_label
_atom_site_fract_x
_atom_site_fract_y
_atom_site_fract_z
Si Si1 0.141426 0.000000 0.250000
Si Si2 0.604510 0.395491 0.625000
Si Si3 0.559902 0.000000 0.750000
Si Si4 0.090224 0.302194 0.824704
Si Si5 0.697901 0.302100 0.125000
O O1 0.075913 0.075913 0.375000
O O2 0.204634 0.940926 0.450576
O O3 0.613692 0.500000 0.750000
O O4 0.669791 0.365935 0.376013
O O5 0.624569 0.914901 0.663716
O O6 0.500000 0.027051 0.500000
O O7 0.191947 0.309358 0.946942
O O8 0.000000 0.325247 0.000000
#
# Coordination Sequence:
#
# PCOD9548750 Si02
#       5
#     4   4   4   8   4
#     4  11  26  42  71 104 152 228 279 322 376 433
#     4  12  29  58  88 117 148 196 262 352 412 493
#     4  11  24  44  71 102 150 210 251 308 382 461
#     4  11  26  47  71 108 168 204 261 329 373 475
#     4  12  29  46  84 121 156 206 264 322 416 469
#
# _framework density 22.918116999999999
#
# number of rings (size 3 to 8) (size 9 to 14) (size 15 to 20)
#    0.000    0.667    1.667    4.000   16.333    4.000 
#    0.000    0.000    0.000    0.000    0.000    0.000 
#    0.000    0.000    0.000    0.000    0.000    0.000 
#
# Total GULP energy -134021.899402 kJ/mol
# GULP energy per Si atom -5584.245808 kJ/mol
# Density = 2.286595 g / cm^3
# Si number density = 22.918117 Si / 1000 Ang^3
#
#
#
# Elastic Constant Matrix: (Units=GPa)
#
#
# Indices 1 2 3 4 5 6 
#
# 1 154.0941 63.2695 63.6933 0.0000 0.0000 0.0000
# 2 63.2695 154.0941 63.6935 0.0000 0.0000 0.0000
# 3 63.6933 63.6935 132.7466 0.0000 0.0000 0.0000
# 4 0.0000 0.0000 0.0000 52.4877 0.0000 0.0000
# 5 0.0000 0.0000 0.0000 0.0000 52.4866 0.0000
# 6 0.0000 0.0000 0.0000 0.0000 0.0000 14.8847
#
#
#
# Elastic Compliance Matrix: (Units=1/GPa)
#
#
# Indices 1 2 3 4 5 6 
#
# 1 0.008705 -0.002305 -0.003071 0.000000 0.000000 0.000000
# 2 -0.002305 0.008705 -0.003071 0.000000 0.000000 0.000000
# 3 -0.003071 -0.003071 0.010480 0.000000 0.000000 0.000000
# 4 0.000000 0.000000 0.000000 0.019052 0.000000 0.000000
# 5 0.000000 0.000000 0.000000 0.000000 0.019052 0.000000
# 6 0.000000 0.000000 0.000000 0.000000 0.000000 0.067183
#
#
# Mechanical properties :
#
#
# Convention : Reuss Voigt Hill
#
# Bulk Modulus (GPa) = 90.93429 91.36083 91.14756
# Shear Modulus (GPa) = 32.52289 40.65702 36.58996
#
# Velocity S-wave (km/s) = 3.77117 4.21647 4.00002
# Velocity P-wave (km/s) = 7.66331 7.97843 7.82246
#
# Compressibility (1/GPa) = 0.01099695
#
# Stress axis : x y z
#
# Youngs Moduli (GPa) = 114.87285 114.87262 95.41878
#
# Poissons Ratio (x) = 0.26478 0.29303
# Poissons Ratio (y) = 0.26478 0.29303
# Poissons Ratio (z) = 0.35277 0.35277
#
# Static dielectric constant tensor:
#      x y z
#    x 1.658350 0.000000 0.000000 
#    y 0.000000 1.658340 0.000000 
#    z 0.000000 0.000000 2.066100 
# 
# From -- ./inp_files/482.got.cif
#   From: 2010.05.17/outbox.cif.g08.bks.cpg/sg91_1_cif.got.tgz:482.got - 2010.06.03 19:20:03.
