data_PCOD9548952
_publ_section_title
;
Structure prediction by ZEFSAII (Michael W. Deem and Ramdas Pophale) SiO2 
 PCOD9548952
Probable space group: P 41 21 2
;
_chemical_formula_sum "Si O2"
_cell_formula_units_Z 32
_cell_length_a 10.362600
_cell_length_b 10.362600
_cell_length_c 11.362899
_cell_angle_alpha 90.000000
_cell_angle_beta 90.000000
_cell_angle_gamma 90.000000
_cell_volume 1220.187623
_symmetry_space_group_name_H-M "P 41 21 2"
_symmetry_group_IT_number 92
_symmetry_cell_setting 'tetragonal'
loop_
_space_group_symop_operation_xyz
x,y,z
1/2-y,1/2+x,1/4+z
-x,-y,1/2+z
1/2+y,1/2-x,3/4+z
1/2+x,1/2-y,3/4-z
1/2-x,1/2+y,1/4-z
y,x,-z
-y,-x,1/2-z
loop_
_atom_site_type_symbol
_atom_site_label
_atom_site_fract_x
_atom_site_fract_y
_atom_site_fract_z
Si Si1 0.273179 0.117551 0.845932
Si Si2 0.982091 0.752953 0.317808
Si Si3 0.160016 0.972746 0.433729
Si Si4 0.179273 0.768060 0.617993
O O1 0.416055 0.142052 0.897606
O O2 0.976555 0.223727 0.124793
O O3 0.289663 0.140267 0.706209
O O4 0.159795 0.223314 0.874688
O O5 0.060045 0.876218 0.368772
O O6 0.723886 0.612633 0.213654
O O7 0.080436 0.080436 0.500000
O O8 0.242839 0.024618 0.324185
O O9 0.226560 0.773441 0.750000
#
# Coordination Sequence:
#
# PCOD9548952 Si02
#       4
#     8   8   8   8
#     4  11  25  47  75 108 155 198 272 319 405 473
#     4  10  23  41  73 111 141 203 255 325 383 474
#     4  10  19  36  70 100 140 191 259 300 373 478
#     4  11  25  45  73 104 150 207 255 330 398 484
#
# _framework density 26.225473000000001
#
# number of rings (size 3 to 8) (size 9 to 14) (size 15 to 20)
#    0.000    1.500    2.500    1.500    0.000   19.000 
#    4.500    0.000    0.000    0.000    0.000    0.000 
#    0.000    0.000    0.000    0.000    0.000    0.000 
#
# Total GULP energy -178966.201576 kJ/mol
# GULP energy per Si atom -5592.693799 kJ/mol
# Density = 2.616578 g / cm^3
# Si number density = 26.225473 Si / 1000 Ang^3
#
#
#
# Elastic Constant Matrix: (Units=GPa)
#
#
# Indices 1 2 3 4 5 6 
#
# 1 50.7539 25.0215 22.4749 0.0000 0.0000 0.0000
# 2 25.0215 50.7534 22.4747 0.0000 0.0000 0.0000
# 3 22.4749 22.4747 219.2027 0.0000 0.0000 0.0000
# 4 0.0000 0.0000 0.0000 40.8596 0.0000 0.0000
# 5 0.0000 0.0000 0.0000 0.0000 40.8594 0.0000
# 6 0.0000 0.0000 0.0000 0.0000 0.0000 27.6742
#
#
#
# Elastic Compliance Matrix: (Units=1/GPa)
#
#
# Indices 1 2 3 4 5 6 
#
# 1 0.026457 -0.012405 -0.001441 0.000000 0.000000 0.000000
# 2 -0.012405 0.026457 -0.001441 0.000000 0.000000 0.000000
# 3 -0.001441 -0.001441 0.004857 0.000000 0.000000 0.000000
# 4 0.000000 0.000000 0.000000 0.024474 0.000000 0.000000
# 5 0.000000 0.000000 0.000000 0.000000 0.024474 0.000000
# 6 0.000000 0.000000 0.000000 0.000000 0.000000 0.036135
#
#
# Mechanical properties :
#
#
# Convention : Reuss Voigt Hill
#
# Bulk Modulus (GPa) = 36.76779 51.18358 43.97569
# Shear Modulus (GPa) = 27.39833 38.59457 32.99645
#
# Velocity S-wave (km/s) = 3.23572 3.84036 3.55094
# Velocity P-wave (km/s) = 5.29246 6.26288 5.79801
#
# Compressibility (1/GPa) = 0.02719772
#
# Stress axis : x y z
#
# Youngs Moduli (GPa) = 37.79774 37.79738 205.87069
#
# Poissons Ratio (x) = 0.46888 0.29660
# Poissons Ratio (y) = 0.46889 0.29660
# Poissons Ratio (z) = 0.05446 0.05445
#
# Static dielectric constant tensor:
#      x y z
#    x 2.079440 0.000000 0.000000 
#    y 0.000000 2.079440 0.000000 
#    z 0.000000 0.000000 2.079970 
# 
# From -- ./inp_files/2522.got.cif
#   From: 2010.05.17/outbox.cif.g08.bks.cpg/sg92_2_cif.got.tgz:2522.got - 2010.06.03 19:35:17.
