data_PCOD9548138
_publ_section_title
;
Structure prediction by ZEFSAII (Michael W. Deem and Ramdas Pophale) SiO2 
 PCOD9548138
Probable space group: P 41 2 2
;
_chemical_formula_sum "Si O2"
_cell_formula_units_Z 28
_cell_length_a 9.079329
_cell_length_b 9.079329
_cell_length_c 14.557764
_cell_angle_alpha 90.000000
_cell_angle_beta 90.000000
_cell_angle_gamma 90.000000
_cell_volume 1200.057849
_symmetry_space_group_name_H-M "P 41 2 2"
_symmetry_group_IT_number 91
_symmetry_cell_setting 'tetragonal'
loop_
_space_group_symop_operation_xyz
x,y,z
-y,x,1/4+z
-x,-y,1/2+z
y,-x,3/4+z
x,-y,1/2-z
-x,y,-z
y,x,3/4-z
-y,-x,1/4-z
loop_
_atom_site_type_symbol
_atom_site_label
_atom_site_fract_x
_atom_site_fract_y
_atom_site_fract_z
Si Si1 0.500000 0.250351 0.500000
Si Si2 0.597289 0.035393 0.916699
Si Si3 0.828218 0.797653 0.485778
Si Si4 0.296818 0.487912 0.948014
O O1 0.630528 0.362985 0.481653
O O2 0.447434 0.135415 0.420802
O O3 0.540645 0.135080 0.834949
O O4 0.500000 0.100732 0.000000
O O5 0.761128 0.070525 0.952909
O O6 0.810373 0.810373 0.375000
O O7 0.738247 0.650818 0.513587
O O8 0.000000 0.782073 0.500000
O O9 0.412424 0.412424 0.875000
#
# Coordination Sequence:
#
# PCOD9548138 Si02
#       4
#     4   8   8   8
#     4  10  22  40  62 100 124 164 224 274 326 392
#     4  10  21  39  62  91 129 163 214 270 324 396
#     4  11  23  41  67  95 125 179 221 268 334 400
#     4  11  20  39  67  92 127 172 217 272 324 388
#
# _framework density 23.332211999999998
#
# number of rings (size 3 to 8) (size 9 to 14) (size 15 to 20)
#    0.857    0.571    5.714    1.714    8.000    0.000 
#    0.000    2.857    0.000    0.000    0.000    0.000 
#    0.000    0.000    0.000    0.000    0.000    0.000 
#
# Total GULP energy -156079.744991 kJ/mol
# GULP energy per Si atom -5574.276607 kJ/mol
# Density = 2.327911 g / cm^3
# Si number density = 23.332212 Si / 1000 Ang^3
#
#
#
# Elastic Constant Matrix: (Units=GPa)
#
#
# Indices 1 2 3 4 5 6 
#
# 1 159.4817 61.4349 19.6894 0.0000 0.0000 0.0000
# 2 61.4349 159.4817 19.6894 0.0000 0.0000 0.0000
# 3 19.6894 19.6894 30.9510 0.0000 0.0000 0.0000
# 4 0.0000 0.0000 0.0000 22.8978 0.0000 0.0000
# 5 0.0000 0.0000 0.0000 0.0000 22.8978 0.0000
# 6 0.0000 0.0000 0.0000 0.0000 0.0000 27.1711
#
#
#
# Elastic Compliance Matrix: (Units=1/GPa)
#
#
# Indices 1 2 3 4 5 6 
#
# 1 0.007652 -0.002547 -0.003248 0.000000 0.000000 0.000000
# 2 -0.002547 0.007652 -0.003248 0.000000 0.000000 0.000000
# 3 -0.003248 -0.003248 0.036441 0.000000 0.000000 0.000000
# 4 0.000000 0.000000 0.000000 0.043672 0.000000 0.000000
# 5 0.000000 0.000000 0.000000 0.000000 0.043672 0.000000
# 6 0.000000 0.000000 0.000000 0.000000 0.000000 0.036804
#
#
# Mechanical properties :
#
#
# Convention : Reuss Voigt Hill
#
# Bulk Modulus (GPa) = 29.70799 61.28240 45.49520
# Shear Modulus (GPa) = 24.36647 31.20006 27.78326
#
# Velocity S-wave (km/s) = 3.23511 3.66076 3.45450
# Velocity P-wave (km/s) = 5.16864 6.64758 5.95421
#
# Compressibility (1/GPa) = 0.03366098
#
# Stress axis : x y z
#
# Youngs Moduli (GPa) = 130.67847 130.67847 27.44133
#
# Poissons Ratio (x) = 0.33282 0.08913
# Poissons Ratio (y) = 0.33282 0.08913
# Poissons Ratio (z) = 0.42443 0.42443
#
# Static dielectric constant tensor:
#      x y z
#    x 1.955510 0.000000 0.000000 
#    y 0.000000 1.955510 0.000000 
#    z 0.000000 0.000000 2.267200 
# 
# From -- ./inp_files/11690.got.cif
#   From: 2010.05.17/outbox.cif.g08.bks.cpg/sg91_6_cif.got.tgz:11690.got - 2010.06.03 19:20:03.
