data_PCOD9548165
_publ_section_title
;
Structure prediction by ZEFSAII (Michael W. Deem and Ramdas Pophale) SiO2 
 PCOD9548165
Probable space group: P 41 2 2
;
_chemical_formula_sum "Si O2"
_cell_formula_units_Z 40
_cell_length_a 10.183464
_cell_length_b 10.183464
_cell_length_c 15.709861
_cell_angle_alpha 90.000000
_cell_angle_beta 90.000000
_cell_angle_gamma 90.000000
_cell_volume 1629.158758
_symmetry_space_group_name_H-M "P 41 2 2"
_symmetry_group_IT_number 91
_symmetry_cell_setting 'tetragonal'
loop_
_space_group_symop_operation_xyz
x,y,z
-y,x,1/4+z
-x,-y,1/2+z
y,-x,3/4+z
x,-y,1/2-z
-x,y,-z
y,x,3/4-z
-y,-x,1/4-z
loop_
_atom_site_type_symbol
_atom_site_label
_atom_site_fract_x
_atom_site_fract_y
_atom_site_fract_z
Si Si1 0.361240 0.690701 0.216004
Si Si2 0.626833 0.357819 0.219688
Si Si3 0.109662 0.445279 0.065750
Si Si4 0.071450 0.893989 0.825256
Si Si5 0.928674 0.297676 0.782582
O O1 0.378689 0.621312 0.125000
O O2 0.466050 0.636985 0.283830
O O3 0.407814 0.840227 0.201108
O O4 0.211823 0.681819 0.240142
O O5 0.674843 0.500000 0.250000
O O6 0.676078 0.323923 0.125000
O O7 0.638181 0.240852 0.289134
O O8 0.051645 0.424352 0.158746
O O9 0.000000 0.407473 0.000000
O O10 0.183725 0.907293 0.895806
O O11 0.039673 0.755576 0.780367
O O12 0.095853 0.000000 0.750000
O O13 0.940085 0.940085 0.875000
#
# Coordination Sequence:
#
# PCOD9548165 Si02
#       5
#     8   8   8   8   8
#     4  10  24  39  64  90 127 170 222 269 323 410
#     4  10  21  40  68  91 123 170 230 269 319 403
#     4  10  25  40  61  97 137 164 214 288 349 378
#     4   9  20  37  61  89 117 160 224 265 319 413
#     4  11  21  39  63  89 123 174 209 269 340 404
#
# _framework density 24.552548000000002
#
# number of rings (size 3 to 8) (size 9 to 14) (size 15 to 20)
#    1.200    0.800    0.000    3.000    2.800    5.600 
#    0.000    0.000    0.000    0.000    0.000    0.000 
#    0.000    0.000    0.000    0.000    0.000    0.000 
#
# Total GULP energy -223277.987420 kJ/mol
# GULP energy per Si atom -5581.949685 kJ/mol
# Density = 2.449666 g / cm^3
# Si number density = 24.552548 Si / 1000 Ang^3
#
#
#
# Elastic Constant Matrix: (Units=GPa)
#
#
# Indices 1 2 3 4 5 6 
#
# 1 36.1117 3.2376 -1.0510 0.0000 0.0000 0.0000
# 2 3.2376 36.1123 -1.0511 0.0000 0.0000 0.0000
# 3 -1.0510 -1.0511 87.5349 0.0000 0.0000 0.0000
# 4 0.0000 0.0000 0.0000 38.9966 0.0000 0.0000
# 5 0.0000 0.0000 0.0000 0.0000 38.9964 0.0000
# 6 0.0000 0.0000 0.0000 0.0000 0.0000 8.9864
#
#
#
# Elastic Compliance Matrix: (Units=1/GPa)
#
#
# Indices 1 2 3 4 5 6 
#
# 1 0.027924 -0.002495 0.000305 0.000000 0.000000 0.000000
# 2 -0.002495 0.027924 0.000305 0.000000 0.000000 0.000000
# 3 0.000305 0.000305 0.011431 0.000000 0.000000 0.000000
# 4 0.000000 0.000000 0.000000 0.025643 0.000000 0.000000
# 5 0.000000 0.000000 0.000000 0.000000 0.025643 0.000000
# 6 0.000000 0.000000 0.000000 0.000000 0.000000 0.111279
#
#
# Mechanical properties :
#
#
# Convention : Reuss Voigt Hill
#
# Bulk Modulus (GPa) = 15.74511 18.00332 16.87421
# Shear Modulus (GPa) = 19.62444 27.97076 23.79760
#
# Velocity S-wave (km/s) = 2.83023 3.37890 3.11666
# Velocity P-wave (km/s) = 4.13606 4.75090 4.45410
#
# Compressibility (1/GPa) = 0.06351178
#
# Stress axis : x y z
#
# Youngs Moduli (GPa) = 35.81098 35.81152 87.47873
#
# Poissons Ratio (x) = 0.08934 -0.02671
# Poissons Ratio (y) = 0.08934 -0.02671
# Poissons Ratio (z) = -0.01093 -0.01093
#
# Static dielectric constant tensor:
#      x y z
#    x 2.010410 0.000000 0.000000 
#    y 0.000000 2.010410 0.000000 
#    z 0.000000 0.000000 1.950570 
# 
# From -- ./inp_files/11374.got.cif
#   From: 2010.05.17/outbox.cif.g08.bks.cpg/sg91_6_cif.got.tgz:11374.got - 2010.06.03 19:20:03.
