data_PCOD9548655
_publ_section_title
;
Structure prediction by ZEFSAII (Michael W. Deem and Ramdas Pophale) SiO2 
 PCOD9548655
Probable space group: P 41 2 2
;
_chemical_formula_sum "Si O2"
_cell_formula_units_Z 36
_cell_length_a 8.585907
_cell_length_b 8.585907
_cell_length_c 22.948883
_cell_angle_alpha 90.000000
_cell_angle_beta 90.000000
_cell_angle_gamma 90.000000
_cell_volume 1691.741145
_symmetry_space_group_name_H-M "P 41 2 2"
_symmetry_group_IT_number 91
_symmetry_cell_setting 'tetragonal'
loop_
_space_group_symop_operation_xyz
x,y,z
-y,x,1/4+z
-x,-y,1/2+z
y,-x,3/4+z
x,-y,1/2-z
-x,y,-z
y,x,3/4-z
-y,-x,1/4-z
loop_
_atom_site_type_symbol
_atom_site_label
_atom_site_fract_x
_atom_site_fract_y
_atom_site_fract_z
Si Si1 0.054847 0.692944 0.604007
Si Si2 0.595899 0.240146 0.816842
Si Si3 0.500000 0.435554 0.000000
Si Si4 0.258897 0.196808 0.055523
Si Si5 0.669602 0.102137 0.479388
O O1 0.191802 0.808199 0.625000
O O2 0.125340 0.550273 0.567762
O O3 0.922540 0.771735 0.565166
O O4 0.971463 0.647886 0.664951
O O5 0.533005 0.414221 0.801255
O O6 0.664725 0.210301 0.880784
O O7 0.745348 0.221754 0.774697
O O8 0.640366 0.325669 0.978556
O O9 0.277084 0.033552 0.022617
O O10 0.500000 0.153251 0.500000
#
# Coordination Sequence:
#
# PCOD9548655 Si02
#       5
#     8   8   4   8   8
#     4  11  24  43  69 102 139 188 239 286 365 436
#     4  11  23  40  69 101 136 188 237 296 357 427
#     4  12  22  38  66 102 138 184 244 292 352 434
#     4  11  23  42  70  99 141 191 234 295 364 428
#     4  11  21  43  71  97 140 180 233 294 349 420
#
# _framework density 21.279852000000002
#
# number of rings (size 3 to 8) (size 9 to 14) (size 15 to 20)
#    0.000    0.889    4.444    3.333    0.000    3.556 
#    0.000    8.889    0.000    0.000    0.000    0.000 
#    0.000    0.000    0.000    0.000    0.000    0.000 
#
# Total GULP energy -200933.341277 kJ/mol
# GULP energy per Si atom -5581.481702 kJ/mol
# Density = 2.123142 g / cm^3
# Si number density = 21.279852 Si / 1000 Ang^3
#
#
#
# Elastic Constant Matrix: (Units=GPa)
#
#
# Indices 1 2 3 4 5 6 
#
# 1 135.8991 69.4944 54.8937 0.0000 0.0000 0.0000
# 2 69.4944 135.9009 54.8942 0.0000 0.0000 0.0000
# 3 54.8937 54.8942 87.8658 0.0000 0.0000 0.0000
# 4 0.0000 0.0000 0.0000 22.7439 0.0000 0.0000
# 5 0.0000 0.0000 0.0000 0.0000 22.7440 0.0000
# 6 0.0000 0.0000 0.0000 0.0000 0.0000 11.3808
#
#
#
# Elastic Compliance Matrix: (Units=1/GPa)
#
#
# Indices 1 2 3 4 5 6 
#
# 1 0.011184 -0.003875 -0.004567 0.000000 0.000000 0.000000
# 2 -0.003875 0.011184 -0.004567 0.000000 0.000000 0.000000
# 3 -0.004567 -0.004567 0.017087 0.000000 0.000000 0.000000
# 4 0.000000 0.000000 0.000000 0.043968 0.000000 0.000000
# 5 0.000000 0.000000 0.000000 0.000000 0.043968 0.000000
# 6 0.000000 0.000000 0.000000 0.000000 0.000000 0.087867
#
#
# Mechanical properties :
#
#
# Convention : Reuss Voigt Hill
#
# Bulk Modulus (GPa) = 74.40691 79.80337 77.10514
# Shear Modulus (GPa) = 20.34554 23.39933 21.87243
#
# Velocity S-wave (km/s) = 3.09543 3.31962 3.20948
# Velocity P-wave (km/s) = 6.91501 7.23024 7.07438
#
# Compressibility (1/GPa) = 0.01343961
#
# Stress axis : x y z
#
# Youngs Moduli (GPa) = 89.41034 89.41130 58.52373
#
# Poissons Ratio (x) = 0.34644 0.26726
# Poissons Ratio (y) = 0.34643 0.26726
# Poissons Ratio (z) = 0.40831 0.40832
#
# Static dielectric constant tensor:
#      x y z
#    x 1.780190 0.000000 0.000000 
#    y 0.000000 1.780190 0.000000 
#    z 0.000000 0.000000 1.805090 
# 
# From -- ./inp_files/6179.got.cif
#   From: 2010.05.17/outbox.cif.g08.bks.cpg/sg91_4_cif.got.tgz:6179.got - 2010.06.03 19:20:03.
