data_PCOD9548712
_publ_section_title
;
Structure prediction by ZEFSAII (Michael W. Deem and Ramdas Pophale) SiO2 
 PCOD9548712
Probable space group: P 41 2 2
;
_chemical_formula_sum "Si O2"
_cell_formula_units_Z 56
_cell_length_a 14.546441
_cell_length_b 14.546441
_cell_length_c 12.570059
_cell_angle_alpha 90.000000
_cell_angle_beta 90.000000
_cell_angle_gamma 90.000000
_cell_volume 2659.811233
_symmetry_space_group_name_H-M "P 41 2 2"
_symmetry_group_IT_number 91
_symmetry_cell_setting 'tetragonal'
loop_
_space_group_symop_operation_xyz
x,y,z
-y,x,1/4+z
-x,-y,1/2+z
y,-x,3/4+z
x,-y,1/2-z
-x,y,-z
y,x,3/4-z
-y,-x,1/4-z
loop_
_atom_site_type_symbol
_atom_site_label
_atom_site_fract_x
_atom_site_fract_y
_atom_site_fract_z
Si Si1 0.391192 0.907673 0.309788
Si Si2 0.109858 0.874485 0.502475
Si Si3 0.285129 0.969858 0.507124
Si Si4 0.470959 0.678318 0.620499
Si Si5 0.130107 0.601416 0.566009
Si Si6 0.651157 0.708093 0.757877
Si Si7 0.846228 0.301427 0.854602
O O1 0.338623 0.909966 0.420946
O O2 0.499526 0.907828 0.334838
O O3 0.364927 0.818119 0.242468
O O4 0.365439 0.000000 0.250000
O O5 0.140544 0.859457 0.625000
O O6 0.177505 0.959240 0.479044
O O7 0.136227 0.792741 0.421909
O O8 0.000000 0.889369 0.500000
O O9 0.323054 0.927699 0.618917
O O10 0.306843 0.077405 0.512929
O O11 0.500000 0.697367 0.500000
O O12 0.415085 0.584916 0.625000
O O13 0.404764 0.762838 0.652638
O O14 0.560335 0.673712 0.695985
O O15 0.130267 0.621463 0.441127
O O16 0.743776 0.691260 0.689822
O O17 0.666349 0.666349 0.875000
#
# Coordination Sequence:
#
# PCOD9548712 Si02
#       7
#     8   8   8   8   8   8   8
#     4  11  23  42  65  98 138 182 234 287 359 437
#     4  12  23  40  64  98 139 180 237 294 349 414
#     4  12  23  40  68  97 138 179 226 300 349 420
#     4  11  25  44  70 101 133 178 234 290 351 432
#     4  11  23  39  69 104 131 168 229 299 363 425
#     4  11  25  46  67  98 142 188 231 287 357 431
#     4  12  23  42  69  99 134 185 232 287 367 413
#
# _framework density 21.054127000000001
#
# number of rings (size 3 to 8) (size 9 to 14) (size 15 to 20)
#    0.000    0.571    4.286    5.143    2.000    0.571 
#    0.000   12.143    0.000    0.000    0.000    0.000 
#    0.000    0.000    0.000    0.000    0.000    0.000 
#
# Total GULP energy -312823.032915 kJ/mol
# GULP energy per Si atom -5586.125588 kJ/mol
# Density = 2.100621 g / cm^3
# Si number density = 21.054127 Si / 1000 Ang^3
#
#
#
# Elastic Constant Matrix: (Units=GPa)
#
#
# Indices 1 2 3 4 5 6 
#
# 1 137.6121 -2.4456 19.7093 0.0000 0.0000 0.0000
# 2 -2.4456 137.6154 19.7064 0.0000 0.0000 0.0000
# 3 19.7093 19.7064 81.3821 0.0000 0.0000 0.0000
# 4 0.0000 0.0000 0.0000 11.4061 0.0000 0.0000
# 5 0.0000 0.0000 0.0000 0.0000 11.2422 0.0000
# 6 0.0000 0.0000 0.0000 0.0000 0.0000 25.4609
#
#
#
# Elastic Compliance Matrix: (Units=1/GPa)
#
#
# Indices 1 2 3 4 5 6 
#
# 1 0.007550 0.000410 -0.001928 0.000000 0.000000 0.000000
# 2 0.000410 0.007550 -0.001928 0.000000 0.000000 0.000000
# 3 -0.001928 -0.001928 0.013221 0.000000 0.000000 0.000000
# 4 0.000000 0.000000 0.000000 0.087672 0.000000 0.000000
# 5 0.000000 0.000000 0.000000 0.000000 0.088950 0.000000
# 6 0.000000 0.000000 0.000000 0.000000 0.000000 0.039276
#
#
# Mechanical properties :
#
#
# Convention : Reuss Voigt Hill
#
# Bulk Modulus (GPa) = 46.66099 47.83886 47.24993
# Shear Modulus (GPa) = 19.36078 30.93115 25.14596
#
# Velocity S-wave (km/s) = 3.03573 3.83708 3.45968
# Velocity P-wave (km/s) = 5.87351 6.51168 6.20081
#
# Compressibility (1/GPa) = 0.02143118
#
# Stress axis : x y z
#
# Youngs Moduli (GPa) = 132.44663 132.45137 75.63522
#
# Poissons Ratio (x) = -0.05434 0.14581
# Poissons Ratio (y) = -0.05434 0.14579
# Poissons Ratio (z) = 0.25534 0.25531
#
# Static dielectric constant tensor:
#      x y z
#    x 1.812600 0.000000 0.000000 
#    y 0.000000 1.813010 0.000000 
#    z 0.000000 0.000000 1.850010 
# 
# From -- ./inp_files/15980.got.cif
#   From: 2010.05.17/outbox.cif.g08.bks.cpg/sg91_8_cif.got.tgz:15980.got - 2010.06.03 19:20:03.
