data_PCOD9548248
_publ_section_title
;
Structure prediction by ZEFSAII (Michael W. Deem and Ramdas Pophale) SiO2 
 PCOD9548248
Probable space group: P 41 2 2
;
_chemical_formula_sum "Si O2"
_cell_formula_units_Z 24
_cell_length_a 10.633387
_cell_length_b 10.633387
_cell_length_c 9.321108
_cell_angle_alpha 90.000000
_cell_angle_beta 90.000000
_cell_angle_gamma 90.000000
_cell_volume 1053.927606
_symmetry_space_group_name_H-M "P 41 2 2"
_symmetry_group_IT_number 91
_symmetry_cell_setting 'tetragonal'
loop_
_space_group_symop_operation_xyz
x,y,z
-y,x,1/4+z
-x,-y,1/2+z
y,-x,3/4+z
x,-y,1/2-z
-x,y,-z
y,x,3/4-z
-y,-x,1/4-z
loop_
_atom_site_type_symbol
_atom_site_label
_atom_site_fract_x
_atom_site_fract_y
_atom_site_fract_z
Si Si1 0.313569 0.000000 0.750000
Si Si2 0.778545 0.414996 0.557188
Si Si3 0.727597 0.295528 0.958327
Si Si4 0.500000 0.995225 0.000000
O O1 0.246557 0.872670 0.802385
O O2 0.402798 0.952860 0.618816
O O3 0.683610 0.316391 0.625000
O O4 0.729971 0.556680 0.582501
O O5 0.779616 0.370128 0.391228
O O6 0.907826 0.414085 0.644923
O O7 0.698439 0.301562 0.125000
#
# Coordination Sequence:
#
# PCOD9548248 Si02
#       4
#     4   8   8   4
#     4  10  22  38  56  82 116 160 200 246 284 362
#     4  11  19  38  53  86 123 154 188 234 298 365
#     4  11  24  36  58  88 118 156 202 239 301 359
#     4  10  22  36  60  82 126 162 204 240 298 364
#
# _framework density 22.771963
#
# number of rings (size 3 to 8) (size 9 to 14) (size 15 to 20)
#    0.000    1.333    6.667    1.000    9.333    4.000 
#    0.000    0.000    0.000    0.000    8.667    0.000 
#    0.000    0.000    0.000    0.000    0.000    0.000 
#
# Total GULP energy -133852.900130 kJ/mol
# GULP energy per Si atom -5577.204172 kJ/mol
# Density = 2.272013 g / cm^3
# Si number density = 22.771963 Si / 1000 Ang^3
#
#
#
# Elastic Constant Matrix: (Units=GPa)
#
#
# Indices 1 2 3 4 5 6 
#
# 1 50.5547 -3.8159 1.5765 0.0000 0.0000 0.0000
# 2 -3.8159 50.5549 1.5767 0.0000 0.0000 0.0000
# 3 1.5765 1.5767 163.1529 0.0000 0.0000 0.0000
# 4 0.0000 0.0000 0.0000 43.4474 0.0000 0.0000
# 5 0.0000 0.0000 0.0000 0.0000 43.4473 0.0000
# 6 0.0000 0.0000 0.0000 0.0000 0.0000 -77.6381
#
#
#
# Elastic Compliance Matrix: (Units=1/GPa)
#
#
# Indices 1 2 3 4 5 6 
#
# 1 0.019901 0.001509 -0.000207 0.000000 0.000000 0.000000
# 2 0.001509 0.019901 -0.000207 0.000000 0.000000 0.000000
# 3 -0.000207 -0.000207 0.006133 0.000000 0.000000 0.000000
# 4 0.000000 0.000000 0.000000 0.023016 0.000000 0.000000
# 5 0.000000 0.000000 0.000000 0.000000 0.023016 0.000000
# 6 0.000000 0.000000 0.000000 0.000000 0.000000 -0.012880
#
#
# Mechanical properties :
#
#
# Convention : Reuss Voigt Hill
#
# Bulk Modulus (GPa) = 20.77944 29.21524 24.99734
# Shear Modulus (GPa) = 53.79856 19.51299 36.65578
#
# Velocity S-wave (km/s) = 4.86582 2.93044 4.01645
# Velocity P-wave (km/s) = 6.38068 4.93024 5.70177
#
# Compressibility (1/GPa) = 0.04812450
#
# Stress axis : x y z
#
# Youngs Moduli (GPa) = 50.24905 50.24920 163.04656
#
# Poissons Ratio (x) = -0.07580 0.03373
# Poissons Ratio (y) = -0.07580 0.03373
# Poissons Ratio (z) = 0.01040 0.01040
#
# Static dielectric constant tensor:
#      x y z
#    x 1.893560 0.000000 0.000000 
#    y 0.000000 1.893560 0.000000 
#    z 0.000000 0.000000 1.997870 
# 
# From -- ./inp_files/19161.got.cif
#   From: 2010.05.17/outbox.cif.g08.bks.cpg/sg91_10_cif.got.tgz:19161.got - 2010.06.03 19:20:03.
