data_PCOD9548738
_publ_section_title
;
Structure prediction by ZEFSAII (Michael W. Deem and Ramdas Pophale) SiO2 
 PCOD9548738
Probable space group: P 41 2 2
;
_chemical_formula_sum "Si O2"
_cell_formula_units_Z 24
_cell_length_a 7.867365
_cell_length_b 7.867365
_cell_length_c 17.258762
_cell_angle_alpha 90.000000
_cell_angle_beta 90.000000
_cell_angle_gamma 90.000000
_cell_volume 1068.238531
_symmetry_space_group_name_H-M "P 41 2 2"
_symmetry_group_IT_number 91
_symmetry_cell_setting 'tetragonal'
loop_
_space_group_symop_operation_xyz
x,y,z
-y,x,1/4+z
-x,-y,1/2+z
y,-x,3/4+z
x,-y,1/2-z
-x,y,-z
y,x,3/4-z
-y,-x,1/4-z
loop_
_atom_site_type_symbol
_atom_site_label
_atom_site_fract_x
_atom_site_fract_y
_atom_site_fract_z
Si Si1 0.539003 0.672415 0.294194
Si Si2 0.803426 0.878397 0.676360
Si Si3 0.103389 0.706169 0.755818
O O1 0.494778 0.500000 0.250000
O O2 0.620515 0.620515 0.375000
O O3 0.366623 0.769042 0.310265
O O4 0.698173 0.760373 0.251022
O O5 0.776584 0.953128 0.590176
O O6 0.978655 0.774996 0.689107
O O7 0.802228 0.000000 0.750000
O O8 0.100602 0.500000 0.750000
#
# Coordination Sequence:
#
# PCOD9548738 Si02
#       3
#     8   8   8
#     4  11  23  46  75 104 143 197 243 303 374 440
#     4  12  27  46  75 110 150 193 248 307 373 443
#     4  11  26  49  72 111 148 195 251 304 378 444
#
# _framework density 22.466891
#
# number of rings (size 3 to 8) (size 9 to 14) (size 15 to 20)
#    0.000    0.667    6.667    2.000    4.667    6.667 
#    0.000    0.000    0.000    0.000    0.000    0.000 
#    0.000    0.000    0.000    0.000    0.000    0.000 
#
# Total GULP energy -134118.120330 kJ/mol
# GULP energy per Si atom -5588.255014 kJ/mol
# Density = 2.241576 g / cm^3
# Si number density = 22.466891 Si / 1000 Ang^3
#
#
#
# Elastic Constant Matrix: (Units=GPa)
#
#
# Indices 1 2 3 4 5 6 
#
# 1 77.9886 45.2574 18.2967 0.0000 0.0000 0.0000
# 2 45.2574 77.9886 18.2967 0.0000 0.0000 0.0000
# 3 18.2967 18.2967 123.2342 0.0000 0.0000 0.0000
# 4 0.0000 0.0000 0.0000 55.0929 0.0000 0.0000
# 5 0.0000 0.0000 0.0000 0.0000 55.0929 0.0000
# 6 0.0000 0.0000 0.0000 0.0000 0.0000 4.4041
#
#
#
# Elastic Compliance Matrix: (Units=1/GPa)
#
#
# Indices 1 2 3 4 5 6 
#
# 1 0.019520 -0.011032 -0.001260 0.000000 0.000000 0.000000
# 2 -0.011032 0.019520 -0.001260 0.000000 0.000000 0.000000
# 3 -0.001260 -0.001260 0.008489 0.000000 0.000000 0.000000
# 4 0.000000 0.000000 0.000000 0.018151 0.000000 0.000000
# 5 0.000000 0.000000 0.000000 0.000000 0.018151 0.000000
# 6 0.000000 0.000000 0.000000 0.000000 0.000000 0.227060
#
#
# Mechanical properties :
#
#
# Convention : Reuss Voigt Hill
#
# Bulk Modulus (GPa) = 48.96200 49.21255 49.08727
# Shear Modulus (GPa) = 14.50101 36.07538 25.28820
#
# Velocity S-wave (km/s) = 2.54331 4.01148 3.35860
# Velocity P-wave (km/s) = 5.51949 6.58848 6.07753
#
# Compressibility (1/GPa) = 0.02042400
#
# Stress axis : x y z
#
# Youngs Moduli (GPa) = 51.22962 51.22962 117.80167
#
# Poissons Ratio (x) = 0.56516 0.14846
# Poissons Ratio (y) = 0.56516 0.14846
# Poissons Ratio (z) = 0.06456 0.06456
#
# Static dielectric constant tensor:
#      x y z
#    x 1.861430 0.000000 0.000000 
#    y 0.000000 1.861430 0.000000 
#    z 0.000000 0.000000 1.875030 
# 
# From -- ./inp_files/4184.got.cif
#   From: 2010.05.17/outbox.cif.g08.bks.cpg/sg91_3_cif.got.tgz:4184.got - 2010.06.03 19:20:03.
