data_PCOD9548885
_publ_section_title
;
Structure prediction by ZEFSAII (Michael W. Deem and Ramdas Pophale) SiO2 
 PCOD9548885
Probable space group: P 41 21 2
;
_chemical_formula_sum "Si O2"
_cell_formula_units_Z 56
_cell_length_a 18.252583
_cell_length_b 18.252583
_cell_length_c 10.257690
_cell_angle_alpha 90.000000
_cell_angle_beta 90.000000
_cell_angle_gamma 90.000000
_cell_volume 3417.419034
_symmetry_space_group_name_H-M "P 41 21 2"
_symmetry_group_IT_number 92
_symmetry_cell_setting 'tetragonal'
loop_
_space_group_symop_operation_xyz
x,y,z
1/2-y,1/2+x,1/4+z
-x,-y,1/2+z
1/2+y,1/2-x,3/4+z
1/2+x,1/2-y,3/4-z
1/2-x,1/2+y,1/4-z
y,x,-z
-y,-x,1/2-z
loop_
_atom_site_type_symbol
_atom_site_label
_atom_site_fract_x
_atom_site_fract_y
_atom_site_fract_z
Si Si1 0.032890 0.446947 0.205865
Si Si2 0.005646 0.307103 0.868596
Si Si3 0.239938 0.356086 0.006720
Si Si4 0.738663 0.824942 0.256927
Si Si5 0.187070 0.660507 0.993956
Si Si6 0.978344 0.726201 0.660724
Si Si7 0.643842 0.765939 0.019978
O O1 0.021891 0.475410 0.351575
O O2 0.112531 0.474604 0.157268
O O3 0.028232 0.359701 0.198139
O O4 0.938348 0.263606 0.806761
O O5 0.074678 0.313695 0.773638
O O6 0.029657 0.270474 0.004567
O O7 0.196867 0.304759 0.110800
O O8 0.320083 0.320083 0.000000
O O9 0.200456 0.350221 0.867559
O O10 0.805780 0.769099 0.239701
O O11 0.681704 0.809628 0.139540
O O12 0.762408 0.908958 0.269311
O O13 0.149523 0.685205 0.860009
O O14 0.059710 0.751054 0.698083
O O15 0.693522 0.693522 0.000000
#
# Coordination Sequence:
#
# PCOD9548885 Si02
#       7
#     8   8   8   8   8   8   8
#     4  10  20  30  44  70 105 134 161 205 257 310
#     4  11  19  34  50  78 106 138 180 219 259 325
#     4  10  18  33  53  73 103 137 173 216 259 308
#     4  10  18  37  54  77 104 142 180 222 267 320
#     4  10  22  33  54  79 108 139 184 221 260 323
#     4  11  19  34  56  73 101 145 179 217 274 316
#     4  10  22  37  53  79 112 145 185 224 270 330
#
# _framework density 16.386635999999999
#
# number of rings (size 3 to 8) (size 9 to 14) (size 15 to 20)
#    0.000    1.714    4.286    1.714    2.000    1.143 
#    0.000    0.000    0.000    0.857    0.000    0.000 
#    0.000    0.000    0.000    0.000    0.000    0.000 
#
# Total GULP energy -312503.276089 kJ/mol
# GULP energy per Si atom -5580.415644 kJ/mol
# Density = 1.634934 g / cm^3
# Si number density = 16.386636 Si / 1000 Ang^3
#
#
#
# Elastic Constant Matrix: (Units=GPa)
#
#
# Indices 1 2 3 4 5 6 
#
# 1 47.1366 2.2460 -4.3630 0.0000 0.0000 0.0000
# 2 2.2460 47.1366 -4.3630 0.0000 0.0000 0.0000
# 3 -4.3630 -4.3630 54.3111 0.0000 0.0000 0.0000
# 4 0.0000 0.0000 0.0000 18.7065 0.0000 0.0000
# 5 0.0000 0.0000 0.0000 0.0000 18.7065 0.0000
# 6 0.0000 0.0000 0.0000 0.0000 0.0000 13.5535
#
#
#
# Elastic Compliance Matrix: (Units=1/GPa)
#
#
# Indices 1 2 3 4 5 6 
#
# 1 0.021409 -0.000867 0.001650 0.000000 0.000000 0.000000
# 2 -0.000867 0.021409 0.001650 0.000000 0.000000 0.000000
# 3 0.001650 0.001650 0.018678 0.000000 0.000000 0.000000
# 4 0.000000 0.000000 0.000000 0.053457 0.000000 0.000000
# 5 0.000000 0.000000 0.000000 0.000000 0.053457 0.000000
# 6 0.000000 0.000000 0.000000 0.000000 0.000000 0.073782
#
#
# Mechanical properties :
#
#
# Convention : Reuss Voigt Hill
#
# Bulk Modulus (GPa) = 15.06898 15.06938 15.06918
# Shear Modulus (GPa) = 19.27177 20.53091 19.90134
#
# Velocity S-wave (km/s) = 3.43310 3.54348 3.48873
# Velocity P-wave (km/s) = 4.99307 5.09488 5.04423
#
# Compressibility (1/GPa) = 0.06636150
#
# Stress axis : x y z
#
# Youngs Moduli (GPa) = 46.70935 46.70935 53.54016
#
# Poissons Ratio (x) = 0.04051 -0.08835
# Poissons Ratio (y) = 0.04051 -0.08835
# Poissons Ratio (z) = -0.07708 -0.07708
#
# Static dielectric constant tensor:
#      x y z
#    x 1.551620 0.000000 0.000000 
#    y 0.000000 1.551620 0.000000 
#    z 0.000000 0.000000 1.564880 
# 
# From -- ./inp_files/2329.got.cif
#   From: 2010.05.17/outbox.cif.g08.bks.cpg/sg92_2_cif.got.tgz:2329.got - 2010.06.03 19:35:17.
