data_PCOD9548541
_publ_section_title
;
Structure prediction by ZEFSAII (Michael W. Deem and Ramdas Pophale) SiO2 
 PCOD9548541
Probable space group: P 41 2 2
;
_chemical_formula_sum "Si O2"
_cell_formula_units_Z 24
_cell_length_a 14.479211
_cell_length_b 14.479211
_cell_length_c 4.927447
_cell_angle_alpha 90.000000
_cell_angle_beta 90.000000
_cell_angle_gamma 90.000000
_cell_volume 1033.027197
_symmetry_space_group_name_H-M "P 41 2 2"
_symmetry_group_IT_number 91
_symmetry_cell_setting 'tetragonal'
loop_
_space_group_symop_operation_xyz
x,y,z
-y,x,1/4+z
-x,-y,1/2+z
y,-x,3/4+z
x,-y,1/2-z
-x,y,-z
y,x,3/4-z
-y,-x,1/4-z
loop_
_atom_site_type_symbol
_atom_site_label
_atom_site_fract_x
_atom_site_fract_y
_atom_site_fract_z
Si Si1 0.095979 0.296949 0.322692
Si Si2 0.303767 0.696234 0.125000
Si Si3 0.603258 0.396743 0.125000
Si Si4 0.900186 0.900186 0.875000
Si Si5 0.437726 0.000000 0.750000
O O1 0.195300 0.314707 0.458067
O O2 0.103154 0.193446 0.200466
O O3 0.000000 0.301438 0.500000
O O4 0.081967 0.372377 0.094419
O O5 0.329496 0.630184 0.375946
O O6 0.612798 0.500000 0.250000
O O7 0.895821 0.000000 0.750000
O O8 0.500000 0.971553 0.500000
#
# Coordination Sequence:
#
# PCOD9548541 Si02
#       5
#     8   4   4   4   4
#     4  10  24  47  68 107 156 191 239 303 349 441
#     4  11  27  46  78 114 145 193 246 294 376 447
#     4  12  27  52  80 110 141 182 244 326 380 442
#     4   9  20  40  68 108 140 197 242 294 362 421
#     4  12  26  44  70  98 146 204 242 294 360 424
#
# _framework density 23.232688
#
# number of rings (size 3 to 8) (size 9 to 14) (size 15 to 20)
#    0.000    1.333    1.667    2.000    7.000    4.000 
#    0.000    0.000    0.000    0.000    0.000    0.000 
#    0.000    0.000    0.000    0.000    0.000    0.000 
#
# Total GULP energy -133887.591028 kJ/mol
# GULP energy per Si atom -5578.649626 kJ/mol
# Density = 2.317981 g / cm^3
# Si number density = 23.232688 Si / 1000 Ang^3
#
#
#
# Elastic Constant Matrix: (Units=GPa)
#
#
# Indices 1 2 3 4 5 6 
#
# 1 170.4169 69.8729 59.2949 0.0000 0.0000 0.0000
# 2 69.8729 170.4177 59.2952 0.0000 0.0000 0.0000
# 3 59.2949 59.2952 108.3468 0.0000 0.0000 0.0000
# 4 0.0000 0.0000 0.0000 24.9050 0.0000 0.0000
# 5 0.0000 0.0000 0.0000 0.0000 24.9056 0.0000
# 6 0.0000 0.0000 0.0000 0.0000 0.0000 -8.2764
#
#
#
# Elastic Compliance Matrix: (Units=1/GPa)
#
#
# Indices 1 2 3 4 5 6 
#
# 1 0.007824 -0.002122 -0.003120 0.000000 0.000000 0.000000
# 2 -0.002122 0.007824 -0.003120 0.000000 0.000000 0.000000
# 3 -0.003120 -0.003120 0.012645 0.000000 0.000000 0.000000
# 4 0.000000 0.000000 0.000000 0.040153 0.000000 0.000000
# 5 0.000000 0.000000 0.000000 0.000000 0.040152 0.000000
# 6 0.000000 0.000000 0.000000 0.000000 0.000000 -0.120826
#
#
# Mechanical properties :
#
#
# Convention : Reuss Voigt Hill
#
# Bulk Modulus (GPa) = 86.45387 91.78972 89.12179
# Shear Modulus (GPa) = 598.68679 25.68809 312.18744
#
# Velocity S-wave (km/s) = 16.07019 3.32880 11.60457
# Velocity P-wave (km/s) = 19.53529 7.37354 14.76477
#
# Compressibility (1/GPa) = 0.01156686
#
# Stress axis : x y z
#
# Youngs Moduli (GPa) = 127.81615 127.81652 79.08301
#
# Poissons Ratio (x) = 0.27124 0.24676
# Poissons Ratio (y) = 0.27124 0.24677
# Poissons Ratio (z) = 0.39883 0.39883
#
# Static dielectric constant tensor:
#      x y z
#    x 1.874690 0.000000 0.000000 
#    y 0.000000 1.874680 0.000000 
#    z 0.000000 0.000000 1.986610 
# 
# From -- ./inp_files/8259.got.cif
#   From: 2010.05.17/outbox.cif.g08.bks.cpg/sg91_5_cif.got.tgz:8259.got - 2010.06.03 19:20:03.
