data_PCOD9548597
_publ_section_title
;
Structure prediction by ZEFSAII (Michael W. Deem and Ramdas Pophale) SiO2 
 PCOD9548597
Probable space group: P 41 2 2
;
_chemical_formula_sum "Si O2"
_cell_formula_units_Z 56
_cell_length_a 16.941176
_cell_length_b 16.941176
_cell_length_c 12.511438
_cell_angle_alpha 90.000000
_cell_angle_beta 90.000000
_cell_angle_gamma 90.000000
_cell_volume 3590.825799
_symmetry_space_group_name_H-M "P 41 2 2"
_symmetry_group_IT_number 91
_symmetry_cell_setting 'tetragonal'
loop_
_space_group_symop_operation_xyz
x,y,z
-y,x,1/4+z
-x,-y,1/2+z
y,-x,3/4+z
x,-y,1/2-z
-x,y,-z
y,x,3/4-z
-y,-x,1/4-z
loop_
_atom_site_type_symbol
_atom_site_label
_atom_site_fract_x
_atom_site_fract_y
_atom_site_fract_z
Si Si1 0.270684 0.854394 0.601697
Si Si2 0.097094 0.297929 0.624462
Si Si3 0.323139 0.081399 0.467026
Si Si4 0.910932 0.382871 0.960653
Si Si5 0.014071 0.859713 0.621459
Si Si6 0.560217 0.092494 0.718304
Si Si7 0.844836 0.142889 0.507389
O O1 0.225157 0.774844 0.625000
O O2 0.307718 0.855490 0.484697
O O3 0.325885 0.871077 0.702608
O O4 0.204042 0.922901 0.588244
O O5 0.118405 0.373828 0.553206
O O6 0.120609 0.219807 0.554443
O O7 0.003729 0.298302 0.662059
O O8 0.348852 0.080523 0.590834
O O9 0.398235 0.104083 0.395877
O O10 0.249252 0.141495 0.466394
O O11 0.875484 0.471259 0.965919
O O12 0.000000 0.388522 0.000000
O O13 0.932339 0.858118 0.682448
O O14 0.000000 0.837109 0.500000
O O15 0.055699 0.944302 0.625000
O O16 0.552966 0.000000 0.750000
O O17 0.877649 0.122352 0.625000
#
# Coordination Sequence:
#
# PCOD9548597 Si02
#       7
#     8   8   8   8   8   8   8
#     4  11  21  35  55  73 103 137 178 220 265 318
#     4  11  21  37  51  73 104 129 176 234 265 310
#     4  11  20  37  51  73 102 131 176 223 265 320
#     4  11  19  34  56  77  96 133 170 213 271 320
#     4  11  23  38  46  67  94 129 181 229 262 301
#     4   9  21  33  52  76  98 125 171 222 270 319
#     4  12  23  36  56  69  95 142 177 215 277 315
#
# _framework density 15.595299000000001
#
# number of rings (size 3 to 8) (size 9 to 14) (size 15 to 20)
#    0.000    1.143    4.286    4.286    0.000    1.143 
#    0.000    0.000    0.000    0.000    0.000    0.000 
#    0.000    0.000    0.000    0.000   70.571    0.000 
#
# Total GULP energy -311975.567957 kJ/mol
# GULP energy per Si atom -5570.992285 kJ/mol
# Density = 1.555980 g / cm^3
# Si number density = 15.595299 Si / 1000 Ang^3
#
#
#
# Elastic Constant Matrix: (Units=GPa)
#
#
# Indices 1 2 3 4 5 6 
#
# 1 71.3410 35.6007 33.8919 0.0000 0.0000 0.0000
# 2 35.6007 71.3415 33.8918 0.0000 0.0000 0.0000
# 3 33.8919 33.8918 132.9011 0.0000 0.0000 0.0000
# 4 0.0000 0.0000 0.0000 48.0194 0.0000 0.0000
# 5 0.0000 0.0000 0.0000 0.0000 48.0091 0.0000
# 6 0.0000 0.0000 0.0000 0.0000 0.0000 -12.5173
#
#
#
# Elastic Compliance Matrix: (Units=1/GPa)
#
#
# Indices 1 2 3 4 5 6 
#
# 1 0.019567 -0.008413 -0.002844 0.000000 0.000000 0.000000
# 2 -0.008413 0.019567 -0.002844 0.000000 0.000000 0.000000
# 3 -0.002844 -0.002844 0.008975 0.000000 0.000000 0.000000
# 4 0.000000 0.000000 0.000000 0.020825 0.000000 0.000000
# 5 0.000000 0.000000 0.000000 0.000000 0.020829 0.000000
# 6 0.000000 0.000000 0.000000 0.000000 0.000000 -0.079889
#
#
# Mechanical properties :
#
#
# Convention : Reuss Voigt Hill
#
# Bulk Modulus (GPa) = 50.23843 53.59470 51.91656
# Shear Modulus (GPa) = 111.82761 28.18218 70.00489
#
# Velocity S-wave (km/s) = 8.47712 4.25560 6.70715
# Velocity P-wave (km/s) = 11.31810 7.65424 9.66144
#
# Compressibility (1/GPa) = 0.01990508
#
# Stress axis : x y z
#
# Youngs Moduli (GPa) = 51.10729 51.10770 111.41931
#
# Poissons Ratio (x) = 0.42996 0.31692
# Poissons Ratio (y) = 0.42996 0.31691
# Poissons Ratio (z) = 0.14537 0.14537
#
# Static dielectric constant tensor:
#      x y z
#    x 1.531310 0.000000 0.000000 
#    y 0.000000 1.531300 0.000000 
#    z 0.000000 0.000000 1.499710 
# 
# From -- ./inp_files/10906.got.cif
#   From: 2010.05.17/outbox.cif.g08.bks.cpg/sg91_6_cif.got.tgz:10906.got - 2010.06.03 19:20:03.
