data_PCOD9548863
_publ_section_title
;
Structure prediction by ZEFSAII (Michael W. Deem and Ramdas Pophale) SiO2 
 PCOD9548863
Probable space group: P 41 21 2
;
_chemical_formula_sum "Si O2"
_cell_formula_units_Z 44
_cell_length_a 9.669268
_cell_length_b 9.669268
_cell_length_c 17.324621
_cell_angle_alpha 90.000000
_cell_angle_beta 90.000000
_cell_angle_gamma 90.000000
_cell_volume 1619.760999
_symmetry_space_group_name_H-M "P 41 21 2"
_symmetry_group_IT_number 92
_symmetry_cell_setting 'tetragonal'
loop_
_space_group_symop_operation_xyz
x,y,z
1/2-y,1/2+x,1/4+z
-x,-y,1/2+z
1/2+y,1/2-x,3/4+z
1/2+x,1/2-y,3/4-z
1/2-x,1/2+y,1/4-z
y,x,-z
-y,-x,1/2-z
loop_
_atom_site_type_symbol
_atom_site_label
_atom_site_fract_x
_atom_site_fract_y
_atom_site_fract_z
Si Si1 0.800654 0.543235 0.147735
Si Si2 0.053571 0.242421 0.745029
Si Si3 0.728077 0.529477 0.837829
Si Si4 0.844514 0.416792 0.985009
Si Si5 0.944136 0.109642 0.879756
Si Si6 0.607244 0.392757 0.250000
O O1 0.915902 0.614196 0.201780
O O2 0.674808 0.654169 0.143299
O O3 0.840789 0.514727 0.059591
O O4 0.725753 0.409839 0.186707
O O5 0.965948 0.245205 0.825157
O O6 0.201703 0.171974 0.763042
O O7 0.982784 0.137068 0.684565
O O8 0.601388 0.425937 0.846479
O O9 0.804520 0.538336 0.755535
O O10 0.837349 0.493717 0.904572
O O11 0.873601 0.039917 0.955137
#
# Coordination Sequence:
#
# PCOD9548863 Si02
#       6
#     8   8   8   8   8   4
#     4  10  19  30  50  83 113 146 191 243 288 348
#     4   9  17  32  53  77 110 143 186 244 292 331
#     4   9  18  30  51  77 109 147 180 231 296 350
#     4  10  17  31  50  80 114 142 181 234 300 348
#     4   9  17  33  54  79 105 145 194 233 286 349
#     4  10  18  30  50  84 110 142 198 236 288 362
#
# _framework density 27.164501999999999
#
# number of rings (size 3 to 8) (size 9 to 14) (size 15 to 20)
#    0.000    2.545    3.636    0.545    0.000    1.455 
#    0.000    0.000   16.000    2.182    0.000    0.000 
#    0.000    0.000    0.000    0.000    0.000    0.000 
#
# Total GULP energy -245479.010780 kJ/mol
# GULP energy per Si atom -5579.068427 kJ/mol
# Density = 2.710267 g / cm^3
# Si number density = 27.164502 Si / 1000 Ang^3
#
#
#
# Elastic Constant Matrix: (Units=GPa)
#
#
# Indices 1 2 3 4 5 6 
#
# 1 -338.6568 444.8488 30.1889 0.0000 0.0000 0.0000
# 2 444.8488 -338.6413 30.1765 0.0000 0.0000 0.0000
# 3 30.1889 30.1765 106.3195 0.0000 0.0000 0.0000
# 4 0.0000 0.0000 0.0000 46.1112 0.0000 0.0000
# 5 0.0000 0.0000 0.0000 0.0000 46.1112 0.0000
# 6 0.0000 0.0000 0.0000 0.0000 0.0000 33.7889
#
#
#
# Elastic Compliance Matrix: (Units=1/GPa)
#
#
# Indices 1 2 3 4 5 6 
#
# 1 0.004976 0.006252 -0.003187 0.000000 0.000000 0.000000
# 2 0.006252 0.004976 -0.003188 0.000000 0.000000 0.000000
# 3 -0.003187 -0.003188 0.011215 0.000000 0.000000 0.000000
# 4 0.000000 0.000000 0.000000 0.021687 0.000000 0.000000
# 5 0.000000 0.000000 0.000000 0.000000 0.021687 0.000000
# 6 0.000000 0.000000 0.000000 0.000000 0.000000 0.029596
#
#
# Mechanical properties :
#
#
# Convention : Reuss Voigt Hill
#
# Bulk Modulus (GPa) = 47.79773 48.82774 48.31273
# Shear Modulus (GPa) = 49.33134 -46.54393 1.39370
#
# Velocity S-wave (km/s) = 4.26610 -4.14383 0.71706
# Velocity P-wave (km/s) = 6.47302 2.20935 4.30226
#
# Compressibility (1/GPa) = 0.02092150
#
# Stress axis : x y z
#
# Youngs Moduli (GPa) = 200.97713 200.96413 89.16329
#
# Poissons Ratio (x) = -1.25646 0.28420
# Poissons Ratio (y) = -1.25655 0.28422
# Poissons Ratio (z) = 0.64059 0.64059
#
# Static dielectric constant tensor:
#      x y z
#    x 2.201960 0.000000 0.000000 
#    y 0.000000 2.201950 0.000000 
#    z 0.000000 0.000000 2.154740 
# 
# From -- ./inp_files/3061.got.cif
#   From: 2010.05.17/outbox.cif.g08.bks.cpg/sg92_2_cif.got.tgz:3061.got - 2010.06.03 19:35:17.
