data_PCOD9548027
_publ_section_title
;
Structure prediction by ZEFSAII (Michael W. Deem and Ramdas Pophale) SiO2 
 PCOD9548027
Probable space group: P 41 2 2
;
_chemical_formula_sum "Si O2"
_cell_formula_units_Z 48
_cell_length_a 12.066076
_cell_length_b 12.066076
_cell_length_c 17.795469
_cell_angle_alpha 90.000000
_cell_angle_beta 90.000000
_cell_angle_gamma 90.000000
_cell_volume 2590.845714
_symmetry_space_group_name_H-M "P 41 2 2"
_symmetry_group_IT_number 91
_symmetry_cell_setting 'tetragonal'
loop_
_space_group_symop_operation_xyz
x,y,z
-y,x,1/4+z
-x,-y,1/2+z
y,-x,3/4+z
x,-y,1/2-z
-x,y,-z
y,x,3/4-z
-y,-x,1/4-z
loop_
_atom_site_type_symbol
_atom_site_label
_atom_site_fract_x
_atom_site_fract_y
_atom_site_fract_z
Si Si1 0.104712 0.500000 0.250000
Si Si2 0.749986 0.675281 0.661621
Si Si3 0.586541 0.811010 0.748460
Si Si4 0.597428 0.463899 0.937991
Si Si5 0.113365 0.858459 0.875889
Si Si6 0.008694 0.383467 0.616157
Si Si7 0.996219 0.000000 0.750000
O O1 0.184425 0.426631 0.197042
O O2 0.026163 0.571708 0.196608
O O3 0.701405 0.750360 0.728546
O O4 0.645617 0.637978 0.610926
O O5 0.830789 0.757373 0.617567
O O6 0.508625 0.708854 0.771472
O O7 0.602484 0.900304 0.814112
O O8 0.557064 0.887611 0.676124
O O9 0.549158 0.549158 0.875000
O O10 0.500000 0.444934 0.000000
O O11 0.045897 0.743570 0.877828
O O12 0.085050 0.920765 0.953159
O O13 0.069410 0.933326 0.808925
#
# Coordination Sequence:
#
# PCOD9548027 Si02
#       7
#     4   8   8   8   8   8   4
#     4  12  22  38  64  98 122 168 212 270 314 386
#     4  11  22  38  62  92 127 160 219 263 313 382
#     4  10  21  40  58  90 126 161 204 264 326 373
#     4  12  23  40  63  91 126 177 218 267 318 386
#     4  10  21  40  62  93 120 161 205 263 317 389
#     4  10  22  38  63  94 127 158 205 272 329 373
#     4  10  20  40  68  88 120 158 204 260 332 372
#
# _framework density 18.526768000000001
#
# number of rings (size 3 to 8) (size 9 to 14) (size 15 to 20)
#    0.000    1.333    3.333    4.000    0.000    1.333 
#    9.000    0.000    3.667    0.000    0.000    0.000 
#    0.000    0.000    0.000    0.000    0.000    0.000 
#
# Total GULP energy -267720.201301 kJ/mol
# GULP energy per Si atom -5577.504194 kJ/mol
# Density = 1.848460 g / cm^3
# Si number density = 18.526768 Si / 1000 Ang^3
#
#
#
# Elastic Constant Matrix: (Units=GPa)
#
#
# Indices 1 2 3 4 5 6 
#
# 1 99.7692 39.8854 35.6520 0.0000 0.0000 0.0000
# 2 39.8854 99.7692 35.6520 0.0000 0.0000 0.0000
# 3 35.6520 35.6520 79.5311 0.0000 0.0000 0.0000
# 4 0.0000 0.0000 0.0000 21.8344 0.0000 0.0000
# 5 0.0000 0.0000 0.0000 0.0000 21.8344 0.0000
# 6 0.0000 0.0000 0.0000 0.0000 0.0000 33.5075
#
#
#
# Elastic Compliance Matrix: (Units=1/GPa)
#
#
# Indices 1 2 3 4 5 6 
#
# 1 0.012992 -0.003707 -0.004163 0.000000 0.000000 0.000000
# 2 -0.003707 0.012992 -0.004163 0.000000 0.000000 0.000000
# 3 -0.004163 -0.004163 0.016306 0.000000 0.000000 0.000000
# 4 0.000000 0.000000 0.000000 0.045799 0.000000 0.000000
# 5 0.000000 0.000000 0.000000 0.000000 0.045799 0.000000
# 6 0.000000 0.000000 0.000000 0.000000 0.000000 0.029844
#
#
# Mechanical properties :
#
#
# Convention : Reuss Voigt Hill
#
# Bulk Modulus (GPa) = 54.86399 55.71646 55.29023
# Shear Modulus (GPa) = 25.79014 26.62727 26.20871
#
# Velocity S-wave (km/s) = 3.73506 3.79520 3.76525
# Velocity P-wave (km/s) = 6.94828 7.02449 6.98649
#
# Compressibility (1/GPa) = 0.01822689
#
# Stress axis : x y z
#
# Youngs Moduli (GPa) = 76.96788 76.96788 61.32810
#
# Poissons Ratio (x) = 0.28529 0.25529
# Poissons Ratio (y) = 0.28529 0.25529
# Poissons Ratio (z) = 0.32039 0.32039
#
# Static dielectric constant tensor:
#      x y z
#    x 1.652550 0.000000 0.000000 
#    y 0.000000 1.652550 0.000000 
#    z 0.000000 0.000000 1.589080 
# 
# From -- ./inp_files/16930.got.cif
#   From: 2010.05.17/outbox.cif.g08.bks.cpg/sg91_9_cif.got.tgz:16930.got - 2010.06.03 19:20:03.
