data_PCOD9548536
_publ_section_title
;
Structure prediction by ZEFSAII (Michael W. Deem and Ramdas Pophale) SiO2 
 PCOD9548536
Probable space group: P 41 2 2
;
_chemical_formula_sum "Si O2"
_cell_formula_units_Z 44
_cell_length_a 12.200079
_cell_length_b 12.200079
_cell_length_c 15.556999
_cell_angle_alpha 90.000000
_cell_angle_beta 90.000000
_cell_angle_gamma 90.000000
_cell_volume 2315.533719
_symmetry_space_group_name_H-M "P 41 2 2"
_symmetry_group_IT_number 91
_symmetry_cell_setting 'tetragonal'
loop_
_space_group_symop_operation_xyz
x,y,z
-y,x,1/4+z
-x,-y,1/2+z
y,-x,3/4+z
x,-y,1/2-z
-x,y,-z
y,x,3/4-z
-y,-x,1/4-z
loop_
_atom_site_type_symbol
_atom_site_label
_atom_site_fract_x
_atom_site_fract_y
_atom_site_fract_z
Si Si1 0.878820 0.726492 0.313683
Si Si2 0.945978 0.095230 0.815460
Si Si3 0.220184 0.751622 0.409823
Si Si4 0.456230 0.543771 0.125000
Si Si5 0.884648 0.566301 0.467591
Si Si6 0.594430 0.322095 0.795623
O O1 0.803885 0.803885 0.375000
O O2 0.805701 0.699338 0.230722
O O3 0.905895 0.626262 0.376260
O O4 0.982306 0.800062 0.283642
O O5 0.856277 0.152088 0.874753
O O6 0.906338 0.000000 0.750000
O O7 0.028771 0.028771 0.875000
O O8 0.153262 0.658810 0.462379
O O9 0.284844 0.707588 0.327777
O O10 0.585834 0.558368 0.113830
O O11 0.415043 0.613876 0.205859
O O12 0.785474 0.480952 0.458206
O O13 0.000000 0.518230 0.500000
#
# Coordination Sequence:
#
# PCOD9548536 Si02
#       6
#     8   8   8   4   8   8
#     4   9  20  32  58  93 128 164 212 261 316 384
#     4  11  20  36  60  90 128 175 217 259 322 401
#     4  11  22  40  63  95 130 173 216 272 331 398
#     4  10  24  46  70  98 128 178 224 290 340 404
#     4  11  22  40  66  98 134 167 211 281 342 396
#     4  11  24  43  71  97 129 170 231 279 344 405
#
# _framework density 19.002098
#
# number of rings (size 3 to 8) (size 9 to 14) (size 15 to 20)
#    0.000    1.455    5.455    0.000    3.818    1.455 
#    1.636    1.818    4.000    0.000    0.000    0.000 
#    0.000    0.000    0.000    0.000    0.000    0.000 
#
# Total GULP energy -245114.249226 kJ/mol
# GULP energy per Si atom -5570.778391 kJ/mol
# Density = 1.895885 g / cm^3
# Si number density = 19.002098 Si / 1000 Ang^3
#
#
#
# Elastic Constant Matrix: (Units=GPa)
#
#
# Indices 1 2 3 4 5 6 
#
# 1 82.2687 31.9684 26.9722 0.0000 0.0000 0.0000
# 2 31.9684 82.2690 26.9727 0.0000 0.0000 0.0000
# 3 26.9722 26.9727 63.6145 0.0000 0.0000 0.0000
# 4 0.0000 0.0000 0.0000 31.2970 0.0000 0.0000
# 5 0.0000 0.0000 0.0000 0.0000 31.2970 0.0000
# 6 0.0000 0.0000 0.0000 0.0000 0.0000 37.2783
#
#
#
# Elastic Compliance Matrix: (Units=1/GPa)
#
#
# Indices 1 2 3 4 5 6 
#
# 1 0.015413 -0.004468 -0.004641 0.000000 0.000000 0.000000
# 2 -0.004468 0.015413 -0.004641 0.000000 0.000000 0.000000
# 3 -0.004641 -0.004641 0.019655 0.000000 0.000000 0.000000
# 4 0.000000 0.000000 0.000000 0.031952 0.000000 0.000000
# 5 0.000000 0.000000 0.000000 0.000000 0.031952 0.000000
# 6 0.000000 0.000000 0.000000 0.000000 0.000000 0.026825
#
#
# Mechanical properties :
#
#
# Convention : Reuss Voigt Hill
#
# Bulk Modulus (GPa) = 43.51156 44.44209 43.97682
# Shear Modulus (GPa) = 28.34967 29.45705 28.90336
#
# Velocity S-wave (km/s) = 3.86673 3.94153 3.90431
# Velocity P-wave (km/s) = 6.54855 6.64477 6.59683
#
# Compressibility (1/GPa) = 0.02298240
#
# Stress axis : x y z
#
# Youngs Moduli (GPa) = 64.88109 64.88090 50.87765
#
# Poissons Ratio (x) = 0.28987 0.23610
# Poissons Ratio (y) = 0.28987 0.23611
# Poissons Ratio (z) = 0.30109 0.30110
#
# Static dielectric constant tensor:
#      x y z
#    x 1.647850 0.000000 0.000000 
#    y 0.000000 1.647850 0.000000 
#    z 0.000000 0.000000 1.700740 
# 
# From -- ./inp_files/16828.got.cif
#   From: 2010.05.17/outbox.cif.g08.bks.cpg/sg91_9_cif.got.tgz:16828.got - 2010.06.03 19:20:03.
