data_PCOD9548671
_publ_section_title
;
Structure prediction by ZEFSAII (Michael W. Deem and Ramdas Pophale) SiO2 
 PCOD9548671
Probable space group: P 41 2 2
;
_chemical_formula_sum "Si O2"
_cell_formula_units_Z 20
_cell_length_a 9.647940
_cell_length_b 9.647940
_cell_length_c 10.150715
_cell_angle_alpha 90.000000
_cell_angle_beta 90.000000
_cell_angle_gamma 90.000000
_cell_volume 944.856429
_symmetry_space_group_name_H-M "P 41 2 2"
_symmetry_group_IT_number 91
_symmetry_cell_setting 'tetragonal'
loop_
_space_group_symop_operation_xyz
x,y,z
-y,x,1/4+z
-x,-y,1/2+z
y,-x,3/4+z
x,-y,1/2-z
-x,y,-z
y,x,3/4-z
-y,-x,1/4-z
loop_
_atom_site_type_symbol
_atom_site_label
_atom_site_fract_x
_atom_site_fract_y
_atom_site_fract_z
Si Si1 0.475314 0.287278 0.638209
Si Si2 0.169173 0.598974 0.866758
Si Si3 0.000000 0.154991 0.500000
O O1 0.500000 0.212166 0.500000
O O2 0.590085 0.409916 0.625000
O O3 0.327750 0.355961 0.663401
O O4 0.506036 0.182903 0.753800
O O5 0.117211 0.500000 0.750000
O O6 0.098000 0.739630 0.917336
O O7 0.929484 0.070517 0.625000
#
# Coordination Sequence:
#
# PCOD9548671 Si02
#       3
#     8   8   4
#     4   9  17  34  64 101 132 155 199 281 366 417
#     4  11  22  39  67  99 126 161 216 284 354 405
#     4  12  30  50  64  90 138 200 248 274 320 410
#
# _framework density 21.167235000000002
#
# number of rings (size 3 to 8) (size 9 to 14) (size 15 to 20)
#    0.000    1.600    0.000    8.400    0.000    8.000 
#    0.000    0.000    0.000    0.000    0.000    0.000 
#    0.000    0.000    0.000    0.000    0.000    0.000 
#
# Total GULP energy -111366.064967 kJ/mol
# GULP energy per Si atom -5568.303248 kJ/mol
# Density = 2.111906 g / cm^3
# Si number density = 21.167235 Si / 1000 Ang^3
#
#
#
# Elastic Constant Matrix: (Units=GPa)
#
#
# Indices 1 2 3 4 5 6 
#
# 1 89.3044 44.5295 72.5695 0.0000 0.0000 0.0000
# 2 44.5295 89.3050 72.5691 0.0000 0.0000 0.0000
# 3 72.5695 72.5691 205.4278 0.0000 0.0000 0.0000
# 4 0.0000 0.0000 0.0000 -12.8624 0.0000 0.0000
# 5 0.0000 0.0000 0.0000 0.0000 -12.8545 0.0000
# 6 0.0000 0.0000 0.0000 0.0000 0.0000 -95.2480
#
#
#
# Elastic Compliance Matrix: (Units=1/GPa)
#
#
# Indices 1 2 3 4 5 6 
#
# 1 0.017223 -0.005111 -0.004279 0.000000 0.000000 0.000000
# 2 -0.005111 0.017223 -0.004279 0.000000 0.000000 0.000000
# 3 -0.004279 -0.004279 0.007891 0.000000 0.000000 0.000000
# 4 0.000000 0.000000 0.000000 -0.077746 0.000000 0.000000
# 5 0.000000 0.000000 0.000000 0.000000 -0.077794 0.000000
# 6 0.000000 0.000000 0.000000 0.000000 0.000000 -0.010499
#
#
# Mechanical properties :
#
#
# Convention : Reuss Voigt Hill
#
# Bulk Modulus (GPa) = 66.66591 84.81926 75.74259
# Shear Modulus (GPa) = -54.72538 -11.23505 -32.98022
#
# Velocity S-wave (km/s) = -5.09018 -2.30636 -3.95153
# Velocity P-wave (km/s) = 1.72724 5.75027 3.87829
#
# Compressibility (1/GPa) = 0.01500017
#
# Stress axis : x y z
#
# Youngs Moduli (GPa) = 58.06180 58.06261 126.72879
#
# Poissons Ratio (x) = 0.29675 0.54224
# Poissons Ratio (y) = 0.29675 0.54223
# Poissons Ratio (z) = 0.24843 0.24843
#
# Static dielectric constant tensor:
#      x y z
#    x 1.798290 0.000000 0.000000 
#    y 0.000000 1.798290 0.000000 
#    z 0.000000 0.000000 1.392290 
# 
# From -- ./inp_files/3066.got.cif
#   From: 2010.05.17/outbox.cif.g08.bks.cpg/sg91_2_cif.got.tgz:3066.got - 2010.06.03 19:20:03.
