data_PCOD9548407
_publ_section_title
;
Structure prediction by ZEFSAII (Michael W. Deem and Ramdas Pophale) SiO2 
 PCOD9548407
Probable space group: P 41 2 2
;
_chemical_formula_sum "Si O2"
_cell_formula_units_Z 36
_cell_length_a 11.429902
_cell_length_b 11.429902
_cell_length_c 12.654695
_cell_angle_alpha 90.000000
_cell_angle_beta 90.000000
_cell_angle_gamma 90.000000
_cell_volume 1653.243013
_symmetry_space_group_name_H-M "P 41 2 2"
_symmetry_group_IT_number 91
_symmetry_cell_setting 'tetragonal'
loop_
_space_group_symop_operation_xyz
x,y,z
-y,x,1/4+z
-x,-y,1/2+z
y,-x,3/4+z
x,-y,1/2-z
-x,y,-z
y,x,3/4-z
-y,-x,1/4-z
loop_
_atom_site_type_symbol
_atom_site_label
_atom_site_fract_x
_atom_site_fract_y
_atom_site_fract_z
Si Si1 0.306751 0.366638 0.261257
Si Si2 0.291577 0.903001 0.657427
Si Si3 0.244520 0.940346 0.025619
Si Si4 0.520528 0.282803 0.122444
Si Si5 0.000000 0.844440 0.000000
O O1 0.271635 0.500000 0.250000
O O2 0.365587 0.365587 0.375000
O O3 0.189837 0.292012 0.265774
O O4 0.398527 0.314335 0.178037
O O5 0.183973 0.816028 0.625000
O O6 0.402854 0.818740 0.679222
O O7 0.270355 0.000000 0.750000
O O8 0.314377 0.975013 0.550420
O O9 0.233970 0.980688 0.146401
O O10 0.111249 0.927858 0.985650
O O11 0.601644 0.398357 0.125000
O O12 0.500000 0.251767 0.000000
#
# Coordination Sequence:
#
# PCOD9548407 Si02
#       5
#     8   8   8   8   4
#     4  12  26  47  75 105 144 192 250 307 369 444
#     4  11  27  46  74 106 148 193 245 305 374 461
#     4  11  25  44  73 108 146 192 246 300 377 445
#     4  11  26  48  75 106 145 202 251 311 375 452
#     4  10  22  46  70 104 148 188 242 304 362 446
#
# _framework density 21.775383000000001
#
# number of rings (size 3 to 8) (size 9 to 14) (size 15 to 20)
#    0.000    0.889    2.222    4.000   17.111    0.889 
#    2.000    0.000    0.000    0.000    0.000    0.000 
#    0.000    0.000    0.000    0.000    0.000    0.000 
#
# Total GULP energy -201268.675553 kJ/mol
# GULP energy per Si atom -5590.796543 kJ/mol
# Density = 2.172582 g / cm^3
# Si number density = 21.775383 Si / 1000 Ang^3
#
#
#
# Elastic Constant Matrix: (Units=GPa)
#
#
# Indices 1 2 3 4 5 6 
#
# 1 -74.6578 205.6257 43.8753 0.0000 0.0000 0.0000
# 2 205.6257 -74.6567 43.8786 0.0000 0.0000 0.0000
# 3 43.8753 43.8786 110.3347 0.0000 0.0000 0.0000
# 4 0.0000 0.0000 0.0000 60.8675 0.0000 0.0000
# 5 0.0000 0.0000 0.0000 0.0000 60.8428 0.0000
# 6 0.0000 0.0000 0.0000 0.0000 0.0000 9.9482
#
#
#
# Elastic Compliance Matrix: (Units=1/GPa)
#
#
# Indices 1 2 3 4 5 6 
#
# 1 0.003421 0.006988 -0.004139 0.000000 0.000000 0.000000
# 2 0.006988 0.003421 -0.004139 0.000000 0.000000 0.000000
# 3 -0.004139 -0.004139 0.012356 0.000000 0.000000 0.000000
# 4 0.000000 0.000000 0.000000 0.016429 0.000000 0.000000
# 5 0.000000 0.000000 0.000000 0.000000 0.016436 0.000000
# 6 0.000000 0.000000 0.000000 0.000000 0.000000 0.100521
#
#
# Mechanical properties :
#
#
# Convention : Reuss Voigt Hill
#
# Bulk Modulus (GPa) = 60.18273 60.86436 60.52355
# Shear Modulus (GPa) = 31.11361 4.17442 17.64402
#
# Velocity S-wave (km/s) = 3.78411 1.38607 2.84962
# Velocity P-wave (km/s) = 6.84036 5.52931 6.21948
#
# Compressibility (1/GPa) = 0.01661606
#
# Stress axis : x y z
#
# Youngs Moduli (GPa) = 292.34758 292.35256 80.93554
#
# Poissons Ratio (x) = -2.04307 0.33502
# Poissons Ratio (y) = -2.04304 0.33501
# Poissons Ratio (z) = 1.21014 1.21013
#
# Static dielectric constant tensor:
#      x y z
#    x 1.812860 0.000000 0.000000 
#    y 0.000000 1.812860 0.000000 
#    z 0.000000 0.000000 1.777460 
# 
# From -- ./inp_files/15652.got.cif
#   From: 2010.05.17/outbox.cif.g08.bks.cpg/sg91_8_cif.got.tgz:15652.got - 2010.06.03 19:20:03.
