data_PCOD9548300
_publ_section_title
;
Structure prediction by ZEFSAII (Michael W. Deem and Ramdas Pophale) SiO2 
 PCOD9548300
Probable space group: P 41 2 2
;
_chemical_formula_sum "Si O2"
_cell_formula_units_Z 44
_cell_length_a 8.207103
_cell_length_b 8.207103
_cell_length_c 32.608346
_cell_angle_alpha 90.000000
_cell_angle_beta 90.000000
_cell_angle_gamma 90.000000
_cell_volume 2196.385350
_symmetry_space_group_name_H-M "P 41 2 2"
_symmetry_group_IT_number 91
_symmetry_cell_setting 'tetragonal'
loop_
_space_group_symop_operation_xyz
x,y,z
-y,x,1/4+z
-x,-y,1/2+z
y,-x,3/4+z
x,-y,1/2-z
-x,y,-z
y,x,3/4-z
-y,-x,1/4-z
loop_
_atom_site_type_symbol
_atom_site_label
_atom_site_fract_x
_atom_site_fract_y
_atom_site_fract_z
Si Si1 0.595126 0.500000 0.250000
Si Si2 0.712530 0.931062 0.905914
Si Si3 0.294963 0.152142 0.781551
Si Si4 0.968861 0.979665 0.701996
Si Si5 0.623658 0.137574 0.834069
Si Si6 0.632459 0.482174 0.670344
O O1 0.687856 0.668411 0.261279
O O2 0.488148 0.540015 0.209038
O O3 0.820776 0.820776 0.875000
O O4 0.845904 0.019390 0.933335
O O5 0.605288 0.802489 0.930545
O O6 0.608319 0.051728 0.878094
O O7 0.456823 0.120146 0.808626
O O8 0.291337 0.000000 0.750000
O O9 0.121707 0.140113 0.805201
O O10 0.945915 0.000000 0.750000
O O11 0.790730 0.932401 0.685311
O O12 0.654883 0.327812 0.836288
O O13 0.577944 0.422057 0.625000
#
# Coordination Sequence:
#
# PCOD9548300 Si02
#       6
#     4   8   8   8   8   8
#     4  10  24  44  66 102 134 176 234 268 344 410
#     4   9  21  38  63  89 121 167 218 263 325 398
#     4  10  23  41  67  94 136 175 220 277 331 402
#     4  10  22  40  62  96 123 167 223 264 336 397
#     4  10  22  41  64  91 131 173 213 278 330 392
#     4  10  23  41  66  97 130 177 224 274 337 406
#
# _framework density 20.032916
#
# number of rings (size 3 to 8) (size 9 to 14) (size 15 to 20)
#    0.000    2.182    0.000    0.545   15.273    1.455 
#   13.091    0.909    0.000    0.000    0.000    0.000 
#    0.000    0.000    0.000    0.000    0.000    0.000 
#
# Total GULP energy -245133.349247 kJ/mol
# GULP energy per Si atom -5571.212483 kJ/mol
# Density = 1.998732 g / cm^3
# Si number density = 20.032916 Si / 1000 Ang^3
#
#
#
# Elastic Constant Matrix: (Units=GPa)
#
#
# Indices 1 2 3 4 5 6 
#
# 1 76.8405 20.9652 17.8198 0.0000 0.0000 0.0000
# 2 20.9652 76.8403 17.8199 0.0000 0.0000 0.0000
# 3 17.8198 17.8199 60.6140 0.0000 0.0000 0.0000
# 4 0.0000 0.0000 0.0000 133.8779 0.0000 0.0000
# 5 0.0000 0.0000 0.0000 0.0000 133.8873 0.0000
# 6 0.0000 0.0000 0.0000 0.0000 0.0000 42.2446
#
#
#
# Elastic Compliance Matrix: (Units=1/GPa)
#
#
# Indices 1 2 3 4 5 6 
#
# 1 0.014674 -0.003223 -0.003366 0.000000 0.000000 0.000000
# 2 -0.003223 0.014674 -0.003367 0.000000 0.000000 0.000000
# 3 -0.003366 -0.003367 0.018477 0.000000 0.000000 0.000000
# 4 0.000000 0.000000 0.000000 0.007469 0.000000 0.000000
# 5 0.000000 0.000000 0.000000 0.000000 0.007469 0.000000
# 6 0.000000 0.000000 0.000000 0.000000 0.000000 0.023672
#
#
# Mechanical properties :
#
#
# Convention : Reuss Voigt Hill
#
# Bulk Modulus (GPa) = 35.82501 36.38941 36.10721
# Shear Modulus (GPa) = 43.23315 72.51462 57.87389
#
# Velocity S-wave (km/s) = 4.65058 6.02298 5.38072
# Velocity P-wave (km/s) = 6.83806 8.15921 7.52767
#
# Compressibility (1/GPa) = 0.02791346
#
# Stress axis : x y z
#
# Youngs Moduli (GPa) = 68.14756 68.14729 54.12052
#
# Poissons Ratio (x) = 0.21964 0.18220
# Poissons Ratio (y) = 0.21964 0.18220
# Poissons Ratio (z) = 0.22942 0.22942
#
# Static dielectric constant tensor:
#      x y z
#    x 1.750090 0.000000 0.000000 
#    y 0.000000 1.750090 0.000000 
#    z 0.000000 0.000000 1.808000 
# 
# From -- ./inp_files/22203.got.cif
#   From: 2010.05.17/outbox.cif.g08.bks.cpg/sg91_12_cif.got.tgz:22203.got - 2010.06.03 19:20:03.
