data_PCOD9548028
_publ_section_title
;
Structure prediction by ZEFSAII (Michael W. Deem and Ramdas Pophale) SiO2 
 PCOD9548028
Probable space group: P 41 2 2
;
_chemical_formula_sum "Si O2"
_cell_formula_units_Z 56
_cell_length_a 14.948322
_cell_length_b 14.948322
_cell_length_c 11.767132
_cell_angle_alpha 90.000000
_cell_angle_beta 90.000000
_cell_angle_gamma 90.000000
_cell_volume 2629.393070
_symmetry_space_group_name_H-M "P 41 2 2"
_symmetry_group_IT_number 91
_symmetry_cell_setting 'tetragonal'
loop_
_space_group_symop_operation_xyz
x,y,z
-y,x,1/4+z
-x,-y,1/2+z
y,-x,3/4+z
x,-y,1/2-z
-x,y,-z
y,x,3/4-z
-y,-x,1/4-z
loop_
_atom_site_type_symbol
_atom_site_label
_atom_site_fract_x
_atom_site_fract_y
_atom_site_fract_z
Si Si1 0.334812 0.263601 0.223363
Si Si2 0.577000 0.083022 0.826593
Si Si3 0.093028 0.213699 0.956954
Si Si4 0.348050 0.828066 0.891151
Si Si5 0.319514 0.496178 0.114225
Si Si6 0.390391 0.032107 0.917988
Si Si7 0.399722 0.656191 0.501715
O O1 0.367713 0.162765 0.229534
O O2 0.234905 0.303164 0.240447
O O3 0.411795 0.311170 0.296857
O O4 0.347152 0.284927 0.088872
O O5 0.468531 0.077694 0.842051
O O6 0.600237 0.000000 0.750000
O O7 0.604868 0.070098 0.956357
O O8 0.151623 0.151623 0.875000
O O9 0.057762 0.296904 0.884583
O O10 0.147944 0.265222 0.056889
O O11 0.000000 0.168830 0.000000
O O12 0.431153 0.767511 0.844978
O O13 0.392064 0.923590 0.924005
O O14 0.328072 0.500000 0.250000
O O15 0.399477 0.441302 0.056679
O O16 0.500000 0.692417 0.500000
O O17 0.355567 0.644434 0.625000
#
# Coordination Sequence:
#
# PCOD9548028 Si02
#       7
#     8   8   8   8   8   8   8
#     4  11  24  42  66  96 129 171 224 284 336 403
#     4  11  23  38  63  93 128 171 220 271 342 394
#     4  10  20  40  68  99 128 164 214 269 342 415
#     4  10  23  40  63  96 131 171 222 276 334 399
#     4  11  25  42  62  90 126 180 225 265 330 390
#     4  10  22  38  63  92 130 169 211 277 331 410
#     4  11  24  43  62  86 124 164 220 281 327 379
#
# _framework density 21.297691
#
# number of rings (size 3 to 8) (size 9 to 14) (size 15 to 20)
#    0.000    1.429    1.429    3.857    6.000    7.429 
#    0.000    0.000    0.000    7.714    0.000    0.000 
#    0.000    0.000    0.000    0.000    0.000    0.000 
#
# Total GULP energy -312429.350873 kJ/mol
# GULP energy per Si atom -5579.095551 kJ/mol
# Density = 2.124922 g / cm^3
# Si number density = 21.297691 Si / 1000 Ang^3
#
#
#
# Elastic Constant Matrix: (Units=GPa)
#
#
# Indices 1 2 3 4 5 6 
#
# 1 79.0647 50.1482 8.5514 0.0000 0.0000 0.0000
# 2 50.1482 79.0648 8.5512 0.0000 0.0000 0.0000
# 3 8.5514 8.5512 70.5558 0.0000 0.0000 0.0000
# 4 0.0000 0.0000 0.0000 -2.5304 0.0000 0.0000
# 5 0.0000 0.0000 0.0000 0.0000 -2.5335 0.0000
# 6 0.0000 0.0000 0.0000 0.0000 0.0000 18.5109
#
#
#
# Elastic Compliance Matrix: (Units=1/GPa)
#
#
# Indices 1 2 3 4 5 6 
#
# 1 0.021224 -0.013358 -0.000953 0.000000 0.000000 0.000000
# 2 -0.013358 0.021224 -0.000953 0.000000 0.000000 0.000000
# 3 -0.000953 -0.000953 0.014404 0.000000 0.000000 0.000000
# 4 0.000000 0.000000 0.000000 -0.395192 0.000000 0.000000
# 5 0.000000 0.000000 0.000000 0.000000 -0.394706 0.000000
# 6 0.000000 0.000000 0.000000 0.000000 0.000000 0.054022
#
#
# Mechanical properties :
#
#
# Convention : Reuss Voigt Hill
#
# Bulk Modulus (GPa) = 37.99124 40.35407 39.17265
# Shear Modulus (GPa) = -7.81593 13.45168 2.81788
#
# Velocity S-wave (km/s) = -1.91776 2.51590 1.15150
# Velocity P-wave (km/s) = 3.60183 5.23721 4.49453
#
# Compressibility (1/GPa) = 0.02632186
#
# Stress axis : x y z
#
# Youngs Moduli (GPa) = 47.11685 47.11693 69.42392
#
# Poissons Ratio (x) = 0.62941 0.06618
# Poissons Ratio (y) = 0.62941 0.06618
# Poissons Ratio (z) = 0.04492 0.04491
#
# Static dielectric constant tensor:
#      x y z
#    x 1.894700 0.000000 0.000000 
#    y 0.000000 1.894700 0.000000 
#    z 0.000000 0.000000 1.924710 
# 
# From -- ./inp_files/10856.got.cif
#   From: 2010.05.17/outbox.cif.g08.bks.cpg/sg91_6_cif.got.tgz:10856.got - 2010.06.03 19:20:03.
