data_PCOD9548763
_publ_section_title
;
Structure prediction by ZEFSAII (Michael W. Deem and Ramdas Pophale) SiO2 
 PCOD9548763
Probable space group: P 41 2 2
;
_chemical_formula_sum "Si O2"
_cell_formula_units_Z 40
_cell_length_a 8.194240
_cell_length_b 8.194240
_cell_length_c 26.301101
_cell_angle_alpha 90.000000
_cell_angle_beta 90.000000
_cell_angle_gamma 90.000000
_cell_volume 1766.002397
_symmetry_space_group_name_H-M "P 41 2 2"
_symmetry_group_IT_number 91
_symmetry_cell_setting 'tetragonal'
loop_
_space_group_symop_operation_xyz
x,y,z
-y,x,1/4+z
-x,-y,1/2+z
y,-x,3/4+z
x,-y,1/2-z
-x,y,-z
y,x,3/4-z
-y,-x,1/4-z
loop_
_atom_site_type_symbol
_atom_site_label
_atom_site_fract_x
_atom_site_fract_y
_atom_site_fract_z
Si Si1 0.365835 0.826983 0.272902
Si Si2 0.026201 0.973800 0.625000
Si Si3 0.369479 0.938655 0.564640
Si Si4 0.824575 0.296596 0.359112
Si Si5 0.177944 0.727488 0.490100
Si Si6 0.500000 0.218767 0.500000
O O1 0.306630 0.807074 0.330481
O O2 0.561143 0.830553 0.271432
O O3 0.316715 0.666401 0.241588
O O4 0.306497 0.000000 0.250000
O O5 0.037369 0.801957 0.655972
O O6 0.845770 0.961841 0.599914
O O7 0.455410 0.104043 0.547081
O O8 0.514302 0.849532 0.594340
O O9 0.314277 0.842611 0.514074
O O10 0.693759 0.223671 0.318673
O O11 0.000000 0.804920 0.500000
#
# Coordination Sequence:
#
# PCOD9548763 Si02
#       6
#     8   4   8   8   8   4
#     4  11  29  49  71 110 158 202 266 327 392 478
#     4  12  26  48  76 104 156 200 260 312 392 476
#     4  12  25  46  75 109 143 193 263 311 389 473
#     4  12  26  45  79 110 146 214 254 324 403 464
#     4  11  24  50  78 108 155 202 263 334 395 466
#     4  12  26  44  70 106 152 196 244 322 392 466
#
# _framework density 22.650027999999999
#
# number of rings (size 3 to 8) (size 9 to 14) (size 15 to 20)
#    0.000    0.400    6.000    1.200    8.400    0.800 
#    0.000    2.000    0.000    0.000    0.000    0.000 
#    0.000    0.000    0.000    0.000    0.000    0.000 
#
# Total GULP energy -222947.958736 kJ/mol
# GULP energy per Si atom -5573.698968 kJ/mol
# Density = 2.259848 g / cm^3
# Si number density = 22.650028 Si / 1000 Ang^3
#
#
#
# Elastic Constant Matrix: (Units=GPa)
#
#
# Indices 1 2 3 4 5 6 
#
# 1 130.0846 30.7678 38.4300 0.0000 0.0000 0.0000
# 2 30.7678 130.0848 38.4298 0.0000 0.0000 0.0000
# 3 38.4300 38.4298 121.4402 0.0000 0.0000 0.0000
# 4 0.0000 0.0000 0.0000 88.7689 0.0000 0.0000
# 5 0.0000 0.0000 0.0000 0.0000 88.7687 0.0000
# 6 0.0000 0.0000 0.0000 0.0000 0.0000 -147.2380
#
#
#
# Elastic Compliance Matrix: (Units=1/GPa)
#
#
# Indices 1 2 3 4 5 6 
#
# 1 0.008697 -0.001372 -0.002318 0.000000 0.000000 0.000000
# 2 -0.001372 0.008697 -0.002318 0.000000 0.000000 0.000000
# 3 -0.002318 -0.002318 0.009701 0.000000 0.000000 0.000000
# 4 0.000000 0.000000 0.000000 0.011265 0.000000 0.000000
# 5 0.000000 0.000000 0.000000 0.000000 0.011265 0.000000
# 6 0.000000 0.000000 0.000000 0.000000 0.000000 -0.006792
#
#
# Mechanical properties :
#
#
# Convention : Reuss Voigt Hill
#
# Bulk Modulus (GPa) = 66.31746 66.31832 66.31789
# Shear Modulus (GPa) = 83.50690 24.32540 53.91615
#
# Velocity S-wave (km/s) = 6.07852 3.28070 4.88423
# Velocity P-wave (km/s) = 8.86607 6.61013 7.81988
#
# Compressibility (1/GPa) = 0.01507898
#
# Stress axis : x y z
#
# Youngs Moduli (GPa) = 114.98752 114.98785 103.07734
#
# Poissons Ratio (x) = 0.15779 0.23892
# Poissons Ratio (y) = 0.15778 0.23891
# Poissons Ratio (z) = 0.26652 0.26652
#
# Static dielectric constant tensor:
#      x y z
#    x 1.882740 0.000000 0.000000 
#    y 0.000000 1.882740 0.000000 
#    z 0.000000 0.000000 1.926770 
# 
# From -- ./inp_files/13206.got.cif
#   From: 2010.05.17/outbox.cif.g08.bks.cpg/sg91_7_cif.got.tgz:13206.got - 2010.06.03 19:20:03.
