data_PCOD9548877
_publ_section_title
;
Structure prediction by ZEFSAII (Michael W. Deem and Ramdas Pophale) SiO2 
 PCOD9548877
Probable space group: P 41 21 2
;
_chemical_formula_sum "Si O2"
_cell_formula_units_Z 52
_cell_length_a 17.571174
_cell_length_b 17.571174
_cell_length_c 6.906743
_cell_angle_alpha 90.000000
_cell_angle_beta 90.000000
_cell_angle_gamma 90.000000
_cell_volume 2132.430350
_symmetry_space_group_name_H-M "P 41 21 2"
_symmetry_group_IT_number 92
_symmetry_cell_setting 'tetragonal'
loop_
_space_group_symop_operation_xyz
x,y,z
1/2-y,1/2+x,1/4+z
-x,-y,1/2+z
1/2+y,1/2-x,3/4+z
1/2+x,1/2-y,3/4-z
1/2-x,1/2+y,1/4-z
y,x,-z
-y,-x,1/2-z
loop_
_atom_site_type_symbol
_atom_site_label
_atom_site_fract_x
_atom_site_fract_y
_atom_site_fract_z
Si Si1 0.467528 0.908393 0.421268
Si Si2 0.211743 0.649642 0.217265
Si Si3 0.165051 0.938892 0.376899
Si Si4 0.057619 0.942382 0.750000
Si Si5 0.765142 0.665884 0.141863
Si Si6 0.409963 0.179143 0.703416
Si Si7 0.822612 0.977639 0.493091
O O1 0.422259 0.983635 0.361575
O O2 0.412591 0.836861 0.405940
O O3 0.530656 0.886775 0.256549
O O4 0.152282 0.678498 0.376724
O O5 0.281629 0.601740 0.297865
O O6 0.228273 0.711227 0.050817
O O7 0.129362 0.870639 0.250000
O O8 0.110010 0.949739 0.558037
O O9 0.239867 0.905983 0.477730
O O10 0.168095 0.007392 0.224322
O O11 0.989065 0.899074 0.631397
O O12 0.699281 0.699281 0.000000
O O13 0.828073 0.635339 0.994803
O O14 0.456299 0.259433 0.691733
#
# Coordination Sequence:
#
# PCOD9548877 Si02
#       7
#     8   8   8   4   8   8   8
#     4   9  20  36  51  72 107 155 208 245 277 329
#     4  10  23  36  49  78 117 151 192 246 290 341
#     4  10  18  31  56  79 103 142 190 233 287 345
#     4  10  18  32  56  80  98 146 188 232 290 346
#     4  12  22  34  56  80 108 159 200 237 300 351
#     4  10  20  36  52  78 107 152 203 238 282 338
#     4  10  19  35  53  78 112 148 190 240 288 348
#
# _framework density 24.385323
#
# number of rings (size 3 to 8) (size 9 to 14) (size 15 to 20)
#    0.000    1.846    3.846    0.923    2.154    1.231 
#    2.769    0.000    0.000    0.000    0.000    0.000 
#    0.000    0.000  117.692    0.000    0.000    0.000 
#
# Total GULP energy -289911.503416 kJ/mol
# GULP energy per Si atom -5575.221220 kJ/mol
# Density = 2.432982 g / cm^3
# Si number density = 24.385323 Si / 1000 Ang^3
#
#
#
# Elastic Constant Matrix: (Units=GPa)
#
#
# Indices 1 2 3 4 5 6 
#
# 1 22.2405 79.3174 19.7495 0.0000 0.0000 0.0000
# 2 79.3174 22.2415 19.7492 0.0000 0.0000 0.0000
# 3 19.7495 19.7492 143.7185 0.0000 0.0000 0.0000
# 4 0.0000 0.0000 0.0000 22.1533 0.0000 0.0000
# 5 0.0000 0.0000 0.0000 0.0000 22.1530 0.0000
# 6 0.0000 0.0000 0.0000 0.0000 0.0000 37.4778
#
#
#
# Elastic Compliance Matrix: (Units=1/GPa)
#
#
# Indices 1 2 3 4 5 6 
#
# 1 -0.003559 0.013961 -0.001429 0.000000 0.000000 0.000000
# 2 0.013961 -0.003559 -0.001430 0.000000 0.000000 0.000000
# 3 -0.001429 -0.001430 0.007351 0.000000 0.000000 0.000000
# 4 0.000000 0.000000 0.000000 0.045140 0.000000 0.000000
# 5 0.000000 0.000000 0.000000 0.000000 0.045141 0.000000
# 6 0.000000 0.000000 0.000000 0.000000 0.000000 0.026682
#
#
# Mechanical properties :
#
#
# Convention : Reuss Voigt Hill
#
# Bulk Modulus (GPa) = 44.56720 47.31472 45.94096
# Shear Modulus (GPa) = 48.79458 20.98245 34.88852
#
# Velocity S-wave (km/s) = 4.47809 2.93653 3.78659
# Velocity P-wave (km/s) = 6.71220 5.56262 6.16426
#
# Compressibility (1/GPa) = 0.02243803
#
# Stress axis : x y z
#
# Youngs Moduli (GPa) = -280.97558 -280.99085 136.03744
#
# Poissons Ratio (x) = 3.92304 0.19446
# Poissons Ratio (y) = 3.92283 0.19447
# Poissons Ratio (z) = -0.40164 -0.40168
#
# Static dielectric constant tensor:
#      x y z
#    x 2.014040 0.000000 0.000000 
#    y 0.000000 2.014040 0.000000 
#    z 0.000000 0.000000 1.941640 
# 
# From -- ./inp_files/716.got.cif
#   From: 2010.05.17/outbox.cif.g08.bks.cpg/sg92_1_cif.got.tgz:716.got - 2010.06.03 19:35:17.
