data_PCOD9548891
_publ_section_title
;
Structure prediction by ZEFSAII (Michael W. Deem and Ramdas Pophale) SiO2 
 PCOD9548891
Probable space group: P 41 21 2
;
_chemical_formula_sum "Si O2"
_cell_formula_units_Z 48
_cell_length_a 14.798505
_cell_length_b 14.798505
_cell_length_c 11.007923
_cell_angle_alpha 90.000000
_cell_angle_beta 90.000000
_cell_angle_gamma 90.000000
_cell_volume 2410.688356
_symmetry_space_group_name_H-M "P 41 21 2"
_symmetry_group_IT_number 92
_symmetry_cell_setting 'tetragonal'
loop_
_space_group_symop_operation_xyz
x,y,z
1/2-y,1/2+x,1/4+z
-x,-y,1/2+z
1/2+y,1/2-x,3/4+z
1/2+x,1/2-y,3/4-z
1/2-x,1/2+y,1/4-z
y,x,-z
-y,-x,1/2-z
loop_
_atom_site_type_symbol
_atom_site_label
_atom_site_fract_x
_atom_site_fract_y
_atom_site_fract_z
Si Si1 0.336496 0.448942 0.783101
Si Si2 0.913362 0.957836 0.183194
Si Si3 0.809315 0.883992 0.625957
Si Si4 0.588802 0.743971 0.317004
Si Si5 0.875647 0.317878 0.680947
Si Si6 0.429704 0.983853 0.976392
O O1 0.409697 0.501157 0.866896
O O2 0.340045 0.506575 0.661367
O O3 0.367503 0.345595 0.760292
O O4 0.242230 0.444044 0.853337
O O5 0.872173 0.884332 0.272573
O O6 0.956708 0.043292 0.250000
O O7 0.849373 0.849373 0.500000
O O8 0.714638 0.834519 0.645855
O O9 0.786724 0.989269 0.609914
O O10 0.640982 0.768048 0.440957
O O11 0.573731 0.836633 0.242364
O O12 0.911033 0.415106 0.722940
O O13 0.501418 0.950238 0.081515
#
# Coordination Sequence:
#
# PCOD9548891 Si02
#       6
#     8   8   8   8   8   8
#     4  11  20  35  58  84 118 157 191 251 313 362
#     4  11  21  34  56  87 120 153 193 248 316 368
#     4  11  20  33  57  88 115 152 203 251 296 368
#     4  10  18  34  58  86 115 149 201 256 301 354
#     4  10  20  36  59  85 115 156 209 252 294 364
#     4   9  20  38  61  88 116 158 210 259 310 366
#
# _framework density 19.911322999999999
#
# number of rings (size 3 to 8) (size 9 to 14) (size 15 to 20)
#    0.000    1.667    3.333    2.500    0.000    0.000 
#    0.000    8.333    3.667    0.000    0.000    0.000 
#    0.000    0.000    0.000    0.000    0.000    0.000 
#
# Total GULP energy -267697.292466 kJ/mol
# GULP energy per Si atom -5577.026926 kJ/mol
# Density = 1.986600 g / cm^3
# Si number density = 19.911323 Si / 1000 Ang^3
#
#
#
# Elastic Constant Matrix: (Units=GPa)
#
#
# Indices 1 2 3 4 5 6 
#
# 1 48.5175 -5.3969 -0.6482 0.0000 0.0000 0.0000
# 2 -5.3969 48.5175 -0.6482 0.0000 0.0000 0.0000
# 3 -0.6482 -0.6482 47.8836 0.0000 0.0000 0.0000
# 4 0.0000 0.0000 0.0000 20.6044 0.0000 0.0000
# 5 0.0000 0.0000 0.0000 0.0000 20.6044 0.0000
# 6 0.0000 0.0000 0.0000 0.0000 0.0000 29.6743
#
#
#
# Elastic Compliance Matrix: (Units=1/GPa)
#
#
# Indices 1 2 3 4 5 6 
#
# 1 0.020874 0.002326 0.000314 0.000000 0.000000 0.000000
# 2 0.002326 0.020874 0.000314 0.000000 0.000000 0.000000
# 3 0.000314 0.000314 0.020892 0.000000 0.000000 0.000000
# 4 0.000000 0.000000 0.000000 0.048533 0.000000 0.000000
# 5 0.000000 0.000000 0.000000 0.000000 0.048533 0.000000
# 6 0.000000 0.000000 0.000000 0.000000 0.000000 0.033699
#
#
# Mechanical properties :
#
#
# Convention : Reuss Voigt Hill
#
# Bulk Modulus (GPa) = 14.58808 14.61467 14.60137
# Shear Modulus (GPa) = 23.77018 24.28409 24.02713
#
# Velocity S-wave (km/s) = 3.45889 3.49608 3.47754
# Velocity P-wave (km/s) = 4.82642 4.86339 4.84494
#
# Compressibility (1/GPa) = 0.06854913
#
# Stress axis : x y z
#
# Youngs Moduli (GPa) = 47.90633 47.90633 47.86409
#
# Poissons Ratio (x) = -0.11144 -0.01503
# Poissons Ratio (y) = -0.11144 -0.01503
# Poissons Ratio (z) = -0.01504 -0.01504
#
# Static dielectric constant tensor:
#      x y z
#    x 1.744650 0.000000 0.000000 
#    y 0.000000 1.744650 0.000000 
#    z 0.000000 0.000000 1.716620 
# 
# From -- ./inp_files/2189.got.cif
#   From: 2010.05.17/outbox.cif.g08.bks.cpg/sg92_2_cif.got.tgz:2189.got - 2010.06.03 19:35:17.
