data_PCOD9548244
_publ_section_title
;
Structure prediction by ZEFSAII (Michael W. Deem and Ramdas Pophale) SiO2 
 PCOD9548244
Probable space group: P 41 2 2
;
_chemical_formula_sum "Si O2"
_cell_formula_units_Z 44
_cell_length_a 12.041655
_cell_length_b 12.041655
_cell_length_c 16.718142
_cell_angle_alpha 90.000000
_cell_angle_beta 90.000000
_cell_angle_gamma 90.000000
_cell_volume 2424.154917
_symmetry_space_group_name_H-M "P 41 2 2"
_symmetry_group_IT_number 91
_symmetry_cell_setting 'tetragonal'
loop_
_space_group_symop_operation_xyz
x,y,z
-y,x,1/4+z
-x,-y,1/2+z
y,-x,3/4+z
x,-y,1/2-z
-x,y,-z
y,x,3/4-z
-y,-x,1/4-z
loop_
_atom_site_type_symbol
_atom_site_label
_atom_site_fract_x
_atom_site_fract_y
_atom_site_fract_z
Si Si1 0.682316 0.422719 0.465214
Si Si2 0.117683 0.477311 0.041004
Si Si3 0.170238 0.702273 0.323048
Si Si4 0.699723 0.114150 0.603862
Si Si5 0.953491 0.119248 0.410254
Si Si6 0.459703 0.459703 0.375000
O O1 0.784766 0.506113 0.475729
O O2 0.723252 0.300407 0.443001
O O3 0.586957 0.446875 0.400894
O O4 0.618055 0.426843 0.550569
O O5 0.149987 0.384840 0.106367
O O6 0.112201 0.595883 0.086870
O O7 0.000000 0.453895 0.000000
O O8 0.126135 0.660302 0.237260
O O9 0.117279 0.821702 0.340704
O O10 0.783494 0.216507 0.625000
O O11 0.775930 0.005186 0.613370
O O12 0.000000 0.132648 0.500000
O O13 0.009198 0.009198 0.375000
#
# Coordination Sequence:
#
# PCOD9548244 Si02
#       6
#     8   8   8   8   8   4
#     4  11  20  39  62  96 128 166 213 268 328 391
#     4  12  25  40  61  96 138 168 210 277 334 385
#     4  12  23  38  65 100 125 168 220 273 328 386
#     4  11  20  37  68  95 120 161 218 275 320 373
#     4  11  21  40  65  93 123 167 216 269 318 384
#     4  10  22  34  68  98 124 162 212 274 328 394
#
# _framework density 18.150653999999999
#
# number of rings (size 3 to 8) (size 9 to 14) (size 15 to 20)
#    0.000    0.727    7.273    3.273    2.545    0.727 
#    0.000    1.818    4.000    0.000    0.000    0.000 
#    0.000    0.000    0.000    0.000    0.000    0.000 
#
# Total GULP energy -245802.079058 kJ/mol
# GULP energy per Si atom -5586.410888 kJ/mol
# Density = 1.810934 g / cm^3
# Si number density = 18.150654 Si / 1000 Ang^3
#
#
#
# Elastic Constant Matrix: (Units=GPa)
#
#
# Indices 1 2 3 4 5 6 
#
# 1 88.9781 19.8666 27.7129 0.0000 0.0000 0.0000
# 2 19.8666 88.9776 27.7130 0.0000 0.0000 0.0000
# 3 27.7129 27.7130 64.5464 0.0000 0.0000 0.0000
# 4 0.0000 0.0000 0.0000 28.5887 0.0000 0.0000
# 5 0.0000 0.0000 0.0000 0.0000 28.5886 0.0000
# 6 0.0000 0.0000 0.0000 0.0000 0.0000 20.7511
#
#
#
# Elastic Compliance Matrix: (Units=1/GPa)
#
#
# Indices 1 2 3 4 5 6 
#
# 1 0.013114 -0.001356 -0.005048 0.000000 0.000000 0.000000
# 2 -0.001356 0.013114 -0.005048 0.000000 0.000000 0.000000
# 3 -0.005048 -0.005048 0.019828 0.000000 0.000000 0.000000
# 4 0.000000 0.000000 0.000000 0.034979 0.000000 0.000000
# 5 0.000000 0.000000 0.000000 0.000000 0.034979 0.000000
# 6 0.000000 0.000000 0.000000 0.000000 0.000000 0.048190
#
#
# Mechanical properties :
#
#
# Convention : Reuss Voigt Hill
#
# Bulk Modulus (GPa) = 43.19536 43.67634 43.43585
# Shear Modulus (GPa) = 25.66406 26.73298 26.19852
#
# Velocity S-wave (km/s) = 3.76433 3.84192 3.80332
# Velocity P-wave (km/s) = 6.53785 6.61785 6.57797
#
# Compressibility (1/GPa) = 0.02315064
#
# Stress axis : x y z
#
# Youngs Moduli (GPa) = 76.25593 76.25531 50.43438
#
# Poissons Ratio (x) = 0.10338 0.25461
# Poissons Ratio (y) = 0.10338 0.25461
# Poissons Ratio (z) = 0.38496 0.38497
#
# Static dielectric constant tensor:
#      x y z
#    x 1.626920 0.000000 0.000000 
#    y 0.000000 1.626920 0.000000 
#    z 0.000000 0.000000 1.642910 
# 
# From -- ./inp_files/16822.got.cif
#   From: 2010.05.17/outbox.cif.g08.bks.cpg/sg91_9_cif.got.tgz:16822.got - 2010.06.03 19:20:03.
