data_PCOD9548695
_publ_section_title
;
Structure prediction by ZEFSAII (Michael W. Deem and Ramdas Pophale) SiO2 
 PCOD9548695
Probable space group: P 41 2 2
;
_chemical_formula_sum "Si O2"
_cell_formula_units_Z 56
_cell_length_a 13.745624
_cell_length_b 13.745624
_cell_length_c 12.991348
_cell_angle_alpha 90.000000
_cell_angle_beta 90.000000
_cell_angle_gamma 90.000000
_cell_volume 2454.613601
_symmetry_space_group_name_H-M "P 41 2 2"
_symmetry_group_IT_number 91
_symmetry_cell_setting 'tetragonal'
loop_
_space_group_symop_operation_xyz
x,y,z
-y,x,1/4+z
-x,-y,1/2+z
y,-x,3/4+z
x,-y,1/2-z
-x,y,-z
y,x,3/4-z
-y,-x,1/4-z
loop_
_atom_site_type_symbol
_atom_site_label
_atom_site_fract_x
_atom_site_fract_y
_atom_site_fract_z
Si Si1 0.900294 0.422791 0.948166
Si Si2 0.726079 0.870153 0.592057
Si Si3 0.350489 0.498125 0.368645
Si Si4 0.045909 0.117079 0.105901
Si Si5 0.698328 0.066742 0.501208
Si Si6 0.334750 0.294115 0.764130
Si Si7 0.366119 0.178436 0.310157
O O1 0.895117 0.374970 0.835754
O O2 0.889714 0.538183 0.940225
O O3 0.813974 0.379115 0.016528
O O4 0.000000 0.395555 0.000000
O O5 0.839314 0.901651 0.595804
O O6 0.713863 0.777384 0.518599
O O7 0.690968 0.837431 0.704682
O O8 0.668460 0.963446 0.550355
O O9 0.318181 0.500000 0.250000
O O10 0.459070 0.459070 0.375000
O O11 0.342267 0.600747 0.424893
O O12 0.283095 0.417906 0.426353
O O13 0.045749 0.200158 0.192828
O O14 0.978650 0.021351 0.125000
O O15 0.000000 0.157780 0.000000
O O16 0.698141 0.145395 0.592550
O O17 0.342971 0.342971 0.875000
#
# Coordination Sequence:
#
# PCOD9548695 Si02
#       7
#     8   8   8   8   8   8   8
#     4  11  22  43  71 103 145 192 251 315 380 459
#     4  12  26  46  73 104 153 198 254 319 385 464
#     4  11  25  48  78 110 155 205 260 322 396 479
#     4  12  27  47  68 105 148 200 259 308 386 474
#     4  12  24  42  72 101 145 198 244 318 380 461
#     4  11  25  45  74 112 146 199 256 319 390 461
#     4  11  26  45  69 110 141 194 261 316 390 452
#
# _framework density 22.81418
#
# number of rings (size 3 to 8) (size 9 to 14) (size 15 to 20)
#    0.000    0.571    2.857    5.571    4.000    1.714 
#    0.000    8.571    0.000    0.000    0.000    0.000 
#    0.000    0.000    0.000    0.000    0.000    0.000 
#
# Total GULP energy -313395.155592 kJ/mol
# GULP energy per Si atom -5596.342064 kJ/mol
# Density = 2.276225 g / cm^3
# Si number density = 22.814180 Si / 1000 Ang^3
#
#
#
# Elastic Constant Matrix: (Units=GPa)
#
#
# Indices 1 2 3 4 5 6 
#
# 1 72.1554 29.5601 23.5769 0.0000 0.0000 0.0000
# 2 29.5601 72.1546 23.5766 0.0000 0.0000 0.0000
# 3 23.5769 23.5766 133.3238 0.0000 0.0000 0.0000
# 4 0.0000 0.0000 0.0000 32.1448 0.0000 0.0000
# 5 0.0000 0.0000 0.0000 0.0000 32.1447 0.0000
# 6 0.0000 0.0000 0.0000 0.0000 0.0000 59.4494
#
#
#
# Elastic Compliance Matrix: (Units=1/GPa)
#
#
# Indices 1 2 3 4 5 6 
#
# 1 0.017093 -0.006384 -0.001894 0.000000 0.000000 0.000000
# 2 -0.006384 0.017093 -0.001894 0.000000 0.000000 0.000000
# 3 -0.001894 -0.001894 0.008170 0.000000 0.000000 0.000000
# 4 0.000000 0.000000 0.000000 0.031109 0.000000 0.000000
# 5 0.000000 0.000000 0.000000 0.000000 0.031109 0.000000
# 6 0.000000 0.000000 0.000000 0.000000 0.000000 0.016821
#
#
# Mechanical properties :
#
#
# Convention : Reuss Voigt Hill
#
# Bulk Modulus (GPa) = 45.42624 47.89568 46.66096
# Shear Modulus (GPa) = 33.53970 38.14246 35.84108
#
# Velocity S-wave (km/s) = 3.83838 4.09329 3.96788
# Velocity P-wave (km/s) = 6.29276 6.58631 6.44121
#
# Compressibility (1/GPa) = 0.02201371
#
# Stress axis : x y z
#
# Youngs Moduli (GPa) = 58.50324 58.50267 122.39397
#
# Poissons Ratio (x) = 0.37347 0.23179
# Poissons Ratio (y) = 0.37347 0.23179
# Poissons Ratio (z) = 0.11080 0.11079
#
# Static dielectric constant tensor:
#      x y z
#    x 1.870640 0.000000 0.000000 
#    y 0.000000 1.870640 0.000000 
#    z 0.000000 0.000000 1.884190 
# 
# From -- ./inp_files/15981.got.cif
#   From: 2010.05.17/outbox.cif.g08.bks.cpg/sg91_8_cif.got.tgz:15981.got - 2010.06.03 19:20:03.
