data_PCOD9548728
_publ_section_title
;
Structure prediction by ZEFSAII (Michael W. Deem and Ramdas Pophale) SiO2 
 PCOD9548728
Probable space group: P 41 2 2
;
_chemical_formula_sum "Si O2"
_cell_formula_units_Z 44
_cell_length_a 8.188008
_cell_length_b 8.188008
_cell_length_c 25.934772
_cell_angle_alpha 90.000000
_cell_angle_beta 90.000000
_cell_angle_gamma 90.000000
_cell_volume 1738.757238
_symmetry_space_group_name_H-M "P 41 2 2"
_symmetry_group_IT_number 91
_symmetry_cell_setting 'tetragonal'
loop_
_space_group_symop_operation_xyz
x,y,z
-y,x,1/4+z
-x,-y,1/2+z
y,-x,3/4+z
x,-y,1/2-z
-x,y,-z
y,x,3/4-z
-y,-x,1/4-z
loop_
_atom_site_type_symbol
_atom_site_label
_atom_site_fract_x
_atom_site_fract_y
_atom_site_fract_z
Si Si1 0.647151 0.552710 0.040949
Si Si2 0.000000 0.002667 0.500000
Si Si3 0.311080 0.782222 0.503776
Si Si4 0.066944 0.448332 0.364075
Si Si5 0.268637 0.282846 0.113729
Si Si6 0.247456 0.212150 0.295434
O O1 0.612750 0.620936 0.097024
O O2 0.500000 0.552155 0.000000
O O3 0.698538 0.365338 0.044045
O O4 0.772996 0.670359 0.010594
O O5 0.161864 0.902686 0.514074
O O6 0.065846 0.117318 0.454584
O O7 0.500000 0.843057 0.500000
O O8 0.276582 0.703329 0.447654
O O9 0.090874 0.644524 0.368440
O O10 0.146093 0.371941 0.312360
O O11 0.173285 0.380764 0.411835
O O12 0.894092 0.356662 0.370475
#
# Coordination Sequence:
#
# PCOD9548728 Si02
#       6
#     8   4   8   8   8   8
#     4  11  24  44  79 107 147 210 258 321 402 487
#     4  12  26  48  72 110 160 196 254 336 402 474
#     4  11  28  48  75 113 156 203 262 333 400 485
#     4  11  25  44  75 109 154 199 267 327 397 485
#     4  12  25  47  77 115 154 207 266 339 400 487
#     4  11  23  44  71 105 148 202 259 313 398 490
#
# _framework density 25.305430000000001
#
# number of rings (size 3 to 8) (size 9 to 14) (size 15 to 20)
#    0.000    0.727    5.455    1.091    2.545    7.273 
#    0.000    1.818    0.000    0.000    0.000    0.000 
#    0.000    0.000    0.000    0.000    0.000    0.000 
#
# Total GULP energy -245569.014264 kJ/mol
# GULP energy per Si atom -5581.113961 kJ/mol
# Density = 2.524783 g / cm^3
# Si number density = 25.305430 Si / 1000 Ang^3
#
#
#
# Elastic Constant Matrix: (Units=GPa)
#
#
# Indices 1 2 3 4 5 6 
#
# 1 135.0751 70.5620 7.6134 0.0000 0.0000 0.0000
# 2 70.5620 135.0751 7.6134 0.0000 0.0000 0.0000
# 3 7.6134 7.6134 61.2402 0.0000 0.0000 0.0000
# 4 0.0000 0.0000 0.0000 28.3407 0.0000 0.0000
# 5 0.0000 0.0000 0.0000 0.0000 28.3407 0.0000
# 6 0.0000 0.0000 0.0000 0.0000 0.0000 46.9771
#
#
#
# Elastic Compliance Matrix: (Units=1/GPa)
#
#
# Indices 1 2 3 4 5 6 
#
# 1 0.010204 -0.005296 -0.000610 0.000000 0.000000 0.000000
# 2 -0.005296 0.010204 -0.000610 0.000000 0.000000 0.000000
# 3 -0.000610 -0.000610 0.016481 0.000000 0.000000 0.000000
# 4 0.000000 0.000000 0.000000 0.035285 0.000000 0.000000
# 5 0.000000 0.000000 0.000000 0.000000 0.035285 0.000000
# 6 0.000000 0.000000 0.000000 0.000000 0.000000 0.021287
#
#
# Mechanical properties :
#
#
# Convention : Reuss Voigt Hill
#
# Bulk Modulus (GPa) = 41.91749 55.88532 48.90141
# Shear Modulus (GPa) = 33.39298 37.10513 35.24905
#
# Velocity S-wave (km/s) = 3.63657 3.83337 3.73627
# Velocity P-wave (km/s) = 5.85093 6.45951 6.16274
#
# Compressibility (1/GPa) = 0.02385639
#
# Stress axis : x y z
#
# Youngs Moduli (GPa) = 97.99670 97.99670 60.67643
#
# Poissons Ratio (x) = 0.51902 0.03702
# Poissons Ratio (y) = 0.51902 0.03702
# Poissons Ratio (z) = 0.05980 0.05980
#
# Static dielectric constant tensor:
#      x y z
#    x 2.099500 0.000000 0.000000 
#    y 0.000000 2.099500 0.000000 
#    z 0.000000 0.000000 1.927630 
# 
# From -- ./inp_files/7836.got.cif
#   From: 2010.05.17/outbox.cif.g08.bks.cpg/sg91_4_cif.got.tgz:7836.got - 2010.06.03 19:20:03.
