data_PCOD9548195
_publ_section_title
;
Structure prediction by ZEFSAII (Michael W. Deem and Ramdas Pophale) SiO2 
 PCOD9548195
Probable space group: P 41 2 2
;
_chemical_formula_sum "Si O2"
_cell_formula_units_Z 40
_cell_length_a 17.460204
_cell_length_b 17.460204
_cell_length_c 5.314224
_cell_angle_alpha 90.000000
_cell_angle_beta 90.000000
_cell_angle_gamma 90.000000
_cell_volume 1620.087546
_symmetry_space_group_name_H-M "P 41 2 2"
_symmetry_group_IT_number 91
_symmetry_cell_setting 'tetragonal'
loop_
_space_group_symop_operation_xyz
x,y,z
-y,x,1/4+z
-x,-y,1/2+z
y,-x,3/4+z
x,-y,1/2-z
-x,y,-z
y,x,3/4-z
-y,-x,1/4-z
loop_
_atom_site_type_symbol
_atom_site_label
_atom_site_fract_x
_atom_site_fract_y
_atom_site_fract_z
Si Si1 0.632038 0.850571 0.173399
Si Si2 0.950706 0.247127 0.751371
Si Si3 0.083899 0.916102 0.125000
Si Si4 0.272683 0.727318 0.625000
Si Si5 0.594723 0.263533 0.721750
Si Si6 0.500000 0.865730 0.500000
Si Si7 0.500000 0.384240 0.000000
O O1 0.678494 0.897507 0.966969
O O2 0.705135 0.815653 0.324990
O O3 0.562462 0.897827 0.300465
O O4 0.599053 0.771216 0.058142
O O5 0.913409 0.162692 0.784377
O O6 0.000000 0.242637 0.500000
O O7 0.000000 0.262827 0.000000
O O8 0.085146 0.000000 0.250000
O O9 0.328602 0.715059 0.381127
O O10 0.557908 0.189970 0.856460
O O11 0.538554 0.332728 0.783823
O O12 0.564000 0.436001 0.125000
#
# Coordination Sequence:
#
# PCOD9548195 Si02
#       7
#     8   8   4   4   8   4   4
#     4  11  24  43  73 102 148 195 256 327 384 464
#     4  11  28  48  76 118 164 203 254 322 383 473
#     4  10  22  44  79 118 165 220 254 306 402 510
#     4  10  22  36  67 102 139 182 248 308 380 446
#     4  10  21  42  64  98 133 187 250 312 387 468
#     4   9  22  42  70  96 130 189 242 324 387 458
#     4  11  24  44  60  98 146 195 244 320 403 482
#
# _framework density 24.690021000000002
#
# number of rings (size 3 to 8) (size 9 to 14) (size 15 to 20)
#    0.000    1.600    1.000    1.800    8.400    5.600 
#    7.200    0.000    4.400    0.000    0.000    0.000 
#    0.000    0.000    0.000    0.000    0.000    0.000 
#
# Total GULP energy -222807.568939 kJ/mol
# GULP energy per Si atom -5570.189223 kJ/mol
# Density = 2.463383 g / cm^3
# Si number density = 24.690021 Si / 1000 Ang^3
#
#
#
# Elastic Constant Matrix: (Units=GPa)
#
#
# Indices 1 2 3 4 5 6 
#
# 1 94.3063 52.9333 24.4135 0.0000 0.0000 0.0000
# 2 52.9333 94.3077 24.4137 0.0000 0.0000 0.0000
# 3 24.4135 24.4137 75.2248 0.0000 0.0000 0.0000
# 4 0.0000 0.0000 0.0000 38.9930 0.0000 0.0000
# 5 0.0000 0.0000 0.0000 0.0000 38.9924 0.0000
# 6 0.0000 0.0000 0.0000 0.0000 0.0000 40.7119
#
#
#
# Elastic Compliance Matrix: (Units=1/GPa)
#
#
# Indices 1 2 3 4 5 6 
#
# 1 0.015890 -0.008280 -0.002470 0.000000 0.000000 0.000000
# 2 -0.008280 0.015890 -0.002470 0.000000 0.000000 0.000000
# 3 -0.002470 -0.002470 0.014897 0.000000 0.000000 0.000000
# 4 0.000000 0.000000 0.000000 0.025646 0.000000 0.000000
# 5 0.000000 0.000000 0.000000 0.000000 0.025646 0.000000
# 6 0.000000 0.000000 0.000000 0.000000 0.000000 0.024563
#
#
# Mechanical properties :
#
#
# Convention : Reuss Voigt Hill
#
# Bulk Modulus (GPa) = 49.41161 51.92887 50.67024
# Shear Modulus (GPa) = 32.10950 34.54467 33.32709
#
# Velocity S-wave (km/s) = 3.61016 3.74456 3.67798
# Velocity P-wave (km/s) = 6.11833 6.30663 6.21319
#
# Compressibility (1/GPa) = 0.02023816
#
# Stress axis : x y z
#
# Youngs Moduli (GPa) = 62.93092 62.93181 67.12889
#
# Poissons Ratio (x) = 0.52105 0.16581
# Poissons Ratio (y) = 0.52104 0.16581
# Poissons Ratio (z) = 0.15544 0.15544
#
# Static dielectric constant tensor:
#      x y z
#    x 2.025730 0.000000 0.000000 
#    y 0.000000 2.025740 0.000000 
#    z 0.000000 0.000000 2.338200 
# 
# From -- ./inp_files/18647.got.cif
#   From: 2010.05.17/outbox.cif.g08.bks.cpg/sg91_10_cif.got.tgz:18647.got - 2010.06.03 19:20:03.
