data_PCOD9548098
_publ_section_title
;
Structure prediction by ZEFSAII (Michael W. Deem and Ramdas Pophale) SiO2 
 PCOD9548098
Probable space group: P 41 2 2
;
_chemical_formula_sum "Si O2"
_cell_formula_units_Z 60
_cell_length_a 17.566271
_cell_length_b 17.566271
_cell_length_c 10.795520
_cell_angle_alpha 90.000000
_cell_angle_beta 90.000000
_cell_angle_gamma 90.000000
_cell_volume 3331.215459
_symmetry_space_group_name_H-M "P 41 2 2"
_symmetry_group_IT_number 91
_symmetry_cell_setting 'tetragonal'
loop_
_space_group_symop_operation_xyz
x,y,z
-y,x,1/4+z
-x,-y,1/2+z
y,-x,3/4+z
x,-y,1/2-z
-x,y,-z
y,x,3/4-z
-y,-x,1/4-z
loop_
_atom_site_type_symbol
_atom_site_label
_atom_site_fract_x
_atom_site_fract_y
_atom_site_fract_z
Si Si1 0.681922 0.000000 0.750000
Si Si2 0.602953 0.773139 0.687975
Si Si3 0.323364 0.663310 0.484798
Si Si4 0.159745 0.763448 0.008226
Si Si5 0.583222 0.926960 0.540842
Si Si6 0.820600 0.778460 0.507413
Si Si7 0.911631 0.367118 0.018405
Si Si8 0.466388 0.781578 0.864198
O O1 0.733452 0.073998 0.729657
O O2 0.629232 0.015564 0.870900
O O3 0.611788 0.705472 0.591457
O O4 0.685826 0.790579 0.745980
O O5 0.576423 0.850144 0.619799
O O6 0.539977 0.757728 0.787782
O O7 0.350773 0.649228 0.625000
O O8 0.254141 0.724307 0.495173
O O9 0.285873 0.594507 0.408154
O O10 0.188901 0.811100 0.125000
O O11 0.170648 0.808942 0.879187
O O12 0.500000 0.955331 0.500000
O O13 0.626528 0.901255 0.416406
O O14 0.821081 0.821081 0.375000
O O15 0.889454 0.718554 0.520233
O O16 0.856268 0.424868 0.944824
O O17 0.000000 0.384959 0.000000
O O18 0.500000 0.796414 0.000000
#
# Coordination Sequence:
#
# PCOD9548098 Si02
#       8
#     4   8   8   8   8   8   8   8
#     4  10  24  40  60  88 126 162 196 262 312 376
#     4  10  21  37  58  80 117 152 198 247 294 366
#     4   9  19  35  61  83 107 148 204 251 294 350
#     4  10  22  37  61  89 114 157 204 251 309 368
#     4  11  22  38  56  86 126 165 198 236 313 381
#     4   9  18  38  57  79 112 153 203 252 283 350
#     4  11  24  35  57  87 124 163 198 244 302 375
#     4  11  24  38  55  89 122 160 201 252 310 368
#
# _framework density 18.011444999999998
#
# number of rings (size 3 to 8) (size 9 to 14) (size 15 to 20)
#    0.000    1.867    1.333    4.000    8.400    1.600 
#    0.000    0.000    0.000    0.000    8.667    0.000 
#    0.000    0.000    0.000    0.000    0.000    0.000 
#
# Total GULP energy -334673.945762 kJ/mol
# GULP energy per Si atom -5577.899096 kJ/mol
# Density = 1.797045 g / cm^3
# Si number density = 18.011445 Si / 1000 Ang^3
#
#
#
# Elastic Constant Matrix: (Units=GPa)
#
#
# Indices 1 2 3 4 5 6 
#
# 1 64.7462 45.1979 52.4454 0.0000 0.0000 0.0000
# 2 45.1979 64.7472 52.4453 0.0000 0.0000 0.0000
# 3 52.4454 52.4453 140.0446 0.0000 0.0000 0.0000
# 4 0.0000 0.0000 0.0000 27.1162 0.0000 0.0000
# 5 0.0000 0.0000 0.0000 0.0000 27.1164 0.0000
# 6 0.0000 0.0000 0.0000 0.0000 0.0000 5.9023
#
#
#
# Elastic Compliance Matrix: (Units=1/GPa)
#
#
# Indices 1 2 3 4 5 6 
#
# 1 0.032653 -0.018501 -0.005300 0.000000 0.000000 0.000000
# 2 -0.018501 0.032652 -0.005299 0.000000 0.000000 0.000000
# 3 -0.005300 -0.005299 0.011110 0.000000 0.000000 0.000000
# 4 0.000000 0.000000 0.000000 0.036878 0.000000 0.000000
# 5 0.000000 0.000000 0.000000 0.000000 0.036878 0.000000
# 6 0.000000 0.000000 0.000000 0.000000 0.000000 0.169427
#
#
# Mechanical properties :
#
#
# Convention : Reuss Voigt Hill
#
# Bulk Modulus (GPa) = 54.90141 63.30167 59.10154
# Shear Modulus (GPa) = 13.02521 19.99025 16.50773
#
# Velocity S-wave (km/s) = 2.69209 3.33508 3.03068
# Velocity P-wave (km/s) = 6.34119 7.07473 6.71798
#
# Compressibility (1/GPa) = 0.01821447
#
# Stress axis : x y z
#
# Youngs Moduli (GPa) = 30.62491 30.62564 90.00993
#
# Poissons Ratio (x) = 0.56661 0.47703
# Poissons Ratio (y) = 0.56660 0.47700
# Poissons Ratio (z) = 0.16230 0.16230
#
# Static dielectric constant tensor:
#      x y z
#    x 1.623360 0.000000 0.000000 
#    y 0.000000 1.623360 0.000000 
#    z 0.000000 0.000000 1.719120 
# 
# From -- ./inp_files/19702.got.cif
#   From: 2010.05.17/outbox.cif.g08.bks.cpg/sg91_10_cif.got.tgz:19702.got - 2010.06.03 19:20:03.
