data_PCOD9548834
_publ_section_title
;
Structure prediction by ZEFSAII (Michael W. Deem and Ramdas Pophale) SiO2 
 PCOD9548834
Probable space group: P 41 2 2
;
_chemical_formula_sum "Si O2"
_cell_formula_units_Z 48
_cell_length_a 12.000000
_cell_length_b 12.000000
_cell_length_c 18.000000
_cell_angle_alpha 90.000000
_cell_angle_beta 90.000000
_cell_angle_gamma 90.000000
_cell_volume 2592.000000
_symmetry_space_group_name_H-M "P 41 2 2"
_symmetry_group_IT_number 91
_symmetry_cell_setting 'tetragonal'
loop_
_space_group_symop_operation_xyz
x,y,z
-y,x,1/4+z
-x,-y,1/2+z
y,-x,3/4+z
x,-y,1/2-z
-x,y,-z
y,x,3/4-z
-y,-x,1/4-z
loop_
_atom_site_type_symbol
_atom_site_label
_atom_site_fract_x
_atom_site_fract_y
_atom_site_fract_z
Si Si1 0.549429 0.500000 0.750000
Si Si2 0.157975 0.318953 0.829060
Si Si3 0.186409 0.941490 0.978074
Si Si4 0.355183 0.666265 0.785528
Si Si5 0.721098 0.308206 0.449842
Si Si6 0.965548 0.965548 0.875000
Si Si7 0.517943 0.124347 0.215772
O O1 0.454305 0.573610 0.795180
O O2 0.633046 0.602995 0.726986
O O3 0.217669 0.217669 0.875000
O O4 0.258875 0.360460 0.775234
O O5 0.125592 0.419136 0.885583
O O6 0.047014 0.268959 0.789080
O O7 0.248138 0.819446 0.973598
O O8 0.085798 0.950547 0.916518
O O9 0.126458 0.953433 0.058967
O O10 0.293561 0.688173 0.861828
O O11 0.412260 0.782428 0.761050
O O12 0.823162 0.393430 0.466627
O O13 0.521191 0.000000 0.250000
#
# Coordination Sequence:
#
# PCOD9548834 Si02
#       7
#     4   8   8   8   8   4   8
#     4  10  22  42  62  94 122 172 212 260 328 382
#     4  10  20  38  66  97 119 152 217 279 326 366
#     4  11  22  42  63  97 126 171 212 263 320 396
#     4  10  20  39  65  89 120 158 212 273 317 370
#     4  11  23  40  63  88 130 174 211 254 317 397
#     4  10  24  40  64  90 134 170 210 252 334 394
#     4  10  22  37  58  90 123 161 205 265 318 377
#
# _framework density 18.518519000000001
#
# number of rings (size 3 to 8) (size 9 to 14) (size 15 to 20)
#    0.000    1.667    0.833    3.500    2.333    4.000 
#    6.000    4.167    0.000    0.000    0.000    0.000 
#    0.000    0.000    0.000    0.000    0.000    0.000 
#
# Total GULP energy -267451.743017 kJ/mol
# GULP energy per Si atom -5571.911313 kJ/mol
# Density = 1.847637 g / cm^3
# Si number density = 18.518519 Si / 1000 Ang^3
#
#
#
# Elastic Constant Matrix: (Units=GPa)
#
#
# Indices 1 2 3 4 5 6 
#
# 1 134.2974 46.9548 31.3764 0.0000 0.0000 0.0000
# 2 46.9548 134.2974 31.3764 0.0000 0.0000 0.0000
# 3 31.3764 31.3764 82.9048 0.0000 0.0000 0.0000
# 4 0.0000 0.0000 0.0000 26.5285 0.0000 0.0000
# 5 0.0000 0.0000 0.0000 0.0000 26.5285 0.0000
# 6 0.0000 0.0000 0.0000 0.0000 0.0000 41.0088
#
#
#
# Elastic Compliance Matrix: (Units=1/GPa)
#
#
# Indices 1 2 3 4 5 6 
#
# 1 0.008899 -0.002550 -0.002403 0.000000 0.000000 0.000000
# 2 -0.002550 0.008899 -0.002403 0.000000 0.000000 0.000000
# 3 -0.002403 -0.002403 0.013881 0.000000 0.000000 0.000000
# 4 0.000000 0.000000 0.000000 0.037695 0.000000 0.000000
# 5 0.000000 0.000000 0.000000 0.000000 0.037695 0.000000
# 6 0.000000 0.000000 0.000000 0.000000 0.000000 0.024385
#
#
# Mechanical properties :
#
#
# Convention : Reuss Voigt Hill
#
# Bulk Modulus (GPa) = 58.93638 63.43498 61.18568
# Shear Modulus (GPa) = 32.93322 34.93260 33.93291
#
# Velocity S-wave (km/s) = 4.22168 4.34794 4.28527
# Velocity P-wave (km/s) = 7.46044 7.71591 7.58925
#
# Compressibility (1/GPa) = 0.01696745
#
# Stress axis : x y z
#
# Youngs Moduli (GPa) = 112.37045 112.37045 72.04167
#
# Poissons Ratio (x) = 0.28655 0.17311
# Poissons Ratio (y) = 0.28655 0.17311
# Poissons Ratio (z) = 0.27002 0.27002
#
# Static dielectric constant tensor:
#      x y z
#    x 1.638360 0.000000 0.000000 
#    y 0.000000 1.638360 0.000000 
#    z 0.000000 0.000000 1.668620 
# 
# From -- ./inp_files/5620.got.cif
#   From: 2010.05.17/outbox.ucp.g08.bks.cvg/sg91_3_cif.got.tgz:5620.got - 2010.06.11 10:36:11.
