data_PCOD9548426
_publ_section_title
;
Structure prediction by ZEFSAII (Michael W. Deem and Ramdas Pophale) SiO2 
 PCOD9548426
Probable space group: P 41 2 2
;
_chemical_formula_sum "Si O2"
_cell_formula_units_Z 56
_cell_length_a 14.160867
_cell_length_b 14.160867
_cell_length_c 13.303627
_cell_angle_alpha 90.000000
_cell_angle_beta 90.000000
_cell_angle_gamma 90.000000
_cell_volume 2667.778374
_symmetry_space_group_name_H-M "P 41 2 2"
_symmetry_group_IT_number 91
_symmetry_cell_setting 'tetragonal'
loop_
_space_group_symop_operation_xyz
x,y,z
-y,x,1/4+z
-x,-y,1/2+z
y,-x,3/4+z
x,-y,1/2-z
-x,y,-z
y,x,3/4-z
-y,-x,1/4-z
loop_
_atom_site_type_symbol
_atom_site_label
_atom_site_fract_x
_atom_site_fract_y
_atom_site_fract_z
Si Si1 0.008219 0.845241 0.116217
Si Si2 0.227814 0.691509 0.413507
Si Si3 0.520751 0.062464 0.887900
Si Si4 0.498643 0.856002 0.829524
Si Si5 0.709870 0.885438 0.541805
Si Si6 0.913735 0.772646 0.424675
Si Si7 0.830499 0.298898 0.684542
O O1 0.049267 0.950734 0.125000
O O2 0.085290 0.774858 0.163276
O O3 0.910808 0.814554 0.166950
O O4 0.000000 0.824364 0.000000
O O5 0.228317 0.577099 0.409864
O O6 0.305445 0.773338 0.437874
O O7 0.157299 0.715314 0.504354
O O8 0.188446 0.709434 0.302475
O O9 0.506019 0.125239 0.789734
O O10 0.634606 0.056147 0.893923
O O11 0.470838 0.960832 0.872090
O O12 0.500000 0.100374 0.000000
O O13 0.596004 0.841492 0.890004
O O14 0.709149 0.921309 0.426815
O O15 0.865053 0.865053 0.375000
O O16 0.000000 0.791306 0.500000
O O17 0.741979 0.258021 0.625000
#
# Coordination Sequence:
#
# PCOD9548426 Si02
#       7
#     8   8   8   8   8   8   8
#     4  11  22  38  58  81 113 155 204 252 303 369
#     4  11  23  39  58  85 122 163 200 260 326 386
#     4  11  22  37  59  89 122 159 210 266 319 392
#     4  11  23  36  59  94 123 158 207 265 331 392
#     4  11  22  41  61  87 123 168 211 260 328 391
#     4  10  23  39  59  83 118 171 222 271 321 383
#     4  11  21  37  62  91 121 157 199 263 324 392
#
# _framework density 20.991250000000001
#
# number of rings (size 3 to 8) (size 9 to 14) (size 15 to 20)
#    0.000    1.143    1.429    6.429    4.000    1.143 
#    0.000    7.857    0.000    0.857    0.000    4.000 
#    0.000    1.143    0.000    0.000    0.000    0.000 
#
# Total GULP energy -311912.630197 kJ/mol
# GULP energy per Si atom -5569.868396 kJ/mol
# Density = 2.094347 g / cm^3
# Si number density = 20.991250 Si / 1000 Ang^3
#
#
#
# Elastic Constant Matrix: (Units=GPa)
#
#
# Indices 1 2 3 4 5 6 
#
# 1 59.4646 11.3111 4.6113 0.0000 0.0000 0.0000
# 2 11.3111 59.4628 4.6121 0.0000 0.0000 0.0000
# 3 4.6113 4.6121 166.7229 0.0000 0.0000 0.0000
# 4 0.0000 0.0000 0.0000 42.3529 0.0000 0.0000
# 5 0.0000 0.0000 0.0000 0.0000 42.3719 0.0000
# 6 0.0000 0.0000 0.0000 0.0000 0.0000 22.6034
#
#
#
# Elastic Compliance Matrix: (Units=1/GPa)
#
#
# Indices 1 2 3 4 5 6 
#
# 1 0.017474 -0.003293 -0.000392 0.000000 0.000000 0.000000
# 2 -0.003293 0.017474 -0.000392 0.000000 0.000000 0.000000
# 3 -0.000392 -0.000392 0.006020 0.000000 0.000000 0.000000
# 4 0.000000 0.000000 0.000000 0.023611 0.000000 0.000000
# 5 0.000000 0.000000 0.000000 0.000000 0.023601 0.000000
# 6 0.000000 0.000000 0.000000 0.000000 0.000000 0.044241
#
#
# Mechanical properties :
#
#
# Convention : Reuss Voigt Hill
#
# Bulk Modulus (GPa) = 30.47704 36.30215 33.38959
# Shear Modulus (GPa) = 33.00040 39.14001 36.07020
#
# Velocity S-wave (km/s) = 3.96928 4.32277 4.14979
# Velocity P-wave (km/s) = 5.96300 6.49974 6.23714
#
# Compressibility (1/GPa) = 0.03281159
#
# Stress axis : x y z
#
# Youngs Moduli (GPa) = 57.22922 57.22743 166.12189
#
# Poissons Ratio (x) = 0.18847 0.06515
# Poissons Ratio (y) = 0.18848 0.06517
# Poissons Ratio (z) = 0.02244 0.02245
#
# Static dielectric constant tensor:
#      x y z
#    x 1.865050 0.000000 0.000000 
#    y 0.000000 1.865050 0.000000 
#    z 0.000000 0.000000 1.741240 
# 
# From -- ./inp_files/10841.got.cif
#   From: 2010.05.17/outbox.cif.g08.bks.cpg/sg91_6_cif.got.tgz:10841.got - 2010.06.03 19:20:03.
