data_PCOD9548828
_publ_section_title
;
Structure prediction by ZEFSAII (Michael W. Deem and Ramdas Pophale) SiO2 
 PCOD9548828
Probable space group: P 41 2 2
;
_chemical_formula_sum "Si O2"
_cell_formula_units_Z 24
_cell_length_a 5.035735
_cell_length_b 5.035735
_cell_length_c 35.581769
_cell_angle_alpha 90.000000
_cell_angle_beta 90.000000
_cell_angle_gamma 90.000000
_cell_volume 902.304808
_symmetry_space_group_name_H-M "P 41 2 2"
_symmetry_group_IT_number 91
_symmetry_cell_setting 'tetragonal'
loop_
_space_group_symop_operation_xyz
x,y,z
-y,x,1/4+z
-x,-y,1/2+z
y,-x,3/4+z
x,-y,1/2-z
-x,y,-z
y,x,3/4-z
-y,-x,1/4-z
loop_
_atom_site_type_symbol
_atom_site_label
_atom_site_fract_x
_atom_site_fract_y
_atom_site_fract_z
Si Si1 0.683369 0.204572 0.437128
Si Si2 0.691647 0.688291 0.569392
Si Si3 0.000000 0.538729 0.000000
Si Si4 0.994072 0.994072 0.375000
O O1 0.500149 0.442377 0.423091
O O2 0.787917 0.280234 0.478217
O O3 0.948090 0.174559 0.411792
O O4 0.507698 0.939193 0.434374
O O5 0.849835 0.637023 0.530920
O O6 0.904837 0.735921 0.602403
#
# Coordination Sequence:
#
# PCOD9548828 Si02
#       4
#     8   8   4   4
#     4  12  30  53  85 123 174 232 294 372 447 534
#     4  12  30  53  85 123 174 232 294 372 447 534
#     4  12  30  58  84 132 172 228 306 362 450 538
#     4  12  30  50  82 126 172 228 302 360 450 532
#
# _framework density 26.598555000000001
#
# number of rings (size 3 to 8) (size 9 to 14) (size 15 to 20)
#    0.000    0.000    0.000    6.000   14.000   20.000 
#    0.000    0.000    0.000    0.000    0.000    0.000 
#    0.000    0.000    0.000    0.000    0.000    0.000 
#
# Total GULP energy -134397.192176 kJ/mol
# GULP energy per Si atom -5599.883007 kJ/mol
# Density = 2.653802 g / cm^3
# Si number density = 26.598555 Si / 1000 Ang^3
#
#
#
# Elastic Constant Matrix: (Units=GPa)
#
#
# Indices 1 2 3 4 5 6 
#
# 1 169.5200 57.6164 26.5459 0.0000 0.0000 0.0000
# 2 57.6164 169.5200 26.5459 0.0000 0.0000 0.0000
# 3 26.5459 26.5459 148.5105 0.0000 0.0000 0.0000
# 4 0.0000 0.0000 0.0000 -73.6055 0.0000 0.0000
# 5 0.0000 0.0000 0.0000 0.0000 -73.6055 0.0000
# 6 0.0000 0.0000 0.0000 0.0000 0.0000 57.7590
#
#
#
# Elastic Compliance Matrix: (Units=1/GPa)
#
#
# Indices 1 2 3 4 5 6 
#
# 1 0.006765 -0.002171 -0.000821 0.000000 0.000000 0.000000
# 2 -0.002171 0.006765 -0.000821 0.000000 0.000000 0.000000
# 3 -0.000821 -0.000821 0.007027 0.000000 0.000000 0.000000
# 4 0.000000 0.000000 0.000000 -0.013586 0.000000 0.000000
# 5 0.000000 0.000000 0.000000 0.000000 -0.013586 0.000000
# 6 0.000000 0.000000 0.000000 0.000000 0.000000 0.017313
#
#
# Mechanical properties :
#
#
# Convention : Reuss Voigt Hill
#
# Bulk Modulus (GPa) = 77.33205 78.77410 78.05307
# Shear Modulus (GPa) = 220.88120 7.23242 114.05681
#
# Velocity S-wave (km/s) = 9.12266 1.65076 6.55545
# Velocity P-wave (km/s) = 11.83641 5.77179 9.31167
#
# Compressibility (1/GPa) = 0.01293125
#
# Stress axis : x y z
#
# Youngs Moduli (GPa) = 147.81020 147.81020 142.30560
#
# Poissons Ratio (x) = 0.32087 0.11687
# Poissons Ratio (y) = 0.32087 0.11687
# Poissons Ratio (z) = 0.12139 0.12139
#
# Static dielectric constant tensor:
#      x y z
#    x 2.090670 0.000000 0.000000 
#    y 0.000000 2.090670 0.000000 
#    z 0.000000 0.000000 2.027480 
# 
# From -- ./inp_files/7591.got.cif
#   From: 2010.05.17/outbox.cif.g08.bks.cpg/sg91_4_cif.got.tgz:7591.got - 2010.06.03 19:20:03.
