data_PCOD9548666
_publ_section_title
;
Structure prediction by ZEFSAII (Michael W. Deem and Ramdas Pophale) SiO2 
 PCOD9548666
Probable space group: P 41 2 2
;
_chemical_formula_sum "Si O2"
_cell_formula_units_Z 48
_cell_length_a 21.524671
_cell_length_b 21.524671
_cell_length_c 5.307907
_cell_angle_alpha 90.000000
_cell_angle_beta 90.000000
_cell_angle_gamma 90.000000
_cell_volume 2459.214151
_symmetry_space_group_name_H-M "P 41 2 2"
_symmetry_group_IT_number 91
_symmetry_cell_setting 'tetragonal'
loop_
_space_group_symop_operation_xyz
x,y,z
-y,x,1/4+z
-x,-y,1/2+z
y,-x,3/4+z
x,-y,1/2-z
-x,y,-z
y,x,3/4-z
-y,-x,1/4-z
loop_
_atom_site_type_symbol
_atom_site_label
_atom_site_fract_x
_atom_site_fract_y
_atom_site_fract_z
Si Si1 0.314637 0.935630 0.679867
Si Si2 0.936088 0.603381 0.929246
Si Si3 0.368010 0.462208 0.986382
Si Si4 0.434260 0.194370 0.134913
Si Si5 0.622214 0.282656 0.512009
Si Si6 0.304772 0.201264 0.809237
O O1 0.342798 0.938143 0.397509
O O2 0.281266 0.869219 0.702302
O O3 0.280368 0.000000 0.750000
O O4 0.368728 0.934901 0.896680
O O5 0.872083 0.568258 0.974941
O O6 0.000000 0.567704 0.000000
O O7 0.378200 0.500000 0.250000
O O8 0.315940 0.410332 0.030911
O O9 0.345457 0.500000 0.750000
O O10 0.429502 0.429502 0.875000
O O11 0.430420 0.252096 0.322111
O O12 0.500000 0.195676 0.000000
O O13 0.368832 0.199066 0.976474
O O14 0.662131 0.337870 0.625000
O O15 0.668370 0.226330 0.453110
O O16 0.252449 0.252449 0.875000
#
# Coordination Sequence:
#
# PCOD9548666 Si02
#       6
#     8   8   8   8   8   8
#     4   9  18  35  61  89 120 160 204 251 303 360
#     4   9  18  38  60  82 118 159 201 249 301 359
#     4  12  29  50  72  94 113 146 190 249 324 393
#     4  11  25  40  59  92 119 162 208 256 309 372
#     4  12  25  42  65  87 122 152 198 250 315 380
#     4  11  22  38  62  88 123 161 209 250 313 366
#
# _framework density 19.518431
#
# number of rings (size 3 to 8) (size 9 to 14) (size 15 to 20)
#    0.000    1.333    3.333    2.000    4.667    0.667 
#    0.000    7.500    0.000    0.000    0.000    0.000 
#    0.000    0.000    0.000   13.500    0.000    0.000 
#
# Total GULP energy -267730.997412 kJ/mol
# GULP energy per Si atom -5577.729113 kJ/mol
# Density = 1.947401 g / cm^3
# Si number density = 19.518431 Si / 1000 Ang^3
#
#
#
# Elastic Constant Matrix: (Units=GPa)
#
#
# Indices 1 2 3 4 5 6 
#
# 1 99.6208 49.6458 26.7007 0.0000 0.0000 0.0000
# 2 49.6458 99.6198 26.7011 0.0000 0.0000 0.0000
# 3 26.7007 26.7011 85.2951 0.0000 0.0000 0.0000
# 4 0.0000 0.0000 0.0000 21.4776 0.0000 0.0000
# 5 0.0000 0.0000 0.0000 0.0000 21.4768 0.0000
# 6 0.0000 0.0000 0.0000 0.0000 0.0000 10.0229
#
#
#
# Elastic Compliance Matrix: (Units=1/GPa)
#
#
# Indices 1 2 3 4 5 6 
#
# 1 0.013777 -0.006233 -0.002362 0.000000 0.000000 0.000000
# 2 -0.006233 0.013777 -0.002362 0.000000 0.000000 0.000000
# 3 -0.002362 -0.002362 0.013203 0.000000 0.000000 0.000000
# 4 0.000000 0.000000 0.000000 0.046560 0.000000 0.000000
# 5 0.000000 0.000000 0.000000 0.000000 0.046562 0.000000
# 6 0.000000 0.000000 0.000000 0.000000 0.000000 0.099771
#
#
# Mechanical properties :
#
#
# Convention : Reuss Voigt Hill
#
# Bulk Modulus (GPa) = 53.06570 54.51454 53.79012
# Shear Modulus (GPa) = 19.09529 22.69467 20.89498
#
# Velocity S-wave (km/s) = 3.13121 3.41358 3.27544
# Velocity P-wave (km/s) = 6.34973 6.59751 6.47481
#
# Compressibility (1/GPa) = 0.01884457
#
# Stress axis : x y z
#
# Youngs Moduli (GPa) = 72.58377 72.58276 75.74248
#
# Poissons Ratio (x) = 0.45240 0.17888
# Poissons Ratio (y) = 0.45241 0.17889
# Poissons Ratio (z) = 0.17142 0.17142
#
# Static dielectric constant tensor:
#      x y z
#    x 1.744380 0.000000 0.000000 
#    y 0.000000 1.744390 0.000000 
#    z 0.000000 0.000000 1.782350 
# 
# From -- ./inp_files/8907.got.cif
#   From: 2010.05.17/outbox.cif.g08.bks.cpg/sg91_5_cif.got.tgz:8907.got - 2010.06.03 19:20:03.
