data_PCOD9548530
_publ_section_title
;
Structure prediction by ZEFSAII (Michael W. Deem and Ramdas Pophale) SiO2 
 PCOD9548530
Probable space group: P 41 2 2
;
_chemical_formula_sum "Si O2"
_cell_formula_units_Z 24
_cell_length_a 5.169775
_cell_length_b 5.169775
_cell_length_c 39.785709
_cell_angle_alpha 90.000000
_cell_angle_beta 90.000000
_cell_angle_gamma 90.000000
_cell_volume 1063.335678
_symmetry_space_group_name_H-M "P 41 2 2"
_symmetry_group_IT_number 91
_symmetry_cell_setting 'tetragonal'
loop_
_space_group_symop_operation_xyz
x,y,z
-y,x,1/4+z
-x,-y,1/2+z
y,-x,3/4+z
x,-y,1/2-z
-x,y,-z
y,x,3/4-z
-y,-x,1/4-z
loop_
_atom_site_type_symbol
_atom_site_label
_atom_site_fract_x
_atom_site_fract_y
_atom_site_fract_z
Si Si1 0.172389 0.023742 0.467409
Si Si2 0.926850 0.265075 0.089266
Si Si3 0.412970 0.470775 0.058458
O O1 0.984184 0.974627 0.435579
O O2 0.334523 0.757899 0.467346
O O3 0.000000 0.064255 0.500000
O O4 0.358771 0.259188 0.459001
O O5 0.835989 0.164012 0.125000
O O6 0.197261 0.422412 0.087891
O O7 0.697107 0.429100 0.072568
#
# Coordination Sequence:
#
# PCOD9548530 Si02
#       3
#     8   8   8
#     4  10  24  46  67 101 133 178 224 279 337 400
#     4  10  26  42  68  96 135 175 222 271 335 399
#     4  10  25  40  67  96 131 173 222 274 331 394
#
# _framework density 22.570481000000001
#
# number of rings (size 3 to 8) (size 9 to 14) (size 15 to 20)
#    2.000    0.000    0.000    1.000    9.333    2.667 
#    0.000    0.000    0.000    0.000    0.000    0.000 
#    0.000    0.000    0.000    0.000    0.000    0.000 
#
# Total GULP energy -134059.000453 kJ/mol
# GULP energy per Si atom -5585.791686 kJ/mol
# Density = 2.251911 g / cm^3
# Si number density = 22.570481 Si / 1000 Ang^3
#
#
#
# Elastic Constant Matrix: (Units=GPa)
#
#
# Indices 1 2 3 4 5 6 
#
# 1 96.8244 52.9894 15.5552 0.0000 0.0000 0.0000
# 2 52.9894 96.8254 15.5566 0.0000 0.0000 0.0000
# 3 15.5552 15.5566 92.7790 0.0000 0.0000 0.0000
# 4 0.0000 0.0000 0.0000 4.3334 0.0000 0.0000
# 5 0.0000 0.0000 0.0000 0.0000 4.3341 0.0000
# 6 0.0000 0.0000 0.0000 0.0000 0.0000 -148.9704
#
#
#
# Elastic Compliance Matrix: (Units=1/GPa)
#
#
# Indices 1 2 3 4 5 6 
#
# 1 0.014864 -0.007948 -0.001159 0.000000 0.000000 0.000000
# 2 -0.007948 0.014864 -0.001160 0.000000 0.000000 0.000000
# 3 -0.001159 -0.001160 0.011167 0.000000 0.000000 0.000000
# 4 0.000000 0.000000 0.000000 0.230768 0.000000 0.000000
# 5 0.000000 0.000000 0.000000 0.000000 0.230726 0.000000
# 6 0.000000 0.000000 0.000000 0.000000 0.000000 -0.006713
#
#
# Mechanical properties :
#
#
# Convention : Reuss Voigt Hill
#
# Bulk Modulus (GPa) = 49.11480 50.51457 49.81468
# Shear Modulus (GPa) = 9.56025 -14.57207 -2.50591
#
# Velocity S-wave (km/s) = 2.06032 -2.54367 -1.05483
# Velocity P-wave (km/s) = 5.24097 3.71515 4.54258
#
# Compressibility (1/GPa) = 0.02036046
#
# Stress axis : x y z
#
# Youngs Moduli (GPa) = 67.27577 67.27621 89.54851
#
# Poissons Ratio (x) = 0.53474 0.10382
# Poissons Ratio (y) = 0.53474 0.10385
# Poissons Ratio (z) = 0.07800 0.07802
#
# Static dielectric constant tensor:
#      x y z
#    x 1.820850 0.000000 0.000000 
#    y 0.000000 1.820850 0.000000 
#    z 0.000000 0.000000 6.652070 
# 
# From -- ./inp_files/22079.got.cif
#   From: 2010.05.17/outbox.cif.g08.bks.cpg/sg91_12_cif.got.tgz:22079.got - 2010.06.03 19:20:03.
