data_PCOD9548693
_publ_section_title
;
Structure prediction by ZEFSAII (Michael W. Deem and Ramdas Pophale) SiO2 
 PCOD9548693
Probable space group: P 41 2 2
;
_chemical_formula_sum "Si O2"
_cell_formula_units_Z 40
_cell_length_a 8.331606
_cell_length_b 8.331606
_cell_length_c 24.255033
_cell_angle_alpha 90.000000
_cell_angle_beta 90.000000
_cell_angle_gamma 90.000000
_cell_volume 1683.679089
_symmetry_space_group_name_H-M "P 41 2 2"
_symmetry_group_IT_number 91
_symmetry_cell_setting 'tetragonal'
loop_
_space_group_symop_operation_xyz
x,y,z
-y,x,1/4+z
-x,-y,1/2+z
y,-x,3/4+z
x,-y,1/2-z
-x,y,-z
y,x,3/4-z
-y,-x,1/4-z
loop_
_atom_site_type_symbol
_atom_site_label
_atom_site_fract_x
_atom_site_fract_y
_atom_site_fract_z
Si Si1 0.316390 0.239786 0.511047
Si Si2 0.005180 0.169590 0.324110
Si Si3 0.686910 0.507071 0.919633
Si Si4 0.786557 0.425967 0.378944
Si Si5 0.995706 0.326959 0.064710
O O1 0.500000 0.182855 0.500000
O O2 0.310574 0.404588 0.476902
O O3 0.264292 0.300198 0.571709
O O4 0.200972 0.110691 0.480825
O O5 0.921949 0.335179 0.343421
O O6 0.860696 0.039712 0.318903
O O7 0.111982 0.111982 0.375000
O O8 0.638043 0.638043 0.875000
O O9 0.560841 0.363834 0.912124
O O10 0.856828 0.426459 0.910110
O O11 0.845078 0.591912 0.405514
O O12 0.000000 0.364182 0.000000
#
# Coordination Sequence:
#
# PCOD9548693 Si02
#       5
#     8   8   8   8   8
#     4  12  24  45  77 107 140 196 255 296 363 453
#     4  11  28  44  72 103 147 193 243 299 371 457
#     4  11  22  43  70 104 138 190 249 296 369 442
#     4  11  25  43  74 102 144 192 239 312 366 430
#     4  11  24  45  67 104 145 186 239 309 374 432
#
# _framework density 23.757496
#
# number of rings (size 3 to 8) (size 9 to 14) (size 15 to 20)
#    0.000    0.800    4.000    3.000    5.600    0.800 
#    0.000    8.000    0.000    0.000    0.000    0.000 
#    0.000    0.000    0.000    0.000    0.000    0.000 
#
# Total GULP energy -223569.166744 kJ/mol
# GULP energy per Si atom -5589.229169 kJ/mol
# Density = 2.370342 g / cm^3
# Si number density = 23.757496 Si / 1000 Ang^3
#
#
#
# Elastic Constant Matrix: (Units=GPa)
#
#
# Indices 1 2 3 4 5 6 
#
# 1 80.5594 87.1521 33.8212 0.0000 0.0000 0.0000
# 2 87.1521 80.5594 33.8212 0.0000 0.0000 0.0000
# 3 33.8212 33.8212 88.9042 0.0000 0.0000 0.0000
# 4 0.0000 0.0000 0.0000 30.8240 0.0000 0.0000
# 5 0.0000 0.0000 0.0000 0.0000 30.8240 0.0000
# 6 0.0000 0.0000 0.0000 0.0000 0.0000 23.8149
#
#
#
# Elastic Compliance Matrix: (Units=1/GPa)
#
#
# Indices 1 2 3 4 5 6 
#
# 1 -0.072320 0.079364 -0.002679 0.000000 0.000000 0.000000
# 2 0.079364 -0.072320 -0.002679 0.000000 0.000000 0.000000
# 3 -0.002679 -0.002679 0.013287 0.000000 0.000000 0.000000
# 4 0.000000 0.000000 0.000000 0.032442 0.000000 0.000000
# 5 0.000000 0.000000 0.000000 0.000000 0.032442 0.000000
# 6 0.000000 0.000000 0.000000 0.000000 0.000000 0.041991
#
#
# Mechanical properties :
#
#
# Convention : Reuss Voigt Hill
#
# Bulk Modulus (GPa) = 60.03995 62.17908 61.10952
# Shear Modulus (GPa) = -29.95160 23.44113 -3.25523
#
# Velocity S-wave (km/s) = -3.55452 3.14456 -1.17182
# Velocity P-wave (km/s) = 2.91217 6.27802 4.89358
#
# Compressibility (1/GPa) = 0.01665558
#
# Stress axis : x y z
#
# Youngs Moduli (GPa) = -13.82739 -13.82739 75.26323
#
# Poissons Ratio (x) = 1.09739 0.20166
# Poissons Ratio (y) = 1.09739 0.20166
# Poissons Ratio (z) = -0.03705 -0.03705
#
# Static dielectric constant tensor:
#      x y z
#    x 1.982650 0.000000 0.000000 
#    y 0.000000 1.982650 0.000000 
#    z 0.000000 0.000000 1.990600 
# 
# From -- ./inp_files/12739.got.cif
#   From: 2010.05.17/outbox.cif.g08.bks.cpg/sg91_7_cif.got.tgz:12739.got - 2010.06.03 19:20:03.
