data_PCOD9548384
_publ_section_title
;
Structure prediction by ZEFSAII (Michael W. Deem and Ramdas Pophale) SiO2 
 PCOD9548384
Probable space group: P 41 2 2
;
_chemical_formula_sum "Si O2"
_cell_formula_units_Z 40
_cell_length_a 8.885195
_cell_length_b 8.885195
_cell_length_c 20.179078
_cell_angle_alpha 90.000000
_cell_angle_beta 90.000000
_cell_angle_gamma 90.000000
_cell_volume 1593.071419
_symmetry_space_group_name_H-M "P 41 2 2"
_symmetry_group_IT_number 91
_symmetry_cell_setting 'tetragonal'
loop_
_space_group_symop_operation_xyz
x,y,z
-y,x,1/4+z
-x,-y,1/2+z
y,-x,3/4+z
x,-y,1/2-z
-x,y,-z
y,x,3/4-z
-y,-x,1/4-z
loop_
_atom_site_type_symbol
_atom_site_label
_atom_site_fract_x
_atom_site_fract_y
_atom_site_fract_z
Si Si1 0.942698 0.398965 0.159453
Si Si2 0.298710 0.076229 0.448916
Si Si3 0.334488 0.827530 0.271281
Si Si4 0.848075 0.193677 0.907235
Si Si5 0.362712 0.660357 0.728654
O O1 0.767165 0.387844 0.176784
O O2 0.021598 0.563316 0.151977
O O3 0.013379 0.345975 0.229443
O O4 0.996859 0.282370 0.103493
O O5 0.262351 0.250166 0.461316
O O6 0.151352 0.979677 0.429744
O O7 0.235144 0.804772 0.336800
O O8 0.498318 0.765866 0.288822
O O9 0.339065 0.000000 0.250000
O O10 0.745876 0.280423 0.960664
O O11 0.429992 0.500000 0.750000
#
# Coordination Sequence:
#
# PCOD9548384 Si02
#       5
#     8   8   8   8   8
#     4   9  18  41  72  99 135 181 242 296 361 439
#     4   9  19  43  70  96 137 185 239 291 358 436
#     4  11  27  44  65 109 146 180 255 299 354 459
#     4  10  22  43  74  99 136 197 235 299 386 416
#     4  11  23  44  71 105 146 187 246 309 362 444
#
# _framework density 25.108730000000001
#
# number of rings (size 3 to 8) (size 9 to 14) (size 15 to 20)
#    0.000    2.000    4.000    0.000    8.400    1.600 
#    0.000   11.000    0.000    0.000    0.000    0.000 
#    0.000    0.000    0.000    0.000    0.000    0.000 
#
# Total GULP energy -223684.135850 kJ/mol
# GULP energy per Si atom -5592.103396 kJ/mol
# Density = 2.505158 g / cm^3
# Si number density = 25.108730 Si / 1000 Ang^3
#
#
#
# Elastic Constant Matrix: (Units=GPa)
#
#
# Indices 1 2 3 4 5 6 
#
# 1 108.0499 83.8750 27.2324 0.0000 0.0000 0.0000
# 2 83.8750 108.0499 27.2324 0.0000 0.0000 0.0000
# 3 27.2324 27.2324 69.2607 0.0000 0.0000 0.0000
# 4 0.0000 0.0000 0.0000 41.4116 0.0000 0.0000
# 5 0.0000 0.0000 0.0000 0.0000 41.4116 0.0000
# 6 0.0000 0.0000 0.0000 0.0000 0.0000 34.2244
#
#
#
# Elastic Compliance Matrix: (Units=1/GPa)
#
#
# Indices 1 2 3 4 5 6 
#
# 1 0.023615 -0.017750 -0.002306 0.000000 0.000000 0.000000
# 2 -0.017750 0.023615 -0.002306 0.000000 0.000000 0.000000
# 3 -0.002306 -0.002306 0.016252 0.000000 0.000000 0.000000
# 4 0.000000 0.000000 0.000000 0.024148 0.000000 0.000000
# 5 0.000000 0.000000 0.000000 0.000000 0.024148 0.000000
# 6 0.000000 0.000000 0.000000 0.000000 0.000000 0.029219
#
#
# Mechanical properties :
#
#
# Convention : Reuss Voigt Hill
#
# Bulk Modulus (GPa) = 53.31266 62.44890 57.88078
# Shear Modulus (GPa) = 26.04534 33.21089 29.62812
#
# Velocity S-wave (km/s) = 3.22421 3.64082 3.43883
# Velocity P-wave (km/s) = 5.92786 6.52682 6.23454
#
# Compressibility (1/GPa) = 0.01875727
#
# Stress axis : x y z
#
# Youngs Moduli (GPa) = 42.34593 42.34593 61.53269
#
# Poissons Ratio (x) = 0.75165 0.14189
# Poissons Ratio (y) = 0.75165 0.14189
# Poissons Ratio (z) = 0.09765 0.09765
#
# Static dielectric constant tensor:
#      x y z
#    x 2.001360 0.000000 0.000000 
#    y 0.000000 2.001360 0.000000 
#    z 0.000000 0.000000 2.035160 
# 
# From -- ./inp_files/17508.got.cif
#   From: 2010.05.17/outbox.cif.g08.bks.cpg/sg91_9_cif.got.tgz:17508.got - 2010.06.03 19:20:03.
