data_PCOD9548892
_publ_section_title
;
Structure prediction by ZEFSAII (Michael W. Deem and Ramdas Pophale) SiO2 
 PCOD9548892
Probable space group: P 41 21 2
;
_chemical_formula_sum "Si O2"
_cell_formula_units_Z 48
_cell_length_a 9.990896
_cell_length_b 9.990896
_cell_length_c 16.814746
_cell_angle_alpha 90.000000
_cell_angle_beta 90.000000
_cell_angle_gamma 90.000000
_cell_volume 1678.414365
_symmetry_space_group_name_H-M "P 41 21 2"
_symmetry_group_IT_number 92
_symmetry_cell_setting 'tetragonal'
loop_
_space_group_symop_operation_xyz
x,y,z
1/2-y,1/2+x,1/4+z
-x,-y,1/2+z
1/2+y,1/2-x,3/4+z
1/2+x,1/2-y,3/4-z
1/2-x,1/2+y,1/4-z
y,x,-z
-y,-x,1/2-z
loop_
_atom_site_type_symbol
_atom_site_label
_atom_site_fract_x
_atom_site_fract_y
_atom_site_fract_z
Si Si1 0.213617 0.080706 0.148009
Si Si2 0.845270 0.402875 0.871509
Si Si3 0.417699 0.609640 0.930832
Si Si4 0.061368 0.790147 0.050139
Si Si5 0.333692 0.276856 0.359037
Si Si6 0.456195 0.087217 0.466218
O O1 0.129794 0.192096 0.099880
O O2 0.141203 0.066036 0.234118
O O3 0.344724 0.173457 0.164976
O O4 0.271599 0.939885 0.117947
O O5 0.926834 0.482165 0.804399
O O6 0.839909 0.482557 0.955696
O O7 0.387338 0.498562 0.864781
O O8 0.573904 0.646943 0.923529
O O9 0.320637 0.733516 0.902294
O O10 0.944762 0.697799 0.011196
O O11 0.132150 0.847731 0.973209
O O12 0.410577 0.136387 0.376543
#
# Coordination Sequence:
#
# PCOD9548892 Si02
#       6
#     8   8   8   8   8   8
#     4  10  23  38  62  89 126 162 208 260 311 369
#     4  11  22  40  61  93 119 168 209 261 309 373
#     4  10  20  36  60  88 124 158 209 263 312 366
#     4   9  19  35  59  91 113 164 209 261 308 370
#     4  10  18  34  59  89 118 156 205 266 309 364
#     4  10  19  35  62  85 118 155 221 254 290 373
#
# _framework density 28.598420000000001
#
# number of rings (size 3 to 8) (size 9 to 14) (size 15 to 20)
#    0.000    2.000    3.333    0.500    7.000    0.667 
#    0.000    1.667    7.333    2.000    0.000    0.000 
#    0.000    0.000    0.000    0.000    0.000    0.000 
#
# Total GULP energy -267687.207129 kJ/mol
# GULP energy per Si atom -5576.816815 kJ/mol
# Density = 2.853333 g / cm^3
# Si number density = 28.598420 Si / 1000 Ang^3
#
#
#
# Elastic Constant Matrix: (Units=GPa)
#
#
# Indices 1 2 3 4 5 6 
#
# 1 109.4255 55.9131 33.1130 0.0000 0.0000 0.0000
# 2 55.9131 109.4255 33.1130 0.0000 0.0000 0.0000
# 3 33.1130 33.1130 113.0568 0.0000 0.0000 0.0000
# 4 0.0000 0.0000 0.0000 46.3770 0.0000 0.0000
# 5 0.0000 0.0000 0.0000 0.0000 46.3770 0.0000
# 6 0.0000 0.0000 0.0000 0.0000 0.0000 51.0469
#
#
#
# Elastic Compliance Matrix: (Units=1/GPa)
#
#
# Indices 1 2 3 4 5 6 
#
# 1 0.012770 -0.005918 -0.002007 0.000000 0.000000 0.000000
# 2 -0.005918 0.012770 -0.002007 0.000000 0.000000 0.000000
# 3 -0.002007 -0.002007 0.010021 0.000000 0.000000 0.000000
# 4 0.000000 0.000000 0.000000 0.021562 0.000000 0.000000
# 5 0.000000 0.000000 0.000000 0.000000 0.021562 0.000000
# 6 0.000000 0.000000 0.000000 0.000000 0.000000 0.019590
#
#
# Mechanical properties :
#
#
# Convention : Reuss Voigt Hill
#
# Bulk Modulus (GPa) = 63.70541 64.02067 63.86304
# Shear Modulus (GPa) = 40.52854 42.74475 41.63664
#
# Velocity S-wave (km/s) = 3.76860 3.87027 3.81977
# Velocity P-wave (km/s) = 6.42345 6.51204 6.46790
#
# Compressibility (1/GPa) = 0.01569725
#
# Stress axis : x y z
#
# Youngs Moduli (GPa) = 78.31062 78.31062 99.79345
#
# Poissons Ratio (x) = 0.46341 0.20027
# Poissons Ratio (y) = 0.46341 0.20027
# Poissons Ratio (z) = 0.15716 0.15716
#
# Static dielectric constant tensor:
#      x y z
#    x 2.516500 0.000000 0.000000 
#    y 0.000000 2.516500 0.000000 
#    z 0.000000 0.000000 2.182740 
# 
# From -- ./inp_files/3520.got.cif
#   From: 2010.05.17/outbox.cif.g08.bks.cpg/sg92_2_cif.got.tgz:3520.got - 2010.06.03 19:35:17.
