data_PCOD9548875
_publ_section_title
;
Structure prediction by ZEFSAII (Michael W. Deem and Ramdas Pophale) SiO2 
 PCOD9548875
Probable space group: P 41 21 2
;
_chemical_formula_sum "Si O2"
_cell_formula_units_Z 48
_cell_length_a 15.086557
_cell_length_b 15.086557
_cell_length_c 10.750442
_cell_angle_alpha 90.000000
_cell_angle_beta 90.000000
_cell_angle_gamma 90.000000
_cell_volume 2446.845774
_symmetry_space_group_name_H-M "P 41 21 2"
_symmetry_group_IT_number 92
_symmetry_cell_setting 'tetragonal'
loop_
_space_group_symop_operation_xyz
x,y,z
1/2-y,1/2+x,1/4+z
-x,-y,1/2+z
1/2+y,1/2-x,3/4+z
1/2+x,1/2-y,3/4-z
1/2-x,1/2+y,1/4-z
y,x,-z
-y,-x,1/2-z
loop_
_atom_site_type_symbol
_atom_site_label
_atom_site_fract_x
_atom_site_fract_y
_atom_site_fract_z
Si Si1 0.486784 0.920099 0.239897
Si Si2 0.583600 0.416401 0.250000
Si Si3 0.277827 0.151137 0.930343
Si Si4 0.555021 0.350387 0.504094
Si Si5 0.743413 0.112374 0.484580
Si Si6 0.903022 0.041677 0.623123
Si Si7 0.151689 0.848312 0.750000
O O1 0.516430 0.966349 0.370424
O O2 0.401059 0.854900 0.254235
O O3 0.565137 0.850113 0.207637
O O4 0.603928 0.360590 0.372234
O O5 0.586452 0.518646 0.294142
O O6 0.233360 0.085159 0.831511
O O7 0.323248 0.227028 0.849253
O O8 0.196945 0.196945 0.000000
O O9 0.570435 0.442267 0.581228
O O10 0.452376 0.339404 0.471174
O O11 0.815848 0.043004 0.539033
O O12 0.785080 0.163071 0.367896
O O13 0.901485 0.098516 0.750000
#
# Coordination Sequence:
#
# PCOD9548875 Si02
#       7
#     8   4   8   8   8   8   4
#     4  10  23  45  70  90 119 173 223 257 308 390
#     4  10  18  31  54  92 119 158 194 230 304 380
#     4  11  24  41  63  91 122 161 210 264 314 363
#     4  11  20  33  60  90 123 161 196 245 306 382
#     4  11  22  39  61  88 125 161 203 259 313 359
#     4  10  18  31  57  89 123 157 197 237 301 381
#     4  12  20  35  62  92 123 160 194 252 318 370
#
# _framework density 19.617090999999999
#
# number of rings (size 3 to 8) (size 9 to 14) (size 15 to 20)
#    0.000    1.333    5.833    1.500    1.167    0.667 
#    3.000    0.000   14.667    0.000    0.000    0.000 
#    0.000    0.000    0.000    0.000    0.000    0.000 
#
# Total GULP energy -267609.836801 kJ/mol
# GULP energy per Si atom -5575.204933 kJ/mol
# Density = 1.957244 g / cm^3
# Si number density = 19.617091 Si / 1000 Ang^3
#
#
#
# Elastic Constant Matrix: (Units=GPa)
#
#
# Indices 1 2 3 4 5 6 
#
# 1 42.6782 16.9837 31.2746 0.0000 0.0000 0.0000
# 2 16.9837 42.6777 31.2753 0.0000 0.0000 0.0000
# 3 31.2746 31.2753 92.6777 0.0000 0.0000 0.0000
# 4 0.0000 0.0000 0.0000 32.7252 0.0000 0.0000
# 5 0.0000 0.0000 0.0000 0.0000 32.7253 0.0000
# 6 0.0000 0.0000 0.0000 0.0000 0.0000 27.4952
#
#
#
# Elastic Compliance Matrix: (Units=1/GPa)
#
#
# Indices 1 2 3 4 5 6 
#
# 1 0.032428 -0.006491 -0.008753 0.000000 0.000000 0.000000
# 2 -0.006491 0.032429 -0.008753 0.000000 0.000000 0.000000
# 3 -0.008753 -0.008753 0.016698 0.000000 0.000000 0.000000
# 4 0.000000 0.000000 0.000000 0.030557 0.000000 0.000000
# 5 0.000000 0.000000 0.000000 0.000000 0.030557 0.000000
# 6 0.000000 0.000000 0.000000 0.000000 0.000000 0.036370
#
#
# Mechanical properties :
#
#
# Convention : Reuss Voigt Hill
#
# Bulk Modulus (GPa) = 29.79609 37.45566 33.62587
# Shear Modulus (GPa) = 20.98901 25.15582 23.07241
#
# Velocity S-wave (km/s) = 3.27453 3.58486 3.43321
# Velocity P-wave (km/s) = 5.43310 6.02244 5.73535
#
# Compressibility (1/GPa) = 0.03356145
#
# Stress axis : x y z
#
# Youngs Moduli (GPa) = 30.83749 30.83659 59.88877
#
# Poissons Ratio (x) = 0.20015 0.52419
# Poissons Ratio (y) = 0.20016 0.52422
# Poissons Ratio (z) = 0.26991 0.26992
#
# Static dielectric constant tensor:
#      x y z
#    x 1.729030 0.000000 0.000000 
#    y 0.000000 1.729030 0.000000 
#    z 0.000000 0.000000 1.751000 
# 
# From -- ./inp_files/2212.got.cif
#   From: 2010.05.17/outbox.cif.g08.bks.cpg/sg92_2_cif.got.tgz:2212.got - 2010.06.03 19:35:17.
