data_PCOD9548325
_publ_section_title
;
Structure prediction by ZEFSAII (Michael W. Deem and Ramdas Pophale) SiO2 
 PCOD9548325
Probable space group: P 41 2 2
;
_chemical_formula_sum "Si O2"
_cell_formula_units_Z 40
_cell_length_a 8.480247
_cell_length_b 8.480247
_cell_length_c 22.422703
_cell_angle_alpha 90.000000
_cell_angle_beta 90.000000
_cell_angle_gamma 90.000000
_cell_volume 1612.519475
_symmetry_space_group_name_H-M "P 41 2 2"
_symmetry_group_IT_number 91
_symmetry_cell_setting 'tetragonal'
loop_
_space_group_symop_operation_xyz
x,y,z
-y,x,1/4+z
-x,-y,1/2+z
y,-x,3/4+z
x,-y,1/2-z
-x,y,-z
y,x,3/4-z
-y,-x,1/4-z
loop_
_atom_site_type_symbol
_atom_site_label
_atom_site_fract_x
_atom_site_fract_y
_atom_site_fract_z
Si Si1 0.331988 0.495988 0.177715
Si Si2 0.662456 0.868194 0.335054
Si Si3 0.879735 0.181581 0.258023
Si Si4 0.345686 0.985018 0.118321
Si Si5 0.125735 0.803573 0.339536
O O1 0.370492 0.500000 0.250000
O O2 0.455707 0.544294 0.125000
O O3 0.267395 0.320742 0.165085
O O4 0.181790 0.609307 0.160707
O O5 0.722681 0.722681 0.375000
O O6 0.702317 0.816650 0.268146
O O7 0.496068 0.942302 0.349072
O O8 0.777854 0.015583 0.352321
O O9 0.904160 0.288316 0.314760
O O10 0.002488 0.253759 0.210145
O O11 0.930369 0.000000 0.250000
O O12 0.197823 0.019770 0.162508
#
# Coordination Sequence:
#
# PCOD9548325 Si02
#       5
#     8   8   8   8   8
#     4  11  25  47  71 106 151 199 246 319 391 464
#     4   9  21  38  63  96 138 180 234 285 359 439
#     4  11  21  39  71 101 142 188 244 311 373 443
#     4  11  23  42  71 102 145 189 248 311 369 449
#     4  10  22  41  64 103 138 183 247 300 371 446
#
# _framework density 24.805902
#
# number of rings (size 3 to 8) (size 9 to 14) (size 15 to 20)
#    0.000    1.600    4.000    0.000    2.800    0.800 
#    3.600    2.000    0.000    0.000    0.000    0.000 
#    0.000    0.000    0.000    0.000    0.000    0.000 
#
# Total GULP energy -222814.057775 kJ/mol
# GULP energy per Si atom -5570.351444 kJ/mol
# Density = 2.474944 g / cm^3
# Si number density = 24.805902 Si / 1000 Ang^3
#
#
#
# Elastic Constant Matrix: (Units=GPa)
#
#
# Indices 1 2 3 4 5 6 
#
# 1 65.3651 39.6467 26.2682 0.0000 0.0000 0.0000
# 2 39.6467 65.3657 26.2685 0.0000 0.0000 0.0000
# 3 26.2682 26.2685 102.2026 0.0000 0.0000 0.0000
# 4 0.0000 0.0000 0.0000 26.1709 0.0000 0.0000
# 5 0.0000 0.0000 0.0000 0.0000 26.1709 0.0000
# 6 0.0000 0.0000 0.0000 0.0000 0.0000 43.9878
#
#
#
# Elastic Compliance Matrix: (Units=1/GPa)
#
#
# Indices 1 2 3 4 5 6 
#
# 1 0.024905 -0.013977 -0.002809 0.000000 0.000000 0.000000
# 2 -0.013977 0.024905 -0.002809 0.000000 0.000000 0.000000
# 3 -0.002809 -0.002809 0.011228 0.000000 0.000000 0.000000
# 4 0.000000 0.000000 0.000000 0.038210 0.000000 0.000000
# 5 0.000000 0.000000 0.000000 0.000000 0.038210 0.000000
# 6 0.000000 0.000000 0.000000 0.000000 0.000000 0.022734
#
#
# Mechanical properties :
#
#
# Convention : Reuss Voigt Hill
#
# Bulk Modulus (GPa) = 45.76822 46.36668 46.06745
# Shear Modulus (GPa) = 24.19376 28.64926 26.42151
#
# Velocity S-wave (km/s) = 3.12640 3.40212 3.26717
# Velocity P-wave (km/s) = 5.61455 5.84508 5.73097
#
# Compressibility (1/GPa) = 0.02184922
#
# Stress axis : x y z
#
# Youngs Moduli (GPa) = 40.15239 40.15267 89.06073
#
# Poissons Ratio (x) = 0.56122 0.25014
# Poissons Ratio (y) = 0.56122 0.25015
# Poissons Ratio (z) = 0.11278 0.11278
#
# Static dielectric constant tensor:
#      x y z
#    x 1.998950 0.000000 0.000000 
#    y 0.000000 1.998950 0.000000 
#    z 0.000000 0.000000 2.355020 
# 
# From -- ./inp_files/12758.got.cif
#   From: 2010.05.17/outbox.cif.g08.bks.cpg/sg91_7_cif.got.tgz:12758.got - 2010.06.03 19:20:03.
