data_PCOD9548966
_publ_section_title
;
Structure prediction by ZEFSAII (Michael W. Deem and Ramdas Pophale) SiO2 
 PCOD9548966
Probable space group: P 41 21 2
;
_chemical_formula_sum "Si O2"
_cell_formula_units_Z 48
_cell_length_a 9.171790
_cell_length_b 9.171790
_cell_length_c 20.792723
_cell_angle_alpha 90.000000
_cell_angle_beta 90.000000
_cell_angle_gamma 90.000000
_cell_volume 1749.119868
_symmetry_space_group_name_H-M "P 41 21 2"
_symmetry_group_IT_number 92
_symmetry_cell_setting 'tetragonal'
loop_
_space_group_symop_operation_xyz
x,y,z
1/2-y,1/2+x,1/4+z
-x,-y,1/2+z
1/2+y,1/2-x,3/4+z
1/2+x,1/2-y,3/4-z
1/2-x,1/2+y,1/4-z
y,x,-z
-y,-x,1/2-z
loop_
_atom_site_type_symbol
_atom_site_label
_atom_site_fract_x
_atom_site_fract_y
_atom_site_fract_z
Si Si1 0.517153 0.634872 0.117536
Si Si2 0.843679 0.708116 0.125137
Si Si3 0.057968 0.570555 0.221202
Si Si4 0.781688 0.691953 0.572999
Si Si5 0.137641 0.927011 0.441519
Si Si6 0.859779 0.753458 0.753708
O O1 0.685956 0.656746 0.105973
O O2 0.438654 0.775335 0.148460
O O3 0.496946 0.519602 0.176694
O O4 0.433348 0.638538 0.048554
O O5 0.823048 0.844000 0.175584
O O6 0.941809 0.595781 0.165883
O O7 0.937170 0.754937 0.063929
O O8 0.049221 0.685289 0.279896
O O9 0.213906 0.648695 0.199441
O O10 0.063904 0.404652 0.243675
O O11 0.665996 0.649679 0.625639
O O12 0.200850 0.808175 0.490118
#
# Coordination Sequence:
#
# PCOD9548966 Si02
#       6
#     8   8   8   8   8   8
#     4  11  22  39  66  95 138 176 225 279 346 406
#     4  11  25  42  66 102 139 176 225 294 345 408
#     4  10  19  38  65  93 126 174 226 273 336 397
#     4   9  18  37  65  92 120 174 233 274 310 411
#     4  10  23  42  64  96 137 176 229 281 341 406
#     4  11  23  42  70 101 133 185 227 282 343 416
#
# _framework density 27.442371999999999
#
# number of rings (size 3 to 8) (size 9 to 14) (size 15 to 20)
#    0.000    1.667    3.333    1.000    2.333    2.667 
#    3.000    0.000    0.000    0.000    0.000    0.000 
#    0.000    0.000    0.000    0.000    0.000    0.000 
#
# Total GULP energy -267850.900418 kJ/mol
# GULP energy per Si atom -5580.227092 kJ/mol
# Density = 2.737991 g / cm^3
# Si number density = 27.442372 Si / 1000 Ang^3
#
#
#
# Elastic Constant Matrix: (Units=GPa)
#
#
# Indices 1 2 3 4 5 6 
#
# 1 123.8840 31.3020 9.5453 0.0000 0.0000 0.0000
# 2 31.3020 123.8840 9.5453 0.0000 0.0000 0.0000
# 3 9.5453 9.5453 25.0546 0.0000 0.0000 0.0000
# 4 0.0000 0.0000 0.0000 40.2632 0.0000 0.0000
# 5 0.0000 0.0000 0.0000 0.0000 40.2632 0.0000
# 6 0.0000 0.0000 0.0000 0.0000 0.0000 18.6161
#
#
#
# Elastic Compliance Matrix: (Units=1/GPa)
#
#
# Indices 1 2 3 4 5 6 
#
# 1 0.008781 -0.002020 -0.002576 0.000000 0.000000 0.000000
# 2 -0.002020 0.008781 -0.002576 0.000000 0.000000 0.000000
# 3 -0.002576 -0.002576 0.041875 0.000000 0.000000 0.000000
# 4 0.000000 0.000000 0.000000 0.024837 0.000000 0.000000
# 5 0.000000 0.000000 0.000000 0.000000 0.024837 0.000000
# 6 0.000000 0.000000 0.000000 0.000000 0.000000 0.053717
#
#
# Mechanical properties :
#
#
# Convention : Reuss Voigt Hill
#
# Bulk Modulus (GPa) = 22.17588 41.51196 31.84392
# Shear Modulus (GPa) = 26.01430 34.65717 30.33574
#
# Velocity S-wave (km/s) = 3.08224 3.55760 3.32841
# Velocity P-wave (km/s) = 4.55690 5.65996 5.13812
#
# Compressibility (1/GPa) = 0.04509404
#
# Stress axis : x y z
#
# Youngs Moduli (GPa) = 113.88241 113.88241 23.88040
#
# Poissons Ratio (x) = 0.23007 0.06151
# Poissons Ratio (y) = 0.23007 0.06151
# Poissons Ratio (z) = 0.29333 0.29333
#
# Static dielectric constant tensor:
#      x y z
#    x 2.237670 0.000000 0.000000 
#    y 0.000000 2.237670 0.000000 
#    z 0.000000 0.000000 2.582520 
# 
# From -- ./inp_files/4516.got.cif
#   From: 2010.05.17/outbox.cif.g08.bks.cpg/sg92_3_cif.got.tgz:4516.got - 2010.06.03 19:35:17.
