data_PCOD9548950
_publ_section_title
;
Structure prediction by ZEFSAII (Michael W. Deem and Ramdas Pophale) SiO2 
 PCOD9548950
Probable space group: P 41 21 2
;
_chemical_formula_sum "Si O2"
_cell_formula_units_Z 28
_cell_length_a 8.772830
_cell_length_b 8.772830
_cell_length_c 13.043147
_cell_angle_alpha 90.000000
_cell_angle_beta 90.000000
_cell_angle_gamma 90.000000
_cell_volume 1003.833804
_symmetry_space_group_name_H-M "P 41 21 2"
_symmetry_group_IT_number 92
_symmetry_cell_setting 'tetragonal'
loop_
_space_group_symop_operation_xyz
x,y,z
1/2-y,1/2+x,1/4+z
-x,-y,1/2+z
1/2+y,1/2-x,3/4+z
1/2+x,1/2-y,3/4-z
1/2-x,1/2+y,1/4-z
y,x,-z
-y,-x,1/2-z
loop_
_atom_site_type_symbol
_atom_site_label
_atom_site_fract_x
_atom_site_fract_y
_atom_site_fract_z
Si Si1 0.571691 0.073468 0.124790
Si Si2 0.313882 0.446441 0.792763
Si Si3 0.244508 0.041877 0.935847
Si Si4 0.388439 0.388439 0.500000
O O1 0.649941 0.036876 0.012372
O O2 0.485345 0.914528 0.148282
O O3 0.491029 0.238557 0.100687
O O4 0.732201 0.099755 0.185710
O O5 0.421816 0.578184 0.750000
O O6 0.399255 0.294443 0.762711
O O7 0.130528 0.016605 0.837922
O O8 0.186295 0.186295 0.000000
#
# Coordination Sequence:
#
# PCOD9548950 Si02
#       4
#     8   8   8   4
#     4  11  18  37  62  88 117 157 212 262 294 373
#     4  10  19  36  62  88 112 164 211 249 306 382
#     4  10  22  38  65  90 125 168 214 257 317 379
#     4  10  20  40  66  90 124 170 216 256 304 398
#
# _framework density 27.893062
#
# number of rings (size 3 to 8) (size 9 to 14) (size 15 to 20)
#    0.000    1.714    4.286    1.714    0.000    0.000 
#    5.143    0.000    6.286    0.000    0.000    0.000 
#    0.000    0.000    0.000    0.000    0.000    0.000 
#
# Total GULP energy -156233.635846 kJ/mol
# GULP energy per Si atom -5579.772709 kJ/mol
# Density = 2.782958 g / cm^3
# Si number density = 27.893062 Si / 1000 Ang^3
#
#
#
# Elastic Constant Matrix: (Units=GPa)
#
#
# Indices 1 2 3 4 5 6 
#
# 1 201.9871 -24.9607 25.5846 0.0000 0.0000 0.0000
# 2 -24.9607 201.9791 25.5797 0.0000 0.0000 0.0000
# 3 25.5846 25.5797 23.5113 0.0000 0.0000 0.0000
# 4 0.0000 0.0000 0.0000 17.7206 0.0000 0.0000
# 5 0.0000 0.0000 0.0000 0.0000 17.7201 0.0000
# 6 0.0000 0.0000 0.0000 0.0000 0.0000 6.7260
#
#
#
# Elastic Compliance Matrix: (Units=1/GPa)
#
#
# Indices 1 2 3 4 5 6 
#
# 1 0.006323 0.001917 -0.008967 0.000000 0.000000 0.000000
# 2 0.001917 0.006323 -0.008966 0.000000 0.000000 0.000000
# 3 -0.008967 -0.008966 0.062045 0.000000 0.000000 0.000000
# 4 0.000000 0.000000 0.000000 0.056431 0.000000 0.000000
# 5 0.000000 0.000000 0.000000 0.000000 0.056433 0.000000
# 6 0.000000 0.000000 0.000000 0.000000 0.000000 0.148677
#
#
# Mechanical properties :
#
#
# Convention : Reuss Voigt Hill
#
# Bulk Modulus (GPa) = 23.44080 53.32051 38.38065
# Shear Modulus (GPa) = 13.07242 35.18496 24.12869
#
# Velocity S-wave (km/s) = 2.16721 3.55551 2.94435
# Velocity P-wave (km/s) = 3.83203 6.00109 5.03475
#
# Compressibility (1/GPa) = 0.04266067
#
# Stress axis : x y z
#
# Youngs Moduli (GPa) = 158.14035 158.14274 16.11733
#
# Poissons Ratio (x) = -0.30317 0.14452
# Poissons Ratio (y) = -0.30317 0.14451
# Poissons Ratio (z) = 1.41802 1.41788
#
# Static dielectric constant tensor:
#      x y z
#    x 5.190960 0.000000 0.000000 
#    y 0.000000 5.190020 0.000000 
#    z 0.000000 0.000000 -5.948440 
# 
# From -- ./inp_files/2930.got.cif
#   From: 2010.05.17/outbox.cif.g08.bks.cpg/sg92_2_cif.got.tgz:2930.got - 2010.06.03 19:35:17.
