data_PCOD9548743
_publ_section_title
;
Structure prediction by ZEFSAII (Michael W. Deem and Ramdas Pophale) SiO2 
 PCOD9548743
Probable space group: P 41 2 2
;
_chemical_formula_sum "Si O2"
_cell_formula_units_Z 40
_cell_length_a 18.598636
_cell_length_b 18.598636
_cell_length_c 5.195503
_cell_angle_alpha 90.000000
_cell_angle_beta 90.000000
_cell_angle_gamma 90.000000
_cell_volume 1797.172604
_symmetry_space_group_name_H-M "P 41 2 2"
_symmetry_group_IT_number 91
_symmetry_cell_setting 'tetragonal'
loop_
_space_group_symop_operation_xyz
x,y,z
-y,x,1/4+z
-x,-y,1/2+z
y,-x,3/4+z
x,-y,1/2-z
-x,y,-z
y,x,3/4-z
-y,-x,1/4-z
loop_
_atom_site_type_symbol
_atom_site_label
_atom_site_fract_x
_atom_site_fract_y
_atom_site_fract_z
Si Si1 0.428505 0.082291 0.662791
Si Si2 0.739064 0.739064 0.375000
Si Si3 0.189854 0.189854 0.375000
Si Si4 0.772865 0.424023 0.139118
Si Si5 0.727493 0.950176 0.994147
Si Si6 0.358226 0.423776 0.142757
O O1 0.500000 0.098745 0.500000
O O2 0.426461 0.141708 0.884088
O O3 0.349709 0.089102 0.535538
O O4 0.434560 0.000000 0.750000
O O5 0.780227 0.770467 0.621209
O O6 0.656607 0.751218 0.462369
O O7 0.210882 0.105958 0.407663
O O8 0.745918 0.500000 0.250000
O O9 0.728148 0.426528 0.875508
O O10 0.715468 0.000000 0.750000
O O11 0.741218 0.000000 0.250000
O O12 0.385677 0.500000 0.250000
O O13 0.371364 0.371364 0.375000
O O14 0.397156 0.397156 0.875000
#
# Coordination Sequence:
#
# PCOD9548743 Si02
#       6
#     8   4   4   8   8   8
#     4  11  24  42  67 106 148 196 239 295 368 449
#     4  12  28  46  76 112 144 200 256 314 380 438
#     4  12  26  48  78 114 152 200 250 316 366 456
#     4  12  27  46  73 105 148 193 249 310 375 449
#     4  11  25  45  75 112 154 200 249 306 376 450
#     4  12  27  47  71  98 131 178 237 302 372 433
#
# _framework density 22.257183999999999
#
# number of rings (size 3 to 8) (size 9 to 14) (size 15 to 20)
#    0.000    0.400    3.000    4.800    7.000    0.800 
#    0.000    1.000    0.000    1.200    0.000    0.000 
#    0.000    0.000    0.000    0.000    0.000    0.000 
#
# Total GULP energy -222950.518939 kJ/mol
# GULP energy per Si atom -5573.762973 kJ/mol
# Density = 2.220653 g / cm^3
# Si number density = 22.257184 Si / 1000 Ang^3
#
#
#
# Elastic Constant Matrix: (Units=GPa)
#
#
# Indices 1 2 3 4 5 6 
#
# 1 80.3966 34.8575 11.1960 0.0000 0.0000 0.0000
# 2 34.8575 80.3966 11.1960 0.0000 0.0000 0.0000
# 3 11.1960 11.1960 101.9639 0.0000 0.0000 0.0000
# 4 0.0000 0.0000 0.0000 31.0379 0.0000 0.0000
# 5 0.0000 0.0000 0.0000 0.0000 31.0379 0.0000
# 6 0.0000 0.0000 0.0000 0.0000 0.0000 15.8301
#
#
#
# Elastic Compliance Matrix: (Units=1/GPa)
#
#
# Indices 1 2 3 4 5 6 
#
# 1 0.015412 -0.006547 -0.000973 0.000000 0.000000 0.000000
# 2 -0.006547 0.015412 -0.000973 0.000000 0.000000 0.000000
# 3 -0.000973 -0.000973 0.010021 0.000000 0.000000 0.000000
# 4 0.000000 0.000000 0.000000 0.032219 0.000000 0.000000
# 5 0.000000 0.000000 0.000000 0.000000 0.032219 0.000000
# 6 0.000000 0.000000 0.000000 0.000000 0.000000 0.063171
#
#
# Mechanical properties :
#
#
# Convention : Reuss Voigt Hill
#
# Bulk Modulus (GPa) = 41.91382 41.91737 41.91559
# Shear Modulus (GPa) = 25.85393 29.28170 27.56782
#
# Velocity S-wave (km/s) = 3.41192 3.63106 3.52320
# Velocity P-wave (km/s) = 5.86465 6.03768 5.95179
#
# Compressibility (1/GPa) = 0.02385848
#
# Stress axis : x y z
#
# Youngs Moduli (GPa) = 64.88291 64.88291 99.78873
#
# Poissons Ratio (x) = 0.42477 0.09714
# Poissons Ratio (y) = 0.42477 0.09714
# Poissons Ratio (z) = 0.06316 0.06316
#
# Static dielectric constant tensor:
#      x y z
#    x 1.946090 0.000000 0.000000 
#    y 0.000000 1.946090 0.000000 
#    z 0.000000 0.000000 0.999800 
# 
# From -- ./inp_files/8581.got.cif
#   From: 2010.05.17/outbox.cif.g08.bks.cpg/sg91_5_cif.got.tgz:8581.got - 2010.06.03 19:20:03.
