data_PCOD9548943
_publ_section_title
;
Structure prediction by ZEFSAII (Michael W. Deem and Ramdas Pophale) SiO2 
 PCOD9548943
Probable space group: P 41 21 2
;
_chemical_formula_sum "Si O2"
_cell_formula_units_Z 32
_cell_length_a 15.797413
_cell_length_b 15.797413
_cell_length_c 5.479236
_cell_angle_alpha 90.000000
_cell_angle_beta 90.000000
_cell_angle_gamma 90.000000
_cell_volume 1367.388589
_symmetry_space_group_name_H-M "P 41 21 2"
_symmetry_group_IT_number 92
_symmetry_cell_setting 'tetragonal'
loop_
_space_group_symop_operation_xyz
x,y,z
1/2-y,1/2+x,1/4+z
-x,-y,1/2+z
1/2+y,1/2-x,3/4+z
1/2+x,1/2-y,3/4-z
1/2-x,1/2+y,1/4-z
y,x,-z
-y,-x,1/2-z
loop_
_atom_site_type_symbol
_atom_site_label
_atom_site_fract_x
_atom_site_fract_y
_atom_site_fract_z
Si Si1 0.532987 0.787924 0.457948
Si Si2 0.097712 0.902289 0.750000
Si Si3 0.154144 0.223564 0.739497
Si Si4 0.199913 0.408027 0.546744
Si Si5 0.106415 0.893585 0.250000
O O1 0.441358 0.746126 0.435585
O O2 0.539582 0.833259 0.719930
O O3 0.594359 0.707035 0.489932
O O4 0.563433 0.835747 0.215740
O O5 0.079545 0.801310 0.762919
O O6 0.066353 0.931591 0.491121
O O7 0.161473 0.161473 0.500000
O O8 0.187564 0.310849 0.620073
O O9 0.197255 0.197255 0.000000
#
# Coordination Sequence:
#
# PCOD9548943 Si02
#       5
#     8   4   8   8   4
#     4  10  21  37  58  90 126 165 207 258 321 385
#     4   8  14  26  50  77  98 138 193 246 272 336
#     4  12  24  38  62  97 129 158 217 284 321 370
#     4  10  19  35  58  83 121 159 205 260 312 369
#     4   8  16  30  52  75 110 156 195 228 290 382
#
# _framework density 23.402270999999999
#
# number of rings (size 3 to 8) (size 9 to 14) (size 15 to 20)
#    0.000    2.000    1.250    3.000    7.000    0.000 
#    0.000    1.250    0.000    3.000    0.000    0.000 
#    0.000    0.000    0.000    0.000    0.000    0.000 
#
# Total GULP energy -178208.038465 kJ/mol
# GULP energy per Si atom -5569.001202 kJ/mol
# Density = 2.334901 g / cm^3
# Si number density = 23.402271 Si / 1000 Ang^3
#
#
#
# Elastic Constant Matrix: (Units=GPa)
#
#
# Indices 1 2 3 4 5 6 
#
# 1 1729.6256-1676.6900 20.1094 0.0000 0.0000 0.0000
# 2 -1676.6900 1729.6463 20.0966 0.0000 0.0000 0.0000
# 3 20.1094 20.0966 309.3806 0.0000 0.0000 0.0000
# 4 0.0000 0.0000 0.0000 30.5704 0.0000 0.0000
# 5 0.0000 0.0000 0.0000 0.0000 30.5711 0.0000
# 6 0.0000 0.0000 0.0000 0.0000 0.0000 12.9604
#
#
#
# Elastic Compliance Matrix: (Units=1/GPa)
#
#
# Indices 1 2 3 4 5 6 
#
# 1 0.010081 0.009787 -0.001291 0.000000 0.000000 0.000000
# 2 0.009787 0.010080 -0.001291 0.000000 0.000000 0.000000
# 3 -0.001291 -0.001291 0.003400 0.000000 0.000000 0.000000
# 4 0.000000 0.000000 0.000000 0.032711 0.000000 0.000000
# 5 0.000000 0.000000 0.000000 0.000000 0.032711 0.000000
# 6 0.000000 0.000000 0.000000 0.000000 0.000000 0.077158
#
#
# Mechanical properties :
#
#
# Convention : Reuss Voigt Hill
#
# Bulk Modulus (GPa) = 26.33575 55.07607 40.70591
# Shear Modulus (GPa) = 30.41576 375.16279 202.78927
#
# Velocity S-wave (km/s) = 3.60904 12.67511 9.31889
# Velocity P-wave (km/s) = 5.35208 15.42066 11.54213
#
# Compressibility (1/GPa) = 0.03797120
#
# Stress axis : x y z
#
# Youngs Moduli (GPa) = 99.20047 99.20175 294.11479
#
# Poissons Ratio (x) = -0.97088 0.37969
# Poissons Ratio (y) = -0.97087 0.37969
# Poissons Ratio (z) = 0.12806 0.12806
#
# Static dielectric constant tensor:
#      x y z
#    x 1.889230 0.000000 0.000000 
#    y 0.000000 1.889240 0.000000 
#    z 0.000000 0.000000 2.162790 
# 
# From -- ./inp_files/363.got.cif
#   From: 2010.05.17/outbox.cif.g08.bks.cpg/sg92_1_cif.got.tgz:363.got - 2010.06.03 19:35:17.
