data_PCOD9548957
_publ_section_title
;
Structure prediction by ZEFSAII (Michael W. Deem and Ramdas Pophale) SiO2 
 PCOD9548957
Probable space group: P 41 21 2
;
_chemical_formula_sum "Si O2"
_cell_formula_units_Z 40
_cell_length_a 12.904577
_cell_length_b 12.904577
_cell_length_c 9.253333
_cell_angle_alpha 90.000000
_cell_angle_beta 90.000000
_cell_angle_gamma 90.000000
_cell_volume 1540.940033
_symmetry_space_group_name_H-M "P 41 21 2"
_symmetry_group_IT_number 92
_symmetry_cell_setting 'tetragonal'
loop_
_space_group_symop_operation_xyz
x,y,z
1/2-y,1/2+x,1/4+z
-x,-y,1/2+z
1/2+y,1/2-x,3/4+z
1/2+x,1/2-y,3/4-z
1/2-x,1/2+y,1/4-z
y,x,-z
-y,-x,1/2-z
loop_
_atom_site_type_symbol
_atom_site_label
_atom_site_fract_x
_atom_site_fract_y
_atom_site_fract_z
Si Si1 0.353509 0.418120 0.815828
Si Si2 0.173113 0.048724 0.135496
Si Si3 0.756810 0.788360 0.234446
Si Si4 0.415764 0.044482 0.083561
Si Si5 0.425379 0.797242 0.747117
O O1 0.470128 0.386714 0.781920
O O2 0.295772 0.307455 0.815157
O O3 0.298994 0.499783 0.709302
O O4 0.339459 0.481886 0.965111
O O5 0.143825 0.167754 0.164459
O O6 0.294720 0.057952 0.104651
O O7 0.679288 0.858617 0.139936
O O8 0.838080 0.736102 0.119494
O O9 0.493617 0.123424 0.172054
O O10 0.443924 0.939944 0.166431
#
# Coordination Sequence:
#
# PCOD9548957 Si02
#       5
#     8   8   8   8   8
#     4  10  19  37  61  91 124 172 215 269 344 397
#     4  10  20  36  63  88 129 171 216 272 333 411
#     4  10  19  37  61  91 124 172 215 269 344 397
#     4  12  22  38  62  98 132 170 218 280 334 392
#     4  10  20  36  63  88 129 171 216 272 333 411
#
# _framework density 25.958181
#
# number of rings (size 3 to 8) (size 9 to 14) (size 15 to 20)
#    0.000    1.600    6.000    0.000    2.800    0.000 
#    0.000    0.000    0.000   72.000    0.000    0.000 
#    0.000    0.000    0.000    0.000    0.000    0.000 
#
# Total GULP energy -223350.801468 kJ/mol
# GULP energy per Si atom -5583.770037 kJ/mol
# Density = 2.589910 g / cm^3
# Si number density = 25.958181 Si / 1000 Ang^3
#
#
#
# Elastic Constant Matrix: (Units=GPa)
#
#
# Indices 1 2 3 4 5 6 
#
# 1 104.7514 50.2406 20.3558 0.0000 0.0000 0.0000
# 2 50.2406 104.7514 20.3558 0.0000 0.0000 0.0000
# 3 20.3558 20.3558 58.4699 0.0000 0.0000 0.0000
# 4 0.0000 0.0000 0.0000 30.5395 0.0000 0.0000
# 5 0.0000 0.0000 0.0000 0.0000 30.5395 0.0000
# 6 0.0000 0.0000 0.0000 0.0000 0.0000 51.1195
#
#
#
# Elastic Compliance Matrix: (Units=1/GPa)
#
#
# Indices 1 2 3 4 5 6 
#
# 1 0.012723 -0.005622 -0.002472 0.000000 0.000000 0.000000
# 2 -0.005622 0.012723 -0.002472 0.000000 0.000000 0.000000
# 3 -0.002472 -0.002472 0.018824 0.000000 0.000000 0.000000
# 4 0.000000 0.000000 0.000000 0.032744 0.000000 0.000000
# 5 0.000000 0.000000 0.000000 0.000000 0.032744 0.000000
# 6 0.000000 0.000000 0.000000 0.000000 0.000000 0.019562
#
#
# Mechanical properties :
#
#
# Convention : Reuss Voigt Hill
#
# Bulk Modulus (GPa) = 43.21930 49.98634 46.60282
# Shear Modulus (GPa) = 31.61219 34.24107 32.92663
#
# Velocity S-wave (km/s) = 3.49350 3.63586 3.56539
# Velocity P-wave (km/s) = 5.74095 6.07654 5.91112
#
# Compressibility (1/GPa) = 0.02313781
#
# Stress axis : x y z
#
# Youngs Moduli (GPa) = 78.59687 78.59687 53.12303
#
# Poissons Ratio (x) = 0.44186 0.13133
# Poissons Ratio (y) = 0.44186 0.13133
# Poissons Ratio (z) = 0.19431 0.19431
#
# Static dielectric constant tensor:
#      x y z
#    x 2.108600 0.000000 0.000000 
#    y 0.000000 2.108600 0.000000 
#    z 0.000000 0.000000 2.271420 
# 
# From -- ./inp_files/2049.got.cif
#   From: 2010.05.17/outbox.cif.g08.bks.cpg/sg92_2_cif.got.tgz:2049.got - 2010.06.03 19:35:17.
