data_PCOD9548388
_publ_section_title
;
Structure prediction by ZEFSAII (Michael W. Deem and Ramdas Pophale) SiO2 
 PCOD9548388
Probable space group: P 41 2 2
;
_chemical_formula_sum "Si O2"
_cell_formula_units_Z 32
_cell_length_a 8.352605
_cell_length_b 8.352605
_cell_length_c 19.029572
_cell_angle_alpha 90.000000
_cell_angle_beta 90.000000
_cell_angle_gamma 90.000000
_cell_volume 1327.617316
_symmetry_space_group_name_H-M "P 41 2 2"
_symmetry_group_IT_number 91
_symmetry_cell_setting 'tetragonal'
loop_
_space_group_symop_operation_xyz
x,y,z
-y,x,1/4+z
-x,-y,1/2+z
y,-x,3/4+z
x,-y,1/2-z
-x,y,-z
y,x,3/4-z
-y,-x,1/4-z
loop_
_atom_site_type_symbol
_atom_site_label
_atom_site_fract_x
_atom_site_fract_y
_atom_site_fract_z
Si Si1 0.935524 0.500000 0.250000
Si Si2 0.796684 0.476504 0.631215
Si Si3 0.186350 0.226497 0.571570
Si Si4 0.000000 0.497213 0.000000
Si Si5 0.093040 0.832179 0.772709
O O1 0.051633 0.541441 0.184293
O O2 0.838884 0.335170 0.241917
O O3 0.678033 0.321967 0.625000
O O4 0.718817 0.631357 0.666940
O O5 0.863913 0.548982 0.557761
O O6 0.098919 0.383753 0.549121
O O7 0.105793 0.165345 0.643489
O O8 0.169761 0.084057 0.514117
O O9 0.172920 0.000000 0.750000
#
# Coordination Sequence:
#
# PCOD9548388 Si02
#       5
#     4   8   8   4   8
#     4  10  22  44  66 100 140 180 232 308 344 432
#     4  11  24  44  69  98 141 181 233 293 363 431
#     4  11  25  42  71 107 140 186 242 299 359 446
#     4  12  24  42  74 102 132 186 234 286 360 432
#     4  11  22  40  69 104 139 188 238 296 366 423
#
# _framework density 24.103332000000002
#
# number of rings (size 3 to 8) (size 9 to 14) (size 15 to 20)
#    0.000    1.000    3.750    3.750    1.750    0.000 
#    0.000    3.750    0.000    0.000    0.000    0.000 
#    0.000    0.000    0.000    0.000    0.000    0.000 
#
# Total GULP energy -178168.235051 kJ/mol
# GULP energy per Si atom -5567.757345 kJ/mol
# Density = 2.404847 g / cm^3
# Si number density = 24.103332 Si / 1000 Ang^3
#
#
#
# Elastic Constant Matrix: (Units=GPa)
#
#
# Indices 1 2 3 4 5 6 
#
# 1 82.3667 1.2702 15.8482 0.0000 0.0000 0.0000
# 2 1.2702 82.3667 15.8482 0.0000 0.0000 0.0000
# 3 15.8482 15.8482 127.6761 0.0000 0.0000 0.0000
# 4 0.0000 0.0000 0.0000 40.7927 0.0000 0.0000
# 5 0.0000 0.0000 0.0000 0.0000 40.7927 0.0000
# 6 0.0000 0.0000 0.0000 0.0000 0.0000 26.9501
#
#
#
# Elastic Compliance Matrix: (Units=1/GPa)
#
#
# Indices 1 2 3 4 5 6 
#
# 1 0.012439 0.000108 -0.001557 0.000000 0.000000 0.000000
# 2 0.000108 0.012439 -0.001557 0.000000 0.000000 0.000000
# 3 -0.001557 -0.001557 0.008219 0.000000 0.000000 0.000000
# 4 0.000000 0.000000 0.000000 0.024514 0.000000 0.000000
# 5 0.000000 0.000000 0.000000 0.000000 0.024514 0.000000
# 6 0.000000 0.000000 0.000000 0.000000 0.000000 0.037106
#
#
# Mechanical properties :
#
#
# Convention : Reuss Voigt Hill
#
# Bulk Modulus (GPa) = 36.92394 39.81585 38.36990
# Shear Modulus (GPa) = 37.23784 39.00330 38.12057
#
# Velocity S-wave (km/s) = 3.93482 4.02701 3.98118
# Velocity P-wave (km/s) = 5.99967 6.17876 6.08987
#
# Compressibility (1/GPa) = 0.02708270
#
# Stress axis : x y z
#
# Youngs Moduli (GPa) = 80.39347 80.39347 121.67000
#
# Poissons Ratio (x) = -0.00867 0.18949
# Poissons Ratio (y) = -0.00867 0.18949
# Poissons Ratio (z) = 0.12520 0.12520
#
# Static dielectric constant tensor:
#      x y z
#    x 2.109710 0.000000 0.000000 
#    y 0.000000 2.109710 0.000000 
#    z 0.000000 0.000000 1.651830 
# 
# From -- ./inp_files/12234.got.cif
#   From: 2010.05.17/outbox.cif.g08.bks.cpg/sg91_7_cif.got.tgz:12234.got - 2010.06.03 19:20:03.
