data_PCOD9548375
_publ_section_title
;
Structure prediction by ZEFSAII (Michael W. Deem and Ramdas Pophale) SiO2 
 PCOD9548375
Probable space group: P 41 2 2
;
_chemical_formula_sum "Si O2"
_cell_formula_units_Z 40
_cell_length_a 8.379008
_cell_length_b 8.379008
_cell_length_c 26.598374
_cell_angle_alpha 90.000000
_cell_angle_beta 90.000000
_cell_angle_gamma 90.000000
_cell_volume 1867.412659
_symmetry_space_group_name_H-M "P 41 2 2"
_symmetry_group_IT_number 91
_symmetry_cell_setting 'tetragonal'
loop_
_space_group_symop_operation_xyz
x,y,z
-y,x,1/4+z
-x,-y,1/2+z
y,-x,3/4+z
x,-y,1/2-z
-x,y,-z
y,x,3/4-z
-y,-x,1/4-z
loop_
_atom_site_type_symbol
_atom_site_label
_atom_site_fract_x
_atom_site_fract_y
_atom_site_fract_z
Si Si1 0.076862 0.235995 0.764745
Si Si2 0.549952 0.949163 0.804644
Si Si3 0.418683 0.835797 0.605948
Si Si4 0.615449 0.365683 0.289726
Si Si5 0.918946 0.939699 0.815797
O O1 0.963073 0.217569 0.716280
O O2 0.060601 0.372079 0.806754
O O3 0.250478 0.267295 0.741485
O O4 0.040545 0.074606 0.795856
O O5 0.512312 0.761248 0.809189
O O6 0.737671 0.984263 0.804857
O O7 0.488193 0.000000 0.750000
O O8 0.473916 0.051864 0.849115
O O9 0.267997 0.732004 0.625000
O O10 0.548293 0.708786 0.585330
O O11 0.555629 0.500000 0.250000
O O12 0.929007 0.929007 0.875000
#
# Coordination Sequence:
#
# PCOD9548375 Si02
#       5
#     8   8   8   8   8
#     4  10  22  43  67  99 134 176 236 291 334 413
#     4  12  25  42  68 102 137 183 235 289 353 422
#     4  11  25  43  70 102 136 187 235 285 358 423
#     4  10  24  45  67  98 135 179 228 285 352 418
#     4  11  24  41  68 104 136 177 233 292 353 405
#
# _framework density 21.420009
#
# number of rings (size 3 to 8) (size 9 to 14) (size 15 to 20)
#    0.000    1.200    2.000    4.200   14.000    0.800 
#    0.000    5.000    0.000    0.000    0.000    0.000 
#    0.000    0.000    0.000    0.000    0.000    0.000 
#
# Total GULP energy -223315.156892 kJ/mol
# GULP energy per Si atom -5582.878922 kJ/mol
# Density = 2.137126 g / cm^3
# Si number density = 21.420009 Si / 1000 Ang^3
#
#
#
# Elastic Constant Matrix: (Units=GPa)
#
#
# Indices 1 2 3 4 5 6 
#
# 1 48.1658 29.7795 19.7511 0.0000 0.0000 0.0000
# 2 29.7795 48.1643 19.7506 0.0000 0.0000 0.0000
# 3 19.7511 19.7506 159.8110 0.0000 0.0000 0.0000
# 4 0.0000 0.0000 0.0000 2.2976 0.0000 0.0000
# 5 0.0000 0.0000 0.0000 0.0000 2.2979 0.0000
# 6 0.0000 0.0000 0.0000 0.0000 0.0000 11.6511
#
#
#
# Elastic Compliance Matrix: (Units=1/GPa)
#
#
# Indices 1 2 3 4 5 6 
#
# 1 0.034038 -0.020352 -0.001692 0.000000 0.000000 0.000000
# 2 -0.020352 0.034039 -0.001692 0.000000 0.000000 0.000000
# 3 -0.001692 -0.001692 0.006676 0.000000 0.000000 0.000000
# 4 0.000000 0.000000 0.000000 0.435244 0.000000 0.000000
# 5 0.000000 0.000000 0.000000 0.000000 0.435179 0.000000
# 6 0.000000 0.000000 0.000000 0.000000 0.000000 0.085829
#
#
# Mechanical properties :
#
#
# Convention : Reuss Voigt Hill
#
# Bulk Modulus (GPa) = 36.65273 43.85595 40.25434
# Shear Modulus (GPa) = 4.59741 15.70664 10.15202
#
# Velocity S-wave (km/s) = 1.46662 2.71083 2.17940
# Velocity P-wave (km/s) = 4.47399 5.50608 5.01664
#
# Compressibility (1/GPa) = 0.02728310
#
# Stress axis : x y z
#
# Youngs Moduli (GPa) = 29.37872 29.37784 149.80146
#
# Poissons Ratio (x) = 0.59789 0.25340
# Poissons Ratio (y) = 0.59791 0.25339
# Poissons Ratio (z) = 0.04970 0.04969
#
# Static dielectric constant tensor:
#      x y z
#    x 1.784670 0.000000 0.000000 
#    y 0.000000 1.784670 0.000000 
#    z 0.000000 0.000000 1.885970 
# 
# From -- ./inp_files/13159.got.cif
#   From: 2010.05.17/outbox.cif.g08.bks.cpg/sg91_7_cif.got.tgz:13159.got - 2010.06.03 19:20:03.
