data_PCOD9548956
_publ_section_title
;
Structure prediction by ZEFSAII (Michael W. Deem and Ramdas Pophale) SiO2 
 PCOD9548956
Probable space group: P 41 21 2
;
_chemical_formula_sum "Si O2"
_cell_formula_units_Z 56
_cell_length_a 10.495667
_cell_length_b 10.495667
_cell_length_c 20.447843
_cell_angle_alpha 90.000000
_cell_angle_beta 90.000000
_cell_angle_gamma 90.000000
_cell_volume 2252.514464
_symmetry_space_group_name_H-M "P 41 21 2"
_symmetry_group_IT_number 92
_symmetry_cell_setting 'tetragonal'
loop_
_space_group_symop_operation_xyz
x,y,z
1/2-y,1/2+x,1/4+z
-x,-y,1/2+z
1/2+y,1/2-x,3/4+z
1/2+x,1/2-y,3/4-z
1/2-x,1/2+y,1/4-z
y,x,-z
-y,-x,1/2-z
loop_
_atom_site_type_symbol
_atom_site_label
_atom_site_fract_x
_atom_site_fract_y
_atom_site_fract_z
Si Si1 0.272648 0.525550 0.307378
Si Si2 0.722026 0.607960 0.562434
Si Si3 0.915339 0.124712 0.550358
Si Si4 0.254106 0.153179 0.406262
Si Si5 0.390116 0.836724 0.512139
Si Si6 0.939449 0.185618 0.191787
Si Si7 0.985536 0.585326 0.768409
O O1 0.212979 0.665431 0.310525
O O2 0.346705 0.482715 0.242742
O O3 0.354841 0.493074 0.371788
O O4 0.142945 0.440889 0.307332
O O5 0.636330 0.636330 0.500000
O O6 0.650222 0.622296 0.629556
O O7 0.772622 0.466179 0.547662
O O8 0.880036 0.253122 0.511710
O O9 0.066194 0.141804 0.564416
O O10 0.259249 0.128420 0.328743
O O11 0.250248 0.300885 0.426820
O O12 0.392449 0.110021 0.435129
O O13 0.478033 0.961662 0.524502
O O14 0.914315 0.085686 0.250000
O O15 0.029205 0.293817 0.221754
#
# Coordination Sequence:
#
# PCOD9548956 Si02
#       7
#     8   8   8   8   8   8   8
#     4  11  22  39  64  93 124 164 211 269 315 363
#     4  11  24  40  65  91 129 162 213 266 314 378
#     4  11  23  38  66  94 124 163 213 257 316 385
#     4  10  19  37  61  91 122 168 201 254 314 386
#     4  10  20  39  64  88 121 166 210 256 312 375
#     4  10  20  38  61  92 125 157 207 261 313 370
#     4   9  20  34  65  92 119 155 218 260 303 361
#
# _framework density 24.861104999999998
#
# number of rings (size 3 to 8) (size 9 to 14) (size 15 to 20)
#    0.000    1.714    2.857    1.714    2.000    2.286 
#    0.000    3.571    0.000    8.571    0.000    0.000 
#    0.000    0.000    0.000    0.000    0.000    0.000 
#
# Total GULP energy -313535.162150 kJ/mol
# GULP energy per Si atom -5598.842181 kJ/mol
# Density = 2.480452 g / cm^3
# Si number density = 24.861105 Si / 1000 Ang^3
#
#
#
# Elastic Constant Matrix: (Units=GPa)
#
#
# Indices 1 2 3 4 5 6 
#
# 1 66.7538 27.3653 23.1439 0.0000 0.0000 0.0000
# 2 27.3653 66.7540 23.1439 0.0000 0.0000 0.0000
# 3 23.1439 23.1439 177.9228 0.0000 0.0000 0.0000
# 4 0.0000 0.0000 0.0000 9.6661 0.0000 0.0000
# 5 0.0000 0.0000 0.0000 0.0000 9.6662 0.0000
# 6 0.0000 0.0000 0.0000 0.0000 0.0000 34.7736
#
#
#
# Elastic Compliance Matrix: (Units=1/GPa)
#
#
# Indices 1 2 3 4 5 6 
#
# 1 0.018370 -0.007019 -0.001477 0.000000 0.000000 0.000000
# 2 -0.007019 0.018369 -0.001477 0.000000 0.000000 0.000000
# 3 -0.001477 -0.001477 0.006005 0.000000 0.000000 0.000000
# 4 0.000000 0.000000 0.000000 0.103454 0.000000 0.000000
# 5 0.000000 0.000000 0.000000 0.000000 0.103453 0.000000
# 6 0.000000 0.000000 0.000000 0.000000 0.000000 0.028757
#
#
# Mechanical properties :
#
#
# Convention : Reuss Voigt Hill
#
# Bulk Modulus (GPa) = 43.85879 50.97073 47.41476
# Shear Modulus (GPa) = 16.34245 26.67303 21.50774
#
# Velocity S-wave (km/s) = 2.56667 3.27904 2.94448
# Velocity P-wave (km/s) = 5.14427 5.90617 5.53834
#
# Compressibility (1/GPa) = 0.02280044
#
# Stress axis : x y z
#
# Youngs Moduli (GPa) = 54.43792 54.43811 166.54065
#
# Poissons Ratio (x) = 0.38208 0.24590
# Poissons Ratio (y) = 0.38207 0.24590
# Poissons Ratio (z) = 0.08038 0.08038
#
# Static dielectric constant tensor:
#      x y z
#    x 2.005470 0.000000 0.000000 
#    y 0.000000 2.005470 0.000000 
#    z 0.000000 0.000000 1.923110 
# 
# From -- ./inp_files/3579.got.cif
#   From: 2010.05.17/outbox.cif.g08.bks.cpg/sg92_2_cif.got.tgz:3579.got - 2010.06.03 19:35:17.
