data_PCOD9548298
_publ_section_title
;
Structure prediction by ZEFSAII (Michael W. Deem and Ramdas Pophale) SiO2 
 PCOD9548298
Probable space group: P 41 2 2
;
_chemical_formula_sum "Si O2"
_cell_formula_units_Z 40
_cell_length_a 8.371501
_cell_length_b 8.371501
_cell_length_c 25.821091
_cell_angle_alpha 90.000000
_cell_angle_beta 90.000000
_cell_angle_gamma 90.000000
_cell_volume 1809.594448
_symmetry_space_group_name_H-M "P 41 2 2"
_symmetry_group_IT_number 91
_symmetry_cell_setting 'tetragonal'
loop_
_space_group_symop_operation_xyz
x,y,z
-y,x,1/4+z
-x,-y,1/2+z
y,-x,3/4+z
x,-y,1/2-z
-x,y,-z
y,x,3/4-z
-y,-x,1/4-z
loop_
_atom_site_type_symbol
_atom_site_label
_atom_site_fract_x
_atom_site_fract_y
_atom_site_fract_z
Si Si1 0.850440 0.253370 0.528200
Si Si2 0.492068 0.283955 0.191070
Si Si3 0.559170 0.946656 0.165000
Si Si4 0.947282 0.563154 0.804682
Si Si5 0.605194 0.689418 0.572005
O O1 0.756100 0.363655 0.485813
O O2 0.933711 0.375574 0.567416
O O3 0.000000 0.167914 0.500000
O O4 0.729139 0.145322 0.559824
O O5 0.412438 0.299550 0.134379
O O6 0.584329 0.452865 0.196498
O O7 0.605003 0.124472 0.184541
O O8 0.633042 0.785870 0.188590
O O9 0.556105 0.930269 0.102981
O O10 0.887505 0.500000 0.750000
O O11 0.134378 0.592168 0.800357
#
# Coordination Sequence:
#
# PCOD9548298 Si02
#       5
#     8   8   8   8   8
#     4  10  22  40  62  91 126 167 212 264 319 394
#     4   9  21  40  64  93 126 159 221 261 319 387
#     4  10  22  40  65  91 123 171 211 261 323 385
#     4  11  24  39  60  97 126 160 219 261 324 393
#     4  10  22  40  64  91 126 169 205 273 327 380
#
# _framework density 22.104398
#
# number of rings (size 3 to 8) (size 9 to 14) (size 15 to 20)
#    0.000    2.000    0.000    1.800   11.200    0.000 
#    3.600    0.000   17.600    0.000    0.000    0.000 
#    0.000    0.000    0.000    0.000    0.000    0.000 
#
# Total GULP energy -223073.951540 kJ/mol
# GULP energy per Si atom -5576.848789 kJ/mol
# Density = 2.205409 g / cm^3
# Si number density = 22.104398 Si / 1000 Ang^3
#
#
#
# Elastic Constant Matrix: (Units=GPa)
#
#
# Indices 1 2 3 4 5 6 
#
# 1 80.9100 49.6922 14.7431 0.0000 0.0000 0.0000
# 2 49.6922 80.9100 14.7431 0.0000 0.0000 0.0000
# 3 14.7431 14.7431 98.4981 0.0000 0.0000 0.0000
# 4 0.0000 0.0000 0.0000 15.8592 0.0000 0.0000
# 5 0.0000 0.0000 0.0000 0.0000 15.8592 0.0000
# 6 0.0000 0.0000 0.0000 0.0000 0.0000 6.4611
#
#
#
# Elastic Compliance Matrix: (Units=1/GPa)
#
#
# Indices 1 2 3 4 5 6 
#
# 1 0.019979 -0.012054 -0.001186 0.000000 0.000000 0.000000
# 2 -0.012054 0.019979 -0.001186 0.000000 0.000000 0.000000
# 3 -0.001186 -0.001186 0.010508 0.000000 0.000000 0.000000
# 4 0.000000 0.000000 0.000000 0.063055 0.000000 0.000000
# 5 0.000000 0.000000 0.000000 0.000000 0.063055 0.000000
# 6 0.000000 0.000000 0.000000 0.000000 0.000000 0.154772
#
#
# Mechanical properties :
#
#
# Convention : Reuss Voigt Hill
#
# Bulk Modulus (GPa) = 46.27011 46.51945 46.39478
# Shear Modulus (GPa) = 13.60900 19.71188 16.66044
#
# Velocity S-wave (km/s) = 2.48396 2.98948 2.74837
# Velocity P-wave (km/s) = 5.40414 5.74517 5.57726
#
# Compressibility (1/GPa) = 0.02161222
#
# Stress axis : x y z
#
# Youngs Moduli (GPa) = 50.05289 50.05289 95.16948
#
# Poissons Ratio (x) = 0.60335 0.11289
# Poissons Ratio (y) = 0.60335 0.11289
# Poissons Ratio (z) = 0.05937 0.05937
#
# Static dielectric constant tensor:
#      x y z
#    x 1.845010 0.000000 0.000000 
#    y 0.000000 1.845010 0.000000 
#    z 0.000000 0.000000 1.901330 
# 
# From -- ./inp_files/7384.got.cif
#   From: 2010.05.17/outbox.cif.g08.bks.cpg/sg91_4_cif.got.tgz:7384.got - 2010.06.03 19:20:03.
