data_PCOD9548356
_publ_section_title
;
Structure prediction by ZEFSAII (Michael W. Deem and Ramdas Pophale) SiO2 
 PCOD9548356
Probable space group: P 41 2 2
;
_chemical_formula_sum "Si O2"
_cell_formula_units_Z 36
_cell_length_a 11.375331
_cell_length_b 11.375331
_cell_length_c 13.594876
_cell_angle_alpha 90.000000
_cell_angle_beta 90.000000
_cell_angle_gamma 90.000000
_cell_volume 1759.151877
_symmetry_space_group_name_H-M "P 41 2 2"
_symmetry_group_IT_number 91
_symmetry_cell_setting 'tetragonal'
loop_
_space_group_symop_operation_xyz
x,y,z
-y,x,1/4+z
-x,-y,1/2+z
y,-x,3/4+z
x,-y,1/2-z
-x,y,-z
y,x,3/4-z
-y,-x,1/4-z
loop_
_atom_site_type_symbol
_atom_site_label
_atom_site_fract_x
_atom_site_fract_y
_atom_site_fract_z
Si Si1 0.922271 0.601098 0.417076
Si Si2 0.361291 0.878758 0.980856
Si Si3 0.009051 0.198047 0.384359
Si Si4 0.244746 0.745006 0.441079
Si Si5 0.225129 0.500000 0.750000
O O1 0.843754 0.692560 0.477408
O O2 0.850744 0.513335 0.349245
O O3 0.000000 0.537736 0.500000
O O4 0.010008 0.663196 0.341003
O O5 0.286878 0.903081 0.077914
O O6 0.500000 0.875255 0.000000
O O7 0.320521 0.771392 0.913214
O O8 0.881137 0.215020 0.333648
O O9 0.000000 0.223601 0.500000
O O10 0.068817 0.068817 0.375000
O O11 0.373377 0.718222 0.484979
#
# Coordination Sequence:
#
# PCOD9548356 Si02
#       5
#     8   8   8   8   4
#     4  10  22  42  69 101 133 179 237 286 346 426
#     4  11  23  45  70 102 136 185 236 290 358 427
#     4  12  25  43  65 102 145 181 226 293 368 424
#     4  11  25  43  70 104 137 185 234 298 350 434
#     4  12  22  42  74 100 140 184 240 282 354 426
#
# _framework density 20.464406
#
# number of rings (size 3 to 8) (size 9 to 14) (size 15 to 20)
#    0.000    0.889    5.556    0.667    0.000    9.778 
#    0.000    0.000    9.778    0.000    0.000    0.000 
#    0.000    0.000    0.000    0.000    0.000    0.000 
#
# Total GULP energy -200880.881811 kJ/mol
# GULP energy per Si atom -5580.024495 kJ/mol
# Density = 2.041783 g / cm^3
# Si number density = 20.464406 Si / 1000 Ang^3
#
#
#
# Elastic Constant Matrix: (Units=GPa)
#
#
# Indices 1 2 3 4 5 6 
#
# 1 78.9135 51.7855 38.3873 0.0000 0.0000 0.0000
# 2 51.7855 78.9135 38.3873 0.0000 0.0000 0.0000
# 3 38.3873 38.3873 145.7833 0.0000 0.0000 0.0000
# 4 0.0000 0.0000 0.0000 31.4955 0.0000 0.0000
# 5 0.0000 0.0000 0.0000 0.0000 31.4955 0.0000
# 6 0.0000 0.0000 0.0000 0.0000 0.0000 13.6866
#
#
#
# Elastic Compliance Matrix: (Units=1/GPa)
#
#
# Indices 1 2 3 4 5 6 
#
# 1 0.022957 -0.013906 -0.002383 0.000000 0.000000 0.000000
# 2 -0.013906 0.022957 -0.002383 0.000000 0.000000 0.000000
# 3 -0.002383 -0.002383 0.008115 0.000000 0.000000 0.000000
# 4 0.000000 0.000000 0.000000 0.031751 0.000000 0.000000
# 5 0.000000 0.000000 0.000000 0.000000 0.031751 0.000000
# 6 0.000000 0.000000 0.000000 0.000000 0.000000 0.073064
#
#
# Mechanical properties :
#
#
# Convention : Reuss Voigt Hill
#
# Bulk Modulus (GPa) = 59.93888 62.30338 61.12113
# Shear Modulus (GPa) = 21.41335 27.00552 24.20944
#
# Velocity S-wave (km/s) = 3.23827 3.63662 3.44321
# Velocity P-wave (km/s) = 6.58292 6.93860 6.76310
#
# Compressibility (1/GPa) = 0.01668366
#
# Stress axis : x y z
#
# Youngs Moduli (GPa) = 43.56027 43.56027 123.23411
#
# Poissons Ratio (x) = 0.60573 0.29371
# Poissons Ratio (y) = 0.60573 0.29371
# Poissons Ratio (z) = 0.10382 0.10382
#
# Static dielectric constant tensor:
#      x y z
#    x 1.777950 0.000000 0.000000 
#    y 0.000000 1.777950 0.000000 
#    z 0.000000 0.000000 1.752550 
# 
# From -- ./inp_files/10501.got.cif
#   From: 2010.05.17/outbox.cif.g08.bks.cpg/sg91_6_cif.got.tgz:10501.got - 2010.06.03 19:20:03.
