data_PCOD9548823
_publ_section_title
;
Structure prediction by ZEFSAII (Michael W. Deem and Ramdas Pophale) SiO2 
 PCOD9548823
Probable space group: P 41 2 2
;
_chemical_formula_sum "Si O2"
_cell_formula_units_Z 24
_cell_length_a 8.068663
_cell_length_b 8.068663
_cell_length_c 14.122842
_cell_angle_alpha 90.000000
_cell_angle_beta 90.000000
_cell_angle_gamma 90.000000
_cell_volume 919.443939
_symmetry_space_group_name_H-M "P 41 2 2"
_symmetry_group_IT_number 91
_symmetry_cell_setting 'tetragonal'
loop_
_space_group_symop_operation_xyz
x,y,z
-y,x,1/4+z
-x,-y,1/2+z
y,-x,3/4+z
x,-y,1/2-z
-x,y,-z
y,x,3/4-z
-y,-x,1/4-z
loop_
_atom_site_type_symbol
_atom_site_label
_atom_site_fract_x
_atom_site_fract_y
_atom_site_fract_z
Si Si1 0.195974 0.718975 0.017623
Si Si2 0.081052 0.810928 0.400859
Si Si3 0.342932 0.309723 0.768084
O O1 0.243879 0.756121 0.125000
O O2 0.725744 0.859090 0.053179
O O3 0.235977 0.526781 0.997621
O O4 0.000000 0.740246 0.000000
O O5 0.262494 0.808358 0.448210
O O6 0.000000 0.737331 0.500000
O O7 0.969687 0.969687 0.375000
O O8 0.373898 0.500000 0.750000
O O9 0.283272 0.283272 0.875000
#
# Coordination Sequence:
#
# PCOD9548823 Si02
#       3
#     8   8   8
#     4  12  27  48  83 122 174 225 285 357 437 519
#     4  12  26  49  82 121 172 217 282 351 426 518
#     4  12  26  52  83 124 168 224 286 355 428 521
#
# _framework density 26.102734000000002
#
# number of rings (size 3 to 8) (size 9 to 14) (size 15 to 20)
#    0.000    0.000    3.333    7.000    0.000    1.333 
#    0.000    3.333    0.000    0.000    0.000    0.000 
#    0.000    0.000    0.000    0.000    0.000    0.000 
#
# Total GULP energy -133649.764065 kJ/mol
# GULP energy per Si atom -5568.740169 kJ/mol
# Density = 2.604332 g / cm^3
# Si number density = 26.102734 Si / 1000 Ang^3
#
#
#
# Elastic Constant Matrix: (Units=GPa)
#
#
# Indices 1 2 3 4 5 6 
#
# 1 103.4060 58.5731 60.9425 0.0000 0.0000 0.0000
# 2 58.5731 103.4063 60.9425 0.0000 0.0000 0.0000
# 3 60.9425 60.9425 264.5063 0.0000 0.0000 0.0000
# 4 0.0000 0.0000 0.0000 31.6926 0.0000 0.0000
# 5 0.0000 0.0000 0.0000 0.0000 31.6926 0.0000
# 6 0.0000 0.0000 0.0000 0.0000 0.0000 43.8534
#
#
#
# Elastic Compliance Matrix: (Units=1/GPa)
#
#
# Indices 1 2 3 4 5 6 
#
# 1 0.014887 -0.007418 -0.001721 0.000000 0.000000 0.000000
# 2 -0.007418 0.014887 -0.001721 0.000000 0.000000 0.000000
# 3 -0.001721 -0.001721 0.004574 0.000000 0.000000 0.000000
# 4 0.000000 0.000000 0.000000 0.031553 0.000000 0.000000
# 5 0.000000 0.000000 0.000000 0.000000 0.031553 0.000000
# 6 0.000000 0.000000 0.000000 0.000000 0.000000 0.022803
#
#
# Mechanical properties :
#
#
# Convention : Reuss Voigt Hill
#
# Bulk Modulus (GPa) = 79.19237 92.47053 85.83145
# Shear Modulus (GPa) = 34.20321 40.83842 37.52082
#
# Velocity S-wave (km/s) = 3.62378 3.95970 3.79546
# Velocity P-wave (km/s) = 6.92196 7.51054 7.22225
#
# Compressibility (1/GPa) = 0.01262748
#
# Stress axis : x y z
#
# Youngs Moduli (GPa) = 67.17390 67.17411 218.64874
#
# Poissons Ratio (x) = 0.49832 0.37624
# Poissons Ratio (y) = 0.49831 0.37624
# Poissons Ratio (z) = 0.11559 0.11559
#
# Static dielectric constant tensor:
#      x y z
#    x 2.268220 0.000000 0.000000 
#    y 0.000000 2.268220 0.000000 
#    z 0.000000 0.000000 2.204520 
# 
# From -- ./inp_files/4274.got.cif
#   From: 2010.05.17/outbox.cif.g08.bks.cpg/sg91_3_cif.got.tgz:4274.got - 2010.06.03 19:20:03.
