data_PCOD9548796
_publ_section_title
;
Structure prediction by ZEFSAII (Michael W. Deem and Ramdas Pophale) SiO2 
 PCOD9548796
Probable space group: P 41 2 2
;
_chemical_formula_sum "Si O2"
_cell_formula_units_Z 40
_cell_length_a 17.883894
_cell_length_b 17.883894
_cell_length_c 5.349178
_cell_angle_alpha 90.000000
_cell_angle_beta 90.000000
_cell_angle_gamma 90.000000
_cell_volume 1710.847202
_symmetry_space_group_name_H-M "P 41 2 2"
_symmetry_group_IT_number 91
_symmetry_cell_setting 'tetragonal'
loop_
_space_group_symop_operation_xyz
x,y,z
-y,x,1/4+z
-x,-y,1/2+z
y,-x,3/4+z
x,-y,1/2-z
-x,y,-z
y,x,3/4-z
-y,-x,1/4-z
loop_
_atom_site_type_symbol
_atom_site_label
_atom_site_fract_x
_atom_site_fract_y
_atom_site_fract_z
Si Si1 0.196224 0.803777 0.125000
Si Si2 0.643385 0.875342 0.910871
Si Si3 0.420042 0.420042 0.375000
Si Si4 0.000000 0.449466 0.500000
Si Si5 0.500000 0.680328 0.500000
Si Si6 0.283722 0.000000 0.750000
Si Si7 0.853677 0.936082 0.554354
Si Si8 0.774305 0.500000 0.750000
O O1 0.174804 0.716829 0.117135
O O2 0.159826 0.851696 0.347304
O O3 0.606273 0.930038 0.704324
O O4 0.668436 0.934891 0.121589
O O5 0.574256 0.822386 0.967375
O O6 0.500000 0.412958 0.500000
O O7 0.365966 0.430433 0.619377
O O8 0.988954 0.500000 0.750000
O O9 0.518339 0.729679 0.256303
O O10 0.225552 0.963652 0.554591
O O11 0.922594 0.922594 0.375000
O O12 0.872459 0.000000 0.750000
#
# Coordination Sequence:
#
# PCOD9548796 Si02
#       8
#     4   8   4   4   4   4   8   4
#     4  12  26  49  78 116 162 216 273 348 446 512
#     4  12  27  52  82 123 164 225 283 359 439 532
#     4  12  22  49  88 116 148 206 287 342 420 506
#     4  12  27  52  90 121 162 222 296 367 430 514
#     4  12  28  51  77 122 164 214 270 370 422 522
#     4  12  25  50  86 111 162 212 286 353 426 526
#     4  12  23  47  81 114 164 214 281 357 430 525
#     4  12  32  49  77 118 184 218 290 354 442 526
#
# _framework density 23.380227999999999
#
# number of rings (size 3 to 8) (size 9 to 14) (size 15 to 20)
#    0.000    0.000    7.000    1.800    1.400    2.400 
#    0.000    2.000   30.800    0.000    0.000    0.000 
#    0.000    0.000    0.000    0.000    0.000    0.000 
#
# Total GULP energy -223114.388918 kJ/mol
# GULP energy per Si atom -5577.859723 kJ/mol
# Density = 2.332701 g / cm^3
# Si number density = 23.380228 Si / 1000 Ang^3
#
#
#
# Elastic Constant Matrix: (Units=GPa)
#
#
# Indices 1 2 3 4 5 6 
#
# 1 152.3136 80.8848 56.1131 0.0000 0.0000 0.0000
# 2 80.8848 152.3130 56.1137 0.0000 0.0000 0.0000
# 3 56.1131 56.1137 134.4454 0.0000 0.0000 0.0000
# 4 0.0000 0.0000 0.0000 35.5646 0.0000 0.0000
# 5 0.0000 0.0000 0.0000 0.0000 35.5637 0.0000
# 6 0.0000 0.0000 0.0000 0.0000 0.0000 415.9859
#
#
#
# Elastic Compliance Matrix: (Units=1/GPa)
#
#
# Indices 1 2 3 4 5 6 
#
# 1 0.009683 -0.004317 -0.002240 0.000000 0.000000 0.000000
# 2 -0.004317 0.009683 -0.002240 0.000000 0.000000 0.000000
# 3 -0.002240 -0.002240 0.009307 0.000000 0.000000 0.000000
# 4 0.000000 0.000000 0.000000 0.028118 0.000000 0.000000
# 5 0.000000 0.000000 0.000000 0.000000 0.028119 0.000000
# 6 0.000000 0.000000 0.000000 0.000000 0.000000 0.002404
#
#
# Mechanical properties :
#
#
# Convention : Reuss Voigt Hill
#
# Bulk Modulus (GPa) = 90.24425 91.69948 90.97187
# Shear Modulus (GPa) = 46.04052 113.82020 79.93036
#
# Velocity S-wave (km/s) = 4.44239 6.98484 5.85332
# Velocity P-wave (km/s) = 8.06197 10.21551 9.20196
#
# Compressibility (1/GPa) = 0.01108104
#
# Stress axis : x y z
#
# Youngs Moduli (GPa) = 103.27410 103.27315 107.44080
#
# Poissons Ratio (x) = 0.44583 0.24062
# Poissons Ratio (y) = 0.44583 0.24063
# Poissons Ratio (z) = 0.23129 0.23130
#
# Static dielectric constant tensor:
#      x y z
#    x 1.913250 0.000000 0.000000 
#    y 0.000000 1.913250 0.000000 
#    z 0.000000 0.000000 1.809010 
# 
# From -- ./inp_files/8661.got.cif
#   From: 2010.05.17/outbox.cif.g08.bks.cpg/sg91_5_cif.got.tgz:8661.got - 2010.06.03 19:20:03.
