data_PCOD9548985
_publ_section_title
;
Structure prediction by ZEFSAII (Michael W. Deem and Ramdas Pophale) SiO2 
 PCOD9548985
Probable space group: P 41 21 2
;
_chemical_formula_sum "Si O2"
_cell_formula_units_Z 48
_cell_length_a 11.662363
_cell_length_b 11.662363
_cell_length_c 21.006171
_cell_angle_alpha 90.000000
_cell_angle_beta 90.000000
_cell_angle_gamma 90.000000
_cell_volume 2857.064248
_symmetry_space_group_name_H-M "P 41 21 2"
_symmetry_group_IT_number 92
_symmetry_cell_setting 'tetragonal'
loop_
_space_group_symop_operation_xyz
x,y,z
1/2-y,1/2+x,1/4+z
-x,-y,1/2+z
1/2+y,1/2-x,3/4+z
1/2+x,1/2-y,3/4-z
1/2-x,1/2+y,1/4-z
y,x,-z
-y,-x,1/2-z
loop_
_atom_site_type_symbol
_atom_site_label
_atom_site_fract_x
_atom_site_fract_y
_atom_site_fract_z
Si Si1 0.074375 0.395127 0.305083
Si Si2 0.282334 0.524492 0.760833
Si Si3 0.496968 0.371585 0.442027
Si Si4 0.456090 0.990513 0.558664
Si Si5 0.160448 0.829402 0.577562
Si Si6 0.920840 0.749578 0.154967
O O1 0.209709 0.401230 0.317566
O O2 0.025521 0.264469 0.302690
O O3 0.045072 0.449223 0.237372
O O4 0.017490 0.456222 0.366317
O O5 0.371783 0.628218 0.750000
O O6 0.167966 0.534520 0.717618
O O7 0.333082 0.404160 0.736624
O O8 0.250826 0.526533 0.834643
O O9 0.427132 0.427132 0.500000
O O10 0.416551 0.386471 0.380320
O O11 0.622605 0.426904 0.432680
O O12 0.469694 0.853455 0.552747
O O13 0.287404 0.789132 0.599995
#
# Coordination Sequence:
#
# PCOD9548985 Si02
#       6
#     8   8   8   8   8   8
#     4  11  21  35  56  87 117 149 186 238 294 334
#     4  11  17  33  59  81 112 146 185 233 282 333
#     4  11  20  35  55  85 116 145 185 244 280 337
#     4  11  20  35  57  84 114 149 186 236 281 343
#     4  10  20  33  54  89 112 139 190 234 284 339
#     4  10  20  34  55  85 111 151 190 227 291 337
#
# _framework density 16.800462
#
# number of rings (size 3 to 8) (size 9 to 14) (size 15 to 20)
#    0.000    1.333    6.667    2.000    0.000    1.333 
#    0.000    1.667    0.000    1.000    0.000    0.000 
#    0.000    0.000    0.000    0.000    0.000    0.000 
#
# Total GULP energy -267520.882724 kJ/mol
# GULP energy per Si atom -5573.351723 kJ/mol
# Density = 1.676222 g / cm^3
# Si number density = 16.800462 Si / 1000 Ang^3
#
#
#
# Elastic Constant Matrix: (Units=GPa)
#
#
# Indices 1 2 3 4 5 6 
#
# 1 78.6648 39.3476 35.9401 0.0000 0.0000 0.0000
# 2 39.3476 78.6637 35.9403 0.0000 0.0000 0.0000
# 3 35.9401 35.9403 93.0584 0.0000 0.0000 0.0000
# 4 0.0000 0.0000 0.0000 28.1107 0.0000 0.0000
# 5 0.0000 0.0000 0.0000 0.0000 28.1107 0.0000
# 6 0.0000 0.0000 0.0000 0.0000 0.0000 10.4841
#
#
#
# Elastic Compliance Matrix: (Units=1/GPa)
#
#
# Indices 1 2 3 4 5 6 
#
# 1 0.018257 -0.007177 -0.004279 0.000000 0.000000 0.000000
# 2 -0.007177 0.018258 -0.004279 0.000000 0.000000 0.000000
# 3 -0.004279 -0.004279 0.014051 0.000000 0.000000 0.000000
# 4 0.000000 0.000000 0.000000 0.035574 0.000000 0.000000
# 5 0.000000 0.000000 0.000000 0.000000 0.035574 0.000000
# 6 0.000000 0.000000 0.000000 0.000000 0.000000 0.095383
#
#
# Mechanical properties :
#
#
# Convention : Reuss Voigt Hill
#
# Bulk Modulus (GPa) = 52.37085 52.53812 52.45449
# Shear Modulus (GPa) = 19.61302 22.61835 21.11569
#
# Velocity S-wave (km/s) = 3.42044 3.67317 3.54906
# Velocity P-wave (km/s) = 6.84392 7.02348 6.93428
#
# Compressibility (1/GPa) = 0.01909459
#
# Stress axis : x y z
#
# Youngs Moduli (GPa) = 54.77292 54.77181 71.16746
#
# Poissons Ratio (x) = 0.39311 0.30454
# Poissons Ratio (y) = 0.39311 0.30455
# Poissons Ratio (z) = 0.23438 0.23439
#
# Static dielectric constant tensor:
#      x y z
#    x 1.581820 0.000000 0.000000 
#    y 0.000000 1.581820 0.000000 
#    z 0.000000 0.000000 1.561230 
# 
# From -- ./inp_files/3097.got.cif
#   From: 2010.05.17/outbox.cif.g08.bks.cpg/sg92_2_cif.got.tgz:3097.got - 2010.06.03 19:35:17.
