data_PCOD9548936
_publ_section_title
;
Structure prediction by ZEFSAII (Michael W. Deem and Ramdas Pophale) SiO2 
 PCOD9548936
Probable space group: P 41 21 2
;
_chemical_formula_sum "Si O2"
_cell_formula_units_Z 52
_cell_length_a 20.817353
_cell_length_b 20.817353
_cell_length_c 5.523106
_cell_angle_alpha 90.000000
_cell_angle_beta 90.000000
_cell_angle_gamma 90.000000
_cell_volume 2393.505289
_symmetry_space_group_name_H-M "P 41 21 2"
_symmetry_group_IT_number 92
_symmetry_cell_setting 'tetragonal'
loop_
_space_group_symop_operation_xyz
x,y,z
1/2-y,1/2+x,1/4+z
-x,-y,1/2+z
1/2+y,1/2-x,3/4+z
1/2+x,1/2-y,3/4-z
1/2-x,1/2+y,1/4-z
y,x,-z
-y,-x,1/2-z
loop_
_atom_site_type_symbol
_atom_site_label
_atom_site_fract_x
_atom_site_fract_y
_atom_site_fract_z
Si Si1 0.693593 0.693593 0.000000
Si Si2 0.749826 0.749826 0.500000
Si Si3 0.817994 0.464634 0.234814
Si Si4 0.412452 0.505159 0.382897
Si Si5 0.556207 0.701721 0.853524
Si Si6 0.042631 0.581461 0.222571
Si Si7 0.893528 0.106473 0.750000
Si Si8 0.385178 0.818976 0.259066
O O1 0.720655 0.725414 0.755983
O O2 0.616853 0.706871 0.033156
O O3 0.727754 0.824266 0.498860
O O4 0.765205 0.519976 0.215186
O O5 0.887144 0.499692 0.258476
O O6 0.809411 0.423289 0.484107
O O7 0.809269 0.425217 0.988093
O O8 0.478609 0.478609 0.500000
O O9 0.428223 0.571778 0.250000
O O10 0.352668 0.495751 0.563400
O O11 0.398837 0.451250 0.186336
O O12 0.594488 0.672780 0.628477
O O13 0.103812 0.627823 0.255470
O O14 0.988597 0.572243 0.424734
#
# Coordination Sequence:
#
# PCOD9548936 Si02
#       8
#     4   4   8   8   8   8   4   8
#     4  12  24  39  74 103 132 176 227 298 346 401
#     4  12  27  48  72  97 142 194 237 272 352 434
#     4  11  26  44  71 102 141 181 232 294 355 434
#     4  10  19  34  58  85 127 176 224 285 346 403
#     4  11  24  38  62 102 136 176 234 293 352 418
#     4  10  21  41  73 106 137 172 223 294 373 429
#     4  10  19  37  58  86 138 172 226 294 350 409
#     4  11  26  48  69 101 139 187 232 284 348 435
#
# _framework density 21.725460000000002
#
# number of rings (size 3 to 8) (size 9 to 14) (size 15 to 20)
#    0.000    1.231    3.077    3.231    2.154    7.385 
#    1.385    1.538    0.000    0.000    0.000    0.000 
#    0.000    0.000    0.000    0.000    0.000    0.000 
#
# Total GULP energy -289879.622658 kJ/mol
# GULP energy per Si atom -5574.608128 kJ/mol
# Density = 2.167601 g / cm^3
# Si number density = 21.725460 Si / 1000 Ang^3
#
#
#
# Elastic Constant Matrix: (Units=GPa)
#
#
# Indices 1 2 3 4 5 6 
#
# 1 77.9501 67.3816 39.3521 0.0000 0.0000 0.0000
# 2 67.3816 77.9454 39.3469 0.0000 0.0000 0.0000
# 3 39.3521 39.3469 130.9702 0.0000 0.0000 0.0000
# 4 0.0000 0.0000 0.0000 23.6575 0.0000 0.0000
# 5 0.0000 0.0000 0.0000 0.0000 23.6557 0.0000
# 6 0.0000 0.0000 0.0000 0.0000 0.0000 29.7530
#
#
#
# Elastic Compliance Matrix: (Units=1/GPa)
#
#
# Indices 1 2 3 4 5 6 
#
# 1 0.051429 -0.043212 -0.002471 0.000000 0.000000 0.000000
# 2 -0.043212 0.051430 -0.002467 0.000000 0.000000 0.000000
# 3 -0.002471 -0.002467 0.009119 0.000000 0.000000 0.000000
# 4 0.000000 0.000000 0.000000 0.042270 0.000000 0.000000
# 5 0.000000 0.000000 0.000000 0.000000 0.042273 0.000000
# 6 0.000000 0.000000 0.000000 0.000000 0.000000 0.033610
#
#
# Mechanical properties :
#
#
# Convention : Reuss Voigt Hill
#
# Bulk Modulus (GPa) = 63.78089 64.33630 64.05860
# Shear Modulus (GPa) = 15.07578 24.79891 19.93735
#
# Velocity S-wave (km/s) = 2.63710 3.38223 3.03263
# Velocity P-wave (km/s) = 6.22043 6.70300 6.46622
#
# Compressibility (1/GPa) = 0.01567868
#
# Stress axis : x y z
#
# Youngs Moduli (GPa) = 19.44422 19.44374 109.66157
#
# Poissons Ratio (x) = 0.84020 0.27095
# Poissons Ratio (y) = 0.84022 0.27057
# Poissons Ratio (z) = 0.04804 0.04797
#
# Static dielectric constant tensor:
#      x y z
#    x 1.839340 0.000000 0.000000 
#    y 0.000000 1.839340 0.000000 
#    z 0.000000 0.000000 1.915110 
# 
# From -- ./inp_files/753.got.cif
#   From: 2010.05.17/outbox.cif.g08.bks.cpg/sg92_1_cif.got.tgz:753.got - 2010.06.03 19:35:17.
