data_PCOD9548365
_publ_section_title
;
Structure prediction by ZEFSAII (Michael W. Deem and Ramdas Pophale) SiO2 
 PCOD9548365
Probable space group: P 41 2 2
;
_chemical_formula_sum "Si O2"
_cell_formula_units_Z 48
_cell_length_a 8.452327
_cell_length_b 8.452327
_cell_length_c 30.144762
_cell_angle_alpha 90.000000
_cell_angle_beta 90.000000
_cell_angle_gamma 90.000000
_cell_volume 2153.597014
_symmetry_space_group_name_H-M "P 41 2 2"
_symmetry_group_IT_number 91
_symmetry_cell_setting 'tetragonal'
loop_
_space_group_symop_operation_xyz
x,y,z
-y,x,1/4+z
-x,-y,1/2+z
y,-x,3/4+z
x,-y,1/2-z
-x,y,-z
y,x,3/4-z
-y,-x,1/4-z
loop_
_atom_site_type_symbol
_atom_site_label
_atom_site_fract_x
_atom_site_fract_y
_atom_site_fract_z
Si Si1 0.197010 0.322663 0.828274
Si Si2 0.272475 0.661162 0.224439
Si Si3 0.181714 0.605255 0.497238
Si Si4 0.274559 0.324133 0.662244
Si Si5 0.626553 0.373448 0.625000
Si Si6 0.000000 0.841025 0.000000
Si Si7 0.878745 0.900583 0.095523
O O1 0.281310 0.281310 0.875000
O O2 0.290961 0.229943 0.789603
O O3 0.212245 0.508812 0.820407
O O4 0.016637 0.266670 0.833038
O O5 0.231151 0.500000 0.250000
O O6 0.452458 0.707894 0.240264
O O7 0.274094 0.651276 0.170535
O O8 0.170053 0.806186 0.241370
O O9 0.203383 0.710363 0.453236
O O10 0.000000 0.548065 0.500000
O O11 0.447613 0.349130 0.641408
O O12 0.170939 0.250132 0.623735
O O13 0.970347 0.850285 0.052538
O O14 0.989966 0.010035 0.125000
#
# Coordination Sequence:
#
# PCOD9548365 Si02
#       7
#     8   8   8   8   4   4   8
#     4  11  24  43  73 102 140 192 246 317 376 453
#     4  11  24  45  72 110 150 198 256 317 391 464
#     4  11  22  41  74 109 147 192 253 313 382 463
#     4  11  23  45  74 106 144 192 257 313 385 456
#     4  10  22  42  74 112 142 188 248 328 372 462
#     4  12  28  48  72 104 152 204 250 312 394 466
#     4  11  28  48  70 105 151 197 244 312 382 471
#
# _framework density 22.288294
#
# number of rings (size 3 to 8) (size 9 to 14) (size 15 to 20)
#    0.000    1.000    1.667    5.500    7.000    2.667 
#    3.000    0.000    0.000    0.000    0.000    0.000 
#    0.000    0.000    0.000    0.000    0.000    0.000 
#
# Total GULP energy -267674.211330 kJ/mol
# GULP energy per Si atom -5576.546069 kJ/mol
# Density = 2.223757 g / cm^3
# Si number density = 22.288294 Si / 1000 Ang^3
#
#
#
# Elastic Constant Matrix: (Units=GPa)
#
#
# Indices 1 2 3 4 5 6 
#
# 1 15.6713 97.7683 29.8182 0.0000 0.0000 0.0000
# 2 97.7683 15.6769 29.8208 0.0000 0.0000 0.0000
# 3 29.8182 29.8208 162.0465 0.0000 0.0000 0.0000
# 4 0.0000 0.0000 0.0000 32.3658 0.0000 0.0000
# 5 0.0000 0.0000 0.0000 0.0000 32.3652 0.0000
# 6 0.0000 0.0000 0.0000 0.0000 0.0000 95.1974
#
#
#
# Elastic Compliance Matrix: (Units=1/GPa)
#
#
# Indices 1 2 3 4 5 6 
#
# 1 -0.001211 0.010970 -0.001796 0.000000 0.000000 0.000000
# 2 0.010970 -0.001211 -0.001796 0.000000 0.000000 0.000000
# 3 -0.001796 -0.001796 0.006832 0.000000 0.000000 0.000000
# 4 0.000000 0.000000 0.000000 0.030897 0.000000 0.000000
# 5 0.000000 0.000000 0.000000 0.000000 0.030897 0.000000
# 6 0.000000 0.000000 0.000000 0.000000 0.000000 0.010504
#
#
# Mechanical properties :
#
#
# Convention : Reuss Voigt Hill
#
# Bulk Modulus (GPa) = 52.17328 56.46768 54.32048
# Shear Modulus (GPa) = 73.16268 34.38483 53.77376
#
# Velocity S-wave (km/s) = 5.73558 3.93202 4.91720
# Velocity P-wave (km/s) = 8.20498 6.78266 7.52749
#
# Compressibility (1/GPa) = 0.01916690
#
# Stress axis : x y z
#
# Youngs Moduli (GPa) = -825.59023 -825.96392 146.36978
#
# Poissons Ratio (x) = 9.06095 0.26287
# Poissons Ratio (y) = 9.05685 0.26285
# Poissons Ratio (z) = -1.48269 -1.48328
#
# Static dielectric constant tensor:
#      x y z
#    x 1.812470 0.000000 0.000000 
#    y 0.000000 1.812480 0.000000 
#    z 0.000000 0.000000 2.542120 
# 
# From -- ./inp_files/8002.got.cif
#   From: 2010.05.17/outbox.cif.g08.bks.cpg/sg91_5_cif.got.tgz:8002.got - 2010.06.03 19:20:03.
