data_PCOD9548449
_publ_section_title
;
Structure prediction by ZEFSAII (Michael W. Deem and Ramdas Pophale) SiO2 
 PCOD9548449
Probable space group: P 41 2 2
;
_chemical_formula_sum "Si O2"
_cell_formula_units_Z 36
_cell_length_a 8.596384
_cell_length_b 8.596384
_cell_length_c 23.691152
_cell_angle_alpha 90.000000
_cell_angle_beta 90.000000
_cell_angle_gamma 90.000000
_cell_volume 1750.724436
_symmetry_space_group_name_H-M "P 41 2 2"
_symmetry_group_IT_number 91
_symmetry_cell_setting 'tetragonal'
loop_
_space_group_symop_operation_xyz
x,y,z
-y,x,1/4+z
-x,-y,1/2+z
y,-x,3/4+z
x,-y,1/2-z
-x,y,-z
y,x,3/4-z
-y,-x,1/4-z
loop_
_atom_site_type_symbol
_atom_site_label
_atom_site_fract_x
_atom_site_fract_y
_atom_site_fract_z
Si Si1 0.640607 0.316865 0.265976
Si Si2 0.163280 0.364537 0.413720
Si Si3 0.944499 0.460529 0.312279
Si Si4 0.125048 0.000000 0.250000
Si Si5 0.190721 0.132437 0.935212
O O1 0.599043 0.500000 0.250000
O O2 0.505591 0.231968 0.299711
O O3 0.800903 0.345130 0.300598
O O4 0.701129 0.197277 0.217224
O O5 0.301339 0.301339 0.375000
O O6 0.041931 0.407590 0.365012
O O7 0.086760 0.234940 0.454588
O O8 0.019328 0.500000 0.250000
O O9 0.880949 0.628036 0.328434
O O10 0.006955 0.125604 0.223144
O O11 0.111935 0.111935 0.875000
#
# Coordination Sequence:
#
# PCOD9548449 Si02
#       5
#     8   8   8   4   8
#     4   9  23  45  68 100 134 176 236 278 350 415
#     4  12  26  43  70 103 141 182 228 294 346 414
#     4   9  22  44  66  97 135 175 223 279 349 411
#     4  12  28  40  66 106 146 180 236 276 360 420
#     4  10  23  42  69  94 137 185 224 285 341 419
#
# _framework density 20.562913999999999
#
# number of rings (size 3 to 8) (size 9 to 14) (size 15 to 20)
#    0.000    2.222    0.000    3.333    9.333    6.222 
#    0.000    0.000    0.000    0.000    0.000    0.000 
#    0.000    0.000    0.000    0.000    0.000    0.000 
#
# Total GULP energy -200429.747045 kJ/mol
# GULP energy per Si atom -5567.492973 kJ/mol
# Density = 2.051611 g / cm^3
# Si number density = 20.562914 Si / 1000 Ang^3
#
#
#
# Elastic Constant Matrix: (Units=GPa)
#
#
# Indices 1 2 3 4 5 6 
#
# 1 66.1866 55.4008 65.3878 0.0000 0.0000 0.0000
# 2 55.4008 66.1866 65.3878 0.0000 0.0000 0.0000
# 3 65.3878 65.3878 142.6173 0.0000 0.0000 0.0000
# 4 0.0000 0.0000 0.0000 -150.4678 0.0000 0.0000
# 5 0.0000 0.0000 0.0000 0.0000 -150.4678 0.0000
# 6 0.0000 0.0000 0.0000 0.0000 0.0000 82.0786
#
#
#
# Elastic Compliance Matrix: (Units=1/GPa)
#
#
# Indices 1 2 3 4 5 6 
#
# 1 0.054470 -0.038244 -0.007439 0.000000 0.000000 0.000000
# 2 -0.038244 0.054470 -0.007439 0.000000 0.000000 0.000000
# 3 -0.007439 -0.007439 0.013834 0.000000 0.000000 0.000000
# 4 0.000000 0.000000 0.000000 -0.006646 0.000000 0.000000
# 5 0.000000 0.000000 0.000000 0.000000 -0.006646 0.000000
# 6 0.000000 0.000000 0.000000 0.000000 0.000000 0.012183
#
#
# Mechanical properties :
#
#
# Convention : Reuss Voigt Hill
#
# Bulk Modulus (GPa) = 60.50314 71.92703 66.21508
# Shear Modulus (GPa) = 21.42054 -37.85048 -8.21497
#
# Velocity S-wave (km/s) = 3.23105 -4.29501 -2.00093
# Velocity P-wave (km/s) = 6.58839 3.23400 5.18969
#
# Compressibility (1/GPa) = 0.01652807
#
# Stress axis : x y z
#
# Youngs Moduli (GPa) = 18.35865 18.35865 72.28826
#
# Poissons Ratio (x) = 0.70211 0.53778
# Poissons Ratio (y) = 0.70211 0.53778
# Poissons Ratio (z) = 0.13658 0.13658
#
# Static dielectric constant tensor:
#      x y z
#    x 1.998780 0.000000 0.000000 
#    y 0.000000 1.998780 0.000000 
#    z 0.000000 0.000000 1.829360 
# 
# From -- ./inp_files/12282.got.cif
#   From: 2010.05.17/outbox.cif.g08.bks.cpg/sg91_7_cif.got.tgz:12282.got - 2010.06.03 19:20:03.
