data_PCOD9548115
_publ_section_title
;
Structure prediction by ZEFSAII (Michael W. Deem and Ramdas Pophale) SiO2 
 PCOD9548115
Probable space group: P 41 2 2
;
_chemical_formula_sum "Si O2"
_cell_formula_units_Z 56
_cell_length_a 14.582547
_cell_length_b 14.582547
_cell_length_c 13.635942
_cell_angle_alpha 90.000000
_cell_angle_beta 90.000000
_cell_angle_gamma 90.000000
_cell_volume 2899.692298
_symmetry_space_group_name_H-M "P 41 2 2"
_symmetry_group_IT_number 91
_symmetry_cell_setting 'tetragonal'
loop_
_space_group_symop_operation_xyz
x,y,z
-y,x,1/4+z
-x,-y,1/2+z
y,-x,3/4+z
x,-y,1/2-z
-x,y,-z
y,x,3/4-z
-y,-x,1/4-z
loop_
_atom_site_type_symbol
_atom_site_label
_atom_site_fract_x
_atom_site_fract_y
_atom_site_fract_z
Si Si1 0.553493 0.870483 0.592396
Si Si2 0.733698 0.099679 0.788789
Si Si3 0.645683 0.520403 0.935950
Si Si4 0.898932 0.569375 0.531773
Si Si5 0.838088 0.397524 0.635397
Si Si6 0.283598 0.182648 0.578223
Si Si7 0.676966 0.383588 0.365270
O O1 0.500000 0.912672 0.500000
O O2 0.650410 0.913567 0.630895
O O3 0.484259 0.860225 0.685564
O O4 0.583383 0.767672 0.562083
O O5 0.677483 0.144810 0.698695
O O6 0.814349 0.171752 0.820205
O O7 0.765405 0.000000 0.750000
O O8 0.562213 0.562213 0.875000
O O9 0.736181 0.558506 0.878715
O O10 0.638533 0.412291 0.944511
O O11 0.649130 0.551947 0.046540
O O12 0.899732 0.487055 0.612505
O O13 0.853502 0.660545 0.576800
O O14 0.000000 0.594970 0.500000
O O15 0.852994 0.342021 0.735404
O O16 0.299064 0.290522 0.579560
#
# Coordination Sequence:
#
# PCOD9548115 Si02
#       7
#     8   8   8   8   8   8   8
#     4  10  21  38  55  73 118 171 217 253 301 353
#     4  10  21  38  59  88 121 153 203 267 315 372
#     4  12  20  31  51  79 114 158 215 246 299 346
#     4  11  23  37  58  90 122 157 206 259 310 383
#     4  11  18  34  61  87 120 156 201 257 316 374
#     4  11  20  36  61  89 117 158 195 255 327 384
#     4  11  21  34  49  75 114 161 209 253 287 350
#
# _framework density 19.312394000000001
#
# number of rings (size 3 to 8) (size 9 to 14) (size 15 to 20)
#    0.000    1.143    7.143    3.000    0.000    3.429 
#    0.000    5.714    0.000    0.000    0.000    5.000 
#    0.000    0.000    0.000    0.000    0.000    0.000 
#
# Total GULP energy -311913.734144 kJ/mol
# GULP energy per Si atom -5569.888110 kJ/mol
# Density = 1.926844 g / cm^3
# Si number density = 19.312394 Si / 1000 Ang^3
#
#
#
# Elastic Constant Matrix: (Units=GPa)
#
#
# Indices 1 2 3 4 5 6 
#
# 1 90.9808 11.7372 23.7795 0.0000 0.0000 0.0000
# 2 11.7372 90.9808 23.7795 0.0000 0.0000 0.0000
# 3 23.7795 23.7795 60.1752 0.0000 0.0000 0.0000
# 4 0.0000 0.0000 0.0000 17.7251 0.0000 0.0000
# 5 0.0000 0.0000 0.0000 0.0000 17.7251 0.0000
# 6 0.0000 0.0000 0.0000 0.0000 0.0000 15.1948
#
#
#
# Elastic Compliance Matrix: (Units=1/GPa)
#
#
# Indices 1 2 3 4 5 6 
#
# 1 0.012267 -0.000352 -0.004709 0.000000 0.000000 0.000000
# 2 -0.000352 0.012267 -0.004709 0.000000 0.000000 0.000000
# 3 -0.004709 -0.004709 0.020340 0.000000 0.000000 0.000000
# 4 0.000000 0.000000 0.000000 0.056417 0.000000 0.000000
# 5 0.000000 0.000000 0.000000 0.000000 0.056417 0.000000
# 6 0.000000 0.000000 0.000000 0.000000 0.000000 0.065812
#
#
# Mechanical properties :
#
#
# Convention : Reuss Voigt Hill
#
# Bulk Modulus (GPa) = 39.46959 40.08105 39.77532
# Shear Modulus (GPa) = 19.88037 22.31839 21.09938
#
# Velocity S-wave (km/s) = 3.21192 3.40318 3.30893
# Velocity P-wave (km/s) = 5.85125 6.02007 5.93626
#
# Compressibility (1/GPa) = 0.02533596
#
# Stress axis : x y z
#
# Youngs Moduli (GPa) = 81.51672 81.51672 49.16512
#
# Poissons Ratio (x) = 0.02868 0.23150
# Poissons Ratio (y) = 0.02868 0.23150
# Poissons Ratio (z) = 0.38384 0.38384
#
# Static dielectric constant tensor:
#      x y z
#    x 1.777180 0.000000 0.000000 
#    y 0.000000 1.777180 0.000000 
#    z 0.000000 0.000000 1.243580 
# 
# From -- ./inp_files/11543.got.cif
#   From: 2010.05.17/outbox.cif.g08.bks.cpg/sg91_6_cif.got.tgz:11543.got - 2010.06.03 19:20:03.
