data_PCOD9548917
_publ_section_title
;
Structure prediction by ZEFSAII (Michael W. Deem and Ramdas Pophale) SiO2 
 PCOD9548917
Probable space group: P 41 21 2
;
_chemical_formula_sum "Si O2"
_cell_formula_units_Z 40
_cell_length_a 16.449066
_cell_length_b 16.449066
_cell_length_c 6.780638
_cell_angle_alpha 90.000000
_cell_angle_beta 90.000000
_cell_angle_gamma 90.000000
_cell_volume 1834.649241
_symmetry_space_group_name_H-M "P 41 21 2"
_symmetry_group_IT_number 92
_symmetry_cell_setting 'tetragonal'
loop_
_space_group_symop_operation_xyz
x,y,z
1/2-y,1/2+x,1/4+z
-x,-y,1/2+z
1/2+y,1/2-x,3/4+z
1/2+x,1/2-y,3/4-z
1/2-x,1/2+y,1/4-z
y,x,-z
-y,-x,1/2-z
loop_
_atom_site_type_symbol
_atom_site_label
_atom_site_fract_x
_atom_site_fract_y
_atom_site_fract_z
Si Si1 0.086920 0.424754 0.549404
Si Si2 0.265168 0.376168 0.385498
Si Si3 0.782725 0.217276 0.750000
Si Si4 0.143212 0.143212 0.500000
Si Si5 0.855586 0.963740 0.389691
Si Si6 0.891464 0.723318 0.300682
O O1 0.086448 0.515467 0.639467
O O2 0.175188 0.402954 0.454053
O O3 0.071421 0.362427 0.733310
O O4 0.296857 0.296857 0.500000
O O5 0.328874 0.447665 0.421995
O O6 0.277339 0.354651 0.156442
O O7 0.788280 0.302350 0.638173
O O8 0.137974 0.085593 0.687949
O O9 0.121481 0.229115 0.596336
O O10 0.939465 0.939465 0.500000
O O11 0.782083 0.935157 0.538711
#
# Coordination Sequence:
#
# PCOD9548917 Si02
#       6
#     8   8   4   4   8   8
#     4  12  30  48  76 113 164 206 260 329 392 473
#     4  12  28  50  74 111 151 202 256 321 389 477
#     4  12  24  42  76 101 147 198 258 306 374 466
#     4  10  18  42  74 105 143 194 246 304 380 460
#     4  10  24  43  76 107 144 191 255 313 389 458
#     4  11  22  42  70 106 141 199 247 311 372 460
#
# _framework density 21.802534000000001
#
# number of rings (size 3 to 8) (size 9 to 14) (size 15 to 20)
#    0.000    0.800    5.000    2.400    8.400    3.200 
#    3.600    0.000    0.000    0.000    0.000    0.000 
#    0.000    0.000    0.000    0.000    0.000    0.000 
#
# Total GULP energy -223266.230884 kJ/mol
# GULP energy per Si atom -5581.655772 kJ/mol
# Density = 2.175291 g / cm^3
# Si number density = 21.802534 Si / 1000 Ang^3
#
#
#
# Elastic Constant Matrix: (Units=GPa)
#
#
# Indices 1 2 3 4 5 6 
#
# 1 49.3561 112.5983 39.2863 0.0000 0.0000 0.0000
# 2 112.5983 49.3548 39.2888 0.0000 0.0000 0.0000
# 3 39.2863 39.2888 103.3913 0.0000 0.0000 0.0000
# 4 0.0000 0.0000 0.0000 34.0952 0.0000 0.0000
# 5 0.0000 0.0000 0.0000 0.0000 34.0946 0.0000
# 6 0.0000 0.0000 0.0000 0.0000 0.0000 25.8508
#
#
#
# Elastic Compliance Matrix: (Units=1/GPa)
#
#
# Indices 1 2 3 4 5 6 
#
# 1 -0.004121 0.011691 -0.002877 0.000000 0.000000 0.000000
# 2 0.011691 -0.004121 -0.002876 0.000000 0.000000 0.000000
# 3 -0.002877 -0.002876 0.011858 0.000000 0.000000 0.000000
# 4 0.000000 0.000000 0.000000 0.029330 0.000000 0.000000
# 5 0.000000 0.000000 0.000000 0.000000 0.029330 0.000000
# 6 0.000000 0.000000 0.000000 0.000000 0.000000 0.038684
#
#
# Mechanical properties :
#
#
# Convention : Reuss Voigt Hill
#
# Bulk Modulus (GPa) = 64.54861 64.93881 64.74371
# Shear Modulus (GPa) = 53.05155 19.53669 36.29412
#
# Velocity S-wave (km/s) = 4.93817 2.99670 4.08447
# Velocity P-wave (km/s) = 7.88571 6.46709 7.21137
#
# Compressibility (1/GPa) = 0.01549220
#
# Stress axis : x y z
#
# Youngs Moduli (GPa) = -242.67694 -242.65373 84.33014
#
# Poissons Ratio (x) = 2.83690 0.24261
# Poissons Ratio (y) = 2.83717 0.24256
# Poissons Ratio (z) = -0.69815 -0.69796
#
# Static dielectric constant tensor:
#      x y z
#    x 1.841460 0.000000 0.000000 
#    y 0.000000 1.841450 0.000000 
#    z 0.000000 0.000000 1.863120 
# 
# From -- ./inp_files/446.got.cif
#   From: 2010.05.17/outbox.cif.g08.bks.cpg/sg92_1_cif.got.tgz:446.got - 2010.06.03 19:35:17.
