data_PCOD9548683
_publ_section_title
;
Structure prediction by ZEFSAII (Michael W. Deem and Ramdas Pophale) SiO2 
 PCOD9548683
Probable space group: P 41 2 2
;
_chemical_formula_sum "Si O2"
_cell_formula_units_Z 40
_cell_length_a 18.747684
_cell_length_b 18.747684
_cell_length_c 5.362348
_cell_angle_alpha 90.000000
_cell_angle_beta 90.000000
_cell_angle_gamma 90.000000
_cell_volume 1884.734778
_symmetry_space_group_name_H-M "P 41 2 2"
_symmetry_group_IT_number 91
_symmetry_cell_setting 'tetragonal'
loop_
_space_group_symop_operation_xyz
x,y,z
-y,x,1/4+z
-x,-y,1/2+z
y,-x,3/4+z
x,-y,1/2-z
-x,y,-z
y,x,3/4-z
-y,-x,1/4-z
loop_
_atom_site_type_symbol
_atom_site_label
_atom_site_fract_x
_atom_site_fract_y
_atom_site_fract_z
Si Si1 0.426614 0.847746 0.349383
Si Si2 0.626514 0.000000 0.750000
Si Si3 0.721340 0.000000 0.250000
Si Si4 0.219687 0.668425 0.526976
Si Si5 0.696244 0.577414 0.799741
Si Si6 0.207901 0.855175 0.883932
O O1 0.500000 0.853609 0.500000
O O2 0.359224 0.838438 0.532932
O O3 0.427848 0.769925 0.211971
O O4 0.416178 0.924493 0.214734
O O5 0.672974 0.991242 0.497968
O O6 0.772698 0.064977 0.320044
O O7 0.276384 0.723617 0.625000
O O8 0.267423 0.601987 0.455247
O O9 0.181346 0.714173 0.312179
O O10 0.663290 0.500000 0.750000
O O11 0.638611 0.638611 0.875000
O O12 0.176580 0.823421 0.625000
O O13 0.160256 0.839745 0.125000
#
# Coordination Sequence:
#
# PCOD9548683 Si02
#       6
#     8   4   4   8   8   8
#     4  12  26  45  67  99 139 190 239 299 368 457
#     4  12  28  45  70 104 147 192 234 292 370 450
#     4  12  24  45  70 102 147 182 232 300 360 426
#     4  11  22  41  68  97 130 178 241 293 362 432
#     4  12  25  43  69  97 135 184 243 312 378 445
#     4  11  24  41  69 103 137 182 235 290 349 421
#
# _framework density 21.223144000000001
#
# number of rings (size 3 to 8) (size 9 to 14) (size 15 to 20)
#    0.000    0.400    6.000    3.000    5.600    1.600 
#    0.000    2.000    0.000    1.200    0.000    0.000 
#    0.000    0.000    0.000    0.000    0.000    0.000 
#
# Total GULP energy -222895.928292 kJ/mol
# GULP energy per Si atom -5572.398207 kJ/mol
# Density = 2.117484 g / cm^3
# Si number density = 21.223144 Si / 1000 Ang^3
#
#
#
# Elastic Constant Matrix: (Units=GPa)
#
#
# Indices 1 2 3 4 5 6 
#
# 1 130.4830 74.6354 43.1499 0.0000 0.0000 0.0000
# 2 74.6354 130.4874 43.1529 0.0000 0.0000 0.0000
# 3 43.1499 43.1529 98.1002 0.0000 0.0000 0.0000
# 4 0.0000 0.0000 0.0000 32.4194 0.0000 0.0000
# 5 0.0000 0.0000 0.0000 0.0000 32.4217 0.0000
# 6 0.0000 0.0000 0.0000 0.0000 0.0000 23.4039
#
#
#
# Elastic Compliance Matrix: (Units=1/GPa)
#
#
# Indices 1 2 3 4 5 6 
#
# 1 0.011944 -0.005961 -0.002631 0.000000 0.000000 0.000000
# 2 -0.005961 0.011944 -0.002632 0.000000 0.000000 0.000000
# 3 -0.002631 -0.002632 0.012509 0.000000 0.000000 0.000000
# 4 0.000000 0.000000 0.000000 0.030846 0.000000 0.000000
# 5 0.000000 0.000000 0.000000 0.000000 0.030844 0.000000
# 6 0.000000 0.000000 0.000000 0.000000 0.000000 0.042728
#
#
# Mechanical properties :
#
#
# Convention : Reuss Voigt Hill
#
# Bulk Modulus (GPa) = 71.69734 75.66079 73.67906
# Shear Modulus (GPa) = 29.77765 30.85782 30.31774
#
# Velocity S-wave (km/s) = 3.74983 3.81723 3.78368
# Velocity P-wave (km/s) = 7.25288 7.42670 7.34030
#
# Compressibility (1/GPa) = 0.01394752
#
# Stress axis : x y z
#
# Youngs Moduli (GPa) = 83.72509 83.72642 79.94454
#
# Poissons Ratio (x) = 0.49913 0.21035
# Poissons Ratio (y) = 0.49912 0.21039
# Poissons Ratio (z) = 0.22030 0.22034
#
# Static dielectric constant tensor:
#      x y z
#    x 1.839390 0.000000 0.000000 
#    y 0.000000 1.839380 0.000000 
#    z 0.000000 0.000000 2.201360 
# 
# From -- ./inp_files/14040.got.cif
#   From: 2010.05.17/outbox.cif.g08.bks.cpg/sg91_8_cif.got.tgz:14040.got - 2010.06.03 19:20:03.
