data_PCOD9548575
_publ_section_title
;
Structure prediction by ZEFSAII (Michael W. Deem and Ramdas Pophale) SiO2 
 PCOD9548575
Probable space group: P 41 2 2
;
_chemical_formula_sum "Si O2"
_cell_formula_units_Z 40
_cell_length_a 12.390107
_cell_length_b 12.390107
_cell_length_c 13.048102
_cell_angle_alpha 90.000000
_cell_angle_beta 90.000000
_cell_angle_gamma 90.000000
_cell_volume 2003.076136
_symmetry_space_group_name_H-M "P 41 2 2"
_symmetry_group_IT_number 91
_symmetry_cell_setting 'tetragonal'
loop_
_space_group_symop_operation_xyz
x,y,z
-y,x,1/4+z
-x,-y,1/2+z
y,-x,3/4+z
x,-y,1/2-z
-x,y,-z
y,x,3/4-z
-y,-x,1/4-z
loop_
_atom_site_type_symbol
_atom_site_label
_atom_site_fract_x
_atom_site_fract_y
_atom_site_fract_z
Si Si1 0.617021 0.984312 0.035331
Si Si2 0.368916 0.245183 0.645428
Si Si3 0.078576 0.746718 0.091297
Si Si4 0.605647 0.721897 0.780439
Si Si5 0.105903 0.756148 0.553789
O O1 0.699333 0.982695 0.940092
O O2 0.500000 0.020670 0.000000
O O3 0.608436 0.859730 0.073646
O O4 0.658636 0.058617 0.127457
O O5 0.477232 0.276332 0.706416
O O6 0.325269 0.341208 0.573236
O O7 0.283136 0.197298 0.725439
O O8 0.156152 0.843849 0.125000
O O9 0.158045 0.652770 0.048762
O O10 0.000000 0.778919 0.000000
O O11 0.651936 0.651936 0.875000
O O12 0.155435 0.844566 0.625000
O O13 0.000000 0.800904 0.500000
#
# Coordination Sequence:
#
# PCOD9548575 Si02
#       5
#     8   8   8   8   8
#     4  11  21  39  68  99 125 169 228 270 328 396
#     4  11  22  41  67  99 131 172 215 274 335 393
#     4  11  24  38  66  97 132 172 225 279 325 398
#     4  11  21  40  67  96 133 169 218 271 326 401
#     4  10  26  44  65  89 131 171 213 277 328 388
#
# _framework density 19.969286
#
# number of rings (size 3 to 8) (size 9 to 14) (size 15 to 20)
#    0.000    1.200    6.000    0.600    5.600    0.000 
#    0.000    6.000    0.000    0.000    0.000    0.000 
#    0.000    0.000    0.000    0.000    0.000    0.000 
#
# Total GULP energy -223564.443359 kJ/mol
# GULP energy per Si atom -5589.111084 kJ/mol
# Density = 1.992383 g / cm^3
# Si number density = 19.969286 Si / 1000 Ang^3
#
#
#
# Elastic Constant Matrix: (Units=GPa)
#
#
# Indices 1 2 3 4 5 6 
#
# 1 30.2508 62.7099 54.4136 0.0000 0.0000 0.0000
# 2 62.7099 30.2623 54.4181 0.0000 0.0000 0.0000
# 3 54.4136 54.4181 128.7052 0.0000 0.0000 0.0000
# 4 0.0000 0.0000 0.0000 32.3021 0.0000 0.0000
# 5 0.0000 0.0000 0.0000 0.0000 32.3075 0.0000
# 6 0.0000 0.0000 0.0000 0.0000 0.0000 -9.7868
#
#
#
# Elastic Compliance Matrix: (Units=1/GPa)
#
#
# Indices 1 2 3 4 5 6 
#
# 1 -0.004760 0.026056 -0.009004 0.000000 0.000000 0.000000
# 2 0.026056 -0.004755 -0.009005 0.000000 0.000000 0.000000
# 3 -0.009004 -0.009005 0.015384 0.000000 0.000000 0.000000
# 4 0.000000 0.000000 0.000000 0.030958 0.000000 0.000000
# 5 0.000000 0.000000 0.000000 0.000000 0.030953 0.000000
# 6 0.000000 0.000000 0.000000 0.000000 0.000000 -0.102178
#
#
# Mechanical properties :
#
#
# Convention : Reuss Voigt Hill
#
# Bulk Modulus (GPa) = 45.53494 59.14460 52.33977
# Shear Modulus (GPa) = -115.81585 12.14301 -51.83642
#
# Velocity S-wave (km/s) = -7.62384 2.46861 -5.10043
# Velocity P-wave (km/s) = 7.39224 6.14878 2.90153
#
# Compressibility (1/GPa) = 0.02196116
#
# Stress axis : x y z
#
# Youngs Moduli (GPa) = -210.06953 -210.29405 65.00312
#
# Poissons Ratio (x) = 5.47935 0.58529
# Poissons Ratio (y) = 5.47349 0.58536
# Poissons Ratio (z) = -1.89148 -1.89373
#
# Static dielectric constant tensor:
#      x y z
#    x 1.691340 0.000000 0.000000 
#    y 0.000000 1.691340 0.000000 
#    z 0.000000 0.000000 1.733810 
# 
# From -- ./inp_files/4699.got.cif
#   From: 2010.05.17/outbox.cif.g08.bks.cpg/sg91_3_cif.got.tgz:4699.got - 2010.06.03 19:20:03.
