data_PCOD9548034
_publ_section_title
;
Structure prediction by ZEFSAII (Michael W. Deem and Ramdas Pophale) SiO2 
 PCOD9548034
Probable space group: P 41 2 2
;
_chemical_formula_sum "Si O2"
_cell_formula_units_Z 32
_cell_length_a 8.779490
_cell_length_b 8.779490
_cell_length_c 19.960973
_cell_angle_alpha 90.000000
_cell_angle_beta 90.000000
_cell_angle_gamma 90.000000
_cell_volume 1538.580714
_symmetry_space_group_name_H-M "P 41 2 2"
_symmetry_group_IT_number 91
_symmetry_cell_setting 'tetragonal'
loop_
_space_group_symop_operation_xyz
x,y,z
-y,x,1/4+z
-x,-y,1/2+z
y,-x,3/4+z
x,-y,1/2-z
-x,y,-z
y,x,3/4-z
-y,-x,1/4-z
loop_
_atom_site_type_symbol
_atom_site_label
_atom_site_fract_x
_atom_site_fract_y
_atom_site_fract_z
Si Si1 0.872111 0.712259 0.815560
Si Si2 0.738725 0.500000 0.250000
Si Si3 0.514085 0.514085 0.375000
Si Si4 0.156244 0.178277 0.041275
Si Si5 0.812582 0.388448 0.830388
O O1 0.759926 0.759926 0.875000
O O2 0.922452 0.536214 0.828237
O O3 0.813171 0.703516 0.739082
O O4 0.006129 0.833748 0.816216
O O5 0.640367 0.518087 0.317583
O O6 0.806797 0.325645 0.256559
O O7 0.353713 0.538134 0.338377
O O8 0.153597 0.288450 0.105205
O O9 0.000000 0.203513 0.000000
#
# Coordination Sequence:
#
# PCOD9548034 Si02
#       5
#     8   4   4   8   8
#     4  11  24  43  68  97 138 182 231 296 366 441
#     4  10  22  42  68 102 134 186 236 296 358 434
#     4  10  20  40  72 100 134 180 232 300 364 424
#     4  11  27  44  68 104 144 191 239 304 372 440
#     4  10  23  44  70 101 139 181 243 300 364 452
#
# _framework density 20.798390000000001
#
# number of rings (size 3 to 8) (size 9 to 14) (size 15 to 20)
#    0.000    1.500    1.250    3.000    7.000    6.000 
#    0.000    0.000    0.000    0.000    0.000    0.000 
#    0.000    0.000    0.000    0.000    0.000    0.000 
#
# Total GULP energy -178273.755623 kJ/mol
# GULP energy per Si atom -5571.054863 kJ/mol
# Density = 2.075105 g / cm^3
# Si number density = 20.798390 Si / 1000 Ang^3
#
#
#
# Elastic Constant Matrix: (Units=GPa)
#
#
# Indices 1 2 3 4 5 6 
#
# 1 90.5099 60.1943 65.3195 0.0000 0.0000 0.0000
# 2 60.1943 90.5099 65.3195 0.0000 0.0000 0.0000
# 3 65.3195 65.3195 123.8047 0.0000 0.0000 0.0000
# 4 0.0000 0.0000 0.0000 27.9889 0.0000 0.0000
# 5 0.0000 0.0000 0.0000 0.0000 27.9889 0.0000
# 6 0.0000 0.0000 0.0000 0.0000 0.0000 36.8677
#
#
#
# Elastic Compliance Matrix: (Units=1/GPa)
#
#
# Indices 1 2 3 4 5 6 
#
# 1 0.022607 -0.010379 -0.006452 0.000000 0.000000 0.000000
# 2 -0.010379 0.022607 -0.006452 0.000000 0.000000 0.000000
# 3 -0.006452 -0.006452 0.014885 0.000000 0.000000 0.000000
# 4 0.000000 0.000000 0.000000 0.035728 0.000000 0.000000
# 5 0.000000 0.000000 0.000000 0.000000 0.035728 0.000000
# 6 0.000000 0.000000 0.000000 0.000000 0.000000 0.027124
#
#
# Mechanical properties :
#
#
# Convention : Reuss Voigt Hill
#
# Bulk Modulus (GPa) = 73.88308 76.27679 75.07994
# Shear Modulus (GPa) = 23.83717 26.16850 25.00284
#
# Velocity S-wave (km/s) = 3.38909 3.55096 3.47097
# Velocity P-wave (km/s) = 7.13549 7.31891 7.22778
#
# Compressibility (1/GPa) = 0.01353490
#
# Stress axis : x y z
#
# Youngs Moduli (GPa) = 44.23369 44.23369 67.18195
#
# Poissons Ratio (x) = 0.45911 0.43343
# Poissons Ratio (y) = 0.45911 0.43343
# Poissons Ratio (z) = 0.28538 0.28538
#
# Static dielectric constant tensor:
#      x y z
#    x 1.792880 0.000000 0.000000 
#    y 0.000000 1.792880 0.000000 
#    z 0.000000 0.000000 1.706960 
# 
# From -- ./inp_files/6068.got.cif
#   From: 2010.05.17/outbox.cif.g08.bks.cpg/sg91_4_cif.got.tgz:6068.got - 2010.06.03 19:20:03.
