data_PCOD9548068
_publ_section_title
;
Structure prediction by ZEFSAII (Michael W. Deem and Ramdas Pophale) SiO2 
 PCOD9548068
Probable space group: P 41 2 2
;
_chemical_formula_sum "Si O2"
_cell_formula_units_Z 56
_cell_length_a 15.544172
_cell_length_b 15.544172
_cell_length_c 11.900318
_cell_angle_alpha 90.000000
_cell_angle_beta 90.000000
_cell_angle_gamma 90.000000
_cell_volume 2875.370105
_symmetry_space_group_name_H-M "P 41 2 2"
_symmetry_group_IT_number 91
_symmetry_cell_setting 'tetragonal'
loop_
_space_group_symop_operation_xyz
x,y,z
-y,x,1/4+z
-x,-y,1/2+z
y,-x,3/4+z
x,-y,1/2-z
-x,y,-z
y,x,3/4-z
-y,-x,1/4-z
loop_
_atom_site_type_symbol
_atom_site_label
_atom_site_fract_x
_atom_site_fract_y
_atom_site_fract_z
Si Si1 0.131807 0.098566 0.222268
Si Si2 0.097119 0.596110 0.509277
Si Si3 0.089589 0.397722 0.451729
Si Si4 0.944257 0.138076 0.232071
Si Si5 0.168426 0.290764 0.801332
Si Si6 0.229713 0.281439 0.545574
Si Si7 0.182401 0.600140 0.269866
O O1 0.204275 0.167442 0.246056
O O2 0.040218 0.121490 0.271987
O O3 0.155024 0.000000 0.250000
O O4 0.113392 0.111815 0.089402
O O5 0.089371 0.493492 0.501323
O O6 0.144344 0.627831 0.622082
O O7 0.148676 0.617829 0.395854
O O8 0.000000 0.632073 0.500000
O O9 0.181523 0.360999 0.490029
O O10 0.101587 0.392019 0.317074
O O11 0.000000 0.357854 0.500000
O O12 0.917691 0.082310 0.125000
O O13 0.920126 0.236917 0.212405
O O14 0.229865 0.229865 0.875000
O O15 0.213098 0.297185 0.679331
O O16 0.325858 0.255363 0.509133
O O17 0.210838 0.500000 0.250000
#
# Coordination Sequence:
#
# PCOD9548068 Si02
#       7
#     8   8   8   8   8   8   8
#     4  11  22  34  49  75 111 158 201 244 292 348
#     4  10  22  38  62  88 123 162 202 257 316 376
#     4  10  23  40  59  90 124 161 204 254 319 385
#     4  10  21  33  50  72 107 152 199 240 283 342
#     4  10  21  36  56  87 117 154 202 252 307 362
#     4  11  23  37  60  85 118 158 206 261 314 380
#     4  10  22  41  61  86 119 160 210 263 322 378
#
# _framework density 19.475753999999998
#
# number of rings (size 3 to 8) (size 9 to 14) (size 15 to 20)
#    0.000    1.714    1.429    2.571    4.000    4.000 
#    0.000    0.000    0.000    0.000    0.000    4.000 
#    0.000    0.000    0.000    0.000    0.000    0.000 
#
# Total GULP energy -312013.216921 kJ/mol
# GULP energy per Si atom -5571.664588 kJ/mol
# Density = 1.943143 g / cm^3
# Si number density = 19.475754 Si / 1000 Ang^3
#
#
#
# Elastic Constant Matrix: (Units=GPa)
#
#
# Indices 1 2 3 4 5 6 
#
# 1 56.7935 42.7961 28.7236 0.0000 0.0000 0.0000
# 2 42.7961 56.7925 28.7241 0.0000 0.0000 0.0000
# 3 28.7236 28.7241 105.8421 0.0000 0.0000 0.0000
# 4 0.0000 0.0000 0.0000 24.3309 0.0000 0.0000
# 5 0.0000 0.0000 0.0000 0.0000 24.3309 0.0000
# 6 0.0000 0.0000 0.0000 0.0000 0.0000 23.3950
#
#
#
# Elastic Compliance Matrix: (Units=1/GPa)
#
#
# Indices 1 2 3 4 5 6 
#
# 1 0.041674 -0.029770 -0.003230 0.000000 0.000000 0.000000
# 2 -0.029770 0.041675 -0.003231 0.000000 0.000000 0.000000
# 3 -0.003230 -0.003231 0.011202 0.000000 0.000000 0.000000
# 4 0.000000 0.000000 0.000000 0.041100 0.000000 0.000000
# 5 0.000000 0.000000 0.000000 0.000000 0.041100 0.000000
# 6 0.000000 0.000000 0.000000 0.000000 0.000000 0.042744
#
#
# Mechanical properties :
#
#
# Convention : Reuss Voigt Hill
#
# Bulk Modulus (GPa) = 45.27291 46.65729 45.96510
# Shear Modulus (GPa) = 16.70448 22.35696 19.53072
#
# Velocity S-wave (km/s) = 2.93184 3.39180 3.17017
# Velocity P-wave (km/s) = 5.89552 6.27277 6.08707
#
# Compressibility (1/GPa) = 0.02208827
#
# Stress axis : x y z
#
# Youngs Moduli (GPa) = 23.99567 23.99504 89.27280
#
# Poissons Ratio (x) = 0.71433 0.28839
# Poissons Ratio (y) = 0.71435 0.28845
# Poissons Ratio (z) = 0.07752 0.07753
#
# Static dielectric constant tensor:
#      x y z
#    x 1.723480 0.000000 0.000000 
#    y 0.000000 1.723480 0.000000 
#    z 0.000000 0.000000 1.778700 
# 
# From -- ./inp_files/3926.got.cif
#   From: 2010.05.17/outbox.cif.g08.bks.cpg/sg91_2_cif.got.tgz:3926.got - 2010.06.03 19:20:03.
