data_PCOD9548488
_publ_section_title
;
Structure prediction by ZEFSAII (Michael W. Deem and Ramdas Pophale) SiO2 
 PCOD9548488
Probable space group: P 41 2 2
;
_chemical_formula_sum "Si O2"
_cell_formula_units_Z 32
_cell_length_a 18.979126
_cell_length_b 18.979126
_cell_length_c 5.070016
_cell_angle_alpha 90.000000
_cell_angle_beta 90.000000
_cell_angle_gamma 90.000000
_cell_volume 1826.256388
_symmetry_space_group_name_H-M "P 41 2 2"
_symmetry_group_IT_number 91
_symmetry_cell_setting 'tetragonal'
loop_
_space_group_symop_operation_xyz
x,y,z
-y,x,1/4+z
-x,-y,1/2+z
y,-x,3/4+z
x,-y,1/2-z
-x,y,-z
y,x,3/4-z
-y,-x,1/4-z
loop_
_atom_site_type_symbol
_atom_site_label
_atom_site_fract_x
_atom_site_fract_y
_atom_site_fract_z
Si Si1 0.193078 0.737860 0.860309
Si Si2 0.500000 0.050006 0.500000
Si Si3 0.077738 0.077738 0.375000
Si Si4 0.081353 0.782927 0.466961
Si Si5 0.349063 0.084404 0.339545
O O1 0.250061 0.749940 0.625000
O O2 0.220936 0.874900 0.513538
O O3 0.227898 0.772103 0.125000
O O4 0.151937 0.663831 0.897029
O O5 0.427257 0.090221 0.453126
O O6 0.512110 0.000000 0.250000
O O7 0.142218 0.084890 0.575339
O O8 0.000000 0.083105 0.500000
O O9 0.099956 0.714894 0.289974
O O10 0.000000 0.771077 0.500000
O O11 0.342785 0.000000 0.250000
#
# Coordination Sequence:
#
# PCOD9548488 Si02
#       5
#     8   4   4   8   8
#     4  12  25  38  58  81 108 142 191 237 286 357
#     4  10  24  38  62  90 116 140 180 246 316 382
#     4  12  28  42  54  78 104 144 202 264 312 350
#     4  12  24  38  58  73 101 143 185 242 308 356
#     4  11  22  40  61  85 113 142 190 244 315 370
#
# _framework density 17.522186000000001
#
# number of rings (size 3 to 8) (size 9 to 14) (size 15 to 20)
#    0.000    0.500    5.000    3.750    7.000    0.000 
#    0.000    0.000    0.000    0.000    0.000    0.000 
#    0.000    0.000    0.000    0.000    0.000    0.000 
#
# Total GULP energy -178138.107461 kJ/mol
# GULP energy per Si atom -5566.815858 kJ/mol
# Density = 1.748230 g / cm^3
# Si number density = 17.522186 Si / 1000 Ang^3
#
#
#
# Elastic Constant Matrix: (Units=GPa)
#
#
# Indices 1 2 3 4 5 6 
#
# 1 79.7496 54.5514 30.9825 0.0000 0.0000 0.0000
# 2 54.5514 79.7388 30.9810 0.0000 0.0000 0.0000
# 3 30.9825 30.9810 95.8217 0.0000 0.0000 0.0000
# 4 0.0000 0.0000 0.0000 26.3188 0.0000 0.0000
# 5 0.0000 0.0000 0.0000 0.0000 26.3186 0.0000
# 6 0.0000 0.0000 0.0000 0.0000 0.0000 211.2983
#
#
#
# Elastic Compliance Matrix: (Units=1/GPa)
#
#
# Indices 1 2 3 4 5 6 
#
# 1 0.024221 -0.015471 -0.002829 0.000000 0.000000 0.000000
# 2 -0.015471 0.024225 -0.002830 0.000000 0.000000 0.000000
# 3 -0.002829 -0.002830 0.012266 0.000000 0.000000 0.000000
# 4 0.000000 0.000000 0.000000 0.037996 0.000000 0.000000
# 5 0.000000 0.000000 0.000000 0.000000 0.037996 0.000000
# 6 0.000000 0.000000 0.000000 0.000000 0.000000 0.004733
#
#
# Mechanical properties :
#
#
# Convention : Reuss Voigt Hill
#
# Bulk Modulus (GPa) = 54.19825 54.26000 54.22913
# Shear Modulus (GPa) = 26.33700 62.04015 44.18857
#
# Velocity S-wave (km/s) = 3.88115 5.95680 5.02726
# Velocity P-wave (km/s) = 7.14722 8.85127 8.04449
#
# Compressibility (1/GPa) = 0.01845078
#
# Stress axis : x y z
#
# Youngs Moduli (GPa) = 41.28623 41.28038 81.52677
#
# Poissons Ratio (x) = 0.63865 0.23068
# Poissons Ratio (y) = 0.63874 0.23072
# Poissons Ratio (z) = 0.11682 0.11682
#
# Static dielectric constant tensor:
#      x y z
#    x 1.643000 0.000000 0.000000 
#    y 0.000000 1.643000 0.000000 
#    z 0.000000 0.000000 1.782870 
# 
# From -- ./inp_files/8465.got.cif
#   From: 2010.05.17/outbox.cif.g08.bks.cpg/sg91_5_cif.got.tgz:8465.got - 2010.06.03 19:20:03.
