data_PCOD9548405
_publ_section_title
;
Structure prediction by ZEFSAII (Michael W. Deem and Ramdas Pophale) SiO2 
 PCOD9548405
Probable space group: P 41 2 2
;
_chemical_formula_sum "Si O2"
_cell_formula_units_Z 36
_cell_length_a 9.093415
_cell_length_b 9.093415
_cell_length_c 18.257618
_cell_angle_alpha 90.000000
_cell_angle_beta 90.000000
_cell_angle_gamma 90.000000
_cell_volume 1509.726018
_symmetry_space_group_name_H-M "P 41 2 2"
_symmetry_group_IT_number 91
_symmetry_cell_setting 'tetragonal'
loop_
_space_group_symop_operation_xyz
x,y,z
-y,x,1/4+z
-x,-y,1/2+z
y,-x,3/4+z
x,-y,1/2-z
-x,y,-z
y,x,3/4-z
-y,-x,1/4-z
loop_
_atom_site_type_symbol
_atom_site_label
_atom_site_fract_x
_atom_site_fract_y
_atom_site_fract_z
Si Si1 0.639383 0.740788 0.747656
Si Si2 0.500000 0.388609 0.000000
Si Si3 0.000000 0.003173 0.500000
Si Si4 0.500000 0.883704 0.000000
Si Si5 0.832199 0.167802 0.125000
Si Si6 0.820045 0.179956 0.625000
Si Si7 0.132178 0.486871 0.635117
O O1 0.494689 0.639366 0.741826
O O2 0.776709 0.633979 0.729961
O O3 0.666848 0.801440 0.828564
O O4 0.616874 0.860561 0.685069
O O5 0.468056 0.281315 0.067798
O O6 0.104965 0.909330 0.552745
O O7 0.107238 0.089134 0.443273
O O8 0.452624 0.994609 0.063652
O O9 0.867325 0.340162 0.117513
#
# Coordination Sequence:
#
# PCOD9548405 Si02
#       7
#     8   4   4   4   4   4   8
#     4  11  24  44  76 110 157 203 263 321 406 477
#     4  10  22  44  74 110 156 196 256 334 392 474
#     4  10  26  50  76 108 164 206 276 338 402 484
#     4  10  26  44  72 118 154 194 262 332 398 488
#     4  11  22  51  78 112 148 221 264 337 404 486
#     4  11  26  45  72 110 156 215 256 335 404 486
#     4  11  23  48  78 113 154 207 261 333 403 487
#
# _framework density 23.845385
#
# number of rings (size 3 to 8) (size 9 to 14) (size 15 to 20)
#    0.000    1.333    2.222    1.333    9.333    0.000 
#   16.000    0.000    0.000    0.000    0.000    0.000 
#    0.000    0.000    0.000    0.000    0.000    0.000 
#
# Total GULP energy -201270.297606 kJ/mol
# GULP energy per Si atom -5590.841600 kJ/mol
# Density = 2.379111 g / cm^3
# Si number density = 23.845385 Si / 1000 Ang^3
#
#
#
# Elastic Constant Matrix: (Units=GPa)
#
#
# Indices 1 2 3 4 5 6 
#
# 1 110.1082 37.7692 62.1464 0.0000 0.0000 0.0000
# 2 37.7692 110.1086 62.1464 0.0000 0.0000 0.0000
# 3 62.1464 62.1464 205.4452 0.0000 0.0000 0.0000
# 4 0.0000 0.0000 0.0000 36.9816 0.0000 0.0000
# 5 0.0000 0.0000 0.0000 0.0000 36.9833 0.0000
# 6 0.0000 0.0000 0.0000 0.0000 0.0000 35.2781
#
#
#
# Elastic Compliance Matrix: (Units=1/GPa)
#
#
# Indices 1 2 3 4 5 6 
#
# 1 0.011446 -0.002378 -0.002743 0.000000 0.000000 0.000000
# 2 -0.002378 0.011446 -0.002743 0.000000 0.000000 0.000000
# 3 -0.002743 -0.002743 0.006527 0.000000 0.000000 0.000000
# 4 0.000000 0.000000 0.000000 0.027040 0.000000 0.000000
# 5 0.000000 0.000000 0.000000 0.000000 0.027039 0.000000
# 6 0.000000 0.000000 0.000000 0.000000 0.000000 0.028346
#
#
# Mechanical properties :
#
#
# Convention : Reuss Voigt Hill
#
# Bulk Modulus (GPa) = 73.04215 83.30954 78.17584
# Shear Modulus (GPa) = 37.83981 39.42193 38.63087
#
# Velocity S-wave (km/s) = 3.98789 4.07041 4.02936
# Velocity P-wave (km/s) = 7.20433 7.55673 7.38263
#
# Compressibility (1/GPa) = 0.01369072
#
# Stress axis : x y z
#
# Youngs Moduli (GPa) = 87.36805 87.36844 153.21045
#
# Poissons Ratio (x) = 0.20776 0.42026
# Poissons Ratio (y) = 0.20776 0.42025
# Poissons Ratio (z) = 0.23965 0.23965
#
# Static dielectric constant tensor:
#      x y z
#    x 1.956170 0.000000 0.000000 
#    y 0.000000 1.956160 0.000000 
#    z 0.000000 0.000000 2.056690 
# 
# From -- ./inp_files/6223.got.cif
#   From: 2010.05.17/outbox.cif.g08.bks.cpg/sg91_4_cif.got.tgz:6223.got - 2010.06.03 19:20:03.
