data_PCOD9548494
_publ_section_title
;
Structure prediction by ZEFSAII (Michael W. Deem and Ramdas Pophale) SiO2 
 PCOD9548494
Probable space group: P 41 2 2
;
_chemical_formula_sum "Si O2"
_cell_formula_units_Z 56
_cell_length_a 15.642772
_cell_length_b 15.642772
_cell_length_c 11.320396
_cell_angle_alpha 90.000000
_cell_angle_beta 90.000000
_cell_angle_gamma 90.000000
_cell_volume 2770.059195
_symmetry_space_group_name_H-M "P 41 2 2"
_symmetry_group_IT_number 91
_symmetry_cell_setting 'tetragonal'
loop_
_space_group_symop_operation_xyz
x,y,z
-y,x,1/4+z
-x,-y,1/2+z
y,-x,3/4+z
x,-y,1/2-z
-x,y,-z
y,x,3/4-z
-y,-x,1/4-z
loop_
_atom_site_type_symbol
_atom_site_label
_atom_site_fract_x
_atom_site_fract_y
_atom_site_fract_z
Si Si1 0.590832 0.287340 0.822226
Si Si2 0.647505 0.035287 0.094434
Si Si3 0.861479 0.338243 0.943223
Si Si4 0.323233 0.592227 0.507192
Si Si5 0.041704 0.958297 0.125000
Si Si6 0.228750 0.214779 0.238899
Si Si7 0.767578 0.031621 0.870824
Si Si8 0.844501 0.500000 0.250000
O O1 0.510001 0.323399 0.751836
O O2 0.672036 0.244871 0.758760
O O3 0.550557 0.216456 0.909816
O O4 0.627969 0.363799 0.900295
O O5 0.701199 0.088871 0.193341
O O6 0.612689 0.943629 0.139603
O O7 0.708045 0.021016 0.982932
O O8 0.568676 0.095431 0.062702
O O9 0.826839 0.282521 0.834606
O O10 0.776474 0.381548 0.995138
O O11 0.367245 0.632756 0.625000
O O12 0.017069 0.857969 0.134005
O O13 0.012385 0.000000 0.250000
O O14 0.202938 0.202938 0.375000
O O15 0.217840 0.130575 0.159567
O O16 0.723624 0.000000 0.750000
#
# Coordination Sequence:
#
# PCOD9548494 Si02
#       8
#     8   8   8   8   4   8   8   4
#     4  11  22  41  72 102 135 181 232 289 347 429
#     4  11  23  43  66 104 132 176 235 291 352 410
#     4  10  24  40  66  97 139 171 228 298 337 416
#     4  11  20  40  69 101 139 182 227 287 354 420
#     4  10  26  44  64  94 136 176 226 294 344 412
#     4  11  25  46  69  95 136 189 229 279 362 430
#     4  11  25  43  68  94 130 184 227 283 350 425
#     4  12  20  44  70 102 136 176 238 286 352 416
#
# _framework density 20.216175
#
# number of rings (size 3 to 8) (size 9 to 14) (size 15 to 20)
#    0.000    1.143    4.286    0.857   10.000    1.143 
#    7.714    4.286    0.000    0.000    0.000    0.000 
#    0.000    0.000    0.000    0.000    0.000    0.000 
#
# Total GULP energy -312266.919522 kJ/mol
# GULP energy per Si atom -5576.194991 kJ/mol
# Density = 2.017016 g / cm^3
# Si number density = 20.216175 Si / 1000 Ang^3
#
#
#
# Elastic Constant Matrix: (Units=GPa)
#
#
# Indices 1 2 3 4 5 6 
#
# 1 103.9922 59.9516 28.3042 0.0000 0.0000 0.0000
# 2 59.9516 103.9937 28.3044 0.0000 0.0000 0.0000
# 3 28.3042 28.3044 95.0444 0.0000 0.0000 0.0000
# 4 0.0000 0.0000 0.0000 18.3554 0.0000 0.0000
# 5 0.0000 0.0000 0.0000 0.0000 18.3552 0.0000
# 6 0.0000 0.0000 0.0000 0.0000 0.0000 26.2619
#
#
#
# Elastic Compliance Matrix: (Units=1/GPa)
#
#
# Indices 1 2 3 4 5 6 
#
# 1 0.014752 -0.007954 -0.002025 0.000000 0.000000 0.000000
# 2 -0.007954 0.014752 -0.002025 0.000000 0.000000 0.000000
# 3 -0.002025 -0.002025 0.011727 0.000000 0.000000 0.000000
# 4 0.000000 0.000000 0.000000 0.054480 0.000000 0.000000
# 5 0.000000 0.000000 0.000000 0.000000 0.054481 0.000000
# 6 0.000000 0.000000 0.000000 0.000000 0.000000 0.038078
#
#
# Mechanical properties :
#
#
# Convention : Reuss Voigt Hill
#
# Bulk Modulus (GPa) = 58.05153 59.57230 58.81192
# Shear Modulus (GPa) = 22.93385 25.02583 23.97984
#
# Velocity S-wave (km/s) = 3.37179 3.52221 3.44782
# Velocity P-wave (km/s) = 6.62845 6.78770 6.70855
#
# Compressibility (1/GPa) = 0.01722607
#
# Stress axis : x y z
#
# Youngs Moduli (GPa) = 67.78544 67.78640 85.27116
#
# Poissons Ratio (x) = 0.53915 0.17265
# Poissons Ratio (y) = 0.53914 0.17265
# Poissons Ratio (z) = 0.13724 0.13724
#
# Static dielectric constant tensor:
#      x y z
#    x 1.735050 0.000000 0.000000 
#    y 0.000000 1.735050 0.000000 
#    z 0.000000 0.000000 1.747910 
# 
# From -- ./inp_files/3958.got.cif
#   From: 2010.05.17/outbox.cif.g08.bks.cpg/sg91_2_cif.got.tgz:3958.got - 2010.06.03 19:20:03.
