data_PCOD9548317
_publ_section_title
;
Structure prediction by ZEFSAII (Michael W. Deem and Ramdas Pophale) SiO2 
 PCOD9548317
Probable space group: P 41 2 2
;
_chemical_formula_sum "Si O2"
_cell_formula_units_Z 32
_cell_length_a 8.256386
_cell_length_b 8.256386
_cell_length_c 20.743584
_cell_angle_alpha 90.000000
_cell_angle_beta 90.000000
_cell_angle_gamma 90.000000
_cell_volume 1414.046763
_symmetry_space_group_name_H-M "P 41 2 2"
_symmetry_group_IT_number 91
_symmetry_cell_setting 'tetragonal'
loop_
_space_group_symop_operation_xyz
x,y,z
-y,x,1/4+z
-x,-y,1/2+z
y,-x,3/4+z
x,-y,1/2-z
-x,y,-z
y,x,3/4-z
-y,-x,1/4-z
loop_
_atom_site_type_symbol
_atom_site_label
_atom_site_fract_x
_atom_site_fract_y
_atom_site_fract_z
Si Si1 0.273367 0.106659 0.580175
Si Si2 0.000000 0.744619 0.000000
Si Si3 0.785530 0.461141 0.952919
Si Si4 0.656284 0.500000 0.750000
Si Si5 0.357812 0.266697 0.943900
O O1 0.097721 0.145637 0.550865
O O2 0.328825 0.167570 0.650251
O O3 0.381739 0.225344 0.536825
O O4 0.315078 0.918559 0.572302
O O5 0.898497 0.618055 0.956297
O O6 0.544127 0.607090 0.796986
O O7 0.784167 0.364024 0.019852
O O8 0.361454 0.361454 0.875000
O O9 0.500000 0.254877 0.000000
#
# Coordination Sequence:
#
# PCOD9548317 Si02
#       5
#     8   4   8   4   8
#     4  11  25  46  72 110 158 202 256 327 405 461
#     4  10  26  44  70 114 152 198 264 324 392 488
#     4  11  24  42  76 105 154 205 261 318 393 467
#     4  10  22  40  68 112 144 204 252 328 376 476
#     4  12  28  48  80 114 156 204 269 327 396 476
#
# _framework density 22.630089000000002
#
# number of rings (size 3 to 8) (size 9 to 14) (size 15 to 20)
#    0.000    1.000    2.500    2.250   10.500    3.000 
#    0.000    2.500    0.000    0.000    0.000    0.000 
#    0.000    0.000    0.000    0.000    0.000    0.000 
#
# Total GULP energy -178321.456244 kJ/mol
# GULP energy per Si atom -5572.545508 kJ/mol
# Density = 2.257858 g / cm^3
# Si number density = 22.630089 Si / 1000 Ang^3
#
#
#
# Elastic Constant Matrix: (Units=GPa)
#
#
# Indices 1 2 3 4 5 6 
#
# 1 117.5274 36.2250 46.3712 0.0000 0.0000 0.0000
# 2 36.2250 117.5274 46.3712 0.0000 0.0000 0.0000
# 3 46.3712 46.3712 158.0692 0.0000 0.0000 0.0000
# 4 0.0000 0.0000 0.0000 31.0566 0.0000 0.0000
# 5 0.0000 0.0000 0.0000 0.0000 31.0566 0.0000
# 6 0.0000 0.0000 0.0000 0.0000 0.0000 33.7997
#
#
#
# Elastic Compliance Matrix: (Units=1/GPa)
#
#
# Indices 1 2 3 4 5 6 
#
# 1 0.010101 -0.002199 -0.002318 0.000000 0.000000 0.000000
# 2 -0.002199 0.010101 -0.002318 0.000000 0.000000 0.000000
# 3 -0.002318 -0.002318 0.007686 0.000000 0.000000 0.000000
# 4 0.000000 0.000000 0.000000 0.032199 0.000000 0.000000
# 5 0.000000 0.000000 0.000000 0.000000 0.032199 0.000000
# 6 0.000000 0.000000 0.000000 0.000000 0.000000 0.029586
#
#
# Mechanical properties :
#
#
# Convention : Reuss Voigt Hill
#
# Bulk Modulus (GPa) = 70.33233 72.33984 71.33608
# Shear Modulus (GPa) = 35.64225 36.79301 36.21763
#
# Velocity S-wave (km/s) = 3.97292 4.03655 4.00486
# Velocity P-wave (km/s) = 7.22441 7.33216 7.27849
#
# Compressibility (1/GPa) = 0.01421821
#
# Stress axis : x y z
#
# Youngs Moduli (GPa) = 98.99978 98.99978 130.09846
#
# Poissons Ratio (x) = 0.21767 0.30160
# Poissons Ratio (y) = 0.21767 0.30160
# Poissons Ratio (z) = 0.22950 0.22950
#
# Static dielectric constant tensor:
#      x y z
#    x 1.908700 0.000000 0.000000 
#    y 0.000000 1.908700 0.000000 
#    z 0.000000 0.000000 1.834440 
# 
# From -- ./inp_files/6079.got.cif
#   From: 2010.05.17/outbox.cif.g08.bks.cpg/sg91_4_cif.got.tgz:6079.got - 2010.06.03 19:20:03.
