data_PCOD9548039
_publ_section_title
;
Structure prediction by ZEFSAII (Michael W. Deem and Ramdas Pophale) SiO2 
 PCOD9548039
Probable space group: P 41 2 2
;
_chemical_formula_sum "Si O2"
_cell_formula_units_Z 40
_cell_length_a 9.084421
_cell_length_b 9.084421
_cell_length_c 22.028044
_cell_angle_alpha 90.000000
_cell_angle_beta 90.000000
_cell_angle_gamma 90.000000
_cell_volume 1817.901887
_symmetry_space_group_name_H-M "P 41 2 2"
_symmetry_group_IT_number 91
_symmetry_cell_setting 'tetragonal'
loop_
_space_group_symop_operation_xyz
x,y,z
-y,x,1/4+z
-x,-y,1/2+z
y,-x,3/4+z
x,-y,1/2-z
-x,y,-z
y,x,3/4-z
-y,-x,1/4-z
loop_
_atom_site_type_symbol
_atom_site_label
_atom_site_fract_x
_atom_site_fract_y
_atom_site_fract_z
Si Si1 0.910396 0.332791 0.404716
Si Si2 0.940250 0.662231 0.777801
Si Si3 0.390775 0.674387 0.246870
Si Si4 0.967399 0.827559 0.659671
Si Si5 0.393341 0.899387 0.803139
O O1 0.948523 0.338246 0.333767
O O2 0.754002 0.367719 0.437449
O O3 0.014781 0.456127 0.431818
O O4 0.942329 0.164019 0.421559
O O5 0.931170 0.500000 0.750000
O O6 0.005034 0.761030 0.724120
O O7 0.766594 0.703658 0.787921
O O8 0.407151 0.500000 0.250000
O O9 0.538931 0.744959 0.218687
O O10 0.101037 0.898963 0.625000
O O11 0.899879 0.707160 0.612818
O O12 0.321899 0.000000 0.750000
#
# Coordination Sequence:
#
# PCOD9548039 Si02
#       5
#     8   8   8   8   8
#     4  10  22  41  65  98 131 180 224 282 353 411
#     4  10  20  41  66  95 133 170 226 288 343 412
#     4   9  21  42  69 102 134 175 237 286 347 424
#     4  11  25  40  63 100 131 175 228 280 347 402
#     4  10  22  43  65  95 137 178 228 282 343 423
#
# _framework density 22.003387
#
# number of rings (size 3 to 8) (size 9 to 14) (size 15 to 20)
#    0.000    2.000    2.000    0.000    5.600    0.000 
#    0.000    5.000    0.000    0.000    0.000    0.000 
#    0.000    0.000    0.000    0.000    0.000    0.000 
#
# Total GULP energy -223091.100875 kJ/mol
# GULP energy per Si atom -5577.277522 kJ/mol
# Density = 2.195331 g / cm^3
# Si number density = 22.003387 Si / 1000 Ang^3
#
#
#
# Elastic Constant Matrix: (Units=GPa)
#
#
# Indices 1 2 3 4 5 6 
#
# 1 76.3864 36.5579 29.9457 0.0000 0.0000 0.0000
# 2 36.5579 76.3874 29.9450 0.0000 0.0000 0.0000
# 3 29.9457 29.9450 115.4203 0.0000 0.0000 0.0000
# 4 0.0000 0.0000 0.0000 17.8192 0.0000 0.0000
# 5 0.0000 0.0000 0.0000 0.0000 17.8190 0.0000
# 6 0.0000 0.0000 0.0000 0.0000 0.0000 27.2861
#
#
#
# Elastic Compliance Matrix: (Units=1/GPa)
#
#
# Indices 1 2 3 4 5 6 
#
# 1 0.017687 -0.007421 -0.002664 0.000000 0.000000 0.000000
# 2 -0.007421 0.017687 -0.002663 0.000000 0.000000 0.000000
# 3 -0.002664 -0.002663 0.010046 0.000000 0.000000 0.000000
# 4 0.000000 0.000000 0.000000 0.056119 0.000000 0.000000
# 5 0.000000 0.000000 0.000000 0.000000 0.056120 0.000000
# 6 0.000000 0.000000 0.000000 0.000000 0.000000 0.036649
#
#
# Mechanical properties :
#
#
# Convention : Reuss Voigt Hill
#
# Bulk Modulus (GPa) = 50.18961 51.23237 50.71099
# Shear Modulus (GPa) = 22.08050 24.03457 23.05753
#
# Velocity S-wave (km/s) = 3.17125 3.30860 3.24065
# Velocity P-wave (km/s) = 6.02234 6.15875 6.09093
#
# Compressibility (1/GPa) = 0.01992444
#
# Stress axis : x y z
#
# Youngs Moduli (GPa) = 56.53886 56.53997 99.54133
#
# Poissons Ratio (x) = 0.41956 0.26514
# Poissons Ratio (y) = 0.41955 0.26512
# Poissons Ratio (z) = 0.15060 0.15059
#
# Static dielectric constant tensor:
#      x y z
#    x 1.833620 0.000000 0.000000 
#    y 0.000000 1.833620 0.000000 
#    z 0.000000 0.000000 1.893220 
# 
# From -- ./inp_files/6723.got.cif
#   From: 2010.05.17/outbox.cif.g08.bks.cpg/sg91_4_cif.got.tgz:6723.got - 2010.06.03 19:20:03.
