data_PCOD9548489
_publ_section_title
;
Structure prediction by ZEFSAII (Michael W. Deem and Ramdas Pophale) SiO2 
 PCOD9548489
Probable space group: P 41 2 2
;
_chemical_formula_sum "Si O2"
_cell_formula_units_Z 44
_cell_length_a 14.262668
_cell_length_b 14.262668
_cell_length_c 12.076515
_cell_angle_alpha 90.000000
_cell_angle_beta 90.000000
_cell_angle_gamma 90.000000
_cell_volume 2456.649346
_symmetry_space_group_name_H-M "P 41 2 2"
_symmetry_group_IT_number 91
_symmetry_cell_setting 'tetragonal'
loop_
_space_group_symop_operation_xyz
x,y,z
-y,x,1/4+z
-x,-y,1/2+z
y,-x,3/4+z
x,-y,1/2-z
-x,y,-z
y,x,3/4-z
-y,-x,1/4-z
loop_
_atom_site_type_symbol
_atom_site_label
_atom_site_fract_x
_atom_site_fract_y
_atom_site_fract_z
Si Si1 0.832169 0.530962 0.877475
Si Si2 0.637495 0.000000 0.750000
Si Si3 0.288391 0.711610 0.125000
Si Si4 0.819114 0.819114 0.375000
Si Si5 0.108016 0.343310 0.030777
Si Si6 0.795337 0.947751 0.590828
Si Si7 0.131977 0.794673 0.269554
O O1 0.845201 0.500000 0.750000
O O2 0.744958 0.603784 0.883277
O O3 0.829861 0.434877 0.946702
O O4 0.923985 0.582262 0.926783
O O5 0.698065 0.941195 0.659332
O O6 0.231133 0.756397 0.227562
O O7 0.839474 0.724244 0.443579
O O8 0.812644 0.899231 0.471136
O O9 0.098491 0.282938 0.142963
O O10 0.000000 0.367123 0.000000
O O11 0.865976 0.893281 0.669137
O O12 0.802683 0.058225 0.578058
#
# Coordination Sequence:
#
# PCOD9548489 Si02
#       7
#     8   4   4   4   8   8   8
#     4  12  24  39  66  95 122 156 213 264 325 378
#     4  12  22  36  64  92 122 162 214 278 314 370
#     4  12  22  40  61  93 120 160 196 276 326 380
#     4  10  24  38  63  89 136 172 208 260 318 372
#     4  11  21  40  64  94 124 168 211 263 309 375
#     4  11  21  38  57  88 128 175 211 256 310 375
#     4  11  21  37  60  83 131 163 212 255 306 371
#
# _framework density 17.910575000000001
#
# number of rings (size 3 to 8) (size 9 to 14) (size 15 to 20)
#    0.000    0.727    8.182    0.000    0.000    0.000 
#    0.000    6.364    0.000    1.091    0.000    0.000 
#    0.000    0.000    0.000    0.000    0.000    0.000 
#
# Total GULP energy -245035.398125 kJ/mol
# GULP energy per Si atom -5568.986321 kJ/mol
# Density = 1.786981 g / cm^3
# Si number density = 17.910575 Si / 1000 Ang^3
#
#
#
# Elastic Constant Matrix: (Units=GPa)
#
#
# Indices 1 2 3 4 5 6 
#
# 1 84.5371 55.5628 30.0983 0.0000 0.0000 0.0000
# 2 55.5628 84.5362 30.0983 0.0000 0.0000 0.0000
# 3 30.0983 30.0983 85.6339 0.0000 0.0000 0.0000
# 4 0.0000 0.0000 0.0000 27.9959 0.0000 0.0000
# 5 0.0000 0.0000 0.0000 0.0000 27.9956 0.0000
# 6 0.0000 0.0000 0.0000 0.0000 0.0000 29.6544
#
#
#
# Elastic Compliance Matrix: (Units=1/GPa)
#
#
# Indices 1 2 3 4 5 6 
#
# 1 0.021461 -0.013053 -0.002955 0.000000 0.000000 0.000000
# 2 -0.013053 0.021461 -0.002955 0.000000 0.000000 0.000000
# 3 -0.002955 -0.002955 0.013755 0.000000 0.000000 0.000000
# 4 0.000000 0.000000 0.000000 0.035720 0.000000 0.000000
# 5 0.000000 0.000000 0.000000 0.000000 0.035720 0.000000
# 6 0.000000 0.000000 0.000000 0.000000 0.000000 0.033722
#
#
# Mechanical properties :
#
#
# Convention : Reuss Voigt Hill
#
# Bulk Modulus (GPa) = 53.33417 54.02510 53.67963
# Shear Modulus (GPa) = 24.27020 26.39235 25.33128
#
# Velocity S-wave (km/s) = 3.68513 3.84287 3.76482
# Velocity P-wave (km/s) = 6.92456 7.06537 6.99532
#
# Compressibility (1/GPa) = 0.01874970
#
# Stress axis : x y z
#
# Youngs Moduli (GPa) = 46.59712 46.59660 72.70152
#
# Poissons Ratio (x) = 0.60823 0.21483
# Poissons Ratio (y) = 0.60824 0.21484
# Poissons Ratio (z) = 0.13769 0.13770
#
# Static dielectric constant tensor:
#      x y z
#    x 1.633400 0.000000 0.000000 
#    y 0.000000 1.633410 0.000000 
#    z 0.000000 0.000000 1.672820 
# 
# From -- ./inp_files/10715.got.cif
#   From: 2010.05.17/outbox.cif.g08.bks.cpg/sg91_6_cif.got.tgz:10715.got - 2010.06.03 19:20:03.
