data_PCOD9548854
_publ_section_title
;
Structure prediction by ZEFSAII (Michael W. Deem and Ramdas Pophale) SiO2 
 PCOD9548854
Probable space group: P 41 21 2
;
_chemical_formula_sum "Si O2"
_cell_formula_units_Z 40
_cell_length_a 14.142998
_cell_length_b 14.142998
_cell_length_c 7.606685
_cell_angle_alpha 90.000000
_cell_angle_beta 90.000000
_cell_angle_gamma 90.000000
_cell_volume 1521.522546
_symmetry_space_group_name_H-M "P 41 21 2"
_symmetry_group_IT_number 92
_symmetry_cell_setting 'tetragonal'
loop_
_space_group_symop_operation_xyz
x,y,z
1/2-y,1/2+x,1/4+z
-x,-y,1/2+z
1/2+y,1/2-x,3/4+z
1/2+x,1/2-y,3/4-z
1/2-x,1/2+y,1/4-z
y,x,-z
-y,-x,1/2-z
loop_
_atom_site_type_symbol
_atom_site_label
_atom_site_fract_x
_atom_site_fract_y
_atom_site_fract_z
Si Si1 0.225309 0.502046 0.997431
Si Si2 0.439603 0.095623 0.450574
Si Si3 0.218128 0.861231 0.543351
Si Si4 0.850759 0.002895 0.424056
Si Si5 0.176296 0.190903 0.215228
O O1 0.260077 0.492065 0.195575
O O2 0.286365 0.594612 0.945670
O O3 0.120768 0.533379 0.943071
O O4 0.253768 0.409713 0.890608
O O5 0.547333 0.084121 0.385977
O O6 0.402645 0.201782 0.422906
O O7 0.110067 0.884433 0.580887
O O8 0.231743 0.748480 0.533491
O O9 0.812982 0.936060 0.267105
O O10 0.939895 0.939895 0.500000
O O11 0.190855 0.190855 0.000000
#
# Coordination Sequence:
#
# PCOD9548854 Si02
#       5
#     8   8   8   8   8
#     4   8  15  26  46  73  97 130 175 226 280 334
#     4   9  18  32  54  81 107 141 190 238 291 353
#     4  10  16  28  51  72 101 144 180 225 288 349
#     4   9  17  27  43  70 104 132 172 231 281 334
#     4   8  15  25  39  68  99 123 169 222 270 328
#
# _framework density 26.289458
#
# number of rings (size 3 to 8) (size 9 to 14) (size 15 to 20)
#    0.000    3.600    0.000    1.800    0.000    1.600 
#    0.000    0.000    0.000   45.600    0.000    0.000 
#    0.000    0.000    0.000    0.000    0.000    0.000 
#
# Total GULP energy -223318.403172 kJ/mol
# GULP energy per Si atom -5582.960079 kJ/mol
# Density = 2.622962 g / cm^3
# Si number density = 26.289458 Si / 1000 Ang^3
#
#
#
# Elastic Constant Matrix: (Units=GPa)
#
#
# Indices 1 2 3 4 5 6 
#
# 1 80.6404 167.2072 18.9655 0.0000 0.0000 0.0000
# 2 167.2072 80.6404 18.9655 0.0000 0.0000 0.0000
# 3 18.9655 18.9655 34.1158 0.0000 0.0000 0.0000
# 4 0.0000 0.0000 0.0000 29.5008 0.0000 0.0000
# 5 0.0000 0.0000 0.0000 0.0000 29.5008 0.0000
# 6 0.0000 0.0000 0.0000 0.0000 0.0000 35.4025
#
#
#
# Elastic Compliance Matrix: (Units=1/GPa)
#
#
# Indices 1 2 3 4 5 6 
#
# 1 -0.003571 0.007981 -0.002452 0.000000 0.000000 0.000000
# 2 0.007981 -0.003571 -0.002452 0.000000 0.000000 0.000000
# 3 -0.002452 -0.002452 0.032038 0.000000 0.000000 0.000000
# 4 0.000000 0.000000 0.000000 0.033897 0.000000 0.000000
# 5 0.000000 0.000000 0.000000 0.000000 0.033897 0.000000
# 6 0.000000 0.000000 0.000000 0.000000 0.000000 0.028247
#
#
# Mechanical properties :
#
#
# Convention : Reuss Voigt Hill
#
# Bulk Modulus (GPa) = 32.20473 67.29698 49.75085
# Shear Modulus (GPa) = 39.95777 18.23138 29.09457
#
# Velocity S-wave (km/s) = 3.90284 2.63627 3.33032
# Velocity P-wave (km/s) = 5.70843 5.90936 5.80977
#
# Compressibility (1/GPa) = 0.03105134
#
# Stress axis : x y z
#
# Youngs Moduli (GPa) = -280.03974 -280.03974 31.21326
#
# Poissons Ratio (x) = 2.23495 0.07652
# Poissons Ratio (y) = 2.23495 0.07652
# Poissons Ratio (z) = -0.68653 -0.68653
#
# Static dielectric constant tensor:
#      x y z
#    x 2.069390 0.000000 0.000000 
#    y 0.000000 2.069390 0.000000 
#    z 0.000000 0.000000 2.168620 
# 
# From -- ./inp_files/2042.got.cif
#   From: 2010.05.17/outbox.cif.g08.bks.cpg/sg92_2_cif.got.tgz:2042.got - 2010.06.03 19:35:17.
