data_PCOD9548450
_publ_section_title
;
Structure prediction by ZEFSAII (Michael W. Deem and Ramdas Pophale) SiO2 
 PCOD9548450
Probable space group: P 41 2 2
;
_chemical_formula_sum "Si O2"
_cell_formula_units_Z 48
_cell_length_a 8.900463
_cell_length_b 8.900463
_cell_length_c 28.253193
_cell_angle_alpha 90.000000
_cell_angle_beta 90.000000
_cell_angle_gamma 90.000000
_cell_volume 2238.168269
_symmetry_space_group_name_H-M "P 41 2 2"
_symmetry_group_IT_number 91
_symmetry_cell_setting 'tetragonal'
loop_
_space_group_symop_operation_xyz
x,y,z
-y,x,1/4+z
-x,-y,1/2+z
y,-x,3/4+z
x,-y,1/2-z
-x,y,-z
y,x,3/4-z
-y,-x,1/4-z
loop_
_atom_site_type_symbol
_atom_site_label
_atom_site_fract_x
_atom_site_fract_y
_atom_site_fract_z
Si Si1 0.494644 0.831249 0.170082
Si Si2 0.997664 0.039019 0.444308
Si Si3 0.912153 0.277777 0.048662
Si Si4 0.327053 0.570097 0.880679
Si Si5 0.027252 0.719668 0.866628
Si Si6 0.328291 0.494632 0.516086
O O1 0.576784 0.689036 0.148348
O O2 0.441753 0.776242 0.222246
O O3 0.607177 0.974437 0.175214
O O4 0.367036 0.881251 0.134200
O O5 0.902185 0.889560 0.431908
O O6 0.000000 0.075030 0.500000
O O7 0.167667 0.000345 0.426685
O O8 0.937979 0.172112 0.411370
O O9 0.756854 0.356277 0.035016
O O10 0.000000 0.250841 0.000000
O O11 0.408964 0.408964 0.875000
O O12 0.160493 0.599750 0.861019
O O13 0.328822 0.605543 0.936736
O O14 0.500000 0.517740 0.500000
#
# Coordination Sequence:
#
# PCOD9548450 Si02
#       6
#     8   8   8   8   8   8
#     4  11  23  44  68  99 140 181 235 288 360 418
#     4  10  23  42  70  98 138 177 235 281 349 427
#     4   9  19  40  67  92 132 185 226 279 344 425
#     4  12  25  43  66 101 136 177 242 293 337 427
#     4  11  25  44  68 102 135 183 228 292 357 418
#     4  11  23  41  70 101 138 189 235 287 359 414
#
# _framework density 21.446107999999999
#
# number of rings (size 3 to 8) (size 9 to 14) (size 15 to 20)
#    0.000    1.333    5.000    0.000    4.667    0.000 
#    6.000    0.000    0.000    0.000    0.000    0.000 
#    0.000    0.000    0.000    0.000    0.000    0.000 
#
# Total GULP energy -267806.086971 kJ/mol
# GULP energy per Si atom -5579.293479 kJ/mol
# Density = 2.139730 g / cm^3
# Si number density = 21.446108 Si / 1000 Ang^3
#
#
#
# Elastic Constant Matrix: (Units=GPa)
#
#
# Indices 1 2 3 4 5 6 
#
# 1 38.2616 25.6275 -0.1784 0.0000 0.0000 0.0000
# 2 25.6275 38.2616 -0.1784 0.0000 0.0000 0.0000
# 3 -0.1784 -0.1784 109.3292 0.0000 0.0000 0.0000
# 4 0.0000 0.0000 0.0000 29.7370 0.0000 0.0000
# 5 0.0000 0.0000 0.0000 0.0000 29.7370 0.0000
# 6 0.0000 0.0000 0.0000 0.0000 0.0000 29.9977
#
#
#
# Elastic Compliance Matrix: (Units=1/GPa)
#
#
# Indices 1 2 3 4 5 6 
#
# 1 0.047402 -0.031749 0.000026 0.000000 0.000000 0.000000
# 2 -0.031749 0.047402 0.000026 0.000000 0.000000 0.000000
# 3 0.000026 0.000026 0.009147 0.000000 0.000000 0.000000
# 4 0.000000 0.000000 0.000000 0.033628 0.000000 0.000000
# 5 0.000000 0.000000 0.000000 0.000000 0.033628 0.000000
# 6 0.000000 0.000000 0.000000 0.000000 0.000000 0.033336
#
#
# Mechanical properties :
#
#
# Convention : Reuss Voigt Hill
#
# Bulk Modulus (GPa) = 24.65882 26.26598 25.46240
# Shear Modulus (GPa) = 17.76472 28.59979 23.18226
#
# Velocity S-wave (km/s) = 2.88122 3.65576 3.29135
# Velocity P-wave (km/s) = 4.75306 5.48575 5.13250
#
# Compressibility (1/GPa) = 0.04055345
#
# Stress axis : x y z
#
# Youngs Moduli (GPa) = 21.09631 21.09631 109.32816
#
# Poissons Ratio (x) = 0.66980 -0.00279
# Poissons Ratio (y) = 0.66980 -0.00279
# Poissons Ratio (z) = -0.00054 -0.00054
#
# Static dielectric constant tensor:
#      x y z
#    x 1.808030 0.000000 0.000000 
#    y 0.000000 1.808030 0.000000 
#    z 0.000000 0.000000 1.821570 
# 
# From -- ./inp_files/13623.got.cif
#   From: 2010.05.17/outbox.cif.g08.bks.cpg/sg91_7_cif.got.tgz:13623.got - 2010.06.03 19:20:03.
