data_PCOD9548353
_publ_section_title
;
Structure prediction by ZEFSAII (Michael W. Deem and Ramdas Pophale) SiO2 
 PCOD9548353
Probable space group: P 41 2 2
;
_chemical_formula_sum "Si O2"
_cell_formula_units_Z 40
_cell_length_a 14.316702
_cell_length_b 14.316702
_cell_length_c 9.813161
_cell_angle_alpha 90.000000
_cell_angle_beta 90.000000
_cell_angle_gamma 90.000000
_cell_volume 2011.383554
_symmetry_space_group_name_H-M "P 41 2 2"
_symmetry_group_IT_number 91
_symmetry_cell_setting 'tetragonal'
loop_
_space_group_symop_operation_xyz
x,y,z
-y,x,1/4+z
-x,-y,1/2+z
y,-x,3/4+z
x,-y,1/2-z
-x,y,-z
y,x,3/4-z
-y,-x,1/4-z
loop_
_atom_site_type_symbol
_atom_site_label
_atom_site_fract_x
_atom_site_fract_y
_atom_site_fract_z
Si Si1 0.562375 0.562375 0.875000
Si Si2 0.000000 0.892145 0.500000
Si Si3 0.719095 0.652420 0.503723
Si Si4 0.892857 0.691098 0.967028
Si Si5 0.558471 0.270391 0.794108
Si Si6 0.145313 0.232776 0.167122
O O1 0.532067 0.500000 0.750000
O O2 0.554505 0.670792 0.845205
O O3 0.072300 0.823103 0.424374
O O4 0.953606 0.953606 0.375000
O O5 0.720698 0.720698 0.375000
O O6 0.627353 0.673795 0.600119
O O7 0.726304 0.551875 0.428857
O O8 0.807233 0.678896 0.593700
O O9 0.888518 0.726730 0.811402
O O10 0.828940 0.602574 0.008196
O O11 0.842886 0.773787 0.051238
O O12 0.000000 0.675581 0.000000
#
# Coordination Sequence:
#
# PCOD9548353 Si02
#       6
#     4   4   8   8   8   8
#     4  12  24  38  64  98 134 166 222 276 334 396
#     4  12  26  40  68 104 130 166 220 288 346 410
#     4  11  23  41  64  94 139 177 223 276 337 403
#     4  10  22  42  68  93 129 178 225 274 335 415
#     4  11  23  39  65  97 130 181 220 276 334 399
#     4  10  23  42  67  93 131 172 217 283 348 398
#
# _framework density 19.886809
#
# number of rings (size 3 to 8) (size 9 to 14) (size 15 to 20)
#    0.000    1.200    2.000    4.800    5.600    1.600 
#    1.800    0.000    4.400    0.000    0.000    0.000 
#    0.000    0.000    0.000    0.000    0.000    0.000 
#
# Total GULP energy -222843.984059 kJ/mol
# GULP energy per Si atom -5571.099601 kJ/mol
# Density = 1.984155 g / cm^3
# Si number density = 19.886809 Si / 1000 Ang^3
#
#
#
# Elastic Constant Matrix: (Units=GPa)
#
#
# Indices 1 2 3 4 5 6 
#
# 1 134.7417 7.8899 36.8587 0.0000 0.0000 0.0000
# 2 7.8899 134.7417 36.8587 0.0000 0.0000 0.0000
# 3 36.8587 36.8587 91.4838 0.0000 0.0000 0.0000
# 4 0.0000 0.0000 0.0000 6.3278 0.0000 0.0000
# 5 0.0000 0.0000 0.0000 0.0000 6.3278 0.0000
# 6 0.0000 0.0000 0.0000 0.0000 0.0000 10.5639
#
#
#
# Elastic Compliance Matrix: (Units=1/GPa)
#
#
# Indices 1 2 3 4 5 6 
#
# 1 0.008369 0.000486 -0.003568 0.000000 0.000000 0.000000
# 2 0.000486 0.008369 -0.003568 0.000000 0.000000 0.000000
# 3 -0.003568 -0.003568 0.013806 0.000000 0.000000 0.000000
# 4 0.000000 0.000000 0.000000 0.158032 0.000000 0.000000
# 5 0.000000 0.000000 0.000000 0.000000 0.158032 0.000000
# 6 0.000000 0.000000 0.000000 0.000000 0.000000 0.094662
#
#
# Mechanical properties :
#
#
# Convention : Reuss Voigt Hill
#
# Bulk Modulus (GPa) = 57.98775 58.24242 58.11508
# Shear Modulus (GPa) = 10.86208 23.26791 17.06500
#
# Velocity S-wave (km/s) = 2.33962 3.42426 2.93252
# Velocity P-wave (km/s) = 6.04323 6.70706 6.38378
#
# Compressibility (1/GPa) = 0.01724502
#
# Stress axis : x y z
#
# Youngs Moduli (GPa) = 119.48727 119.48727 72.43385
#
# Poissons Ratio (x) = -0.05806 0.25842
# Poissons Ratio (y) = -0.05806 0.25842
# Poissons Ratio (z) = 0.42629 0.42629
#
# Static dielectric constant tensor:
#      x y z
#    x 1.924780 0.000000 0.000000 
#    y 0.000000 1.924780 0.000000 
#    z 0.000000 0.000000 2.290310 
# 
# From -- ./inp_files/15047.got.cif
#   From: 2010.05.17/outbox.cif.g08.bks.cpg/sg91_8_cif.got.tgz:15047.got - 2010.06.03 19:20:03.
