data_PCOD9548687
_publ_section_title
;
Structure prediction by ZEFSAII (Michael W. Deem and Ramdas Pophale) SiO2 
 PCOD9548687
Probable space group: P 41 2 2
;
_chemical_formula_sum "Si O2"
_cell_formula_units_Z 32
_cell_length_a 8.886771
_cell_length_b 8.886771
_cell_length_c 14.882025
_cell_angle_alpha 90.000000
_cell_angle_beta 90.000000
_cell_angle_gamma 90.000000
_cell_volume 1175.303442
_symmetry_space_group_name_H-M "P 41 2 2"
_symmetry_group_IT_number 91
_symmetry_cell_setting 'tetragonal'
loop_
_space_group_symop_operation_xyz
x,y,z
-y,x,1/4+z
-x,-y,1/2+z
y,-x,3/4+z
x,-y,1/2-z
-x,y,-z
y,x,3/4-z
-y,-x,1/4-z
loop_
_atom_site_type_symbol
_atom_site_label
_atom_site_fract_x
_atom_site_fract_y
_atom_site_fract_z
Si Si1 0.100437 0.308030 0.923367
Si Si2 0.241141 0.268557 0.206398
Si Si3 0.039295 0.605635 0.825208
Si Si4 0.469911 0.666243 0.790424
O O1 0.161564 0.161564 0.875000
O O2 0.248088 0.373685 0.967143
O O3 0.012470 0.458873 0.889384
O O4 0.000000 0.241648 0.000000
O O5 0.088807 0.314261 0.261906
O O6 0.365870 0.260994 0.283376
O O7 0.272123 0.125458 0.138511
O O8 0.300661 0.398741 0.137535
O O9 0.129134 0.500000 0.750000
O O10 0.472556 0.500000 0.750000
#
# Coordination Sequence:
#
# PCOD9548687 Si02
#       4
#     8   8   8   8
#     4  11  24  44  76 118 164 216 272 339 421 502
#     4  11  24  44  77 118 163 212 269 338 416 499
#     4  11  24  45  77 120 165 213 273 342 415 497
#     4  11  22  41  74 118 160 207 273 347 412 482
#
# _framework density 27.227011999999998
#
# number of rings (size 3 to 8) (size 9 to 14) (size 15 to 20)
#    0.000    1.000    0.000    8.250    0.000    2.000 
#    0.000    3.750    0.000   33.000    0.000   54.250 
#    0.000    0.000    0.000    0.000    0.000    0.000 
#
# Total GULP energy -178160.530455 kJ/mol
# GULP energy per Si atom -5567.516577 kJ/mol
# Density = 2.716504 g / cm^3
# Si number density = 27.227012 Si / 1000 Ang^3
#
#
#
# Elastic Constant Matrix: (Units=GPa)
#
#
# Indices 1 2 3 4 5 6 
#
# 1 180.9880 76.9793 93.5340 0.0000 0.0000 0.0000
# 2 76.9793 180.9880 93.5340 0.0000 0.0000 0.0000
# 3 93.5340 93.5340 183.5655 0.0000 0.0000 0.0000
# 4 0.0000 0.0000 0.0000 95.4687 0.0000 0.0000
# 5 0.0000 0.0000 0.0000 0.0000 95.4687 0.0000
# 6 0.0000 0.0000 0.0000 0.0000 0.0000 25.6154
#
#
#
# Elastic Compliance Matrix: (Units=1/GPa)
#
#
# Indices 1 2 3 4 5 6 
#
# 1 0.007881 -0.001733 -0.003133 0.000000 0.000000 0.000000
# 2 -0.001733 0.007881 -0.003133 0.000000 0.000000 0.000000
# 3 -0.003133 -0.003133 0.008640 0.000000 0.000000 0.000000
# 4 0.000000 0.000000 0.000000 0.010475 0.000000 0.000000
# 5 0.000000 0.000000 0.000000 0.000000 0.010475 0.000000
# 6 0.000000 0.000000 0.000000 0.000000 0.000000 0.039039
#
#
# Mechanical properties :
#
#
# Convention : Reuss Voigt Hill
#
# Bulk Modulus (GPa) = 118.96878 119.29291 119.13084
# Shear Modulus (GPa) = 48.45401 62.07683 55.26542
#
# Velocity S-wave (km/s) = 4.22314 4.78009 4.51022
# Velocity P-wave (km/s) = 8.22009 8.62409 8.42451
#
# Compressibility (1/GPa) = 0.00840557
#
# Stress axis : x y z
#
# Youngs Moduli (GPa) = 126.88099 126.88099 115.73817
#
# Poissons Ratio (x) = 0.21991 0.36258
# Poissons Ratio (y) = 0.21991 0.36258
# Poissons Ratio (z) = 0.39749 0.39749
#
# Static dielectric constant tensor:
#      x y z
#    x 2.176530 0.000000 0.000000 
#    y 0.000000 2.176530 0.000000 
#    z 0.000000 0.000000 2.244670 
# 
# From -- ./inp_files/17142.got.cif
#   From: 2010.05.17/outbox.cif.g08.bks.cpg/sg91_9_cif.got.tgz:17142.got - 2010.06.03 19:20:03.
