data_PCOD9548019
_publ_section_title
;
Structure prediction by ZEFSAII (Michael W. Deem and Ramdas Pophale) SiO2 
 PCOD9548019
Probable space group: P 41 2 2
;
_chemical_formula_sum "Si O2"
_cell_formula_units_Z 36
_cell_length_a 11.015144
_cell_length_b 11.015144
_cell_length_c 14.969420
_cell_angle_alpha 90.000000
_cell_angle_beta 90.000000
_cell_angle_gamma 90.000000
_cell_volume 1816.290585
_symmetry_space_group_name_H-M "P 41 2 2"
_symmetry_group_IT_number 91
_symmetry_cell_setting 'tetragonal'
loop_
_space_group_symop_operation_xyz
x,y,z
-y,x,1/4+z
-x,-y,1/2+z
y,-x,3/4+z
x,-y,1/2-z
-x,y,-z
y,x,3/4-z
-y,-x,1/4-z
loop_
_atom_site_type_symbol
_atom_site_label
_atom_site_fract_x
_atom_site_fract_y
_atom_site_fract_z
Si Si1 0.879927 0.503725 0.450696
Si Si2 0.243714 0.768235 0.726363
Si Si3 0.500000 0.846962 0.500000
Si Si4 0.119694 0.917914 0.368270
Si Si5 0.847632 0.248091 0.543579
O O1 0.788765 0.612132 0.472595
O O2 0.910864 0.496466 0.345862
O O3 0.842714 0.373794 0.490749
O O4 0.000000 0.543390 0.500000
O O5 0.202451 0.797550 0.625000
O O6 0.224046 0.626836 0.747192
O O7 0.165093 0.845559 0.797654
O O8 0.138092 0.837155 0.278593
O O9 0.218837 0.024320 0.344464
O O10 0.995144 0.995144 0.375000
O O11 0.754520 0.245481 0.625000
#
# Coordination Sequence:
#
# PCOD9548019 Si02
#       5
#     8   8   4   8   8
#     4  11  21  43  63  92 127 169 211 264 331 398
#     4  10  22  40  65  95 123 166 218 265 319 387
#     4  10  20  44  68  84 130 170 210 274 322 372
#     4  10  20  41  64  89 128 168 208 263 321 385
#     4  10  20  40  66  87 125 170 212 261 327 380
#
# _framework density 19.820616999999999
#
# number of rings (size 3 to 8) (size 9 to 14) (size 15 to 20)
#    0.000    1.778    4.444    0.000    0.000    0.889 
#   36.000    3.333    0.000    0.000    0.000    0.000 
#    0.000    0.000    0.000    0.000    0.000    0.000 
#
# Total GULP energy -200553.625396 kJ/mol
# GULP energy per Si atom -5570.934039 kJ/mol
# Density = 1.977550 g / cm^3
# Si number density = 19.820617 Si / 1000 Ang^3
#
#
#
# Elastic Constant Matrix: (Units=GPa)
#
#
# Indices 1 2 3 4 5 6 
#
# 1 56.2055 36.9010 47.1268 0.0000 0.0000 0.0000
# 2 36.9010 56.2040 47.1260 0.0000 0.0000 0.0000
# 3 47.1268 47.1260 171.6925 0.0000 0.0000 0.0000
# 4 0.0000 0.0000 0.0000 32.3017 0.0000 0.0000
# 5 0.0000 0.0000 0.0000 0.0000 32.3019 0.0000
# 6 0.0000 0.0000 0.0000 0.0000 0.0000 4.1946
#
#
#
# Elastic Compliance Matrix: (Units=1/GPa)
#
#
# Indices 1 2 3 4 5 6 
#
# 1 0.033338 -0.018465 -0.004082 0.000000 0.000000 0.000000
# 2 -0.018465 0.033339 -0.004082 0.000000 0.000000 0.000000
# 3 -0.004082 -0.004082 0.008065 0.000000 0.000000 0.000000
# 4 0.000000 0.000000 0.000000 0.030958 0.000000 0.000000
# 5 0.000000 0.000000 0.000000 0.000000 0.030958 0.000000
# 6 0.000000 0.000000 0.000000 0.000000 0.000000 0.238400
#
#
# Mechanical properties :
#
#
# Convention : Reuss Voigt Hill
#
# Bulk Modulus (GPa) = 46.55024 60.71220 53.63122
# Shear Modulus (GPa) = 11.48163 23.95618 17.71890
#
# Velocity S-wave (km/s) = 2.40943 3.48034 2.99317
# Velocity P-wave (km/s) = 5.59260 6.84453 6.24999
#
# Compressibility (1/GPa) = 0.02148217
#
# Stress axis : x y z
#
# Youngs Moduli (GPa) = 29.99597 29.99524 123.98543
#
# Poissons Ratio (x) = 0.55386 0.50616
# Poissons Ratio (y) = 0.55388 0.50616
# Poissons Ratio (z) = 0.12246 0.12245
#
# Static dielectric constant tensor:
#      x y z
#    x 1.772030 0.000000 0.000000 
#    y 0.000000 1.772030 0.000000 
#    z 0.000000 0.000000 1.804540 
# 
# From -- ./inp_files/11279.got.cif
#   From: 2010.05.17/outbox.cif.g08.bks.cpg/sg91_6_cif.got.tgz:11279.got - 2010.06.03 19:20:03.
