data_PCOD9548532
_publ_section_title
;
Structure prediction by ZEFSAII (Michael W. Deem and Ramdas Pophale) SiO2 
 PCOD9548532
Probable space group: P 41 2 2
;
_chemical_formula_sum "Si O2"
_cell_formula_units_Z 24
_cell_length_a 7.141952
_cell_length_b 7.141952
_cell_length_c 20.292701
_cell_angle_alpha 90.000000
_cell_angle_beta 90.000000
_cell_angle_gamma 90.000000
_cell_volume 1035.079507
_symmetry_space_group_name_H-M "P 41 2 2"
_symmetry_group_IT_number 91
_symmetry_cell_setting 'tetragonal'
loop_
_space_group_symop_operation_xyz
x,y,z
-y,x,1/4+z
-x,-y,1/2+z
y,-x,3/4+z
x,-y,1/2-z
-x,y,-z
y,x,3/4-z
-y,-x,1/4-z
loop_
_atom_site_type_symbol
_atom_site_label
_atom_site_fract_x
_atom_site_fract_y
_atom_site_fract_z
Si Si1 0.839655 0.848025 0.803439
Si Si2 0.917506 0.594209 0.570862
Si Si3 0.850657 0.572751 0.183062
O O1 0.910140 0.910140 0.875000
O O2 0.885131 0.000000 0.750000
O O3 0.615934 0.836022 0.809134
O O4 0.662286 0.954417 0.958827
O O5 0.255390 0.723410 0.407220
O O6 0.082725 0.565961 0.624954
O O7 0.000000 0.657545 0.500000
O O8 0.754957 0.500000 0.250000
#
# Coordination Sequence:
#
# PCOD9548532 Si02
#       3
#     8   8   8
#     4   9  20  40  68  93 136 183 229 286 352 414
#     4  10  24  46  68 104 141 186 238 294 350 427
#     4  11  25  42  72 105 138 188 234 292 358 417
#
# _framework density 23.186620999999999
#
# number of rings (size 3 to 8) (size 9 to 14) (size 15 to 20)
#    0.000    2.000    0.000    1.000   14.000    2.667 
#   12.000    0.000    0.000    0.000    0.000    0.000 
#    0.000    0.000    0.000    0.000    0.000    0.000 
#
# Total GULP energy -133942.104124 kJ/mol
# GULP energy per Si atom -5580.921005 kJ/mol
# Density = 2.313385 g / cm^3
# Si number density = 23.186621 Si / 1000 Ang^3
#
#
#
# Elastic Constant Matrix: (Units=GPa)
#
#
# Indices 1 2 3 4 5 6 
#
# 1 69.6310 27.8556 49.2128 0.0000 0.0000 0.0000
# 2 27.8556 69.6310 49.2128 0.0000 0.0000 0.0000
# 3 49.2128 49.2128 148.0447 0.0000 0.0000 0.0000
# 4 0.0000 0.0000 0.0000 34.7752 0.0000 0.0000
# 5 0.0000 0.0000 0.0000 0.0000 34.7752 0.0000
# 6 0.0000 0.0000 0.0000 0.0000 0.0000 60.1584
#
#
#
# Elastic Compliance Matrix: (Units=1/GPa)
#
#
# Indices 1 2 3 4 5 6 
#
# 1 0.019689 -0.004249 -0.005132 0.000000 0.000000 0.000000
# 2 -0.004249 0.019689 -0.005132 0.000000 0.000000 0.000000
# 3 -0.005132 -0.005132 0.010167 0.000000 0.000000 0.000000
# 4 0.000000 0.000000 0.000000 0.028756 0.000000 0.000000
# 5 0.000000 0.000000 0.000000 0.000000 0.028756 0.000000
# 6 0.000000 0.000000 0.000000 0.000000 0.000000 0.016623
#
#
# Mechanical properties :
#
#
# Convention : Reuss Voigt Hill
#
# Bulk Modulus (GPa) = 48.74108 59.98548 54.36328
# Shear Modulus (GPa) = 31.33899 36.67680 34.00790
#
# Velocity S-wave (km/s) = 3.68040 3.98151 3.83391
# Velocity P-wave (km/s) = 6.25518 6.86028 6.56471
#
# Compressibility (1/GPa) = 0.02051657
#
# Stress axis : x y z
#
# Youngs Moduli (GPa) = 50.79075 50.79075 98.35779
#
# Poissons Ratio (x) = 0.21581 0.50482
# Poissons Ratio (y) = 0.21581 0.50482
# Poissons Ratio (z) = 0.26068 0.26068
#
# Static dielectric constant tensor:
#      x y z
#    x 1.911850 0.000000 0.000000 
#    y 0.000000 1.911850 0.000000 
#    z 0.000000 0.000000 1.935560 
# 
# From -- ./inp_files/5148.got.cif
#   From: 2010.05.17/outbox.cif.g08.bks.cpg/sg91_3_cif.got.tgz:5148.got - 2010.06.03 19:20:03.
