data_PCOD9548278
_publ_section_title
;
Structure prediction by ZEFSAII (Michael W. Deem and Ramdas Pophale) SiO2 
 PCOD9548278
Probable space group: P 41 2 2
;
_chemical_formula_sum "Si O2"
_cell_formula_units_Z 40
_cell_length_a 11.689992
_cell_length_b 11.689992
_cell_length_c 14.299027
_cell_angle_alpha 90.000000
_cell_angle_beta 90.000000
_cell_angle_gamma 90.000000
_cell_volume 1954.046589
_symmetry_space_group_name_H-M "P 41 2 2"
_symmetry_group_IT_number 91
_symmetry_cell_setting 'tetragonal'
loop_
_space_group_symop_operation_xyz
x,y,z
-y,x,1/4+z
-x,-y,1/2+z
y,-x,3/4+z
x,-y,1/2-z
-x,y,-z
y,x,3/4-z
-y,-x,1/4-z
loop_
_atom_site_type_symbol
_atom_site_label
_atom_site_fract_x
_atom_site_fract_y
_atom_site_fract_z
Si Si1 0.749664 0.374008 0.547721
Si Si2 0.434104 0.000000 0.250000
Si Si3 0.000000 0.180417 0.000000
Si Si4 0.375054 0.993260 0.907006
Si Si5 0.247165 0.815762 0.521106
Si Si6 0.738757 0.622291 0.637651
O O1 0.719965 0.280036 0.625000
O O2 0.725922 0.497775 0.593116
O O3 0.665120 0.353752 0.460955
O O4 0.881515 0.368380 0.515365
O O5 0.517623 0.015252 0.160334
O O6 0.123811 0.122322 0.996642
O O7 0.999600 0.264726 0.911118
O O8 0.380012 0.862670 0.939311
O O9 0.348673 0.092024 0.980882
O O10 0.240118 0.759883 0.625000
O O11 0.256591 0.715261 0.445761
#
# Coordination Sequence:
#
# PCOD9548278 Si02
#       6
#     8   4   4   8   8   8
#     4  11  23  43  64  86 121 160 199 245 299 353
#     4   9  20  40  63  88 114 150 205 251 282 356
#     4   7  12  22  45  82 118 146 181 237 292 340
#     4   8  15  32  57  82 114 154 196 240 288 342
#     4   9  15  30  56  87 119 154 197 246 296 345
#     4  10  22  39  59  86 120 158 199 245 295 355
#
# _framework density 20.47034
#
# number of rings (size 3 to 8) (size 9 to 14) (size 15 to 20)
#    0.000    2.800    0.000    4.200    0.000    1.600 
#    0.000   16.000    0.000    2.400    0.000    1.400 
#    0.000    0.000    0.000    0.000    0.000    0.000 
#
# Total GULP energy -223081.689701 kJ/mol
# GULP energy per Si atom -5577.042243 kJ/mol
# Density = 2.042375 g / cm^3
# Si number density = 20.470340 Si / 1000 Ang^3
#
#
#
# Elastic Constant Matrix: (Units=GPa)
#
#
# Indices 1 2 3 4 5 6 
#
# 1 85.9607 74.9097 38.3341 0.0000 0.0000 0.0000
# 2 74.9097 85.9627 38.3341 0.0000 0.0000 0.0000
# 3 38.3341 38.3341 64.9326 0.0000 0.0000 0.0000
# 4 0.0000 0.0000 0.0000 30.3205 0.0000 0.0000
# 5 0.0000 0.0000 0.0000 0.0000 30.3202 0.0000
# 6 0.0000 0.0000 0.0000 0.0000 0.0000 26.9448
#
#
#
# Elastic Compliance Matrix: (Units=1/GPa)
#
#
# Indices 1 2 3 4 5 6 
#
# 1 0.049566 -0.040916 -0.005107 0.000000 0.000000 0.000000
# 2 -0.040916 0.049565 -0.005106 0.000000 0.000000 0.000000
# 3 -0.005107 -0.005106 0.021430 0.000000 0.000000 0.000000
# 4 0.000000 0.000000 0.000000 0.032981 0.000000 0.000000
# 5 0.000000 0.000000 0.000000 0.000000 0.032981 0.000000
# 6 0.000000 0.000000 0.000000 0.000000 0.000000 0.037113
#
#
# Mechanical properties :
#
#
# Convention : Reuss Voigt Hill
#
# Bulk Modulus (GPa) = 54.63449 60.00132 57.31791
# Shear Modulus (GPa) = 15.06043 23.20232 19.13137
#
# Velocity S-wave (km/s) = 2.71536 3.37034 3.06042
# Velocity P-wave (km/s) = 6.04801 6.67238 6.36785
#
# Compressibility (1/GPa) = 0.01830346
#
# Stress axis : x y z
#
# Youngs Moduli (GPa) = 20.17493 20.17556 46.66326
#
# Poissons Ratio (x) = 0.82550 0.23831
# Poissons Ratio (y) = 0.82547 0.23827
# Poissons Ratio (z) = 0.10303 0.10302
#
# Static dielectric constant tensor:
#      x y z
#    x 1.756730 0.000000 0.000000 
#    y 0.000000 1.756730 0.000000 
#    z 0.000000 0.000000 1.757810 
# 
# From -- ./inp_files/16408.got.cif
#   From: 2010.05.17/outbox.cif.g08.bks.cpg/sg91_9_cif.got.tgz:16408.got - 2010.06.03 19:20:03.
