data_PCOD9548218
_publ_section_title
;
Structure prediction by ZEFSAII (Michael W. Deem and Ramdas Pophale) SiO2 
 PCOD9548218
Probable space group: P 41 2 2
;
_chemical_formula_sum "Si O2"
_cell_formula_units_Z 40
_cell_length_a 9.049852
_cell_length_b 9.049852
_cell_length_c 22.018261
_cell_angle_alpha 90.000000
_cell_angle_beta 90.000000
_cell_angle_gamma 90.000000
_cell_volume 1803.291640
_symmetry_space_group_name_H-M "P 41 2 2"
_symmetry_group_IT_number 91
_symmetry_cell_setting 'tetragonal'
loop_
_space_group_symop_operation_xyz
x,y,z
-y,x,1/4+z
-x,-y,1/2+z
y,-x,3/4+z
x,-y,1/2-z
-x,y,-z
y,x,3/4-z
-y,-x,1/4-z
loop_
_atom_site_type_symbol
_atom_site_label
_atom_site_fract_x
_atom_site_fract_y
_atom_site_fract_z
Si Si1 0.670113 0.015241 0.948038
Si Si2 0.194382 0.156170 0.554685
Si Si3 0.587470 0.000000 0.750000
Si Si4 0.500000 0.718098 0.500000
Si Si5 0.034688 0.965313 0.125000
Si Si6 0.322446 0.322446 0.875000
Si Si7 0.024288 0.401193 0.109905
O O1 0.525999 0.978018 0.910655
O O2 0.804450 0.993600 0.901659
O O3 0.632953 0.174013 0.977138
O O4 0.704665 0.899342 0.000581
O O5 0.114703 0.305550 0.534578
O O6 0.073393 0.027628 0.567853
O O7 0.285282 0.144467 0.616708
O O8 0.479654 0.928105 0.798540
O O9 0.573193 0.648689 0.436358
O O10 0.344969 0.147352 0.857774
#
# Coordination Sequence:
#
# PCOD9548218 Si02
#       7
#     8   8   4   4   4   4   8
#     4  11  19  40  64 100 146 185 228 309 381 436
#     4  12  22  40  70 107 145 186 242 298 382 440
#     4  12  26  46  68 108 156 190 242 312 378 454
#     4  10  22  38  74  98 150 196 256 322 388 476
#     4  12  23  36  70 113 142 182 245 320 373 440
#     4  10  21  44  70 103 146 200 259 316 395 470
#     4  11  24  45  69 106 150 194 239 312 381 453
#
# _framework density 22.181657000000001
#
# number of rings (size 3 to 8) (size 9 to 14) (size 15 to 20)
#    0.000    0.800    8.000    0.600    0.000    1.600 
#    0.000    0.000    4.400    2.400    0.000    0.000 
#    0.000    0.000    0.000    0.000    0.000    0.000 
#
# Total GULP energy -222880.828429 kJ/mol
# GULP energy per Si atom -5572.020711 kJ/mol
# Density = 2.213117 g / cm^3
# Si number density = 22.181657 Si / 1000 Ang^3
#
#
#
# Elastic Constant Matrix: (Units=GPa)
#
#
# Indices 1 2 3 4 5 6 
#
# 1 79.9764 36.4781 57.3270 0.0000 0.0000 0.0000
# 2 36.4781 79.9758 57.3268 0.0000 0.0000 0.0000
# 3 57.3270 57.3268 153.2774 0.0000 0.0000 0.0000
# 4 0.0000 0.0000 0.0000 158.2360 0.0000 0.0000
# 5 0.0000 0.0000 0.0000 0.0000 158.2236 0.0000
# 6 0.0000 0.0000 0.0000 0.0000 0.0000 23.2425
#
#
#
# Elastic Compliance Matrix: (Units=1/GPa)
#
#
# Indices 1 2 3 4 5 6 
#
# 1 0.018291 -0.004699 -0.005083 0.000000 0.000000 0.000000
# 2 -0.004699 0.018291 -0.005084 0.000000 0.000000 0.000000
# 3 -0.005083 -0.005084 0.010327 0.000000 0.000000 0.000000
# 4 0.000000 0.000000 0.000000 0.006320 0.000000 0.000000
# 5 0.000000 0.000000 0.000000 0.000000 0.006320 0.000000
# 6 0.000000 0.000000 0.000000 0.000000 0.000000 0.043025
#
#
# Mechanical properties :
#
#
# Convention : Reuss Voigt Hill
#
# Bulk Modulus (GPa) = 58.21875 68.38816 63.30346
# Shear Modulus (GPa) = 36.22405 78.74692 57.48549
#
# Velocity S-wave (km/s) = 4.04550 5.96473 5.09628
# Velocity P-wave (km/s) = 6.93720 8.85072 7.95173
#
# Compressibility (1/GPa) = 0.01717660
#
# Stress axis : x y z
#
# Youngs Moduli (GPa) = 54.67262 54.67220 96.83676
#
# Poissons Ratio (x) = 0.25689 0.49227
# Poissons Ratio (y) = 0.25690 0.49227
# Poissons Ratio (z) = 0.27793 0.27793
#
# Static dielectric constant tensor:
#      x y z
#    x 1.830890 0.000000 0.000000 
#    y 0.000000 1.830900 0.000000 
#    z 0.000000 0.000000 1.971480 
# 
# From -- ./inp_files/6883.got.cif
#   From: 2010.05.17/outbox.cif.g08.bks.cpg/sg91_4_cif.got.tgz:6883.got - 2010.06.03 19:20:03.
