data_PCOD9548117
_publ_section_title
;
Structure prediction by ZEFSAII (Michael W. Deem and Ramdas Pophale) SiO2 
 PCOD9548117
Probable space group: P 41 2 2
;
_chemical_formula_sum "Si O2"
_cell_formula_units_Z 32
_cell_length_a 13.062002
_cell_length_b 13.062002
_cell_length_c 10.689182
_cell_angle_alpha 90.000000
_cell_angle_beta 90.000000
_cell_angle_gamma 90.000000
_cell_volume 1823.744367
_symmetry_space_group_name_H-M "P 41 2 2"
_symmetry_group_IT_number 91
_symmetry_cell_setting 'tetragonal'
loop_
_space_group_symop_operation_xyz
x,y,z
-y,x,1/4+z
-x,-y,1/2+z
y,-x,3/4+z
x,-y,1/2-z
-x,y,-z
y,x,3/4-z
-y,-x,1/4-z
loop_
_atom_site_type_symbol
_atom_site_label
_atom_site_fract_x
_atom_site_fract_y
_atom_site_fract_z
Si Si1 0.655779 0.504497 0.106908
Si Si2 0.791913 0.318435 0.017660
Si Si3 0.000000 0.566609 0.500000
Si Si4 0.894705 0.500000 0.750000
Si Si5 0.315016 0.266007 0.508783
O O1 0.699790 0.500000 0.250000
O O2 0.542682 0.457319 0.125000
O O3 0.718654 0.420127 0.027350
O O4 0.658436 0.614385 0.040085
O O5 0.755663 0.244338 0.125000
O O6 0.771571 0.262815 0.886253
O O7 0.904468 0.361775 0.033790
O O8 0.962821 0.505103 0.623523
O O9 0.815633 0.406245 0.748964
O O10 0.262099 0.262099 0.375000
#
# Coordination Sequence:
#
# PCOD9548117 Si02
#       5
#     8   8   4   4   8
#     4  11  21  32  50  76 110 155 189 215 268 329
#     4  10  21  38  56  81 107 152 190 228 288 352
#     4  10  22  38  54  78 110 144 200 238 294 334
#     4  10  24  36  54  80 110 158 192 238 276 342
#     4  11  21  33  50  76 110 142 189 233 263 318
#
# _framework density 17.546319
#
# number of rings (size 3 to 8) (size 9 to 14) (size 15 to 20)
#    0.000    1.500    5.000    3.000    3.500    2.000 
#    0.000    0.000    0.000    0.000    0.000    7.000 
#    0.000    0.000    0.000    0.000    0.000    0.000 
#
# Total GULP energy -178220.731514 kJ/mol
# GULP energy per Si atom -5569.397860 kJ/mol
# Density = 1.750638 g / cm^3
# Si number density = 17.546319 Si / 1000 Ang^3
#
#
#
# Elastic Constant Matrix: (Units=GPa)
#
#
# Indices 1 2 3 4 5 6 
#
# 1 65.4416 4.4773 35.5137 0.0000 0.0000 0.0000
# 2 4.4773 65.4407 35.5140 0.0000 0.0000 0.0000
# 3 35.5137 35.5140 171.7473 0.0000 0.0000 0.0000
# 4 0.0000 0.0000 0.0000 25.3040 0.0000 0.0000
# 5 0.0000 0.0000 0.0000 0.0000 25.3042 0.0000
# 6 0.0000 0.0000 0.0000 0.0000 0.0000 7.9615
#
#
#
# Elastic Compliance Matrix: (Units=1/GPa)
#
#
# Indices 1 2 3 4 5 6 
#
# 1 0.017254 0.000851 -0.003744 0.000000 0.000000 0.000000
# 2 0.000851 0.017255 -0.003744 0.000000 0.000000 0.000000
# 3 -0.003744 -0.003744 0.007371 0.000000 0.000000 0.000000
# 4 0.000000 0.000000 0.000000 0.039519 0.000000 0.000000
# 5 0.000000 0.000000 0.000000 0.000000 0.039519 0.000000
# 6 0.000000 0.000000 0.000000 0.000000 0.000000 0.125604
#
#
# Mechanical properties :
#
#
# Convention : Reuss Voigt Hill
#
# Bulk Modulus (GPa) = 34.95697 50.40441 42.68069
# Shear Modulus (GPa) = 18.56450 26.85557 22.71004
#
# Velocity S-wave (km/s) = 3.25626 3.91647 3.60153
# Velocity P-wave (km/s) = 5.83983 7.01716 6.45539
#
# Compressibility (1/GPa) = 0.02860659
#
# Stress axis : x y z
#
# Youngs Moduli (GPa) = 57.95673 57.95566 135.67002
#
# Poissons Ratio (x) = -0.04933 0.50793
# Poissons Ratio (y) = -0.04933 0.50794
# Poissons Ratio (z) = 0.21698 0.21698
#
# Static dielectric constant tensor:
#      x y z
#    x 1.590140 0.000000 0.000000 
#    y 0.000000 1.590140 0.000000 
#    z 0.000000 0.000000 1.733650 
# 
# From -- ./inp_files/20000.got.cif
#   From: 2010.05.17/outbox.cif.g08.bks.cpg/sg91_10_cif.got.tgz:20000.got - 2010.06.03 19:20:03.
