data_PCOD9548774
_publ_section_title
;
Structure prediction by ZEFSAII (Michael W. Deem and Ramdas Pophale) SiO2 
 PCOD9548774
Probable space group: P 41 2 2
;
_chemical_formula_sum "Si O2"
_cell_formula_units_Z 60
_cell_length_a 17.060541
_cell_length_b 17.060541
_cell_length_c 9.000998
_cell_angle_alpha 90.000000
_cell_angle_beta 90.000000
_cell_angle_gamma 90.000000
_cell_volume 2619.849013
_symmetry_space_group_name_H-M "P 41 2 2"
_symmetry_group_IT_number 91
_symmetry_cell_setting 'tetragonal'
loop_
_space_group_symop_operation_xyz
x,y,z
-y,x,1/4+z
-x,-y,1/2+z
y,-x,3/4+z
x,-y,1/2-z
-x,y,-z
y,x,3/4-z
-y,-x,1/4-z
loop_
_atom_site_type_symbol
_atom_site_label
_atom_site_fract_x
_atom_site_fract_y
_atom_site_fract_z
Si Si1 0.110410 0.110410 0.875000
Si Si2 0.007652 0.807008 0.831391
Si Si3 0.588641 0.311144 0.511043
Si Si4 0.882819 0.254183 0.895110
Si Si5 0.548075 0.140343 0.636393
Si Si6 0.081549 0.418875 0.941810
Si Si7 0.109920 0.347570 0.634363
Si Si8 0.277330 0.290589 0.698406
O O1 0.037270 0.121623 0.768769
O O2 0.187086 0.107967 0.769798
O O3 0.073178 0.737907 0.840124
O O4 0.933558 0.769277 0.747324
O O5 0.000000 0.832587 0.000000
O O6 0.500000 0.340395 0.500000
O O7 0.639230 0.360771 0.625000
O O8 0.580261 0.221765 0.571211
O O9 0.637566 0.315066 0.358670
O O10 0.791088 0.260294 0.864450
O O11 0.907165 0.336859 0.969434
O O12 0.500000 0.102854 0.500000
O O13 0.480173 0.148525 0.761274
O O14 0.617350 0.095455 0.721020
O O15 0.078705 0.400557 0.768550
O O16 0.000000 0.453259 0.000000
O O17 0.203926 0.344521 0.656737
O O18 0.276654 0.276654 0.875000
#
# Coordination Sequence:
#
# PCOD9548774 Si02
#       8
#     4   8   8   8   8   8   8   8
#     4  12  22  48  70 106 144 192 244 314 380 430
#     4  12  28  42  74 113 149 192 258 317 379 461
#     4  11  25  48  72 104 146 190 245 322 376 444
#     4  12  21  45  75 109 149 190 251 314 383 440
#     4  11  27  44  67 104 152 200 241 297 371 449
#     4  12  23  43  70 106 156 205 233 301 377 466
#     4  12  24  46  70 112 146 198 255 299 368 463
#     4  12  23  43  79 109 140 192 256 313 380 447
#
# _framework density 22.902083999999999
#
# number of rings (size 3 to 8) (size 9 to 14) (size 15 to 20)
#    0.000    0.267    7.333    2.400    3.733    2.133 
#    0.000    1.333    0.000    6.400    0.000    0.000 
#    0.000    0.000    0.000    0.000    0.000    0.000 
#
# Total GULP energy -335830.695154 kJ/mol
# GULP energy per Si atom -5597.178253 kJ/mol
# Density = 2.284996 g / cm^3
# Si number density = 22.902084 Si / 1000 Ang^3
#
#
#
# Elastic Constant Matrix: (Units=GPa)
#
#
# Indices 1 2 3 4 5 6 
#
# 1 84.6223 27.6943 43.2074 0.0000 0.0000 0.0000
# 2 27.6943 84.6237 43.2076 0.0000 0.0000 0.0000
# 3 43.2074 43.2076 131.8019 0.0000 0.0000 0.0000
# 4 0.0000 0.0000 0.0000 29.8642 0.0000 0.0000
# 5 0.0000 0.0000 0.0000 0.0000 29.8634 0.0000
# 6 0.0000 0.0000 0.0000 0.0000 0.0000 25.9541
#
#
#
# Elastic Compliance Matrix: (Units=1/GPa)
#
#
# Indices 1 2 3 4 5 6 
#
# 1 0.014736 -0.002830 -0.003903 0.000000 0.000000 0.000000
# 2 -0.002830 0.014736 -0.003903 0.000000 0.000000 0.000000
# 3 -0.003903 -0.003903 0.010146 0.000000 0.000000 0.000000
# 4 0.000000 0.000000 0.000000 0.033485 0.000000 0.000000
# 5 0.000000 0.000000 0.000000 0.000000 0.033486 0.000000
# 6 0.000000 0.000000 0.000000 0.000000 0.000000 0.038530
#
#
# Mechanical properties :
#
#
# Convention : Reuss Voigt Hill
#
# Bulk Modulus (GPa) = 54.50684 58.80738 56.65711
# Shear Modulus (GPa) = 28.98448 29.59894 29.29171
#
# Velocity S-wave (km/s) = 3.56136 3.59891 3.58019
# Velocity P-wave (km/s) = 6.38457 6.55767 6.47170
#
# Compressibility (1/GPa) = 0.01834632
#
# Stress axis : x y z
#
# Youngs Moduli (GPa) = 67.85994 67.86120 98.55883
#
# Poissons Ratio (x) = 0.19203 0.38469
# Poissons Ratio (y) = 0.19202 0.38469
# Poissons Ratio (z) = 0.26487 0.26487
#
# Static dielectric constant tensor:
#      x y z
#    x 1.875900 0.000000 0.000000 
#    y 0.000000 1.875900 0.000000 
#    z 0.000000 0.000000 1.878760 
# 
# From -- ./inp_files/15313.got.cif
#   From: 2010.05.17/outbox.cif.g08.bks.cpg/sg91_8_cif.got.tgz:15313.got - 2010.06.03 19:20:03.
