data_PCOD9548149
_publ_section_title
;
Structure prediction by ZEFSAII (Michael W. Deem and Ramdas Pophale) SiO2 
 PCOD9548149
Probable space group: P 41 2 2
;
_chemical_formula_sum "Si O2"
_cell_formula_units_Z 40
_cell_length_a 19.317822
_cell_length_b 19.317822
_cell_length_c 5.168450
_cell_angle_alpha 90.000000
_cell_angle_beta 90.000000
_cell_angle_gamma 90.000000
_cell_volume 1928.753110
_symmetry_space_group_name_H-M "P 41 2 2"
_symmetry_group_IT_number 91
_symmetry_cell_setting 'tetragonal'
loop_
_space_group_symop_operation_xyz
x,y,z
-y,x,1/4+z
-x,-y,1/2+z
y,-x,3/4+z
x,-y,1/2-z
-x,y,-z
y,x,3/4-z
-y,-x,1/4-z
loop_
_atom_site_type_symbol
_atom_site_label
_atom_site_fract_x
_atom_site_fract_y
_atom_site_fract_z
Si Si1 0.809581 0.080430 0.750270
Si Si2 0.452931 0.000000 0.250000
Si Si3 0.807207 0.807207 0.375000
Si Si4 0.424157 0.575844 0.125000
Si Si5 0.637975 0.637975 0.375000
Si Si6 0.207869 0.336706 0.013169
Si Si7 0.879219 0.654613 0.986623
O O1 0.867455 0.132546 0.625000
O O2 0.729626 0.087985 0.657528
O O3 0.829912 0.000000 0.750000
O O4 0.801666 0.114101 0.034071
O O5 0.401632 0.063555 0.201782
O O6 0.500000 0.012115 0.500000
O O7 0.789733 0.746163 0.577803
O O8 0.416405 0.500000 0.250000
O O9 0.409560 0.624195 0.374140
O O10 0.716422 0.632691 0.478003
O O11 0.168369 0.338688 0.740185
O O12 0.165802 0.370133 0.243814
#
# Coordination Sequence:
#
# PCOD9548149 Si02
#       7
#     8   4   4   4   4   8   8
#     4  11  22  40  62  95 133 179 238 285 342 415
#     4  12  26  46  68  98 136 178 230 284 346 424
#     4   9  20  36  61  92 128 173 224 278 329 406
#     4  12  25  46  71  98 142 187 228 259 326 422
#     4  11  23  42  70 108 132 178 224 289 337 394
#     4  10  21  39  70  98 134 168 227 285 340 393
#     4  11  22  43  68  99 130 185 226 278 347 427
#
# _framework density 20.738789000000001
#
# number of rings (size 3 to 8) (size 9 to 14) (size 15 to 20)
#    0.000    1.200    3.000    3.600    0.000    0.800 
#    1.800   10.000    0.000    0.000    0.000    0.000 
#    0.000    0.000    0.000    0.000    0.000    0.000 
#
# Total GULP energy -223045.287790 kJ/mol
# GULP energy per Si atom -5576.132195 kJ/mol
# Density = 2.069159 g / cm^3
# Si number density = 20.738789 Si / 1000 Ang^3
#
#
#
# Elastic Constant Matrix: (Units=GPa)
#
#
# Indices 1 2 3 4 5 6 
#
# 1 59.5768 97.1731 26.7189 0.0000 0.0000 0.0000
# 2 97.1731 59.5742 26.7183 0.0000 0.0000 0.0000
# 3 26.7189 26.7183 83.4012 0.0000 0.0000 0.0000
# 4 0.0000 0.0000 0.0000 26.0816 0.0000 0.0000
# 5 0.0000 0.0000 0.0000 0.0000 26.0818 0.0000
# 6 0.0000 0.0000 0.0000 0.0000 0.0000 27.6599
#
#
#
# Elastic Compliance Matrix: (Units=1/GPa)
#
#
# Indices 1 2 3 4 5 6 
#
# 1 -0.009718 0.016880 -0.002294 0.000000 0.000000 0.000000
# 2 0.016880 -0.009718 -0.002294 0.000000 0.000000 0.000000
# 3 -0.002294 -0.002294 0.013460 0.000000 0.000000 0.000000
# 4 0.000000 0.000000 0.000000 0.038341 0.000000 0.000000
# 5 0.000000 0.000000 0.000000 0.000000 0.038341 0.000000
# 6 0.000000 0.000000 0.000000 0.000000 0.000000 0.036153
#
#
# Mechanical properties :
#
#
# Convention : Reuss Voigt Hill
#
# Bulk Modulus (GPa) = 53.74485 55.97474 54.85980
# Shear Modulus (GPa) = 56.50961 19.42746 37.96854
#
# Velocity S-wave (km/s) = 5.22565 3.06399 4.28342
# Velocity P-wave (km/s) = 7.89818 6.29018 7.13959
#
# Compressibility (1/GPa) = 0.01860643
#
# Stress axis : x y z
#
# Youngs Moduli (GPa) = -102.90597 -102.90138 74.29251
#
# Poissons Ratio (x) = 1.73694 0.17045
# Poissons Ratio (y) = 1.73702 0.17046
# Poissons Ratio (z) = -0.23610 -0.23610
#
# Static dielectric constant tensor:
#      x y z
#    x 1.768130 0.000000 0.000000 
#    y 0.000000 1.768130 0.000000 
#    z 0.000000 0.000000 1.809910 
# 
# From -- ./inp_files/935.got.cif
#   From: 2010.05.17/outbox.cif.g08.bks.cpg/sg91_1_cif.got.tgz:935.got - 2010.06.03 19:20:03.
