data_PCOD9548602
_publ_section_title
;
Structure prediction by ZEFSAII (Michael W. Deem and Ramdas Pophale) SiO2 
 PCOD9548602
Probable space group: P 41 2 2
;
_chemical_formula_sum "Si O2"
_cell_formula_units_Z 56
_cell_length_a 11.635057
_cell_length_b 11.635057
_cell_length_c 20.777551
_cell_angle_alpha 90.000000
_cell_angle_beta 90.000000
_cell_angle_gamma 90.000000
_cell_volume 2812.751646
_symmetry_space_group_name_H-M "P 41 2 2"
_symmetry_group_IT_number 91
_symmetry_cell_setting 'tetragonal'
loop_
_space_group_symop_operation_xyz
x,y,z
-y,x,1/4+z
-x,-y,1/2+z
y,-x,3/4+z
x,-y,1/2-z
-x,y,-z
y,x,3/4-z
-y,-x,1/4-z
loop_
_atom_site_type_symbol
_atom_site_label
_atom_site_fract_x
_atom_site_fract_y
_atom_site_fract_z
Si Si1 0.776400 0.776400 0.375000
Si Si2 0.725085 0.452263 0.052584
Si Si3 0.864514 0.121748 0.912903
Si Si4 0.896943 0.615372 0.548994
Si Si5 0.825009 0.402024 0.343433
Si Si6 0.637796 0.500000 0.250000
Si Si7 0.561299 0.956406 0.059313
Si Si8 0.991065 0.173228 0.210079
O O1 0.648745 0.780392 0.347075
O O2 0.809819 0.863232 0.430995
O O3 0.769249 0.564876 0.088123
O O4 0.589113 0.433340 0.043874
O O5 0.783338 0.431430 0.984424
O O6 0.901083 0.247101 0.940332
O O7 0.727279 0.129973 0.904138
O O8 0.931808 0.111906 0.844982
O O9 0.880686 0.027235 0.969327
O O10 0.904312 0.563308 0.619863
O O11 0.000000 0.584472 0.500000
O O12 0.722795 0.421732 0.292586
O O13 0.925623 0.489160 0.320974
O O14 0.693753 0.969441 0.037946
O O15 0.500000 0.893913 0.000000
#
# Coordination Sequence:
#
# PCOD9548602 Si02
#       8
#     4   8   8   8   8   4   8   8
#     4  12  18  34  58  94 126 146 196 270 334 370
#     4  12  21  34  60  93 127 163 203 265 325 378
#     4  11  23  36  59  93 131 161 211 260 331 386
#     4  11  21  36  59  97 122 152 208 271 325 370
#     4  12  19  35  59  88 129 165 200 258 315 382
#     4  12  20  32  54  90 134 156 200 252 326 388
#     4  11  20  34  58  91 122 161 209 264 317 363
#     4  11  22  35  59  94 128 161 205 274 324 382
#
# _framework density 19.909331000000002
#
# number of rings (size 3 to 8) (size 9 to 14) (size 15 to 20)
#    0.000    0.571    9.286    0.857    0.000    0.000 
#    0.000    0.000    6.286    3.429    0.000    0.000 
#    0.000    0.000    0.000    0.000    0.000    0.000 
#
# Total GULP energy -312562.117055 kJ/mol
# GULP energy per Si atom -5581.466376 kJ/mol
# Density = 1.986402 g / cm^3
# Si number density = 19.909331 Si / 1000 Ang^3
#
#
#
# Elastic Constant Matrix: (Units=GPa)
#
#
# Indices 1 2 3 4 5 6 
#
# 1 68.1174 24.7833 50.8051 0.0000 0.0000 0.0000
# 2 24.7833 68.1174 50.8051 0.0000 0.0000 0.0000
# 3 50.8051 50.8051 162.4490 0.0000 0.0000 0.0000
# 4 0.0000 0.0000 0.0000 35.8074 0.0000 0.0000
# 5 0.0000 0.0000 0.0000 0.0000 35.8074 0.0000
# 6 0.0000 0.0000 0.0000 0.0000 0.0000 4.4125
#
#
#
# Elastic Compliance Matrix: (Units=1/GPa)
#
#
# Indices 1 2 3 4 5 6 
#
# 1 0.019719 -0.003358 -0.005117 0.000000 0.000000 0.000000
# 2 -0.003358 0.019719 -0.005117 0.000000 0.000000 0.000000
# 3 -0.005117 -0.005117 0.009356 0.000000 0.000000 0.000000
# 4 0.000000 0.000000 0.000000 0.027927 0.000000 0.000000
# 5 0.000000 0.000000 0.000000 0.000000 0.027927 0.000000
# 6 0.000000 0.000000 0.000000 0.000000 0.000000 0.226630
#
#
# Mechanical properties :
#
#
# Convention : Reuss Voigt Hill
#
# Bulk Modulus (GPa) = 46.27363 61.27455 53.77409
# Shear Modulus (GPa) = 13.67378 26.69148 20.18263
#
# Velocity S-wave (km/s) = 2.62353 3.66546 3.18736
# Velocity P-wave (km/s) = 5.69824 6.98268 6.37290
#
# Compressibility (1/GPa) = 0.02161058
#
# Stress axis : x y z
#
# Youngs Moduli (GPa) = 50.71370 50.71370 106.88092
#
# Poissons Ratio (x) = 0.17030 0.54688
# Poissons Ratio (y) = 0.17030 0.54688
# Poissons Ratio (z) = 0.25949 0.25949
#
# Static dielectric constant tensor:
#      x y z
#    x 1.731930 0.000000 0.000000 
#    y 0.000000 1.731930 0.000000 
#    z 0.000000 0.000000 1.773010 
# 
# From -- ./inp_files/17343.got.cif
#   From: 2010.05.17/outbox.cif.g08.bks.cpg/sg91_9_cif.got.tgz:17343.got - 2010.06.03 19:20:03.
