data_PCOD9548038
_publ_section_title
;
Structure prediction by ZEFSAII (Michael W. Deem and Ramdas Pophale) SiO2 
 PCOD9548038
Probable space group: P 41 2 2
;
_chemical_formula_sum "Si O2"
_cell_formula_units_Z 40
_cell_length_a 11.458591
_cell_length_b 11.458591
_cell_length_c 14.811579
_cell_angle_alpha 90.000000
_cell_angle_beta 90.000000
_cell_angle_gamma 90.000000
_cell_volume 1944.750069
_symmetry_space_group_name_H-M "P 41 2 2"
_symmetry_group_IT_number 91
_symmetry_cell_setting 'tetragonal'
loop_
_space_group_symop_operation_xyz
x,y,z
-y,x,1/4+z
-x,-y,1/2+z
y,-x,3/4+z
x,-y,1/2-z
-x,y,-z
y,x,3/4-z
-y,-x,1/4-z
loop_
_atom_site_type_symbol
_atom_site_label
_atom_site_fract_x
_atom_site_fract_y
_atom_site_fract_z
Si Si1 0.262363 0.083112 0.835818
Si Si2 0.432480 0.247976 0.412061
Si Si3 0.268776 0.944326 0.006904
Si Si4 0.744558 0.898550 0.676613
Si Si5 0.140455 0.507717 0.516810
O O1 0.150651 0.150651 0.875000
O O2 0.368702 0.168556 0.811809
O O3 0.233823 0.000000 0.750000
O O4 0.313065 0.008074 0.918302
O O5 0.500000 0.292144 0.500000
O O6 0.339396 0.339396 0.375000
O O7 0.365318 0.131335 0.442721
O O8 0.507872 0.208453 0.327340
O O9 0.227814 0.040821 0.080391
O O10 0.178932 0.849345 0.966217
O O11 0.615654 0.838401 0.681110
O O12 0.734261 0.000000 0.750000
O O13 0.000000 0.512926 0.500000
#
# Coordination Sequence:
#
# PCOD9548038 Si02
#       5
#     8   8   8   8   8
#     4  11  25  44  63  97 138 182 221 273 342 407
#     4  12  23  41  68  94 125 169 223 284 335 395
#     4  12  23  39  68  95 136 176 220 274 337 401
#     4  11  21  38  64 101 131 169 222 275 330 398
#     4  10  20  41  65  93 127 165 222 273 320 397
#
# _framework density 20.568193999999998
#
# number of rings (size 3 to 8) (size 9 to 14) (size 15 to 20)
#    0.000    0.800    6.000    4.200    0.000    2.400 
#    0.000    2.000    0.000    0.000    0.000    0.000 
#    0.000    0.000    0.000    0.000    0.000    0.000 
#
# Total GULP energy -223241.332565 kJ/mol
# GULP energy per Si atom -5581.033314 kJ/mol
# Density = 2.052138 g / cm^3
# Si number density = 20.568194 Si / 1000 Ang^3
#
#
#
# Elastic Constant Matrix: (Units=GPa)
#
#
# Indices 1 2 3 4 5 6 
#
# 1 52.6632 30.9921 49.8139 0.0000 0.0000 0.0000
# 2 30.9921 52.6632 49.8139 0.0000 0.0000 0.0000
# 3 49.8139 49.8139 157.4994 0.0000 0.0000 0.0000
# 4 0.0000 0.0000 0.0000 31.2166 0.0000 0.0000
# 5 0.0000 0.0000 0.0000 0.0000 31.2166 0.0000
# 6 0.0000 0.0000 0.0000 0.0000 0.0000 20.2093
#
#
#
# Elastic Compliance Matrix: (Units=1/GPa)
#
#
# Indices 1 2 3 4 5 6 
#
# 1 0.032661 -0.013483 -0.006065 0.000000 0.000000 0.000000
# 2 -0.013483 0.032661 -0.006065 0.000000 0.000000 0.000000
# 3 -0.006065 -0.006065 0.010186 0.000000 0.000000 0.000000
# 4 0.000000 0.000000 0.000000 0.032034 0.000000 0.000000
# 5 0.000000 0.000000 0.000000 0.000000 0.032034 0.000000
# 6 0.000000 0.000000 0.000000 0.000000 0.000000 0.049482
#
#
# Mechanical properties :
#
#
# Convention : Reuss Voigt Hill
#
# Bulk Modulus (GPa) = 41.18792 58.22950 49.70871
# Shear Modulus (GPa) = 20.13047 25.34222 22.73634
#
# Velocity S-wave (km/s) = 3.13184 3.51395 3.32838
# Velocity P-wave (km/s) = 5.75729 6.69594 6.24428
#
# Compressibility (1/GPa) = 0.02427897
#
# Stress axis : x y z
#
# Youngs Moduli (GPa) = 30.61778 30.61778 98.17442
#
# Poissons Ratio (x) = 0.41283 0.59547
# Poissons Ratio (y) = 0.41283 0.59547
# Poissons Ratio (z) = 0.18571 0.18571
#
# Static dielectric constant tensor:
#      x y z
#    x 1.796710 0.000000 0.000000 
#    y 0.000000 1.796710 0.000000 
#    z 0.000000 0.000000 1.683760 
# 
# From -- ./inp_files/4717.got.cif
#   From: 2010.05.17/outbox.cif.g08.bks.cpg/sg91_3_cif.got.tgz:4717.got - 2010.06.03 19:20:03.
