data_PCOD9548367
_publ_section_title
;
Structure prediction by ZEFSAII (Michael W. Deem and Ramdas Pophale) SiO2 
 PCOD9548367
Probable space group: P 41 2 2
;
_chemical_formula_sum "Si O2"
_cell_formula_units_Z 48
_cell_length_a 8.421371
_cell_length_b 8.421371
_cell_length_c 29.374922
_cell_angle_alpha 90.000000
_cell_angle_beta 90.000000
_cell_angle_gamma 90.000000
_cell_volume 2083.254473
_symmetry_space_group_name_H-M "P 41 2 2"
_symmetry_group_IT_number 91
_symmetry_cell_setting 'tetragonal'
loop_
_space_group_symop_operation_xyz
x,y,z
-y,x,1/4+z
-x,-y,1/2+z
y,-x,3/4+z
x,-y,1/2-z
-x,y,-z
y,x,3/4-z
-y,-x,1/4-z
loop_
_atom_site_type_symbol
_atom_site_label
_atom_site_fract_x
_atom_site_fract_y
_atom_site_fract_z
Si Si1 0.323174 0.900292 0.565456
Si Si2 0.397976 0.397976 0.375000
Si Si3 0.208063 0.681297 0.034129
Si Si4 0.119813 0.500000 0.250000
Si Si5 0.250192 0.400740 0.637821
Si Si6 0.146319 0.044403 0.162050
Si Si7 0.641869 0.683247 0.239276
O O1 0.420034 0.811384 0.605171
O O2 0.275199 0.772553 0.526943
O O3 0.459959 0.009281 0.542746
O O4 0.176662 0.012463 0.577764
O O5 0.360144 0.285519 0.333198
O O6 0.385630 0.582705 0.361721
O O7 0.342035 0.780725 0.008293
O O8 0.055520 0.786316 0.045662
O O9 0.201133 0.509400 0.010282
O O10 0.284530 0.329239 0.688481
O O11 0.126305 0.296776 0.610999
O O12 0.072446 0.927555 0.125000
O O13 0.589882 0.500000 0.250000
#
# Coordination Sequence:
#
# PCOD9548367 Si02
#       7
#     8   4   8   4   8   8   8
#     4  11  24  43  68 100 142 185 229 294 367 415
#     4  10  22  42  76  96 130 182 244 280 326 430
#     4  11  23  41  71 103 135 179 242 288 345 429
#     4  12  22  42  72  92 136 184 228 290 342 432
#     4  10  22  43  71  99 133 187 234 278 352 429
#     4  12  27  43  67 108 147 180 224 300 368 415
#     4   9  19  43  71  97 129 184 240 288 339 426
#
# _framework density 23.040873000000001
#
# number of rings (size 3 to 8) (size 9 to 14) (size 15 to 20)
#    0.000    1.333    4.167    2.000    5.833    0.667 
#    0.000    0.000    7.333    0.000    0.000    0.000 
#    0.000    0.000    0.000    0.000    0.000    0.000 
#
# Total GULP energy -268656.417611 kJ/mol
# GULP energy per Si atom -5597.008700 kJ/mol
# Density = 2.298843 g / cm^3
# Si number density = 23.040873 Si / 1000 Ang^3
#
#
#
# Elastic Constant Matrix: (Units=GPa)
#
#
# Indices 1 2 3 4 5 6 
#
# 1 122.2955 57.2044 42.2847 0.0000 0.0000 0.0000
# 2 57.2044 122.2949 42.2846 0.0000 0.0000 0.0000
# 3 42.2847 42.2846 59.8600 0.0000 0.0000 0.0000
# 4 0.0000 0.0000 0.0000 27.7190 0.0000 0.0000
# 5 0.0000 0.0000 0.0000 0.0000 27.7184 0.0000
# 6 0.0000 0.0000 0.0000 0.0000 0.0000 49.7028
#
#
#
# Elastic Compliance Matrix: (Units=1/GPa)
#
#
# Indices 1 2 3 4 5 6 
#
# 1 0.011857 -0.003507 -0.005898 0.000000 0.000000 0.000000
# 2 -0.003507 0.011857 -0.005898 0.000000 0.000000 0.000000
# 3 -0.005898 -0.005898 0.025039 0.000000 0.000000 0.000000
# 4 0.000000 0.000000 0.000000 0.036076 0.000000 0.000000
# 5 0.000000 0.000000 0.000000 0.000000 0.036077 0.000000
# 6 0.000000 0.000000 0.000000 0.000000 0.000000 0.020120
#
#
# Mechanical properties :
#
#
# Convention : Reuss Voigt Hill
#
# Bulk Modulus (GPa) = 55.11074 65.33308 60.22191
# Shear Modulus (GPa) = 28.14047 31.87316 30.00681
#
# Velocity S-wave (km/s) = 3.49854 3.72335 3.61270
# Velocity P-wave (km/s) = 6.34747 6.84845 6.60271
#
# Compressibility (1/GPa) = 0.01814528
#
# Stress axis : x y z
#
# Youngs Moduli (GPa) = 84.34165 84.34118 39.93800
#
# Poissons Ratio (x) = 0.29575 0.23557
# Poissons Ratio (y) = 0.29575 0.23557
# Poissons Ratio (z) = 0.49748 0.49748
#
# Static dielectric constant tensor:
#      x y z
#    x 1.857470 0.000000 0.000000 
#    y 0.000000 1.857470 0.000000 
#    z 0.000000 0.000000 1.891090 
# 
# From -- ./inp_files/22289.got.cif
#   From: 2010.05.17/outbox.cif.g08.bks.cpg/sg91_12_cif.got.tgz:22289.got - 2010.06.03 19:20:03.
