data_PCOD9548608
_publ_section_title
;
Structure prediction by ZEFSAII (Michael W. Deem and Ramdas Pophale) SiO2 
 PCOD9548608
Probable space group: P 41 2 2
;
_chemical_formula_sum "Si O2"
_cell_formula_units_Z 48
_cell_length_a 14.309306
_cell_length_b 14.309306
_cell_length_c 13.106008
_cell_angle_alpha 90.000000
_cell_angle_beta 90.000000
_cell_angle_gamma 90.000000
_cell_volume 2683.536896
_symmetry_space_group_name_H-M "P 41 2 2"
_symmetry_group_IT_number 91
_symmetry_cell_setting 'tetragonal'
loop_
_space_group_symop_operation_xyz
x,y,z
-y,x,1/4+z
-x,-y,1/2+z
y,-x,3/4+z
x,-y,1/2-z
-x,y,-z
y,x,3/4-z
-y,-x,1/4-z
loop_
_atom_site_type_symbol
_atom_site_label
_atom_site_fract_x
_atom_site_fract_y
_atom_site_fract_z
Si Si1 0.069771 0.442217 0.149237
Si Si2 0.474892 0.328247 0.886269
Si Si3 0.891297 0.722323 0.985877
Si Si4 0.487628 0.127919 0.187334
Si Si5 0.353821 0.391061 0.256846
Si Si6 0.717380 0.163487 0.496868
O O1 0.096850 0.500000 0.250000
O O2 0.085682 0.334379 0.179163
O O3 0.966045 0.475375 0.116840
O O4 0.130677 0.469748 0.051267
O O5 0.373584 0.373584 0.875000
O O6 0.479156 0.217732 0.873187
O O7 0.553874 0.366326 0.808291
O O8 0.500000 0.356909 0.000000
O O9 0.865457 0.706322 0.866161
O O10 0.873835 0.624550 0.045724
O O11 0.824503 0.806934 0.020860
O O12 0.000000 0.743793 0.000000
O O13 0.336341 0.500000 0.250000
O O14 0.368023 0.368023 0.375000
O O15 0.261119 0.335876 0.224473
#
# Coordination Sequence:
#
# PCOD9548608 Si02
#       6
#     8   8   8   8   8   8
#     4  11  21  37  62  90 122 160 211 268 325 379
#     4  12  26  40  54  85 127 172 213 250 319 391
#     4  11  20  38  61  96 125 153 212 278 336 379
#     4  11  22  38  60  86 127 167 210 261 313 394
#     4  12  23  37  59  85 124 170 214 258 307 385
#     4  11  22  35  62  95 122 159 211 272 332 383
#
# _framework density 17.886842000000001
#
# number of rings (size 3 to 8) (size 9 to 14) (size 15 to 20)
#    0.000    0.667    6.667    3.000    4.667    0.000 
#    0.000    0.000    0.000    0.000   21.667    0.000 
#    0.000    0.000    0.000    0.000    0.000    0.000 
#
# Total GULP energy -267999.827968 kJ/mol
# GULP energy per Si atom -5583.329749 kJ/mol
# Density = 1.784613 g / cm^3
# Si number density = 17.886842 Si / 1000 Ang^3
#
#
#
# Elastic Constant Matrix: (Units=GPa)
#
#
# Indices 1 2 3 4 5 6 
#
# 1 91.7327 37.2421 6.1284 0.0000 0.0000 0.0000
# 2 37.2421 91.7327 6.1284 0.0000 0.0000 0.0000
# 3 6.1284 6.1284 52.4093 0.0000 0.0000 0.0000
# 4 0.0000 0.0000 0.0000 -8.2919 0.0000 0.0000
# 5 0.0000 0.0000 0.0000 0.0000 -8.2919 0.0000
# 6 0.0000 0.0000 0.0000 0.0000 0.0000 36.9053
#
#
#
# Elastic Compliance Matrix: (Units=1/GPa)
#
#
# Indices 1 2 3 4 5 6 
#
# 1 0.013096 -0.005256 -0.000917 0.000000 0.000000 0.000000
# 2 -0.005256 0.013096 -0.000917 0.000000 0.000000 0.000000
# 3 -0.000917 -0.000917 0.019295 0.000000 0.000000 0.000000
# 4 0.000000 0.000000 0.000000 -0.120599 0.000000 0.000000
# 5 0.000000 0.000000 0.000000 0.000000 -0.120599 0.000000
# 6 0.000000 0.000000 0.000000 0.000000 0.000000 0.027096
#
#
# Mechanical properties :
#
#
# Convention : Reuss Voigt Hill
#
# Bulk Modulus (GPa) = 31.93985 37.20806 34.57395
# Shear Modulus (GPa) = -34.72224 16.48933 -9.11646
#
# Velocity S-wave (km/s) = -4.41070 3.03952 -2.26005
# Velocity P-wave (km/s) = 2.83614 5.75894 3.54413
#
# Compressibility (1/GPa) = 0.03130885
#
# Stress axis : x y z
#
# Youngs Moduli (GPa) = 76.35805 76.35805 51.82684
#
# Poissons Ratio (x) = 0.40131 0.04752
# Poissons Ratio (y) = 0.40131 0.04752
# Poissons Ratio (z) = 0.07001 0.07001
#
# Static dielectric constant tensor:
#      x y z
#    x 1.646160 0.000000 0.000000 
#    y 0.000000 1.646160 0.000000 
#    z 0.000000 0.000000 1.572720 
# 
# From -- ./inp_files/3816.got.cif
#   From: 2010.05.17/outbox.cif.g08.bks.cpg/sg91_2_cif.got.tgz:3816.got - 2010.06.03 19:20:03.
