data_PCOD9548998
_publ_section_title
;
Structure prediction by ZEFSAII (Michael W. Deem and Ramdas Pophale) SiO2 
 PCOD9548998
Probable space group: P 41 21 2
;
_chemical_formula_sum "Si O2"
_cell_formula_units_Z 48
_cell_length_a 7.451536
_cell_length_b 7.451536
_cell_length_c 34.416381
_cell_angle_alpha 90.000000
_cell_angle_beta 90.000000
_cell_angle_gamma 90.000000
_cell_volume 1910.982935
_symmetry_space_group_name_H-M "P 41 21 2"
_symmetry_group_IT_number 92
_symmetry_cell_setting 'tetragonal'
loop_
_space_group_symop_operation_xyz
x,y,z
1/2-y,1/2+x,1/4+z
-x,-y,1/2+z
1/2+y,1/2-x,3/4+z
1/2+x,1/2-y,3/4-z
1/2-x,1/2+y,1/4-z
y,x,-z
-y,-x,1/2-z
loop_
_atom_site_type_symbol
_atom_site_label
_atom_site_fract_x
_atom_site_fract_y
_atom_site_fract_z
Si Si1 0.978420 0.682522 0.292318
Si Si2 0.332595 0.332595 0.500000
Si Si3 0.731151 0.087575 0.562457
Si Si4 0.940941 0.288834 0.324401
Si Si5 0.947104 0.373354 0.460247
Si Si6 0.684086 0.315915 0.750000
Si Si7 0.536733 0.396190 0.346524
O O1 0.919976 0.674676 0.246789
O O2 0.184292 0.735606 0.285745
O O3 0.805236 0.776802 0.311755
O O4 0.002099 0.488332 0.312916
O O5 0.339830 0.459290 0.536956
O O6 0.133050 0.349636 0.483687
O O7 0.539317 0.994561 0.568467
O O8 0.890293 0.031992 0.591497
O O9 0.791543 0.011483 0.519618
O O10 0.731318 0.329134 0.332662
O O11 0.011621 0.184163 0.361266
O O12 0.903538 0.201873 0.434074
#
# Coordination Sequence:
#
# PCOD9548998 Si02
#       7
#     8   4   8   8   8   4   8
#     4   9  19  36  56  88 119 152 210 253 297 381
#     4   8  16  36  58  84 114 158 200 246 302 362
#     4  10  20  35  58  85 120 160 197 249 312 354
#     4   9  19  35  61  85 121 159 204 255 310 375
#     4   9  18  35  59  85 118 155 201 255 298 365
#     4  10  20  34  62  88 118 158 204 256 304 372
#     4  10  20  36  58  87 118 159 202 249 312 372
#
# _framework density 25.117964000000001
#
# number of rings (size 3 to 8) (size 9 to 14) (size 15 to 20)
#    0.000    2.667    0.000    2.000    2.333    2.000 
#    3.000    6.667    3.667    0.000    0.000    0.000 
#    0.000    0.000    0.000    0.000    0.000    0.000 
#
# Total GULP energy -267845.802849 kJ/mol
# GULP energy per Si atom -5580.120893 kJ/mol
# Density = 2.506079 g / cm^3
# Si number density = 25.117964 Si / 1000 Ang^3
#
#
#
# Elastic Constant Matrix: (Units=GPa)
#
#
# Indices 1 2 3 4 5 6 
#
# 1 37.1960 20.0443 -8.1025 0.0000 0.0000 0.0000
# 2 20.0443 37.1958 -8.1025 0.0000 0.0000 0.0000
# 3 -8.1025 -8.1025 69.7653 0.0000 0.0000 0.0000
# 4 0.0000 0.0000 0.0000 219.2291 0.0000 0.0000
# 5 0.0000 0.0000 0.0000 0.0000 219.2345 0.0000
# 6 0.0000 0.0000 0.0000 0.0000 0.0000 23.4448
#
#
#
# Elastic Compliance Matrix: (Units=1/GPa)
#
#
# Indices 1 2 3 4 5 6 
#
# 1 0.038184 -0.020120 0.002098 0.000000 0.000000 0.000000
# 2 -0.020120 0.038184 0.002098 0.000000 0.000000 0.000000
# 3 0.002098 0.002098 0.014821 0.000000 0.000000 0.000000
# 4 0.000000 0.000000 0.000000 0.004561 0.000000 0.000000
# 5 0.000000 0.000000 0.000000 0.000000 0.004561 0.000000
# 6 0.000000 0.000000 0.000000 0.000000 0.000000 0.042653
#
#
# Mechanical properties :
#
#
# Convention : Reuss Voigt Hill
#
# Bulk Modulus (GPa) = 16.85165 16.87062 16.86114
# Shear Modulus (GPa) = 25.69463 101.73621 63.71542
#
# Velocity S-wave (km/s) = 3.20184 6.37113 5.04198
# Velocity P-wave (km/s) = 4.51582 7.80082 6.37360
#
# Compressibility (1/GPa) = 0.05934136
#
# Stress axis : x y z
#
# Youngs Moduli (GPa) = 26.18910 26.18895 67.47139
#
# Poissons Ratio (x) = 0.52692 -0.14155
# Poissons Ratio (y) = 0.52692 -0.14155
# Poissons Ratio (z) = -0.05494 -0.05494
#
# Static dielectric constant tensor:
#      x y z
#    x 2.056280 0.000000 0.000000 
#    y 0.000000 2.056280 0.000000 
#    z 0.000000 0.000000 1.614670 
# 
# From -- ./inp_files/4573.got.cif
#   From: 2010.05.17/outbox.cif.g08.bks.cpg/sg92_3_cif.got.tgz:4573.got - 2010.06.03 19:35:17.
