data_PCOD9548660
_publ_section_title
;
Structure prediction by ZEFSAII (Michael W. Deem and Ramdas Pophale) SiO2 
 PCOD9548660
Probable space group: P 41 2 2
;
_chemical_formula_sum "Si O2"
_cell_formula_units_Z 48
_cell_length_a 14.072561
_cell_length_b 14.072561
_cell_length_c 11.169218
_cell_angle_alpha 90.000000
_cell_angle_beta 90.000000
_cell_angle_gamma 90.000000
_cell_volume 2211.918125
_symmetry_space_group_name_H-M "P 41 2 2"
_symmetry_group_IT_number 91
_symmetry_cell_setting 'tetragonal'
loop_
_space_group_symop_operation_xyz
x,y,z
-y,x,1/4+z
-x,-y,1/2+z
y,-x,3/4+z
x,-y,1/2-z
-x,y,-z
y,x,3/4-z
-y,-x,1/4-z
loop_
_atom_site_type_symbol
_atom_site_label
_atom_site_fract_x
_atom_site_fract_y
_atom_site_fract_z
Si Si1 0.404498 0.899906 0.582032
Si Si2 0.675347 0.100740 0.688556
Si Si3 0.613220 0.619950 0.510396
Si Si4 0.482600 0.214489 0.689965
Si Si5 0.790269 0.266262 0.340459
Si Si6 0.325773 0.104689 0.583066
O O1 0.500000 0.908322 0.500000
O O2 0.435811 0.832780 0.690686
O O3 0.315864 0.856235 0.508348
O O4 0.370292 0.004260 0.619196
O O5 0.583709 0.167507 0.681646
O O6 0.739664 0.153710 0.784993
O O7 0.710729 0.090766 0.552846
O O8 0.649681 0.000000 0.750000
O O9 0.500000 0.611747 0.500000
O O10 0.644133 0.644133 0.375000
O O11 0.672090 0.526737 0.548096
O O12 0.656079 0.703999 0.591823
O O13 0.414267 0.177659 0.585082
O O14 0.747148 0.160295 0.329498
#
# Coordination Sequence:
#
# PCOD9548660 Si02
#       6
#     8   8   8   8   8   8
#     4  12  20  40  68  95 129 177 223 270 332 401
#     4  12  21  40  64  90 127 170 221 273 330 391
#     4  11  22  40  60  88 128 176 223 256 314 397
#     4  11  22  36  63  94 126 168 225 275 317 376
#     4  11  23  38  62  93 127 168 212 274 328 402
#     4  11  24  36  58  98 132 159 212 284 337 373
#
# _framework density 21.700623
#
# number of rings (size 3 to 8) (size 9 to 14) (size 15 to 20)
#    0.000    0.667    5.000    5.000    0.000    0.000 
#    0.000    5.000    0.000    1.000    0.000   14.000 
#    0.000    0.000    0.000    0.000    0.000    0.000 
#
# Total GULP energy -267834.981799 kJ/mol
# GULP energy per Si atom -5579.895454 kJ/mol
# Density = 2.165123 g / cm^3
# Si number density = 21.700623 Si / 1000 Ang^3
#
#
#
# Elastic Constant Matrix: (Units=GPa)
#
#
# Indices 1 2 3 4 5 6 
#
# 1 104.1406 34.9101 12.6857 0.0000 0.0000 0.0000
# 2 34.9101 104.1406 12.6857 0.0000 0.0000 0.0000
# 3 12.6857 12.6857 101.2449 0.0000 0.0000 0.0000
# 4 0.0000 0.0000 0.0000 24.6345 0.0000 0.0000
# 5 0.0000 0.0000 0.0000 0.0000 24.6345 0.0000
# 6 0.0000 0.0000 0.0000 0.0000 0.0000 31.4117
#
#
#
# Elastic Compliance Matrix: (Units=1/GPa)
#
#
# Indices 1 2 3 4 5 6 
#
# 1 0.010902 -0.003542 -0.000922 0.000000 0.000000 0.000000
# 2 -0.003542 0.010902 -0.000922 0.000000 0.000000 0.000000
# 3 -0.000922 -0.000922 0.010108 0.000000 0.000000 0.000000
# 4 0.000000 0.000000 0.000000 0.040594 0.000000 0.000000
# 5 0.000000 0.000000 0.000000 0.000000 0.040594 0.000000
# 6 0.000000 0.000000 0.000000 0.000000 0.000000 0.031835
#
#
# Mechanical properties :
#
#
# Convention : Reuss Voigt Hill
#
# Bulk Modulus (GPa) = 47.30547 47.78768 47.54658
# Shear Modulus (GPa) = 30.72111 32.75243 31.73677
#
# Velocity S-wave (km/s) = 3.76663 3.88917 3.82839
# Velocity P-wave (km/s) = 6.38460 6.49897 6.44204
#
# Compressibility (1/GPa) = 0.02113920
#
# Stress axis : x y z
#
# Youngs Moduli (GPa) = 91.72465 91.72465 98.93029
#
# Poissons Ratio (x) = 0.32492 0.09123
# Poissons Ratio (y) = 0.32492 0.09123
# Poissons Ratio (z) = 0.08459 0.08459
#
# Static dielectric constant tensor:
#      x y z
#    x 1.817680 0.000000 0.000000 
#    y 0.000000 1.817680 0.000000 
#    z 0.000000 0.000000 1.885880 
# 
# From -- ./inp_files/10758.got.cif
#   From: 2010.05.17/outbox.cif.g08.bks.cpg/sg91_6_cif.got.tgz:10758.got - 2010.06.03 19:20:03.
