data_PCOD9548658
_publ_section_title
;
Structure prediction by ZEFSAII (Michael W. Deem and Ramdas Pophale) SiO2 
 PCOD9548658
Probable space group: P 41 2 2
;
_chemical_formula_sum "Si O2"
_cell_formula_units_Z 32
_cell_length_a 17.523662
_cell_length_b 17.523662
_cell_length_c 5.304374
_cell_angle_alpha 90.000000
_cell_angle_beta 90.000000
_cell_angle_gamma 90.000000
_cell_volume 1628.860431
_symmetry_space_group_name_H-M "P 41 2 2"
_symmetry_group_IT_number 91
_symmetry_cell_setting 'tetragonal'
loop_
_space_group_symop_operation_xyz
x,y,z
-y,x,1/4+z
-x,-y,1/2+z
y,-x,3/4+z
x,-y,1/2-z
-x,y,-z
y,x,3/4-z
-y,-x,1/4-z
loop_
_atom_site_type_symbol
_atom_site_label
_atom_site_fract_x
_atom_site_fract_y
_atom_site_fract_z
Si Si1 0.428677 0.861599 0.329005
Si Si2 0.189507 0.691011 0.533315
Si Si3 0.417280 0.294242 0.462840
Si Si4 0.047647 0.672016 0.241138
O O1 0.500000 0.882645 0.500000
O O2 0.352352 0.855672 0.496843
O O3 0.437328 0.776187 0.222947
O O4 0.410057 0.920642 0.106336
O O5 0.237179 0.762822 0.625000
O O6 0.249542 0.627277 0.434702
O O7 0.127920 0.711644 0.318285
O O8 0.500000 0.331204 0.500000
O O9 0.356453 0.356453 0.375000
O O10 0.000000 0.668686 0.500000
O O11 0.000000 0.702783 0.000000
#
# Coordination Sequence:
#
# PCOD9548658 Si02
#       4
#     8   8   8   8
#     4  11  22  40  63  87 123 169 217 265 321 386
#     4  11  22  40  65  89 119 169 221 262 318 389
#     4  11  22  36  59  87 120 163 222 284 333 383
#     4  11  24  44  61  93 131 167 207 266 322 386
#
# _framework density 19.645636
#
# number of rings (size 3 to 8) (size 9 to 14) (size 15 to 20)
#    0.000    1.000    7.500    0.000    0.000    0.000 
#    4.500    2.500    0.000    0.000    0.000    0.000 
#    0.000    0.000    8.500    1.500    0.000    0.000 
#
# Total GULP energy -178434.644091 kJ/mol
# GULP energy per Si atom -5576.082628 kJ/mol
# Density = 1.960092 g / cm^3
# Si number density = 19.645636 Si / 1000 Ang^3
#
#
#
# Elastic Constant Matrix: (Units=GPa)
#
#
# Indices 1 2 3 4 5 6 
#
# 1 81.0991 36.7093 40.4477 0.0000 0.0000 0.0000
# 2 36.7093 81.0979 40.4475 0.0000 0.0000 0.0000
# 3 40.4477 40.4475 112.0818 0.0000 0.0000 0.0000
# 4 0.0000 0.0000 0.0000 30.6432 0.0000 0.0000
# 5 0.0000 0.0000 0.0000 0.0000 30.6450 0.0000
# 6 0.0000 0.0000 0.0000 0.0000 0.0000 0.4050
#
#
#
# Elastic Compliance Matrix: (Units=1/GPa)
#
#
# Indices 1 2 3 4 5 6 
#
# 1 0.016906 -0.005622 -0.004072 0.000000 0.000000 0.000000
# 2 -0.005622 0.016907 -0.004072 0.000000 0.000000 0.000000
# 3 -0.004072 -0.004072 0.011861 0.000000 0.000000 0.000000
# 4 0.000000 0.000000 0.000000 0.032634 0.000000 0.000000
# 5 0.000000 0.000000 0.000000 0.000000 0.032632 0.000000
# 6 0.000000 0.000000 0.000000 0.000000 0.000000 2.469358
#
#
# Mechanical properties :
#
#
# Convention : Reuss Voigt Hill
#
# Bulk Modulus (GPa) = 55.12288 56.60976 55.86632
# Shear Modulus (GPa) = 1.91287 22.78359 12.34823
#
# Velocity S-wave (km/s) = 0.98783 3.40917 2.50981
# Velocity P-wave (km/s) = 5.42407 6.66143 6.07434
#
# Compressibility (1/GPa) = 0.01814129
#
# Stress axis : x y z
#
# Youngs Moduli (GPa) = 59.14957 59.14871 84.30763
#
# Poissons Ratio (x) = 0.33251 0.34333
# Poissons Ratio (y) = 0.33252 0.34334
# Poissons Ratio (z) = 0.24088 0.24088
#
# Static dielectric constant tensor:
#      x y z
#    x 1.722570 0.000000 0.000000 
#    y 0.000000 1.722580 0.000000 
#    z 0.000000 0.000000 1.806360 
# 
# From -- ./inp_files/662.got.cif
#   From: 2010.05.17/outbox.cif.g08.bks.cpg/sg91_1_cif.got.tgz:662.got - 2010.06.03 19:20:03.
