data_PCOD9548070
_publ_section_title
;
Structure prediction by ZEFSAII (Michael W. Deem and Ramdas Pophale) SiO2 
 PCOD9548070
Probable space group: P 41 2 2
;
_chemical_formula_sum "Si O2"
_cell_formula_units_Z 48
_cell_length_a 10.152249
_cell_length_b 10.152249
_cell_length_c 20.736645
_cell_angle_alpha 90.000000
_cell_angle_beta 90.000000
_cell_angle_gamma 90.000000
_cell_volume 2137.287840
_symmetry_space_group_name_H-M "P 41 2 2"
_symmetry_group_IT_number 91
_symmetry_cell_setting 'tetragonal'
loop_
_space_group_symop_operation_xyz
x,y,z
-y,x,1/4+z
-x,-y,1/2+z
y,-x,3/4+z
x,-y,1/2-z
-x,y,-z
y,x,3/4-z
-y,-x,1/4-z
loop_
_atom_site_type_symbol
_atom_site_label
_atom_site_fract_x
_atom_site_fract_y
_atom_site_fract_z
Si Si1 0.318049 0.538772 0.025742
Si Si2 0.181542 0.949353 0.682106
Si Si3 0.465718 0.939624 0.858525
Si Si4 0.761075 0.700080 0.238419
Si Si5 0.518142 0.518142 0.375000
Si Si6 0.613117 0.217135 0.852052
Si Si7 0.500000 0.998995 0.500000
O O1 0.346726 0.388790 0.001888
O O2 0.448402 0.563107 0.066949
O O3 0.187308 0.516562 0.069789
O O4 0.273706 0.637471 0.969306
O O5 0.078870 0.921131 0.625000
O O6 0.315034 0.024851 0.660830
O O7 0.233630 0.811540 0.708334
O O8 0.120869 0.000000 0.750000
O O9 0.549687 0.073236 0.844709
O O10 0.486412 0.919487 0.934758
O O11 0.779474 0.718679 0.160110
O O12 0.892321 0.617411 0.251665
O O13 0.488627 0.672461 0.378773
#
# Coordination Sequence:
#
# PCOD9548070 Si02
#       7
#     8   8   8   8   4   8   4
#     4  11  21  38  55  91 129 173 211 252 321 391
#     4  12  22  38  64  93 125 159 215 283 332 382
#     4  11  21  36  62  92 125 167 213 261 324 382
#     4  10  21  33  57  93 121 155 207 253 327 365
#     4  10  24  36  58  92 132 168 208 264 326 376
#     4  10  21  34  58  87 126 161 204 255 315 385
#     4  10  22  36  56  92 124 162 198 274 310 400
#
# _framework density 22.458371
#
# number of rings (size 3 to 8) (size 9 to 14) (size 15 to 20)
#    0.000    1.333    5.000    1.000    8.167    0.000 
#    6.000    0.000    0.000    4.000    0.000    0.000 
#    0.000    0.000    0.000    0.000    0.000    0.000 
#
# Total GULP energy -267318.427217 kJ/mol
# GULP energy per Si atom -5569.133900 kJ/mol
# Density = 2.240725 g / cm^3
# Si number density = 22.458371 Si / 1000 Ang^3
#
#
#
# Elastic Constant Matrix: (Units=GPa)
#
#
# Indices 1 2 3 4 5 6 
#
# 1 66.1988 11.7058 3.5872 0.0000 0.0000 0.0000
# 2 11.7058 66.1983 3.5869 0.0000 0.0000 0.0000
# 3 3.5872 3.5869 112.5874 0.0000 0.0000 0.0000
# 4 0.0000 0.0000 0.0000 34.2984 0.0000 0.0000
# 5 0.0000 0.0000 0.0000 0.0000 34.2982 0.0000
# 6 0.0000 0.0000 0.0000 0.0000 0.0000 20.1970
#
#
#
# Elastic Compliance Matrix: (Units=1/GPa)
#
#
# Indices 1 2 3 4 5 6 
#
# 1 0.015612 -0.002739 -0.000410 0.000000 0.000000 0.000000
# 2 -0.002739 0.015613 -0.000410 0.000000 0.000000 0.000000
# 3 -0.000410 -0.000410 0.008908 0.000000 0.000000 0.000000
# 4 0.000000 0.000000 0.000000 0.029156 0.000000 0.000000
# 5 0.000000 0.000000 0.000000 0.000000 0.029156 0.000000
# 6 0.000000 0.000000 0.000000 0.000000 0.000000 0.049512
#
#
# Mechanical properties :
#
#
# Convention : Reuss Voigt Hill
#
# Bulk Modulus (GPa) = 30.28881 31.41604 30.85242
# Shear Modulus (GPa) = 30.10593 32.83238 31.46915
#
# Velocity S-wave (km/s) = 3.66529 3.82766 3.74735
# Velocity P-wave (km/s) = 5.60610 5.79254 5.70008
#
# Compressibility (1/GPa) = 0.03301550
#
# Stress axis : x y z
#
# Youngs Moduli (GPa) = 64.05132 64.05080 112.25707
#
# Poissons Ratio (x) = 0.17540 0.04605
# Poissons Ratio (y) = 0.17541 0.04604
# Poissons Ratio (z) = 0.02627 0.02627
#
# Static dielectric constant tensor:
#      x y z
#    x 1.873280 0.000000 0.000000 
#    y 0.000000 1.873280 0.000000 
#    z 0.000000 0.000000 2.008310 
# 
# From -- ./inp_files/21486.got.cif
#   From: 2010.05.17/outbox.cif.g08.bks.cpg/sg91_11_cif.got.tgz:21486.got - 2010.06.03 19:20:03.
