data_PCOD9548194
_publ_section_title
;
Structure prediction by ZEFSAII (Michael W. Deem and Ramdas Pophale) SiO2 
 PCOD9548194
Probable space group: P 41 2 2
;
_chemical_formula_sum "Si O2"
_cell_formula_units_Z 36
_cell_length_a 8.963210
_cell_length_b 8.963210
_cell_length_c 20.846724
_cell_angle_alpha 90.000000
_cell_angle_beta 90.000000
_cell_angle_gamma 90.000000
_cell_volume 1674.807743
_symmetry_space_group_name_H-M "P 41 2 2"
_symmetry_group_IT_number 91
_symmetry_cell_setting 'tetragonal'
loop_
_space_group_symop_operation_xyz
x,y,z
-y,x,1/4+z
-x,-y,1/2+z
y,-x,3/4+z
x,-y,1/2-z
-x,y,-z
y,x,3/4-z
-y,-x,1/4-z
loop_
_atom_site_type_symbol
_atom_site_label
_atom_site_fract_x
_atom_site_fract_y
_atom_site_fract_z
Si Si1 0.347343 0.323331 0.257064
Si Si2 0.706800 0.146857 0.871064
Si Si3 0.722011 0.427754 0.179060
Si Si4 0.827074 0.329667 0.988575
Si Si5 0.812237 0.812237 0.875000
O O1 0.360611 0.500000 0.250000
O O2 0.289486 0.244978 0.192710
O O3 0.508064 0.247897 0.270486
O O4 0.237744 0.284864 0.314566
O O5 0.533694 0.155168 0.896262
O O6 0.796858 0.229735 0.926815
O O7 0.772290 0.983583 0.860742
O O8 0.693670 0.500000 0.250000
O O9 0.590444 0.409557 0.125000
O O10 0.747153 0.257617 0.200960
O O11 0.000000 0.349331 0.000000
#
# Coordination Sequence:
#
# PCOD9548194 Si02
#       5
#     8   8   8   8   4
#     4  12  25  45  74 103 141 191 255 311 361 450
#     4  11  25  46  71 107 147 195 244 310 373 456
#     4  10  21  41  74 105 146 194 259 312 368 449
#     4  11  24  44  71 108 148 192 244 305 383 446
#     4  12  28  48  68 106 152 192 242 308 394 444
#
# _framework density 21.495003000000001
#
# number of rings (size 3 to 8) (size 9 to 14) (size 15 to 20)
#    0.000    0.889    2.222    5.333    0.000    4.444 
#   10.000    0.000    0.000    0.000    0.000    0.000 
#    0.000    0.000    0.000    0.000    0.000    0.000 
#
# Total GULP energy -201120.926116 kJ/mol
# GULP energy per Si atom -5586.692392 kJ/mol
# Density = 2.144608 g / cm^3
# Si number density = 21.495003 Si / 1000 Ang^3
#
#
#
# Elastic Constant Matrix: (Units=GPa)
#
#
# Indices 1 2 3 4 5 6 
#
# 1 135.7067 69.8129 35.4038 0.0000 0.0000 0.0000
# 2 69.8129 135.7064 35.4036 0.0000 0.0000 0.0000
# 3 35.4038 35.4036 131.0197 0.0000 0.0000 0.0000
# 4 0.0000 0.0000 0.0000 15.9055 0.0000 0.0000
# 5 0.0000 0.0000 0.0000 0.0000 15.9057 0.0000
# 6 0.0000 0.0000 0.0000 0.0000 0.0000 23.0224
#
#
#
# Elastic Compliance Matrix: (Units=1/GPa)
#
#
# Indices 1 2 3 4 5 6 
#
# 1 0.010271 -0.004905 -0.001450 0.000000 0.000000 0.000000
# 2 -0.004905 0.010271 -0.001450 0.000000 0.000000 0.000000
# 3 -0.001450 -0.001450 0.008416 0.000000 0.000000 0.000000
# 4 0.000000 0.000000 0.000000 0.062871 0.000000 0.000000
# 5 0.000000 0.000000 0.000000 0.000000 0.062870 0.000000
# 6 0.000000 0.000000 0.000000 0.000000 0.000000 0.043436
#
#
# Mechanical properties :
#
#
# Convention : Reuss Voigt Hill
#
# Bulk Modulus (GPa) = 74.92162 75.96372 75.44267
# Shear Modulus (GPa) = 22.91542 28.42089 25.66815
#
# Velocity S-wave (km/s) = 3.26863 3.64016 3.45939
# Velocity P-wave (km/s) = 7.01258 7.28592 7.15056
#
# Compressibility (1/GPa) = 0.01334728
#
# Stress axis : x y z
#
# Youngs Moduli (GPa) = 97.36552 97.36534 118.82205
#
# Poissons Ratio (x) = 0.47761 0.17227
# Poissons Ratio (y) = 0.47761 0.17226
# Poissons Ratio (z) = 0.14116 0.14116
#
# Static dielectric constant tensor:
#      x y z
#    x 1.796920 0.000000 0.000000 
#    y 0.000000 1.796930 0.000000 
#    z 0.000000 0.000000 1.816150 
# 
# From -- ./inp_files/21373.got.cif
#   From: 2010.05.17/outbox.cif.g08.bks.cpg/sg91_11_cif.got.tgz:21373.got - 2010.06.03 19:20:03.
