data_PCOD9548311
_publ_section_title
;
Structure prediction by ZEFSAII (Michael W. Deem and Ramdas Pophale) SiO2 
 PCOD9548311
Probable space group: P 41 2 2
;
_chemical_formula_sum "Si O2"
_cell_formula_units_Z 20
_cell_length_a 8.205755
_cell_length_b 8.205755
_cell_length_c 10.528363
_cell_angle_alpha 90.000000
_cell_angle_beta 90.000000
_cell_angle_gamma 90.000000
_cell_volume 708.921165
_symmetry_space_group_name_H-M "P 41 2 2"
_symmetry_group_IT_number 91
_symmetry_cell_setting 'tetragonal'
loop_
_space_group_symop_operation_xyz
x,y,z
-y,x,1/4+z
-x,-y,1/2+z
y,-x,3/4+z
x,-y,1/2-z
-x,y,-z
y,x,3/4-z
-y,-x,1/4-z
loop_
_atom_site_type_symbol
_atom_site_label
_atom_site_fract_x
_atom_site_fract_y
_atom_site_fract_z
Si Si1 0.716225 0.931095 0.619531
Si Si2 0.755207 0.398263 0.013992
Si Si3 0.811196 0.500000 0.750000
O O1 0.796450 0.788941 0.532999
O O2 0.537924 0.867404 0.671561
O O3 0.797744 0.000000 0.750000
O O4 0.657712 0.077628 0.529044
O O5 0.715727 0.470343 0.877560
O O6 0.629884 0.370117 0.125000
#
# Coordination Sequence:
#
# PCOD9548311 Si02
#       3
#     8   8   4
#     4  10  22  41  63  97 134 178 220 279 350 416
#     4  11  21  40  66  96 135 178 221 285 348 417
#     4  10  22  40  66  94 130 178 228 280 350 418
#
# _framework density 28.211877999999999
#
# number of rings (size 3 to 8) (size 9 to 14) (size 15 to 20)
#    0.000    1.600    4.000    0.000    0.000    6.400 
#   14.400    0.000    0.000   21.600    0.000    0.000 
#    0.000    0.000    0.000    0.000    0.000    0.000 
#
# Total GULP energy -111551.938019 kJ/mol
# GULP energy per Si atom -5577.596901 kJ/mol
# Density = 2.814767 g / cm^3
# Si number density = 28.211878 Si / 1000 Ang^3
#
#
#
# Elastic Constant Matrix: (Units=GPa)
#
#
# Indices 1 2 3 4 5 6 
#
# 1 103.1584 23.6487 40.1048 0.0000 0.0000 0.0000
# 2 23.6487 103.1588 40.1040 0.0000 0.0000 0.0000
# 3 40.1048 40.1040 265.9734 0.0000 0.0000 0.0000
# 4 0.0000 0.0000 0.0000 34.4281 0.0000 0.0000
# 5 0.0000 0.0000 0.0000 0.0000 34.4286 0.0000
# 6 0.0000 0.0000 0.0000 0.0000 0.0000 43.7396
#
#
#
# Elastic Compliance Matrix: (Units=1/GPa)
#
#
# Indices 1 2 3 4 5 6 
#
# 1 0.010647 -0.001930 -0.001314 0.000000 0.000000 0.000000
# 2 -0.001930 0.010647 -0.001314 0.000000 0.000000 0.000000
# 3 -0.001314 -0.001314 0.004156 0.000000 0.000000 0.000000
# 4 0.000000 0.000000 0.000000 0.029046 0.000000 0.000000
# 5 0.000000 0.000000 0.000000 0.000000 0.029046 0.000000
# 6 0.000000 0.000000 0.000000 0.000000 0.000000 0.022863
#
#
# Mechanical properties :
#
#
# Convention : Reuss Voigt Hill
#
# Bulk Modulus (GPa) = 61.22496 75.55617 68.39057
# Shear Modulus (GPa) = 41.33371 47.08147 44.20759
#
# Velocity S-wave (km/s) = 3.83184 4.08959 3.96281
# Velocity P-wave (km/s) = 6.42855 7.00996 6.72554
#
# Compressibility (1/GPa) = 0.01633321
#
# Stress axis : x y z
#
# Youngs Moduli (GPa) = 93.92089 93.92152 240.60631
#
# Poissons Ratio (x) = 0.18125 0.31627
# Poissons Ratio (y) = 0.18125 0.31626
# Poissons Ratio (z) = 0.12346 0.12345
#
# Static dielectric constant tensor:
#      x y z
#    x 2.345410 0.000000 0.000000 
#    y 0.000000 2.345410 0.000000 
#    z 0.000000 0.000000 2.078220 
# 
# From -- ./inp_files/10239.got.cif
#   From: 2010.05.17/outbox.cif.g08.bks.cpg/sg91_6_cif.got.tgz:10239.got - 2010.06.03 19:20:03.
