data_PCOD9548715
_publ_section_title
;
Structure prediction by ZEFSAII (Michael W. Deem and Ramdas Pophale) SiO2 
 PCOD9548715
Probable space group: P 41 2 2
;
_chemical_formula_sum "Si O2"
_cell_formula_units_Z 44
_cell_length_a 8.537748
_cell_length_b 8.537748
_cell_length_c 28.516514
_cell_angle_alpha 90.000000
_cell_angle_beta 90.000000
_cell_angle_gamma 90.000000
_cell_volume 2078.658273
_symmetry_space_group_name_H-M "P 41 2 2"
_symmetry_group_IT_number 91
_symmetry_cell_setting 'tetragonal'
loop_
_space_group_symop_operation_xyz
x,y,z
-y,x,1/4+z
-x,-y,1/2+z
y,-x,3/4+z
x,-y,1/2-z
-x,y,-z
y,x,3/4-z
-y,-x,1/4-z
loop_
_atom_site_type_symbol
_atom_site_label
_atom_site_fract_x
_atom_site_fract_y
_atom_site_fract_z
Si Si1 0.346666 0.583741 0.376488
Si Si2 0.122716 0.623125 0.938562
Si Si3 0.892660 0.000000 0.750000
Si Si4 0.327819 0.937185 0.483544
Si Si5 0.096923 0.652921 0.137054
Si Si6 0.675913 0.573636 0.512075
O O1 0.526745 0.526745 0.375000
O O2 0.329829 0.739515 0.346849
O O3 0.243272 0.455312 0.349094
O O4 0.305173 0.576987 0.431593
O O5 0.033008 0.774338 0.957691
O O6 0.990384 0.556268 0.904145
O O7 0.197923 0.523212 0.981181
O O8 0.985728 0.837087 0.752064
O O9 0.500000 0.998403 0.500000
O O10 0.319631 0.757767 0.500347
O O11 0.329157 0.971751 0.428145
O O12 0.181956 0.818045 0.125000
O O13 0.500000 0.514518 0.500000
#
# Coordination Sequence:
#
# PCOD9548715 Si02
#       6
#     8   8   4   8   8   8
#     4  11  23  41  68 100 138 183 238 300 357 439
#     4  12  24  43  72 103 139 185 244 303 367 444
#     4  12  26  42  70 106 140 188 248 298 368 454
#     4  11  25  46  69 100 148 194 235 304 377 450
#     4  11  23  44  66  99 142 185 237 295 369 444
#     4  11  24  43  70 103 140 186 242 302 370 446
#
# _framework density 21.167501999999999
#
# number of rings (size 3 to 8) (size 9 to 14) (size 15 to 20)
#    0.000    0.727    5.455    2.182    2.545    2.909 
#    0.000    0.000    0.000    0.000    0.000    0.000 
#    0.000    0.000    0.000    0.000    0.000    0.000 
#
# Total GULP energy -245047.616511 kJ/mol
# GULP energy per Si atom -5569.264012 kJ/mol
# Density = 2.111932 g / cm^3
# Si number density = 21.167502 Si / 1000 Ang^3
#
#
#
# Elastic Constant Matrix: (Units=GPa)
#
#
# Indices 1 2 3 4 5 6 
#
# 1 92.1354 36.5343 25.2346 0.0000 0.0000 0.0000
# 2 36.5343 92.1351 25.2349 0.0000 0.0000 0.0000
# 3 25.2346 25.2349 99.6759 0.0000 0.0000 0.0000
# 4 0.0000 0.0000 0.0000 20.4546 0.0000 0.0000
# 5 0.0000 0.0000 0.0000 0.0000 20.4548 0.0000
# 6 0.0000 0.0000 0.0000 0.0000 0.0000 33.0786
#
#
#
# Elastic Compliance Matrix: (Units=1/GPa)
#
#
# Indices 1 2 3 4 5 6 
#
# 1 0.013307 -0.004678 -0.002184 0.000000 0.000000 0.000000
# 2 -0.004678 0.013307 -0.002185 0.000000 0.000000 0.000000
# 3 -0.002184 -0.002185 0.011139 0.000000 0.000000 0.000000
# 4 0.000000 0.000000 0.000000 0.048889 0.000000 0.000000
# 5 0.000000 0.000000 0.000000 0.000000 0.048888 0.000000
# 6 0.000000 0.000000 0.000000 0.000000 0.000000 0.030231
#
#
# Mechanical properties :
#
#
# Convention : Reuss Voigt Hill
#
# Bulk Modulus (GPa) = 50.86997 50.88380 50.87688
# Shear Modulus (GPa) = 26.25940 27.92711 27.09326
#
# Velocity S-wave (km/s) = 3.52597 3.63621 3.58151
# Velocity P-wave (km/s) = 6.37659 6.45912 6.41799
#
# Compressibility (1/GPa) = 0.01965796
#
# Stress axis : x y z
#
# Youngs Moduli (GPa) = 75.14863 75.14823 89.77778
#
# Poissons Ratio (x) = 0.35157 0.19612
# Poissons Ratio (y) = 0.35157 0.19612
# Poissons Ratio (z) = 0.16416 0.16416
#
# Static dielectric constant tensor:
#      x y z
#    x 1.890880 0.000000 0.000000 
#    y 0.000000 1.890890 0.000000 
#    z 0.000000 0.000000 1.930970 
# 
# From -- ./inp_files/7825.got.cif
#   From: 2010.05.17/outbox.cif.g08.bks.cpg/sg91_4_cif.got.tgz:7825.got - 2010.06.03 19:20:03.
