data_PCOD9548467
_publ_section_title
;
Structure prediction by ZEFSAII (Michael W. Deem and Ramdas Pophale) SiO2 
 PCOD9548467
Probable space group: P 41 2 2
;
_chemical_formula_sum "Si O2"
_cell_formula_units_Z 64
_cell_length_a 11.572859
_cell_length_b 11.572859
_cell_length_c 24.314452
_cell_angle_alpha 90.000000
_cell_angle_beta 90.000000
_cell_angle_gamma 90.000000
_cell_volume 3256.460462
_symmetry_space_group_name_H-M "P 41 2 2"
_symmetry_group_IT_number 91
_symmetry_cell_setting 'tetragonal'
loop_
_space_group_symop_operation_xyz
x,y,z
-y,x,1/4+z
-x,-y,1/2+z
y,-x,3/4+z
x,-y,1/2-z
-x,y,-z
y,x,3/4-z
-y,-x,1/4-z
loop_
_atom_site_type_symbol
_atom_site_label
_atom_site_fract_x
_atom_site_fract_y
_atom_site_fract_z
Si Si1 0.215689 0.511472 0.894997
Si Si2 0.885968 0.283275 0.651815
Si Si3 0.278002 0.070927 0.193337
Si Si4 0.068654 0.237312 0.223928
Si Si5 0.612646 0.637080 0.260575
Si Si6 0.699968 0.834612 0.423211
Si Si7 0.468942 0.189900 0.557973
Si Si8 0.620863 0.432481 0.895433
O O1 0.144839 0.609396 0.926416
O O2 0.303236 0.453263 0.938808
O O3 0.140196 0.418765 0.860893
O O4 0.306680 0.562137 0.851401
O O5 0.770395 0.229606 0.625000
O O6 0.921016 0.226874 0.710084
O O7 0.866151 0.417700 0.665501
O O8 0.982959 0.261924 0.606733
O O9 0.165550 0.151976 0.199890
O O10 0.294954 0.000000 0.250000
O O11 0.102504 0.368440 0.207991
O O12 0.940833 0.229870 0.199049
O O13 0.594524 0.500000 0.250000
O O14 0.744594 0.667127 0.277687
O O15 0.555366 0.683015 0.204172
O O16 0.774249 0.774249 0.375000
O O17 0.500000 0.249312 0.500000
O O18 0.422441 0.284069 0.599023
O O19 0.531280 0.531280 0.875000
#
# Coordination Sequence:
#
# PCOD9548467 Si02
#       8
#     8   8   8   8   8   8   8   8
#     4  11  23  42  64  97 136 172 218 271 334 405
#     4  11  24  44  66  97 128 170 223 274 330 395
#     4  12  26  44  67  93 132 175 215 276 338 393
#     4  11  24  45  69  93 127 174 227 272 330 396
#     4  11  22  37  64  98 135 171 213 268 338 399
#     4  10  23  45  68  96 129 172 230 287 330 392
#     4  10  24  40  63  95 130 171 215 263 318 401
#     4  12  22  34  62  97 134 171 204 260 328 405
#
# _framework density 19.653238000000002
#
# number of rings (size 3 to 8) (size 9 to 14) (size 15 to 20)
#    0.000    1.000    5.000    1.500    5.250    2.000 
#    0.000    0.000    0.000    0.000    0.000    0.000 
#    0.000    0.000    0.000    0.000    0.000    0.000 
#
# Total GULP energy -356947.525381 kJ/mol
# GULP energy per Si atom -5577.305084 kJ/mol
# Density = 1.960851 g / cm^3
# Si number density = 19.653238 Si / 1000 Ang^3
#
#
#
# Elastic Constant Matrix: (Units=GPa)
#
#
# Indices 1 2 3 4 5 6 
#
# 1 76.2270 18.4263 35.3816 0.0000 0.0000 0.0000
# 2 18.4263 76.2269 35.3817 0.0000 0.0000 0.0000
# 3 35.3816 35.3817 131.9970 0.0000 0.0000 0.0000
# 4 0.0000 0.0000 0.0000 70.1777 0.0000 0.0000
# 5 0.0000 0.0000 0.0000 0.0000 70.3293 0.0000
# 6 0.0000 0.0000 0.0000 0.0000 0.0000 19.2849
#
#
#
# Elastic Compliance Matrix: (Units=1/GPa)
#
#
# Indices 1 2 3 4 5 6 
#
# 1 0.015257 -0.002044 -0.003542 0.000000 0.000000 0.000000
# 2 -0.002044 0.015257 -0.003542 0.000000 0.000000 0.000000
# 3 -0.003542 -0.003542 0.009475 0.000000 0.000000 0.000000
# 4 0.000000 0.000000 0.000000 0.014250 0.000000 0.000000
# 5 0.000000 0.000000 0.000000 0.000000 0.014219 0.000000
# 6 0.000000 0.000000 0.000000 0.000000 0.000000 0.051854
#
#
# Mechanical properties :
#
#
# Convention : Reuss Voigt Hill
#
# Bulk Modulus (GPa) = 46.01229 51.42556 48.71893
# Shear Modulus (GPa) = 34.29130 44.97581 39.63355
#
# Velocity S-wave (km/s) = 4.18163 4.78898 4.49558
# Velocity P-wave (km/s) = 6.83942 7.53674 7.19653
#
# Compressibility (1/GPa) = 0.02173332
#
# Stress axis : x y z
#
# Youngs Moduli (GPa) = 65.54491 65.54474 105.54552
#
# Poissons Ratio (x) = 0.13398 0.37380
# Poissons Ratio (y) = 0.13398 0.37380
# Poissons Ratio (z) = 0.23213 0.23214
#
# Static dielectric constant tensor:
#      x y z
#    x 1.718620 0.000000 0.000000 
#    y 0.000000 1.718620 0.000000 
#    z 0.000000 0.000000 1.748440 
# 
# From -- ./inp_files/21868.got.cif
#   From: 2010.05.17/outbox.cif.g08.bks.cpg/sg91_11_cif.got.tgz:21868.got - 2010.06.03 19:20:03.
