data_PCOD9548246
_publ_section_title
;
Structure prediction by ZEFSAII (Michael W. Deem and Ramdas Pophale) SiO2 
 PCOD9548246
Probable space group: P 41 2 2
;
_chemical_formula_sum "Si O2"
_cell_formula_units_Z 44
_cell_length_a 11.424096
_cell_length_b 11.424096
_cell_length_c 14.497766
_cell_angle_alpha 90.000000
_cell_angle_beta 90.000000
_cell_angle_gamma 90.000000
_cell_volume 1892.102997
_symmetry_space_group_name_H-M "P 41 2 2"
_symmetry_group_IT_number 91
_symmetry_cell_setting 'tetragonal'
loop_
_space_group_symop_operation_xyz
x,y,z
-y,x,1/4+z
-x,-y,1/2+z
y,-x,3/4+z
x,-y,1/2-z
-x,y,-z
y,x,3/4-z
-y,-x,1/4-z
loop_
_atom_site_type_symbol
_atom_site_label
_atom_site_fract_x
_atom_site_fract_y
_atom_site_fract_z
Si Si1 0.376601 0.956054 0.069735
Si Si2 0.365612 0.613125 0.494531
Si Si3 0.169033 0.500000 0.750000
Si Si4 0.804531 0.701896 0.665573
Si Si5 0.261060 0.395573 0.448030
Si Si6 0.043046 0.137362 0.603829
O O1 0.414430 0.858986 0.143639
O O2 0.443146 0.079885 0.072846
O O3 0.240216 0.985569 0.085964
O O4 0.379720 0.898360 0.967316
O O5 0.500000 0.567607 0.500000
O O6 0.396085 0.742941 0.533804
O O7 0.287523 0.641623 0.403585
O O8 0.294576 0.496647 0.520835
O O9 0.724661 0.749373 0.748310
O O10 0.862155 0.818871 0.626757
O O11 0.367083 0.367083 0.375000
O O12 0.000000 0.164683 0.500000
O O13 0.986898 0.013103 0.625000
#
# Coordination Sequence:
#
# PCOD9548246 Si02
#       6
#     8   8   4   8   8   8
#     4  11  20  39  63  95 132 170 227 286 338 412
#     4  10  23  37  56  88 135 178 209 270 347 425
#     4  10  22  36  56  84 132 180 210 264 340 418
#     4  11  22  39  65  96 128 170 228 277 345 417
#     4  10  22  36  63 100 128 165 225 283 346 412
#     4  12  20  36  64  99 131 163 213 288 348 392
#
# _framework density 23.254546999999999
#
# number of rings (size 3 to 8) (size 9 to 14) (size 15 to 20)
#    0.545    0.727    5.455    1.636    2.545    1.455 
#    0.000    0.000    0.000    5.455    0.000    0.000 
#    0.000    0.000    0.000    0.000    0.000    0.000 
#
# Total GULP energy -244976.918033 kJ/mol
# GULP energy per Si atom -5567.657228 kJ/mol
# Density = 2.320162 g / cm^3
# Si number density = 23.254547 Si / 1000 Ang^3
#
#
#
# Elastic Constant Matrix: (Units=GPa)
#
#
# Indices 1 2 3 4 5 6 
#
# 1 117.8486 58.0908 8.9985 0.0000 0.0000 0.0000
# 2 58.0908 117.8495 8.9980 0.0000 0.0000 0.0000
# 3 8.9985 8.9980 31.1526 0.0000 0.0000 0.0000
# 4 0.0000 0.0000 0.0000 30.7790 0.0000 0.0000
# 5 0.0000 0.0000 0.0000 0.0000 30.7784 0.0000
# 6 0.0000 0.0000 0.0000 0.0000 0.0000 20.6865
#
#
#
# Elastic Compliance Matrix: (Units=1/GPa)
#
#
# Indices 1 2 3 4 5 6 
#
# 1 0.011296 -0.005439 -0.001692 0.000000 0.000000 0.000000
# 2 -0.005439 0.011295 -0.001692 0.000000 0.000000 0.000000
# 3 -0.001692 -0.001692 0.033077 0.000000 0.000000 0.000000
# 4 0.000000 0.000000 0.000000 0.032490 0.000000 0.000000
# 5 0.000000 0.000000 0.000000 0.000000 0.032490 0.000000
# 6 0.000000 0.000000 0.000000 0.000000 0.000000 0.048341
#
#
# Mechanical properties :
#
#
# Convention : Reuss Voigt Hill
#
# Bulk Modulus (GPa) = 26.29909 46.55835 36.42872
# Shear Modulus (GPa) = 25.08684 29.16635 27.12659
#
# Velocity S-wave (km/s) = 3.28806 3.54534 3.41912
# Velocity P-wave (km/s) = 5.07434 6.06827 5.59343
#
# Compressibility (1/GPa) = 0.03802413
#
# Stress axis : x y z
#
# Youngs Moduli (GPa) = 88.53082 88.53178 30.23219
#
# Poissons Ratio (x) = 0.48149 0.05115
# Poissons Ratio (y) = 0.48149 0.05114
# Poissons Ratio (z) = 0.14978 0.14975
#
# Static dielectric constant tensor:
#      x y z
#    x 1.895200 0.000000 0.000000 
#    y 0.000000 1.895200 0.000000 
#    z 0.000000 0.000000 1.974850 
# 
# From -- ./inp_files/16851.got.cif
#   From: 2010.05.17/outbox.cif.g08.bks.cpg/sg91_9_cif.got.tgz:16851.got - 2010.06.03 19:20:03.
