data_PCOD9548924
_publ_section_title
;
Structure prediction by ZEFSAII (Michael W. Deem and Ramdas Pophale) SiO2 
 PCOD9548924
Probable space group: P 41 21 2
;
_chemical_formula_sum "Si O2"
_cell_formula_units_Z 32
_cell_length_a 17.090114
_cell_length_b 17.090114
_cell_length_c 5.291054
_cell_angle_alpha 90.000000
_cell_angle_beta 90.000000
_cell_angle_gamma 90.000000
_cell_volume 1545.368706
_symmetry_space_group_name_H-M "P 41 21 2"
_symmetry_group_IT_number 92
_symmetry_cell_setting 'tetragonal'
loop_
_space_group_symop_operation_xyz
x,y,z
1/2-y,1/2+x,1/4+z
-x,-y,1/2+z
1/2+y,1/2-x,3/4+z
1/2+x,1/2-y,3/4-z
1/2-x,1/2+y,1/4-z
y,x,-z
-y,-x,1/2-z
loop_
_atom_site_type_symbol
_atom_site_label
_atom_site_fract_x
_atom_site_fract_y
_atom_site_fract_z
Si Si1 0.397679 0.469724 0.750384
Si Si2 0.930056 0.593179 0.712374
Si Si3 0.564214 0.245146 0.251367
Si Si4 0.157559 0.275152 0.009994
O O1 0.422177 0.422177 0.500000
O O2 0.450661 0.549340 0.750000
O O3 0.306868 0.494180 0.754992
O O4 0.422693 0.422693 0.000000
O O5 0.951831 0.653462 0.939302
O O6 0.858415 0.634454 0.568297
O O7 0.007275 0.590716 0.545939
O O8 0.616239 0.266299 0.498924
O O9 0.612321 0.247791 0.993219
O O10 0.245688 0.245688 0.000000
#
# Coordination Sequence:
#
# PCOD9548924 Si02
#       4
#     8   8   8   8
#     4  10  19  32  58  92 128 171 219 265 320 403
#     4  10  26  42  72  98 131 176 236 288 337 406
#     4  10  22  38  67  94 132 174 221 277 336 406
#     4  10  21  39  69  99 130 173 221 281 352 415
#
# _framework density 20.707034
#
# number of rings (size 3 to 8) (size 9 to 14) (size 15 to 20)
#    1.500    0.500    0.000    3.750    3.500    2.000 
#    0.000    0.000   11.000    0.000    0.000    0.000 
#    0.000    0.000    0.000    0.000    0.000    0.000 
#
# Total GULP energy -178387.413538 kJ/mol
# GULP energy per Si atom -5574.606673 kJ/mol
# Density = 2.065990 g / cm^3
# Si number density = 20.707034 Si / 1000 Ang^3
#
#
#
# Elastic Constant Matrix: (Units=GPa)
#
#
# Indices 1 2 3 4 5 6 
#
# 1 62.9113 42.2801 16.9863 0.0000 0.0000 0.0000
# 2 42.2801 62.9108 16.9856 0.0000 0.0000 0.0000
# 3 16.9863 16.9856 142.4451 0.0000 0.0000 0.0000
# 4 0.0000 0.0000 0.0000 51.4249 0.0000 0.0000
# 5 0.0000 0.0000 0.0000 0.0000 51.4255 0.0000
# 6 0.0000 0.0000 0.0000 0.0000 0.0000 26.0940
#
#
#
# Elastic Compliance Matrix: (Units=1/GPa)
#
#
# Indices 1 2 3 4 5 6 
#
# 1 0.029179 -0.019292 -0.001179 0.000000 0.000000 0.000000
# 2 -0.019292 0.029179 -0.001179 0.000000 0.000000 0.000000
# 3 -0.001179 -0.001179 0.007301 0.000000 0.000000 0.000000
# 4 0.000000 0.000000 0.000000 0.019446 0.000000 0.000000
# 5 0.000000 0.000000 0.000000 0.000000 0.019446 0.000000
# 6 0.000000 0.000000 0.000000 0.000000 0.000000 0.038323
#
#
# Mechanical properties :
#
#
# Convention : Reuss Voigt Hill
#
# Bulk Modulus (GPa) = 44.72287 46.75235 45.73761
# Shear Modulus (GPa) = 25.82290 38.58990 32.20640
#
# Velocity S-wave (km/s) = 3.53520 4.32164 3.94805
# Velocity P-wave (km/s) = 6.18937 6.89414 6.55124
#
# Compressibility (1/GPa) = 0.02235992
#
# Stress axis : x y z
#
# Youngs Moduli (GPa) = 34.27134 34.27114 136.95939
#
# Poissons Ratio (x) = 0.66115 0.16149
# Poissons Ratio (y) = 0.66115 0.16146
# Poissons Ratio (z) = 0.04041 0.04040
#
# Static dielectric constant tensor:
#      x y z
#    x 1.736860 0.000000 0.000000 
#    y 0.000000 1.736860 0.000000 
#    z 0.000000 0.000000 1.745810 
# 
# From -- ./inp_files/353.got.cif
#   From: 2010.05.17/outbox.cif.g08.bks.cpg/sg92_1_cif.got.tgz:353.got - 2010.06.03 19:35:17.
