data_PCOD9548421
_publ_section_title
;
Structure prediction by ZEFSAII (Michael W. Deem and Ramdas Pophale) SiO2 
 PCOD9548421
Probable space group: P 41 2 2
;
_chemical_formula_sum "Si O2"
_cell_formula_units_Z 36
_cell_length_a 11.054478
_cell_length_b 11.054478
_cell_length_c 11.828676
_cell_angle_alpha 90.000000
_cell_angle_beta 90.000000
_cell_angle_gamma 90.000000
_cell_volume 1445.481759
_symmetry_space_group_name_H-M "P 41 2 2"
_symmetry_group_IT_number 91
_symmetry_cell_setting 'tetragonal'
loop_
_space_group_symop_operation_xyz
x,y,z
-y,x,1/4+z
-x,-y,1/2+z
y,-x,3/4+z
x,-y,1/2-z
-x,y,-z
y,x,3/4-z
-y,-x,1/4-z
loop_
_atom_site_type_symbol
_atom_site_label
_atom_site_fract_x
_atom_site_fract_y
_atom_site_fract_z
Si Si1 0.944713 0.055288 0.125000
Si Si2 0.639927 0.639927 0.375000
Si Si3 0.706214 0.079189 0.347511
Si Si4 0.668396 0.824544 0.558142
Si Si5 0.397411 0.641583 0.244667
Si Si6 0.959951 0.500000 0.750000
O O1 0.983556 0.194797 0.142741
O O2 0.981285 0.000000 0.250000
O O3 0.625317 0.765408 0.440021
O O4 0.542253 0.633157 0.273541
O O5 0.792112 0.188346 0.308674
O O6 0.645428 0.000000 0.250000
O O7 0.593574 0.116218 0.424464
O O8 0.635578 0.743237 0.666268
O O9 0.597524 0.951697 0.563668
O O10 0.365876 0.500000 0.250000
O O11 0.333645 0.666355 0.125000
#
# Coordination Sequence:
#
# PCOD9548421 Si02
#       6
#     4   4   8   8   8   4
#     4  10  22  51  82 109 142 196 270 331 384 454
#     4  12  20  41  68 101 146 190 238 289 370 464
#     4  11  26  47  75 106 147 194 253 322 377 452
#     4  12  25  43  71 108 144 196 243 305 380 446
#     4  12  22  36  61 100 146 188 226 286 355 452
#     4  12  24  46  74 110 146 198 256 304 380 466
#
# _framework density 24.905190000000001
#
# number of rings (size 3 to 8) (size 9 to 14) (size 15 to 20)
#    0.000    0.444    5.556    4.000    1.556    0.889 
#    2.000    2.222    0.000    0.000    0.000    0.000 
#    0.000    0.000    0.000    0.000    0.000    0.000 
#
# Total GULP energy -200451.778219 kJ/mol
# GULP energy per Si atom -5568.104951 kJ/mol
# Density = 2.484850 g / cm^3
# Si number density = 24.905190 Si / 1000 Ang^3
#
#
#
# Elastic Constant Matrix: (Units=GPa)
#
#
# Indices 1 2 3 4 5 6 
#
# 1 98.3978 23.4326 20.4212 0.0000 0.0000 0.0000
# 2 23.4326 98.3982 20.4210 0.0000 0.0000 0.0000
# 3 20.4212 20.4210 110.5295 0.0000 0.0000 0.0000
# 4 0.0000 0.0000 0.0000 32.2170 0.0000 0.0000
# 5 0.0000 0.0000 0.0000 0.0000 32.2171 0.0000
# 6 0.0000 0.0000 0.0000 0.0000 0.0000 22.6800
#
#
#
# Elastic Compliance Matrix: (Units=1/GPa)
#
#
# Indices 1 2 3 4 5 6 
#
# 1 0.011045 -0.002295 -0.001617 0.000000 0.000000 0.000000
# 2 -0.002295 0.011045 -0.001617 0.000000 0.000000 0.000000
# 3 -0.001617 -0.001617 0.009645 0.000000 0.000000 0.000000
# 4 0.000000 0.000000 0.000000 0.031039 0.000000 0.000000
# 5 0.000000 0.000000 0.000000 0.000000 0.031039 0.000000
# 6 0.000000 0.000000 0.000000 0.000000 0.000000 0.044092
#
#
# Mechanical properties :
#
#
# Convention : Reuss Voigt Hill
#
# Bulk Modulus (GPa) = 48.35982 48.43058 48.39520
# Shear Modulus (GPa) = 32.08139 33.62621 32.85380
#
# Velocity S-wave (km/s) = 3.59296 3.67845 3.63596
# Velocity P-wave (km/s) = 6.05576 6.12613 6.09105
#
# Compressibility (1/GPa) = 0.02067833
#
# Stress axis : x y z
#
# Youngs Moduli (GPa) = 90.54027 90.54075 103.68357
#
# Poissons Ratio (x) = 0.20776 0.16762
# Poissons Ratio (y) = 0.20776 0.16762
# Poissons Ratio (z) = 0.14637 0.14637
#
# Static dielectric constant tensor:
#      x y z
#    x 2.019750 0.000000 0.000000 
#    y 0.000000 2.019740 0.000000 
#    z 0.000000 0.000000 2.220190 
# 
# From -- ./inp_files/10531.got.cif
#   From: 2010.05.17/outbox.cif.g08.bks.cpg/sg91_6_cif.got.tgz:10531.got - 2010.06.03 19:20:03.
