data_PCOD9548583
_publ_section_title
;
Structure prediction by ZEFSAII (Michael W. Deem and Ramdas Pophale) SiO2 
 PCOD9548583
Probable space group: P 41 2 2
;
_chemical_formula_sum "Si O2"
_cell_formula_units_Z 60
_cell_length_a 17.914589
_cell_length_b 17.914589
_cell_length_c 9.220039
_cell_angle_alpha 90.000000
_cell_angle_beta 90.000000
_cell_angle_gamma 90.000000
_cell_volume 2959.010158
_symmetry_space_group_name_H-M "P 41 2 2"
_symmetry_group_IT_number 91
_symmetry_cell_setting 'tetragonal'
loop_
_space_group_symop_operation_xyz
x,y,z
-y,x,1/4+z
-x,-y,1/2+z
y,-x,3/4+z
x,-y,1/2-z
-x,y,-z
y,x,3/4-z
-y,-x,1/4-z
loop_
_atom_site_type_symbol
_atom_site_label
_atom_site_fract_x
_atom_site_fract_y
_atom_site_fract_z
Si Si1 0.354959 0.126844 0.526280
Si Si2 0.684605 0.585151 0.293481
Si Si3 0.061384 0.061384 0.375000
Si Si4 0.916065 0.559462 0.004858
Si Si5 0.289170 0.717766 0.295586
Si Si6 0.159981 0.415789 0.930176
Si Si7 0.223885 0.983332 0.077661
Si Si8 0.877958 0.699289 0.181678
O O1 0.415491 0.121037 0.396922
O O2 0.321153 0.208635 0.561857
O O3 0.397931 0.113328 0.675096
O O4 0.288523 0.070421 0.483649
O O5 0.681123 0.500000 0.250000
O O6 0.611372 0.611372 0.375000
O O7 0.697754 0.642897 0.157246
O O8 0.750828 0.588107 0.413498
O O9 0.052380 0.143294 0.305371
O O10 0.000000 0.052972 0.500000
O O11 0.863574 0.502104 0.090893
O O12 0.922345 0.637578 0.089240
O O13 0.000000 0.529176 0.000000
O O14 0.278712 0.806204 0.334411
O O15 0.301914 0.698087 0.125000
O O16 0.141381 0.349716 0.820286
O O17 0.228867 0.000000 0.250000
O O18 0.235167 0.067255 0.019405
#
# Coordination Sequence:
#
# PCOD9548583 Si02
#       8
#     8   8   4   8   8   8   8   8
#     4  12  23  39  65 102 131 178 230 275 322 413
#     4  11  24  49  71  97 138 176 223 286 357 413
#     4  10  26  48  70  92 124 170 228 294 354 394
#     4  12  23  41  63  97 144 183 224 266 334 422
#     4  11  22  40  71  99 128 175 233 278 331 411
#     4  11  26  40  64 100 139 178 212 274 343 410
#     4  11  22  42  66  94 131 176 227 284 338 401
#     4  11  22  41  64  96 131 181 224 273 350 398
#
# _framework density 20.277052000000001
#
# number of rings (size 3 to 8) (size 9 to 14) (size 15 to 20)
#    0.000    0.800    5.333    2.400    6.533    1.067 
#    2.400    1.333    0.000    0.000    0.000    0.000 
#    0.000    0.000    0.000    0.000    0.000    0.000 
#
# Total GULP energy -334210.460368 kJ/mol
# GULP energy per Si atom -5570.174339 kJ/mol
# Density = 2.023090 g / cm^3
# Si number density = 20.277052 Si / 1000 Ang^3
#
#
#
# Elastic Constant Matrix: (Units=GPa)
#
#
# Indices 1 2 3 4 5 6 
#
# 1 112.3534 48.2256 38.3982 0.0000 0.0000 0.0000
# 2 48.2256 112.3538 38.3983 0.0000 0.0000 0.0000
# 3 38.3982 38.3983 78.8563 0.0000 0.0000 0.0000
# 4 0.0000 0.0000 0.0000 24.2843 0.0000 0.0000
# 5 0.0000 0.0000 0.0000 0.0000 24.2842 0.0000
# 6 0.0000 0.0000 0.0000 0.0000 0.0000 24.1329
#
#
#
# Elastic Compliance Matrix: (Units=1/GPa)
#
#
# Indices 1 2 3 4 5 6 
#
# 1 0.011856 -0.003738 -0.003953 0.000000 0.000000 0.000000
# 2 -0.003738 0.011856 -0.003953 0.000000 0.000000 0.000000
# 3 -0.003953 -0.003953 0.016531 0.000000 0.000000 0.000000
# 4 0.000000 0.000000 0.000000 0.041179 0.000000 0.000000
# 5 0.000000 0.000000 0.000000 0.000000 0.041179 0.000000
# 6 0.000000 0.000000 0.000000 0.000000 0.000000 0.041437
#
#
# Mechanical properties :
#
#
# Convention : Reuss Voigt Hill
#
# Bulk Modulus (GPa) = 58.97937 61.51197 60.24567
# Shear Modulus (GPa) = 25.90979 26.44303 26.17641
#
# Velocity S-wave (km/s) = 3.57850 3.61513 3.59686
# Velocity P-wave (km/s) = 6.79883 6.91572 6.85752
#
# Compressibility (1/GPa) = 0.01695508
#
# Stress axis : x y z
#
# Youngs Moduli (GPa) = 84.34619 84.34648 60.49245
#
# Poissons Ratio (x) = 0.31528 0.23912
# Poissons Ratio (y) = 0.31528 0.23912
# Poissons Ratio (z) = 0.33342 0.33342
#
# Static dielectric constant tensor:
#      x y z
#    x 1.785260 0.000000 0.000000 
#    y 0.000000 1.785260 0.000000 
#    z 0.000000 0.000000 1.803580 
# 
# From -- ./inp_files/15331.got.cif
#   From: 2010.05.17/outbox.cif.g08.bks.cpg/sg91_8_cif.got.tgz:15331.got - 2010.06.03 19:20:03.
