data_PCOD9548202
_publ_section_title
;
Structure prediction by ZEFSAII (Michael W. Deem and Ramdas Pophale) SiO2 
 PCOD9548202
Probable space group: P 41 2 2
;
_chemical_formula_sum "Si O2"
_cell_formula_units_Z 40
_cell_length_a 7.277946
_cell_length_b 7.277946
_cell_length_c 32.603118
_cell_angle_alpha 90.000000
_cell_angle_beta 90.000000
_cell_angle_gamma 90.000000
_cell_volume 1726.938190
_symmetry_space_group_name_H-M "P 41 2 2"
_symmetry_group_IT_number 91
_symmetry_cell_setting 'tetragonal'
loop_
_space_group_symop_operation_xyz
x,y,z
-y,x,1/4+z
-x,-y,1/2+z
y,-x,3/4+z
x,-y,1/2-z
-x,y,-z
y,x,3/4-z
-y,-x,1/4-z
loop_
_atom_site_type_symbol
_atom_site_label
_atom_site_fract_x
_atom_site_fract_y
_atom_site_fract_z
Si Si1 0.828186 0.116013 0.526119
Si Si2 0.400871 0.571399 0.797395
Si Si3 0.291931 0.308678 0.551002
Si Si4 0.930954 0.566208 0.918463
Si Si5 0.022808 0.503012 0.673757
O O1 0.754145 0.276441 0.496320
O O2 0.896533 0.226243 0.565693
O O3 0.655465 0.000101 0.541168
O O4 0.000000 0.033436 0.500000
O O5 0.371873 0.500000 0.750000
O O6 0.596418 0.484463 0.809410
O O7 0.426472 0.785686 0.810597
O O8 0.241258 0.480437 0.824951
O O9 0.318219 0.098632 0.565805
O O10 0.140928 0.450046 0.566948
O O11 0.941030 0.555979 0.869790
#
# Coordination Sequence:
#
# PCOD9548202 Si02
#       5
#     8   8   8   8   8
#     4  10  21  42  68  94 130 181 229 276 345 424
#     4  12  24  44  74 102 140 190 239 292 357 433
#     4  11  23  46  71  98 140 184 237 287 351 435
#     4  11  24  42  70 102 140 185 229 297 364 413
#     4  12  24  42  70 104 141 182 235 294 360 421
#
# _framework density 23.162378
#
# number of rings (size 3 to 8) (size 9 to 14) (size 15 to 20)
#    0.000    0.800    4.000    3.600    0.000    2.400 
#   10.800    0.000    0.000    0.000    0.000    0.000 
#    0.000    0.000    0.000    0.000    0.000    0.000 
#
# Total GULP energy -222859.134872 kJ/mol
# GULP energy per Si atom -5571.478372 kJ/mol
# Density = 2.310966 g / cm^3
# Si number density = 23.162378 Si / 1000 Ang^3
#
#
#
# Elastic Constant Matrix: (Units=GPa)
#
#
# Indices 1 2 3 4 5 6 
#
# 1 87.7848 27.3689 30.2725 0.0000 0.0000 0.0000
# 2 27.3689 87.7848 30.2725 0.0000 0.0000 0.0000
# 3 30.2725 30.2725 110.2228 0.0000 0.0000 0.0000
# 4 0.0000 0.0000 0.0000 18.4449 0.0000 0.0000
# 5 0.0000 0.0000 0.0000 0.0000 18.4449 0.0000
# 6 0.0000 0.0000 0.0000 0.0000 0.0000 19.5035
#
#
#
# Elastic Compliance Matrix: (Units=1/GPa)
#
#
# Indices 1 2 3 4 5 6 
#
# 1 0.013351 -0.003201 -0.002788 0.000000 0.000000 0.000000
# 2 -0.003201 0.013351 -0.002788 0.000000 0.000000 0.000000
# 3 -0.002788 -0.002788 0.010604 0.000000 0.000000 0.000000
# 4 0.000000 0.000000 0.000000 0.054216 0.000000 0.000000
# 5 0.000000 0.000000 0.000000 0.000000 0.054216 0.000000
# 6 0.000000 0.000000 0.000000 0.000000 0.000000 0.051273
#
#
# Mechanical properties :
#
#
# Convention : Reuss Voigt Hill
#
# Bulk Modulus (GPa) = 50.62585 51.29114 50.95849
# Shear Modulus (GPa) = 22.60945 24.47053 23.53999
#
# Velocity S-wave (km/s) = 3.12769 3.25388 3.19141
# Velocity P-wave (km/s) = 5.91166 6.02571 5.96896
#
# Compressibility (1/GPa) = 0.01975276
#
# Stress axis : x y z
#
# Youngs Moduli (GPa) = 74.90176 74.90176 94.30620
#
# Poissons Ratio (x) = 0.23977 0.26289
# Poissons Ratio (y) = 0.23977 0.26289
# Poissons Ratio (z) = 0.20880 0.20880
#
# Static dielectric constant tensor:
#      x y z
#    x 1.964510 0.000000 0.000000 
#    y 0.000000 1.964510 0.000000 
#    z 0.000000 0.000000 1.918320 
# 
# From -- ./inp_files/18023.got.cif
#   From: 2010.05.17/outbox.cif.g08.bks.cpg/sg91_10_cif.got.tgz:18023.got - 2010.06.03 19:20:03.
