data_PCOD9548864
_publ_section_title
;
Structure prediction by ZEFSAII (Michael W. Deem and Ramdas Pophale) SiO2 
 PCOD9548864
Probable space group: P 41 21 2
;
_chemical_formula_sum "Si O2"
_cell_formula_units_Z 48
_cell_length_a 12.457484
_cell_length_b 12.457484
_cell_length_c 17.608736
_cell_angle_alpha 90.000000
_cell_angle_beta 90.000000
_cell_angle_gamma 90.000000
_cell_volume 2732.680504
_symmetry_space_group_name_H-M "P 41 21 2"
_symmetry_group_IT_number 92
_symmetry_cell_setting 'tetragonal'
loop_
_space_group_symop_operation_xyz
x,y,z
1/2-y,1/2+x,1/4+z
-x,-y,1/2+z
1/2+y,1/2-x,3/4+z
1/2+x,1/2-y,3/4-z
1/2-x,1/2+y,1/4-z
y,x,-z
-y,-x,1/2-z
loop_
_atom_site_type_symbol
_atom_site_label
_atom_site_fract_x
_atom_site_fract_y
_atom_site_fract_z
Si Si1 0.775489 0.902006 0.263788
Si Si2 0.051322 0.127583 0.081761
Si Si3 0.875437 0.288557 0.286686
Si Si4 0.917597 0.999192 0.819468
Si Si5 0.036349 0.202549 0.538392
Si Si6 0.193175 0.822325 0.552582
O O1 0.802352 0.889900 0.353173
O O2 0.732774 0.792598 0.227107
O O3 0.886306 0.937647 0.222366
O O4 0.702340 0.004939 0.245297
O O5 0.933671 0.179509 0.071184
O O6 0.031403 0.011813 0.122054
O O7 0.107424 0.107424 0.000000
O O8 0.811669 0.188332 0.250000
O O9 0.806844 0.394416 0.269705
O O10 0.863794 0.260662 0.375246
O O11 0.916558 0.083443 0.750000
O O12 0.816133 0.975922 0.871908
O O13 0.104537 0.104537 0.500000
O O14 0.917049 0.205703 0.507574
#
# Coordination Sequence:
#
# PCOD9548864 Si02
#       6
#     8   8   8   8   8   8
#     4  11  22  35  58  92 122 158 194 248 318 366
#     4  11  20  37  62  85 116 154 208 251 291 362
#     4  11  21  35  57  91 126 143 188 256 311 351
#     4  10  17  31  56  89 117 143 194 247 295 348
#     4  11  20  35  59  93 116 149 195 255 300 346
#     4  12  21  35  62  90 118 158 199 246 304 362
#
# _framework density 17.565169999999998
#
# number of rings (size 3 to 8) (size 9 to 14) (size 15 to 20)
#    0.000    1.000    8.333    0.500    2.333    0.000 
#    0.000    0.833    7.333    0.000    0.000    0.000 
#    0.000    0.000    0.000    0.000    0.000    0.000 
#
# Total GULP energy -267548.379222 kJ/mol
# GULP energy per Si atom -5573.924567 kJ/mol
# Density = 1.752519 g / cm^3
# Si number density = 17.565170 Si / 1000 Ang^3
#
#
#
# Elastic Constant Matrix: (Units=GPa)
#
#
# Indices 1 2 3 4 5 6 
#
# 1 64.3524 26.9025 27.0624 0.0000 0.0000 0.0000
# 2 26.9025 64.3539 27.0634 0.0000 0.0000 0.0000
# 3 27.0624 27.0634 113.4724 0.0000 0.0000 0.0000
# 4 0.0000 0.0000 0.0000 20.8681 0.0000 0.0000
# 5 0.0000 0.0000 0.0000 0.0000 20.8678 0.0000
# 6 0.0000 0.0000 0.0000 0.0000 0.0000 17.5745
#
#
#
# Elastic Compliance Matrix: (Units=1/GPa)
#
#
# Indices 1 2 3 4 5 6 
#
# 1 0.019733 -0.006969 -0.003044 0.000000 0.000000 0.000000
# 2 -0.006969 0.019733 -0.003044 0.000000 0.000000 0.000000
# 3 -0.003044 -0.003044 0.010265 0.000000 0.000000 0.000000
# 4 0.000000 0.000000 0.000000 0.047920 0.000000 0.000000
# 5 0.000000 0.000000 0.000000 0.000000 0.047921 0.000000
# 6 0.000000 0.000000 0.000000 0.000000 0.000000 0.056901
#
#
# Mechanical properties :
#
#
# Convention : Reuss Voigt Hill
#
# Bulk Modulus (GPa) = 42.34460 44.91504 43.62982
# Shear Modulus (GPa) = 21.14538 22.60543 21.87540
#
# Velocity S-wave (km/s) = 3.47338 3.59129 3.53283
# Velocity P-wave (km/s) = 6.34392 6.54389 6.44468
#
# Compressibility (1/GPa) = 0.02361576
#
# Stress axis : x y z
#
# Youngs Moduli (GPa) = 50.67659 50.67748 97.42073
#
# Poissons Ratio (x) = 0.35317 0.29655
# Poissons Ratio (y) = 0.35317 0.29657
# Poissons Ratio (z) = 0.15426 0.15427
#
# Static dielectric constant tensor:
#      x y z
#    x 1.599090 0.000000 0.000000 
#    y 0.000000 1.599090 0.000000 
#    z 0.000000 0.000000 1.717120 
# 
# From -- ./inp_files/3094.got.cif
#   From: 2010.05.17/outbox.cif.g08.bks.cpg/sg92_2_cif.got.tgz:3094.got - 2010.06.03 19:35:17.
