data_PCOD9548456
_publ_section_title
;
Structure prediction by ZEFSAII (Michael W. Deem and Ramdas Pophale) SiO2 
 PCOD9548456
Probable space group: P 41 2 2
;
_chemical_formula_sum "Si O2"
_cell_formula_units_Z 48
_cell_length_a 8.949247
_cell_length_b 8.949247
_cell_length_c 25.474745
_cell_angle_alpha 90.000000
_cell_angle_beta 90.000000
_cell_angle_gamma 90.000000
_cell_volume 2040.247409
_symmetry_space_group_name_H-M "P 41 2 2"
_symmetry_group_IT_number 91
_symmetry_cell_setting 'tetragonal'
loop_
_space_group_symop_operation_xyz
x,y,z
-y,x,1/4+z
-x,-y,1/2+z
y,-x,3/4+z
x,-y,1/2-z
-x,y,-z
y,x,3/4-z
-y,-x,1/4-z
loop_
_atom_site_type_symbol
_atom_site_label
_atom_site_fract_x
_atom_site_fract_y
_atom_site_fract_z
Si Si1 0.074083 0.661302 0.727810
Si Si2 0.300193 0.776163 0.800188
Si Si3 0.726047 0.388577 0.402374
Si Si4 0.084124 0.679219 0.609925
Si Si5 0.398305 0.408610 0.302908
Si Si6 0.175503 0.781602 0.006649
O O1 0.112043 0.500000 0.750000
O O2 0.212429 0.765638 0.745213
O O3 0.026278 0.637574 0.667980
O O4 0.936520 0.739373 0.755151
O O5 0.219119 0.700106 0.850747
O O6 0.439103 0.662983 0.794221
O O7 0.327830 0.946387 0.819253
O O8 0.787608 0.557175 0.401782
O O9 0.545022 0.379365 0.406252
O O10 0.787845 0.314190 0.454779
O O11 0.162451 0.837550 0.625000
O O12 0.355962 0.500000 0.250000
O O13 0.301222 0.256704 0.305316
O O14 0.000000 0.804958 0.000000
#
# Coordination Sequence:
#
# PCOD9548456 Si02
#       6
#     8   8   8   8   8   8
#     4  12  26  47  72 103 144 197 244 310 377 455
#     4  12  25  43  72 103 142 188 243 303 377 440
#     4  11  23  46  73 103 144 189 248 306 363 456
#     4  12  28  45  70 106 145 191 249 307 379 455
#     4  10  23  43  73 106 138 185 245 300 369 443
#     4  11  25  46  72 103 145 188 241 307 377 450
#
# _framework density 23.526558999999999
#
# number of rings (size 3 to 8) (size 9 to 14) (size 15 to 20)
#    0.000    0.667    3.333    4.500    7.000    0.000 
#    0.000    0.000    0.000    0.000    0.000    0.000 
#    0.000    0.000    0.000    0.000    0.000    0.000 
#
# Total GULP energy -267840.157364 kJ/mol
# GULP energy per Si atom -5580.003278 kJ/mol
# Density = 2.347301 g / cm^3
# Si number density = 23.526559 Si / 1000 Ang^3
#
#
#
# Elastic Constant Matrix: (Units=GPa)
#
#
# Indices 1 2 3 4 5 6 
#
# 1 98.6551 11.2976 5.2864 0.0000 0.0000 0.0000
# 2 11.2976 98.6540 5.2865 0.0000 0.0000 0.0000
# 3 5.2864 5.2865 37.0401 0.0000 0.0000 0.0000
# 4 0.0000 0.0000 0.0000 20.2977 0.0000 0.0000
# 5 0.0000 0.0000 0.0000 0.0000 20.2978 0.0000
# 6 0.0000 0.0000 0.0000 0.0000 0.0000 21.6115
#
#
#
# Elastic Compliance Matrix: (Units=1/GPa)
#
#
# Indices 1 2 3 4 5 6 
#
# 1 0.010334 -0.001113 -0.001316 0.000000 0.000000 0.000000
# 2 -0.001113 0.010334 -0.001316 0.000000 0.000000 0.000000
# 3 -0.001316 -0.001316 0.027373 0.000000 0.000000 0.000000
# 4 0.000000 0.000000 0.000000 0.049267 0.000000 0.000000
# 5 0.000000 0.000000 0.000000 0.000000 0.049266 0.000000
# 6 0.000000 0.000000 0.000000 0.000000 0.000000 0.046272
#
#
# Mechanical properties :
#
#
# Convention : Reuss Voigt Hill
#
# Bulk Modulus (GPa) = 24.65975 30.89890 27.77932
# Shear Modulus (GPa) = 23.38039 26.60665 24.99352
#
# Velocity S-wave (km/s) = 3.15586 3.36656 3.26291
# Velocity P-wave (km/s) = 4.87685 5.31731 5.10184
#
# Compressibility (1/GPa) = 0.04055191
#
# Stress axis : x y z
#
# Youngs Moduli (GPa) = 96.76517 96.76403 36.53172
#
# Poissons Ratio (x) = 0.10769 0.04808
# Poissons Ratio (y) = 0.10769 0.04808
# Poissons Ratio (z) = 0.12735 0.12735
#
# Static dielectric constant tensor:
#      x y z
#    x 1.907120 0.000000 0.000000 
#    y 0.000000 1.907120 0.000000 
#    z 0.000000 0.000000 2.006220 
# 
# From -- ./inp_files/7947.got.cif
#   From: 2010.05.17/outbox.cif.g08.bks.cpg/sg91_4_cif.got.tgz:7947.got - 2010.06.03 19:20:03.
