data_PCOD9548984
_publ_section_title
;
Structure prediction by ZEFSAII (Michael W. Deem and Ramdas Pophale) SiO2 
 PCOD9548984
Probable space group: P 41 21 2
;
_chemical_formula_sum "Si O2"
_cell_formula_units_Z 32
_cell_length_a 14.735692
_cell_length_b 14.735692
_cell_length_c 8.588155
_cell_angle_alpha 90.000000
_cell_angle_beta 90.000000
_cell_angle_gamma 90.000000
_cell_volume 1864.837290
_symmetry_space_group_name_H-M "P 41 21 2"
_symmetry_group_IT_number 92
_symmetry_cell_setting 'tetragonal'
loop_
_space_group_symop_operation_xyz
x,y,z
1/2-y,1/2+x,1/4+z
-x,-y,1/2+z
1/2+y,1/2-x,3/4+z
1/2+x,1/2-y,3/4-z
1/2-x,1/2+y,1/4-z
y,x,-z
-y,-x,1/2-z
loop_
_atom_site_type_symbol
_atom_site_label
_atom_site_fract_x
_atom_site_fract_y
_atom_site_fract_z
Si Si1 0.224818 0.224818 0.500000
Si Si2 0.894456 0.105545 0.750000
Si Si3 0.740081 0.924745 0.424486
Si Si4 0.399793 0.658817 0.500207
Si Si5 0.873974 0.272374 0.985546
O O1 0.218243 0.135285 0.393505
O O2 0.231585 0.305678 0.378982
O O3 0.875276 0.177910 0.888314
O O4 0.001022 0.119748 0.713933
O O5 0.780330 0.902532 0.594690
O O6 0.822517 0.914649 0.298667
O O7 0.664441 0.852126 0.375099
O O8 0.707833 0.027241 0.444677
#
# Coordination Sequence:
#
# PCOD9548984 Si02
#       5
#     4   4   8   8   8
#     4  10  20  33  52  79 110 136 172 222 266 314
#     4  10  20  35  58  79 104 144 174 212 278 322
#     4   9  19  37  53  72 106 142 178 216 260 316
#     4   9  19  34  54  80 107 133 174 227 268 314
#     4  10  20  35  54  77 106 143 177 215 264 317
#
# _framework density 17.159675
#
# number of rings (size 3 to 8) (size 9 to 14) (size 15 to 20)
#    0.000    2.500    0.000    3.000    0.000    9.000 
#    0.000    5.000    0.000    0.000    0.000    0.000 
#    0.000    0.000    0.000    0.000    0.000    0.000 
#
# Total GULP energy -178205.068481 kJ/mol
# GULP energy per Si atom -5568.908390 kJ/mol
# Density = 1.712062 g / cm^3
# Si number density = 17.159675 Si / 1000 Ang^3
#
#
#
# Elastic Constant Matrix: (Units=GPa)
#
#
# Indices 1 2 3 4 5 6 
#
# 1 99.5243 74.6694 26.9184 0.0000 0.0000 0.0000
# 2 74.6694 99.5224 26.9184 0.0000 0.0000 0.0000
# 3 26.9184 26.9184 57.4720 0.0000 0.0000 0.0000
# 4 0.0000 0.0000 0.0000 9.5871 0.0000 0.0000
# 5 0.0000 0.0000 0.0000 0.0000 9.5866 0.0000
# 6 0.0000 0.0000 0.0000 0.0000 0.0000 25.4281
#
#
#
# Elastic Compliance Matrix: (Units=1/GPa)
#
#
# Indices 1 2 3 4 5 6 
#
# 1 0.023473 -0.016761 -0.003144 0.000000 0.000000 0.000000
# 2 -0.016761 0.023474 -0.003144 0.000000 0.000000 0.000000
# 3 -0.003144 -0.003144 0.020345 0.000000 0.000000 0.000000
# 4 0.000000 0.000000 0.000000 0.104307 0.000000 0.000000
# 5 0.000000 0.000000 0.000000 0.000000 0.104313 0.000000
# 6 0.000000 0.000000 0.000000 0.000000 0.000000 0.039327
#
#
# Mechanical properties :
#
#
# Convention : Reuss Voigt Hill
#
# Bulk Modulus (GPa) = 47.18316 57.05899 52.12107
# Shear Modulus (GPa) = 13.57214 17.45451 15.51333
#
# Velocity S-wave (km/s) = 2.81540 3.19279 3.01002
# Velocity P-wave (km/s) = 6.17453 6.84951 6.52076
#
# Compressibility (1/GPa) = 0.02119400
#
# Stress axis : x y z
#
# Youngs Moduli (GPa) = 42.60125 42.60030 49.15250
#
# Poissons Ratio (x) = 0.71404 0.15453
# Poissons Ratio (y) = 0.71405 0.15454
# Poissons Ratio (z) = 0.13393 0.13394
#
# Static dielectric constant tensor:
#      x y z
#    x 1.599200 0.000000 0.000000 
#    y 0.000000 1.599210 0.000000 
#    z 0.000000 0.000000 1.504290 
# 
# From -- ./inp_files/1164.got.cif
#   From: 2010.05.17/outbox.cif.g08.bks.cpg/sg92_1_cif.got.tgz:1164.got - 2010.06.03 19:35:17.
