data_PCOD9548859
_publ_section_title
;
Structure prediction by ZEFSAII (Michael W. Deem and Ramdas Pophale) SiO2 
 PCOD9548859
Probable space group: P 41 21 2
;
_chemical_formula_sum "Si O2"
_cell_formula_units_Z 40
_cell_length_a 16.671923
_cell_length_b 16.671923
_cell_length_c 5.605158
_cell_angle_alpha 90.000000
_cell_angle_beta 90.000000
_cell_angle_gamma 90.000000
_cell_volume 1557.970574
_symmetry_space_group_name_H-M "P 41 21 2"
_symmetry_group_IT_number 92
_symmetry_cell_setting 'tetragonal'
loop_
_space_group_symop_operation_xyz
x,y,z
1/2-y,1/2+x,1/4+z
-x,-y,1/2+z
1/2+y,1/2-x,3/4+z
1/2+x,1/2-y,3/4-z
1/2-x,1/2+y,1/4-z
y,x,-z
-y,-x,1/2-z
loop_
_atom_site_type_symbol
_atom_site_label
_atom_site_fract_x
_atom_site_fract_y
_atom_site_fract_z
Si Si1 0.394506 0.609330 0.499076
Si Si2 0.198579 0.741136 0.998657
Si Si3 0.265005 0.016160 0.815023
Si Si4 0.299602 0.064982 0.298641
Si Si5 0.380503 0.409022 0.254866
O O1 0.424879 0.575122 0.250000
O O2 0.299826 0.588981 0.476321
O O3 0.415286 0.703504 0.514948
O O4 0.422465 0.577536 0.750000
O O5 0.246675 0.753326 0.250000
O O6 0.245328 0.754673 0.750000
O O7 0.162690 0.653449 0.960560
O O8 0.133878 0.812498 0.008969
O O9 0.305444 0.018418 0.551155
O O10 0.206383 0.947406 0.930831
O O11 0.322827 0.027730 0.042011
O O12 0.425450 0.425450 0.500000
O O13 0.421237 0.421237 0.000000
#
# Coordination Sequence:
#
# PCOD9548859 Si02
#       5
#     8   8   8   8   8
#     4   8  14  23  39  60  80 104 146 204 253 277
#     4  10  18  30  48  71  96 124 168 215 264 324
#     4  10  18  29  46  67  92 124 166 215 264 304
#     4  10  17  28  48  70  89 116 168 226 262 290
#     4  10  21  34  47  66  99 140 174 204 265 335
#
# _framework density 25.674423000000001
#
# number of rings (size 3 to 8) (size 9 to 14) (size 15 to 20)
#    0.000    2.400    0.000    6.000    0.000    0.000 
#    0.000    0.000    0.000   21.600    0.000    0.000 
#    0.000    0.000    0.000    0.000    0.000 1480.000 
#
# Total GULP energy -222678.762990 kJ/mol
# GULP energy per Si atom -5566.969075 kJ/mol
# Density = 2.561599 g / cm^3
# Si number density = 25.674423 Si / 1000 Ang^3
#
#
#
# Elastic Constant Matrix: (Units=GPa)
#
#
# Indices 1 2 3 4 5 6 
#
# 1 35.1181 29.8740 32.6047 0.0000 0.0000 0.0000
# 2 29.8740 35.1197 32.6050 0.0000 0.0000 0.0000
# 3 32.6047 32.6050 350.1631 0.0000 0.0000 0.0000
# 4 0.0000 0.0000 0.0000 23.9062 0.0000 0.0000
# 5 0.0000 0.0000 0.0000 0.0000 23.9067 0.0000
# 6 0.0000 0.0000 0.0000 0.0000 0.0000 21.0399
#
#
#
# Elastic Compliance Matrix: (Units=1/GPa)
#
#
# Indices 1 2 3 4 5 6 
#
# 1 0.103820 -0.086845 -0.001580 0.000000 0.000000 0.000000
# 2 -0.086845 0.103815 -0.001580 0.000000 0.000000 0.000000
# 3 -0.001580 -0.001580 0.003150 0.000000 0.000000 0.000000
# 4 0.000000 0.000000 0.000000 0.041830 0.000000 0.000000
# 5 0.000000 0.000000 0.000000 0.000000 0.041829 0.000000
# 6 0.000000 0.000000 0.000000 0.000000 0.000000 0.047529
#
#
# Mechanical properties :
#
#
# Convention : Reuss Voigt Hill
#
# Bulk Modulus (GPa) = 32.49644 67.84093 50.16868
# Shear Modulus (GPa) = 9.39423 35.45838 22.42630
#
# Velocity S-wave (km/s) = 1.91492 3.72032 2.95869
# Velocity P-wave (km/s) = 4.19212 6.70338 5.59058
#
# Compressibility (1/GPa) = 0.03077260
#
# Stress axis : x y z
#
# Youngs Moduli (GPa) = 9.63208 9.63256 317.44954
#
# Poissons Ratio (x) = 0.83654 0.50171
# Poissons Ratio (y) = 0.83650 0.50162
# Poissons Ratio (z) = 0.01522 0.01522
#
# Static dielectric constant tensor:
#      x y z
#    x 2.152750 0.000000 0.000000 
#    y 0.000000 2.152750 0.000000 
#    z 0.000000 0.000000 2.200970 
# 
# From -- ./inp_files/542.got.cif
#   From: 2010.05.17/outbox.cif.g08.bks.cpg/sg92_1_cif.got.tgz:542.got - 2010.06.03 19:35:17.
