data_PCOD9548543
_publ_section_title
;
Structure prediction by ZEFSAII (Michael W. Deem and Ramdas Pophale) SiO2 
 PCOD9548543
Probable space group: P 41 2 2
;
_chemical_formula_sum "Si O2"
_cell_formula_units_Z 44
_cell_length_a 7.936426
_cell_length_b 7.936426
_cell_length_c 27.981577
_cell_angle_alpha 90.000000
_cell_angle_beta 90.000000
_cell_angle_gamma 90.000000
_cell_volume 1762.471607
_symmetry_space_group_name_H-M "P 41 2 2"
_symmetry_group_IT_number 91
_symmetry_cell_setting 'tetragonal'
loop_
_space_group_symop_operation_xyz
x,y,z
-y,x,1/4+z
-x,-y,1/2+z
y,-x,3/4+z
x,-y,1/2-z
-x,y,-z
y,x,3/4-z
-y,-x,1/4-z
loop_
_atom_site_type_symbol
_atom_site_label
_atom_site_fract_x
_atom_site_fract_y
_atom_site_fract_z
Si Si1 0.468667 0.344782 0.424135
Si Si2 0.282278 0.116632 0.297290
Si Si3 0.164390 0.506782 0.584613
Si Si4 0.037117 0.597998 0.681825
Si Si5 0.319059 0.000000 0.750000
Si Si6 0.244810 0.076133 0.032158
O O1 0.369190 0.369190 0.375000
O O2 0.304282 0.369450 0.459037
O O3 0.640389 0.452386 0.417916
O O4 0.543708 0.158525 0.431342
O O5 0.091970 0.174899 0.306188
O O6 0.275180 0.000000 0.250000
O O7 0.362673 0.985012 0.335139
O O8 0.128954 0.585791 0.533309
O O9 0.113822 0.623434 0.629617
O O10 0.050747 0.732123 0.724601
O O11 0.128359 0.425841 0.698690
O O12 0.217119 0.108168 0.712107
#
# Coordination Sequence:
#
# PCOD9548543 Si02
#       6
#     8   8   8   8   4   8
#     4  11  25  45  76 110 146 197 257 321 385 461
#     4  11  22  49  73 106 142 196 256 310 382 458
#     4  12  27  45  73 111 152 195 258 316 389 466
#     4  10  24  47  75 106 141 201 261 321 391 466
#     4  12  28  46  66 114 152 198 252 318 390 464
#     4  10  24  47  74 102 148 197 258 318 387 456
#
# _framework density 24.964939999999999
#
# number of rings (size 3 to 8) (size 9 to 14) (size 15 to 20)
#    0.000    1.091    3.636    1.091    5.091    2.182 
#    3.273    1.818    0.000    0.000    0.000    0.000 
#    0.000    0.000    0.000    0.000    0.000    0.000 
#
# Total GULP energy -245425.495898 kJ/mol
# GULP energy per Si atom -5577.852179 kJ/mol
# Density = 2.490812 g / cm^3
# Si number density = 24.964940 Si / 1000 Ang^3
#
#
#
# Elastic Constant Matrix: (Units=GPa)
#
#
# Indices 1 2 3 4 5 6 
#
# 1 101.5272 35.7326 18.1547 0.0000 0.0000 0.0000
# 2 35.7326 101.5272 18.1547 0.0000 0.0000 0.0000
# 3 18.1547 18.1547 77.7571 0.0000 0.0000 0.0000
# 4 0.0000 0.0000 0.0000 20.6316 0.0000 0.0000
# 5 0.0000 0.0000 0.0000 0.0000 20.6316 0.0000
# 6 0.0000 0.0000 0.0000 0.0000 0.0000 -45.5846
#
#
#
# Elastic Compliance Matrix: (Units=1/GPa)
#
#
# Indices 1 2 3 4 5 6 
#
# 1 0.011482 -0.003717 -0.001813 0.000000 0.000000 0.000000
# 2 -0.003717 0.011482 -0.001813 0.000000 0.000000 0.000000
# 3 -0.001813 -0.001813 0.013707 0.000000 0.000000 0.000000
# 4 0.000000 0.000000 0.000000 0.048469 0.000000 0.000000
# 5 0.000000 0.000000 0.000000 0.000000 0.048469 0.000000
# 6 0.000000 0.000000 0.000000 0.000000 0.000000 -0.021937
#
#
# Mechanical properties :
#
#
# Convention : Reuss Voigt Hill
#
# Bulk Modulus (GPa) = 45.48490 47.21061 46.34775
# Shear Modulus (GPa) = 37.40096 13.05371 25.22733
#
# Velocity S-wave (km/s) = 3.87478 2.28914 3.18230
# Velocity P-wave (km/s) = 6.18689 5.09301 5.66641
#
# Compressibility (1/GPa) = 0.02198532
#
# Stress axis : x y z
#
# Youngs Moduli (GPa) = 87.09336 87.09336 72.95470
#
# Poissons Ratio (x) = 0.32372 0.13226
# Poissons Ratio (y) = 0.32372 0.13226
# Poissons Ratio (z) = 0.15790 0.15790
#
# Static dielectric constant tensor:
#      x y z
#    x 2.035300 0.000000 0.000000 
#    y 0.000000 2.035300 0.000000 
#    z 0.000000 0.000000 2.019020 
# 
# From -- ./inp_files/7844.got.cif
#   From: 2010.05.17/outbox.cif.g08.bks.cpg/sg91_4_cif.got.tgz:7844.got - 2010.06.03 19:20:03.
