data_PCOD9548960
_publ_section_title
;
Structure prediction by ZEFSAII (Michael W. Deem and Ramdas Pophale) SiO2 
 PCOD9548960
Probable space group: P 41 21 2
;
_chemical_formula_sum "Si O2"
_cell_formula_units_Z 40
_cell_length_a 7.672233
_cell_length_b 7.672233
_cell_length_c 27.652390
_cell_angle_alpha 90.000000
_cell_angle_beta 90.000000
_cell_angle_gamma 90.000000
_cell_volume 1627.707035
_symmetry_space_group_name_H-M "P 41 21 2"
_symmetry_group_IT_number 92
_symmetry_cell_setting 'tetragonal'
loop_
_space_group_symop_operation_xyz
x,y,z
1/2-y,1/2+x,1/4+z
-x,-y,1/2+z
1/2+y,1/2-x,3/4+z
1/2+x,1/2-y,3/4-z
1/2-x,1/2+y,1/4-z
y,x,-z
-y,-x,1/2-z
loop_
_atom_site_type_symbol
_atom_site_label
_atom_site_fract_x
_atom_site_fract_y
_atom_site_fract_z
Si Si1 0.923143 0.138278 0.833975
Si Si2 0.779011 0.297878 0.523761
Si Si3 0.103588 0.285205 0.592058
Si Si4 0.306921 0.570879 0.183140
Si Si5 0.276859 0.449404 0.678443
O O1 0.078617 0.129222 0.795260
O O2 0.010744 0.244802 0.878855
O O3 0.759686 0.229310 0.808652
O O4 0.836097 0.986702 0.866243
O O5 0.832742 0.318836 0.468309
O O6 0.954297 0.341464 0.554932
O O7 0.749767 0.092154 0.534232
O O8 0.205277 0.420132 0.624679
O O9 0.232297 0.156349 0.563186
O O10 0.516718 0.590285 0.184466
#
# Coordination Sequence:
#
# PCOD9548960 Si02
#       5
#     8   8   8   8   8
#     4  10  19  37  66  94 122 165 219 272 320 396
#     4  10  21  42  63  93 129 167 223 271 332 405
#     4  10  22  40  64  89 130 172 216 272 340 395
#     4  10  19  38  65  89 126 170 212 267 334 388
#     4  10  23  41  62  88 131 172 212 275 333 402
#
# _framework density 24.574446999999999
#
# number of rings (size 3 to 8) (size 9 to 14) (size 15 to 20)
#    0.000    2.400    4.000    2.400    2.800    0.800 
#    7.200    0.000    8.800    0.000    0.000    0.000 
#    0.000    0.000    0.000    0.000    0.000    0.000 
#
# Total GULP energy -223070.282747 kJ/mol
# GULP energy per Si atom -5576.757069 kJ/mol
# Density = 2.451851 g / cm^3
# Si number density = 24.574447 Si / 1000 Ang^3
#
#
#
# Elastic Constant Matrix: (Units=GPa)
#
#
# Indices 1 2 3 4 5 6 
#
# 1 43.1700 19.9934 2.4706 0.0000 0.0000 0.0000
# 2 19.9934 43.1700 2.4706 0.0000 0.0000 0.0000
# 3 2.4706 2.4706 89.4532 0.0000 0.0000 0.0000
# 4 0.0000 0.0000 0.0000 17.9551 0.0000 0.0000
# 5 0.0000 0.0000 0.0000 0.0000 17.9551 0.0000
# 6 0.0000 0.0000 0.0000 0.0000 0.0000 39.2036
#
#
#
# Elastic Compliance Matrix: (Units=1/GPa)
#
#
# Indices 1 2 3 4 5 6 
#
# 1 0.029507 -0.013640 -0.000438 0.000000 0.000000 0.000000
# 2 -0.013640 0.029507 -0.000438 0.000000 0.000000 0.000000
# 3 -0.000438 -0.000438 0.011203 0.000000 0.000000 0.000000
# 4 0.000000 0.000000 0.000000 0.055695 0.000000 0.000000
# 5 0.000000 0.000000 0.000000 0.000000 0.055695 0.000000
# 6 0.000000 0.000000 0.000000 0.000000 0.000000 0.025508
#
#
# Mechanical properties :
#
#
# Convention : Reuss Voigt Hill
#
# Bulk Modulus (GPa) = 24.28196 25.07363 24.67780
# Shear Modulus (GPa) = 20.01002 25.07998 22.54500
#
# Velocity S-wave (km/s) = 2.85662 3.19810 3.03217
# Velocity P-wave (km/s) = 4.55882 4.88492 4.72468
#
# Compressibility (1/GPa) = 0.04118283
#
# Stress axis : x y z
#
# Youngs Moduli (GPa) = 33.89067 33.89067 89.25996
#
# Poissons Ratio (x) = 0.46228 0.03912
# Poissons Ratio (y) = 0.46228 0.03912
# Poissons Ratio (z) = 0.01485 0.01485
#
# Static dielectric constant tensor:
#      x y z
#    x 2.045360 0.000000 0.000000 
#    y 0.000000 2.045360 0.000000 
#    z 0.000000 0.000000 1.962000 
# 
# From -- ./inp_files/4143.got.cif
#   From: 2010.05.17/outbox.cif.g08.bks.cpg/sg92_3_cif.got.tgz:4143.got - 2010.06.03 19:35:17.
