data_PCOD9548698
_publ_section_title
;
Structure prediction by ZEFSAII (Michael W. Deem and Ramdas Pophale) SiO2 
 PCOD9548698
Probable space group: P 41 2 2
;
_chemical_formula_sum "Si O2"
_cell_formula_units_Z 36
_cell_length_a 8.494461
_cell_length_b 8.494461
_cell_length_c 21.844568
_cell_angle_alpha 90.000000
_cell_angle_beta 90.000000
_cell_angle_gamma 90.000000
_cell_volume 1576.213758
_symmetry_space_group_name_H-M "P 41 2 2"
_symmetry_group_IT_number 91
_symmetry_cell_setting 'tetragonal'
loop_
_space_group_symop_operation_xyz
x,y,z
-y,x,1/4+z
-x,-y,1/2+z
y,-x,3/4+z
x,-y,1/2-z
-x,y,-z
y,x,3/4-z
-y,-x,1/4-z
loop_
_atom_site_type_symbol
_atom_site_label
_atom_site_fract_x
_atom_site_fract_y
_atom_site_fract_z
Si Si1 0.116452 0.190469 0.243828
Si Si2 0.168008 0.743028 0.813663
Si Si3 0.704886 0.043139 0.135054
Si Si4 0.430643 0.757262 0.313074
Si Si5 0.500000 0.384838 0.000000
O O1 0.038020 0.272352 0.182686
O O2 0.303573 0.217532 0.241009
O O3 0.016494 0.267719 0.298851
O O4 0.096680 0.000000 0.250000
O O5 0.207921 0.925631 0.819033
O O6 0.232231 0.671982 0.876118
O O7 0.270246 0.643940 0.766573
O O8 0.548892 0.099435 0.170544
O O9 0.795985 0.204016 0.125000
O O10 0.508898 0.587517 0.300711
#
# Coordination Sequence:
#
# PCOD9548698 Si02
#       5
#     8   8   8   8   4
#     4  11  24  43  74 111 143 193 262 322 373 460
#     4  11  24  44  73 103 146 205 259 318 377 479
#     4  11  22  43  73 106 142 199 260 304 386 466
#     4  11  27  43  72 110 156 197 253 330 395 471
#     4  12  26  44  70 110 154 208 256 308 412 466
#
# _framework density 22.839542000000002
#
# number of rings (size 3 to 8) (size 9 to 14) (size 15 to 20)
#    0.000    0.889    2.222    4.667    3.111    4.444 
#    0.000    0.000    0.000    0.000    0.000    0.000 
#    0.000    0.000    0.000    0.000    0.000    0.000 
#
# Total GULP energy -200408.937848 kJ/mol
# GULP energy per Si atom -5566.914940 kJ/mol
# Density = 2.278756 g / cm^3
# Si number density = 22.839542 Si / 1000 Ang^3
#
#
#
# Elastic Constant Matrix: (Units=GPa)
#
#
# Indices 1 2 3 4 5 6 
#
# 1 97.4779 28.3910 32.3579 0.0000 0.0000 0.0000
# 2 28.3910 97.4767 32.3582 0.0000 0.0000 0.0000
# 3 32.3579 32.3582 52.6879 0.0000 0.0000 0.0000
# 4 0.0000 0.0000 0.0000 -17.3585 0.0000 0.0000
# 5 0.0000 0.0000 0.0000 0.0000 -17.3736 0.0000
# 6 0.0000 0.0000 0.0000 0.0000 0.0000 32.6964
#
#
#
# Elastic Compliance Matrix: (Units=1/GPa)
#
#
# Indices 1 2 3 4 5 6 
#
# 1 0.013043 -0.001432 -0.007131 0.000000 0.000000 0.000000
# 2 -0.001432 0.013043 -0.007131 0.000000 0.000000 0.000000
# 3 -0.007131 -0.007131 0.027739 0.000000 0.000000 0.000000
# 4 0.000000 0.000000 0.000000 -0.057609 0.000000 0.000000
# 5 0.000000 0.000000 0.000000 0.000000 -0.057559 0.000000
# 6 0.000000 0.000000 0.000000 0.000000 0.000000 0.030584
#
#
# Mechanical properties :
#
#
# Convention : Reuss Voigt Hill
#
# Bulk Modulus (GPa) = 44.56894 48.20628 46.38761
# Shear Modulus (GPa) = 616.64237 9.89520 313.26878
#
# Velocity S-wave (km/s) = 16.44917 2.08372 11.72427
# Velocity P-wave (km/s) = 19.50187 5.19052 14.26998
#
# Compressibility (1/GPa) = 0.02243715
#
# Stress axis : x y z
#
# Youngs Moduli (GPa) = 76.67040 76.66898 36.05077
#
# Poissons Ratio (x) = 0.10977 0.25707
# Poissons Ratio (y) = 0.10977 0.25708
# Poissons Ratio (z) = 0.54673 0.54674
#
# Static dielectric constant tensor:
#      x y z
#    x 1.963980 0.000000 0.000000 
#    y 0.000000 1.964000 0.000000 
#    z 0.000000 0.000000 2.079140 
# 
# From -- ./inp_files/21377.got.cif
#   From: 2010.05.17/outbox.cif.g08.bks.cpg/sg91_11_cif.got.tgz:21377.got - 2010.06.03 19:20:03.
