data_PCOD9548413
_publ_section_title
;
Structure prediction by ZEFSAII (Michael W. Deem and Ramdas Pophale) SiO2 
 PCOD9548413
Probable space group: P 41 2 2
;
_chemical_formula_sum "Si O2"
_cell_formula_units_Z 20
_cell_length_a 7.371034
_cell_length_b 7.371034
_cell_length_c 14.813256
_cell_angle_alpha 90.000000
_cell_angle_beta 90.000000
_cell_angle_gamma 90.000000
_cell_volume 804.835932
_symmetry_space_group_name_H-M "P 41 2 2"
_symmetry_group_IT_number 91
_symmetry_cell_setting 'tetragonal'
loop_
_space_group_symop_operation_xyz
x,y,z
-y,x,1/4+z
-x,-y,1/2+z
y,-x,3/4+z
x,-y,1/2-z
-x,y,-z
y,x,3/4-z
-y,-x,1/4-z
loop_
_atom_site_type_symbol
_atom_site_label
_atom_site_fract_x
_atom_site_fract_y
_atom_site_fract_z
Si Si1 0.766597 0.718454 0.571542
Si Si2 0.351149 0.351149 0.875000
Si Si3 0.927987 0.352451 0.602239
O O1 0.762753 0.694582 0.463997
O O2 0.562261 0.675752 0.604309
O O3 0.897366 0.569273 0.617791
O O4 0.770179 0.930502 0.592252
O O5 0.734773 0.265228 0.625000
O O6 0.000000 0.336289 0.500000
#
# Coordination Sequence:
#
# PCOD9548413 Si02
#       3
#     8   4   8
#     4  11  24  50  78 112 156 203 267 322 396 475
#     4  10  22  46  80 104 148 212 246 322 396 464
#     4  12  28  51  78 114 157 206 261 328 403 469
#
# _framework density 24.849786999999999
#
# number of rings (size 3 to 8) (size 9 to 14) (size 15 to 20)
#    0.000    0.800    6.000    0.000    0.000    9.600 
#    7.200    0.000    0.000    0.000    0.000    0.000 
#    0.000    0.000    0.000    0.000    0.000    0.000 
#
# Total GULP energy -111786.335530 kJ/mol
# GULP energy per Si atom -5589.316776 kJ/mol
# Density = 2.479323 g / cm^3
# Si number density = 24.849787 Si / 1000 Ang^3
#
#
#
# Elastic Constant Matrix: (Units=GPa)
#
#
# Indices 1 2 3 4 5 6 
#
# 1 107.4773 36.3463 19.0580 0.0000 0.0000 0.0000
# 2 36.3463 107.4747 19.0589 0.0000 0.0000 0.0000
# 3 19.0580 19.0589 88.1735 0.0000 0.0000 0.0000
# 4 0.0000 0.0000 0.0000 26.4296 0.0000 0.0000
# 5 0.0000 0.0000 0.0000 0.0000 26.4309 0.0000
# 6 0.0000 0.0000 0.0000 0.0000 0.0000 22.8909
#
#
#
# Elastic Compliance Matrix: (Units=1/GPa)
#
#
# Indices 1 2 3 4 5 6 
#
# 1 0.010717 -0.003342 -0.001594 0.000000 0.000000 0.000000
# 2 -0.003342 0.010717 -0.001594 0.000000 0.000000 0.000000
# 3 -0.001594 -0.001594 0.012030 0.000000 0.000000 0.000000
# 4 0.000000 0.000000 0.000000 0.037836 0.000000 0.000000
# 5 0.000000 0.000000 0.000000 0.000000 0.037835 0.000000
# 6 0.000000 0.000000 0.000000 0.000000 0.000000 0.043685
#
#
# Mechanical properties :
#
#
# Convention : Reuss Voigt Hill
#
# Bulk Modulus (GPa) = 49.00831 50.22798 49.61815
# Shear Modulus (GPa) = 28.95483 30.39444 29.67463
#
# Velocity S-wave (km/s) = 3.41720 3.50112 3.45941
# Velocity P-wave (km/s) = 5.94427 6.04982 5.99727
#
# Compressibility (1/GPa) = 0.02040470
#
# Stress axis : x y z
#
# Youngs Moduli (GPa) = 93.30948 93.30682 83.12250
#
# Poissons Ratio (x) = 0.31180 0.13251
# Poissons Ratio (y) = 0.31181 0.13252
# Poissons Ratio (z) = 0.14874 0.14876
#
# Static dielectric constant tensor:
#      x y z
#    x 2.021310 0.000000 0.000000 
#    y 0.000000 2.021310 0.000000 
#    z 0.000000 0.000000 2.006360 
# 
# From -- ./inp_files/10994.got.cif
#   From: 2010.05.17/outbox.cif.g08.bks.cpg/sg91_6_cif.got.tgz:10994.got - 2010.06.03 19:20:03.
