data_PCOD9548550
_publ_section_title
;
Structure prediction by ZEFSAII (Michael W. Deem and Ramdas Pophale) SiO2 
 PCOD9548550
Probable space group: P 41 2 2
;
_chemical_formula_sum "Si O2"
_cell_formula_units_Z 24
_cell_length_a 8.232512
_cell_length_b 8.232512
_cell_length_c 14.381823
_cell_angle_alpha 90.000000
_cell_angle_beta 90.000000
_cell_angle_gamma 90.000000
_cell_volume 974.717323
_symmetry_space_group_name_H-M "P 41 2 2"
_symmetry_group_IT_number 91
_symmetry_cell_setting 'tetragonal'
loop_
_space_group_symop_operation_xyz
x,y,z
-y,x,1/4+z
-x,-y,1/2+z
y,-x,3/4+z
x,-y,1/2-z
-x,y,-z
y,x,3/4-z
-y,-x,1/4-z
loop_
_atom_site_type_symbol
_atom_site_label
_atom_site_fract_x
_atom_site_fract_y
_atom_site_fract_z
Si Si1 0.500000 0.232612 0.000000
Si Si2 0.323346 0.360654 0.549642
Si Si3 0.000000 0.484924 0.000000
Si Si4 0.244675 0.989972 0.582987
O O1 0.547699 0.319740 0.901410
O O2 0.333652 0.126645 0.990851
O O3 0.500000 0.364519 0.500000
O O4 0.174314 0.430378 0.487462
O O5 0.261310 0.175779 0.557778
O O6 0.031941 0.370804 0.914892
O O7 0.075153 0.924848 0.625000
#
# Coordination Sequence:
#
# PCOD9548550 Si02
#       4
#     4   8   4   8
#     4  10  24  48  76 116 166 210 276 350 420 518
#     4  11  25  51  79 122 166 220 285 352 437 530
#     4  10  26  48  74 118 156 214 284 336 428 514
#     4  11  23  49  75 109 162 217 270 347 429 509
#
# _framework density 24.622523999999999
#
# number of rings (size 3 to 8) (size 9 to 14) (size 15 to 20)
#    0.000    1.333    1.667    2.000    0.000    5.333 
#   45.000    1.667    0.000    0.000    0.000    0.000 
#    0.000    0.000    0.000    0.000    0.000    0.000 
#
# Total GULP energy -133836.491884 kJ/mol
# GULP energy per Si atom -5576.520495 kJ/mol
# Density = 2.456648 g / cm^3
# Si number density = 24.622524 Si / 1000 Ang^3
#
#
#
# Elastic Constant Matrix: (Units=GPa)
#
#
# Indices 1 2 3 4 5 6 
#
# 1 140.5131 62.7791 33.3343 0.0000 0.0000 0.0000
# 2 62.7791 140.5098 33.3339 0.0000 0.0000 0.0000
# 3 33.3343 33.3339 79.3173 0.0000 0.0000 0.0000
# 4 0.0000 0.0000 0.0000 33.7461 0.0000 0.0000
# 5 0.0000 0.0000 0.0000 0.0000 33.7451 0.0000
# 6 0.0000 0.0000 0.0000 0.0000 0.0000 119.1495
#
#
#
# Elastic Compliance Matrix: (Units=1/GPa)
#
#
# Indices 1 2 3 4 5 6 
#
# 1 0.009285 -0.003580 -0.002398 0.000000 0.000000 0.000000
# 2 -0.003580 0.009285 -0.002398 0.000000 0.000000 0.000000
# 3 -0.002398 -0.002398 0.014623 0.000000 0.000000 0.000000
# 4 0.000000 0.000000 0.000000 0.029633 0.000000 0.000000
# 5 0.000000 0.000000 0.000000 0.000000 0.029634 0.000000
# 6 0.000000 0.000000 0.000000 0.000000 0.000000 0.008393
#
#
# Mechanical properties :
#
#
# Convention : Reuss Voigt Hill
#
# Bulk Modulus (GPa) = 60.81725 68.80388 64.81056
# Shear Modulus (GPa) = 40.62265 52.72100 46.67182
#
# Velocity S-wave (km/s) = 4.06620 4.63230 4.35845
# Velocity P-wave (km/s) = 6.84096 7.52430 7.19075
#
# Compressibility (1/GPa) = 0.01644270
#
# Stress axis : x y z
#
# Youngs Moduli (GPa) = 107.70152 107.69901 68.38555
#
# Poissons Ratio (x) = 0.38552 0.16397
# Poissons Ratio (y) = 0.38553 0.16397
# Poissons Ratio (z) = 0.25824 0.25824
#
# Static dielectric constant tensor:
#      x y z
#    x 2.165980 0.000000 0.000000 
#    y 0.000000 2.165990 0.000000 
#    z 0.000000 0.000000 1.557960 
# 
# From -- ./inp_files/11090.got.cif
#   From: 2010.05.17/outbox.cif.g08.bks.cpg/sg91_6_cif.got.tgz:11090.got - 2010.06.03 19:20:03.
