data_PCOD9548537
_publ_section_title
;
Structure prediction by ZEFSAII (Michael W. Deem and Ramdas Pophale) SiO2 
 PCOD9548537
Probable space group: P 41 2 2
;
_chemical_formula_sum "Si O2"
_cell_formula_units_Z 24
_cell_length_a 8.498768
_cell_length_b 8.498768
_cell_length_c 13.519919
_cell_angle_alpha 90.000000
_cell_angle_beta 90.000000
_cell_angle_gamma 90.000000
_cell_volume 976.531007
_symmetry_space_group_name_H-M "P 41 2 2"
_symmetry_group_IT_number 91
_symmetry_cell_setting 'tetragonal'
loop_
_space_group_symop_operation_xyz
x,y,z
-y,x,1/4+z
-x,-y,1/2+z
y,-x,3/4+z
x,-y,1/2-z
-x,y,-z
y,x,3/4-z
-y,-x,1/4-z
loop_
_atom_site_type_symbol
_atom_site_label
_atom_site_fract_x
_atom_site_fract_y
_atom_site_fract_z
Si Si1 0.641204 0.641204 0.375000
Si Si2 0.270239 0.335019 0.088992
Si Si3 0.165785 0.980368 0.442463
Si Si4 0.500000 0.910051 0.000000
O O1 0.662409 0.456583 0.353525
O O2 0.750946 0.667053 0.470371
O O3 0.195300 0.474965 0.152068
O O4 0.191582 0.173906 0.125738
O O5 0.131513 0.131513 0.375000
O O6 0.338881 0.992898 0.490840
O O7 0.000000 0.954959 0.500000
#
# Coordination Sequence:
#
# PCOD9548537 Si02
#       4
#     4   8   8   4
#     4  10  24  46  74 114 156 216 276 340 418 498
#     4  11  25  46  77 111 161 211 275 344 411 496
#     4  12  28  50  75 120 166 212 279 346 417 506
#     4  12  26  46  78 114 158 216 272 348 418 496
#
# _framework density 24.576791
#
# number of rings (size 3 to 8) (size 9 to 14) (size 15 to 20)
#    0.000    0.667    3.333    4.000    9.333    2.667 
#    0.000    0.000    0.000    0.000    0.000    0.000 
#    0.000    0.000    0.000    0.000    0.000    0.000 
#
# Total GULP energy -134017.463382 kJ/mol
# GULP energy per Si atom -5584.060974 kJ/mol
# Density = 2.452085 g / cm^3
# Si number density = 24.576791 Si / 1000 Ang^3
#
#
#
# Elastic Constant Matrix: (Units=GPa)
#
#
# Indices 1 2 3 4 5 6 
#
# 1 137.8475 53.2746 31.6309 0.0000 0.0000 0.0000
# 2 53.2746 137.8475 31.6309 0.0000 0.0000 0.0000
# 3 31.6309 31.6309 98.3971 0.0000 0.0000 0.0000
# 4 0.0000 0.0000 0.0000 27.5629 0.0000 0.0000
# 5 0.0000 0.0000 0.0000 0.0000 27.5629 0.0000
# 6 0.0000 0.0000 0.0000 0.0000 0.0000 46.8550
#
#
#
# Elastic Compliance Matrix: (Units=1/GPa)
#
#
# Indices 1 2 3 4 5 6 
#
# 1 0.008840 -0.002984 -0.001882 0.000000 0.000000 0.000000
# 2 -0.002984 0.008840 -0.001882 0.000000 0.000000 0.000000
# 3 -0.001882 -0.001882 0.011373 0.000000 0.000000 0.000000
# 4 0.000000 0.000000 0.000000 0.036281 0.000000 0.000000
# 5 0.000000 0.000000 0.000000 0.000000 0.036281 0.000000
# 6 0.000000 0.000000 0.000000 0.000000 0.000000 0.021342
#
#
# Mechanical properties :
#
#
# Convention : Reuss Voigt Hill
#
# Bulk Modulus (GPa) = 64.28964 67.46279 65.87621
# Shear Modulus (GPa) = 35.30102 37.56653 36.43377
#
# Velocity S-wave (km/s) = 3.79404 3.91389 3.85443
# Velocity P-wave (km/s) = 6.73858 6.92345 6.83164
#
# Compressibility (1/GPa) = 0.01555461
#
# Stress axis : x y z
#
# Youngs Moduli (GPa) = 113.12595 113.12595 87.92722
#
# Poissons Ratio (x) = 0.33762 0.16550
# Poissons Ratio (y) = 0.33762 0.16550
# Poissons Ratio (z) = 0.21293 0.21293
#
# Static dielectric constant tensor:
#      x y z
#    x 1.929780 0.000000 0.000000 
#    y 0.000000 1.929780 0.000000 
#    z 0.000000 0.000000 2.050820 
# 
# From -- ./inp_files/4309.got.cif
#   From: 2010.05.17/outbox.cif.g08.bks.cpg/sg91_3_cif.got.tgz:4309.got - 2010.06.03 19:20:03.
