data_PCOD9548452
_publ_section_title
;
Structure prediction by ZEFSAII (Michael W. Deem and Ramdas Pophale) SiO2 
 PCOD9548452
Probable space group: P 41 2 2
;
_chemical_formula_sum "Si O2"
_cell_formula_units_Z 56
_cell_length_a 14.771556
_cell_length_b 14.771556
_cell_length_c 12.252397
_cell_angle_alpha 90.000000
_cell_angle_beta 90.000000
_cell_angle_gamma 90.000000
_cell_volume 2673.459139
_symmetry_space_group_name_H-M "P 41 2 2"
_symmetry_group_IT_number 91
_symmetry_cell_setting 'tetragonal'
loop_
_space_group_symop_operation_xyz
x,y,z
-y,x,1/4+z
-x,-y,1/2+z
y,-x,3/4+z
x,-y,1/2-z
-x,y,-z
y,x,3/4-z
-y,-x,1/4-z
loop_
_atom_site_type_symbol
_atom_site_label
_atom_site_fract_x
_atom_site_fract_y
_atom_site_fract_z
Si Si1 0.185525 0.674651 0.074315
Si Si2 0.602678 0.371652 0.999416
Si Si3 0.241346 0.474938 0.121444
Si Si4 0.860735 0.705546 0.543993
Si Si5 0.963759 0.272041 0.185309
Si Si6 0.322218 0.811730 0.428602
Si Si7 0.960227 0.192155 0.621058
O O1 0.270112 0.729889 0.125000
O O2 0.203946 0.568980 0.077087
O O3 0.096289 0.713749 0.131896
O O4 0.172997 0.695147 0.947932
O O5 0.664398 0.440436 0.930142
O O6 0.608776 0.270887 0.948158
O O7 0.500000 0.403273 0.000000
O O8 0.634847 0.365154 0.125000
O O9 0.249313 0.500000 0.250000
O O10 0.175587 0.393282 0.082645
O O11 0.907348 0.719262 0.426779
O O12 0.772852 0.768423 0.534120
O O13 0.935100 0.726894 0.635956
O O14 0.905307 0.342795 0.259588
O O15 0.971568 0.191434 0.276240
O O16 0.888074 0.111927 0.625000
O O17 0.000000 0.189943 0.500000
#
# Coordination Sequence:
#
# PCOD9548452 Si02
#       7
#     8   8   8   8   8   8   8
#     4  11  22  40  67  94 129 176 224 276 348 424
#     4  11  24  41  62  94 136 176 225 291 350 424
#     4  11  23  44  68  97 135 184 236 291 361 428
#     4  10  23  43  64  95 137 173 227 288 345 423
#     4  11  22  40  67  94 127 180 216 275 349 413
#     4  11  21  41  66  90 127 178 224 270 353 425
#     4  11  23  44  68 100 139 176 227 287 349 429
#
# _framework density 20.946645
#
# number of rings (size 3 to 8) (size 9 to 14) (size 15 to 20)
#    0.000    1.143    1.429    7.286    0.000    1.143 
#    2.571    5.000    0.000    0.000    0.000    0.000 
#    0.000    0.000    0.000    0.000    0.000    0.000 
#
# Total GULP energy -311931.283898 kJ/mol
# GULP energy per Si atom -5570.201498 kJ/mol
# Density = 2.089897 g / cm^3
# Si number density = 20.946645 Si / 1000 Ang^3
#
#
#
# Elastic Constant Matrix: (Units=GPa)
#
#
# Indices 1 2 3 4 5 6 
#
# 1 81.2839 14.7412 24.0277 0.0000 0.0000 0.0000
# 2 14.7412 81.2851 24.0283 0.0000 0.0000 0.0000
# 3 24.0277 24.0283 166.4753 0.0000 0.0000 0.0000
# 4 0.0000 0.0000 0.0000 7.7849 0.0000 0.0000
# 5 0.0000 0.0000 0.0000 0.0000 7.6808 0.0000
# 6 0.0000 0.0000 0.0000 0.0000 0.0000 10.5454
#
#
#
# Elastic Compliance Matrix: (Units=1/GPa)
#
#
# Indices 1 2 3 4 5 6 
#
# 1 0.013126 -0.001902 -0.001620 0.000000 0.000000 0.000000
# 2 -0.001902 0.013126 -0.001620 0.000000 0.000000 0.000000
# 3 -0.001620 -0.001620 0.006475 0.000000 0.000000 0.000000
# 4 0.000000 0.000000 0.000000 0.128454 0.000000 0.000000
# 5 0.000000 0.000000 0.000000 0.000000 0.130194 0.000000
# 6 0.000000 0.000000 0.000000 0.000000 0.000000 0.094828
#
#
# Mechanical properties :
#
#
# Convention : Reuss Voigt Hill
#
# Bulk Modulus (GPa) = 44.55636 50.51541 47.53589
# Shear Modulus (GPa) = 12.37723 22.95203 17.66463
#
# Velocity S-wave (km/s) = 2.43347 3.31378 2.90714
# Velocity P-wave (km/s) = 5.40493 6.22978 5.83195
#
# Compressibility (1/GPa) = 0.02244349
#
# Stress axis : x y z
#
# Youngs Moduli (GPa) = 76.18283 76.18378 154.45049
#
# Poissons Ratio (x) = 0.14487 0.25022
# Poissons Ratio (y) = 0.14487 0.25023
# Poissons Ratio (z) = 0.12342 0.12343
#
# Static dielectric constant tensor:
#      x y z
#    x 2.267010 0.000000 0.000000 
#    y 0.000000 2.269640 0.000000 
#    z 0.000000 0.000000 1.825060 
# 
# From -- ./inp_files/15962.got.cif
#   From: 2010.05.17/outbox.cif.g08.bks.cpg/sg91_8_cif.got.tgz:15962.got - 2010.06.03 19:20:03.
