data_PCOD9548465
_publ_section_title
;
Structure prediction by ZEFSAII (Michael W. Deem and Ramdas Pophale) SiO2 
 PCOD9548465
Probable space group: P 41 2 2
;
_chemical_formula_sum "Si O2"
_cell_formula_units_Z 40
_cell_length_a 11.276259
_cell_length_b 11.276259
_cell_length_c 12.118069
_cell_angle_alpha 90.000000
_cell_angle_beta 90.000000
_cell_angle_gamma 90.000000
_cell_volume 1540.861152
_symmetry_space_group_name_H-M "P 41 2 2"
_symmetry_group_IT_number 91
_symmetry_cell_setting 'tetragonal'
loop_
_space_group_symop_operation_xyz
x,y,z
-y,x,1/4+z
-x,-y,1/2+z
y,-x,3/4+z
x,-y,1/2-z
-x,y,-z
y,x,3/4-z
-y,-x,1/4-z
loop_
_atom_site_type_symbol
_atom_site_label
_atom_site_fract_x
_atom_site_fract_y
_atom_site_fract_z
Si Si1 0.563436 0.156197 0.190396
Si Si2 0.040140 0.208466 0.830096
Si Si3 0.625025 0.554440 0.132651
Si Si4 0.352989 0.829986 0.921642
Si Si5 0.998802 0.349785 0.370583
O O1 0.688619 0.119305 0.139512
O O2 0.530105 0.294479 0.195102
O O3 0.567516 0.121453 0.319215
O O4 0.459300 0.092932 0.122572
O O5 0.086238 0.086238 0.875000
O O6 0.902814 0.233621 0.854497
O O7 0.051177 0.242547 0.702517
O O8 0.667260 0.500000 0.250000
O O9 0.488398 0.511603 0.125000
O O10 0.648331 0.688713 0.093233
O O11 0.622892 0.882189 0.955107
O O12 0.000000 0.317742 0.500000
#
# Coordination Sequence:
#
# PCOD9548465 Si02
#       5
#     8   8   8   8   8
#     4  12  23  44  78 116 171 223 294 363 453 558
#     4  10  23  44  78 117 161 217 304 362 431 550
#     4  12  25  50  78 124 188 234 286 378 474 577
#     4  10  26  45  77 120 164 230 303 358 464 554
#     4  10  24  45  75 113 171 232 294 374 451 547
#
# _framework density 25.959510000000002
#
# number of rings (size 3 to 8) (size 9 to 14) (size 15 to 20)
#    1.200    0.000    2.000    4.200    5.600    0.000 
#    7.200    1.000    8.800    0.000    0.000   23.800 
#    0.000    0.000    0.000    0.000    0.000    0.000 
#
# Total GULP energy -223011.263477 kJ/mol
# GULP energy per Si atom -5575.281587 kJ/mol
# Density = 2.590043 g / cm^3
# Si number density = 25.959510 Si / 1000 Ang^3
#
#
#
# Elastic Constant Matrix: (Units=GPa)
#
#
# Indices 1 2 3 4 5 6 
#
# 1 144.1820 61.4959 55.3895 0.0000 0.0000 0.0000
# 2 61.4959 144.1812 55.3896 0.0000 0.0000 0.0000
# 3 55.3895 55.3896 236.4334 0.0000 0.0000 0.0000
# 4 0.0000 0.0000 0.0000 28.8870 0.0000 0.0000
# 5 0.0000 0.0000 0.0000 0.0000 28.8874 0.0000
# 6 0.0000 0.0000 0.0000 0.0000 0.0000 47.0310
#
#
#
# Elastic Compliance Matrix: (Units=1/GPa)
#
#
# Indices 1 2 3 4 5 6 
#
# 1 0.008829 -0.003265 -0.001303 0.000000 0.000000 0.000000
# 2 -0.003265 0.008829 -0.001304 0.000000 0.000000 0.000000
# 3 -0.001303 -0.001304 0.004840 0.000000 0.000000 0.000000
# 4 0.000000 0.000000 0.000000 0.034618 0.000000 0.000000
# 5 0.000000 0.000000 0.000000 0.000000 0.034617 0.000000
# 6 0.000000 0.000000 0.000000 0.000000 0.000000 0.021263
#
#
# Mechanical properties :
#
#
# Convention : Reuss Voigt Hill
#
# Bulk Modulus (GPa) = 92.98536 96.59404 94.78970
# Shear Modulus (GPa) = 38.96374 44.46252 41.71313
#
# Velocity S-wave (km/s) = 3.87840 4.14305 4.01291
# Velocity P-wave (km/s) = 7.48018 7.75736 7.62004
#
# Compressibility (1/GPa) = 0.01075438
#
# Stress axis : x y z
#
# Youngs Moduli (GPa) = 113.26316 113.26244 206.60029
#
# Poissons Ratio (x) = 0.36980 0.26930
# Poissons Ratio (y) = 0.36980 0.26930
# Poissons Ratio (z) = 0.14764 0.14764
#
# Static dielectric constant tensor:
#      x y z
#    x 2.102470 0.000000 0.000000 
#    y 0.000000 2.102470 0.000000 
#    z 0.000000 0.000000 2.179460 
# 
# From -- ./inp_files/16374.got.cif
#   From: 2010.05.17/outbox.cif.g08.bks.cpg/sg91_9_cif.got.tgz:16374.got - 2010.06.03 19:20:03.
