data_PCOD9548879
_publ_section_title
;
Structure prediction by ZEFSAII (Michael W. Deem and Ramdas Pophale) SiO2 
 PCOD9548879
Probable space group: P 41 21 2
;
_chemical_formula_sum "Si O2"
_cell_formula_units_Z 52
_cell_length_a 20.782528
_cell_length_b 20.782528
_cell_length_c 6.582897
_cell_angle_alpha 90.000000
_cell_angle_beta 90.000000
_cell_angle_gamma 90.000000
_cell_volume 2843.241886
_symmetry_space_group_name_H-M "P 41 21 2"
_symmetry_group_IT_number 92
_symmetry_cell_setting 'tetragonal'
loop_
_space_group_symop_operation_xyz
x,y,z
1/2-y,1/2+x,1/4+z
-x,-y,1/2+z
1/2+y,1/2-x,3/4+z
1/2+x,1/2-y,3/4-z
1/2-x,1/2+y,1/4-z
y,x,-z
-y,-x,1/2-z
loop_
_atom_site_type_symbol
_atom_site_label
_atom_site_fract_x
_atom_site_fract_y
_atom_site_fract_z
Si Si1 0.378283 0.159303 0.171601
Si Si2 0.911048 0.528424 0.013542
Si Si3 0.457777 0.201559 0.794181
Si Si4 0.159254 0.253258 0.375522
Si Si5 0.138075 0.754714 0.742574
Si Si6 0.082853 0.248451 0.744552
Si Si7 0.334735 0.665266 0.250000
O O1 0.422807 0.114170 0.313203
O O2 0.377511 0.228902 0.282671
O O3 0.306678 0.130285 0.183649
O O4 0.408909 0.167028 0.950861
O O5 0.938753 0.466369 0.127815
O O6 0.851728 0.514654 0.861880
O O7 0.422839 0.255012 0.654795
O O8 0.513334 0.232375 0.929295
O O9 0.205635 0.205635 0.500000
O O10 0.194981 0.320731 0.398215
O O11 0.092915 0.250091 0.500492
O O12 0.160302 0.225513 0.152135
O O13 0.182703 0.817298 0.750000
O O14 0.106573 0.181418 0.846452
#
# Coordination Sequence:
#
# PCOD9548879 Si02
#       7
#     8   8   8   8   8   8   4
#     4  10  21  36  52  74 107 141 186 236 274 324
#     4  11  25  36  51  71 103 155 203 234 265 309
#     4  11  22  35  52  77 107 145 184 232 277 321
#     4   8  16  30  48  72  97 133 173 214 261 319
#     4   9  19  34  52  79 106 136 178 225 281 331
#     4  10  20  32  51  74 105 135 180 224 272 322
#     4  10  18  32  54  74 100 138 168 216 278 334
#
# _framework density 18.288982000000001
#
# number of rings (size 3 to 8) (size 9 to 14) (size 15 to 20)
#    0.000    2.154    0.000    3.692    4.308    5.538 
#    0.000    0.000    0.000    0.000    0.000    0.000 
#    4.615    0.000    0.000    0.000    0.000    0.000 
#
# Total GULP energy -289901.368543 kJ/mol
# GULP energy per Si atom -5575.026318 kJ/mol
# Density = 1.824736 g / cm^3
# Si number density = 18.288982 Si / 1000 Ang^3
#
#
#
# Elastic Constant Matrix: (Units=GPa)
#
#
# Indices 1 2 3 4 5 6 
#
# 1 41.7622 36.3488 22.3778 0.0000 0.0000 0.0000
# 2 36.3488 41.7619 22.3773 0.0000 0.0000 0.0000
# 3 22.3778 22.3773 87.8347 0.0000 0.0000 0.0000
# 4 0.0000 0.0000 0.0000 26.7252 0.0000 0.0000
# 5 0.0000 0.0000 0.0000 0.0000 26.7235 0.0000
# 6 0.0000 0.0000 0.0000 0.0000 0.0000 22.0447
#
#
#
# Elastic Compliance Matrix: (Units=1/GPa)
#
#
# Indices 1 2 3 4 5 6 
#
# 1 0.099861 -0.084870 -0.003820 0.000000 0.000000 0.000000
# 2 -0.084870 0.099861 -0.003819 0.000000 0.000000 0.000000
# 3 -0.003820 -0.003819 0.013331 0.000000 0.000000 0.000000
# 4 0.000000 0.000000 0.000000 0.037418 0.000000 0.000000
# 5 0.000000 0.000000 0.000000 0.000000 0.037420 0.000000
# 6 0.000000 0.000000 0.000000 0.000000 0.000000 0.045362
#
#
# Mechanical properties :
#
#
# Convention : Reuss Voigt Hill
#
# Bulk Modulus (GPa) = 35.66890 37.06295 36.36593
# Shear Modulus (GPa) = 9.47661 21.11568 15.29614
#
# Velocity S-wave (km/s) = 2.27878 3.40156 2.89512
# Velocity P-wave (km/s) = 5.14481 5.97802 5.57700
#
# Compressibility (1/GPa) = 0.02803563
#
# Stress axis : x y z
#
# Youngs Moduli (GPa) = 10.01396 10.01394 75.01307
#
# Poissons Ratio (x) = 0.84988 0.28653
# Poissons Ratio (y) = 0.84989 0.28644
# Poissons Ratio (z) = 0.03825 0.03824
#
# Static dielectric constant tensor:
#      x y z
#    x 1.640090 0.000000 0.000000 
#    y 0.000000 1.640090 0.000000 
#    z 0.000000 0.000000 1.701690 
# 
# From -- ./inp_files/703.got.cif
#   From: 2010.05.17/outbox.cif.g08.bks.cpg/sg92_1_cif.got.tgz:703.got - 2010.06.03 19:35:17.
