data_PCOD9548126
_publ_section_title
;
Structure prediction by ZEFSAII (Michael W. Deem and Ramdas Pophale) SiO2 
 PCOD9548126
Probable space group: P 41 2 2
;
_chemical_formula_sum "Si O2"
_cell_formula_units_Z 56
_cell_length_a 13.623291
_cell_length_b 13.623291
_cell_length_c 12.630079
_cell_angle_alpha 90.000000
_cell_angle_beta 90.000000
_cell_angle_gamma 90.000000
_cell_volume 2344.067610
_symmetry_space_group_name_H-M "P 41 2 2"
_symmetry_group_IT_number 91
_symmetry_cell_setting 'tetragonal'
loop_
_space_group_symop_operation_xyz
x,y,z
-y,x,1/4+z
-x,-y,1/2+z
y,-x,3/4+z
x,-y,1/2-z
-x,y,-z
y,x,3/4-z
-y,-x,1/4-z
loop_
_atom_site_type_symbol
_atom_site_label
_atom_site_fract_x
_atom_site_fract_y
_atom_site_fract_z
Si Si1 0.556260 0.210546 0.850297
Si Si2 0.417834 0.924669 0.158613
Si Si3 0.203233 0.005394 0.635213
Si Si4 0.693874 0.301461 0.499224
Si Si5 0.622633 0.108750 0.434734
Si Si6 0.886777 0.838494 0.993988
Si Si7 0.335388 0.817030 0.573781
O O1 0.575827 0.170928 0.730785
O O2 0.602747 0.316171 0.824850
O O3 0.443195 0.186362 0.871017
O O4 0.624437 0.178156 0.950909
O O5 0.524807 0.939792 0.108466
O O6 0.397056 0.000000 0.250000
O O7 0.350998 0.927366 0.054492
O O8 0.260389 0.908390 0.593952
O O9 0.156626 0.000000 0.750000
O O10 0.293719 0.081804 0.646875
O O11 0.129464 0.061881 0.559640
O O12 0.684763 0.315238 0.625000
O O13 0.614382 0.223386 0.455739
O O14 0.798294 0.239118 0.478670
O O15 0.865215 0.865215 0.875000
O O16 0.000000 0.805620 0.000000
O O17 0.274939 0.725062 0.625000
#
# Coordination Sequence:
#
# PCOD9548126 Si02
#       7
#     8   8   8   8   8   8   8
#     4  11  24  42  69  95 134 176 230 282 356 424
#     4  11  21  35  64  98 138 172 216 288 345 420
#     4  11  24  43  69  97 140 181 229 287 347 415
#     4  10  21  42  65  97 133 181 226 285 343 414
#     4  10  21  38  62 102 137 171 226 275 352 419
#     4  10  25  42  64  99 141 189 240 272 331 411
#     4  11  27  45  67 100 132 180 228 291 359 420
#
# _framework density 23.890097000000001
#
# number of rings (size 3 to 8) (size 9 to 14) (size 15 to 20)
#    0.000    1.429    1.429    3.000    8.000    4.000 
#    0.000    0.000    0.000    6.857    0.000    0.000 
#    0.000    0.000    0.000    0.000    0.000    0.000 
#
# Total GULP energy -311782.002449 kJ/mol
# GULP energy per Si atom -5567.535758 kJ/mol
# Density = 2.383572 g / cm^3
# Si number density = 23.890097 Si / 1000 Ang^3
#
#
#
# Elastic Constant Matrix: (Units=GPa)
#
#
# Indices 1 2 3 4 5 6 
#
# 1 73.9699 42.0009 37.7856 0.0000 0.0000 0.0000
# 2 42.0009 73.9707 37.7865 0.0000 0.0000 0.0000
# 3 37.7856 37.7865 128.9094 0.0000 0.0000 0.0000
# 4 0.0000 0.0000 0.0000 40.6705 0.0000 0.0000
# 5 0.0000 0.0000 0.0000 0.0000 40.6622 0.0000
# 6 0.0000 0.0000 0.0000 0.0000 0.0000 13.3755
#
#
#
# Elastic Compliance Matrix: (Units=1/GPa)
#
#
# Indices 1 2 3 4 5 6 
#
# 1 0.020969 -0.010311 -0.003124 0.000000 0.000000 0.000000
# 2 -0.010311 0.020969 -0.003124 0.000000 0.000000 0.000000
# 3 -0.003124 -0.003124 0.009589 0.000000 0.000000 0.000000
# 4 0.000000 0.000000 0.000000 0.024588 0.000000 0.000000
# 5 0.000000 0.000000 0.000000 0.000000 0.024593 0.000000
# 6 0.000000 0.000000 0.000000 0.000000 0.000000 0.074764
#
#
# Mechanical properties :
#
#
# Convention : Reuss Voigt Hill
#
# Bulk Modulus (GPa) = 54.32039 56.88844 55.60442
# Shear Modulus (GPa) = 23.28540 29.56010 26.42275
#
# Velocity S-wave (km/s) = 3.12539 3.52140 3.32928
# Velocity P-wave (km/s) = 5.98423 6.35593 6.17288
#
# Compressibility (1/GPa) = 0.01840929
#
# Stress axis : x y z
#
# Youngs Moduli (GPa) = 47.68860 47.68878 104.28628
#
# Poissons Ratio (x) = 0.49170 0.32581
# Poissons Ratio (y) = 0.49170 0.32583
# Poissons Ratio (z) = 0.14899 0.14900
#
# Static dielectric constant tensor:
#      x y z
#    x 1.461370 0.000000 0.000000 
#    y 0.000000 1.461580 0.000000 
#    z 0.000000 0.000000 1.797280 
# 
# From -- ./inp_files/20331.got.cif
#   From: 2010.05.17/outbox.cif.g08.bks.cpg/sg91_11_cif.got.tgz:20331.got - 2010.06.03 19:20:03.
