data_PCOD9548029
_publ_section_title
;
Structure prediction by ZEFSAII (Michael W. Deem and Ramdas Pophale) SiO2 
 PCOD9548029
Probable space group: P 41 2 2
;
_chemical_formula_sum "Si O2"
_cell_formula_units_Z 32
_cell_length_a 8.119631
_cell_length_b 8.119631
_cell_length_c 20.216797
_cell_angle_alpha 90.000000
_cell_angle_beta 90.000000
_cell_angle_gamma 90.000000
_cell_volume 1332.861233
_symmetry_space_group_name_H-M "P 41 2 2"
_symmetry_group_IT_number 91
_symmetry_cell_setting 'tetragonal'
loop_
_space_group_symop_operation_xyz
x,y,z
-y,x,1/4+z
-x,-y,1/2+z
y,-x,3/4+z
x,-y,1/2-z
-x,y,-z
y,x,3/4-z
-y,-x,1/4-z
loop_
_atom_site_type_symbol
_atom_site_label
_atom_site_fract_x
_atom_site_fract_y
_atom_site_fract_z
Si Si1 0.475981 0.133889 0.695271
Si Si2 0.679081 0.428764 0.353149
Si Si3 0.243424 0.697900 0.261576
Si Si4 0.066099 0.297110 0.834260
O O1 0.358460 0.291404 0.700636
O O2 0.660734 0.200535 0.705114
O O3 0.439249 0.000000 0.750000
O O4 0.416212 0.054466 0.627323
O O5 0.505737 0.505737 0.375000
O O6 0.745322 0.345339 0.421020
O O7 0.784851 0.577198 0.325357
O O8 0.254695 0.500000 0.250000
O O9 0.052718 0.745928 0.273266
O O10 0.142771 0.142771 0.875000
#
# Coordination Sequence:
#
# PCOD9548029 Si02
#       4
#     8   8   8   8
#     4  11  22  40  69  95 137 178 223 283 351 411
#     4  10  20  40  69  92 129 173 231 281 326 413
#     4  11  22  41  68  99 126 179 232 274 345 417
#     4  10  24  43  68 100 139 176 232 295 344 414
#
# _framework density 24.008503999999999
#
# number of rings (size 3 to 8) (size 9 to 14) (size 15 to 20)
#    0.000    1.500    5.000    0.000    0.000    2.000 
#    0.000    7.500    0.000    0.000    0.000    0.000 
#    0.000    0.000    0.000    0.000    0.000    0.000 
#
# Total GULP energy -178684.111010 kJ/mol
# GULP energy per Si atom -5583.878469 kJ/mol
# Density = 2.395386 g / cm^3
# Si number density = 24.008504 Si / 1000 Ang^3
#
#
#
# Elastic Constant Matrix: (Units=GPa)
#
#
# Indices 1 2 3 4 5 6 
#
# 1 99.0028 38.1927 39.9795 0.0000 0.0000 0.0000
# 2 38.1927 99.0028 39.9795 0.0000 0.0000 0.0000
# 3 39.9795 39.9795 55.6741 0.0000 0.0000 0.0000
# 4 0.0000 0.0000 0.0000 46.6467 0.0000 0.0000
# 5 0.0000 0.0000 0.0000 0.0000 46.6467 0.0000
# 6 0.0000 0.0000 0.0000 0.0000 0.0000 18.1190
#
#
#
# Elastic Compliance Matrix: (Units=1/GPa)
#
#
# Indices 1 2 3 4 5 6 
#
# 1 0.014490 -0.001955 -0.009001 0.000000 0.000000 0.000000
# 2 -0.001955 0.014490 -0.009001 0.000000 0.000000 0.000000
# 3 -0.009001 -0.009001 0.030889 0.000000 0.000000 0.000000
# 4 0.000000 0.000000 0.000000 0.021438 0.000000 0.000000
# 5 0.000000 0.000000 0.000000 0.000000 0.021438 0.000000
# 6 0.000000 0.000000 0.000000 0.000000 0.000000 0.055191
#
#
# Mechanical properties :
#
#
# Convention : Reuss Voigt Hill
#
# Bulk Modulus (GPa) = 50.11547 54.44260 52.27904
# Shear Modulus (GPa) = 24.44971 31.31768 27.88370
#
# Velocity S-wave (km/s) = 3.19466 3.61562 3.41164
# Velocity P-wave (km/s) = 5.87599 6.33687 6.11077
#
# Compressibility (1/GPa) = 0.01995392
#
# Stress axis : x y z
#
# Youngs Moduli (GPa) = 69.01413 69.01413 32.37362
#
# Poissons Ratio (x) = 0.13491 0.29141
# Poissons Ratio (y) = 0.13491 0.29141
# Poissons Ratio (z) = 0.62122 0.62122
#
# Static dielectric constant tensor:
#      x y z
#    x 1.959470 0.000000 0.000000 
#    y 0.000000 1.959470 0.000000 
#    z 0.000000 0.000000 2.087270 
# 
# From -- ./inp_files/5970.got.cif
#   From: 2010.05.17/outbox.cif.g08.bks.cpg/sg91_3_cif.got.tgz:5970.got - 2010.06.03 19:20:03.
