data_PCOD9548739
_publ_section_title
;
Structure prediction by ZEFSAII (Michael W. Deem and Ramdas Pophale) SiO2 
 PCOD9548739
Probable space group: P 41 2 2
;
_chemical_formula_sum "Si O2"
_cell_formula_units_Z 20
_cell_length_a 8.535849
_cell_length_b 8.535849
_cell_length_c 10.797989
_cell_angle_alpha 90.000000
_cell_angle_beta 90.000000
_cell_angle_gamma 90.000000
_cell_volume 786.749233
_symmetry_space_group_name_H-M "P 41 2 2"
_symmetry_group_IT_number 91
_symmetry_cell_setting 'tetragonal'
loop_
_space_group_symop_operation_xyz
x,y,z
-y,x,1/4+z
-x,-y,1/2+z
y,-x,3/4+z
x,-y,1/2-z
-x,y,-z
y,x,3/4-z
-y,-x,1/4-z
loop_
_atom_site_type_symbol
_atom_site_label
_atom_site_fract_x
_atom_site_fract_y
_atom_site_fract_z
Si Si1 0.621343 0.871852 0.612629
Si Si2 0.261066 0.475204 0.112425
Si Si3 0.070620 0.929381 0.125000
O O1 0.500000 0.879549 0.500000
O O2 0.714536 0.708611 0.594227
O O3 0.466403 0.166500 0.242663
O O4 0.749435 0.012348 0.617765
O O5 0.192821 0.500000 0.250000
O O6 0.421997 0.578004 0.125000
O O7 0.004726 0.000000 0.250000
#
# Coordination Sequence:
#
# PCOD9548739 Si02
#       3
#     8   8   4
#     4  11  23  48  85 122 164 222 278 343 419 495
#     4   9  19  39  81 130 165 207 285 354 408 486
#     4  12  34  58  74 122 176 220 272 340 424 498
#
# _framework density 25.421057999999999
#
# number of rings (size 3 to 8) (size 9 to 14) (size 15 to 20)
#    0.000    1.600    0.000    4.800   14.000    0.000 
#    7.200    0.000    0.000    0.000    0.000    5.600 
#    0.000    0.000    0.000    0.000    0.000    0.000 
#
# Total GULP energy -111790.451438 kJ/mol
# GULP energy per Si atom -5589.522572 kJ/mol
# Density = 2.536320 g / cm^3
# Si number density = 25.421058 Si / 1000 Ang^3
#
#
#
# Elastic Constant Matrix: (Units=GPa)
#
#
# Indices 1 2 3 4 5 6 
#
# 1 165.6941 92.3315 88.5637 0.0000 0.0000 0.0000
# 2 92.3315 165.6912 88.5640 0.0000 0.0000 0.0000
# 3 88.5637 88.5640 291.7866 0.0000 0.0000 0.0000
# 4 0.0000 0.0000 0.0000 9.0576 0.0000 0.0000
# 5 0.0000 0.0000 0.0000 0.0000 9.0582 0.0000
# 6 0.0000 0.0000 0.0000 0.0000 0.0000 15.6739
#
#
#
# Elastic Compliance Matrix: (Units=1/GPa)
#
#
# Indices 1 2 3 4 5 6 
#
# 1 0.009263 -0.004368 -0.001486 0.000000 0.000000 0.000000
# 2 -0.004368 0.009264 -0.001486 0.000000 0.000000 0.000000
# 3 -0.001486 -0.001486 0.004329 0.000000 0.000000 0.000000
# 4 0.000000 0.000000 0.000000 0.110404 0.000000 0.000000
# 5 0.000000 0.000000 0.000000 0.000000 0.110398 0.000000
# 6 0.000000 0.000000 0.000000 0.000000 0.000000 0.063800
#
#
# Mechanical properties :
#
#
# Convention : Reuss Voigt Hill
#
# Bulk Modulus (GPa) = 122.29787 129.12115 125.70951
# Shear Modulus (GPa) = 15.39109 30.33879 22.86494
#
# Velocity S-wave (km/s) = 2.46325 3.45838 3.00233
# Velocity P-wave (km/s) = 7.50356 8.17621 7.84710
#
# Compressibility (1/GPa) = 0.00817676
#
# Stress axis : x y z
#
# Youngs Moduli (GPa) = 107.95258 107.95021 230.98953
#
# Poissons Ratio (x) = 0.47150 0.34323
# Poissons Ratio (y) = 0.47151 0.34325
# Poissons Ratio (z) = 0.16041 0.16041
#
# Static dielectric constant tensor:
#      x y z
#    x 2.043080 0.000000 0.000000 
#    y 0.000000 2.043080 0.000000 
#    z 0.000000 0.000000 1.930020 
# 
# From -- ./inp_files/10249.got.cif
#   From: 2010.05.17/outbox.cif.g08.bks.cpg/sg91_6_cif.got.tgz:10249.got - 2010.06.03 19:20:03.
