data_PCOD9548799
_publ_section_title
;
Structure prediction by ZEFSAII (Michael W. Deem and Ramdas Pophale) SiO2 
 PCOD9548799
Probable space group: P 41 2 2
;
_chemical_formula_sum "Si O2"
_cell_formula_units_Z 24
_cell_length_a 14.843337
_cell_length_b 14.843337
_cell_length_c 4.997159
_cell_angle_alpha 90.000000
_cell_angle_beta 90.000000
_cell_angle_gamma 90.000000
_cell_volume 1100.997324
_symmetry_space_group_name_H-M "P 41 2 2"
_symmetry_group_IT_number 91
_symmetry_cell_setting 'tetragonal'
loop_
_space_group_symop_operation_xyz
x,y,z
-y,x,1/4+z
-x,-y,1/2+z
y,-x,3/4+z
x,-y,1/2-z
-x,y,-z
y,x,3/4-z
-y,-x,1/4-z
loop_
_atom_site_type_symbol
_atom_site_label
_atom_site_fract_x
_atom_site_fract_y
_atom_site_fract_z
Si Si1 0.855297 0.000000 0.750000
Si Si2 0.669490 0.669490 0.375000
Si Si3 0.000000 0.720869 0.500000
Si Si4 0.568663 0.849163 0.245849
Si Si5 0.403554 0.403554 0.375000
O O1 0.921547 0.078454 0.625000
O O2 0.787520 0.977622 0.501456
O O3 0.633483 0.762335 0.260363
O O4 0.605304 0.662098 0.630138
O O5 0.077965 0.647636 0.450475
O O6 0.500000 0.863086 0.500000
O O7 0.500000 0.844569 0.000000
O O8 0.500000 0.393430 0.500000
#
# Coordination Sequence:
#
# PCOD9548799 Si02
#       5
#     4   4   4   8   4
#     4  12  27  49  82 118 158 196 244 315 391 466
#     4  12  25  40  68  98 138 187 246 308 356 442
#     4  12  27  49  80 110 154 198 258 303 385 466
#     4  12  26  47  72 107 153 200 254 315 383 448
#     4  12  23  38  60  92 132 183 234 296 366 430
#
# _framework density 21.798418000000002
#
# number of rings (size 3 to 8) (size 9 to 14) (size 15 to 20)
#    0.000    0.000    0.000   12.000    4.667    0.000 
#    0.000    0.000    0.000    0.000    0.000    0.000 
#    0.000    0.000    0.000    0.000    0.000    0.000 
#
# Total GULP energy -133739.111385 kJ/mol
# GULP energy per Si atom -5572.462974 kJ/mol
# Density = 2.174880 g / cm^3
# Si number density = 21.798418 Si / 1000 Ang^3
#
#
#
# Elastic Constant Matrix: (Units=GPa)
#
#
# Indices 1 2 3 4 5 6 
#
# 1 477.5693 -238.5353 57.4817 0.0000 0.0000 0.0000
# 2 -238.5353 477.5747 57.4793 0.0000 0.0000 0.0000
# 3 57.4817 57.4793 150.2896 0.0000 0.0000 0.0000
# 4 0.0000 0.0000 0.0000 -380.2296 0.0000 0.0000
# 5 0.0000 0.0000 0.0000 0.0000 -380.3819 0.0000
# 6 0.0000 0.0000 0.0000 0.0000 0.0000 43.1120
#
#
#
# Elastic Compliance Matrix: (Units=1/GPa)
#
#
# Indices 1 2 3 4 5 6 
#
# 1 0.003261 0.001865 -0.001961 0.000000 0.000000 0.000000
# 2 0.001865 0.003261 -0.001961 0.000000 0.000000 0.000000
# 3 -0.001961 -0.001961 0.008154 0.000000 0.000000 0.000000
# 4 0.000000 0.000000 0.000000 -0.002630 0.000000 0.000000
# 5 0.000000 0.000000 0.000000 0.000000 -0.002629 0.000000
# 6 0.000000 0.000000 0.000000 0.000000 0.000000 0.023195
#
#
# Mechanical properties :
#
#
# Convention : Reuss Voigt Hill
#
# Bulk Modulus (GPa) = 94.66352 95.36499 95.01426
# Shear Modulus (GPa) = 124.23327 -61.56602 31.33363
#
# Velocity S-wave (km/s) = 7.55749 -5.32021 3.79545
# Velocity P-wave (km/s) = 10.93962 2.47063 7.93030
#
# Compressibility (1/GPa) = 0.01056373
#
# Stress axis : x y z
#
# Youngs Moduli (GPa) = 306.61185 306.61671 122.64528
#
# Poissons Ratio (x) = -0.57184 0.24047
# Poissons Ratio (y) = -0.57183 0.24046
# Poissons Ratio (z) = 0.60117 0.60117
#
# Static dielectric constant tensor:
#      x y z
#    x 5.332230 0.000000 0.000000 
#    y 0.000000 5.333370 0.000000 
#    z 0.000000 0.000000 1.721940 
# 
# From -- ./inp_files/13869.got.cif
#   From: 2010.05.17/outbox.cif.g08.bks.cpg/sg91_7_cif.got.tgz:13869.got - 2010.06.03 19:20:03.
