data_PCOD9548399
_publ_section_title
;
Structure prediction by ZEFSAII (Michael W. Deem and Ramdas Pophale) SiO2 
 PCOD9548399
Probable space group: P 41 2 2
;
_chemical_formula_sum "Si O2"
_cell_formula_units_Z 48
_cell_length_a 8.662577
_cell_length_b 8.662577
_cell_length_c 29.204523
_cell_angle_alpha 90.000000
_cell_angle_beta 90.000000
_cell_angle_gamma 90.000000
_cell_volume 2191.514423
_symmetry_space_group_name_H-M "P 41 2 2"
_symmetry_group_IT_number 91
_symmetry_cell_setting 'tetragonal'
loop_
_space_group_symop_operation_xyz
x,y,z
-y,x,1/4+z
-x,-y,1/2+z
y,-x,3/4+z
x,-y,1/2-z
-x,y,-z
y,x,3/4-z
-y,-x,1/4-z
loop_
_atom_site_type_symbol
_atom_site_label
_atom_site_fract_x
_atom_site_fract_y
_atom_site_fract_z
Si Si1 0.450626 0.657120 0.730041
Si Si2 0.775080 0.877693 0.324715
Si Si3 0.014369 0.393090 0.707962
Si Si4 0.099219 0.144966 0.225326
Si Si5 0.611075 0.750652 0.080406
Si Si6 0.772508 0.332563 0.930040
O O1 0.382642 0.500000 0.750000
O O2 0.341895 0.750883 0.695513
O O3 0.606783 0.603885 0.704437
O O4 0.447402 0.756716 0.776779
O O5 0.827605 0.827605 0.375000
O O6 0.925202 0.887262 0.291961
O O7 0.700027 0.046183 0.326343
O O8 0.064654 0.500000 0.750000
O O9 0.911652 0.266971 0.733801
O O10 0.895191 0.495615 0.678330
O O11 0.165867 0.311979 0.687330
O O12 0.184861 0.218378 0.182166
O O13 0.173297 0.000000 0.250000
O O14 0.599220 0.705049 0.133130
#
# Coordination Sequence:
#
# PCOD9548399 Si02
#       6
#     8   8   8   8   8   8
#     4  12  28  47  72 109 146 194 246 319 382 446
#     4  12  25  45  75 112 141 195 264 308 366 457
#     4  10  22  44  71 100 140 196 238 296 369 440
#     4  11  20  42  72 100 141 190 242 303 364 438
#     4  11  28  45  72 107 152 193 247 306 389 456
#     4  12  25  45  77 107 147 197 253 313 369 464
#
# _framework density 21.902661999999999
#
# number of rings (size 3 to 8) (size 9 to 14) (size 15 to 20)
#    0.000    0.667    5.000    2.500    7.000    1.333 
#    0.000    0.000    3.667    0.000    0.000    0.000 
#    0.000    0.000    0.000    0.000    0.000    0.000 
#
# Total GULP energy -268024.362766 kJ/mol
# GULP energy per Si atom -5583.840891 kJ/mol
# Density = 2.185281 g / cm^3
# Si number density = 21.902662 Si / 1000 Ang^3
#
#
#
# Elastic Constant Matrix: (Units=GPa)
#
#
# Indices 1 2 3 4 5 6 
#
# 1 83.3537 20.5192 31.2774 0.0000 0.0000 0.0000
# 2 20.5192 83.3537 31.2774 0.0000 0.0000 0.0000
# 3 31.2774 31.2774 120.9037 0.0000 0.0000 0.0000
# 4 0.0000 0.0000 0.0000 34.3323 0.0000 0.0000
# 5 0.0000 0.0000 0.0000 0.0000 34.3323 0.0000
# 6 0.0000 0.0000 0.0000 0.0000 0.0000 25.3863
#
#
#
# Elastic Compliance Matrix: (Units=1/GPa)
#
#
# Indices 1 2 3 4 5 6 
#
# 1 0.013659 -0.002256 -0.002950 0.000000 0.000000 0.000000
# 2 -0.002256 0.013659 -0.002950 0.000000 0.000000 0.000000
# 3 -0.002950 -0.002950 0.009797 0.000000 0.000000 0.000000
# 4 0.000000 0.000000 0.000000 0.029127 0.000000 0.000000
# 5 0.000000 0.000000 0.000000 0.000000 0.029127 0.000000
# 6 0.000000 0.000000 0.000000 0.000000 0.000000 0.039391
#
#
# Mechanical properties :
#
#
# Convention : Reuss Voigt Hill
#
# Bulk Modulus (GPa) = 48.06653 50.41769 49.24211
# Shear Modulus (GPa) = 31.64400 32.44600 32.04500
#
# Velocity S-wave (km/s) = 3.80512 3.85304 3.82915
# Velocity P-wave (km/s) = 6.42638 6.54702 6.48698
#
# Compressibility (1/GPa) = 0.02080450
#
# Stress axis : x y z
#
# Youngs Moduli (GPa) = 73.21014 73.21014 102.06764
#
# Poissons Ratio (x) = 0.16513 0.30111
# Poissons Ratio (y) = 0.16513 0.30111
# Poissons Ratio (z) = 0.21598 0.21598
#
# Static dielectric constant tensor:
#      x y z
#    x 1.764180 0.000000 0.000000 
#    y 0.000000 1.764180 0.000000 
#    z 0.000000 0.000000 1.819120 
# 
# From -- ./inp_files/18145.got.cif
#   From: 2010.05.17/outbox.cif.g08.bks.cpg/sg91_10_cif.got.tgz:18145.got - 2010.06.03 19:20:03.
