data_PCOD9548408
_publ_section_title
;
Structure prediction by ZEFSAII (Michael W. Deem and Ramdas Pophale) SiO2 
 PCOD9548408
Probable space group: P 41 2 2
;
_chemical_formula_sum "Si O2"
_cell_formula_units_Z 32
_cell_length_a 8.094926
_cell_length_b 8.094926
_cell_length_c 20.086313
_cell_angle_alpha 90.000000
_cell_angle_beta 90.000000
_cell_angle_gamma 90.000000
_cell_volume 1316.212442
_symmetry_space_group_name_H-M "P 41 2 2"
_symmetry_group_IT_number 91
_symmetry_cell_setting 'tetragonal'
loop_
_space_group_symop_operation_xyz
x,y,z
-y,x,1/4+z
-x,-y,1/2+z
y,-x,3/4+z
x,-y,1/2-z
-x,y,-z
y,x,3/4-z
-y,-x,1/4-z
loop_
_atom_site_type_symbol
_atom_site_label
_atom_site_fract_x
_atom_site_fract_y
_atom_site_fract_z
Si Si1 0.363769 0.234842 0.305181
Si Si2 0.269258 0.190908 0.735314
Si Si3 0.683967 0.316034 0.125000
Si Si4 0.861588 0.500000 0.750000
Si Si5 0.613165 0.914331 0.618197
O O1 0.324109 0.324109 0.375000
O O2 0.553070 0.259680 0.286156
O O3 0.248129 0.332962 0.253493
O O4 0.341256 0.039532 0.322340
O O5 0.226713 0.267122 0.806559
O O6 0.144590 0.233651 0.676325
O O7 0.285841 0.000000 0.750000
O O8 0.498335 0.245361 0.135918
O O9 0.971489 0.509694 0.816414
#
# Coordination Sequence:
#
# PCOD9548408 Si02
#       5
#     8   8   4   4   8
#     4  10  25  48  76 112 151 206 270 326 396 484
#     4  12  26  49  75 116 154 210 266 328 417 480
#     4  12  24  46  76 108 162 200 264 334 382 510
#     4  10  22  46  72 110 152 204 266 328 386 480
#     4  11  24  48  77 114 153 202 268 333 407 471
#
# _framework density 24.312182
#
# number of rings (size 3 to 8) (size 9 to 14) (size 15 to 20)
#    0.000    1.000    5.000    0.000    5.250    2.000 
#    6.750    5.000    0.000    0.000    0.000    0.000 
#    0.000    0.000    0.000    0.000    0.000    0.000 
#
# Total GULP energy -178803.381921 kJ/mol
# GULP energy per Si atom -5587.605685 kJ/mol
# Density = 2.425685 g / cm^3
# Si number density = 24.312182 Si / 1000 Ang^3
#
#
#
# Elastic Constant Matrix: (Units=GPa)
#
#
# Indices 1 2 3 4 5 6 
#
# 1 95.6038 78.1573 31.2376 0.0000 0.0000 0.0000
# 2 78.1573 95.6045 31.2377 0.0000 0.0000 0.0000
# 3 31.2376 31.2377 116.8472 0.0000 0.0000 0.0000
# 4 0.0000 0.0000 0.0000 15.9380 0.0000 0.0000
# 5 0.0000 0.0000 0.0000 0.0000 15.9382 0.0000
# 6 0.0000 0.0000 0.0000 0.0000 0.0000 28.3866
#
#
#
# Elastic Compliance Matrix: (Units=1/GPa)
#
#
# Indices 1 2 3 4 5 6 
#
# 1 0.031842 -0.025475 -0.001702 0.000000 0.000000 0.000000
# 2 -0.025475 0.031842 -0.001702 0.000000 0.000000 0.000000
# 3 -0.001702 -0.001702 0.009468 0.000000 0.000000 0.000000
# 4 0.000000 0.000000 0.000000 0.062743 0.000000 0.000000
# 5 0.000000 0.000000 0.000000 0.000000 0.062742 0.000000
# 6 0.000000 0.000000 0.000000 0.000000 0.000000 0.035228
#
#
# Mechanical properties :
#
#
# Convention : Reuss Voigt Hill
#
# Bulk Modulus (GPa) = 64.96150 65.48010 65.22080
# Shear Modulus (GPa) = 16.84891 23.21409 20.03150
#
# Velocity S-wave (km/s) = 2.63539 3.09339 2.87353
# Velocity P-wave (km/s) = 6.00318 6.30478 6.15583
#
# Compressibility (1/GPa) = 0.01539373
#
# Stress axis : x y z
#
# Youngs Moduli (GPa) = 31.40504 31.40527 105.61579
#
# Poissons Ratio (x) = 0.80005 0.17977
# Poissons Ratio (y) = 0.80004 0.17977
# Poissons Ratio (z) = 0.05346 0.05346
#
# Static dielectric constant tensor:
#      x y z
#    x 1.959150 0.000000 0.000000 
#    y 0.000000 1.959150 0.000000 
#    z 0.000000 0.000000 1.458330 
# 
# From -- ./inp_files/21355.got.cif
#   From: 2010.05.17/outbox.cif.g08.bks.cpg/sg91_11_cif.got.tgz:21355.got - 2010.06.03 19:20:03.
