data_PCOD9548519
_publ_section_title
;
Structure prediction by ZEFSAII (Michael W. Deem and Ramdas Pophale) SiO2 
 PCOD9548519
Probable space group: P 41 2 2
;
_chemical_formula_sum "Si O2"
_cell_formula_units_Z 28
_cell_length_a 12.203486
_cell_length_b 12.203486
_cell_length_c 7.037402
_cell_angle_alpha 90.000000
_cell_angle_beta 90.000000
_cell_angle_gamma 90.000000
_cell_volume 1048.045589
_symmetry_space_group_name_H-M "P 41 2 2"
_symmetry_group_IT_number 91
_symmetry_cell_setting 'tetragonal'
loop_
_space_group_symop_operation_xyz
x,y,z
-y,x,1/4+z
-x,-y,1/2+z
y,-x,3/4+z
x,-y,1/2-z
-x,y,-z
y,x,3/4-z
-y,-x,1/4-z
loop_
_atom_site_type_symbol
_atom_site_label
_atom_site_fract_x
_atom_site_fract_y
_atom_site_fract_z
Si Si1 0.183486 0.675285 0.265471
Si Si2 0.908599 0.146388 0.328986
Si Si3 0.961656 0.386085 0.219185
Si Si4 0.500000 0.654700 0.000000
O O1 0.125957 0.784544 0.352073
O O2 0.079335 0.615043 0.173290
O O3 0.260857 0.583115 0.360746
O O4 0.266420 0.733581 0.125000
O O5 0.917167 0.917167 0.375000
O O6 0.902717 0.275075 0.274572
O O7 0.000000 0.135005 0.500000
O O8 0.901246 0.500000 0.250000
O O9 0.000000 0.385030 0.000000
O O10 0.574623 0.574623 0.875000
#
# Coordination Sequence:
#
# PCOD9548519 Si02
#       4
#     8   8   8   4
#     4  11  23  45  76 107 155 210 279 348 428 518
#     4  12  26  47  79 120 169 222 296 367 445 536
#     4  12  25  44  76 113 154 211 278 347 431 519
#     4  10  24  44  70 110 166 216 272 362 444 514
#
# _framework density 26.716394000000001
#
# number of rings (size 3 to 8) (size 9 to 14) (size 15 to 20)
#    0.000    0.571    7.143    0.857    0.000    1.143 
#    2.571    0.000   12.571    0.000    0.000    0.000 
#    0.000    0.000    0.000    0.000    0.000    0.000 
#
# Total GULP energy -156242.672955 kJ/mol
# GULP energy per Si atom -5580.095463 kJ/mol
# Density = 2.665559 g / cm^3
# Si number density = 26.716394 Si / 1000 Ang^3
#
#
#
# Elastic Constant Matrix: (Units=GPa)
#
#
# Indices 1 2 3 4 5 6 
#
# 1 127.9620 68.7455 50.5508 0.0000 0.0000 0.0000
# 2 68.7455 127.9620 50.5497 0.0000 0.0000 0.0000
# 3 50.5508 50.5497 122.2098 0.0000 0.0000 0.0000
# 4 0.0000 0.0000 0.0000 44.4117 0.0000 0.0000
# 5 0.0000 0.0000 0.0000 0.0000 44.4115 0.0000
# 6 0.0000 0.0000 0.0000 0.0000 0.0000 72.4887
#
#
#
# Elastic Compliance Matrix: (Units=1/GPa)
#
#
# Indices 1 2 3 4 5 6 
#
# 1 0.011672 -0.005215 -0.002671 0.000000 0.000000 0.000000
# 2 -0.005215 0.011672 -0.002670 0.000000 0.000000 0.000000
# 3 -0.002671 -0.002670 0.010392 0.000000 0.000000 0.000000
# 4 0.000000 0.000000 0.000000 0.022517 0.000000 0.000000
# 5 0.000000 0.000000 0.000000 0.000000 0.022517 0.000000
# 6 0.000000 0.000000 0.000000 0.000000 0.000000 0.013795
#
#
# Mechanical properties :
#
#
# Convention : Reuss Voigt Hill
#
# Bulk Modulus (GPa) = 79.22506 79.75844 79.49175
# Shear Modulus (GPa) = 42.41445 46.14823 44.28134
#
# Velocity S-wave (km/s) = 3.98877 4.16063 4.07561
# Velocity P-wave (km/s) = 7.13668 7.28009 7.20874
#
# Compressibility (1/GPa) = 0.01262227
#
# Stress axis : x y z
#
# Youngs Moduli (GPa) = 85.67684 85.67757 96.22884
#
# Poissons Ratio (x) = 0.44685 0.25699
# Poissons Ratio (y) = 0.44685 0.25697
# Poissons Ratio (z) = 0.22881 0.22880
#
# Static dielectric constant tensor:
#      x y z
#    x 2.090650 0.000000 0.000000 
#    y 0.000000 2.090650 0.000000 
#    z 0.000000 0.000000 2.432930 
# 
# From -- ./inp_files/14778.got.cif
#   From: 2010.05.17/outbox.cif.g08.bks.cpg/sg91_8_cif.got.tgz:14778.got - 2010.06.03 19:20:03.
