data_PCOD9548552
_publ_section_title
;
Structure prediction by ZEFSAII (Michael W. Deem and Ramdas Pophale) SiO2 
 PCOD9548552
Probable space group: P 41 2 2
;
_chemical_formula_sum "Si O2"
_cell_formula_units_Z 36
_cell_length_a 8.294597
_cell_length_b 8.294597
_cell_length_c 22.482487
_cell_angle_alpha 90.000000
_cell_angle_beta 90.000000
_cell_angle_gamma 90.000000
_cell_volume 1546.802736
_symmetry_space_group_name_H-M "P 41 2 2"
_symmetry_group_IT_number 91
_symmetry_cell_setting 'tetragonal'
loop_
_space_group_symop_operation_xyz
x,y,z
-y,x,1/4+z
-x,-y,1/2+z
y,-x,3/4+z
x,-y,1/2-z
-x,y,-z
y,x,3/4-z
-y,-x,1/4-z
loop_
_atom_site_type_symbol
_atom_site_label
_atom_site_fract_x
_atom_site_fract_y
_atom_site_fract_z
Si Si1 0.055139 0.089047 0.064510
Si Si2 0.010346 0.603320 0.144178
Si Si3 0.180144 0.500000 0.250000
Si Si4 0.815971 0.377392 0.075168
Si Si5 0.816291 0.394635 0.523883
O O1 0.975114 0.266482 0.067996
O O2 0.242378 0.050063 0.069965
O O3 0.991355 0.008646 0.125000
O O4 0.000000 0.024585 0.000000
O O5 0.069286 0.475479 0.192451
O O6 0.859090 0.543425 0.107010
O O7 0.150552 0.614721 0.094524
O O8 0.280711 0.336099 0.260301
O O9 0.708145 0.291856 0.125000
O O10 0.767998 0.435902 0.008975
O O11 0.000000 0.356543 0.500000
#
# Coordination Sequence:
#
# PCOD9548552 Si02
#       5
#     8   8   4   8   8
#     4  11  25  46  75 107 150 200 258 330 412 486
#     4  11  26  44  73 109 147 199 263 324 401 497
#     4  12  26  42  72 116 138 200 262 308 404 478
#     4  10  25  49  72 107 150 205 252 327 410 492
#     4  10  24  50  71 104 160 199 256 330 407 477
#
# _framework density 23.273814999999999
#
# number of rings (size 3 to 8) (size 9 to 14) (size 15 to 20)
#    0.000    1.333    0.000    4.000   12.444    5.333 
#    8.000    0.000    0.000    0.000    0.000    0.000 
#    0.000    0.000    0.000    0.000    0.000    0.000 
#
# Total GULP energy -200564.578202 kJ/mol
# GULP energy per Si atom -5571.238283 kJ/mol
# Density = 2.322084 g / cm^3
# Si number density = 23.273815 Si / 1000 Ang^3
#
#
#
# Elastic Constant Matrix: (Units=GPa)
#
#
# Indices 1 2 3 4 5 6 
#
# 1 62.5135 -5.4546 22.0900 0.0000 0.0000 0.0000
# 2 -5.4546 62.5143 22.0901 0.0000 0.0000 0.0000
# 3 22.0900 22.0901 155.7798 0.0000 0.0000 0.0000
# 4 0.0000 0.0000 0.0000 37.9975 0.0000 0.0000
# 5 0.0000 0.0000 0.0000 0.0000 37.9973 0.0000
# 6 0.0000 0.0000 0.0000 0.0000 0.0000 21.1289
#
#
#
# Elastic Compliance Matrix: (Units=1/GPa)
#
#
# Indices 1 2 3 4 5 6 
#
# 1 0.017200 0.002487 -0.002792 0.000000 0.000000 0.000000
# 2 0.002487 0.017200 -0.002792 0.000000 0.000000 0.000000
# 3 -0.002792 -0.002792 0.007211 0.000000 0.000000 0.000000
# 4 0.000000 0.000000 0.000000 0.026318 0.000000 0.000000
# 5 0.000000 0.000000 0.000000 0.000000 0.026318 0.000000
# 6 0.000000 0.000000 0.000000 0.000000 0.000000 0.047329
#
#
# Mechanical properties :
#
#
# Convention : Reuss Voigt Hill
#
# Bulk Modulus (GPa) = 28.23373 39.80652 34.02012
# Shear Modulus (GPa) = 31.33358 35.56355 33.44857
#
# Velocity S-wave (km/s) = 3.67318 3.91327 3.79512
# Velocity P-wave (km/s) = 5.49064 6.12853 5.81833
#
# Compressibility (1/GPa) = 0.03541863
#
# Stress axis : x y z
#
# Youngs Moduli (GPa) = 58.13931 58.14013 138.67587
#
# Poissons Ratio (x) = -0.14461 0.38714
# Poissons Ratio (y) = -0.14461 0.38714
# Poissons Ratio (z) = 0.16231 0.16231
#
# Static dielectric constant tensor:
#      x y z
#    x 1.933400 0.000000 0.000000 
#    y 0.000000 1.933400 0.000000 
#    z 0.000000 0.000000 1.926670 
# 
# From -- ./inp_files/21372.got.cif
#   From: 2010.05.17/outbox.cif.g08.bks.cpg/sg91_11_cif.got.tgz:21372.got - 2010.06.03 19:20:03.
