data_PCOD9548234
_publ_section_title
;
Structure prediction by ZEFSAII (Michael W. Deem and Ramdas Pophale) SiO2 
 PCOD9548234
Probable space group: P 41 2 2
;
_chemical_formula_sum "Si O2"
_cell_formula_units_Z 40
_cell_length_a 15.683417
_cell_length_b 15.683417
_cell_length_c 8.348878
_cell_angle_alpha 90.000000
_cell_angle_beta 90.000000
_cell_angle_gamma 90.000000
_cell_volume 2053.569922
_symmetry_space_group_name_H-M "P 41 2 2"
_symmetry_group_IT_number 91
_symmetry_cell_setting 'tetragonal'
loop_
_space_group_symop_operation_xyz
x,y,z
-y,x,1/4+z
-x,-y,1/2+z
y,-x,3/4+z
x,-y,1/2-z
-x,y,-z
y,x,3/4-z
-y,-x,1/4-z
loop_
_atom_site_type_symbol
_atom_site_label
_atom_site_fract_x
_atom_site_fract_y
_atom_site_fract_z
Si Si1 0.000000 0.148660 0.000000
Si Si2 0.332773 0.667228 0.125000
Si Si3 0.056717 0.823759 0.838003
Si Si4 0.256602 0.500000 0.250000
Si Si5 0.299266 0.783612 0.409776
Si Si6 0.573897 0.573897 0.375000
Si Si7 0.765701 0.604014 0.465568
O O1 0.081000 0.090961 0.050135
O O2 0.983650 0.200600 0.164495
O O3 0.319505 0.578179 0.210578
O O4 0.332352 0.747917 0.242837
O O5 0.136325 0.761336 0.861004
O O6 0.000000 0.823763 0.000000
O O7 0.201173 0.539337 0.398177
O O8 0.375345 0.800701 0.537618
O O9 0.244145 0.700976 0.468235
O O10 0.500000 0.563909 0.500000
O O11 0.670245 0.569016 0.438418
#
# Coordination Sequence:
#
# PCOD9548234 Si02
#       7
#     4   4   8   4   8   4   8
#     4  10  22  34  56  92 138 162 180 236 298 382
#     4  10  22  37  56  82 122 155 206 252 296 388
#     4  11  23  37  62  92 129 168 198 236 302 380
#     4  10  22  34  52  86 112 160 200 238 330 354
#     4   9  20  40  52  78 120 158 201 248 281 357
#     4  10  22  29  44  72 114 155 186 236 300 360
#     4   9  20  36  51  71 114 159 197 247 291 360
#
# _framework density 19.478275
#
# number of rings (size 3 to 8) (size 9 to 14) (size 15 to 20)
#    0.000    2.400    0.000    3.000   18.200    0.000 
#    0.000    0.000    0.000    0.000    0.000    2.800 
#    0.000    0.000    0.000    0.000    0.000    0.000 
#
# Total GULP energy -222680.992580 kJ/mol
# GULP energy per Si atom -5567.024815 kJ/mol
# Density = 1.943394 g / cm^3
# Si number density = 19.478275 Si / 1000 Ang^3
#
#
#
# Elastic Constant Matrix: (Units=GPa)
#
#
# Indices 1 2 3 4 5 6 
#
# 1 58.9402 72.1117 60.9831 0.0000 0.0000 0.0000
# 2 72.1117 58.9402 60.9832 0.0000 0.0000 0.0000
# 3 60.9831 60.9832 165.5482 0.0000 0.0000 0.0000
# 4 0.0000 0.0000 0.0000 36.2814 0.0000 0.0000
# 5 0.0000 0.0000 0.0000 0.0000 36.2807 0.0000
# 6 0.0000 0.0000 0.0000 0.0000 0.0000 6.4903
#
#
#
# Elastic Compliance Matrix: (Units=1/GPa)
#
#
# Indices 1 2 3 4 5 6 
#
# 1 -0.032155 0.043766 -0.004277 0.000000 0.000000 0.000000
# 2 0.043766 -0.032155 -0.004277 0.000000 0.000000 0.000000
# 3 -0.004277 -0.004277 0.009192 0.000000 0.000000 0.000000
# 4 0.000000 0.000000 0.000000 0.027562 0.000000 0.000000
# 5 0.000000 0.000000 0.000000 0.000000 0.027563 0.000000
# 6 0.000000 0.000000 0.000000 0.000000 0.000000 0.154077
#
#
# Mechanical properties :
#
#
# Convention : Reuss Voigt Hill
#
# Bulk Modulus (GPa) = 65.33684 74.62052 69.97868
# Shear Modulus (GPa) = 56.33037 21.76717 39.04877
#
# Velocity S-wave (km/s) = 5.38353 3.34654 4.48228
# Velocity P-wave (km/s) = 8.50055 7.30241 7.92416
#
# Compressibility (1/GPa) = 0.01530530
#
# Stress axis : x y z
#
# Youngs Moduli (GPa) = -31.09934 -31.09928 108.79294
#
# Poissons Ratio (x) = 1.36110 0.46534
# Poissons Ratio (y) = 1.36110 0.46533
# Poissons Ratio (z) = -0.13302 -0.13302
#
# Static dielectric constant tensor:
#      x y z
#    x 1.657480 0.000000 0.000000 
#    y 0.000000 1.657480 0.000000 
#    z 0.000000 0.000000 1.984580 
# 
# From -- ./inp_files/15079.got.cif
#   From: 2010.05.17/outbox.cif.g08.bks.cpg/sg91_8_cif.got.tgz:15079.got - 2010.06.03 19:20:03.
