data_PCOD9548433
_publ_section_title
;
Structure prediction by ZEFSAII (Michael W. Deem and Ramdas Pophale) SiO2 
 PCOD9548433
Probable space group: P 41 2 2
;
_chemical_formula_sum "Si O2"
_cell_formula_units_Z 48
_cell_length_a 19.631497
_cell_length_b 19.631497
_cell_length_c 5.919944
_cell_angle_alpha 90.000000
_cell_angle_beta 90.000000
_cell_angle_gamma 90.000000
_cell_volume 2281.520811
_symmetry_space_group_name_H-M "P 41 2 2"
_symmetry_group_IT_number 91
_symmetry_cell_setting 'tetragonal'
loop_
_space_group_symop_operation_xyz
x,y,z
-y,x,1/4+z
-x,-y,1/2+z
y,-x,3/4+z
x,-y,1/2-z
-x,y,-z
y,x,3/4-z
-y,-x,1/4-z
loop_
_atom_site_type_symbol
_atom_site_label
_atom_site_fract_x
_atom_site_fract_y
_atom_site_fract_z
Si Si1 0.183327 0.080837 0.228857
Si Si2 0.278600 0.816812 0.485858
Si Si3 0.419823 0.977195 0.002237
Si Si4 0.071212 0.928789 0.625000
Si Si5 0.721131 0.621604 0.955856
Si Si6 0.395343 0.833595 0.831045
Si Si7 0.769513 0.500000 0.250000
O O1 0.126288 0.126288 0.375000
O O2 0.202542 0.000000 0.250000
O O3 0.248353 0.128627 0.189675
O O4 0.140748 0.072712 0.004452
O O5 0.217326 0.782674 0.625000
O O6 0.319656 0.757785 0.355171
O O7 0.330510 0.846976 0.670499
O O8 0.411096 0.896260 0.992068
O O9 0.393201 0.000000 0.750000
O O10 0.500000 0.996883 0.000000
O O11 0.392527 0.000000 0.250000
O O12 0.000000 0.929458 0.500000
O O13 0.648215 0.648215 0.875000
O O14 0.767422 0.614286 0.734212
O O15 0.725651 0.553373 0.103905
O O16 0.457674 0.817804 0.666020
#
# Coordination Sequence:
#
# PCOD9548433 Si02
#       7
#     8   8   8   4   8   8   4
#     4  12  25  42  66  91 126 171 227 295 369 438
#     4  11  24  43  66  93 133 181 225 284 357 424
#     4  10  23  40  65  94 134 184 232 289 353 411
#     4  12  22  40  64  92 118 158 222 294 364 440
#     4  11  22  42  70 101 144 177 225 279 345 408
#     4  11  24  44  68  97 138 179 232 288 347 419
#     4  10  24  38  74 108 136 178 230 286 340 416
#
# _framework density 21.038599999999999
#
# number of rings (size 3 to 8) (size 9 to 14) (size 15 to 20)
#    0.000    1.000    4.167    2.500    8.167    0.000 
#    3.000    0.000    0.000    0.000    0.000    0.000 
#   35.000    0.000    0.000    0.000    0.000    0.000 
#
# Total GULP energy -267678.259293 kJ/mol
# GULP energy per Si atom -5576.630402 kJ/mol
# Density = 2.099071 g / cm^3
# Si number density = 21.038600 Si / 1000 Ang^3
#
#
#
# Elastic Constant Matrix: (Units=GPa)
#
#
# Indices 1 2 3 4 5 6 
#
# 1 99.5209 42.4148 33.2352 0.0000 0.0000 0.0000
# 2 42.4148 99.5192 33.2351 0.0000 0.0000 0.0000
# 3 33.2352 33.2351 93.3318 0.0000 0.0000 0.0000
# 4 0.0000 0.0000 0.0000 34.9167 0.0000 0.0000
# 5 0.0000 0.0000 0.0000 0.0000 34.9185 0.0000
# 6 0.0000 0.0000 0.0000 0.0000 0.0000 20.6416
#
#
#
# Elastic Compliance Matrix: (Units=1/GPa)
#
#
# Indices 1 2 3 4 5 6 
#
# 1 0.012983 -0.004528 -0.003011 0.000000 0.000000 0.000000
# 2 -0.004528 0.012984 -0.003011 0.000000 0.000000 0.000000
# 3 -0.003011 -0.003011 0.012859 0.000000 0.000000 0.000000
# 4 0.000000 0.000000 0.000000 0.028640 0.000000 0.000000
# 5 0.000000 0.000000 0.000000 0.000000 0.028638 0.000000
# 6 0.000000 0.000000 0.000000 0.000000 0.000000 0.048446
#
#
# Mechanical properties :
#
#
# Convention : Reuss Voigt Hill
#
# Bulk Modulus (GPa) = 56.41421 56.68245 56.54833
# Shear Modulus (GPa) = 29.14465 30.32783 29.73624
#
# Velocity S-wave (km/s) = 3.72599 3.80087 3.76362
# Velocity P-wave (km/s) = 6.73673 6.80167 6.76928
#
# Compressibility (1/GPa) = 0.01772603
#
# Stress axis : x y z
#
# Youngs Moduli (GPa) = 77.02117 77.01982 77.76725
#
# Poissons Ratio (x) = 0.34874 0.23416
# Poissons Ratio (y) = 0.34875 0.23416
# Poissons Ratio (z) = 0.23191 0.23191
#
# Static dielectric constant tensor:
#      x y z
#    x 1.795810 0.000000 0.000000 
#    y 0.000000 1.795800 0.000000 
#    z 0.000000 0.000000 1.800390 
# 
# From -- ./inp_files/1287.got.cif
#   From: 2010.05.17/outbox.cif.g08.bks.cpg/sg91_1_cif.got.tgz:1287.got - 2010.06.03 19:20:03.
