data_PCOD9548224
_publ_section_title
;
Structure prediction by ZEFSAII (Michael W. Deem and Ramdas Pophale) SiO2 
 PCOD9548224
Probable space group: P 41 2 2
;
_chemical_formula_sum "Si O2"
_cell_formula_units_Z 32
_cell_length_a 8.517191
_cell_length_b 8.517191
_cell_length_c 20.080130
_cell_angle_alpha 90.000000
_cell_angle_beta 90.000000
_cell_angle_gamma 90.000000
_cell_volume 1456.663685
_symmetry_space_group_name_H-M "P 41 2 2"
_symmetry_group_IT_number 91
_symmetry_cell_setting 'tetragonal'
loop_
_space_group_symop_operation_xyz
x,y,z
-y,x,1/4+z
-x,-y,1/2+z
y,-x,3/4+z
x,-y,1/2-z
-x,y,-z
y,x,3/4-z
-y,-x,1/4-z
loop_
_atom_site_type_symbol
_atom_site_label
_atom_site_fract_x
_atom_site_fract_y
_atom_site_fract_z
Si Si1 0.096601 0.634002 0.327348
Si Si2 0.160770 0.576614 0.470982
Si Si3 0.290243 0.238381 0.446835
Si Si4 0.615656 0.727415 0.439823
O O1 0.144382 0.673217 0.402570
O O2 0.147297 0.745985 0.266148
O O3 0.186690 0.469142 0.316516
O O4 0.910667 0.599246 0.326155
O O5 0.269613 0.423529 0.461016
O O6 0.217399 0.694917 0.527267
O O7 0.000000 0.507882 0.500000
O O8 0.206735 0.206735 0.375000
O O9 0.500000 0.687066 0.500000
O O10 0.616329 0.616329 0.375000
#
# Coordination Sequence:
#
# PCOD9548224 Si02
#       4
#     8   8   8   8
#     4  10  21  45  67  97 141 181 228 287 354 420
#     4  11  24  40  68 105 139 179 235 287 357 423
#     4   9  20  40  70  93 131 178 229 288 333 410
#     4  12  26  43  73 103 142 185 229 294 352 415
#
# _framework density 21.96801
#
# number of rings (size 3 to 8) (size 9 to 14) (size 15 to 20)
#    0.000    1.500    5.000    0.000    7.000    1.000 
#    0.000    1.250    0.000    0.000    0.000    0.000 
#    0.000    0.000    0.000    0.000    0.000    0.000 
#
# Total GULP energy -178196.954645 kJ/mol
# GULP energy per Si atom -5568.654833 kJ/mol
# Density = 2.191801 g / cm^3
# Si number density = 21.968010 Si / 1000 Ang^3
#
#
#
# Elastic Constant Matrix: (Units=GPa)
#
#
# Indices 1 2 3 4 5 6 
#
# 1 41.1521 47.7185 20.0354 0.0000 0.0000 0.0000
# 2 47.7185 41.1521 20.0354 0.0000 0.0000 0.0000
# 3 20.0354 20.0354 186.5182 0.0000 0.0000 0.0000
# 4 0.0000 0.0000 0.0000 20.7721 0.0000 0.0000
# 5 0.0000 0.0000 0.0000 0.0000 20.7721 0.0000
# 6 0.0000 0.0000 0.0000 0.0000 0.0000 1.1635
#
#
#
# Elastic Compliance Matrix: (Units=1/GPa)
#
#
# Indices 1 2 3 4 5 6 
#
# 1 -0.070233 0.082058 -0.001270 0.000000 0.000000 0.000000
# 2 0.082058 -0.070233 -0.001270 0.000000 0.000000 0.000000
# 3 -0.001270 -0.001270 0.005634 0.000000 0.000000 0.000000
# 4 0.000000 0.000000 0.000000 0.048142 0.000000 0.000000
# 5 0.000000 0.000000 0.000000 0.000000 0.048142 0.000000
# 6 0.000000 0.000000 0.000000 0.000000 0.000000 0.859490
#
#
# Mechanical properties :
#
#
# Convention : Reuss Voigt Hill
#
# Bulk Modulus (GPa) = 41.31635 49.37789 45.34712
# Shear Modulus (GPa) = 7.46297 20.61041 14.03669
#
# Velocity S-wave (km/s) = 1.84515 3.06633 2.53051
# Velocity P-wave (km/s) = 4.83609 5.92136 5.40603
#
# Compressibility (1/GPa) = 0.02420349
#
# Stress axis : x y z
#
# Youngs Moduli (GPa) = -14.23835 -14.23835 177.48442
#
# Poissons Ratio (x) = 1.16837 0.22544
# Poissons Ratio (y) = 1.16837 0.22544
# Poissons Ratio (z) = -0.01809 -0.01809
#
# Static dielectric constant tensor:
#      x y z
#    x 1.840950 0.000000 0.000000 
#    y 0.000000 1.840950 0.000000 
#    z 0.000000 0.000000 2.381980 
# 
# From -- ./inp_files/5963.got.cif
#   From: 2010.05.17/outbox.cif.g08.bks.cpg/sg91_3_cif.got.tgz:5963.got - 2010.06.03 19:20:03.
