data_PCOD9548839
_publ_section_title
;
Structure prediction by ZEFSAII (Michael W. Deem and Ramdas Pophale) SiO2 
 PCOD9548839
Probable space group: P 41 2 2
;
_chemical_formula_sum "Si O2"
_cell_formula_units_Z 40
_cell_length_a 12.000000
_cell_length_b 12.000000
_cell_length_c 15.000000
_cell_angle_alpha 90.000000
_cell_angle_beta 90.000000
_cell_angle_gamma 90.000000
_cell_volume 2160.000000
_symmetry_space_group_name_H-M "P 41 2 2"
_symmetry_group_IT_number 91
_symmetry_cell_setting 'tetragonal'
loop_
_space_group_symop_operation_xyz
x,y,z
-y,x,1/4+z
-x,-y,1/2+z
y,-x,3/4+z
x,-y,1/2-z
-x,y,-z
y,x,3/4-z
-y,-x,1/4-z
loop_
_atom_site_type_symbol
_atom_site_label
_atom_site_fract_x
_atom_site_fract_y
_atom_site_fract_z
Si Si1 0.292022 0.540233 0.428386
Si Si2 0.433103 0.500000 0.250000
Si Si3 0.212167 0.200896 0.651519
Si Si4 0.348016 0.876395 0.235158
Si Si5 0.126339 0.873662 0.125000
Si Si6 0.977384 0.848157 0.295918
O O1 0.350755 0.515011 0.333597
O O2 0.393359 0.513631 0.495322
O O3 0.239859 0.663544 0.428461
O O4 0.202201 0.445746 0.451185
O O5 0.168361 0.286290 0.574652
O O6 0.127910 0.201361 0.737449
O O7 0.213208 0.078040 0.602437
O O8 0.251419 0.886747 0.160662
O O9 0.392712 0.000000 0.250000
O O10 0.047551 0.894197 0.210060
O O11 0.920630 0.920630 0.375000
#
# Coordination Sequence:
#
# PCOD9548839 Si02
#       6
#     8   4   8   8   4   8
#     4  11  23  44  71 102 132 180 236 286 352 412
#     4  10  22  42  76  98 126 182 240 294 332 418
#     4  11  25  43  68 103 135 184 235 285 349 430
#     4  11  22  40  68  99 140 178 229 299 344 412
#     4  10  22  40  66  98 132 180 238 282 354 420
#     4  11  25  40  68  99 139 185 228 289 349 423
#
# _framework density 18.518519000000001
#
# number of rings (size 3 to 8) (size 9 to 14) (size 15 to 20)
#    0.000    1.200    4.000    1.800    7.000    1.600 
#    3.600    2.000    4.400    0.000    0.000    0.000 
#    0.000    0.000    0.000    0.000    0.000    0.000 
#
# Total GULP energy -222893.805679 kJ/mol
# GULP energy per Si atom -5572.345142 kJ/mol
# Density = 1.847637 g / cm^3
# Si number density = 18.518519 Si / 1000 Ang^3
#
#
#
# Elastic Constant Matrix: (Units=GPa)
#
#
# Indices 1 2 3 4 5 6 
#
# 1 160.0436 86.8642 64.9656 0.0000 0.0000 0.0000
# 2 86.8642 160.0437 64.9654 0.0000 0.0000 0.0000
# 3 64.9656 64.9654 105.8858 0.0000 0.0000 0.0000
# 4 0.0000 0.0000 0.0000 34.9742 0.0000 0.0000
# 5 0.0000 0.0000 0.0000 0.0000 34.9745 0.0000
# 6 0.0000 0.0000 0.0000 0.0000 0.0000 39.3702
#
#
#
# Elastic Compliance Matrix: (Units=1/GPa)
#
#
# Indices 1 2 3 4 5 6 
#
# 1 0.009823 -0.003842 -0.003670 0.000000 0.000000 0.000000
# 2 -0.003842 0.009823 -0.003670 0.000000 0.000000 0.000000
# 3 -0.003670 -0.003670 0.013947 0.000000 0.000000 0.000000
# 4 0.000000 0.000000 0.000000 0.028592 0.000000 0.000000
# 5 0.000000 0.000000 0.000000 0.000000 0.028592 0.000000
# 6 0.000000 0.000000 0.000000 0.000000 0.000000 0.025400
#
#
# Mechanical properties :
#
#
# Convention : Reuss Voigt Hill
#
# Bulk Modulus (GPa) = 89.04148 95.50704 92.27426
# Shear Modulus (GPa) = 35.14087 35.80900 35.47493
#
# Velocity S-wave (km/s) = 4.36088 4.40214 4.38156
# Velocity P-wave (km/s) = 8.57573 8.80478 8.69101
#
# Compressibility (1/GPa) = 0.01123072
#
# Stress axis : x y z
#
# Youngs Moduli (GPa) = 101.80043 101.80062 71.69886
#
# Poissons Ratio (x) = 0.39111 0.26312
# Poissons Ratio (y) = 0.39111 0.26312
# Poissons Ratio (z) = 0.37358 0.37358
#
# Static dielectric constant tensor:
#      x y z
#    x 1.665730 0.000000 0.000000 
#    y 0.000000 1.665730 0.000000 
#    z 0.000000 0.000000 1.653820 
# 
# From -- ./inp_files/11383.got.cif
#   From: 2010.05.17/outbox.ucp.g08.bks.cvg/sg91_6_cif.got.tgz:11383.got - 2010.06.11 10:36:11.
