data_PCOD9548459
_publ_section_title
;
Structure prediction by ZEFSAII (Michael W. Deem and Ramdas Pophale) SiO2 
 PCOD9548459
Probable space group: P 41 2 2
;
_chemical_formula_sum "Si O2"
_cell_formula_units_Z 36
_cell_length_a 12.011990
_cell_length_b 12.011990
_cell_length_c 12.057459
_cell_angle_alpha 90.000000
_cell_angle_beta 90.000000
_cell_angle_gamma 90.000000
_cell_volume 1739.745484
_symmetry_space_group_name_H-M "P 41 2 2"
_symmetry_group_IT_number 91
_symmetry_cell_setting 'tetragonal'
loop_
_space_group_symop_operation_xyz
x,y,z
-y,x,1/4+z
-x,-y,1/2+z
y,-x,3/4+z
x,-y,1/2-z
-x,y,-z
y,x,3/4-z
-y,-x,1/4-z
loop_
_atom_site_type_symbol
_atom_site_label
_atom_site_fract_x
_atom_site_fract_y
_atom_site_fract_z
Si Si1 0.500000 0.925951 0.500000
Si Si2 0.174464 0.214606 0.533106
Si Si3 0.404315 0.670389 0.908085
Si Si4 0.274343 0.976652 0.074882
Si Si5 0.725205 0.552765 0.412295
O O1 0.469942 0.841886 0.601290
O O2 0.603100 0.003844 0.529848
O O3 0.295518 0.267595 0.545424
O O4 0.105988 0.269313 0.431243
O O5 0.193283 0.085022 0.509669
O O6 0.097764 0.233906 0.638530
O O7 0.446233 0.728845 0.795738
O O8 0.358334 0.547448 0.879073
O O9 0.500000 0.664070 0.000000
O O10 0.668207 0.668207 0.375000
#
# Coordination Sequence:
#
# PCOD9548459 Si02
#       5
#     4   8   8   8   8
#     4  12  24  44  72 106 146 198 238 314 380 430
#     4  10  23  44  71  99 138 184 248 313 366 427
#     4  12  25  37  68 109 144 196 240 289 369 460
#     4  10  23  44  72  97 140 188 241 312 368 431
#     4  12  22  42  64  98 156 195 236 292 362 446
#
# _framework density 20.692684
#
# number of rings (size 3 to 8) (size 9 to 14) (size 15 to 20)
#    0.000    0.889    4.444    2.000    7.778    0.000 
#    0.000    0.000   48.889    0.000    0.000    0.000 
#    0.000    0.000    0.000    0.000    0.000    0.000 
#
# Total GULP energy -201316.915632 kJ/mol
# GULP energy per Si atom -5592.136545 kJ/mol
# Density = 2.064559 g / cm^3
# Si number density = 20.692684 Si / 1000 Ang^3
#
#
#
# Elastic Constant Matrix: (Units=GPa)
#
#
# Indices 1 2 3 4 5 6 
#
# 1 100.8873 52.1689 29.9876 0.0000 0.0000 0.0000
# 2 52.1689 100.8873 29.9876 0.0000 0.0000 0.0000
# 3 29.9876 29.9876 66.0786 0.0000 0.0000 0.0000
# 4 0.0000 0.0000 0.0000 24.5590 0.0000 0.0000
# 5 0.0000 0.0000 0.0000 0.0000 24.5590 0.0000
# 6 0.0000 0.0000 0.0000 0.0000 0.0000 33.7237
#
#
#
# Elastic Compliance Matrix: (Units=1/GPa)
#
#
# Indices 1 2 3 4 5 6 
#
# 1 0.014236 -0.006290 -0.003606 0.000000 0.000000 0.000000
# 2 -0.006290 0.014236 -0.003606 0.000000 0.000000 0.000000
# 3 -0.003606 -0.003606 0.018407 0.000000 0.000000 0.000000
# 4 0.000000 0.000000 0.000000 0.040718 0.000000 0.000000
# 5 0.000000 0.000000 0.000000 0.000000 0.040718 0.000000
# 6 0.000000 0.000000 0.000000 0.000000 0.000000 0.029653
#
#
# Mechanical properties :
#
#
# Convention : Reuss Voigt Hill
#
# Bulk Modulus (GPa) = 50.31513 54.68239 52.49876
# Shear Modulus (GPa) = 26.09625 26.94897 26.52261
#
# Velocity S-wave (km/s) = 3.55510 3.61271 3.58402
# Velocity P-wave (km/s) = 6.42027 6.62462 6.52324
#
# Compressibility (1/GPa) = 0.01987474
#
# Stress axis : x y z
#
# Youngs Moduli (GPa) = 70.24248 70.24248 54.32791
#
# Poissons Ratio (x) = 0.44180 0.19593
# Poissons Ratio (y) = 0.44180 0.19593
# Poissons Ratio (z) = 0.25332 0.25332
#
# Static dielectric constant tensor:
#      x y z
#    x 1.730490 0.000000 0.000000 
#    y 0.000000 1.730490 0.000000 
#    z 0.000000 0.000000 1.794270 
# 
# From -- ./inp_files/10524.got.cif
#   From: 2010.05.17/outbox.cif.g08.bks.cpg/sg91_6_cif.got.tgz:10524.got - 2010.06.03 19:20:03.
