data_PCOD9548307
_publ_section_title
;
Structure prediction by ZEFSAII (Michael W. Deem and Ramdas Pophale) SiO2 
 PCOD9548307
Probable space group: P 41 2 2
;
_chemical_formula_sum "Si O2"
_cell_formula_units_Z 40
_cell_length_a 18.312945
_cell_length_b 18.312945
_cell_length_c 6.037951
_cell_angle_alpha 90.000000
_cell_angle_beta 90.000000
_cell_angle_gamma 90.000000
_cell_volume 2024.911125
_symmetry_space_group_name_H-M "P 41 2 2"
_symmetry_group_IT_number 91
_symmetry_cell_setting 'tetragonal'
loop_
_space_group_symop_operation_xyz
x,y,z
-y,x,1/4+z
-x,-y,1/2+z
y,-x,3/4+z
x,-y,1/2-z
-x,y,-z
y,x,3/4-z
-y,-x,1/4-z
loop_
_atom_site_type_symbol
_atom_site_label
_atom_site_fract_x
_atom_site_fract_y
_atom_site_fract_z
Si Si1 0.804590 0.420119 0.647466
Si Si2 0.364527 0.916302 0.748770
Si Si3 0.290871 0.290871 0.375000
Si Si4 0.837854 0.755227 0.195835
Si Si5 0.130745 0.500000 0.750000
Si Si6 0.877852 0.877852 0.875000
Si Si7 0.106071 0.000000 0.750000
O O1 0.797919 0.500000 0.750000
O O2 0.731843 0.372905 0.680983
O O3 0.823359 0.442619 0.396506
O O4 0.869366 0.374083 0.772787
O O5 0.308684 0.877170 0.580745
O O6 0.447237 0.915755 0.655089
O O7 0.340050 0.000000 0.750000
O O8 0.235266 0.272898 0.574673
O O9 0.813882 0.813882 0.375000
O O10 0.880369 0.802309 0.014429
O O11 0.947361 0.867712 0.706877
O O12 0.057849 0.942152 0.625000
#
# Coordination Sequence:
#
# PCOD9548307 Si02
#       7
#     8   8   4   8   4   4   4
#     4  10  22  40  66 100 126 176 225 268 333 401
#     4  11  24  41  63  94 133 171 220 270 331 399
#     4  11  20  42  70  88 134 174 218 274 325 416
#     4  11  23  45  64  93 127 172 214 278 343 396
#     4  10  22  40  64  94 134 170 222 262 332 392
#     4  11  26  44  70  88 124 160 228 286 355 414
#     4  12  22  48  68  86 110 166 218 288 356 416
#
# _framework density 19.753951000000001
#
# number of rings (size 3 to 8) (size 9 to 14) (size 15 to 20)
#    0.000    1.200    5.000    0.600    4.200    0.000 
#   10.800    2.000    0.000    0.000    2.600    0.000 
#    0.000    0.000    0.000    0.000    0.000    0.000 
#
# Total GULP energy -222669.863213 kJ/mol
# GULP energy per Si atom -5566.746580 kJ/mol
# Density = 1.970899 g / cm^3
# Si number density = 19.753951 Si / 1000 Ang^3
#
#
#
# Elastic Constant Matrix: (Units=GPa)
#
#
# Indices 1 2 3 4 5 6 
#
# 1 89.9652 73.0082 46.5146 0.0000 0.0000 0.0000
# 2 73.0082 89.9660 46.5133 0.0000 0.0000 0.0000
# 3 46.5146 46.5133 98.3035 0.0000 0.0000 0.0000
# 4 0.0000 0.0000 0.0000 0.1635 0.0000 0.0000
# 5 0.0000 0.0000 0.0000 0.0000 0.1876 0.0000
# 6 0.0000 0.0000 0.0000 0.0000 0.0000 35.5242
#
#
#
# Elastic Compliance Matrix: (Units=1/GPa)
#
#
# Indices 1 2 3 4 5 6 
#
# 1 0.033689 -0.025282 -0.003978 0.000000 0.000000 0.000000
# 2 -0.025282 0.033688 -0.003977 0.000000 0.000000 0.000000
# 3 -0.003978 -0.003977 0.013937 0.000000 0.000000 0.000000
# 4 0.000000 0.000000 0.000000 6.116690 0.000000 0.000000
# 5 0.000000 0.000000 0.000000 0.000000 5.330652 0.000000
# 6 0.000000 0.000000 0.000000 0.000000 0.000000 0.028150
#
#
# Mechanical properties :
#
#
# Convention : Reuss Voigt Hill
#
# Bulk Modulus (GPa) = 67.38970 67.81186 67.60078
# Shear Modulus (GPa) = 0.42999 14.65496 7.54247
#
# Velocity S-wave (km/s) = 0.46706 2.72669 1.95614
# Velocity P-wave (km/s) = 5.87192 6.65702 6.27676
#
# Compressibility (1/GPa) = 0.01483906
#
# Stress axis : x y z
#
# Youngs Moduli (GPa) = 29.68290 29.68382 71.75266
#
# Poissons Ratio (x) = 0.75048 0.28545
# Poissons Ratio (y) = 0.75046 0.28536
# Poissons Ratio (z) = 0.11809 0.11805
#
# Static dielectric constant tensor:
#      x y z
#    x 1.715140 0.000000 0.000000 
#    y 0.000000 1.715140 0.000000 
#    z 0.000000 0.000000 1.873230 
# 
# From -- ./inp_files/945.got.cif
#   From: 2010.05.17/outbox.cif.g08.bks.cpg/sg91_1_cif.got.tgz:945.got - 2010.06.03 19:20:03.
