data_PCOD9548806
_publ_section_title
;
Structure prediction by ZEFSAII (Michael W. Deem and Ramdas Pophale) SiO2 
 PCOD9548806
Probable space group: P 41 2 2
;
_chemical_formula_sum "Si O2"
_cell_formula_units_Z 32
_cell_length_a 11.031409
_cell_length_b 11.031409
_cell_length_c 11.426771
_cell_angle_alpha 90.000000
_cell_angle_beta 90.000000
_cell_angle_gamma 90.000000
_cell_volume 1390.546440
_symmetry_space_group_name_H-M "P 41 2 2"
_symmetry_group_IT_number 91
_symmetry_cell_setting 'tetragonal'
loop_
_space_group_symop_operation_xyz
x,y,z
-y,x,1/4+z
-x,-y,1/2+z
y,-x,3/4+z
x,-y,1/2-z
-x,y,-z
y,x,3/4-z
-y,-x,1/4-z
loop_
_atom_site_type_symbol
_atom_site_label
_atom_site_fract_x
_atom_site_fract_y
_atom_site_fract_z
Si Si1 0.889466 0.446865 0.430101
Si Si2 0.963758 0.683278 0.660166
Si Si3 0.583601 0.771690 0.909068
Si Si4 0.800881 0.755729 0.249070
O O1 0.802833 0.481940 0.538279
O O2 0.819660 0.359766 0.338972
O O3 0.000000 0.379234 0.500000
O O4 0.939258 0.221675 0.209009
O O5 0.885345 0.627967 0.765168
O O6 0.869415 0.742945 0.569492
O O7 0.046322 0.567958 0.619045
O O8 0.700766 0.700766 0.875000
O O9 0.500000 0.699933 0.000000
O O10 0.734463 0.734463 0.375000
#
# Coordination Sequence:
#
# PCOD9548806 Si02
#       4
#     8   8   8   8
#     4  12  23  44  79 111 148 208 261 321 399 478
#     4  12  26  45  75 112 152 206 260 325 397 478
#     4  12  25  45  80 110 148 198 262 326 405 480
#     4  12  26  43  70 113 160 199 261 324 397 480
#
# _framework density 23.012536000000001
#
# number of rings (size 3 to 8) (size 9 to 14) (size 15 to 20)
#    0.000    0.000    7.500    3.000    3.500    0.000 
#    0.000    8.750    5.500    0.000    0.000    0.000 
#    0.000    0.000    0.000    0.000    0.000    0.000 
#
# Total GULP energy -178564.276784 kJ/mol
# GULP energy per Si atom -5580.133650 kJ/mol
# Density = 2.296016 g / cm^3
# Si number density = 23.012536 Si / 1000 Ang^3
#
#
#
# Elastic Constant Matrix: (Units=GPa)
#
#
# Indices 1 2 3 4 5 6 
#
# 1 104.6146 83.5669 80.5228 0.0000 0.0000 0.0000
# 2 83.5669 104.6146 80.5228 0.0000 0.0000 0.0000
# 3 80.5228 80.5228 215.9388 0.0000 0.0000 0.0000
# 4 0.0000 0.0000 0.0000 51.9569 0.0000 0.0000
# 5 0.0000 0.0000 0.0000 0.0000 51.9569 0.0000
# 6 0.0000 0.0000 0.0000 0.0000 0.0000 -189.3286
#
#
#
# Elastic Compliance Matrix: (Units=1/GPa)
#
#
# Indices 1 2 3 4 5 6 
#
# 1 0.027658 -0.019853 -0.002910 0.000000 0.000000 0.000000
# 2 -0.019853 0.027658 -0.002910 0.000000 0.000000 0.000000
# 3 -0.002910 -0.002910 0.006801 0.000000 0.000000 0.000000
# 4 0.000000 0.000000 0.000000 0.019247 0.000000 0.000000
# 5 0.000000 0.000000 0.000000 0.000000 0.019247 0.000000
# 6 0.000000 0.000000 0.000000 0.000000 0.000000 -0.005282
#
#
# Mechanical properties :
#
#
# Convention : Reuss Voigt Hill
#
# Bulk Modulus (GPa) = 92.85513 101.59924 97.22718
# Shear Modulus (GPa) = 33.27421 -5.04592 14.11415
#
# Velocity S-wave (km/s) = 3.80665 -1.48238 2.47923
# Velocity P-wave (km/s) = 7.73034 6.42771 7.10892
#
# Compressibility (1/GPa) = 0.01076946
#
# Stress axis : x y z
#
# Youngs Moduli (GPa) = 36.15603 36.15603 147.02745
#
# Poissons Ratio (x) = 0.71781 0.42790
# Poissons Ratio (y) = 0.71781 0.42790
# Poissons Ratio (z) = 0.10523 0.10523
#
# Static dielectric constant tensor:
#      x y z
#    x 1.917460 0.000000 0.000000 
#    y 0.000000 1.917460 0.000000 
#    z 0.000000 0.000000 2.025810 
# 
# From -- ./inp_files/10389.got.cif
#   From: 2010.05.17/outbox.cif.g08.bks.cpg/sg91_6_cif.got.tgz:10389.got - 2010.06.03 19:20:03.
