data_PCOD9548990
_publ_section_title
;
Structure prediction by ZEFSAII (Michael W. Deem and Ramdas Pophale) SiO2 
 PCOD9548990
Probable space group: P 41 21 2
;
_chemical_formula_sum "Si O2"
_cell_formula_units_Z 40
_cell_length_a 20.333967
_cell_length_b 20.333967
_cell_length_c 5.062656
_cell_angle_alpha 90.000000
_cell_angle_beta 90.000000
_cell_angle_gamma 90.000000
_cell_volume 2093.257460
_symmetry_space_group_name_H-M "P 41 21 2"
_symmetry_group_IT_number 92
_symmetry_cell_setting 'tetragonal'
loop_
_space_group_symop_operation_xyz
x,y,z
1/2-y,1/2+x,1/4+z
-x,-y,1/2+z
1/2+y,1/2-x,3/4+z
1/2+x,1/2-y,3/4-z
1/2-x,1/2+y,1/4-z
y,x,-z
-y,-x,1/2-z
loop_
_atom_site_type_symbol
_atom_site_label
_atom_site_fract_x
_atom_site_fract_y
_atom_site_fract_z
Si Si1 0.857709 0.632774 0.976611
Si Si2 0.031641 0.230774 0.011878
Si Si3 0.823882 0.715123 0.469095
Si Si4 0.913549 0.025483 0.502745
Si Si5 0.000098 0.310068 0.503419
O O1 0.825735 0.684097 0.180075
O O2 0.841547 0.563075 0.111899
O O3 0.936479 0.642748 0.981793
O O4 0.832592 0.656942 0.688410
O O5 0.004545 0.158414 0.970362
O O6 0.016022 0.249142 0.312721
O O7 0.110015 0.240447 0.984959
O O8 0.998595 0.281954 0.802181
O O9 0.759974 0.759974 0.500000
O O10 0.930048 0.069953 0.250000
O O11 0.929649 0.070352 0.750000
O O12 0.965041 0.965041 0.500000
#
# Coordination Sequence:
#
# PCOD9548990 Si02
#       5
#     8   8   8   8   8
#     4  10  21  38  58  83 112 143 182 228 276 325
#     4  10  20  36  57  79 109 145 181 225 274 319
#     4  10  20  36  59  83 109 143 185 226 267 321
#     4  10  20  34  53  79 111 145 186 228 266 321
#     4  10  21  38  58  80 110 142 180 229 275 328
#
# _framework density 19.108971
#
# number of rings (size 3 to 8) (size 9 to 14) (size 15 to 20)
#    0.000    2.000    0.000    3.600    0.000    0.000 
#    0.000   22.000    0.000    0.000    0.000    0.000 
#    0.000    0.000    0.000    0.000    0.000    0.000 
#
# Total GULP energy -223002.526219 kJ/mol
# GULP energy per Si atom -5575.063155 kJ/mol
# Density = 1.906548 g / cm^3
# Si number density = 19.108971 Si / 1000 Ang^3
#
#
#
# Elastic Constant Matrix: (Units=GPa)
#
#
# Indices 1 2 3 4 5 6 
#
# 1 44.3779 35.0611 -0.6856 0.0000 0.0000 0.0000
# 2 35.0611 44.3815 -0.6870 0.0000 0.0000 0.0000
# 3 -0.6856 -0.6870 87.3686 0.0000 0.0000 0.0000
# 4 0.0000 0.0000 0.0000 30.0706 0.0000 0.0000
# 5 0.0000 0.0000 0.0000 0.0000 30.0775 0.0000
# 6 0.0000 0.0000 0.0000 0.0000 0.0000 16.9388
#
#
#
# Elastic Compliance Matrix: (Units=1/GPa)
#
#
# Indices 1 2 3 4 5 6 
#
# 1 0.059953 -0.047361 0.000098 0.000000 0.000000 0.000000
# 2 -0.047361 0.059949 0.000100 0.000000 0.000000 0.000000
# 3 0.000098 0.000100 0.011447 0.000000 0.000000 0.000000
# 4 0.000000 0.000000 0.000000 0.033255 0.000000 0.000000
# 5 0.000000 0.000000 0.000000 0.000000 0.033247 0.000000
# 6 0.000000 0.000000 0.000000 0.000000 0.000000 0.059036
#
#
# Mechanical properties :
#
#
# Convention : Reuss Voigt Hill
#
# Bulk Modulus (GPa) = 27.01075 27.05610 27.03343
# Shear Modulus (GPa) = 13.75305 24.91336 19.33320
#
# Velocity S-wave (km/s) = 2.68566 3.61467 3.18423
# Velocity P-wave (km/s) = 4.87677 5.62234 5.26277
#
# Compressibility (1/GPa) = 0.03702230
#
# Stress axis : x y z
#
# Youngs Moduli (GPa) = 16.67960 16.68093 87.35673
#
# Poissons Ratio (x) = 0.79003 -0.00857
# Poissons Ratio (y) = 0.78997 -0.00871
# Poissons Ratio (z) = -0.00164 -0.00166
#
# Static dielectric constant tensor:
#      x y z
#    x 1.651920 0.000000 0.000000 
#    y 0.000000 1.651920 0.000000 
#    z 0.000000 0.000000 1.649000 
# 
# From -- ./inp_files/412.got.cif
#   From: 2010.05.17/outbox.cif.g08.bks.cpg/sg92_1_cif.got.tgz:412.got - 2010.06.03 19:35:17.
