data_PCOD9548662
_publ_section_title
;
Structure prediction by ZEFSAII (Michael W. Deem and Ramdas Pophale) SiO2 
 PCOD9548662
Probable space group: P 41 2 2
;
_chemical_formula_sum "Si O2"
_cell_formula_units_Z 56
_cell_length_a 11.574348
_cell_length_b 11.574348
_cell_length_c 21.588432
_cell_angle_alpha 90.000000
_cell_angle_beta 90.000000
_cell_angle_gamma 90.000000
_cell_volume 2892.105770
_symmetry_space_group_name_H-M "P 41 2 2"
_symmetry_group_IT_number 91
_symmetry_cell_setting 'tetragonal'
loop_
_space_group_symop_operation_xyz
x,y,z
-y,x,1/4+z
-x,-y,1/2+z
y,-x,3/4+z
x,-y,1/2-z
-x,y,-z
y,x,3/4-z
-y,-x,1/4-z
loop_
_atom_site_type_symbol
_atom_site_label
_atom_site_fract_x
_atom_site_fract_y
_atom_site_fract_z
Si Si1 0.804735 0.568441 0.382415
Si Si2 0.784938 0.768367 0.568746
Si Si3 0.004994 0.135180 0.743589
Si Si4 0.384833 0.355303 0.975801
Si Si5 0.974901 0.217801 0.125894
Si Si6 0.331678 0.122100 0.181554
Si Si7 0.239683 0.862638 0.181906
O O1 0.693783 0.576931 0.427009
O O2 0.753992 0.562962 0.312961
O O3 0.878569 0.685272 0.383232
O O4 0.879014 0.463833 0.409126
O O5 0.791062 0.890225 0.533091
O O6 0.706061 0.683969 0.528294
O O7 0.727280 0.787885 0.635063
O O8 0.921007 0.747993 0.580463
O O9 0.970564 0.200423 0.806399
O O10 0.894318 0.130422 0.700549
O O11 0.040423 0.000000 0.750000
O O12 0.500000 0.417358 0.000000
O O13 0.903305 0.096696 0.125000
O O14 0.309650 0.158165 0.253300
O O15 0.278849 0.994663 0.168138
O O16 0.230521 0.769480 0.125000
#
# Coordination Sequence:
#
# PCOD9548662 Si02
#       7
#     8   8   8   8   8   8   8
#     4  11  24  43  63  97 129 167 227 280 339 389
#     4  12  22  33  59  95 130 170 204 259 335 406
#     4  12  20  31  54  93 138 171 203 243 324 419
#     4  11  23  42  67  90 123 175 226 283 332 383
#     4  12  22  35  59  99 137 166 201 275 348 418
#     4  11  23  38  62  89 128 175 220 264 315 404
#     4  11  22  37  58  90 131 177 211 256 320 409
#
# _framework density 19.363053000000001
#
# number of rings (size 3 to 8) (size 9 to 14) (size 15 to 20)
#    0.000    0.571   10.000    0.000    0.000    2.286 
#    0.000    0.000    3.143    0.000    0.000    0.000 
#    0.000    0.000    0.000    0.000    0.000    0.000 
#
# Total GULP energy -311836.937118 kJ/mol
# GULP energy per Si atom -5568.516734 kJ/mol
# Density = 1.931898 g / cm^3
# Si number density = 19.363053 Si / 1000 Ang^3
#
#
#
# Elastic Constant Matrix: (Units=GPa)
#
#
# Indices 1 2 3 4 5 6 
#
# 1 54.0753 16.1845 18.0427 0.0000 0.0000 0.0000
# 2 16.1845 54.0765 18.0435 0.0000 0.0000 0.0000
# 3 18.0427 18.0435 92.6926 0.0000 0.0000 0.0000
# 4 0.0000 0.0000 0.0000 27.2726 0.0000 0.0000
# 5 0.0000 0.0000 0.0000 0.0000 27.2726 0.0000
# 6 0.0000 0.0000 0.0000 0.0000 0.0000 1.1661
#
#
#
# Elastic Compliance Matrix: (Units=1/GPa)
#
#
# Indices 1 2 3 4 5 6 
#
# 1 0.021103 -0.005289 -0.003078 0.000000 0.000000 0.000000
# 2 -0.005289 0.021102 -0.003078 0.000000 0.000000 0.000000
# 3 -0.003078 -0.003078 0.011987 0.000000 0.000000 0.000000
# 4 0.000000 0.000000 0.000000 0.036667 0.000000 0.000000
# 5 0.000000 0.000000 0.000000 0.000000 0.036667 0.000000
# 6 0.000000 0.000000 0.000000 0.000000 0.000000 0.857596
#
#
# Mechanical properties :
#
#
# Convention : Reuss Voigt Hill
#
# Bulk Modulus (GPa) = 31.94753 33.93176 32.93964
# Shear Modulus (GPa) = 4.90944 21.04717 12.97830
#
# Velocity S-wave (km/s) = 1.59404 3.30051 2.59175
# Velocity P-wave (km/s) = 4.46352 5.66449 5.09948
#
# Compressibility (1/GPa) = 0.03130133
#
# Stress axis : x y z
#
# Youngs Moduli (GPa) = 47.38737 47.38818 83.42558
#
# Poissons Ratio (x) = 0.25062 0.25680
# Poissons Ratio (y) = 0.25062 0.25681
# Poissons Ratio (z) = 0.14586 0.14588
#
# Static dielectric constant tensor:
#      x y z
#    x 1.702720 0.000000 0.000000 
#    y 0.000000 1.702720 0.000000 
#    z 0.000000 0.000000 1.794760 
# 
# From -- ./inp_files/6419.got.cif
#   From: 2010.05.17/outbox.cif.g08.bks.cpg/sg91_4_cif.got.tgz:6419.got - 2010.06.03 19:20:03.
