data_PCOD9548077
_publ_section_title
;
Structure prediction by ZEFSAII (Michael W. Deem and Ramdas Pophale) SiO2 
 PCOD9548077
Probable space group: P 41 2 2
;
_chemical_formula_sum "Si O2"
_cell_formula_units_Z 40
_cell_length_a 7.937614
_cell_length_b 7.937614
_cell_length_c 25.265162
_cell_angle_alpha 90.000000
_cell_angle_beta 90.000000
_cell_angle_gamma 90.000000
_cell_volume 1591.849622
_symmetry_space_group_name_H-M "P 41 2 2"
_symmetry_group_IT_number 91
_symmetry_cell_setting 'tetragonal'
loop_
_space_group_symop_operation_xyz
x,y,z
-y,x,1/4+z
-x,-y,1/2+z
y,-x,3/4+z
x,-y,1/2-z
-x,y,-z
y,x,3/4-z
-y,-x,1/4-z
loop_
_atom_site_type_symbol
_atom_site_label
_atom_site_fract_x
_atom_site_fract_y
_atom_site_fract_z
Si Si1 0.365912 0.877536 0.870289
Si Si2 0.317305 0.502287 0.026556
Si Si3 0.870844 0.269508 0.671239
Si Si4 0.333344 0.766969 0.677289
Si Si5 0.981440 0.686253 0.726060
O O1 0.379470 0.736097 0.825099
O O2 0.556599 0.918572 0.891464
O O3 0.298196 0.047257 0.844463
O O4 0.276279 0.855765 0.927319
O O5 0.300753 0.685021 0.053371
O O6 0.500000 0.479999 0.000000
O O7 0.209649 0.470748 0.973456
O O8 0.864433 0.135568 0.625000
O O9 0.974245 0.205814 0.720983
O O10 0.352498 0.647503 0.625000
O O11 0.169294 0.692470 0.705206
O O12 0.944028 0.500000 0.750000
#
# Coordination Sequence:
#
# PCOD9548077 Si02
#       5
#     8   8   8   8   8
#     4   9  19  36  56  82 123 164 194 243 309 363
#     4  11  21  34  58  93 123 155 204 253 302 365
#     4   9  19  36  59  88 122 160 201 248 306 363
#     4  10  21  35  58  88 119 159 204 250 308 364
#     4   9  17  35  58  85 122 160 200 250 305 365
#
# _framework density 25.128004000000001
#
# number of rings (size 3 to 8) (size 9 to 14) (size 15 to 20)
#    0.000    2.400    0.000    3.000    0.000    4.000 
#    0.000    0.000    0.000   19.200    0.000    0.000 
#    0.000    0.000    0.000    0.000    0.000    0.000 
#
# Total GULP energy -223062.713316 kJ/mol
# GULP energy per Si atom -5576.567833 kJ/mol
# Density = 2.507081 g / cm^3
# Si number density = 25.128004 Si / 1000 Ang^3
#
#
#
# Elastic Constant Matrix: (Units=GPa)
#
#
# Indices 1 2 3 4 5 6 
#
# 1 29.0814 29.3355 42.5565 0.0000 0.0000 0.0000
# 2 29.3355 29.0822 42.5571 0.0000 0.0000 0.0000
# 3 42.5565 42.5571 206.0478 0.0000 0.0000 0.0000
# 4 0.0000 0.0000 0.0000 33.3864 0.0000 0.0000
# 5 0.0000 0.0000 0.0000 0.0000 33.3862 0.0000
# 6 0.0000 0.0000 0.0000 0.0000 0.0000 8.0027
#
#
#
# Elastic Compliance Matrix: (Units=1/GPa)
#
#
# Indices 1 2 3 4 5 6 
#
# 1 -1.957940 1.982399 -0.005057 0.000000 0.000000 0.000000
# 2 1.982399 -1.957884 -0.005058 0.000000 0.000000 0.000000
# 3 -0.005057 -0.005058 0.006942 0.000000 0.000000 0.000000
# 4 0.000000 0.000000 0.000000 0.029952 0.000000 0.000000
# 5 0.000000 0.000000 0.000000 0.000000 0.029953 0.000000
# 6 0.000000 0.000000 0.000000 0.000000 0.000000 0.124958
#
#
# Mechanical properties :
#
#
# Convention : Reuss Voigt Hill
#
# Bulk Modulus (GPa) = 28.02196 54.78996 41.40596
# Shear Modulus (GPa) = -0.65302 24.93920 12.14309
#
# Velocity S-wave (km/s) = -0.51034 3.15379 2.20068
# Velocity P-wave (km/s) = 3.29069 5.92567 4.79282
#
# Compressibility (1/GPa) = 0.03568629
#
# Stress axis : x y z
#
# Youngs Moduli (GPa) = -0.51074 -0.51076 144.04275
#
# Poissons Ratio (x) = 1.01252 0.72847
# Poissons Ratio (y) = 1.01249 0.72852
# Poissons Ratio (z) = -0.00258 -0.00258
#
# Static dielectric constant tensor:
#      x y z
#    x 2.054510 0.000000 0.000000 
#    y 0.000000 2.054510 0.000000 
#    z 0.000000 0.000000 2.201890 
# 
# From -- ./inp_files/6755.got.cif
#   From: 2010.05.17/outbox.cif.g08.bks.cpg/sg91_4_cif.got.tgz:6755.got - 2010.06.03 19:20:03.
