data_PCOD9548502
_publ_section_title
;
Structure prediction by ZEFSAII (Michael W. Deem and Ramdas Pophale) SiO2 
 PCOD9548502
Probable space group: P 41 2 2
;
_chemical_formula_sum "Si O2"
_cell_formula_units_Z 36
_cell_length_a 8.229029
_cell_length_b 8.229029
_cell_length_c 20.128895
_cell_angle_alpha 90.000000
_cell_angle_beta 90.000000
_cell_angle_gamma 90.000000
_cell_volume 1363.066738
_symmetry_space_group_name_H-M "P 41 2 2"
_symmetry_group_IT_number 91
_symmetry_cell_setting 'tetragonal'
loop_
_space_group_symop_operation_xyz
x,y,z
-y,x,1/4+z
-x,-y,1/2+z
y,-x,3/4+z
x,-y,1/2-z
-x,y,-z
y,x,3/4-z
-y,-x,1/4-z
loop_
_atom_site_type_symbol
_atom_site_label
_atom_site_fract_x
_atom_site_fract_y
_atom_site_fract_z
Si Si1 0.730394 0.671330 0.184467
Si Si2 0.220460 0.342259 0.210738
Si Si3 0.000000 0.419929 0.000000
Si Si4 0.620921 0.125028 0.107936
Si Si5 0.953157 0.865316 0.800861
O O1 0.673280 0.690759 0.108279
O O2 0.740605 0.475126 0.185284
O O3 0.919902 0.721239 0.189067
O O4 0.649493 0.819982 0.224977
O O5 0.275153 0.500000 0.250000
O O6 0.211003 0.196720 0.264489
O O7 0.034066 0.353774 0.185969
O O8 0.064301 0.467257 0.925657
O O9 0.793419 0.206582 0.125000
O O10 0.927727 0.927727 0.875000
O O11 0.021686 0.000000 0.750000
#
# Coordination Sequence:
#
# PCOD9548502 Si02
#       5
#     8   8   4   8   8
#     4  11  23  43  69 100 136 178 225 280 341 409
#     4  11  24  44  66  97 136 180 223 281 335 408
#     4  10  24  42  70 100 136 178 232 284 340 414
#     4  11  25  43  70  99 136 185 231 278 345 413
#     4  12  23  38  67 101 134 169 226 281 344 396
#
# _framework density 26.411031000000001
#
# number of rings (size 3 to 8) (size 9 to 14) (size 15 to 20)
#    0.000    0.889    5.556    1.333    3.111    1.778 
#    4.000    0.000    0.000    0.000    0.000    0.000 
#    0.000    0.000    0.000    0.000    0.000    0.000 
#
# Total GULP energy -200675.038116 kJ/mol
# GULP energy per Si atom -5574.306614 kJ/mol
# Density = 2.635092 g / cm^3
# Si number density = 26.411031 Si / 1000 Ang^3
#
#
#
# Elastic Constant Matrix: (Units=GPa)
#
#
# Indices 1 2 3 4 5 6 
#
# 1 18.8750 -8.2754 -12.7199 0.0000 0.0000 0.0000
# 2 -8.2754 18.8769 -12.7201 0.0000 0.0000 0.0000
# 3 -12.7199 -12.7201 183.8618 0.0000 0.0000 0.0000
# 4 0.0000 0.0000 0.0000 21.2582 0.0000 0.0000
# 5 0.0000 0.0000 0.0000 0.0000 21.2581 0.0000
# 6 0.0000 0.0000 0.0000 0.0000 0.0000 15.7036
#
#
#
# Elastic Compliance Matrix: (Units=1/GPa)
#
#
# Indices 1 2 3 4 5 6 
#
# 1 0.074977 0.038142 0.007826 0.000000 0.000000 0.000000
# 2 0.038142 0.074969 0.007825 0.000000 0.000000 0.000000
# 3 0.007826 0.007825 0.006522 0.000000 0.000000 0.000000
# 4 0.000000 0.000000 0.000000 0.047041 0.000000 0.000000
# 5 0.000000 0.000000 0.000000 0.000000 0.047041 0.000000
# 6 0.000000 0.000000 0.000000 0.000000 0.000000 0.063680
#
#
# Mechanical properties :
#
#
# Convention : Reuss Voigt Hill
#
# Bulk Modulus (GPa) = 3.78711 17.13144 10.45928
# Shear Modulus (GPa) = 16.96873 28.66592 22.81732
#
# Velocity S-wave (km/s) = 2.53748 3.29808 2.94246
# Velocity P-wave (km/s) = 3.16577 4.58298 3.93864
#
# Compressibility (1/GPa) = 0.26405347
#
# Stress axis : x y z
#
# Youngs Moduli (GPa) = 13.33748 13.33890 153.33551
#
# Poissons Ratio (x) = -0.50877 -1.19997
# Poissons Ratio (y) = -0.50872 -1.19989
# Poissons Ratio (z) = -0.10438 -0.10438
#
# Static dielectric constant tensor:
#      x y z
#    x 2.108970 0.000000 0.000000 
#    y 0.000000 2.108970 0.000000 
#    z 0.000000 0.000000 2.109780 
# 
# From -- ./inp_files/6146.got.cif
#   From: 2010.05.17/outbox.cif.g08.bks.cpg/sg91_4_cif.got.tgz:6146.got - 2010.06.03 19:20:03.
