data_PCOD9548058
_publ_section_title
;
Structure prediction by ZEFSAII (Michael W. Deem and Ramdas Pophale) SiO2 
 PCOD9548058
Probable space group: P 41 2 2
;
_chemical_formula_sum "Si O2"
_cell_formula_units_Z 36
_cell_length_a 13.318359
_cell_length_b 13.318359
_cell_length_c 10.428863
_cell_angle_alpha 90.000000
_cell_angle_beta 90.000000
_cell_angle_gamma 90.000000
_cell_volume 1849.858020
_symmetry_space_group_name_H-M "P 41 2 2"
_symmetry_group_IT_number 91
_symmetry_cell_setting 'tetragonal'
loop_
_space_group_symop_operation_xyz
x,y,z
-y,x,1/4+z
-x,-y,1/2+z
y,-x,3/4+z
x,-y,1/2-z
-x,y,-z
y,x,3/4-z
-y,-x,1/4-z
loop_
_atom_site_type_symbol
_atom_site_label
_atom_site_fract_x
_atom_site_fract_y
_atom_site_fract_z
Si Si1 0.813903 0.186098 0.125000
Si Si2 0.607755 0.500000 0.250000
Si Si3 0.315988 0.263978 0.113893
Si Si4 0.612855 0.132186 0.455643
Si Si5 0.897740 0.743484 0.936356
Si Si6 0.282782 0.000000 0.750000
O O1 0.782086 0.255801 0.243969
O O2 0.787856 0.072519 0.165179
O O3 0.544971 0.544971 0.375000
O O4 0.679908 0.414096 0.311064
O O5 0.244193 0.345416 0.182969
O O6 0.319870 0.173253 0.216491
O O7 0.500000 0.135140 0.500000
O O8 0.672347 0.077553 0.568642
O O9 0.643814 0.071458 0.330207
O O10 0.833240 0.833240 0.875000
O O11 0.000000 0.779231 0.000000
#
# Coordination Sequence:
#
# PCOD9548058 Si02
#       6
#     4   4   8   8   8   4
#     4  10  20  44  64  94 134 170 216 274 342 386
#     4  12  28  44  72 102 134 184 232 280 352 426
#     4  10  23  42  66  93 137 169 218 282 331 392
#     4  10  23  39  63  97 131 172 218 277 336 401
#     4  10  22  42  69  94 135 176 221 279 336 403
#     4  10  22  40  68  92 132 174 220 278 332 406
#
# _framework density 19.460954999999998
#
# number of rings (size 3 to 8) (size 9 to 14) (size 15 to 20)
#    0.000    1.778    1.111    1.333    6.222    0.889 
#    4.000    0.000   80.667    0.000    0.000    0.000 
#    0.000    0.000    0.000    0.000    0.000    0.000 
#
# Total GULP energy -200770.671949 kJ/mol
# GULP energy per Si atom -5576.963110 kJ/mol
# Density = 1.941666 g / cm^3
# Si number density = 19.460955 Si / 1000 Ang^3
#
#
#
# Elastic Constant Matrix: (Units=GPa)
#
#
# Indices 1 2 3 4 5 6 
#
# 1 72.3949 66.9445 22.4159 0.0000 0.0000 0.0000
# 2 66.9445 72.3941 22.4157 0.0000 0.0000 0.0000
# 3 22.4159 22.4157 77.5484 0.0000 0.0000 0.0000
# 4 0.0000 0.0000 0.0000 32.0306 0.0000 0.0000
# 5 0.0000 0.0000 0.0000 0.0000 32.0308 0.0000
# 6 0.0000 0.0000 0.0000 0.0000 0.0000 7.3327
#
#
#
# Elastic Compliance Matrix: (Units=1/GPa)
#
#
# Indices 1 2 3 4 5 6 
#
# 1 0.095698 -0.087786 -0.002287 0.000000 0.000000 0.000000
# 2 -0.087786 0.095699 -0.002287 0.000000 0.000000 0.000000
# 3 -0.002287 -0.002287 0.014217 0.000000 0.000000 0.000000
# 4 0.000000 0.000000 0.000000 0.031220 0.000000 0.000000
# 5 0.000000 0.000000 0.000000 0.000000 0.031220 0.000000
# 6 0.000000 0.000000 0.000000 0.000000 0.000000 0.136375
#
#
# Mechanical properties :
#
#
# Convention : Reuss Voigt Hill
#
# Bulk Modulus (GPa) = 47.86080 49.54329 48.70205
# Shear Modulus (GPa) = 8.38764 21.64959 15.01862
#
# Velocity S-wave (km/s) = 2.07830 3.33898 2.78102
# Velocity P-wave (km/s) = 5.51414 6.35438 5.94911
#
# Compressibility (1/GPa) = 0.02089393
#
# Stress axis : x y z
#
# Youngs Moduli (GPa) = 10.44952 10.44941 70.33622
#
# Poissons Ratio (x) = 0.91731 0.16087
# Poissons Ratio (y) = 0.91732 0.16087
# Poissons Ratio (z) = 0.02390 0.02390
#
# Static dielectric constant tensor:
#      x y z
#    x 1.652880 0.000000 0.000000 
#    y 0.000000 1.652890 0.000000 
#    z 0.000000 0.000000 1.714910 
# 
# From -- ./inp_files/3587.got.cif
#   From: 2010.05.17/outbox.cif.g08.bks.cpg/sg91_2_cif.got.tgz:3587.got - 2010.06.03 19:20:03.
