data_PCOD9548304
_publ_section_title
;
Structure prediction by ZEFSAII (Michael W. Deem and Ramdas Pophale) SiO2 
 PCOD9548304
Probable space group: P 41 2 2
;
_chemical_formula_sum "Si O2"
_cell_formula_units_Z 32
_cell_length_a 17.234166
_cell_length_b 17.234166
_cell_length_c 5.233384
_cell_angle_alpha 90.000000
_cell_angle_beta 90.000000
_cell_angle_gamma 90.000000
_cell_volume 1554.401282
_symmetry_space_group_name_H-M "P 41 2 2"
_symmetry_group_IT_number 91
_symmetry_cell_setting 'tetragonal'
loop_
_space_group_symop_operation_xyz
x,y,z
-y,x,1/4+z
-x,-y,1/2+z
y,-x,3/4+z
x,-y,1/2-z
-x,y,-z
y,x,3/4-z
-y,-x,1/4-z
loop_
_atom_site_type_symbol
_atom_site_label
_atom_site_fract_x
_atom_site_fract_y
_atom_site_fract_z
Si Si1 0.368042 0.368042 0.375000
Si Si2 0.576113 0.219904 0.369972
Si Si3 0.500000 0.344801 0.000000
Si Si4 0.791462 0.910020 0.748167
Si Si5 0.090647 0.692079 0.492991
O O1 0.276493 0.378078 0.314775
O O2 0.386997 0.432223 0.592390
O O3 0.500000 0.183669 0.500000
O O4 0.626057 0.154975 0.231417
O O5 0.544672 0.286169 0.184964
O O6 0.858346 0.858346 0.875000
O O7 0.757194 0.895233 0.463730
O O8 0.815876 0.000000 0.750000
O O9 0.723443 0.899590 0.955372
O O10 0.000000 0.667870 0.500000
#
# Coordination Sequence:
#
# PCOD9548304 Si02
#       5
#     4   8   4   8   8
#     4  10  22  40  66  90 130 164 218 266 322 392
#     4  10  23  41  65  93 127 173 215 267 328 396
#     4  10  22  40  64  92 128 162 220 268 324 394
#     4  10  22  40  63  94 132 172 219 270 323 391
#     4  10  23  42  63  99 134 168 222 274 326 390
#
# _framework density 20.586704999999998
#
# number of rings (size 3 to 8) (size 9 to 14) (size 15 to 20)
#    0.000    2.000    0.000    1.500    8.750    2.000 
#    2.250    3.750   99.000    0.000    0.000    0.000 
#    0.000    0.000    0.000    0.000    0.000    0.000 
#
# Total GULP energy -178345.082559 kJ/mol
# GULP energy per Si atom -5573.283830 kJ/mol
# Density = 2.053985 g / cm^3
# Si number density = 20.586705 Si / 1000 Ang^3
#
#
#
# Elastic Constant Matrix: (Units=GPa)
#
#
# Indices 1 2 3 4 5 6 
#
# 1 83.9556 74.2977 16.0381 0.0000 0.0000 0.0000
# 2 74.2977 83.9556 16.0381 0.0000 0.0000 0.0000
# 3 16.0381 16.0381 73.4329 0.0000 0.0000 0.0000
# 4 0.0000 0.0000 0.0000 17.0497 0.0000 0.0000
# 5 0.0000 0.0000 0.0000 0.0000 17.0497 0.0000
# 6 0.0000 0.0000 0.0000 0.0000 0.0000 -3.5635
#
#
#
# Elastic Compliance Matrix: (Units=1/GPa)
#
#
# Indices 1 2 3 4 5 6 
#
# 1 0.055077 -0.048465 -0.001444 0.000000 0.000000 0.000000
# 2 -0.048465 0.055077 -0.001444 0.000000 0.000000 0.000000
# 3 -0.001444 -0.001444 0.014249 0.000000 0.000000 0.000000
# 4 0.000000 0.000000 0.000000 0.058652 0.000000 0.000000
# 5 0.000000 0.000000 0.000000 0.000000 0.058652 0.000000
# 6 0.000000 0.000000 0.000000 0.000000 0.000000 -0.280622
#
#
# Mechanical properties :
#
#
# Convention : Reuss Voigt Hill
#
# Bulk Modulus (GPa) = 46.09169 50.45468 48.27318
# Shear Modulus (GPa) = 70.40003 15.10518 42.75260
#
# Velocity S-wave (km/s) = 5.85415 2.71169 4.56204
# Velocity P-wave (km/s) = 8.25424 5.86225 7.15885
#
# Compressibility (1/GPa) = 0.02169589
#
# Stress axis : x y z
#
# Youngs Moduli (GPa) = 18.15648 18.15648 70.18214
#
# Poissons Ratio (x) = 0.87996 0.10134
# Poissons Ratio (y) = 0.87996 0.10134
# Poissons Ratio (z) = 0.02622 0.02622
#
# Static dielectric constant tensor:
#      x y z
#    x 1.744370 0.000000 0.000000 
#    y 0.000000 1.744370 0.000000 
#    z 0.000000 0.000000 1.902620 
# 
# From -- ./inp_files/732.got.cif
#   From: 2010.05.17/outbox.cif.g08.bks.cpg/sg91_1_cif.got.tgz:732.got - 2010.06.03 19:20:03.
