data_PCOD9548899
_publ_section_title
;
Structure prediction by ZEFSAII (Michael W. Deem and Ramdas Pophale) SiO2 
 PCOD9548899
Probable space group: P 41 21 2
;
_chemical_formula_sum "Si O2"
_cell_formula_units_Z 52
_cell_length_a 20.773619
_cell_length_b 20.773619
_cell_length_c 5.898420
_cell_angle_alpha 90.000000
_cell_angle_beta 90.000000
_cell_angle_gamma 90.000000
_cell_volume 2545.423315
_symmetry_space_group_name_H-M "P 41 21 2"
_symmetry_group_IT_number 92
_symmetry_cell_setting 'tetragonal'
loop_
_space_group_symop_operation_xyz
x,y,z
1/2-y,1/2+x,1/4+z
-x,-y,1/2+z
1/2+y,1/2-x,3/4+z
1/2+x,1/2-y,3/4-z
1/2-x,1/2+y,1/4-z
y,x,-z
-y,-x,1/2-z
loop_
_atom_site_type_symbol
_atom_site_label
_atom_site_fract_x
_atom_site_fract_y
_atom_site_fract_z
Si Si1 0.464075 0.573200 0.500021
Si Si2 0.190597 0.485437 0.395230
Si Si3 0.755776 0.659666 0.373789
Si Si4 0.382828 0.115428 0.929371
Si Si5 0.338930 0.338930 0.500000
Si Si6 0.584746 0.029315 0.061679
Si Si7 0.685457 0.552976 0.655522
O O1 0.510989 0.510989 0.500000
O O2 0.429090 0.570911 0.250000
O O3 0.507530 0.636740 0.475254
O O4 0.429357 0.570644 0.750000
O O5 0.166259 0.559382 0.392713
O O6 0.160634 0.465916 0.637476
O O7 0.264333 0.482174 0.323209
O O8 0.154896 0.431967 0.233944
O O9 0.718909 0.718909 0.500000
O O10 0.830581 0.657295 0.432763
O O11 0.725482 0.595257 0.479590
O O12 0.731472 0.658374 0.115185
O O13 0.429287 0.074249 0.090508
O O14 0.348802 0.393382 0.312061
O O15 0.541697 0.059852 0.258823
#
# Coordination Sequence:
#
# PCOD9548899 Si02
#       7
#     8   8   8   8   4   8   8
#     4  10  22  38  62  92 125 159 199 255 326 393
#     4  11  22  38  57  84 120 158 205 251 309 369
#     4   9  20  36  58  83 112 150 199 251 297 360
#     4  11  21  37  56  83 118 154 200 251 304 371
#     4  10  18  36  62  84 116 146 202 260 300 368
#     4  12  21  33  54  85 118 158 198 252 314 368
#     4  10  22  36  60  89 115 156 201 257 311 370
#
# _framework density 20.428822
#
# number of rings (size 3 to 8) (size 9 to 14) (size 15 to 20)
#    0.000    1.538    3.077    3.231    5.385    0.000 
#    0.000    0.769    1.692    0.000    0.000    0.000 
#    0.000    0.000    0.000    0.000    0.000    0.000 
#
# Total GULP energy -289518.381809 kJ/mol
# GULP energy per Si atom -5567.661189 kJ/mol
# Density = 2.038233 g / cm^3
# Si number density = 20.428822 Si / 1000 Ang^3
#
#
#
# Elastic Constant Matrix: (Units=GPa)
#
#
# Indices 1 2 3 4 5 6 
#
# 1 50.4891 14.3953 4.5071 0.0000 0.0000 0.0000
# 2 14.3953 50.4881 4.5069 0.0000 0.0000 0.0000
# 3 4.5071 4.5069 54.4009 0.0000 0.0000 0.0000
# 4 0.0000 0.0000 0.0000 24.2798 0.0000 0.0000
# 5 0.0000 0.0000 0.0000 0.0000 24.2797 0.0000
# 6 0.0000 0.0000 0.0000 0.0000 0.0000 17.9972
#
#
#
# Elastic Compliance Matrix: (Units=1/GPa)
#
#
# Indices 1 2 3 4 5 6 
#
# 1 0.021649 -0.006057 -0.001292 0.000000 0.000000 0.000000
# 2 -0.006057 0.021649 -0.001292 0.000000 0.000000 0.000000
# 3 -0.001292 -0.001292 0.018596 0.000000 0.000000 0.000000
# 4 0.000000 0.000000 0.000000 0.041187 0.000000 0.000000
# 5 0.000000 0.000000 0.000000 0.000000 0.041187 0.000000
# 6 0.000000 0.000000 0.000000 0.000000 0.000000 0.055564
#
#
# Mechanical properties :
#
#
# Convention : Reuss Voigt Hill
#
# Bulk Modulus (GPa) = 22.41529 22.46628 22.44079
# Shear Modulus (GPa) = 21.55329 22.10925 21.83127
#
# Velocity S-wave (km/s) = 3.25167 3.29334 3.27257
# Velocity P-wave (km/s) = 5.00939 5.04803 5.02875
#
# Compressibility (1/GPa) = 0.04461240
#
# Stress axis : x y z
#
# Youngs Moduli (GPa) = 46.19240 46.19147 53.77475
#
# Poissons Ratio (x) = 0.27979 0.06946
# Poissons Ratio (y) = 0.27980 0.06946
# Poissons Ratio (z) = 0.05967 0.05966
#
# Static dielectric constant tensor:
#      x y z
#    x 1.755920 0.000000 0.000000 
#    y 0.000000 1.755920 0.000000 
#    z 0.000000 0.000000 1.813860 
# 
# From -- ./inp_files/705.got.cif
#   From: 2010.05.17/outbox.cif.g08.bks.cpg/sg92_1_cif.got.tgz:705.got - 2010.06.03 19:35:17.
