data_PCOD9548083
_publ_section_title
;
Structure prediction by ZEFSAII (Michael W. Deem and Ramdas Pophale) SiO2 
 PCOD9548083
Probable space group: P 41 2 2
;
_chemical_formula_sum "Si O2"
_cell_formula_units_Z 24
_cell_length_a 15.891605
_cell_length_b 15.891605
_cell_length_c 4.995894
_cell_angle_alpha 90.000000
_cell_angle_beta 90.000000
_cell_angle_gamma 90.000000
_cell_volume 1261.678605
_symmetry_space_group_name_H-M "P 41 2 2"
_symmetry_group_IT_number 91
_symmetry_cell_setting 'tetragonal'
loop_
_space_group_symop_operation_xyz
x,y,z
-y,x,1/4+z
-x,-y,1/2+z
y,-x,3/4+z
x,-y,1/2-z
-x,y,-z
y,x,3/4-z
-y,-x,1/4-z
loop_
_atom_site_type_symbol
_atom_site_label
_atom_site_fract_x
_atom_site_fract_y
_atom_site_fract_z
Si Si1 0.869966 0.000000 0.750000
Si Si2 0.000000 0.240879 0.000000
Si Si3 0.321767 0.593301 0.374025
Si Si4 0.725958 0.814152 0.131793
O O1 0.928144 0.071857 0.625000
O O2 0.814783 0.970021 0.501477
O O3 0.914993 0.284380 0.889583
O O4 0.318686 0.500000 0.250000
O O5 0.383958 0.616043 0.625000
O O6 0.231396 0.635664 0.429139
O O7 0.354975 0.645026 0.125000
O O8 0.782746 0.782746 0.375000
O O9 0.775563 0.775563 0.875000
#
# Coordination Sequence:
#
# PCOD9548083 Si02
#       4
#     4   4   8   8
#     4  12  23  32  46  73 106 140 186 248 298 327
#     4  12  21  34  54  75 104 150 196 230 274 339
#     4  10  21  38  61  88 118 147 178 224 281 340
#     4  10  21  36  55  80 111 149 189 233 281 327
#
# _framework density 19.022278
#
# number of rings (size 3 to 8) (size 9 to 14) (size 15 to 20)
#    0.000    1.333    0.000    8.000    0.000    1.333 
#    0.000    0.000    0.000   14.000    0.000    0.000 
#    0.000    0.000    0.000    0.000    0.000    0.000 
#
# Total GULP energy -133697.061506 kJ/mol
# GULP energy per Si atom -5570.710896 kJ/mol
# Density = 1.897898 g / cm^3
# Si number density = 19.022278 Si / 1000 Ang^3
#
#
#
# Elastic Constant Matrix: (Units=GPa)
#
#
# Indices 1 2 3 4 5 6 
#
# 1 165.2033 22.5739 24.2875 0.0000 0.0000 0.0000
# 2 22.5739 165.2164 24.2861 0.0000 0.0000 0.0000
# 3 24.2875 24.2861 136.9415 0.0000 0.0000 0.0000
# 4 0.0000 0.0000 0.0000 26.1884 0.0000 0.0000
# 5 0.0000 0.0000 0.0000 0.0000 26.1881 0.0000
# 6 0.0000 0.0000 0.0000 0.0000 0.0000 4.8573
#
#
#
# Elastic Compliance Matrix: (Units=1/GPa)
#
#
# Indices 1 2 3 4 5 6 
#
# 1 0.006296 -0.000715 -0.000990 0.000000 0.000000 0.000000
# 2 -0.000715 0.006296 -0.000990 0.000000 0.000000 0.000000
# 3 -0.000990 -0.000990 0.007653 0.000000 0.000000 0.000000
# 4 0.000000 0.000000 0.000000 0.038185 0.000000 0.000000
# 5 0.000000 0.000000 0.000000 0.000000 0.038185 0.000000
# 6 0.000000 0.000000 0.000000 0.000000 0.000000 0.205878
#
#
# Mechanical properties :
#
#
# Convention : Reuss Voigt Hill
#
# Bulk Modulus (GPa) = 67.30967 67.73958 67.52463
# Shear Modulus (GPa) = 15.98288 37.86100 26.92194
#
# Velocity S-wave (km/s) = 2.90180 4.46617 3.76611
# Velocity P-wave (km/s) = 6.83291 7.89199 7.38147
#
# Compressibility (1/GPa) = 0.01485671
#
# Stress axis : x y z
#
# Youngs Moduli (GPa) = 158.82213 158.83554 130.65926
#
# Poissons Ratio (x) = 0.11353 0.12934
# Poissons Ratio (y) = 0.11352 0.12932
# Poissons Ratio (z) = 0.15722 0.15721
#
# Static dielectric constant tensor:
#      x y z
#    x 1.679620 0.000000 0.000000 
#    y 0.000000 1.679620 0.000000 
#    z 0.000000 0.000000 1.682740 
# 
# From -- ./inp_files/315.got.cif
#   From: 2010.05.17/outbox.cif.g08.bks.cpg/sg91_1_cif.got.tgz:315.got - 2010.06.03 19:20:03.
