data_PCOD9548680
_publ_section_title
;
Structure prediction by ZEFSAII (Michael W. Deem and Ramdas Pophale) SiO2 
 PCOD9548680
Probable space group: P 41 2 2
;
_chemical_formula_sum "Si O2"
_cell_formula_units_Z 24
_cell_length_a 9.387993
_cell_length_b 9.387993
_cell_length_c 12.150000
_cell_angle_alpha 90.000000
_cell_angle_beta 90.000000
_cell_angle_gamma 90.000000
_cell_volume 1070.833113
_symmetry_space_group_name_H-M "P 41 2 2"
_symmetry_group_IT_number 91
_symmetry_cell_setting 'tetragonal'
loop_
_space_group_symop_operation_xyz
x,y,z
-y,x,1/4+z
-x,-y,1/2+z
y,-x,3/4+z
x,-y,1/2-z
-x,y,-z
y,x,3/4-z
-y,-x,1/4-z
loop_
_atom_site_type_symbol
_atom_site_label
_atom_site_fract_x
_atom_site_fract_y
_atom_site_fract_z
Si Si1 0.827988 0.711180 0.493866
Si Si2 0.993956 0.766454 0.125881
Si Si3 0.558961 0.786881 0.892738
O O1 0.758697 0.758697 0.375000
O O2 0.786770 0.557258 0.545962
O O3 0.000000 0.711354 0.500000
O O4 0.837709 0.787286 0.172203
O O5 0.085393 0.914608 0.125000
O O6 0.064045 0.629074 0.183122
O O7 0.000000 0.720411 0.000000
O O8 0.702774 0.702774 0.875000
O O9 0.500000 0.711543 0.000000
#
# Coordination Sequence:
#
# PCOD9548680 Si02
#       3
#     8   8   8
#     4  12  24  42  73 111 141 181 252 323 375 444
#     4  11  22  41  67  95 131 176 223 285 365 437
#     4  11  25  45  65  92 136 185 228 284 360 437
#
# _framework density 22.412458000000001
#
# number of rings (size 3 to 8) (size 9 to 14) (size 15 to 20)
#    0.000    0.667    0.000   11.000    0.000    1.333 
#    0.000    8.333    0.000    2.000    0.000    0.000 
#    0.000    0.000    0.000    0.000    0.000    0.000 
#
# Total GULP energy -133669.419404 kJ/mol
# GULP energy per Si atom -5569.559142 kJ/mol
# Density = 2.236145 g / cm^3
# Si number density = 22.412458 Si / 1000 Ang^3
#
#
#
# Elastic Constant Matrix: (Units=GPa)
#
#
# Indices 1 2 3 4 5 6 
#
# 1 113.0854 56.9452 25.4762 0.0000 0.0000 0.0000
# 2 56.9452 113.0850 25.4766 0.0000 0.0000 0.0000
# 3 25.4762 25.4766 73.0321 0.0000 0.0000 0.0000
# 4 0.0000 0.0000 0.0000 38.2419 0.0000 0.0000
# 5 0.0000 0.0000 0.0000 0.0000 38.2421 0.0000
# 6 0.0000 0.0000 0.0000 0.0000 0.0000 3.8539
#
#
#
# Elastic Compliance Matrix: (Units=1/GPa)
#
#
# Indices 1 2 3 4 5 6 
#
# 1 0.012190 -0.005622 -0.002291 0.000000 0.000000 0.000000
# 2 -0.005622 0.012190 -0.002291 0.000000 0.000000 0.000000
# 3 -0.002291 -0.002291 0.015291 0.000000 0.000000 0.000000
# 4 0.000000 0.000000 0.000000 0.026149 0.000000 0.000000
# 5 0.000000 0.000000 0.000000 0.000000 0.026149 0.000000
# 6 0.000000 0.000000 0.000000 0.000000 0.000000 0.259476
#
#
# Mechanical properties :
#
#
# Convention : Reuss Voigt Hill
#
# Bulk Modulus (GPa) = 51.91482 57.22206 54.56844
# Shear Modulus (GPa) = 13.21786 28.82122 21.01954
#
# Velocity S-wave (km/s) = 2.43112 3.58990 3.06576
# Velocity P-wave (km/s) = 5.57621 6.53987 6.07717
#
# Compressibility (1/GPa) = 0.01926232
#
# Stress axis : x y z
#
# Youngs Moduli (GPa) = 82.03313 82.03251 65.39761
#
# Poissons Ratio (x) = 0.46122 0.14983
# Poissons Ratio (y) = 0.46122 0.14984
# Poissons Ratio (z) = 0.18794 0.18795
#
# Static dielectric constant tensor:
#      x y z
#    x 1.958970 0.000000 0.000000 
#    y 0.000000 1.958970 0.000000 
#    z 0.000000 0.000000 2.180060 
# 
# From -- ./inp_files/1807.got.cif
#   From: 2010.05.17/outbox.cif.g08.bks.cpg/sg91_1_cif.got.tgz:1807.got - 2010.06.03 19:20:03.
