data_PCOD9548535
_publ_section_title
;
Structure prediction by ZEFSAII (Michael W. Deem and Ramdas Pophale) SiO2 
 PCOD9548535
Probable space group: P 41 2 2
;
_chemical_formula_sum "Si O2"
_cell_formula_units_Z 60
_cell_length_a 18.651936
_cell_length_b 18.651936
_cell_length_c 8.269046
_cell_angle_alpha 90.000000
_cell_angle_beta 90.000000
_cell_angle_gamma 90.000000
_cell_volume 2876.757414
_symmetry_space_group_name_H-M "P 41 2 2"
_symmetry_group_IT_number 91
_symmetry_cell_setting 'tetragonal'
loop_
_space_group_symop_operation_xyz
x,y,z
-y,x,1/4+z
-x,-y,1/2+z
y,-x,3/4+z
x,-y,1/2-z
-x,y,-z
y,x,3/4-z
-y,-x,1/4-z
loop_
_atom_site_type_symbol
_atom_site_label
_atom_site_fract_x
_atom_site_fract_y
_atom_site_fract_z
Si Si1 0.294421 0.779270 0.476069
Si Si2 0.579722 0.873715 0.567214
Si Si3 0.355292 0.013994 0.565025
Si Si4 0.815889 0.018497 0.434747
Si Si5 0.315775 0.631200 0.294975
Si Si6 0.500000 0.407789 0.500000
Si Si7 0.581587 0.160057 0.555785
Si Si8 0.128643 0.161256 0.682623
O O1 0.250821 0.749180 0.625000
O O2 0.362954 0.825393 0.528584
O O3 0.319654 0.706381 0.389070
O O4 0.238262 0.834664 0.390739
O O5 0.500000 0.866963 0.500000
O O6 0.584556 0.845766 0.750355
O O7 0.606425 0.955157 0.546924
O O8 0.269687 0.008949 0.557483
O O9 0.376584 0.092862 0.514413
O O10 0.378226 0.000000 0.750000
O O11 0.839618 0.101185 0.437454
O O12 0.838764 0.000000 0.250000
O O13 0.842602 0.958009 0.559422
O O14 0.357367 0.558186 0.344662
O O15 0.233132 0.613270 0.263714
O O16 0.351115 0.648886 0.125000
O O17 0.541918 0.458083 0.625000
O O18 0.500000 0.154493 0.500000
O O19 0.147615 0.147615 0.875000
#
# Coordination Sequence:
#
# PCOD9548535 Si02
#       8
#     8   8   8   8   8   4   8   8
#     4  11  24  40  67  99 137 169 231 280 337 416
#     4  12  26  44  64 100 138 175 226 288 341 412
#     4  11  23  41  66  98 133 177 224 279 348 412
#     4   9  17  31  59  94 126 164 214 269 324 389
#     4  11  23  44  67  98 132 181 220 279 345 414
#     4  10  24  46  70  94 132 170 226 276 344 416
#     4  12  25  43  68  94 134 177 222 277 345 415
#     4   9  17  33  57  97 123 167 215 268 323 389
#
# _framework density 20.856815000000001
#
# number of rings (size 3 to 8) (size 9 to 14) (size 15 to 20)
#    0.000    1.333    3.333    2.400    5.600    0.533 
#    1.200    0.000    0.000    0.000   34.667    0.000 
#    0.000    0.000    0.000    0.000    0.000    0.000 
#
# Total GULP energy -334836.369534 kJ/mol
# GULP energy per Si atom -5580.606159 kJ/mol
# Density = 2.080934 g / cm^3
# Si number density = 20.856815 Si / 1000 Ang^3
#
#
#
# Elastic Constant Matrix: (Units=GPa)
#
#
# Indices 1 2 3 4 5 6 
#
# 1 108.4887 38.4015 30.2038 0.0000 0.0000 0.0000
# 2 38.4015 108.4859 30.2075 0.0000 0.0000 0.0000
# 3 30.2038 30.2075 5.3131 0.0000 0.0000 0.0000
# 4 0.0000 0.0000 0.0000 19.0756 0.0000 0.0000
# 5 0.0000 0.0000 0.0000 0.0000 19.0754 0.0000
# 6 0.0000 0.0000 0.0000 0.0000 0.0000 32.2867
#
#
#
# Elastic Compliance Matrix: (Units=1/GPa)
#
#
# Indices 1 2 3 4 5 6 
#
# 1 0.004592 -0.009678 0.028919 0.000000 0.000000 0.000000
# 2 -0.009678 0.004589 0.028928 0.000000 0.000000 0.000000
# 3 0.028919 0.028928 -0.140653 0.000000 0.000000 0.000000
# 4 0.000000 0.000000 0.000000 0.052423 0.000000 0.000000
# 5 0.000000 0.000000 0.000000 0.000000 0.052424 0.000000
# 6 0.000000 0.000000 0.000000 0.000000 0.000000 0.030972
#
#
# Mechanical properties :
#
#
# Convention : Reuss Voigt Hill
#
# Bulk Modulus (GPa) = -28.46198 46.65705 9.09754
# Shear Modulus (GPa) = -48.21489 22.31919 -12.94785
#
# Velocity S-wave (km/s) = -4.81324 3.27481 -2.49428
# Velocity P-wave (km/s) = 6.67575 6.05953 1.98088
#
# Compressibility (1/GPa) = -0.03513459
#
# Stress axis : x y z
#
# Youngs Moduli (GPa) = 217.77163 217.92535 -7.10969
#
# Poissons Ratio (x) = 2.10905 0.20561
# Poissons Ratio (y) = 2.10757 0.20567
# Poissons Ratio (z) = -6.29776 -6.30407
#
# Static dielectric constant tensor:
#      x y z
#    x 1.779320 0.000000 0.000000 
#    y 0.000000 1.779330 0.000000 
#    z 0.000000 0.000000 1.769690 
# 
# From -- ./inp_files/15307.got.cif
#   From: 2010.05.17/outbox.cif.g08.bks.cpg/sg91_8_cif.got.tgz:15307.got - 2010.06.03 19:20:03.
