data_PCOD9548794
_publ_section_title
;
Structure prediction by ZEFSAII (Michael W. Deem and Ramdas Pophale) SiO2 
 PCOD9548794
Probable space group: P 41 2 2
;
_chemical_formula_sum "Si O2"
_cell_formula_units_Z 40
_cell_length_a 11.403214
_cell_length_b 11.403214
_cell_length_c 13.717960
_cell_angle_alpha 90.000000
_cell_angle_beta 90.000000
_cell_angle_gamma 90.000000
_cell_volume 1783.791464
_symmetry_space_group_name_H-M "P 41 2 2"
_symmetry_group_IT_number 91
_symmetry_cell_setting 'tetragonal'
loop_
_space_group_symop_operation_xyz
x,y,z
-y,x,1/4+z
-x,-y,1/2+z
y,-x,3/4+z
x,-y,1/2-z
-x,y,-z
y,x,3/4-z
-y,-x,1/4-z
loop_
_atom_site_type_symbol
_atom_site_label
_atom_site_fract_x
_atom_site_fract_y
_atom_site_fract_z
Si Si1 0.720910 0.000000 0.250000
Si Si2 0.858590 0.141411 0.125000
Si Si3 0.500000 0.081205 0.500000
Si Si4 0.941023 0.717211 0.203148
Si Si5 0.214954 0.436977 0.067296
Si Si6 0.752491 0.345532 0.446594
Si Si7 0.823592 0.823592 0.875000
O O1 0.812944 0.016151 0.161097
O O2 0.636187 0.110942 0.265407
O O3 0.851924 0.217736 0.223616
O O4 0.484997 0.156207 0.402770
O O5 0.384481 0.005134 0.513320
O O6 0.869406 0.653330 0.118443
O O7 0.041198 0.799358 0.155452
O O8 0.299432 0.350342 0.126636
O O9 0.272002 0.527573 0.992403
O O10 0.781108 0.253165 0.532559
#
# Coordination Sequence:
#
# PCOD9548794 Si02
#       7
#     4   4   4   8   8   8   4
#     4  12  24  48  70 108 154 204 258 324 392 472
#     4  12  26  45  68 105 160 198 252 310 393 458
#     4  12  22  44  74 102 142 198 256 312 380 456
#     4  12  26  44  72 110 154 206 257 318 384 487
#     4  12  24  45  76 112 149 202 256 327 386 469
#     4  12  25  47  77 111 155 198 266 320 390 467
#     4  12  24  45  68 115 152 198 256 320 393 468
#
# _framework density 22.424144999999999
#
# number of rings (size 3 to 8) (size 9 to 14) (size 15 to 20)
#    0.000    0.000    8.000    1.800    0.000    0.800 
#    0.000    0.000    0.000   16.800    0.000    0.000 
#    0.000    0.000    0.000    0.000    0.000    0.000 
#
# Total GULP energy -223440.171345 kJ/mol
# GULP energy per Si atom -5586.004284 kJ/mol
# Density = 2.237311 g / cm^3
# Si number density = 22.424145 Si / 1000 Ang^3
#
#
#
# Elastic Constant Matrix: (Units=GPa)
#
#
# Indices 1 2 3 4 5 6 
#
# 1 97.6376 62.1233 44.5077 0.0000 0.0000 0.0000
# 2 62.1233 97.6371 44.5079 0.0000 0.0000 0.0000
# 3 44.5077 44.5079 99.9326 0.0000 0.0000 0.0000
# 4 0.0000 0.0000 0.0000 45.8371 0.0000 0.0000
# 5 0.0000 0.0000 0.0000 0.0000 45.8370 0.0000
# 6 0.0000 0.0000 0.0000 0.0000 0.0000 3.7473
#
#
#
# Elastic Compliance Matrix: (Units=1/GPa)
#
#
# Indices 1 2 3 4 5 6 
#
# 1 0.018242 -0.009916 -0.003708 0.000000 0.000000 0.000000
# 2 -0.009916 0.018242 -0.003708 0.000000 0.000000 0.000000
# 3 -0.003708 -0.003708 0.013310 0.000000 0.000000 0.000000
# 4 0.000000 0.000000 0.000000 0.021816 0.000000 0.000000
# 5 0.000000 0.000000 0.000000 0.000000 0.021816 0.000000
# 6 0.000000 0.000000 0.000000 0.000000 0.000000 0.266859
#
#
# Mechanical properties :
#
#
# Convention : Reuss Voigt Hill
#
# Bulk Modulus (GPa) = 66.10002 66.38724 66.24363
# Shear Modulus (GPa) = 12.50024 28.68883 20.59453
#
# Velocity S-wave (km/s) = 2.36359 3.58071 3.03381
# Velocity P-wave (km/s) = 6.08193 6.83848 6.47127
#
# Compressibility (1/GPa) = 0.01512859
#
# Stress axis : x y z
#
# Youngs Moduli (GPa) = 54.81988 54.81942 75.13373
#
# Poissons Ratio (x) = 0.54361 0.27859
# Poissons Ratio (y) = 0.54361 0.27859
# Poissons Ratio (z) = 0.20327 0.20327
#
# Static dielectric constant tensor:
#      x y z
#    x 1.856600 0.000000 0.000000 
#    y 0.000000 1.856600 0.000000 
#    z 0.000000 0.000000 1.924120 
# 
# From -- ./inp_files/11428.got.cif
#   From: 2010.05.17/outbox.cif.g08.bks.cpg/sg91_6_cif.got.tgz:11428.got - 2010.06.03 19:20:03.
