data_PCOD9548691
_publ_section_title
;
Structure prediction by ZEFSAII (Michael W. Deem and Ramdas Pophale) SiO2 
 PCOD9548691
Probable space group: P 41 2 2
;
_chemical_formula_sum "Si O2"
_cell_formula_units_Z 32
_cell_length_a 12.668800
_cell_length_b 12.668800
_cell_length_c 9.727971
_cell_angle_alpha 90.000000
_cell_angle_beta 90.000000
_cell_angle_gamma 90.000000
_cell_volume 1561.324690
_symmetry_space_group_name_H-M "P 41 2 2"
_symmetry_group_IT_number 91
_symmetry_cell_setting 'tetragonal'
loop_
_space_group_symop_operation_xyz
x,y,z
-y,x,1/4+z
-x,-y,1/2+z
y,-x,3/4+z
x,-y,1/2-z
-x,y,-z
y,x,3/4-z
-y,-x,1/4-z
loop_
_atom_site_type_symbol
_atom_site_label
_atom_site_fract_x
_atom_site_fract_y
_atom_site_fract_z
Si Si1 0.722821 0.592072 0.983610
Si Si2 0.724772 0.654771 0.517162
Si Si3 0.053148 0.397914 0.148895
Si Si4 0.733518 0.912898 0.863775
O O1 0.639548 0.639548 0.875000
O O2 0.702608 0.469035 0.003121
O O3 0.836374 0.633847 0.928319
O O4 0.707387 0.643108 0.130766
O O5 0.717857 0.717857 0.375000
O O6 0.832282 0.643906 0.602356
O O7 0.045604 0.500000 0.250000
O O8 0.022610 0.301368 0.249742
O O9 0.000000 0.417016 0.000000
O O10 0.831467 0.831467 0.875000
O O11 0.753932 0.000000 0.750000
#
# Coordination Sequence:
#
# PCOD9548691 Si02
#       4
#     8   8   8   8
#     4  11  22  43  65  92 144 184 229 273 337 401
#     4  12  25  39  63 102 139 184 229 279 330 404
#     4  12  25  42  69 102 137 179 235 288 343 406
#     4  11  24  46  74  97 133 178 220 289 362 412
#
# _framework density 20.495414
#
# number of rings (size 3 to 8) (size 9 to 14) (size 15 to 20)
#    0.000    0.500    7.500    2.250    3.500    3.000 
#    0.000    1.250    0.000    0.000    0.000    0.000 
#    0.000    0.000    0.000    0.000    0.000    0.000 
#
# Total GULP energy -178373.084206 kJ/mol
# GULP energy per Si atom -5574.158881 kJ/mol
# Density = 2.044877 g / cm^3
# Si number density = 20.495414 Si / 1000 Ang^3
#
#
#
# Elastic Constant Matrix: (Units=GPa)
#
#
# Indices 1 2 3 4 5 6 
#
# 1 77.1463 -10.5035 35.2187 0.0000 0.0000 0.0000
# 2 -10.5035 77.1463 35.2187 0.0000 0.0000 0.0000
# 3 35.2187 35.2187 180.1503 0.0000 0.0000 0.0000
# 4 0.0000 0.0000 0.0000 38.3576 0.0000 0.0000
# 5 0.0000 0.0000 0.0000 0.0000 38.3576 0.0000
# 6 0.0000 0.0000 0.0000 0.0000 0.0000 20.1528
#
#
#
# Elastic Compliance Matrix: (Units=1/GPa)
#
#
# Indices 1 2 3 4 5 6 
#
# 1 0.015161 0.003752 -0.003697 0.000000 0.000000 0.000000
# 2 0.003752 0.015161 -0.003697 0.000000 0.000000 0.000000
# 3 -0.003697 -0.003697 0.006997 0.000000 0.000000 0.000000
# 4 0.000000 0.000000 0.000000 0.026070 0.000000 0.000000
# 5 0.000000 0.000000 0.000000 0.000000 0.026070 0.000000
# 6 0.000000 0.000000 0.000000 0.000000 0.000000 0.049621
#
#
# Mechanical properties :
#
#
# Convention : Reuss Voigt Hill
#
# Bulk Modulus (GPa) = 33.29621 50.47894 41.88758
# Shear Modulus (GPa) = 31.97386 37.67419 34.82403
#
# Velocity S-wave (km/s) = 3.95403 4.29205 4.12650
# Velocity P-wave (km/s) = 6.09317 7.01748 6.57160
#
# Compressibility (1/GPa) = 0.03003345
#
# Stress axis : x y z
#
# Youngs Moduli (GPa) = 65.95775 65.95775 142.92637
#
# Poissons Ratio (x) = -0.24749 0.52847
# Poissons Ratio (y) = -0.24749 0.52847
# Poissons Ratio (z) = 0.24388 0.24388
#
# Static dielectric constant tensor:
#      x y z
#    x 1.759830 0.000000 0.000000 
#    y 0.000000 1.759830 0.000000 
#    z 0.000000 0.000000 1.858990 
# 
# From -- ./inp_files/15603.got.cif
#   From: 2010.05.17/outbox.cif.g08.bks.cpg/sg91_8_cif.got.tgz:15603.got - 2010.06.03 19:20:03.
