data_PCOD9548329
_publ_section_title
;
Structure prediction by ZEFSAII (Michael W. Deem and Ramdas Pophale) SiO2 
 PCOD9548329
Probable space group: P 41 2 2
;
_chemical_formula_sum "Si O2"
_cell_formula_units_Z 60
_cell_length_a 17.272445
_cell_length_b 17.272445
_cell_length_c 9.446214
_cell_angle_alpha 90.000000
_cell_angle_beta 90.000000
_cell_angle_gamma 90.000000
_cell_volume 2818.158512
_symmetry_space_group_name_H-M "P 41 2 2"
_symmetry_group_IT_number 91
_symmetry_cell_setting 'tetragonal'
loop_
_space_group_symop_operation_xyz
x,y,z
-y,x,1/4+z
-x,-y,1/2+z
y,-x,3/4+z
x,-y,1/2-z
-x,y,-z
y,x,3/4-z
-y,-x,1/4-z
loop_
_atom_site_type_symbol
_atom_site_label
_atom_site_fract_x
_atom_site_fract_y
_atom_site_fract_z
Si Si1 0.125056 0.716296 0.904923
Si Si2 0.182971 0.444877 0.868849
Si Si3 0.251289 0.429395 0.159316
Si Si4 0.341828 0.106509 0.450643
Si Si5 0.334906 0.037820 0.893236
Si Si6 0.670809 0.716142 0.520829
Si Si7 0.890536 0.843542 0.734473
Si Si8 0.000000 0.910122 0.500000
O O1 0.069527 0.718429 0.769279
O O2 0.211240 0.689678 0.866993
O O3 0.135287 0.802633 0.953761
O O4 0.097223 0.660702 0.031203
O O5 0.148193 0.500000 0.750000
O O6 0.115223 0.382277 0.894680
O O7 0.260744 0.412422 0.791430
O O8 0.210144 0.469198 0.023274
O O9 0.284976 0.500000 0.250000
O O10 0.185225 0.382393 0.246523
O O11 0.310054 0.363946 0.098771
O O12 0.249485 0.106012 0.489841
O O13 0.379132 0.033343 0.530665
O O14 0.303265 0.000000 0.750000
O O15 0.720260 0.720260 0.375000
O O16 0.939823 0.862416 0.596180
O O17 0.899265 0.899265 0.875000
O O18 0.957420 0.957420 0.375000
#
# Coordination Sequence:
#
# PCOD9548329 Si02
#       8
#     8   8   8   8   8   8   8   4
#     4  10  22  41  67  91 124 171 223 283 333 387
#     4  10  23  44  64  94 136 189 224 267 336 408
#     4  11  23  39  66 102 139 168 227 283 336 407
#     4  11  23  41  62  99 132 169 220 280 340 399
#     4  11  23  40  63  91 132 176 228 271 325 403
#     4   9  20  41  67  94 129 171 223 271 322 398
#     4  10  24  43  64  87 123 163 222 278 339 401
#     4  12  28  44  62  86 120 164 218 290 360 412
#
# _framework density 21.290500000000002
#
# number of rings (size 3 to 8) (size 9 to 14) (size 15 to 20)
#    0.000    1.600    2.667    0.800    6.533    1.067 
#    0.000    0.000    0.000    0.000    0.000    8.400 
#    0.000    0.000    0.000    0.000    0.000    0.000 
#
# Total GULP energy -334201.524870 kJ/mol
# GULP energy per Si atom -5570.025414 kJ/mol
# Density = 2.124204 g / cm^3
# Si number density = 21.290500 Si / 1000 Ang^3
#
#
#
# Elastic Constant Matrix: (Units=GPa)
#
#
# Indices 1 2 3 4 5 6 
#
# 1 51.7886 16.2390 37.3834 0.0000 0.0000 0.0000
# 2 16.2390 51.7886 37.3834 0.0000 0.0000 0.0000
# 3 37.3834 37.3834 149.8425 0.0000 0.0000 0.0000
# 4 0.0000 0.0000 0.0000 31.5635 0.0000 0.0000
# 5 0.0000 0.0000 0.0000 0.0000 31.5635 0.0000
# 6 0.0000 0.0000 0.0000 0.0000 0.0000 8.7788
#
#
#
# Elastic Compliance Matrix: (Units=1/GPa)
#
#
# Indices 1 2 3 4 5 6 
#
# 1 0.024192 -0.003938 -0.005053 0.000000 0.000000 0.000000
# 2 -0.003938 0.024192 -0.005053 0.000000 0.000000 0.000000
# 3 -0.005053 -0.005053 0.009195 0.000000 0.000000 0.000000
# 4 0.000000 0.000000 0.000000 0.031682 0.000000 0.000000
# 5 0.000000 0.000000 0.000000 0.000000 0.031682 0.000000
# 6 0.000000 0.000000 0.000000 0.000000 0.000000 0.113911
#
#
# Mechanical properties :
#
#
# Convention : Reuss Voigt Hill
#
# Bulk Modulus (GPa) = 33.90971 48.38124 41.14547
# Shear Modulus (GPa) = 18.33038 25.20876 21.76957
#
# Velocity S-wave (km/s) = 2.93740 3.44472 3.20113
# Velocity P-wave (km/s) = 5.24082 6.21250 5.74723
#
# Compressibility (1/GPa) = 0.02949008
#
# Stress axis : x y z
#
# Youngs Moduli (GPa) = 41.33671 41.33671 108.75581
#
# Poissons Ratio (x) = 0.16279 0.54953
# Poissons Ratio (y) = 0.16279 0.54953
# Poissons Ratio (z) = 0.20887 0.20887
#
# Static dielectric constant tensor:
#      x y z
#    x 1.768670 0.000000 0.000000 
#    y 0.000000 1.768670 0.000000 
#    z 0.000000 0.000000 1.927030 
# 
# From -- ./inp_files/19696.got.cif
#   From: 2010.05.17/outbox.cif.g08.bks.cpg/sg91_10_cif.got.tgz:19696.got - 2010.06.03 19:20:03.
