data_PCOD9548814
_publ_section_title
;
Structure prediction by ZEFSAII (Michael W. Deem and Ramdas Pophale) SiO2 
 PCOD9548814
Probable space group: P 41 2 2
;
_chemical_formula_sum "Si O2"
_cell_formula_units_Z 40
_cell_length_a 17.497067
_cell_length_b 17.497067
_cell_length_c 5.537059
_cell_angle_alpha 90.000000
_cell_angle_beta 90.000000
_cell_angle_gamma 90.000000
_cell_volume 1695.155960
_symmetry_space_group_name_H-M "P 41 2 2"
_symmetry_group_IT_number 91
_symmetry_cell_setting 'tetragonal'
loop_
_space_group_symop_operation_xyz
x,y,z
-y,x,1/4+z
-x,-y,1/2+z
y,-x,3/4+z
x,-y,1/2-z
-x,y,-z
y,x,3/4-z
-y,-x,1/4-z
loop_
_atom_site_type_symbol
_atom_site_label
_atom_site_fract_x
_atom_site_fract_y
_atom_site_fract_z
Si Si1 0.500000 0.383368 0.000000
Si Si2 0.080386 0.080386 0.375000
Si Si3 0.247071 0.752930 0.625000
Si Si4 0.918100 0.236441 0.870311
Si Si5 0.121002 0.542329 0.998869
Si Si6 0.000000 0.338417 0.500000
Si Si7 0.617953 0.272346 0.769977
O O1 0.438025 0.438025 0.875000
O O2 0.547181 0.327396 0.827227
O O3 0.147214 0.086572 0.566437
O O4 0.000000 0.087846 0.500000
O O5 0.165311 0.748744 0.483474
O O6 0.328622 0.753001 0.490957
O O7 0.938062 0.284119 0.630294
O O8 0.000000 0.251558 0.000000
O O9 0.092671 0.500000 0.250000
O O10 0.058176 0.600190 0.885643
O O11 0.146570 0.500000 0.750000
O O12 0.195496 0.586449 0.096553
O O13 0.677517 0.322484 0.625000
#
# Coordination Sequence:
#
# PCOD9548814 Si02
#       7
#     4   4   4   8   8   4   8
#     4  12  26  48  76 110 150 202 268 332 418 494
#     4  12  24  45  70 108 151 204 254 316 382 464
#     4  12  28  49  78 116 161 214 274 336 416 494
#     4  12  27  47  76 114 158 209 268 330 402 486
#     4  12  30  52  82 119 161 214 274 342 419 501
#     4  12  28  50  80 112 160 210 272 338 410 488
#     4  12  28  48  79 113 159 211 270 343 415 504
#
# _framework density 23.596648999999999
#
# number of rings (size 3 to 8) (size 9 to 14) (size 15 to 20)
#    0.000    0.000    3.000    5.400   15.400    0.000 
#    0.000    0.000    0.000    0.000    0.000    0.000 
#    0.000    0.000    0.000    0.000    0.000    0.000 
#
# Total GULP energy -223090.085435 kJ/mol
# GULP energy per Si atom -5577.252136 kJ/mol
# Density = 2.354294 g / cm^3
# Si number density = 23.596649 Si / 1000 Ang^3
#
#
#
# Elastic Constant Matrix: (Units=GPa)
#
#
# Indices 1 2 3 4 5 6 
#
# 1 88.3136 70.1432 10.7727 0.0000 0.0000 0.0000
# 2 70.1432 88.3051 10.7683 0.0000 0.0000 0.0000
# 3 10.7727 10.7683 42.7541 0.0000 0.0000 0.0000
# 4 0.0000 0.0000 0.0000 -27.1979 0.0000 0.0000
# 5 0.0000 0.0000 0.0000 0.0000 -27.2125 0.0000
# 6 0.0000 0.0000 0.0000 0.0000 0.0000 44.9787
#
#
#
# Elastic Compliance Matrix: (Units=1/GPa)
#
#
# Indices 1 2 3 4 5 6 
#
# 1 0.030790 -0.024256 -0.001649 0.000000 0.000000 0.000000
# 2 -0.024256 0.030792 -0.001644 0.000000 0.000000 0.000000
# 3 -0.001649 -0.001644 0.024219 0.000000 0.000000 0.000000
# 4 0.000000 0.000000 0.000000 -0.036768 0.000000 0.000000
# 5 0.000000 0.000000 0.000000 0.000000 -0.036748 0.000000
# 6 0.000000 0.000000 0.000000 0.000000 0.000000 0.022233
#
#
# Mechanical properties :
#
#
# Convention : Reuss Voigt Hill
#
# Bulk Modulus (GPa) = 32.56934 44.74902 38.65918
# Shear Modulus (GPa) = 50.07477 6.62623 28.35050
#
# Velocity S-wave (km/s) = 4.61164 1.67756 3.46997
# Velocity P-wave (km/s) = 6.49529 4.77049 5.69852
#
# Compressibility (1/GPa) = 0.03070372
#
# Stress axis : x y z
#
# Youngs Moduli (GPa) = 32.47810 32.47572 41.28989
#
# Poissons Ratio (x) = 0.78774 0.06808
# Poissons Ratio (y) = 0.78780 0.06787
# Poissons Ratio (z) = 0.05355 0.05338
#
# Static dielectric constant tensor:
#      x y z
#    x 1.904790 0.000000 0.000000 
#    y 0.000000 1.904800 0.000000 
#    z 0.000000 0.000000 2.151640 
# 
# From -- ./inp_files/14126.got.cif
#   From: 2010.05.17/outbox.cif.g08.bks.cpg/sg91_8_cif.got.tgz:14126.got - 2010.06.03 19:20:03.
