data_PCOD9548271
_publ_section_title
;
Structure prediction by ZEFSAII (Michael W. Deem and Ramdas Pophale) SiO2 
 PCOD9548271
Probable space group: P 41 2 2
;
_chemical_formula_sum "Si O2"
_cell_formula_units_Z 56
_cell_length_a 13.717303
_cell_length_b 13.717303
_cell_length_c 16.884827
_cell_angle_alpha 90.000000
_cell_angle_beta 90.000000
_cell_angle_gamma 90.000000
_cell_volume 3177.123368
_symmetry_space_group_name_H-M "P 41 2 2"
_symmetry_group_IT_number 91
_symmetry_cell_setting 'tetragonal'
loop_
_space_group_symop_operation_xyz
x,y,z
-y,x,1/4+z
-x,-y,1/2+z
y,-x,3/4+z
x,-y,1/2-z
-x,y,-z
y,x,3/4-z
-y,-x,1/4-z
loop_
_atom_site_type_symbol
_atom_site_label
_atom_site_fract_x
_atom_site_fract_y
_atom_site_fract_z
Si Si1 0.988251 0.601864 0.698782
Si Si2 0.922369 0.525925 0.062590
Si Si3 0.222962 0.687158 0.344872
Si Si4 0.845706 0.329587 0.308505
Si Si5 0.443847 0.269284 0.739230
Si Si6 0.388863 0.630551 0.029880
Si Si7 0.500000 0.703269 0.500000
Si Si8 0.375336 0.375336 0.875000
O O1 0.972257 0.500000 0.750000
O O2 0.887196 0.657689 0.679734
O O3 0.036520 0.560984 0.617964
O O4 0.065584 0.672008 0.744773
O O5 0.892111 0.612874 0.118650
O O6 0.830869 0.492416 0.012139
O O7 0.000000 0.559651 0.000000
O O8 0.242375 0.783990 0.399537
O O9 0.261899 0.603544 0.404238
O O10 0.291352 0.678475 0.267165
O O11 0.770751 0.408485 0.270770
O O12 0.522984 0.354277 0.744944
O O13 0.369165 0.291332 0.809948
O O14 0.370229 0.629772 0.125000
O O15 0.500000 0.646478 0.000000
O O16 0.526161 0.639717 0.423887
#
# Coordination Sequence:
#
# PCOD9548271 Si02
#       8
#     8   8   8   8   8   8   4   4
#     4  10  22  38  63  84 123 163 204 254 316 363
#     4  11  20  37  59  86 120 158 202 249 300 358
#     4  12  23  40  61  89 122 163 205 266 313 365
#     4  11  21  39  58  86 123 162 208 255 306 371
#     4  12  24  35  56  87 124 166 208 248 289 371
#     4  12  26  39  54  80 128 172 215 241 298 364
#     4  12  20  36  56  82 120 170 210 248 298 360
#     4  12  24  34  52  78 122 168 212 244 292 344
#
# _framework density 17.626007000000001
#
# number of rings (size 3 to 8) (size 9 to 14) (size 15 to 20)
#    0.000    0.571    9.286    0.429    2.000    0.000 
#    0.000    0.000    0.000    0.000    0.000    0.000 
#   12.857    0.000    0.000    0.000    0.000    0.000 
#
# Total GULP energy -312088.851879 kJ/mol
# GULP energy per Si atom -5573.015212 kJ/mol
# Density = 1.758589 g / cm^3
# Si number density = 17.626007 Si / 1000 Ang^3
#
#
#
# Elastic Constant Matrix: (Units=GPa)
#
#
# Indices 1 2 3 4 5 6 
#
# 1 60.8686 33.6529 23.9471 0.0000 0.0000 0.0000
# 2 33.6529 60.8684 23.9470 0.0000 0.0000 0.0000
# 3 23.9471 23.9470 107.2874 0.0000 0.0000 0.0000
# 4 0.0000 0.0000 0.0000 34.9508 0.0000 0.0000
# 5 0.0000 0.0000 0.0000 0.0000 34.9509 0.0000
# 6 0.0000 0.0000 0.0000 0.0000 0.0000 21.1074
#
#
#
# Elastic Compliance Matrix: (Units=1/GPa)
#
#
# Indices 1 2 3 4 5 6 
#
# 1 0.024336 -0.012407 -0.002663 0.000000 0.000000 0.000000
# 2 -0.012407 0.024336 -0.002663 0.000000 0.000000 0.000000
# 3 -0.002663 -0.002663 0.010509 0.000000 0.000000 0.000000
# 4 0.000000 0.000000 0.000000 0.028612 0.000000 0.000000
# 5 0.000000 0.000000 0.000000 0.000000 0.028612 0.000000
# 6 0.000000 0.000000 0.000000 0.000000 0.000000 0.047377
#
#
# Mechanical properties :
#
#
# Convention : Reuss Voigt Hill
#
# Bulk Modulus (GPa) = 42.16451 43.56869 42.86660
# Shear Modulus (GPa) = 24.13684 28.03366 26.08525
#
# Velocity S-wave (km/s) = 3.70454 3.99240 3.85116
# Velocity P-wave (km/s) = 6.50168 6.78413 6.64440
#
# Compressibility (1/GPa) = 0.02371663
#
# Stress axis : x y z
#
# Youngs Moduli (GPa) = 41.09113 41.09101 95.15338
#
# Poissons Ratio (x) = 0.50983 0.25335
# Poissons Ratio (y) = 0.50984 0.25335
# Poissons Ratio (z) = 0.10941 0.10941
#
# Static dielectric constant tensor:
#      x y z
#    x 1.618170 0.000000 0.000000 
#    y 0.000000 1.618170 0.000000 
#    z 0.000000 0.000000 1.657500 
# 
# From -- ./inp_files/16561.got.cif
#   From: 2010.05.17/outbox.cif.g08.bks.cpg/sg91_9_cif.got.tgz:16561.got - 2010.06.03 19:20:03.
