data_PCOD9548256
_publ_section_title
;
Structure prediction by ZEFSAII (Michael W. Deem and Ramdas Pophale) SiO2 
 PCOD9548256
Probable space group: P 41 2 2
;
_chemical_formula_sum "Si O2"
_cell_formula_units_Z 48
_cell_length_a 22.165412
_cell_length_b 22.165412
_cell_length_c 5.419728
_cell_angle_alpha 90.000000
_cell_angle_beta 90.000000
_cell_angle_gamma 90.000000
_cell_volume 2662.742116
_symmetry_space_group_name_H-M "P 41 2 2"
_symmetry_group_IT_number 91
_symmetry_cell_setting 'tetragonal'
loop_
_space_group_symop_operation_xyz
x,y,z
-y,x,1/4+z
-x,-y,1/2+z
y,-x,3/4+z
x,-y,1/2-z
-x,y,-z
y,x,3/4-z
-y,-x,1/4-z
loop_
_atom_site_type_symbol
_atom_site_label
_atom_site_fract_x
_atom_site_fract_y
_atom_site_fract_z
Si Si1 0.299725 0.648907 0.378769
Si Si2 0.149925 0.371956 0.695011
Si Si3 0.311501 0.933321 0.790988
Si Si4 0.537676 0.225698 0.255214
Si Si5 0.810680 0.718420 0.806011
Si Si6 0.061072 0.432903 0.347451
O O1 0.335440 0.664561 0.625000
O O2 0.280656 0.579292 0.400747
O O3 0.238431 0.689794 0.379597
O O4 0.333788 0.666213 0.125000
O O5 0.177210 0.412077 0.913917
O O6 0.193096 0.329781 0.532233
O O7 0.117886 0.419355 0.518098
O O8 0.098643 0.325657 0.783380
O O9 0.283994 0.000000 0.750000
O O10 0.281375 0.879087 0.951661
O O11 0.377946 0.942507 0.906957
O O12 0.500000 0.208525 0.500000
O O13 0.500000 0.237193 0.000000
O O14 0.783342 0.783342 0.875000
O O15 0.065021 0.500000 0.250000
O O16 0.000000 0.429361 0.500000
#
# Coordination Sequence:
#
# PCOD9548256 Si02
#       6
#     8   8   8   8   8   8
#     4  11  22  40  61  85 115 153 201 251 302 363
#     4  11  24  38  52  76 115 149 203 247 300 345
#     4  11  22  37  55  75 109 149 204 247 299 344
#     4  12  25  38  57  88 120 154 196 252 312 359
#     4  10  22  37  60  81 105 147 206 251 306 361
#     4  11  24  36  48  71 102 157 210 252 285 334
#
# _framework density 18.026529
#
# number of rings (size 3 to 8) (size 9 to 14) (size 15 to 20)
#    0.000    1.000    3.333    4.500    4.667    0.000 
#    0.000    0.000    0.000    0.000    0.000    0.000 
#    0.000   18.667    0.000    0.167   44.333    0.000 
#
# Total GULP energy -267833.918615 kJ/mol
# GULP energy per Si atom -5579.873304 kJ/mol
# Density = 1.798550 g / cm^3
# Si number density = 18.026529 Si / 1000 Ang^3
#
#
#
# Elastic Constant Matrix: (Units=GPa)
#
#
# Indices 1 2 3 4 5 6 
#
# 1 80.4645 48.4447 33.8177 0.0000 0.0000 0.0000
# 2 48.4447 80.4663 33.8192 0.0000 0.0000 0.0000
# 3 33.8177 33.8192 96.2869 0.0000 0.0000 0.0000
# 4 0.0000 0.0000 0.0000 24.8955 0.0000 0.0000
# 5 0.0000 0.0000 0.0000 0.0000 24.8951 0.0000
# 6 0.0000 0.0000 0.0000 0.0000 0.0000 23.9212
#
#
#
# Elastic Compliance Matrix: (Units=1/GPa)
#
#
# Indices 1 2 3 4 5 6 
#
# 1 0.020370 -0.010860 -0.003340 0.000000 0.000000 0.000000
# 2 -0.010860 0.020370 -0.003340 0.000000 0.000000 0.000000
# 3 -0.003340 -0.003340 0.012732 0.000000 0.000000 0.000000
# 4 0.000000 0.000000 0.000000 0.040168 0.000000 0.000000
# 5 0.000000 0.000000 0.000000 0.000000 0.040169 0.000000
# 6 0.000000 0.000000 0.000000 0.000000 0.000000 0.041804
#
#
# Mechanical properties :
#
#
# Convention : Reuss Voigt Hill
#
# Bulk Modulus (GPa) = 54.37394 54.37564 54.37479
# Shear Modulus (GPa) = 23.06032 24.15143 23.60588
#
# Velocity S-wave (km/s) = 3.58053 3.66426 3.62264
# Velocity P-wave (km/s) = 6.87913 6.93773 6.90849
#
# Compressibility (1/GPa) = 0.01839116
#
# Stress axis : x y z
#
# Youngs Moduli (GPa) = 49.09195 49.09250 78.54291
#
# Poissons Ratio (x) = 0.53314 0.26233
# Poissons Ratio (y) = 0.53314 0.26236
# Poissons Ratio (z) = 0.16396 0.16398
#
# Static dielectric constant tensor:
#      x y z
#    x 1.691240 0.000000 0.000000 
#    y 0.000000 1.691240 0.000000 
#    z 0.000000 0.000000 1.727780 
# 
# From -- ./inp_files/14361.got.cif
#   From: 2010.05.17/outbox.cif.g08.bks.cpg/sg91_8_cif.got.tgz:14361.got - 2010.06.03 19:20:03.
