data_PCOD9548164
_publ_section_title
;
Structure prediction by ZEFSAII (Michael W. Deem and Ramdas Pophale) SiO2 
 PCOD9548164
Probable space group: P 41 2 2
;
_chemical_formula_sum "Si O2"
_cell_formula_units_Z 40
_cell_length_a 9.130925
_cell_length_b 9.130925
_cell_length_c 23.145098
_cell_angle_alpha 90.000000
_cell_angle_beta 90.000000
_cell_angle_gamma 90.000000
_cell_volume 1929.694572
_symmetry_space_group_name_H-M "P 41 2 2"
_symmetry_group_IT_number 91
_symmetry_cell_setting 'tetragonal'
loop_
_space_group_symop_operation_xyz
x,y,z
-y,x,1/4+z
-x,-y,1/2+z
y,-x,3/4+z
x,-y,1/2-z
-x,y,-z
y,x,3/4-z
-y,-x,1/4-z
loop_
_atom_site_type_symbol
_atom_site_label
_atom_site_fract_x
_atom_site_fract_y
_atom_site_fract_z
Si Si1 0.500000 0.399166 0.000000
Si Si2 0.774784 0.204717 0.969740
Si Si3 0.995695 0.244432 0.610345
Si Si4 0.452402 0.452402 0.375000
Si Si5 0.817771 0.993242 0.424742
Si Si6 0.554356 0.115469 0.358856
O O1 0.361042 0.294403 0.005554
O O2 0.507004 0.485279 0.062047
O O3 0.876755 0.328308 0.942343
O O4 0.737234 0.095667 0.917312
O O5 0.833070 0.103095 0.019364
O O6 0.849588 0.150413 0.625000
O O7 0.962577 0.406498 0.590013
O O8 0.094370 0.144634 0.569172
O O9 0.500746 0.280489 0.375541
O O10 0.901320 0.901320 0.375000
O O11 0.649917 0.033863 0.408364
#
# Coordination Sequence:
#
# PCOD9548164 Si02
#       6
#     4   8   8   4   8   8
#     4  10  22  40  68  98 142 172 230 290 356 414
#     4  10  22  41  65  98 133 175 223 288 341 419
#     4  10  21  40  67  91 133 176 220 277 343 414
#     4  10  22  40  68 106 136 176 234 298 344 418
#     4  10  23  41  65  95 137 176 224 274 345 418
#     4  10  21  42  68  95 134 177 231 280 340 412
#
# _framework density 20.728672
#
# number of rings (size 3 to 8) (size 9 to 14) (size 15 to 20)
#    0.000    2.000    1.000    1.200    1.400    8.800 
#    0.000    2.000    4.400    0.000    0.000    0.000 
#    0.000    0.000    0.000    0.000    0.000    0.000 
#
# Total GULP energy -223167.605738 kJ/mol
# GULP energy per Si atom -5579.190143 kJ/mol
# Density = 2.068149 g / cm^3
# Si number density = 20.728672 Si / 1000 Ang^3
#
#
#
# Elastic Constant Matrix: (Units=GPa)
#
#
# Indices 1 2 3 4 5 6 
#
# 1 100.5676 42.8528 50.0200 0.0000 0.0000 0.0000
# 2 42.8528 100.5666 50.0193 0.0000 0.0000 0.0000
# 3 50.0200 50.0193 122.8266 0.0000 0.0000 0.0000
# 4 0.0000 0.0000 0.0000 1.5110 0.0000 0.0000
# 5 0.0000 0.0000 0.0000 0.0000 1.5111 0.0000
# 6 0.0000 0.0000 0.0000 0.0000 0.0000 -20.5155
#
#
#
# Elastic Compliance Matrix: (Units=1/GPa)
#
#
# Indices 1 2 3 4 5 6 
#
# 1 0.013533 -0.003794 -0.003966 0.000000 0.000000 0.000000
# 2 -0.003794 0.013533 -0.003966 0.000000 0.000000 0.000000
# 3 -0.003966 -0.003966 0.011372 0.000000 0.000000 0.000000
# 4 0.000000 0.000000 0.000000 0.661801 0.000000 0.000000
# 5 0.000000 0.000000 0.000000 0.000000 0.661754 0.000000
# 6 0.000000 0.000000 0.000000 0.000000 0.000000 -0.048744
#
#
# Mechanical properties :
#
#
# Convention : Reuss Voigt Hill
#
# Bulk Modulus (GPa) = 66.73130 67.74945 67.24038
# Shear Modulus (GPa) = 3.72663 8.57257 6.14960
#
# Velocity S-wave (km/s) = 1.34228 2.03583 1.72428
# Velocity P-wave (km/s) = 5.88769 6.18716 6.03929
#
# Compressibility (1/GPa) = 0.01498547
#
# Stress axis : x y z
#
# Youngs Moduli (GPa) = 73.89437 73.89399 87.93643
#
# Poissons Ratio (x) = 0.28034 0.34877
# Poissons Ratio (y) = 0.28035 0.34876
# Poissons Ratio (z) = 0.29307 0.29307
#
# Static dielectric constant tensor:
#      x y z
#    x 1.766670 0.000000 0.000000 
#    y 0.000000 1.766670 0.000000 
#    z 0.000000 0.000000 1.706930 
# 
# From -- ./inp_files/6814.got.cif
#   From: 2010.05.17/outbox.cif.g08.bks.cpg/sg91_4_cif.got.tgz:6814.got - 2010.06.03 19:20:03.
