data_PCOD9548647
_publ_section_title
;
Structure prediction by ZEFSAII (Michael W. Deem and Ramdas Pophale) SiO2 
 PCOD9548647
Probable space group: P 41 2 2
;
_chemical_formula_sum "Si O2"
_cell_formula_units_Z 60
_cell_length_a 17.521122
_cell_length_b 17.521122
_cell_length_c 9.049685
_cell_angle_alpha 90.000000
_cell_angle_beta 90.000000
_cell_angle_gamma 90.000000
_cell_volume 2778.160229
_symmetry_space_group_name_H-M "P 41 2 2"
_symmetry_group_IT_number 91
_symmetry_cell_setting 'tetragonal'
loop_
_space_group_symop_operation_xyz
x,y,z
-y,x,1/4+z
-x,-y,1/2+z
y,-x,3/4+z
x,-y,1/2-z
-x,y,-z
y,x,3/4-z
-y,-x,1/4-z
loop_
_atom_site_type_symbol
_atom_site_label
_atom_site_fract_x
_atom_site_fract_y
_atom_site_fract_z
Si Si1 0.602347 0.925110 0.796677
Si Si2 0.567827 0.772001 0.123510
Si Si3 0.463937 0.219346 0.145199
Si Si4 0.352688 0.068366 0.635218
Si Si5 0.114898 0.114898 0.375000
Si Si6 0.879871 0.754882 0.123701
Si Si7 0.006693 0.812645 0.337937
Si Si8 0.713742 0.307085 0.300819
O O1 0.561581 0.847298 0.755889
O O2 0.680159 0.918283 0.700963
O O3 0.556988 0.000000 0.750000
O O4 0.618108 0.937605 0.967831
O O5 0.527255 0.735259 0.265446
O O6 0.605716 0.852713 0.178156
O O7 0.645060 0.724673 0.096953
O O8 0.500000 0.774784 0.000000
O O9 0.393224 0.269140 0.097036
O O10 0.500000 0.182678 0.000000
O O11 0.260204 0.063783 0.614879
O O12 0.369428 0.000000 0.750000
O O13 0.119105 0.181483 0.496957
O O14 0.129284 0.039049 0.467834
O O15 0.793164 0.736773 0.166618
O O16 0.929565 0.778598 0.266336
O O17 0.000000 0.847893 0.500000
O O18 0.699206 0.300795 0.125000
#
# Coordination Sequence:
#
# PCOD9548647 Si02
#       8
#     8   8   8   8   4   8   8   8
#     4  11  21  41  62  96 143 194 231 286 359 433
#     4  12  26  48  69 106 148 185 240 298 359 432
#     4  11  25  44  67 102 144 186 236 303 359 427
#     4  11  24  40  64 101 150 198 234 283 361 441
#     4  12  22  40  68  98 142 186 246 304 370 394
#     4  11  24  41  68 105 139 187 252 304 358 432
#     4  11  25  42  67 103 149 193 245 311 367 432
#     4  11  26  43  77 103 141 193 244 292 361 440
#
# _framework density 21.597026
#
# number of rings (size 3 to 8) (size 9 to 14) (size 15 to 20)
#    0.000    0.800    5.333    1.200    7.467    1.067 
#    0.000    0.000    0.000    8.800    0.000    0.000 
#    0.000    0.000    0.000    0.000    0.000    0.000 
#
# Total GULP energy -334920.814211 kJ/mol
# GULP energy per Si atom -5582.013570 kJ/mol
# Density = 2.154787 g / cm^3
# Si number density = 21.597026 Si / 1000 Ang^3
#
#
#
# Elastic Constant Matrix: (Units=GPa)
#
#
# Indices 1 2 3 4 5 6 
#
# 1 95.7539 40.8286 41.0490 0.0000 0.0000 0.0000
# 2 40.8286 95.7546 41.0490 0.0000 0.0000 0.0000
# 3 41.0490 41.0490 137.3978 0.0000 0.0000 0.0000
# 4 0.0000 0.0000 0.0000 11.6218 0.0000 0.0000
# 5 0.0000 0.0000 0.0000 0.0000 11.6245 0.0000
# 6 0.0000 0.0000 0.0000 0.0000 0.0000 17.2440
#
#
#
# Elastic Compliance Matrix: (Units=1/GPa)
#
#
# Indices 1 2 3 4 5 6 
#
# 1 0.013565 -0.004641 -0.002666 0.000000 0.000000 0.000000
# 2 -0.004641 0.013565 -0.002666 0.000000 0.000000 0.000000
# 3 -0.002666 -0.002666 0.008871 0.000000 0.000000 0.000000
# 4 0.000000 0.000000 0.000000 0.086045 0.000000 0.000000
# 5 0.000000 0.000000 0.000000 0.000000 0.086026 0.000000
# 6 0.000000 0.000000 0.000000 0.000000 0.000000 0.057991
#
#
# Mechanical properties :
#
#
# Convention : Reuss Voigt Hill
#
# Bulk Modulus (GPa) = 62.28656 63.86217 63.07437
# Shear Modulus (GPa) = 17.16078 21.83004 19.49541
#
# Velocity S-wave (km/s) = 2.82191 3.18274 3.00774
# Velocity P-wave (km/s) = 6.28653 6.56815 6.42888
#
# Compressibility (1/GPa) = 0.01605483
#
# Stress axis : x y z
#
# Youngs Moduli (GPa) = 73.71722 73.71781 112.72377
#
# Poissons Ratio (x) = 0.34213 0.30054
# Poissons Ratio (y) = 0.34213 0.30054
# Poissons Ratio (z) = 0.19655 0.19654
#
# Static dielectric constant tensor:
#      x y z
#    x 1.869950 0.000000 0.000000 
#    y 0.000000 1.869950 0.000000 
#    z 0.000000 0.000000 2.047460 
# 
# From -- ./inp_files/15304.got.cif
#   From: 2010.05.17/outbox.cif.g08.bks.cpg/sg91_8_cif.got.tgz:15304.got - 2010.06.03 19:20:03.
