data_PCOD9548312
_publ_section_title
;
Structure prediction by ZEFSAII (Michael W. Deem and Ramdas Pophale) SiO2 
 PCOD9548312
Probable space group: P 41 2 2
;
_chemical_formula_sum "Si O2"
_cell_formula_units_Z 36
_cell_length_a 9.211023
_cell_length_b 9.211023
_cell_length_c 20.248321
_cell_angle_alpha 90.000000
_cell_angle_beta 90.000000
_cell_angle_gamma 90.000000
_cell_volume 1717.927179
_symmetry_space_group_name_H-M "P 41 2 2"
_symmetry_group_IT_number 91
_symmetry_cell_setting 'tetragonal'
loop_
_space_group_symop_operation_xyz
x,y,z
-y,x,1/4+z
-x,-y,1/2+z
y,-x,3/4+z
x,-y,1/2-z
-x,y,-z
y,x,3/4-z
-y,-x,1/4-z
loop_
_atom_site_type_symbol
_atom_site_label
_atom_site_fract_x
_atom_site_fract_y
_atom_site_fract_z
Si Si1 0.966533 0.893438 0.188966
Si Si2 0.117623 0.630894 0.399655
Si Si3 0.410392 0.512185 0.058383
Si Si4 0.714336 0.799927 0.000612
Si Si5 0.000000 0.406453 0.500000
O O1 0.043886 0.956115 0.125000
O O2 0.055920 0.749260 0.208402
O O3 0.795650 0.895721 0.174893
O O4 0.990636 0.000000 0.250000
O O5 0.264158 0.569812 0.430153
O O6 0.143554 0.648184 0.320344
O O7 0.008307 0.515008 0.435479
O O8 0.498476 0.501525 0.125000
O O9 0.318821 0.377749 0.290798
O O10 0.500000 0.445865 0.000000
O O11 0.862113 0.702238 0.009766
#
# Coordination Sequence:
#
# PCOD9548312 Si02
#       5
#     8   8   8   8   4
#     4  12  22  40  66  98 133 170 219 281 338 402
#     4  11  23  41  65  99 133 171 224 279 348 395
#     4  11  23  44  66  93 132 181 226 275 330 412
#     4  11  22  42  67  95 131 178 224 276 340 406
#     4  10  22  40  66  96 136 172 220 286 342 412
#
# _framework density 20.955487999999999
#
# number of rings (size 3 to 8) (size 9 to 14) (size 15 to 20)
#    0.000    0.889    6.667    0.667    0.000    1.778 
#    4.000    1.111    0.000    0.000    0.000    0.000 
#    0.000    0.000    0.000    0.000    0.000    0.000 
#
# Total GULP energy -200674.456638 kJ/mol
# GULP energy per Si atom -5574.290462 kJ/mol
# Density = 2.090779 g / cm^3
# Si number density = 20.955488 Si / 1000 Ang^3
#
#
#
# Elastic Constant Matrix: (Units=GPa)
#
#
# Indices 1 2 3 4 5 6 
#
# 1 61.9336 -0.3889 20.5771 0.0000 0.0000 0.0000
# 2 -0.3889 61.9335 20.5766 0.0000 0.0000 0.0000
# 3 20.5771 20.5766 149.5165 0.0000 0.0000 0.0000
# 4 0.0000 0.0000 0.0000 47.5044 0.0000 0.0000
# 5 0.0000 0.0000 0.0000 0.0000 47.5042 0.0000
# 6 0.0000 0.0000 0.0000 0.0000 0.0000 17.2560
#
#
#
# Elastic Compliance Matrix: (Units=1/GPa)
#
#
# Indices 1 2 3 4 5 6 
#
# 1 0.016970 0.000925 -0.002463 0.000000 0.000000 0.000000
# 2 0.000925 0.016970 -0.002463 0.000000 0.000000 0.000000
# 3 -0.002463 -0.002463 0.007366 0.000000 0.000000 0.000000
# 4 0.000000 0.000000 0.000000 0.021051 0.000000 0.000000
# 5 0.000000 0.000000 0.000000 0.000000 0.021051 0.000000
# 6 0.000000 0.000000 0.000000 0.000000 0.000000 0.057951
#
#
# Mechanical properties :
#
#
# Convention : Reuss Voigt Hill
#
# Bulk Modulus (GPa) = 30.02522 39.43479 34.73000
# Shear Modulus (GPa) = 31.15994 37.96084 34.56039
#
# Velocity S-wave (km/s) = 3.86029 4.26079 4.06548
# Velocity P-wave (km/s) = 5.85050 6.56239 6.21664
#
# Compressibility (1/GPa) = 0.03330534
#
# Stress axis : x y z
#
# Youngs Moduli (GPa) = 58.92614 58.92625 135.75717
#
# Poissons Ratio (x) = -0.05450 0.33434
# Poissons Ratio (y) = -0.05450 0.33434
# Poissons Ratio (z) = 0.14512 0.14512
#
# Static dielectric constant tensor:
#      x y z
#    x 1.758200 0.000000 0.000000 
#    y 0.000000 1.758200 0.000000 
#    z 0.000000 0.000000 1.807720 
# 
# From -- ./inp_files/12307.got.cif
#   From: 2010.05.17/outbox.cif.g08.bks.cpg/sg91_7_cif.got.tgz:12307.got - 2010.06.03 19:20:03.
