data_PCOD9548223
_publ_section_title
;
Structure prediction by ZEFSAII (Michael W. Deem and Ramdas Pophale) SiO2 
 PCOD9548223
Probable space group: P 41 2 2
;
_chemical_formula_sum "Si O2"
_cell_formula_units_Z 48
_cell_length_a 10.953011
_cell_length_b 10.953011
_cell_length_c 18.583556
_cell_angle_alpha 90.000000
_cell_angle_beta 90.000000
_cell_angle_gamma 90.000000
_cell_volume 2229.440408
_symmetry_space_group_name_H-M "P 41 2 2"
_symmetry_group_IT_number 91
_symmetry_cell_setting 'tetragonal'
loop_
_space_group_symop_operation_xyz
x,y,z
-y,x,1/4+z
-x,-y,1/2+z
y,-x,3/4+z
x,-y,1/2-z
-x,y,-z
y,x,3/4-z
-y,-x,1/4-z
loop_
_atom_site_type_symbol
_atom_site_label
_atom_site_fract_x
_atom_site_fract_y
_atom_site_fract_z
Si Si1 0.000000 0.476447 0.000000
Si Si2 0.675138 0.236119 0.913744
Si Si3 0.261466 0.261466 0.375000
Si Si4 0.267647 0.578732 0.990153
Si Si5 0.025295 0.261874 0.276366
Si Si6 0.051829 0.288038 0.108343
Si Si7 0.081900 0.000000 0.750000
Si Si8 0.408542 0.500000 0.750000
O O1 0.980204 0.397769 0.072047
O O2 0.869917 0.537952 0.990001
O O3 0.661043 0.241583 0.828700
O O4 0.676146 0.100219 0.946496
O O5 0.811700 0.287564 0.925844
O O6 0.566785 0.318592 0.944135
O O7 0.346847 0.302503 0.310153
O O8 0.127541 0.274899 0.338207
O O9 0.382629 0.488959 0.974554
O O10 0.055714 0.301195 0.194246
O O11 0.998321 0.118378 0.264573
O O12 0.991490 0.168328 0.071063
#
# Coordination Sequence:
#
# PCOD9548223 Si02
#       8
#     4   8   4   8   8   8   4   4
#     4  11  24  45  74 102 150 189 241 326 370 448
#     4  11  25  48  71 107 143 189 257 309 374 463
#     4  12  28  46  74 106 152 204 242 310 374 468
#     4  12  27  49  72 105 148 199 255 307 383 452
#     4  11  24  43  73 109 148 193 244 301 379 454
#     4  10  21  45  66 107 146 185 242 306 384 445
#     4   9  22  37  70 104 148 191 227 302 374 456
#     4  12  28  50  76 104 140 198 254 322 388 454
#
# _framework density 21.530063999999999
#
# number of rings (size 3 to 8) (size 9 to 14) (size 15 to 20)
#    0.000    1.000    3.333    2.000    9.333    0.667 
#    0.000    0.000    0.000    0.000    0.000    0.000 
#    0.000    0.000    0.000    0.000    0.000    0.000 
#
# Total GULP energy -267568.157437 kJ/mol
# GULP energy per Si atom -5574.336613 kJ/mol
# Density = 2.148106 g / cm^3
# Si number density = 21.530064 Si / 1000 Ang^3
#
#
#
# Elastic Constant Matrix: (Units=GPa)
#
#
# Indices 1 2 3 4 5 6 
#
# 1 61.7203 45.6027 23.8202 0.0000 0.0000 0.0000
# 2 45.6027 61.7203 23.8202 0.0000 0.0000 0.0000
# 3 23.8202 23.8202 135.4477 0.0000 0.0000 0.0000
# 4 0.0000 0.0000 0.0000 75.3363 0.0000 0.0000
# 5 0.0000 0.0000 0.0000 0.0000 75.3363 0.0000
# 6 0.0000 0.0000 0.0000 0.0000 0.0000 17.1233
#
#
#
# Elastic Compliance Matrix: (Units=1/GPa)
#
#
# Indices 1 2 3 4 5 6 
#
# 1 0.036075 -0.025969 -0.001777 0.000000 0.000000 0.000000
# 2 -0.025969 0.036075 -0.001777 0.000000 0.000000 0.000000
# 3 -0.001777 -0.001777 0.008008 0.000000 0.000000 0.000000
# 4 0.000000 0.000000 0.000000 0.013274 0.000000 0.000000
# 5 0.000000 0.000000 0.000000 0.000000 0.013274 0.000000
# 6 0.000000 0.000000 0.000000 0.000000 0.000000 0.058400
#
#
# Mechanical properties :
#
#
# Convention : Reuss Voigt Hill
#
# Bulk Modulus (GPa) = 47.36683 49.48607 48.42645
# Shear Modulus (GPa) = 21.62717 44.60218 33.11468
#
# Velocity S-wave (km/s) = 3.17284 4.55645 3.92607
# Velocity P-wave (km/s) = 5.95572 7.12153 6.56456
#
# Compressibility (1/GPa) = 0.02111182
#
# Stress axis : x y z
#
# Youngs Moduli (GPa) = 27.71974 27.71974 124.87391
#
# Poissons Ratio (x) = 0.71985 0.22195
# Poissons Ratio (y) = 0.71985 0.22195
# Poissons Ratio (z) = 0.04927 0.04927
#
# Static dielectric constant tensor:
#      x y z
#    x 1.697510 0.000000 0.000000 
#    y 0.000000 1.697510 0.000000 
#    z 0.000000 0.000000 1.725100 
# 
# From -- ./inp_files/16959.got.cif
#   From: 2010.05.17/outbox.cif.g08.bks.cpg/sg91_9_cif.got.tgz:16959.got - 2010.06.03 19:20:03.
