data_PCOD9548242
_publ_section_title
;
Structure prediction by ZEFSAII (Michael W. Deem and Ramdas Pophale) SiO2 
 PCOD9548242
Probable space group: P 41 2 2
;
_chemical_formula_sum "Si O2"
_cell_formula_units_Z 36
_cell_length_a 9.699337
_cell_length_b 9.699337
_cell_length_c 16.652818
_cell_angle_alpha 90.000000
_cell_angle_beta 90.000000
_cell_angle_gamma 90.000000
_cell_volume 1566.649461
_symmetry_space_group_name_H-M "P 41 2 2"
_symmetry_group_IT_number 91
_symmetry_cell_setting 'tetragonal'
loop_
_space_group_symop_operation_xyz
x,y,z
-y,x,1/4+z
-x,-y,1/2+z
y,-x,3/4+z
x,-y,1/2-z
-x,y,-z
y,x,3/4-z
-y,-x,1/4-z
loop_
_atom_site_type_symbol
_atom_site_label
_atom_site_fract_x
_atom_site_fract_y
_atom_site_fract_z
Si Si1 0.953658 0.822234 0.153999
Si Si2 0.542790 0.964415 0.834361
Si Si3 0.901458 0.300796 0.808541
Si Si4 0.533988 0.466012 0.125000
Si Si5 0.315375 0.409555 0.496478
O O1 0.067680 0.932321 0.125000
O O2 0.953766 0.682461 0.100820
O O3 0.004091 0.773837 0.241774
O O4 0.803712 0.882618 0.133798
O O5 0.439875 0.966969 0.907726
O O6 0.594903 0.812795 0.812992
O O7 0.471930 0.000000 0.750000
O O8 0.749793 0.338264 0.772256
O O9 0.677266 0.501261 0.079919
O O10 0.494465 0.579478 0.190891
#
# Coordination Sequence:
#
# PCOD9548242 Si02
#       5
#     8   8   8   4   8
#     4  12  24  46  73 102 135 185 243 289 345 433
#     4  12  24  44  68 101 139 181 239 292 354 424
#     4  12  26  43  71 103 137 181 236 297 353 420
#     4  10  22  34  66  94 134 166 224 284 342 406
#     4  11  20  40  61  98 128 174 223 281 342 413
#
# _framework density 22.978975999999999
#
# number of rings (size 3 to 8) (size 9 to 14) (size 15 to 20)
#    0.000    0.444    6.667    2.667    3.111    1.778 
#    4.000    0.000    0.000    0.000    0.000    0.000 
#    0.000    0.000    0.000    0.000    0.000    0.000 
#
# Total GULP energy -200725.163489 kJ/mol
# GULP energy per Si atom -5575.698986 kJ/mol
# Density = 2.292667 g / cm^3
# Si number density = 22.978976 Si / 1000 Ang^3
#
#
#
# Elastic Constant Matrix: (Units=GPa)
#
#
# Indices 1 2 3 4 5 6 
#
# 1 51.5562 4.5513 6.1876 0.0000 0.0000 0.0000
# 2 4.5513 51.5563 6.1868 0.0000 0.0000 0.0000
# 3 6.1876 6.1868 87.3444 0.0000 0.0000 0.0000
# 4 0.0000 0.0000 0.0000 31.3921 0.0000 0.0000
# 5 0.0000 0.0000 0.0000 0.0000 31.3920 0.0000
# 6 0.0000 0.0000 0.0000 0.0000 0.0000 16.0297
#
#
#
# Elastic Compliance Matrix: (Units=1/GPa)
#
#
# Indices 1 2 3 4 5 6 
#
# 1 0.019690 -0.001584 -0.001283 0.000000 0.000000 0.000000
# 2 -0.001584 0.019690 -0.001282 0.000000 0.000000 0.000000
# 3 -0.001283 -0.001282 0.011631 0.000000 0.000000 0.000000
# 4 0.000000 0.000000 0.000000 0.031855 0.000000 0.000000
# 5 0.000000 0.000000 0.000000 0.000000 0.031855 0.000000
# 6 0.000000 0.000000 0.000000 0.000000 0.000000 0.062384
#
#
# Mechanical properties :
#
#
# Convention : Reuss Voigt Hill
#
# Bulk Modulus (GPa) = 23.41262 24.92313 24.16788
# Shear Modulus (GPa) = 25.04490 27.33150 26.18820
#
# Velocity S-wave (km/s) = 3.30495 3.45253 3.37955
# Velocity P-wave (km/s) = 4.97739 5.17328 5.07628
#
# Compressibility (1/GPa) = 0.04271200
#
# Stress axis : x y z
#
# Youngs Moduli (GPa) = 50.78691 50.78715 85.97981
#
# Poissons Ratio (x) = 0.08046 0.11028
# Poissons Ratio (y) = 0.08046 0.11027
# Poissons Ratio (z) = 0.06514 0.06513
#
# Static dielectric constant tensor:
#      x y z
#    x 1.919260 0.000000 0.000000 
#    y 0.000000 1.919270 0.000000 
#    z 0.000000 0.000000 1.928750 
# 
# From -- ./inp_files/11287.got.cif
#   From: 2010.05.17/outbox.cif.g08.bks.cpg/sg91_6_cif.got.tgz:11287.got - 2010.06.03 19:20:03.
