data_PCOD9548364
_publ_section_title
;
Structure prediction by ZEFSAII (Michael W. Deem and Ramdas Pophale) SiO2 
 PCOD9548364
Probable space group: P 41 2 2
;
_chemical_formula_sum "Si O2"
_cell_formula_units_Z 24
_cell_length_a 14.265622
_cell_length_b 14.265622
_cell_length_c 5.321132
_cell_angle_alpha 90.000000
_cell_angle_beta 90.000000
_cell_angle_gamma 90.000000
_cell_volume 1082.892777
_symmetry_space_group_name_H-M "P 41 2 2"
_symmetry_group_IT_number 91
_symmetry_cell_setting 'tetragonal'
loop_
_space_group_symop_operation_xyz
x,y,z
-y,x,1/4+z
-x,-y,1/2+z
y,-x,3/4+z
x,-y,1/2-z
-x,y,-z
y,x,3/4-z
-y,-x,1/4-z
loop_
_atom_site_type_symbol
_atom_site_label
_atom_site_fract_x
_atom_site_fract_y
_atom_site_fract_z
Si Si1 0.645513 0.500000 0.250000
Si Si2 0.500000 0.764978 0.000000
Si Si3 0.664650 0.094320 0.366100
Si Si4 0.191905 0.000000 0.250000
Si Si5 0.150588 0.150588 0.875000
O O1 0.579719 0.579719 0.375000
O O2 0.706978 0.473858 0.496396
O O3 0.411921 0.831052 0.939951
O O4 0.739599 0.136895 0.173897
O O5 0.620179 0.000000 0.250000
O O6 0.736225 0.060067 0.580116
O O7 0.132571 0.924887 0.407090
#
# Coordination Sequence:
#
# PCOD9548364 Si02
#       5
#     4   4   8   4   4
#     4  12  29  53  74 110 156 196 248 323 379 458
#     4  12  29  45  84 114 146 206 254 305 389 458
#     4  10  25  44  74 107 153 189 248 312 373 443
#     4  10  22  42  74 100 152 192 244 312 362 446
#     4  10  22  44  70 106 148 194 240 310 366 440
#
# _framework density 22.162862000000001
#
# number of rings (size 3 to 8) (size 9 to 14) (size 15 to 20)
#    0.000    1.333    0.000    3.000   14.000    2.667 
#    0.000    0.000  132.000    0.000    0.000    0.000 
#    0.000    0.000    0.000    0.000    0.000    0.000 
#
# Total GULP energy -134027.766933 kJ/mol
# GULP energy per Si atom -5584.490289 kJ/mol
# Density = 2.211242 g / cm^3
# Si number density = 22.162862 Si / 1000 Ang^3
#
#
#
# Elastic Constant Matrix: (Units=GPa)
#
#
# Indices 1 2 3 4 5 6 
#
# 1 122.1855 81.5068 63.1077 0.0000 0.0000 0.0000
# 2 81.5068 122.1855 63.1077 0.0000 0.0000 0.0000
# 3 63.1077 63.1077 136.2674 0.0000 0.0000 0.0000
# 4 0.0000 0.0000 0.0000 35.4661 0.0000 0.0000
# 5 0.0000 0.0000 0.0000 0.0000 35.4661 0.0000
# 6 0.0000 0.0000 0.0000 0.0000 0.0000 7.4573
#
#
#
# Elastic Compliance Matrix: (Units=1/GPa)
#
#
# Indices 1 2 3 4 5 6 
#
# 1 0.015734 -0.008849 -0.003189 0.000000 0.000000 0.000000
# 2 -0.008849 0.015734 -0.003189 0.000000 0.000000 0.000000
# 3 -0.003189 -0.003189 0.010292 0.000000 0.000000 0.000000
# 4 0.000000 0.000000 0.000000 0.028196 0.000000 0.000000
# 5 0.000000 0.000000 0.000000 0.000000 0.028196 0.000000
# 6 0.000000 0.000000 0.000000 0.000000 0.000000 0.134097
#
#
# Mechanical properties :
#
#
# Convention : Reuss Voigt Hill
#
# Bulk Modulus (GPa) = 88.43513 88.45364 88.44438
# Shear Modulus (GPa) = 18.76384 27.20566 22.98475
#
# Velocity S-wave (km/s) = 2.91285 3.50742 3.22387
# Velocity P-wave (km/s) = 7.16254 7.51000 7.33832
#
# Compressibility (1/GPa) = 0.01130772
#
# Stress axis : x y z
#
# Youngs Moduli (GPa) = 63.55660 63.55660 97.16346
#
# Poissons Ratio (x) = 0.56240 0.30982
# Poissons Ratio (y) = 0.56240 0.30982
# Poissons Ratio (z) = 0.20266 0.20266
#
# Static dielectric constant tensor:
#      x y z
#    x 1.790760 0.000000 0.000000 
#    y 0.000000 1.790760 0.000000 
#    z 0.000000 0.000000 1.971420 
# 
# From -- ./inp_files/333.got.cif
#   From: 2010.05.17/outbox.cif.g08.bks.cpg/sg91_1_cif.got.tgz:333.got - 2010.06.03 19:20:03.
