data_PCOD9548955
_publ_section_title
;
Structure prediction by ZEFSAII (Michael W. Deem and Ramdas Pophale) SiO2 
 PCOD9548955
Probable space group: P 41 21 2
;
_chemical_formula_sum "Si O2"
_cell_formula_units_Z 52
_cell_length_a 16.902689
_cell_length_b 16.902689
_cell_length_c 8.741367
_cell_angle_alpha 90.000000
_cell_angle_beta 90.000000
_cell_angle_gamma 90.000000
_cell_volume 2497.416379
_symmetry_space_group_name_H-M "P 41 21 2"
_symmetry_group_IT_number 92
_symmetry_cell_setting 'tetragonal'
loop_
_space_group_symop_operation_xyz
x,y,z
1/2-y,1/2+x,1/4+z
-x,-y,1/2+z
1/2+y,1/2-x,3/4+z
1/2+x,1/2-y,3/4-z
1/2-x,1/2+y,1/4-z
y,x,-z
-y,-x,1/2-z
loop_
_atom_site_type_symbol
_atom_site_label
_atom_site_fract_x
_atom_site_fract_y
_atom_site_fract_z
Si Si1 0.725364 0.169625 0.632564
Si Si2 0.099174 0.226627 0.012092
Si Si3 0.851913 0.022942 0.073937
Si Si4 0.653666 0.346335 0.250000
Si Si5 0.880592 0.688075 0.186205
Si Si6 0.676269 0.572155 0.843025
Si Si7 0.551119 0.797763 0.643497
O O1 0.780334 0.219667 0.750000
O O2 0.648030 0.223703 0.609991
O O3 0.776646 0.143706 0.487443
O O4 0.698362 0.093815 0.730046
O O5 0.108920 0.272808 0.853210
O O6 0.143361 0.143361 0.000000
O O7 0.008053 0.215145 0.037466
O O8 0.925159 0.082641 0.048280
O O9 0.817060 0.064785 0.224865
O O10 0.856847 0.928428 0.099013
O O11 0.793614 0.033692 0.931956
O O12 0.738377 0.349530 0.334669
O O13 0.829839 0.610540 0.226677
O O14 0.965212 0.663017 0.116544
#
# Coordination Sequence:
#
# PCOD9548955 Si02
#       7
#     8   8   8   4   8   8   8
#     4  10  19  37  60  85 119 166 219 260 316 390
#     4  10  21  35  60  94 122 166 218 260 324 392
#     4  10  23  38  59  91 133 164 215 256 341 384
#     4  10  22  42  58 100 134 168 210 282 330 412
#     4  10  21  39  68  89 129 169 222 271 328 398
#     4  11  21  38  58  91 126 169 209 273 316 402
#     4  10  20  40  62  93 117 174 213 267 326 386
#
# _framework density 20.821518999999999
#
# number of rings (size 3 to 8) (size 9 to 14) (size 15 to 20)
#    0.000    1.846    3.077    0.923    1.077    1.231 
#    5.538    0.000    6.769    0.000    0.000    0.000 
#    0.000    0.000    0.000    0.000    0.000    0.000 
#
# Total GULP energy -289809.187218 kJ/mol
# GULP energy per Si atom -5573.253600 kJ/mol
# Density = 2.077413 g / cm^3
# Si number density = 20.821519 Si / 1000 Ang^3
#
#
#
# Elastic Constant Matrix: (Units=GPa)
#
#
# Indices 1 2 3 4 5 6 
#
# 1 80.3586 48.1833 21.3203 0.0000 0.0000 0.0000
# 2 48.1833 80.3601 21.3207 0.0000 0.0000 0.0000
# 3 21.3203 21.3207 45.1526 0.0000 0.0000 0.0000
# 4 0.0000 0.0000 0.0000 27.9112 0.0000 0.0000
# 5 0.0000 0.0000 0.0000 0.0000 27.9116 0.0000
# 6 0.0000 0.0000 0.0000 0.0000 0.0000 29.8127
#
#
#
# Elastic Compliance Matrix: (Units=1/GPa)
#
#
# Indices 1 2 3 4 5 6 
#
# 1 0.020152 -0.010927 -0.004356 0.000000 0.000000 0.000000
# 2 -0.010927 0.020152 -0.004356 0.000000 0.000000 0.000000
# 3 -0.004356 -0.004356 0.026260 0.000000 0.000000 0.000000
# 4 0.000000 0.000000 0.000000 0.035828 0.000000 0.000000
# 5 0.000000 0.000000 0.000000 0.000000 0.035827 0.000000
# 6 0.000000 0.000000 0.000000 0.000000 0.000000 0.033543
#
#
# Mechanical properties :
#
#
# Convention : Reuss Voigt Hill
#
# Bulk Modulus (GPa) = 36.64790 43.05776 39.85283
# Shear Modulus (GPa) = 22.71337 24.79690 23.75513
#
# Velocity S-wave (km/s) = 3.30640 3.45472 3.38138
# Velocity P-wave (km/s) = 5.67588 6.05292 5.86743
#
# Compressibility (1/GPa) = 0.02728669
#
# Stress axis : x y z
#
# Youngs Moduli (GPa) = 49.62323 49.62397 38.08005
#
# Poissons Ratio (x) = 0.54226 0.16586
# Poissons Ratio (y) = 0.54225 0.16587
# Poissons Ratio (z) = 0.21614 0.21615
#
# Static dielectric constant tensor:
#      x y z
#    x 1.787960 0.000000 0.000000 
#    y 0.000000 1.787960 0.000000 
#    z 0.000000 0.000000 1.785600 
# 
# From -- ./inp_files/1593.got.cif
#   From: 2010.05.17/outbox.cif.g08.bks.cpg/sg92_1_cif.got.tgz:1593.got - 2010.06.03 19:35:17.
