data_PCOD9548409
_publ_section_title
;
Structure prediction by ZEFSAII (Michael W. Deem and Ramdas Pophale) SiO2 
 PCOD9548409
Probable space group: P 41 2 2
;
_chemical_formula_sum "Si O2"
_cell_formula_units_Z 40
_cell_length_a 16.710795
_cell_length_b 16.710795
_cell_length_c 6.565601
_cell_angle_alpha 90.000000
_cell_angle_beta 90.000000
_cell_angle_gamma 90.000000
_cell_volume 1833.448475
_symmetry_space_group_name_H-M "P 41 2 2"
_symmetry_group_IT_number 91
_symmetry_cell_setting 'tetragonal'
loop_
_space_group_symop_operation_xyz
x,y,z
-y,x,1/4+z
-x,-y,1/2+z
y,-x,3/4+z
x,-y,1/2-z
-x,y,-z
y,x,3/4-z
-y,-x,1/4-z
loop_
_atom_site_type_symbol
_atom_site_label
_atom_site_fract_x
_atom_site_fract_y
_atom_site_fract_z
Si Si1 0.393205 0.000000 0.750000
Si Si2 0.392452 0.255883 0.185932
Si Si3 0.265458 0.958298 0.062912
Si Si4 0.774468 0.225532 0.625000
Si Si5 0.500000 0.879030 0.500000
Si Si6 0.349184 0.500000 0.250000
Si Si7 0.601809 0.601809 0.375000
Si Si8 0.000000 0.117100 0.500000
O O1 0.330675 0.044686 0.607713
O O2 0.446977 0.064562 0.860228
O O3 0.298062 0.240671 0.215929
O O4 0.431268 0.296049 0.389460
O O5 0.441915 0.176712 0.134548
O O6 0.404767 0.314691 0.994389
O O7 0.234737 0.867944 0.075556
O O8 0.311518 0.000000 0.250000
O O9 0.185435 0.015780 0.072289
O O10 0.397434 0.538358 0.439558
O O11 0.060106 0.060106 0.375000
#
# Coordination Sequence:
#
# PCOD9548409 Si02
#       8
#     4   8   8   4   4   4   4   4
#     4  12  30  48  78 110 164 206 264 332 419 489
#     4  12  27  46  79 111 150 207 274 326 413 487
#     4  10  24  51  71 118 153 202 265 324 398 485
#     4  12  24  46  82 107 153 206 262 338 382 496
#     4  12  30  49  74 115 154 218 260 344 420 493
#     4  12  24  49  78 111 160 196 278 326 408 491
#     4  12  24  50  78 115 143 208 268 334 406 492
#     4  10  22  46  74 112 162 204 258 324 403 485
#
# _framework density 21.816813
#
# number of rings (size 3 to 8) (size 9 to 14) (size 15 to 20)
#    0.600    0.000    5.000    1.200    9.800    0.800 
#    0.000    2.000   30.800    0.000    0.000    0.000 
#    0.000    0.000    0.000    0.000    0.000    0.000 
#
# Total GULP energy -222786.575958 kJ/mol
# GULP energy per Si atom -5569.664399 kJ/mol
# Density = 2.176716 g / cm^3
# Si number density = 21.816813 Si / 1000 Ang^3
#
#
#
# Elastic Constant Matrix: (Units=GPa)
#
#
# Indices 1 2 3 4 5 6 
#
# 1 150.7336 80.6482 77.4269 0.0000 0.0000 0.0000
# 2 80.6482 150.7322 77.4273 0.0000 0.0000 0.0000
# 3 77.4269 77.4273 119.1421 0.0000 0.0000 0.0000
# 4 0.0000 0.0000 0.0000 35.9607 0.0000 0.0000
# 5 0.0000 0.0000 0.0000 0.0000 35.9598 0.0000
# 6 0.0000 0.0000 0.0000 0.0000 0.0000 37.8412
#
#
#
# Elastic Compliance Matrix: (Units=1/GPa)
#
#
# Indices 1 2 3 4 5 6 
#
# 1 0.010958 -0.003310 -0.004970 0.000000 0.000000 0.000000
# 2 -0.003310 0.010959 -0.004971 0.000000 0.000000 0.000000
# 3 -0.004970 -0.004971 0.014854 0.000000 0.000000 0.000000
# 4 0.000000 0.000000 0.000000 0.027808 0.000000 0.000000
# 5 0.000000 0.000000 0.000000 0.000000 0.027809 0.000000
# 6 0.000000 0.000000 0.000000 0.000000 0.000000 0.026426
#
#
# Mechanical properties :
#
#
# Convention : Reuss Voigt Hill
#
# Bulk Modulus (GPa) = 97.38448 99.06807 98.22627
# Shear Modulus (GPa) = 33.61600 34.29270 33.95435
#
# Velocity S-wave (km/s) = 3.92960 3.96895 3.94933
# Velocity P-wave (km/s) = 8.08228 8.15543 8.11894
#
# Compressibility (1/GPa) = 0.01026858
#
# Stress axis : x y z
#
# Youngs Moduli (GPa) = 91.25470 91.25299 67.32325
#
# Poissons Ratio (x) = 0.30205 0.33462
# Poissons Ratio (y) = 0.30205 0.33464
# Poissons Ratio (z) = 0.45357 0.45358
#
# Static dielectric constant tensor:
#      x y z
#    x 1.811040 0.000000 0.000000 
#    y 0.000000 1.811040 0.000000 
#    z 0.000000 0.000000 1.765080 
# 
# From -- ./inp_files/973.got.cif
#   From: 2010.05.17/outbox.cif.g08.bks.cpg/sg91_1_cif.got.tgz:973.got - 2010.06.03 19:20:03.
