data_PCOD9548261
_publ_section_title
;
Structure prediction by ZEFSAII (Michael W. Deem and Ramdas Pophale) SiO2 
 PCOD9548261
Probable space group: P 41 2 2
;
_chemical_formula_sum "Si O2"
_cell_formula_units_Z 52
_cell_length_a 20.992325
_cell_length_b 20.992325
_cell_length_c 5.724737
_cell_angle_alpha 90.000000
_cell_angle_beta 90.000000
_cell_angle_gamma 90.000000
_cell_volume 2522.763985
_symmetry_space_group_name_H-M "P 41 2 2"
_symmetry_group_IT_number 91
_symmetry_cell_setting 'tetragonal'
loop_
_space_group_symop_operation_xyz
x,y,z
-y,x,1/4+z
-x,-y,1/2+z
y,-x,3/4+z
x,-y,1/2-z
-x,y,-z
y,x,3/4-z
-y,-x,1/4-z
loop_
_atom_site_type_symbol
_atom_site_label
_atom_site_fract_x
_atom_site_fract_y
_atom_site_fract_z
Si Si1 0.808344 0.438708 0.843015
Si Si2 0.344424 0.095228 0.702110
Si Si3 0.166462 0.166462 0.375000
Si Si4 0.194708 0.282106 0.709150
Si Si5 0.500000 0.732432 0.500000
Si Si6 0.460146 0.000000 0.750000
Si Si7 0.964469 0.780936 0.744370
Si Si8 0.614091 0.708395 0.753056
O O1 0.845950 0.500000 0.750000
O O2 0.846404 0.374196 0.810466
O O3 0.746147 0.428043 0.690504
O O4 0.782807 0.459725 0.092350
O O5 0.408595 0.057721 0.771205
O O6 0.293106 0.055490 0.555457
O O7 0.309905 0.132125 0.913353
O O8 0.170334 0.229984 0.528588
O O9 0.098899 0.175490 0.250248
O O10 0.240669 0.336877 0.609238
O O11 0.240720 0.240720 0.875000
O O12 0.558216 0.688151 0.580498
O O13 0.500000 0.002022 0.500000
O O14 0.000000 0.798009 0.500000
O O15 0.000000 0.785893 0.000000
O O16 0.654480 0.654480 0.875000
#
# Coordination Sequence:
#
# PCOD9548261 Si02
#       8
#     8   8   4   8   4   4   8   8
#     4  10  22  39  59  89 130 179 233 282 353 425
#     4  12  24  45  69  96 145 193 249 312 357 433
#     4  12  26  44  76 108 148 188 246 312 384 460
#     4  12  23  40  70 108 140 183 239 314 386 439
#     4  10  22  38  58  88 138 178 222 290 374 438
#     4  12  32  48  68 100 146 220 280 300 346 440
#     4  12  28  49  75 112 152 193 244 311 384 450
#     4  11  22  37  62  97 133 173 230 298 369 445
#
# _framework density 20.612311999999999
#
# number of rings (size 3 to 8) (size 9 to 14) (size 15 to 20)
#    0.000    0.615    4.615    3.231    2.154    1.231 
#    0.000    0.000    0.000    0.923    0.000    0.000 
#   83.077    0.000    0.000    0.000    0.000    0.000 
#
# Total GULP energy -289663.140770 kJ/mol
# GULP energy per Si atom -5570.445015 kJ/mol
# Density = 2.056540 g / cm^3
# Si number density = 20.612312 Si / 1000 Ang^3
#
#
#
# Elastic Constant Matrix: (Units=GPa)
#
#
# Indices 1 2 3 4 5 6 
#
# 1 103.0038 45.7881 44.6786 0.0000 0.0000 0.0000
# 2 45.7881 103.0038 44.6786 0.0000 0.0000 0.0000
# 3 44.6786 44.6786 80.7902 0.0000 0.0000 0.0000
# 4 0.0000 0.0000 0.0000 12.9561 0.0000 0.0000
# 5 0.0000 0.0000 0.0000 0.0000 12.9561 0.0000
# 6 0.0000 0.0000 0.0000 0.0000 0.0000 45.6050
#
#
#
# Elastic Compliance Matrix: (Units=1/GPa)
#
#
# Indices 1 2 3 4 5 6 
#
# 1 0.013770 -0.003707 -0.005565 0.000000 0.000000 0.000000
# 2 -0.003707 0.013770 -0.005565 0.000000 0.000000 0.000000
# 3 -0.005565 -0.005565 0.018533 0.000000 0.000000 0.000000
# 4 0.000000 0.000000 0.000000 0.077184 0.000000 0.000000
# 5 0.000000 0.000000 0.000000 0.000000 0.077184 0.000000
# 6 0.000000 0.000000 0.000000 0.000000 0.000000 0.021927
#
#
# Mechanical properties :
#
#
# Convention : Reuss Voigt Hill
#
# Bulk Modulus (GPa) = 60.98055 61.89870 61.43963
# Shear Modulus (GPa) = 19.41677 24.41360 21.91518
#
# Velocity S-wave (km/s) = 3.07253 3.44527 3.26422
# Velocity P-wave (km/s) = 6.49892 6.77655 6.63919
#
# Compressibility (1/GPa) = 0.01639867
#
# Stress axis : x y z
#
# Youngs Moduli (GPa) = 72.62022 72.62022 53.95841
#
# Poissons Ratio (x) = 0.26924 0.30028
# Poissons Ratio (y) = 0.26924 0.30028
# Poissons Ratio (z) = 0.40413 0.40413
#
# Static dielectric constant tensor:
#      x y z
#    x 2.042090 0.000000 0.000000 
#    y 0.000000 2.042090 0.000000 
#    z 0.000000 0.000000 1.930930 
# 
# From -- ./inp_files/1385.got.cif
#   From: 2010.05.17/outbox.cif.g08.bks.cpg/sg91_1_cif.got.tgz:1385.got - 2010.06.03 19:20:03.
