data_PCOD9548397
_publ_section_title
;
Structure prediction by ZEFSAII (Michael W. Deem and Ramdas Pophale) SiO2 
 PCOD9548397
Probable space group: P 41 2 2
;
_chemical_formula_sum "Si O2"
_cell_formula_units_Z 60
_cell_length_a 12.099609
_cell_length_b 12.099609
_cell_length_c 19.276453
_cell_angle_alpha 90.000000
_cell_angle_beta 90.000000
_cell_angle_gamma 90.000000
_cell_volume 2822.083089
_symmetry_space_group_name_H-M "P 41 2 2"
_symmetry_group_IT_number 91
_symmetry_cell_setting 'tetragonal'
loop_
_space_group_symop_operation_xyz
x,y,z
-y,x,1/4+z
-x,-y,1/2+z
y,-x,3/4+z
x,-y,1/2-z
-x,y,-z
y,x,3/4-z
-y,-x,1/4-z
loop_
_atom_site_type_symbol
_atom_site_label
_atom_site_fract_x
_atom_site_fract_y
_atom_site_fract_z
Si Si1 0.933857 0.117047 0.874158
Si Si2 0.971343 0.331084 0.790524
Si Si3 0.973067 0.306227 0.368319
Si Si4 0.643807 0.172640 0.142725
Si Si5 0.595850 0.251800 0.828437
Si Si6 0.547838 0.257807 0.425007
Si Si7 0.000000 0.735409 0.500000
Si Si8 0.653563 0.799703 0.828845
O O1 0.946231 0.204624 0.812263
O O2 0.823898 0.045751 0.871751
O O3 0.937159 0.189396 0.944017
O O4 0.039424 0.039424 0.875000
O O5 0.863626 0.398535 0.814349
O O6 0.986830 0.336346 0.708644
O O7 0.083223 0.368448 0.830098
O O8 0.855172 0.359765 0.381852
O O9 0.068038 0.346922 0.419693
O O10 0.747048 0.252953 0.125000
O O11 0.535604 0.244118 0.160871
O O12 0.668043 0.092179 0.208026
O O13 0.655215 0.362978 0.852815
O O14 0.640895 0.240369 0.749501
O O15 0.500000 0.292417 0.500000
O O16 0.449564 0.246043 0.371357
O O17 0.757558 0.757558 0.875000
#
# Coordination Sequence:
#
# PCOD9548397 Si02
#       8
#     8   8   8   8   8   8   4   8
#     4  11  22  39  65 103 143 184 229 287 364 430
#     4  11  23  43  71  99 138 189 233 291 364 441
#     4  12  24  42  69 103 143 181 241 292 351 430
#     4  11  26  45  72 107 145 184 244 302 360 432
#     4  12  28  46  70 109 135 183 245 299 352 428
#     4  12  24  48  71  96 134 189 237 287 362 436
#     4  10  22  44  70  96 144 194 226 284 364 446
#     4  12  26  45  70  97 138 187 233 291 357 429
#
# _framework density 21.260888999999999
#
# number of rings (size 3 to 8) (size 9 to 14) (size 15 to 20)
#    0.000    0.533    4.000    4.800    5.600    1.600 
#    4.800    0.000    0.000    0.000    0.000    0.000 
#    0.000    0.000    0.000    0.000    0.000    0.000 
#
# Total GULP energy -335858.639729 kJ/mol
# GULP energy per Si atom -5597.643995 kJ/mol
# Density = 2.121250 g / cm^3
# Si number density = 21.260889 Si / 1000 Ang^3
#
#
#
# Elastic Constant Matrix: (Units=GPa)
#
#
# Indices 1 2 3 4 5 6 
#
# 1 94.0743 20.4844 3.9966 0.0000 0.0000 0.0000
# 2 20.4844 94.0745 3.9970 0.0000 0.0000 0.0000
# 3 3.9966 3.9970 50.1564 0.0000 0.0000 0.0000
# 4 0.0000 0.0000 0.0000 16.5337 0.0000 0.0000
# 5 0.0000 0.0000 0.0000 0.0000 16.5365 0.0000
# 6 0.0000 0.0000 0.0000 0.0000 0.0000 20.5668
#
#
#
# Elastic Compliance Matrix: (Units=1/GPa)
#
#
# Indices 1 2 3 4 5 6 
#
# 1 0.011183 -0.002405 -0.000699 0.000000 0.000000 0.000000
# 2 -0.002405 0.011183 -0.000700 0.000000 0.000000 0.000000
# 3 -0.000699 -0.000700 0.020049 0.000000 0.000000 0.000000
# 4 0.000000 0.000000 0.000000 0.060482 0.000000 0.000000
# 5 0.000000 0.000000 0.000000 0.000000 0.060472 0.000000
# 6 0.000000 0.000000 0.000000 0.000000 0.000000 0.048622
#
#
# Mechanical properties :
#
#
# Convention : Reuss Voigt Hill
#
# Bulk Modulus (GPa) = 28.72979 32.80681 30.76830
# Shear Modulus (GPa) = 21.62593 24.71588 23.17091
#
# Velocity S-wave (km/s) = 3.19277 3.41325 3.30485
# Velocity P-wave (km/s) = 5.20903 5.56757 5.39128
#
# Compressibility (1/GPa) = 0.03480707
#
# Stress axis : x y z
#
# Youngs Moduli (GPa) = 89.41839 89.41853 49.87749
#
# Poissons Ratio (x) = 0.21509 0.03489
# Poissons Ratio (y) = 0.21509 0.03489
# Poissons Ratio (z) = 0.06254 0.06255
#
# Static dielectric constant tensor:
#      x y z
#    x 1.756120 0.000000 0.000000 
#    y 0.000000 1.756120 0.000000 
#    z 0.000000 0.000000 1.767760 
# 
# From -- ./inp_files/21569.got.cif
#   From: 2010.05.17/outbox.cif.g08.bks.cpg/sg91_11_cif.got.tgz:21569.got - 2010.06.03 19:20:03.
