data_PCOD9548147
_publ_section_title
;
Structure prediction by ZEFSAII (Michael W. Deem and Ramdas Pophale) SiO2 
 PCOD9548147
Probable space group: P 41 2 2
;
_chemical_formula_sum "Si O2"
_cell_formula_units_Z 40
_cell_length_a 14.250046
_cell_length_b 14.250046
_cell_length_c 8.875625
_cell_angle_alpha 90.000000
_cell_angle_beta 90.000000
_cell_angle_gamma 90.000000
_cell_volume 1802.318238
_symmetry_space_group_name_H-M "P 41 2 2"
_symmetry_group_IT_number 91
_symmetry_cell_setting 'tetragonal'
loop_
_space_group_symop_operation_xyz
x,y,z
-y,x,1/4+z
-x,-y,1/2+z
y,-x,3/4+z
x,-y,1/2-z
-x,y,-z
y,x,3/4-z
-y,-x,1/4-z
loop_
_atom_site_type_symbol
_atom_site_label
_atom_site_fract_x
_atom_site_fract_y
_atom_site_fract_z
Si Si1 0.130919 0.130919 0.875000
Si Si2 0.440367 0.794074 0.713207
Si Si3 0.579027 0.420974 0.125000
Si Si4 0.788111 0.009385 0.589167
Si Si5 0.269050 0.179491 0.598947
Si Si6 0.156040 0.639831 0.866231
O O1 0.208433 0.146027 0.744684
O O2 0.033568 0.149048 0.792942
O O3 0.434766 0.681338 0.699844
O O4 0.376612 0.826102 0.851533
O O5 0.545177 0.834951 0.712253
O O6 0.392279 0.825500 0.555659
O O7 0.569991 0.500000 0.250000
O O8 0.755273 0.111232 0.537943
O O9 0.838108 0.000000 0.750000
O O10 0.698278 0.940363 0.610955
O O11 0.235192 0.286332 0.581090
#
# Coordination Sequence:
#
# PCOD9548147 Si02
#       6
#     4   8   4   8   8   8
#     4  10  21  40  68 102 128 186 229 286 366 432
#     4  11  18  40  69 103 143 188 242 287 357 435
#     4  12  21  38  68 104 144 198 245 292 348 432
#     4  11  25  44  68 107 144 183 239 305 367 445
#     4  11  19  41  73 103 138 189 238 291 364 435
#     4  10  21  39  68 103 141 182 233 295 359 422
#
# _framework density 22.193638
#
# number of rings (size 3 to 8) (size 9 to 14) (size 15 to 20)
#    0.000    1.200    8.000    0.600    0.000    3.200 
#    7.200    4.000    0.000   48.000    0.000    0.000 
#    0.000    0.000    0.000    0.000    0.000    0.000 
#
# Total GULP energy -223765.300239 kJ/mol
# GULP energy per Si atom -5594.132506 kJ/mol
# Density = 2.214312 g / cm^3
# Si number density = 22.193638 Si / 1000 Ang^3
#
#
#
# Elastic Constant Matrix: (Units=GPa)
#
#
# Indices 1 2 3 4 5 6 
#
# 1 118.6968 27.9652 32.4899 0.0000 0.0000 0.0000
# 2 27.9652 118.6958 32.4912 0.0000 0.0000 0.0000
# 3 32.4899 32.4912 83.9168 0.0000 0.0000 0.0000
# 4 0.0000 0.0000 0.0000 27.3697 0.0000 0.0000
# 5 0.0000 0.0000 0.0000 0.0000 27.3693 0.0000
# 6 0.0000 0.0000 0.0000 0.0000 0.0000 23.7829
#
#
#
# Elastic Compliance Matrix: (Units=1/GPa)
#
#
# Indices 1 2 3 4 5 6 
#
# 1 0.009626 -0.001396 -0.003186 0.000000 0.000000 0.000000
# 2 -0.001396 0.009626 -0.003187 0.000000 0.000000 0.000000
# 3 -0.003186 -0.003187 0.014384 0.000000 0.000000 0.000000
# 4 0.000000 0.000000 0.000000 0.036537 0.000000 0.000000
# 5 0.000000 0.000000 0.000000 0.000000 0.036537 0.000000
# 6 0.000000 0.000000 0.000000 0.000000 0.000000 0.042047
#
#
# Mechanical properties :
#
#
# Convention : Reuss Voigt Hill
#
# Bulk Modulus (GPa) = 55.25353 56.35578 55.80466
# Shear Modulus (GPa) = 29.35525 30.92859 30.14192
#
# Velocity S-wave (km/s) = 3.64082 3.73712 3.68928
# Velocity P-wave (km/s) = 6.52873 6.63847 6.58383
#
# Compressibility (1/GPa) = 0.01809839
#
# Stress axis : x y z
#
# Youngs Moduli (GPa) = 103.88697 103.88496 69.52128
#
# Poissons Ratio (x) = 0.14499 0.22153
# Poissons Ratio (y) = 0.14499 0.22154
# Poissons Ratio (z) = 0.33103 0.33105
#
# Static dielectric constant tensor:
#      x y z
#    x 1.820660 0.000000 0.000000 
#    y 0.000000 1.820660 0.000000 
#    z 0.000000 0.000000 1.832130 
# 
# From -- ./inp_files/15039.got.cif
#   From: 2010.05.17/outbox.cif.g08.bks.cpg/sg91_8_cif.got.tgz:15039.got - 2010.06.03 19:20:03.
