data_PCOD9548768
_publ_section_title
;
Structure prediction by ZEFSAII (Michael W. Deem and Ramdas Pophale) SiO2 
 PCOD9548768
Probable space group: P 41 2 2
;
_chemical_formula_sum "Si O2"
_cell_formula_units_Z 24
_cell_length_a 14.146215
_cell_length_b 14.146215
_cell_length_c 4.880692
_cell_angle_alpha 90.000000
_cell_angle_beta 90.000000
_cell_angle_gamma 90.000000
_cell_volume 976.701626
_symmetry_space_group_name_H-M "P 41 2 2"
_symmetry_group_IT_number 91
_symmetry_cell_setting 'tetragonal'
loop_
_space_group_symop_operation_xyz
x,y,z
-y,x,1/4+z
-x,-y,1/2+z
y,-x,3/4+z
x,-y,1/2-z
-x,y,-z
y,x,3/4-z
-y,-x,1/4-z
loop_
_atom_site_type_symbol
_atom_site_label
_atom_site_fract_x
_atom_site_fract_y
_atom_site_fract_z
Si Si1 0.105144 0.894857 0.625000
Si Si2 0.568764 0.000000 0.750000
Si Si3 0.703522 0.439737 0.491565
Si Si4 0.709637 0.844647 0.704667
O O1 0.108301 0.794431 0.785474
O O2 0.000000 0.892364 0.500000
O O3 0.643830 0.078754 0.645855
O O4 0.500000 0.971727 0.500000
O O5 0.744446 0.500000 0.750000
O O6 0.625242 0.374758 0.625000
O O7 0.779717 0.373338 0.331547
O O8 0.660531 0.500000 0.250000
O O9 0.769774 0.769774 0.875000
#
# Coordination Sequence:
#
# PCOD9548768 Si02
#       4
#     4   4   8   8
#     4  12  30  50  80 116 158 204 266 324 408 486
#     4  12  28  48  78 118 160 208 272 336 404 482
#     4  11  25  45  75 111 153 207 263 323 394 470
#     4  11  27  47  79 107 158 205 267 325 408 468
#
# _framework density 24.572498
#
# number of rings (size 3 to 8) (size 9 to 14) (size 15 to 20)
#    0.000    0.667    0.000    5.000   21.000    1.333 
#    0.000    0.000    0.000    0.000    0.000    0.000 
#    0.000    0.000    0.000    0.000    0.000    0.000 
#
# Total GULP energy -133733.272796 kJ/mol
# GULP energy per Si atom -5572.219700 kJ/mol
# Density = 2.451657 g / cm^3
# Si number density = 24.572498 Si / 1000 Ang^3
#
#
#
# Elastic Constant Matrix: (Units=GPa)
#
#
# Indices 1 2 3 4 5 6 
#
# 1 -305.9372 546.5488 50.2862 0.0000 0.0000 0.0000
# 2 546.5488 -305.9757 50.3166 0.0000 0.0000 0.0000
# 3 50.2862 50.3166 84.9123 0.0000 0.0000 0.0000
# 4 0.0000 0.0000 0.0000 11.6993 0.0000 0.0000
# 5 0.0000 0.0000 0.0000 0.0000 11.6978 0.0000
# 6 0.0000 0.0000 0.0000 0.0000 0.0000 60.2182
#
#
#
# Elastic Compliance Matrix: (Units=1/GPa)
#
#
# Indices 1 2 3 4 5 6 
#
# 1 0.002176 0.003349 -0.003273 0.000000 0.000000 0.000000
# 2 0.003349 0.002176 -0.003273 0.000000 0.000000 0.000000
# 3 -0.003273 -0.003273 0.015655 0.000000 0.000000 0.000000
# 4 0.000000 0.000000 0.000000 0.085475 0.000000 0.000000
# 5 0.000000 0.000000 0.000000 0.000000 0.085486 0.000000
# 6 0.000000 0.000000 0.000000 0.000000 0.000000 0.016606
#
#
# Mechanical properties :
#
#
# Convention : Reuss Voigt Hill
#
# Bulk Modulus (GPa) = 73.46057 85.25583 79.35820
# Shear Modulus (GPa) = 22.88272 -61.55375 -19.33551
#
# Velocity S-wave (km/s) = 3.05492 -5.01041 -2.80817
# Velocity P-wave (km/s) = 6.51182 1.13958 4.67453
#
# Compressibility (1/GPa) = 0.01361275
#
# Stress axis : x y z
#
# Youngs Moduli (GPa) = 459.51110 459.61311 63.87897
#
# Poissons Ratio (x) = -1.53924 0.20910
# Poissons Ratio (y) = -1.53890 0.20905
# Poissons Ratio (z) = 1.50412 1.50413
#
# Static dielectric constant tensor:
#      x y z
#    x 2.069060 0.000000 0.000000 
#    y 0.000000 2.069060 0.000000 
#    z 0.000000 0.000000 2.004210 
# 
# From -- ./inp_files/18397.got.cif
#   From: 2010.05.17/outbox.cif.g08.bks.cpg/sg91_10_cif.got.tgz:18397.got - 2010.06.03 19:20:03.
