data_PCOD9548758
_publ_section_title
;
Structure prediction by ZEFSAII (Michael W. Deem and Ramdas Pophale) SiO2 
 PCOD9548758
Probable space group: P 41 2 2
;
_chemical_formula_sum "Si O2"
_cell_formula_units_Z 40
_cell_length_a 17.211500
_cell_length_b 17.211500
_cell_length_c 5.666256
_cell_angle_alpha 90.000000
_cell_angle_beta 90.000000
_cell_angle_gamma 90.000000
_cell_volume 1678.547495
_symmetry_space_group_name_H-M "P 41 2 2"
_symmetry_group_IT_number 91
_symmetry_cell_setting 'tetragonal'
loop_
_space_group_symop_operation_xyz
x,y,z
-y,x,1/4+z
-x,-y,1/2+z
y,-x,3/4+z
x,-y,1/2-z
-x,y,-z
y,x,3/4-z
-y,-x,1/4-z
loop_
_atom_site_type_symbol
_atom_site_label
_atom_site_fract_x
_atom_site_fract_y
_atom_site_fract_z
Si Si1 0.352634 0.647366 0.125000
Si Si2 0.912605 0.609263 0.937859
Si Si3 0.191079 0.500000 0.750000
Si Si4 0.792311 0.089938 0.755132
Si Si5 0.782275 0.782275 0.375000
Si Si6 0.584334 0.415667 0.125000
Si Si7 0.214713 0.385239 0.122117
O O1 0.372143 0.610927 0.381668
O O2 0.262144 0.625283 0.132433
O O3 0.871963 0.587403 0.691563
O O4 0.862084 0.567162 0.137454
O O5 0.908947 0.703337 0.916989
O O6 0.000000 0.588380 0.000000
O O7 0.240712 0.546988 0.556357
O O8 0.853753 0.146248 0.625000
O O9 0.817733 0.000000 0.750000
O O10 0.782171 0.133980 0.001520
O O11 0.780336 0.701472 0.518576
O O12 0.587963 0.500000 0.250000
#
# Coordination Sequence:
#
# PCOD9548758 Si02
#       7
#     4   8   4   8   4   4   8
#     4  12  29  48  86 113 161 200 270 343 396 490
#     4  11  26  47  74 109 159 210 263 329 408 497
#     4  12  28  44  78 116 158 204 274 328 406 502
#     4  11  24  48  78 111 152 209 272 331 418 499
#     4  12  23  50  80 101 161 210 262 341 430 502
#     4  12  28  52  80 114 152 208 258 328 412 482
#     4  12  27  49  77 115 155 212 263 335 416 495
#
# _framework density 23.830128999999999
#
# number of rings (size 3 to 8) (size 9 to 14) (size 15 to 20)
#    0.000    0.400    4.000    3.600    7.000    2.400 
#    1.800    0.000    0.000    0.000    0.000    0.000 
#    0.000    0.000    0.000    0.000    0.000    0.000 
#
# Total GULP energy -222969.021958 kJ/mol
# GULP energy per Si atom -5574.225549 kJ/mol
# Density = 2.377589 g / cm^3
# Si number density = 23.830129 Si / 1000 Ang^3
#
#
#
# Elastic Constant Matrix: (Units=GPa)
#
#
# Indices 1 2 3 4 5 6 
#
# 1 138.8432 69.3560 63.3343 0.0000 0.0000 0.0000
# 2 69.3560 138.8451 63.3365 0.0000 0.0000 0.0000
# 3 63.3343 63.3365 132.1714 0.0000 0.0000 0.0000
# 4 0.0000 0.0000 0.0000 30.5929 0.0000 0.0000
# 5 0.0000 0.0000 0.0000 0.0000 30.5927 0.0000
# 6 0.0000 0.0000 0.0000 0.0000 0.0000 24.3418
#
#
#
# Elastic Compliance Matrix: (Units=1/GPa)
#
#
# Indices 1 2 3 4 5 6 
#
# 1 0.010585 -0.003806 -0.003249 0.000000 0.000000 0.000000
# 2 -0.003806 0.010585 -0.003249 0.000000 0.000000 0.000000
# 3 -0.003249 -0.003249 0.010679 0.000000 0.000000 0.000000
# 4 0.000000 0.000000 0.000000 0.032687 0.000000 0.000000
# 5 0.000000 0.000000 0.000000 0.000000 0.032688 0.000000
# 6 0.000000 0.000000 0.000000 0.000000 0.000000 0.041082
#
#
# Mechanical properties :
#
#
# Convention : Reuss Voigt Hill
#
# Bulk Modulus (GPa) = 88.93813 89.10148 89.01981
# Shear Modulus (GPa) = 30.73882 31.36100 31.04991
#
# Velocity S-wave (km/s) = 3.59543 3.63164 3.61358
# Velocity P-wave (km/s) = 7.39181 7.42001 7.40592
#
# Compressibility (1/GPa) = 0.01124377
#
# Stress axis : x y z
#
# Youngs Moduli (GPa) = 94.47088 94.47064 93.63758
#
# Poissons Ratio (x) = 0.35952 0.30419
# Poissons Ratio (y) = 0.35952 0.30422
# Poissons Ratio (z) = 0.30690 0.30692
#
# Static dielectric constant tensor:
#      x y z
#    x 2.067610 0.000000 0.000000 
#    y 0.000000 2.067620 0.000000 
#    z 0.000000 0.000000 2.085790 
# 
# From -- ./inp_files/18637.got.cif
#   From: 2010.05.17/outbox.cif.g08.bks.cpg/sg91_10_cif.got.tgz:18637.got - 2010.06.03 19:20:03.
