data_PCOD9548547
_publ_section_title
;
Structure prediction by ZEFSAII (Michael W. Deem and Ramdas Pophale) SiO2 
 PCOD9548547
Probable space group: P 41 2 2
;
_chemical_formula_sum "Si O2"
_cell_formula_units_Z 56
_cell_length_a 13.189884
_cell_length_b 13.189884
_cell_length_c 12.232887
_cell_angle_alpha 90.000000
_cell_angle_beta 90.000000
_cell_angle_gamma 90.000000
_cell_volume 2128.192539
_symmetry_space_group_name_H-M "P 41 2 2"
_symmetry_group_IT_number 91
_symmetry_cell_setting 'tetragonal'
loop_
_space_group_symop_operation_xyz
x,y,z
-y,x,1/4+z
-x,-y,1/2+z
y,-x,3/4+z
x,-y,1/2-z
-x,y,-z
y,x,3/4-z
-y,-x,1/4-z
loop_
_atom_site_type_symbol
_atom_site_label
_atom_site_fract_x
_atom_site_fract_y
_atom_site_fract_z
Si Si1 0.919649 0.662250 0.744083
Si Si2 0.511661 0.861245 0.187879
Si Si3 0.665799 0.291057 0.243141
Si Si4 0.591168 0.141550 0.919156
Si Si5 0.187222 0.886254 0.734050
Si Si6 0.998671 0.840869 0.124000
Si Si7 0.267061 0.606997 0.207578
O O1 0.928910 0.590598 0.629503
O O2 0.930162 0.776458 0.795435
O O3 0.792444 0.678441 0.712430
O O4 0.036809 0.638400 0.788803
O O5 0.557068 0.747007 0.210061
O O6 0.452725 0.882775 0.298323
O O7 0.421346 0.847783 0.094244
O O8 0.653416 0.346585 0.125000
O O9 0.751216 0.349144 0.314445
O O10 0.715725 0.183052 0.214125
O O11 0.500000 0.160826 0.000000
O O12 0.121848 0.878153 0.625000
O O13 0.114345 0.848084 0.829257
O O14 0.219311 0.000000 0.750000
O O15 0.047502 0.952499 0.125000
O O16 0.000000 0.800076 0.000000
O O17 0.306389 0.500000 0.250000
O O18 0.338720 0.661280 0.125000
#
# Coordination Sequence:
#
# PCOD9548547 Si02
#       7
#     8   8   8   8   8   8   8
#     4  11  27  46  72 117 148 203 257 316 414 474
#     4  11  27  46  81 104 154 200 252 329 400 477
#     4  11  25  47  72 113 148 203 265 319 397 468
#     4  12  25  48  76 109 156 197 260 324 393 487
#     4  11  24  43  66  98 153 204 264 313 379 470
#     4  12  26  43  71 112 157 213 270 331 400 478
#     4  10  24  48  71 107 143 190 253 318 395 475
#
# _framework density 26.313407999999999
#
# number of rings (size 3 to 8) (size 9 to 14) (size 15 to 20)
#    0.000    0.857    2.857    3.429   10.000    1.714 
#    2.571    1.429    0.000    0.000    0.000    0.000 
#    0.000    0.000    0.000    0.000    0.000    0.000 
#
# Total GULP energy -311828.746849 kJ/mol
# GULP energy per Si atom -5568.370479 kJ/mol
# Density = 2.625352 g / cm^3
# Si number density = 26.313408 Si / 1000 Ang^3
#
#
#
# Elastic Constant Matrix: (Units=GPa)
#
#
# Indices 1 2 3 4 5 6 
#
# 1 85.3252 27.7299 22.5589 0.0000 0.0000 0.0000
# 2 27.7299 85.3221 22.5584 0.0000 0.0000 0.0000
# 3 22.5589 22.5584 153.4921 0.0000 0.0000 0.0000
# 4 0.0000 0.0000 0.0000 41.4788 0.0000 0.0000
# 5 0.0000 0.0000 0.0000 0.0000 41.4778 0.0000
# 6 0.0000 0.0000 0.0000 0.0000 0.0000 50.8895
#
#
#
# Elastic Compliance Matrix: (Units=1/GPa)
#
#
# Indices 1 2 3 4 5 6 
#
# 1 0.013379 -0.003983 -0.001381 0.000000 0.000000 0.000000
# 2 -0.003983 0.013380 -0.001381 0.000000 0.000000 0.000000
# 3 -0.001381 -0.001381 0.006921 0.000000 0.000000 0.000000
# 4 0.000000 0.000000 0.000000 0.024109 0.000000 0.000000
# 5 0.000000 0.000000 0.000000 0.000000 0.024109 0.000000
# 6 0.000000 0.000000 0.000000 0.000000 0.000000 0.019650
#
#
# Mechanical properties :
#
#
# Convention : Reuss Voigt Hill
#
# Bulk Modulus (GPa) = 49.52967 52.20375 50.86671
# Shear Modulus (GPa) = 41.06127 43.52203 42.29165
#
# Velocity S-wave (km/s) = 3.95456 4.07134 4.01337
# Velocity P-wave (km/s) = 6.30200 6.47945 6.39135
#
# Compressibility (1/GPa) = 0.02018992
#
# Stress axis : x y z
#
# Youngs Moduli (GPa) = 74.74126 74.73857 144.48946
#
# Poissons Ratio (x) = 0.29770 0.19954
# Poissons Ratio (y) = 0.29771 0.19954
# Poissons Ratio (z) = 0.10322 0.10321
#
# Static dielectric constant tensor:
#      x y z
#    x 2.218550 0.000000 0.000000 
#    y 0.000000 2.218570 0.000000 
#    z 0.000000 0.000000 2.428600 
# 
# From -- ./inp_files/20312.got.cif
#   From: 2010.05.17/outbox.cif.g08.bks.cpg/sg91_11_cif.got.tgz:20312.got - 2010.06.03 19:20:03.
