data_PCOD9548949
_publ_section_title
;
Structure prediction by ZEFSAII (Michael W. Deem and Ramdas Pophale) SiO2 
 PCOD9548949
Probable space group: P 41 21 2
;
_chemical_formula_sum "Si O2"
_cell_formula_units_Z 56
_cell_length_a 13.732221
_cell_length_b 13.732221
_cell_length_c 12.495948
_cell_angle_alpha 90.000000
_cell_angle_beta 90.000000
_cell_angle_gamma 90.000000
_cell_volume 2356.409568
_symmetry_space_group_name_H-M "P 41 21 2"
_symmetry_group_IT_number 92
_symmetry_cell_setting 'tetragonal'
loop_
_space_group_symop_operation_xyz
x,y,z
1/2-y,1/2+x,1/4+z
-x,-y,1/2+z
1/2+y,1/2-x,3/4+z
1/2+x,1/2-y,3/4-z
1/2-x,1/2+y,1/4-z
y,x,-z
-y,-x,1/2-z
loop_
_atom_site_type_symbol
_atom_site_label
_atom_site_fract_x
_atom_site_fract_y
_atom_site_fract_z
Si Si1 0.133056 0.633734 0.685559
Si Si2 0.391237 0.772442 0.598421
Si Si3 0.927243 0.913600 0.246333
Si Si4 0.478413 0.965832 0.568466
Si Si5 0.759164 0.200711 0.516364
Si Si6 0.067878 0.276802 0.137385
Si Si7 0.491215 0.355269 0.791557
O O1 0.189279 0.657435 0.792848
O O2 0.128637 0.517162 0.674182
O O3 0.173779 0.694702 0.588083
O O4 0.016864 0.656328 0.685300
O O5 0.420656 0.659029 0.603428
O O6 0.312549 0.784695 0.502755
O O7 0.476196 0.849624 0.579630
O O8 0.819420 0.933281 0.288240
O O9 0.983101 0.849525 0.334991
O O10 0.986711 0.013290 0.250000
O O11 0.500956 0.979476 0.438527
O O12 0.678360 0.186200 0.608960
O O13 0.846165 0.123881 0.523971
O O14 0.037001 0.235958 0.022148
O O15 0.547976 0.452025 0.750000
#
# Coordination Sequence:
#
# PCOD9548949 Si02
#       7
#     8   8   8   8   8   8   8
#     4  10  20  37  60  89 119 155 207 266 324 375
#     4  10  22  37  57  90 124 156 206 264 316 379
#     4  10  22  41  60  87 126 167 206 250 314 389
#     4  10  22  39  60  88 124 162 206 263 322 378
#     4  10  19  36  62  87 118 162 206 255 321 388
#     4   9  20  38  60  86 117 157 209 259 311 379
#     4   9  20  38  59  87 122 161 207 253 311 382
#
# _framework density 23.764969000000001
#
# number of rings (size 3 to 8) (size 9 to 14) (size 15 to 20)
#    0.000    2.286    0.000    2.143    0.000    9.143 
#    0.000   13.571    0.000    0.000    0.000    0.000 
#    0.000    0.000    0.000    0.000    0.000    0.000 
#
# Total GULP energy -311743.206170 kJ/mol
# GULP energy per Si atom -5566.842967 kJ/mol
# Density = 2.371088 g / cm^3
# Si number density = 23.764969 Si / 1000 Ang^3
#
#
#
# Elastic Constant Matrix: (Units=GPa)
#
#
# Indices 1 2 3 4 5 6 
#
# 1 51.0226 5.9639 0.3321 0.0000 0.0000 0.0000
# 2 5.9639 51.0193 0.3302 0.0000 0.0000 0.0000
# 3 0.3321 0.3302 65.4956 0.0000 0.0000 0.0000
# 4 0.0000 0.0000 0.0000 18.3895 0.0000 0.0000
# 5 0.0000 0.0000 0.0000 0.0000 18.3907 0.0000
# 6 0.0000 0.0000 0.0000 0.0000 0.0000 37.1947
#
#
#
# Elastic Compliance Matrix: (Units=1/GPa)
#
#
# Indices 1 2 3 4 5 6 
#
# 1 0.019871 -0.002322 -0.000089 0.000000 0.000000 0.000000
# 2 -0.002322 0.019872 -0.000088 0.000000 0.000000 0.000000
# 3 -0.000089 -0.000088 0.015269 0.000000 0.000000 0.000000
# 4 0.000000 0.000000 0.000000 0.054379 0.000000 0.000000
# 5 0.000000 0.000000 0.000000 0.000000 0.054375 0.000000
# 6 0.000000 0.000000 0.000000 0.000000 0.000000 0.026886
#
#
# Mechanical properties :
#
#
# Convention : Reuss Voigt Hill
#
# Bulk Modulus (GPa) = 19.99470 20.08778 20.04124
# Shear Modulus (GPa) = 23.54901 25.52239 24.53570
#
# Velocity S-wave (km/s) = 3.15129 3.28067 3.21663
# Velocity P-wave (km/s) = 4.65539 4.77718 4.71668
#
# Compressibility (1/GPa) = 0.05001326
#
# Stress axis : x y z
#
# Youngs Moduli (GPa) = 50.32413 50.32086 65.49173
#
# Poissons Ratio (x) = 0.11686 0.00583
# Poissons Ratio (y) = 0.11687 0.00579
# Poissons Ratio (z) = 0.00448 0.00445
#
# Static dielectric constant tensor:
#      x y z
#    x 2.012210 0.000000 0.000000 
#    y 0.000000 2.012220 0.000000 
#    z 0.000000 0.000000 1.992620 
# 
# From -- ./inp_files/2289.got.cif
#   From: 2010.05.17/outbox.cif.g08.bks.cpg/sg92_2_cif.got.tgz:2289.got - 2010.06.03 19:35:17.
