data_PCOD9548542
_publ_section_title
;
Structure prediction by ZEFSAII (Michael W. Deem and Ramdas Pophale) SiO2 
 PCOD9548542
Probable space group: P 41 2 2
;
_chemical_formula_sum "Si O2"
_cell_formula_units_Z 48
_cell_length_a 8.589732
_cell_length_b 8.589732
_cell_length_c 31.376149
_cell_angle_alpha 90.000000
_cell_angle_beta 90.000000
_cell_angle_gamma 90.000000
_cell_volume 2315.041959
_symmetry_space_group_name_H-M "P 41 2 2"
_symmetry_group_IT_number 91
_symmetry_cell_setting 'tetragonal'
loop_
_space_group_symop_operation_xyz
x,y,z
-y,x,1/4+z
-x,-y,1/2+z
y,-x,3/4+z
x,-y,1/2-z
-x,y,-z
y,x,3/4-z
-y,-x,1/4-z
loop_
_atom_site_type_symbol
_atom_site_label
_atom_site_fract_x
_atom_site_fract_y
_atom_site_fract_z
Si Si1 0.948857 0.500000 0.250000
Si Si2 0.249756 0.293599 0.027966
Si Si3 0.867850 0.717831 0.686180
Si Si4 0.867141 0.537955 0.035936
Si Si5 0.126622 0.528515 0.399476
Si Si6 0.025922 0.015881 0.047799
Si Si7 0.826231 0.173770 0.625000
O O1 0.060192 0.402949 0.219337
O O2 0.831971 0.385269 0.274670
O O3 0.254348 0.416925 0.066067
O O4 0.100366 0.184061 0.038952
O O5 0.232259 0.398858 0.985627
O O6 0.698776 0.781294 0.701581
O O7 0.857372 0.640808 0.640298
O O8 0.995733 0.854974 0.683308
O O9 0.960228 0.473438 0.076666
O O10 0.000000 0.571669 0.000000
O O11 0.148237 0.352745 0.385141
O O12 0.128495 0.923736 0.082512
O O13 0.000000 0.946648 0.000000
#
# Coordination Sequence:
#
# PCOD9548542 Si02
#       7
#     4   8   8   8   8   8   4
#     4  12  28  42  70 112 148 192 238 304 364 460
#     4  11  26  47  73 102 147 190 239 296 379 435
#     4  12  26  43  74 106 144 188 253 301 362 443
#     4  10  24  47  72 105 141 197 242 306 371 434
#     4  11  26  43  71 108 141 188 243 308 367 432
#     4  12  23  45  77 105 136 194 249 306 352 442
#     4  12  26  44  76 108 148 184 254 306 366 446
#
# _framework density 20.733965999999999
#
# number of rings (size 3 to 8) (size 9 to 14) (size 15 to 20)
#    0.000    0.667    3.333    4.000    4.667    2.000 
#    0.000    0.000    0.000    0.000    0.000    0.000 
#    0.000    0.000    0.000    0.000    0.000    0.000 
#
# Total GULP energy -268083.175260 kJ/mol
# GULP energy per Si atom -5585.066151 kJ/mol
# Density = 2.068677 g / cm^3
# Si number density = 20.733966 Si / 1000 Ang^3
#
#
#
# Elastic Constant Matrix: (Units=GPa)
#
#
# Indices 1 2 3 4 5 6 
#
# 1 99.7246 45.0680 45.5537 0.0000 0.0000 0.0000
# 2 45.0680 99.7251 45.5536 0.0000 0.0000 0.0000
# 3 45.5537 45.5536 107.9572 0.0000 0.0000 0.0000
# 4 0.0000 0.0000 0.0000 19.5754 0.0000 0.0000
# 5 0.0000 0.0000 0.0000 0.0000 19.5757 0.0000
# 6 0.0000 0.0000 0.0000 0.0000 0.0000 21.1266
#
#
#
# Elastic Compliance Matrix: (Units=1/GPa)
#
#
# Indices 1 2 3 4 5 6 
#
# 1 0.013850 -0.004446 -0.003968 0.000000 0.000000 0.000000
# 2 -0.004446 0.013849 -0.003968 0.000000 0.000000 0.000000
# 3 -0.003968 -0.003968 0.012611 0.000000 0.000000 0.000000
# 4 0.000000 0.000000 0.000000 0.051085 0.000000 0.000000
# 5 0.000000 0.000000 0.000000 0.000000 0.051084 0.000000
# 6 0.000000 0.000000 0.000000 0.000000 0.000000 0.047334
#
#
# Mechanical properties :
#
#
# Convention : Reuss Voigt Hill
#
# Bulk Modulus (GPa) = 64.32287 64.41749 64.37018
# Shear Modulus (GPa) = 22.75229 23.47099 23.11164
#
# Velocity S-wave (km/s) = 3.31621 3.36818 3.34230
# Velocity P-wave (km/s) = 6.76412 6.80163 6.78290
#
# Compressibility (1/GPa) = 0.01554657
#
# Stress axis : x y z
#
# Youngs Moduli (GPa) = 72.20468 72.20519 79.29366
#
# Poissons Ratio (x) = 0.32106 0.31461
# Poissons Ratio (y) = 0.32106 0.31461
# Poissons Ratio (z) = 0.28649 0.28649
#
# Static dielectric constant tensor:
#      x y z
#    x 1.751590 0.000000 0.000000 
#    y 0.000000 1.751590 0.000000 
#    z 0.000000 0.000000 2.076720 
# 
# From -- ./inp_files/18226.got.cif
#   From: 2010.05.17/outbox.cif.g08.bks.cpg/sg91_10_cif.got.tgz:18226.got - 2010.06.03 19:20:03.
