data_PCOD9548350
_publ_section_title
;
Structure prediction by ZEFSAII (Michael W. Deem and Ramdas Pophale) SiO2 
 PCOD9548350
Probable space group: P 41 2 2
;
_chemical_formula_sum "Si O2"
_cell_formula_units_Z 40
_cell_length_a 14.493508
_cell_length_b 14.493508
_cell_length_c 8.936696
_cell_angle_alpha 90.000000
_cell_angle_beta 90.000000
_cell_angle_gamma 90.000000
_cell_volume 1877.258217
_symmetry_space_group_name_H-M "P 41 2 2"
_symmetry_group_IT_number 91
_symmetry_cell_setting 'tetragonal'
loop_
_space_group_symop_operation_xyz
x,y,z
-y,x,1/4+z
-x,-y,1/2+z
y,-x,3/4+z
x,-y,1/2-z
-x,y,-z
y,x,3/4-z
-y,-x,1/4-z
loop_
_atom_site_type_symbol
_atom_site_label
_atom_site_fract_x
_atom_site_fract_y
_atom_site_fract_z
Si Si1 0.646165 0.240042 0.282151
Si Si2 0.716369 0.815688 0.743830
Si Si3 0.727660 0.081945 0.056780
Si Si4 0.419166 0.419166 0.875000
Si Si5 0.935028 0.935028 0.375000
Si Si6 0.088714 0.401042 0.258864
O O1 0.721938 0.290553 0.391689
O O2 0.688971 0.167879 0.158197
O O3 0.584188 0.318396 0.205211
O O4 0.592960 0.173046 0.393270
O O5 0.788669 0.788669 0.875000
O O6 0.742777 0.885884 0.614098
O O7 0.633489 0.864906 0.835867
O O8 0.826700 0.053516 0.112278
O O9 0.667178 0.989957 0.050241
O O10 0.426353 0.500000 0.750000
O O11 0.000000 0.969837 0.500000
O O12 0.042092 0.500000 0.250000
#
# Coordination Sequence:
#
# PCOD9548350 Si02
#       6
#     8   8   8   4   4   8
#     4  11  23  48  77 101 144 199 238 298 384 446
#     4  10  22  42  68 103 141 195 236 283 369 442
#     4  12  23  47  72 103 147 187 249 299 364 444
#     4  12  29  50  76 110 141 196 252 314 368 452
#     4  12  27  44  66  98 139 198 254 306 352 428
#     4  11  27  42  71 116 148 182 237 314 374 447
#
# _framework density 21.307670000000002
#
# number of rings (size 3 to 8) (size 9 to 14) (size 15 to 20)
#    0.000    0.800    4.000    2.400    5.600    6.400 
#    1.800    0.000    0.000    0.000    0.000    0.000 
#    0.000    0.000    0.000    0.000    0.000    0.000 
#
# Total GULP energy -222882.180802 kJ/mol
# GULP energy per Si atom -5572.054520 kJ/mol
# Density = 2.125917 g / cm^3
# Si number density = 21.307670 Si / 1000 Ang^3
#
#
#
# Elastic Constant Matrix: (Units=GPa)
#
#
# Indices 1 2 3 4 5 6 
#
# 1 635.4581 -491.6941 50.2035 0.0000 0.0000 0.0000
# 2 -491.6941 635.4581 50.2035 0.0000 0.0000 0.0000
# 3 50.2035 50.2035 173.0479 0.0000 0.0000 0.0000
# 4 0.0000 0.0000 0.0000 28.1847 0.0000 0.0000
# 5 0.0000 0.0000 0.0000 0.0000 28.1847 0.0000
# 6 0.0000 0.0000 0.0000 0.0000 0.0000 25.4219
#
#
#
# Elastic Compliance Matrix: (Units=1/GPa)
#
#
# Indices 1 2 3 4 5 6 
#
# 1 0.004805 0.003918 -0.002531 0.000000 0.000000 0.000000
# 2 0.003918 0.004805 -0.002531 0.000000 0.000000 0.000000
# 3 -0.002531 -0.002531 0.007247 0.000000 0.000000 0.000000
# 4 0.000000 0.000000 0.000000 0.035480 0.000000 0.000000
# 5 0.000000 0.000000 0.000000 0.000000 0.035480 0.000000
# 6 0.000000 0.000000 0.000000 0.000000 0.000000 0.039336
#
#
# Mechanical properties :
#
#
# Convention : Reuss Voigt Hill
#
# Bulk Modulus (GPa) = 68.63022 73.48776 71.05899
# Shear Modulus (GPa) = 37.23060 138.70835 87.96947
#
# Velocity S-wave (km/s) = 4.18459 8.07708 6.43234
# Velocity P-wave (km/s) = 7.45834 11.02494 9.41212
#
# Compressibility (1/GPa) = 0.01457084
#
# Stress axis : x y z
#
# Youngs Moduli (GPa) = 208.10445 208.10445 137.98504
#
# Poissons Ratio (x) = -0.81537 0.34921
# Poissons Ratio (y) = -0.81537 0.34921
# Poissons Ratio (z) = 0.52666 0.52666
#
# Static dielectric constant tensor:
#      x y z
#    x 1.779530 0.000000 0.000000 
#    y 0.000000 1.779530 0.000000 
#    z 0.000000 0.000000 1.798630 
# 
# From -- ./inp_files/2452.got.cif
#   From: 2010.05.17/outbox.cif.g08.bks.cpg/sg91_2_cif.got.tgz:2452.got - 2010.06.03 19:20:03.
