data_PCOD9548670
_publ_section_title
;
Structure prediction by ZEFSAII (Michael W. Deem and Ramdas Pophale) SiO2 
 PCOD9548670
Probable space group: P 41 2 2
;
_chemical_formula_sum "Si O2"
_cell_formula_units_Z 56
_cell_length_a 12.740172
_cell_length_b 12.740172
_cell_length_c 18.154223
_cell_angle_alpha 90.000000
_cell_angle_beta 90.000000
_cell_angle_gamma 90.000000
_cell_volume 2946.647928
_symmetry_space_group_name_H-M "P 41 2 2"
_symmetry_group_IT_number 91
_symmetry_cell_setting 'tetragonal'
loop_
_space_group_symop_operation_xyz
x,y,z
-y,x,1/4+z
-x,-y,1/2+z
y,-x,3/4+z
x,-y,1/2-z
-x,y,-z
y,x,3/4-z
-y,-x,1/4-z
loop_
_atom_site_type_symbol
_atom_site_label
_atom_site_fract_x
_atom_site_fract_y
_atom_site_fract_z
Si Si1 0.456253 0.960947 0.582765
Si Si2 0.931304 0.059217 0.819626
Si Si3 0.225758 0.109594 0.939831
Si Si4 0.224365 0.560308 0.923414
Si Si5 0.214197 0.780524 0.843733
Si Si6 0.461115 0.612533 0.917600
Si Si7 0.829432 0.546697 0.579357
O O1 0.500000 0.973261 0.500000
O O2 0.330032 0.952510 0.582905
O O3 0.499638 0.852824 0.617646
O O4 0.487194 0.062314 0.631589
O O5 0.862029 0.139383 0.865622
O O6 0.032259 0.127764 0.794857
O O7 0.881722 0.000000 0.750000
O O8 0.971022 0.971022 0.875000
O O9 0.187504 0.187504 0.875000
O O10 0.253887 0.166775 0.015675
O O11 0.215649 0.682803 0.900420
O O12 0.350037 0.550759 0.915411
O O13 0.190519 0.518213 0.004168
O O14 0.326496 0.830319 0.821624
O O15 0.543315 0.543315 0.875000
O O16 0.463187 0.727060 0.880768
O O17 0.500000 0.624485 0.000000
#
# Coordination Sequence:
#
# PCOD9548670 Si02
#       7
#     8   8   8   8   8   8   8
#     4  12  24  43  65  94 138 177 224 279 351 409
#     4  11  22  39  67  94 127 173 223 272 336 398
#     4  11  23  40  65  93 129 176 218 273 335 407
#     4  11  25  41  68 100 133 176 222 286 341 409
#     4  11  23  43  65  98 136 169 228 280 336 402
#     4  11  23  45  73 100 134 177 233 286 345 409
#     4  11  24  43  70  98 135 180 227 280 348 417
#
# _framework density 19.004646000000001
#
# number of rings (size 3 to 8) (size 9 to 14) (size 15 to 20)
#    0.000    0.857    5.714    1.714    0.000    3.429 
#    0.000    0.000    0.000    0.000    0.000    0.000 
#    0.000    0.000    0.000    0.000    0.000    0.000 
#
# Total GULP energy -312356.405243 kJ/mol
# GULP energy per Si atom -5577.792951 kJ/mol
# Density = 1.896139 g / cm^3
# Si number density = 19.004646 Si / 1000 Ang^3
#
#
#
# Elastic Constant Matrix: (Units=GPa)
#
#
# Indices 1 2 3 4 5 6 
#
# 1 54.2501 12.2437 29.9939 0.0000 0.0000 0.0000
# 2 12.2437 54.2501 29.9939 0.0000 0.0000 0.0000
# 3 29.9939 29.9939 113.3654 0.0000 0.0000 0.0000
# 4 0.0000 0.0000 0.0000 32.4118 0.0000 0.0000
# 5 0.0000 0.0000 0.0000 0.0000 32.4118 0.0000
# 6 0.0000 0.0000 0.0000 0.0000 0.0000 27.8337
#
#
#
# Elastic Compliance Matrix: (Units=1/GPa)
#
#
# Indices 1 2 3 4 5 6 
#
# 1 0.021780 -0.002026 -0.005226 0.000000 0.000000 0.000000
# 2 -0.002026 0.021780 -0.005226 0.000000 0.000000 0.000000
# 3 -0.005226 -0.005226 0.011587 0.000000 0.000000 0.000000
# 4 0.000000 0.000000 0.000000 0.030853 0.000000 0.000000
# 5 0.000000 0.000000 0.000000 0.000000 0.030853 0.000000
# 6 0.000000 0.000000 0.000000 0.000000 0.000000 0.035928
#
#
# Mechanical properties :
#
#
# Convention : Reuss Voigt Hill
#
# Bulk Modulus (GPa) = 33.12477 40.70318 36.91397
# Shear Modulus (GPa) = 26.62395 28.50709 27.56552
#
# Velocity S-wave (km/s) = 3.74694 3.87719 3.81263
# Velocity P-wave (km/s) = 6.01557 6.44263 6.23276
#
# Compressibility (1/GPa) = 0.03018889
#
# Stress axis : x y z
#
# Youngs Moduli (GPa) = 45.91371 45.91371 86.30629
#
# Poissons Ratio (x) = 0.09302 0.45108
# Poissons Ratio (y) = 0.09302 0.45108
# Poissons Ratio (z) = 0.23997 0.23997
#
# Static dielectric constant tensor:
#      x y z
#    x 1.662810 0.000000 0.000000 
#    y 0.000000 1.662810 0.000000 
#    z 0.000000 0.000000 1.648030 
# 
# From -- ./inp_files/6394.got.cif
#   From: 2010.05.17/outbox.cif.g08.bks.cpg/sg91_4_cif.got.tgz:6394.got - 2010.06.03 19:20:03.
