data_PCOD9548976
_publ_section_title
;
Structure prediction by ZEFSAII (Michael W. Deem and Ramdas Pophale) SiO2 
 PCOD9548976
Probable space group: P 41 21 2
;
_chemical_formula_sum "Si O2"
_cell_formula_units_Z 40
_cell_length_a 8.841891
_cell_length_b 8.841891
_cell_length_c 18.790318
_cell_angle_alpha 90.000000
_cell_angle_beta 90.000000
_cell_angle_gamma 90.000000
_cell_volume 1469.008956
_symmetry_space_group_name_H-M "P 41 21 2"
_symmetry_group_IT_number 92
_symmetry_cell_setting 'tetragonal'
loop_
_space_group_symop_operation_xyz
x,y,z
1/2-y,1/2+x,1/4+z
-x,-y,1/2+z
1/2+y,1/2-x,3/4+z
1/2+x,1/2-y,3/4-z
1/2-x,1/2+y,1/4-z
y,x,-z
-y,-x,1/2-z
loop_
_atom_site_type_symbol
_atom_site_label
_atom_site_fract_x
_atom_site_fract_y
_atom_site_fract_z
Si Si1 0.005616 0.181625 0.557826
Si Si2 0.894342 0.413870 0.735372
Si Si3 0.366782 0.620676 0.353971
Si Si4 0.709177 0.331705 0.493843
Si Si5 0.802342 0.569351 0.035615
O O1 0.121632 0.121632 0.500000
O O2 0.100996 0.323171 0.590090
O O3 0.856881 0.234407 0.513679
O O4 0.958119 0.028829 0.597173
O O5 0.766539 0.423468 0.798403
O O6 0.795811 0.401293 0.664453
O O7 0.996720 0.265093 0.740366
O O8 0.005212 0.555972 0.739483
O O9 0.316229 0.611305 0.434006
O O10 0.588237 0.270490 0.436835
O O11 0.671011 0.671011 0.000000
#
# Coordination Sequence:
#
# PCOD9548976 Si02
#       5
#     8   8   8   8   8
#     4  10  19  40  65  82 129 179 199 261 337 389
#     4  10  22  38  65  91 123 170 209 264 327 378
#     4  11  20  39  68  93 121 167 224 264 319 387
#     4  11  22  38  65  96 124 159 230 269 310 393
#     4  10  22  39  60  88 129 168 201 263 330 380
#
# _framework density 27.229240999999998
#
# number of rings (size 3 to 8) (size 9 to 14) (size 15 to 20)
#    0.000    1.600    4.000    1.200    2.800    0.000 
#    0.000    4.000   22.000    0.000    0.000    0.000 
#    0.000    0.000    0.000    0.000    0.000    0.000 
#
# Total GULP energy -223527.837349 kJ/mol
# GULP energy per Si atom -5588.195934 kJ/mol
# Density = 2.716727 g / cm^3
# Si number density = 27.229241 Si / 1000 Ang^3
#
#
#
# Elastic Constant Matrix: (Units=GPa)
#
#
# Indices 1 2 3 4 5 6 
#
# 1 175.3142 110.2898 26.0609 0.0000 0.0000 0.0000
# 2 110.2898 175.3142 26.0609 0.0000 0.0000 0.0000
# 3 26.0609 26.0609 34.8323 0.0000 0.0000 0.0000
# 4 0.0000 0.0000 0.0000 27.1606 0.0000 0.0000
# 5 0.0000 0.0000 0.0000 0.0000 27.1606 0.0000
# 6 0.0000 0.0000 0.0000 0.0000 0.0000 87.1543
#
#
#
# Elastic Compliance Matrix: (Units=1/GPa)
#
#
# Indices 1 2 3 4 5 6 
#
# 1 0.009717 -0.005662 -0.003034 0.000000 0.000000 0.000000
# 2 -0.005662 0.009717 -0.003034 0.000000 0.000000 0.000000
# 3 -0.003034 -0.003034 0.033249 0.000000 0.000000 0.000000
# 4 0.000000 0.000000 0.000000 0.036818 0.000000 0.000000
# 5 0.000000 0.000000 0.000000 0.000000 0.036818 0.000000
# 6 0.000000 0.000000 0.000000 0.000000 0.000000 0.011474
#
#
# Mechanical properties :
#
#
# Convention : Reuss Voigt Hill
#
# Bulk Modulus (GPa) = 34.21936 78.92046 56.56991
# Shear Modulus (GPa) = 29.24096 43.16506 36.20301
#
# Velocity S-wave (km/s) = 3.28057 3.98583 3.65027
# Velocity P-wave (km/s) = 5.19075 7.08725 6.21181
#
# Compressibility (1/GPa) = 0.02922323
#
# Stress axis : x y z
#
# Youngs Moduli (GPa) = 102.91306 102.91306 30.07630
#
# Poissons Ratio (x) = 0.58268 0.09125
# Poissons Ratio (y) = 0.58268 0.09125
# Poissons Ratio (z) = 0.31223 0.31223
#
# Static dielectric constant tensor:
#      x y z
#    x 2.210180 0.000000 0.000000 
#    y 0.000000 2.210180 0.000000 
#    z 0.000000 0.000000 2.164160 
# 
# From -- ./inp_files/3806.got.cif
#   From: 2010.05.17/outbox.cif.g08.bks.cpg/sg92_2_cif.got.tgz:3806.got - 2010.06.03 19:35:17.
