data_PCOD9548345
_publ_section_title
;
Structure prediction by ZEFSAII (Michael W. Deem and Ramdas Pophale) SiO2 
 PCOD9548345
Probable space group: P 41 2 2
;
_chemical_formula_sum "Si O2"
_cell_formula_units_Z 44
_cell_length_a 11.666133
_cell_length_b 11.666133
_cell_length_c 17.028002
_cell_angle_alpha 90.000000
_cell_angle_beta 90.000000
_cell_angle_gamma 90.000000
_cell_volume 2317.488241
_symmetry_space_group_name_H-M "P 41 2 2"
_symmetry_group_IT_number 91
_symmetry_cell_setting 'tetragonal'
loop_
_space_group_symop_operation_xyz
x,y,z
-y,x,1/4+z
-x,-y,1/2+z
y,-x,3/4+z
x,-y,1/2-z
-x,y,-z
y,x,3/4-z
-y,-x,1/4-z
loop_
_atom_site_type_symbol
_atom_site_label
_atom_site_fract_x
_atom_site_fract_y
_atom_site_fract_z
Si Si1 0.800708 0.338850 0.186724
Si Si2 0.064595 0.768635 0.083684
Si Si3 0.409655 0.704972 0.403733
Si Si4 0.295353 0.707563 0.010026
Si Si5 0.362807 0.030257 0.487748
Si Si6 0.438668 0.438668 0.375000
O O1 0.746398 0.253603 0.125000
O O2 0.770258 0.468874 0.159990
O O3 0.740894 0.334098 0.271984
O O4 0.934235 0.318730 0.202369
O O5 0.114523 0.885478 0.125000
O O6 0.003876 0.690685 0.150783
O O7 0.180418 0.699942 0.061495
O O8 0.000000 0.787196 0.000000
O O9 0.351485 0.730165 0.321773
O O10 0.426481 0.568209 0.404280
O O11 0.322921 0.840643 0.996587
O O12 0.398521 0.644670 0.054890
O O13 0.500000 0.025777 0.500000
#
# Coordination Sequence:
#
# PCOD9548345 Si02
#       6
#     8   8   8   8   8   4
#     4  11  23  41  59  89 129 175 209 252 334 392
#     4  10  22  42  66  92 125 169 227 280 333 394
#     4  11  22  36  61  88 130 166 201 258 320 398
#     4  11  23  39  61  98 125 167 219 266 324 382
#     4  11  21  41  62  91 129 171 209 272 331 393
#     4  12  20  36  60  96 134 156 210 260 312 404
#
# _framework density 18.986073000000001
#
# number of rings (size 3 to 8) (size 9 to 14) (size 15 to 20)
#    0.000    1.091    5.455    3.818    2.545    0.000 
#    0.000    4.545    0.000    0.000    0.000    0.000 
#    0.000    0.000    0.000    0.000    0.000    0.000 
#
# Total GULP energy -245506.849406 kJ/mol
# GULP energy per Si atom -5579.701123 kJ/mol
# Density = 1.894286 g / cm^3
# Si number density = 18.986073 Si / 1000 Ang^3
#
#
#
# Elastic Constant Matrix: (Units=GPa)
#
#
# Indices 1 2 3 4 5 6 
#
# 1 79.6943 36.9031 48.6102 0.0000 0.0000 0.0000
# 2 36.9031 79.6937 48.6095 0.0000 0.0000 0.0000
# 3 48.6102 48.6095 141.0648 0.0000 0.0000 0.0000
# 4 0.0000 0.0000 0.0000 6.1324 0.0000 0.0000
# 5 0.0000 0.0000 0.0000 0.0000 6.1342 0.0000
# 6 0.0000 0.0000 0.0000 0.0000 0.0000 13.8558
#
#
#
# Elastic Compliance Matrix: (Units=1/GPa)
#
#
# Indices 1 2 3 4 5 6 
#
# 1 0.017702 -0.005668 -0.004147 0.000000 0.000000 0.000000
# 2 -0.005668 0.017702 -0.004147 0.000000 0.000000 0.000000
# 3 -0.004147 -0.004147 0.009947 0.000000 0.000000 0.000000
# 4 0.000000 0.000000 0.000000 0.163068 0.000000 0.000000
# 5 0.000000 0.000000 0.000000 0.000000 0.163019 0.000000
# 6 0.000000 0.000000 0.000000 0.000000 0.000000 0.072172
#
#
# Mechanical properties :
#
#
# Convention : Reuss Voigt Hill
#
# Bulk Modulus (GPa) = 57.37955 63.18871 60.28413
# Shear Modulus (GPa) = 10.47467 16.31316 13.39391
#
# Velocity S-wave (km/s) = 2.35138 2.93442 2.65893
# Velocity P-wave (km/s) = 6.13674 6.69589 6.42240
#
# Compressibility (1/GPa) = 0.01742781
#
# Stress axis : x y z
#
# Youngs Moduli (GPa) = 56.49123 56.49111 100.53353
#
# Poissons Ratio (x) = 0.32017 0.41691
# Poissons Ratio (y) = 0.32017 0.41690
# Poissons Ratio (z) = 0.23427 0.23426
#
# Static dielectric constant tensor:
#      x y z
#    x 1.669630 0.000000 0.000000 
#    y 0.000000 1.669630 0.000000 
#    z 0.000000 0.000000 1.693650 
# 
# From -- ./inp_files/5504.got.cif
#   From: 2010.05.17/outbox.cif.g08.bks.cpg/sg91_3_cif.got.tgz:5504.got - 2010.06.03 19:20:03.
