data_PCOD9548889
_publ_section_title
;
Structure prediction by ZEFSAII (Michael W. Deem and Ramdas Pophale) SiO2 
 PCOD9548889
Probable space group: P 41 21 2
;
_chemical_formula_sum "Si O2"
_cell_formula_units_Z 48
_cell_length_a 11.450946
_cell_length_b 11.450946
_cell_length_c 17.432216
_cell_angle_alpha 90.000000
_cell_angle_beta 90.000000
_cell_angle_gamma 90.000000
_cell_volume 2285.784755
_symmetry_space_group_name_H-M "P 41 21 2"
_symmetry_group_IT_number 92
_symmetry_cell_setting 'tetragonal'
loop_
_space_group_symop_operation_xyz
x,y,z
1/2-y,1/2+x,1/4+z
-x,-y,1/2+z
1/2+y,1/2-x,3/4+z
1/2+x,1/2-y,3/4-z
1/2-x,1/2+y,1/4-z
y,x,-z
-y,-x,1/2-z
loop_
_atom_site_type_symbol
_atom_site_label
_atom_site_fract_x
_atom_site_fract_y
_atom_site_fract_z
Si Si1 0.311453 0.422655 0.639038
Si Si2 0.331095 0.203171 0.931839
Si Si3 0.625049 0.434259 0.836429
Si Si4 0.685918 0.326364 0.394408
Si Si5 0.419865 0.288756 0.177726
Si Si6 0.722228 0.913587 0.695970
O O1 0.448621 0.409294 0.619657
O O2 0.241770 0.303666 0.614547
O O3 0.272633 0.554834 0.615282
O O4 0.313023 0.420087 0.731986
O O5 0.265228 0.083997 0.911267
O O6 0.335372 0.303015 0.865655
O O7 0.457106 0.188117 0.966610
O O8 0.254721 0.254721 0.000000
O O9 0.573605 0.426396 0.750000
O O10 0.584217 0.318149 0.879689
O O11 0.678190 0.455603 0.356632
O O12 0.716239 0.348483 0.483423
O O13 0.394427 0.151411 0.170342
#
# Coordination Sequence:
#
# PCOD9548889 Si02
#       6
#     8   8   8   8   8   8
#     4  11  24  41  62  87 127 166 212 256 313 383
#     4  10  18  33  62  90 116 154 201 257 311 366
#     4  10  21  36  60  91 120 157 201 254 312 371
#     4  11  23  42  62  88 123 168 211 258 316 378
#     4  10  21  39  60  86 120 164 204 251 318 377
#     4  10  21  36  61  91 119 154 205 259 308 375
#
# _framework density 20.999351999999998
#
# number of rings (size 3 to 8) (size 9 to 14) (size 15 to 20)
#    0.000    1.667    1.667    3.500    0.000    1.333 
#    6.000    0.000    0.000    0.000    0.000    0.000 
#    0.000    0.000    0.000    0.000    0.000    0.000 
#
# Total GULP energy -267264.212209 kJ/mol
# GULP energy per Si atom -5568.004421 kJ/mol
# Density = 2.095156 g / cm^3
# Si number density = 20.999352 Si / 1000 Ang^3
#
#
#
# Elastic Constant Matrix: (Units=GPa)
#
#
# Indices 1 2 3 4 5 6 
#
# 1 77.1171 73.8694 -4.1404 0.0000 0.0000 0.0000
# 2 73.8694 77.1171 -4.1403 0.0000 0.0000 0.0000
# 3 -4.1404 -4.1403 36.2678 0.0000 0.0000 0.0000
# 4 0.0000 0.0000 0.0000 18.6040 0.0000 0.0000
# 5 0.0000 0.0000 0.0000 0.0000 18.6041 0.0000
# 6 0.0000 0.0000 0.0000 0.0000 0.0000 14.4288
#
#
#
# Elastic Compliance Matrix: (Units=1/GPa)
#
#
# Indices 1 2 3 4 5 6 
#
# 1 0.157289 -0.150624 0.000761 0.000000 0.000000 0.000000
# 2 -0.150624 0.157288 0.000760 0.000000 0.000000 0.000000
# 3 0.000761 0.000760 0.027746 0.000000 0.000000 0.000000
# 4 0.000000 0.000000 0.000000 0.053752 0.000000 0.000000
# 5 0.000000 0.000000 0.000000 0.000000 0.053752 0.000000
# 6 0.000000 0.000000 0.000000 0.000000 0.000000 0.069306
#
#
# Mechanical properties :
#
#
# Convention : Reuss Voigt Hill
#
# Bulk Modulus (GPa) = 22.66571 35.74215 29.20393
# Shear Modulus (GPa) = 6.00930 18.65493 12.33212
#
# Velocity S-wave (km/s) = 1.69348 2.98377 2.42598
# Velocity P-wave (km/s) = 3.82633 5.37848 4.66738
#
# Compressibility (1/GPa) = 0.04411951
#
# Stress axis : x y z
#
# Youngs Moduli (GPa) = 6.35774 6.35774 36.04072
#
# Poissons Ratio (x) = 0.95763 -0.02744
# Poissons Ratio (y) = 0.95763 -0.02740
# Poissons Ratio (z) = -0.00484 -0.00483
#
# Static dielectric constant tensor:
#      x y z
#    x 1.849230 0.000000 0.000000 
#    y 0.000000 1.849230 0.000000 
#    z 0.000000 0.000000 1.708750 
# 
# From -- ./inp_files/3137.got.cif
#   From: 2010.05.17/outbox.cif.g08.bks.cpg/sg92_2_cif.got.tgz:3137.got - 2010.06.03 19:35:17.
