data_PCOD9548161
_publ_section_title
;
Structure prediction by ZEFSAII (Michael W. Deem and Ramdas Pophale) SiO2 
 PCOD9548161
Probable space group: P 41 2 2
;
_chemical_formula_sum "Si O2"
_cell_formula_units_Z 32
_cell_length_a 8.212337
_cell_length_b 8.212337
_cell_length_c 19.371985
_cell_angle_alpha 90.000000
_cell_angle_beta 90.000000
_cell_angle_gamma 90.000000
_cell_volume 1306.494692
_symmetry_space_group_name_H-M "P 41 2 2"
_symmetry_group_IT_number 91
_symmetry_cell_setting 'tetragonal'
loop_
_space_group_symop_operation_xyz
x,y,z
-y,x,1/4+z
-x,-y,1/2+z
y,-x,3/4+z
x,-y,1/2-z
-x,y,-z
y,x,3/4-z
-y,-x,1/4-z
loop_
_atom_site_type_symbol
_atom_site_label
_atom_site_fract_x
_atom_site_fract_y
_atom_site_fract_z
Si Si1 0.921871 0.877690 0.074710
Si Si2 0.646111 0.126982 0.044399
Si Si3 0.804574 0.432179 0.979765
Si Si4 0.700666 0.607306 0.109400
O O1 0.864964 0.709499 0.104404
O O2 0.762518 0.992674 0.076151
O O3 0.052232 0.947769 0.125000
O O4 0.000000 0.866424 0.000000
O O5 0.546309 0.245300 0.094977
O O6 0.500000 0.049987 0.000000
O O7 0.765190 0.246855 0.002515
O O8 0.720171 0.429205 0.902308
O O9 0.692767 0.546978 0.029586
O O10 0.000000 0.457028 0.000000
#
# Coordination Sequence:
#
# PCOD9548161 Si02
#       4
#     8   8   8   8
#     4  12  24  41  68 100 134 179 237 295 350 420
#     4  10  21  40  65  95 131 180 233 286 352 419
#     4  11  22  42  70 102 139 185 237 292 354 422
#     4  11  23  39  68 101 136 180 232 289 352 421
#
# _framework density 24.493020000000001
#
# number of rings (size 3 to 8) (size 9 to 14) (size 15 to 20)
#    0.000    1.000    0.000    9.750    0.000    0.000 
#    0.000    6.250    0.000   21.000    0.000    0.000 
#    0.000    0.000    0.000    0.000    0.000    0.000 
#
# Total GULP energy -178367.446553 kJ/mol
# GULP energy per Si atom -5573.982705 kJ/mol
# Density = 2.443727 g / cm^3
# Si number density = 24.493020 Si / 1000 Ang^3
#
#
#
# Elastic Constant Matrix: (Units=GPa)
#
#
# Indices 1 2 3 4 5 6 
#
# 1 88.9837 31.6391 38.6295 0.0000 0.0000 0.0000
# 2 31.6391 88.9865 38.6302 0.0000 0.0000 0.0000
# 3 38.6295 38.6302 152.5681 0.0000 0.0000 0.0000
# 4 0.0000 0.0000 0.0000 141.4826 0.0000 0.0000
# 5 0.0000 0.0000 0.0000 0.0000 141.6101 0.0000
# 6 0.0000 0.0000 0.0000 0.0000 0.0000 -27.7593
#
#
#
# Elastic Compliance Matrix: (Units=1/GPa)
#
#
# Indices 1 2 3 4 5 6 
#
# 1 0.013667 -0.003772 -0.002505 0.000000 0.000000 0.000000
# 2 -0.003772 0.013666 -0.002505 0.000000 0.000000 0.000000
# 3 -0.002505 -0.002505 0.007823 0.000000 0.000000 0.000000
# 4 0.000000 0.000000 0.000000 0.007068 0.000000 0.000000
# 5 0.000000 0.000000 0.000000 0.000000 0.007062 0.000000
# 6 0.000000 0.000000 0.000000 0.000000 0.000000 -0.036024
#
#
# Mechanical properties :
#
#
# Convention : Reuss Voigt Hill
#
# Bulk Modulus (GPa) = 56.84568 60.92622 58.88595
# Shear Modulus (GPa) = 136.27643 65.84265 101.05954
#
# Velocity S-wave (km/s) = 7.46724 5.19043 6.43041
# Velocity P-wave (km/s) = 9.87955 7.80062 8.90099
#
# Compressibility (1/GPa) = 0.01759149
#
# Stress axis : x y z
#
# Youngs Moduli (GPa) = 73.17076 73.17304 127.82572
#
# Poissons Ratio (x) = 0.27598 0.32025
# Poissons Ratio (y) = 0.27597 0.32025
# Poissons Ratio (z) = 0.18332 0.18332
#
# Static dielectric constant tensor:
#      x y z
#    x 1.930940 0.000000 0.000000 
#    y 0.000000 1.930840 0.000000 
#    z 0.000000 0.000000 2.114420 
# 
# From -- ./inp_files/21336.got.cif
#   From: 2010.05.17/outbox.cif.g08.bks.cpg/sg91_11_cif.got.tgz:21336.got - 2010.06.03 19:20:03.
