data_PCOD9548815
_publ_section_title
;
Structure prediction by ZEFSAII (Michael W. Deem and Ramdas Pophale) SiO2 
 PCOD9548815
Probable space group: P 41 2 2
;
_chemical_formula_sum "Si O2"
_cell_formula_units_Z 48
_cell_length_a 8.574998
_cell_length_b 8.574998
_cell_length_c 28.521775
_cell_angle_alpha 90.000000
_cell_angle_beta 90.000000
_cell_angle_gamma 90.000000
_cell_volume 2097.222964
_symmetry_space_group_name_H-M "P 41 2 2"
_symmetry_group_IT_number 91
_symmetry_cell_setting 'tetragonal'
loop_
_space_group_symop_operation_xyz
x,y,z
-y,x,1/4+z
-x,-y,1/2+z
y,-x,3/4+z
x,-y,1/2-z
-x,y,-z
y,x,3/4-z
-y,-x,1/4-z
loop_
_atom_site_type_symbol
_atom_site_label
_atom_site_fract_x
_atom_site_fract_y
_atom_site_fract_z
Si Si1 0.224667 0.889050 0.546543
Si Si2 0.005650 0.005650 0.875000
Si Si3 0.696191 0.000000 0.250000
Si Si4 0.512156 0.799611 0.808033
Si Si5 0.198435 0.319808 0.257473
Si Si6 0.734651 0.480686 0.306099
Si Si7 0.970217 0.335764 0.643911
O O1 0.336102 0.754650 0.568013
O O2 0.149588 0.806635 0.502084
O O3 0.080335 0.914434 0.580547
O O4 0.285351 0.061131 0.530827
O O5 0.822318 0.028110 0.870316
O O6 0.586982 0.049117 0.292804
O O7 0.640756 0.773781 0.766440
O O8 0.410693 0.637994 0.811467
O O9 0.581204 0.851682 0.858159
O O10 0.241508 0.500000 0.250000
O O11 0.119237 0.298705 0.308078
O O12 0.771253 0.500000 0.250000
O O13 0.876468 0.420178 0.337601
#
# Coordination Sequence:
#
# PCOD9548815 Si02
#       7
#     8   4   4   8   8   8   8
#     4  12  26  48  79 106 148 207 253 316 402 464
#     4  12  28  46  74 116 154 200 258 324 380 476
#     4  12  28  44  70 108 150 192 250 318 384 480
#     4  12  28  47  73 116 149 196 263 324 382 467
#     4  12  24  47  80 106 145 207 254 309 393 463
#     4  12  24  51  74 105 154 198 253 320 393 461
#     4  12  25  48  74 106 153 202 254 320 386 468
#
# _framework density 22.887409999999999
#
# number of rings (size 3 to 8) (size 9 to 14) (size 15 to 20)
#    0.000    0.000    6.667    2.500    7.000    0.000 
#    3.000    0.000    0.000    0.000    0.000    0.000 
#    0.000    0.000    0.000    0.000    0.000    0.000 
#
# Total GULP energy -267415.515720 kJ/mol
# GULP energy per Si atom -5571.156578 kJ/mol
# Density = 2.283532 g / cm^3
# Si number density = 22.887410 Si / 1000 Ang^3
#
#
#
# Elastic Constant Matrix: (Units=GPa)
#
#
# Indices 1 2 3 4 5 6 
#
# 1 87.0829 51.7764 19.3373 0.0000 0.0000 0.0000
# 2 51.7764 87.0829 19.3373 0.0000 0.0000 0.0000
# 3 19.3373 19.3373 48.7710 0.0000 0.0000 0.0000
# 4 0.0000 0.0000 0.0000 37.6505 0.0000 0.0000
# 5 0.0000 0.0000 0.0000 0.0000 37.6505 0.0000
# 6 0.0000 0.0000 0.0000 0.0000 0.0000 43.8202
#
#
#
# Elastic Compliance Matrix: (Units=1/GPa)
#
#
# Indices 1 2 3 4 5 6 
#
# 1 0.018209 -0.010114 -0.003210 0.000000 0.000000 0.000000
# 2 -0.010114 0.018209 -0.003210 0.000000 0.000000 0.000000
# 3 -0.003210 -0.003210 0.023049 0.000000 0.000000 0.000000
# 4 0.000000 0.000000 0.000000 0.026560 0.000000 0.000000
# 5 0.000000 0.000000 0.000000 0.000000 0.026560 0.000000
# 6 0.000000 0.000000 0.000000 0.000000 0.000000 0.022821
#
#
# Mechanical properties :
#
#
# Convention : Reuss Voigt Hill
#
# Bulk Modulus (GPa) = 37.87714 44.87095 41.37405
# Shear Modulus (GPa) = 28.20454 32.65661 30.43058
#
# Velocity S-wave (km/s) = 3.51425 3.78145 3.65029
# Velocity P-wave (km/s) = 5.74907 6.22201 5.99021
#
# Compressibility (1/GPa) = 0.02640115
#
# Stress axis : x y z
#
# Youngs Moduli (GPa) = 54.91656 54.91656 43.38521
#
# Poissons Ratio (x) = 0.55542 0.13926
# Poissons Ratio (y) = 0.55542 0.13926
# Poissons Ratio (z) = 0.17627 0.17627
#
# Static dielectric constant tensor:
#      x y z
#    x 2.002320 0.000000 0.000000 
#    y 0.000000 2.002320 0.000000 
#    z 0.000000 0.000000 1.890940 
# 
# From -- ./inp_files/18212.got.cif
#   From: 2010.05.17/outbox.cif.g08.bks.cpg/sg91_10_cif.got.tgz:18212.got - 2010.06.03 19:20:03.
