data_PCOD9548128
_publ_section_title
;
Structure prediction by ZEFSAII (Michael W. Deem and Ramdas Pophale) SiO2 
 PCOD9548128
Probable space group: P 41 2 2
;
_chemical_formula_sum "Si O2"
_cell_formula_units_Z 40
_cell_length_a 11.466630
_cell_length_b 11.466630
_cell_length_c 13.627214
_cell_angle_alpha 90.000000
_cell_angle_beta 90.000000
_cell_angle_gamma 90.000000
_cell_volume 1791.755203
_symmetry_space_group_name_H-M "P 41 2 2"
_symmetry_group_IT_number 91
_symmetry_cell_setting 'tetragonal'
loop_
_space_group_symop_operation_xyz
x,y,z
-y,x,1/4+z
-x,-y,1/2+z
y,-x,3/4+z
x,-y,1/2-z
-x,y,-z
y,x,3/4-z
-y,-x,1/4-z
loop_
_atom_site_type_symbol
_atom_site_label
_atom_site_fract_x
_atom_site_fract_y
_atom_site_fract_z
Si Si1 0.300801 0.365166 0.485950
Si Si2 0.068252 0.717468 0.911171
Si Si3 0.999346 0.554221 0.386152
Si Si4 0.389531 0.746108 0.841831
Si Si5 0.742962 0.153976 0.033945
O O1 0.322089 0.322089 0.375000
O O2 0.194423 0.299658 0.539430
O O3 0.396809 0.346450 0.569856
O O4 0.265385 0.498406 0.476222
O O5 0.018364 0.585959 0.887798
O O6 0.074085 0.781000 0.807417
O O7 0.000000 0.774124 0.000000
O O8 0.900500 0.623310 0.326993
O O9 0.000000 0.591361 0.500000
O O10 0.127798 0.597116 0.354811
O O11 0.279082 0.729359 0.770017
O O12 0.828734 0.171267 0.125000
#
# Coordination Sequence:
#
# PCOD9548128 Si02
#       5
#     8   8   8   8   8
#     4  11  23  40  63  95 141 177 219 275 349 419
#     4  10  21  38  62  95 127 171 237 290 320 398
#     4  11  20  40  69  94 126 177 239 293 326 404
#     4  11  24  43  63 102 135 179 233 279 353 419
#     4  11  22  37  64 100 128 172 221 295 352 402
#
# _framework density 22.324480000000001
#
# number of rings (size 3 to 8) (size 9 to 14) (size 15 to 20)
#    0.000    1.200    6.000    1.200    2.800    3.200 
#    0.000   13.000    0.000    0.000   31.200    0.000 
#    0.000    0.000    0.000    0.000    0.000    0.000 
#
# Total GULP energy -223080.194899 kJ/mol
# GULP energy per Si atom -5577.004872 kJ/mol
# Density = 2.227367 g / cm^3
# Si number density = 22.324480 Si / 1000 Ang^3
#
#
#
# Elastic Constant Matrix: (Units=GPa)
#
#
# Indices 1 2 3 4 5 6 
#
# 1 31.2805 25.2341 26.4299 0.0000 0.0000 0.0000
# 2 25.2341 31.2812 26.4304 0.0000 0.0000 0.0000
# 3 26.4299 26.4304 190.1632 0.0000 0.0000 0.0000
# 4 0.0000 0.0000 0.0000 27.1886 0.0000 0.0000
# 5 0.0000 0.0000 0.0000 0.0000 27.1886 0.0000
# 6 0.0000 0.0000 0.0000 0.0000 0.0000 6.0846
#
#
#
# Elastic Compliance Matrix: (Units=1/GPa)
#
#
# Indices 1 2 3 4 5 6 
#
# 1 0.092860 -0.072520 -0.002827 0.000000 0.000000 0.000000
# 2 -0.072520 0.092858 -0.002827 0.000000 0.000000 0.000000
# 3 -0.002827 -0.002827 0.006044 0.000000 0.000000 0.000000
# 4 0.000000 0.000000 0.000000 0.036780 0.000000 0.000000
# 5 0.000000 0.000000 0.000000 0.000000 0.036780 0.000000
# 6 0.000000 0.000000 0.000000 0.000000 0.000000 0.164348
#
#
# Mechanical properties :
#
#
# Convention : Reuss Voigt Hill
#
# Bulk Modulus (GPa) = 28.23729 45.43484 36.83607
# Shear Modulus (GPa) = 8.36368 23.73440 16.04904
#
# Velocity S-wave (km/s) = 1.93767 3.26414 2.68414
# Velocity P-wave (km/s) = 4.20501 5.88238 5.11295
#
# Compressibility (1/GPa) = 0.03541416
#
# Stress axis : x y z
#
# Youngs Moduli (GPa) = 10.76892 10.76915 165.44216
#
# Poissons Ratio (x) = 0.78098 0.46766
# Poissons Ratio (y) = 0.78097 0.46767
# Poissons Ratio (z) = 0.03044 0.03044
#
# Static dielectric constant tensor:
#      x y z
#    x 1.931560 0.000000 0.000000 
#    y 0.000000 1.931560 0.000000 
#    z 0.000000 0.000000 1.909920 
# 
# From -- ./inp_files/16371.got.cif
#   From: 2010.05.17/outbox.cif.g08.bks.cpg/sg91_9_cif.got.tgz:16371.got - 2010.06.03 19:20:03.
