data_PCOD9548108
_publ_section_title
;
Structure prediction by ZEFSAII (Michael W. Deem and Ramdas Pophale) SiO2 
 PCOD9548108
Probable space group: P 41 2 2
;
_chemical_formula_sum "Si O2"
_cell_formula_units_Z 56
_cell_length_a 15.859812
_cell_length_b 15.859812
_cell_length_c 11.079833
_cell_angle_alpha 90.000000
_cell_angle_beta 90.000000
_cell_angle_gamma 90.000000
_cell_volume 2786.950688
_symmetry_space_group_name_H-M "P 41 2 2"
_symmetry_group_IT_number 91
_symmetry_cell_setting 'tetragonal'
loop_
_space_group_symop_operation_xyz
x,y,z
-y,x,1/4+z
-x,-y,1/2+z
y,-x,3/4+z
x,-y,1/2-z
-x,y,-z
y,x,3/4-z
-y,-x,1/4-z
loop_
_atom_site_type_symbol
_atom_site_label
_atom_site_fract_x
_atom_site_fract_y
_atom_site_fract_z
Si Si1 0.373647 0.058006 0.444437
Si Si2 0.123470 0.409856 0.791217
Si Si3 0.500000 0.455356 0.500000
Si Si4 0.215709 0.743800 0.824098
Si Si5 0.820998 0.500000 0.750000
Si Si6 0.358452 0.316370 0.505931
Si Si7 0.091199 0.793800 0.039045
Si Si8 0.907561 0.321104 0.970127
O O1 0.453192 0.115813 0.407769
O O2 0.293716 0.073162 0.360159
O O3 0.349354 0.086424 0.580831
O O4 0.400470 0.961596 0.460933
O O5 0.160782 0.500000 0.750000
O O6 0.176365 0.325968 0.762593
O O7 0.103207 0.397403 0.933438
O O8 0.496177 0.503824 0.625000
O O9 0.415678 0.399135 0.503301
O O10 0.257825 0.828424 0.770736
O O11 0.287595 0.692779 0.895503
O O12 0.146332 0.773516 0.921249
O O13 0.757294 0.425362 0.782975
O O14 0.313475 0.313475 0.375000
O O15 0.143741 0.856260 0.125000
O O16 0.000000 0.828453 0.000000
O O17 0.000000 0.282585 0.000000
#
# Coordination Sequence:
#
# PCOD9548108 Si02
#       8
#     8   8   4   8   4   8   8   8
#     4  11  21  40  66  99 128 169 215 283 347 409
#     4  11  25  43  61  97 137 180 226 276 342 416
#     4   9  20  42  64  91 130 172 232 281 336 400
#     4  12  22  43  66  97 137 173 225 279 350 411
#     4  11  18  34  66  91 128 160 214 271 336 396
#     4  10  21  37  63  97 126 171 223 277 333 406
#     4  12  24  43  72 101 136 171 227 294 354 421
#     4  10  23  42  67  93 132 181 224 269 343 420
#
# _framework density 20.093644000000001
#
# number of rings (size 3 to 8) (size 9 to 14) (size 15 to 20)
#    0.000    1.143    5.000    1.714    0.000    2.286 
#    6.429    0.714    0.000    0.000    0.000    0.000 
#    0.000    0.000    0.000    0.000    0.000    0.000 
#
# Total GULP energy -312362.818846 kJ/mol
# GULP energy per Si atom -5577.907479 kJ/mol
# Density = 2.004791 g / cm^3
# Si number density = 20.093644 Si / 1000 Ang^3
#
#
#
# Elastic Constant Matrix: (Units=GPa)
#
#
# Indices 1 2 3 4 5 6 
#
# 1 86.4855 19.2523 33.9877 0.0000 0.0000 0.0000
# 2 19.2523 86.4869 33.9879 0.0000 0.0000 0.0000
# 3 33.9877 33.9879 93.2708 0.0000 0.0000 0.0000
# 4 0.0000 0.0000 0.0000 26.9567 0.0000 0.0000
# 5 0.0000 0.0000 0.0000 0.0000 26.9566 0.0000
# 6 0.0000 0.0000 0.0000 0.0000 0.0000 27.2047
#
#
#
# Elastic Compliance Matrix: (Units=1/GPa)
#
#
# Indices 1 2 3 4 5 6 
#
# 1 0.013612 -0.001261 -0.004501 0.000000 0.000000 0.000000
# 2 -0.001261 0.013612 -0.004501 0.000000 0.000000 0.000000
# 3 -0.004501 -0.004501 0.014001 0.000000 0.000000 0.000000
# 4 0.000000 0.000000 0.000000 0.037097 0.000000 0.000000
# 5 0.000000 0.000000 0.000000 0.000000 0.037097 0.000000
# 6 0.000000 0.000000 0.000000 0.000000 0.000000 0.036758
#
#
# Mechanical properties :
#
#
# Convention : Reuss Voigt Hill
#
# Bulk Modulus (GPa) = 48.30822 48.96654 48.63738
# Shear Modulus (GPa) = 27.83931 28.15795 27.99863
#
# Velocity S-wave (km/s) = 3.72624 3.74750 3.73689
# Velocity P-wave (km/s) = 6.52739 6.56865 6.54805
#
# Compressibility (1/GPa) = 0.02070041
#
# Stress axis : x y z
#
# Youngs Moduli (GPa) = 73.46409 73.46525 71.42120
#
# Poissons Ratio (x) = 0.09267 0.32143
# Poissons Ratio (y) = 0.09267 0.32143
# Poissons Ratio (z) = 0.33063 0.33063
#
# Static dielectric constant tensor:
#      x y z
#    x 1.742180 0.000000 0.000000 
#    y 0.000000 1.742180 0.000000 
#    z 0.000000 0.000000 1.703510 
# 
# From -- ./inp_files/3974.got.cif
#   From: 2010.05.17/outbox.cif.g08.bks.cpg/sg91_2_cif.got.tgz:3974.got - 2010.06.03 19:20:03.
