data_PCOD9548045
_publ_section_title
;
Structure prediction by ZEFSAII (Michael W. Deem and Ramdas Pophale) SiO2 
 PCOD9548045
Probable space group: P 41 2 2
;
_chemical_formula_sum "Si O2"
_cell_formula_units_Z 40
_cell_length_a 9.891985
_cell_length_b 9.891985
_cell_length_c 20.482998
_cell_angle_alpha 90.000000
_cell_angle_beta 90.000000
_cell_angle_gamma 90.000000
_cell_volume 2004.289359
_symmetry_space_group_name_H-M "P 41 2 2"
_symmetry_group_IT_number 91
_symmetry_cell_setting 'tetragonal'
loop_
_space_group_symop_operation_xyz
x,y,z
-y,x,1/4+z
-x,-y,1/2+z
y,-x,3/4+z
x,-y,1/2-z
-x,y,-z
y,x,3/4-z
-y,-x,1/4-z
loop_
_atom_site_type_symbol
_atom_site_label
_atom_site_fract_x
_atom_site_fract_y
_atom_site_fract_z
Si Si1 0.452300 0.981583 0.853701
Si Si2 0.617965 0.634058 0.952202
Si Si3 0.604047 0.783571 0.259676
Si Si4 0.890290 0.656206 0.271560
Si Si5 0.258902 0.906953 0.084425
O O1 0.462396 0.121681 0.814418
O O2 0.361255 0.013404 0.916149
O O3 0.382985 0.875871 0.805032
O O4 0.601343 0.930011 0.874392
O O5 0.596614 0.596614 0.875000
O O6 0.718644 0.761541 0.950007
O O7 0.500000 0.684515 0.000000
O O8 0.670736 0.501426 0.988220
O O9 0.746217 0.724918 0.282952
O O10 0.866792 0.500000 0.250000
O O11 0.970986 0.737783 0.216131
O O12 0.122671 0.877330 0.125000
#
# Coordination Sequence:
#
# PCOD9548045 Si02
#       5
#     8   8   8   8   8
#     4  10  21  41  62  84 131 168 210 265 328 393
#     4  11  22  37  63  97 129 161 219 278 334 395
#     4  11  22  38  63  92 122 173 216 261 330 396
#     4  10  22  40  63  91 133 168 211 272 334 389
#     4  10  20  42  64  93 122 174 216 266 337 397
#
# _framework density 19.957198999999999
#
# number of rings (size 3 to 8) (size 9 to 14) (size 15 to 20)
#    0.000    1.600    4.000    3.000    0.000    4.800 
#    0.000    4.000    0.000    0.000    0.000    0.000 
#    0.000    0.000    0.000    0.000    0.000    0.000 
#
# Total GULP energy -222985.527277 kJ/mol
# GULP energy per Si atom -5574.638182 kJ/mol
# Density = 1.991178 g / cm^3
# Si number density = 19.957199 Si / 1000 Ang^3
#
#
#
# Elastic Constant Matrix: (Units=GPa)
#
#
# Indices 1 2 3 4 5 6 
#
# 1 44.4048 24.1067 4.4518 0.0000 0.0000 0.0000
# 2 24.1067 44.4042 4.4516 0.0000 0.0000 0.0000
# 3 4.4518 4.4516 32.5945 0.0000 0.0000 0.0000
# 4 0.0000 0.0000 0.0000 9.4918 0.0000 0.0000
# 5 0.0000 0.0000 0.0000 0.0000 9.4923 0.0000
# 6 0.0000 0.0000 0.0000 0.0000 0.0000 21.6245
#
#
#
# Elastic Compliance Matrix: (Units=1/GPa)
#
#
# Indices 1 2 3 4 5 6 
#
# 1 0.032063 -0.017203 -0.002030 0.000000 0.000000 0.000000
# 2 -0.017203 0.032063 -0.002029 0.000000 0.000000 0.000000
# 3 -0.002030 -0.002029 0.031234 0.000000 0.000000 0.000000
# 4 0.000000 0.000000 0.000000 0.105354 0.000000 0.000000
# 5 0.000000 0.000000 0.000000 0.000000 0.105349 0.000000
# 6 0.000000 0.000000 0.000000 0.000000 0.000000 0.046244
#
#
# Mechanical properties :
#
#
# Convention : Reuss Voigt Hill
#
# Bulk Modulus (GPa) = 18.92647 20.82486 19.87567
# Shear Modulus (GPa) = 12.12285 14.01461 13.06873
#
# Velocity S-wave (km/s) = 2.46731 2.65284 2.56176
# Velocity P-wave (km/s) = 4.19773 4.45431 4.32792
#
# Compressibility (1/GPa) = 0.05283605
#
# Stress axis : x y z
#
# Youngs Moduli (GPa) = 31.18860 31.18825 32.01597
#
# Poissons Ratio (x) = 0.53654 0.06498
# Poissons Ratio (y) = 0.53655 0.06498
# Poissons Ratio (z) = 0.06330 0.06330
#
# Static dielectric constant tensor:
#      x y z
#    x 1.696500 0.000000 0.000000 
#    y 0.000000 1.696500 0.000000 
#    z 0.000000 0.000000 1.767710 
# 
# From -- ./inp_files/6788.got.cif
#   From: 2010.05.17/outbox.cif.g08.bks.cpg/sg91_4_cif.got.tgz:6788.got - 2010.06.03 19:20:03.
