data_PCOD9548347
_publ_section_title
;
Structure prediction by ZEFSAII (Michael W. Deem and Ramdas Pophale) SiO2 
 PCOD9548347
Probable space group: P 41 2 2
;
_chemical_formula_sum "Si O2"
_cell_formula_units_Z 32
_cell_length_a 11.918555
_cell_length_b 11.918555
_cell_length_c 10.146447
_cell_angle_alpha 90.000000
_cell_angle_beta 90.000000
_cell_angle_gamma 90.000000
_cell_volume 1441.322615
_symmetry_space_group_name_H-M "P 41 2 2"
_symmetry_group_IT_number 91
_symmetry_cell_setting 'tetragonal'
loop_
_space_group_symop_operation_xyz
x,y,z
-y,x,1/4+z
-x,-y,1/2+z
y,-x,3/4+z
x,-y,1/2-z
-x,y,-z
y,x,3/4-z
-y,-x,1/4-z
loop_
_atom_site_type_symbol
_atom_site_label
_atom_site_fract_x
_atom_site_fract_y
_atom_site_fract_z
Si Si1 0.292718 0.178081 0.036113
Si Si2 0.235533 0.055124 0.390122
Si Si3 0.135154 0.622658 0.512965
Si Si4 0.236561 0.397925 0.428491
O O1 0.352779 0.211026 0.172949
O O2 0.245720 0.051488 0.018972
O O3 0.378894 0.181056 0.914167
O O4 0.184067 0.257453 0.030197
O O5 0.118260 0.118260 0.375000
O O6 0.328904 0.149032 0.412974
O O7 0.262418 0.000000 0.250000
O O8 0.200556 0.526307 0.432913
O O9 0.000000 0.608828 0.500000
O O10 0.357479 0.357479 0.375000
#
# Coordination Sequence:
#
# PCOD9548347 Si02
#       4
#     8   8   8   8
#     4  10  23  41  61 100 137 171 228 289 349 425
#     4   9  19  35  59  89 126 170 216 276 338 410
#     4  11  24  40  67  99 136 182 224 288 359 424
#     4  10  22  42  67  94 125 176 238 285 341 415
#
# _framework density 22.201830000000001
#
# number of rings (size 3 to 8) (size 9 to 14) (size 15 to 20)
#    0.000    2.000    0.000    3.000   10.500    2.000 
#    0.000    0.000   16.500    0.000    0.000    0.000 
#    0.000    0.000    0.000    0.000    0.000    0.000 
#
# Total GULP energy -178405.260372 kJ/mol
# GULP energy per Si atom -5575.164387 kJ/mol
# Density = 2.215130 g / cm^3
# Si number density = 22.201830 Si / 1000 Ang^3
#
#
#
# Elastic Constant Matrix: (Units=GPa)
#
#
# Indices 1 2 3 4 5 6 
#
# 1 103.0531 47.6128 17.3825 0.0000 0.0000 0.0000
# 2 47.6128 103.0531 17.3825 0.0000 0.0000 0.0000
# 3 17.3825 17.3825 71.4693 0.0000 0.0000 0.0000
# 4 0.0000 0.0000 0.0000 31.2105 0.0000 0.0000
# 5 0.0000 0.0000 0.0000 0.0000 31.2105 0.0000
# 6 0.0000 0.0000 0.0000 0.0000 0.0000 13.6605
#
#
#
# Elastic Compliance Matrix: (Units=1/GPa)
#
#
# Indices 1 2 3 4 5 6 
#
# 1 0.012535 -0.005503 -0.001710 0.000000 0.000000 0.000000
# 2 -0.005503 0.012535 -0.001710 0.000000 0.000000 0.000000
# 3 -0.001710 -0.001710 0.014824 0.000000 0.000000 0.000000
# 4 0.000000 0.000000 0.000000 0.032040 0.000000 0.000000
# 5 0.000000 0.000000 0.000000 0.000000 0.032040 0.000000
# 6 0.000000 0.000000 0.000000 0.000000 0.000000 0.073204
#
#
# Mechanical properties :
#
#
# Convention : Reuss Voigt Hill
#
# Bulk Modulus (GPa) = 45.35848 49.14789 47.25318
# Shear Modulus (GPa) = 24.70679 28.22950 26.46814
#
# Velocity S-wave (km/s) = 3.33952 3.56967 3.45651
# Velocity P-wave (km/s) = 5.94511 6.25899 6.10407
#
# Compressibility (1/GPa) = 0.02204659
#
# Stress axis : x y z
#
# Youngs Moduli (GPa) = 79.77911 79.77911 67.45839
#
# Poissons Ratio (x) = 0.43901 0.11537
# Poissons Ratio (y) = 0.43901 0.11537
# Poissons Ratio (z) = 0.13644 0.13644
#
# Static dielectric constant tensor:
#      x y z
#    x 1.856350 0.000000 0.000000 
#    y 0.000000 1.856350 0.000000 
#    z 0.000000 0.000000 2.009510 
# 
# From -- ./inp_files/3345.got.cif
#   From: 2010.05.17/outbox.cif.g08.bks.cpg/sg91_2_cif.got.tgz:3345.got - 2010.06.03 19:20:03.
