data_PCOD9548586
_publ_section_title
;
Structure prediction by ZEFSAII (Michael W. Deem and Ramdas Pophale) SiO2 
 PCOD9548586
Probable space group: P 41 2 2
;
_chemical_formula_sum "Si O2"
_cell_formula_units_Z 40
_cell_length_a 15.488534
_cell_length_b 15.488534
_cell_length_c 7.706344
_cell_angle_alpha 90.000000
_cell_angle_beta 90.000000
_cell_angle_gamma 90.000000
_cell_volume 1848.710970
_symmetry_space_group_name_H-M "P 41 2 2"
_symmetry_group_IT_number 91
_symmetry_cell_setting 'tetragonal'
loop_
_space_group_symop_operation_xyz
x,y,z
-y,x,1/4+z
-x,-y,1/2+z
y,-x,3/4+z
x,-y,1/2-z
-x,y,-z
y,x,3/4-z
-y,-x,1/4-z
loop_
_atom_site_type_symbol
_atom_site_label
_atom_site_fract_x
_atom_site_fract_y
_atom_site_fract_z
Si Si1 0.831583 0.831583 0.375000
Si Si2 0.148662 0.015204 0.430095
Si Si3 0.000000 0.611283 0.500000
Si Si4 0.418713 0.581288 0.125000
Si Si5 0.853962 0.279124 0.815561
Si Si6 0.119112 0.500000 0.750000
Si Si7 0.430049 0.778783 0.161522
O O1 0.761244 0.805568 0.229452
O O2 0.930659 0.834059 0.297727
O O3 0.053933 0.053933 0.375000
O O4 0.192719 0.097902 0.508972
O O5 0.196317 0.000000 0.250000
O O6 0.069327 0.664354 0.393143
O O7 0.055551 0.561262 0.642441
O O8 0.424830 0.500000 0.250000
O O9 0.425301 0.677255 0.203930
O O10 0.808313 0.338128 0.671812
O O11 0.173076 0.455637 0.591135
O O12 0.500000 0.791737 0.000000
#
# Coordination Sequence:
#
# PCOD9548586 Si02
#       7
#     4   8   4   4   8   4   8
#     4  12  26  46  67 105 148 202 258 328 390 440
#     4  12  27  41  66  95 140 200 256 313 369 445
#     4  12  24  44  72 106 140 198 252 310 396 450
#     4  10  26  50  83 119 158 194 250 312 396 494
#     4  12  26  45  69 106 149 194 260 318 385 457
#     4  12  26  48  82 104 154 198 250 324 388 470
#     4  11  26  51  75 116 148 192 251 306 389 480
#
# _framework density 21.636696000000001
#
# number of rings (size 3 to 8) (size 9 to 14) (size 15 to 20)
#    0.000    0.400    6.000    1.200    7.000    1.600 
#    0.000    0.000    0.000    0.000    0.000    0.000 
#    0.000    0.000    0.000    0.000    0.000    0.000 
#
# Total GULP energy -222703.282745 kJ/mol
# GULP energy per Si atom -5567.582069 kJ/mol
# Density = 2.158745 g / cm^3
# Si number density = 21.636696 Si / 1000 Ang^3
#
#
#
# Elastic Constant Matrix: (Units=GPa)
#
#
# Indices 1 2 3 4 5 6 
#
# 1 351.1725 -250.8420 51.8343 0.0000 0.0000 0.0000
# 2 -250.8420 351.1809 51.8308 0.0000 0.0000 0.0000
# 3 51.8343 51.8308 147.8029 0.0000 0.0000 0.0000
# 4 0.0000 0.0000 0.0000 113.0316 0.0000 0.0000
# 5 0.0000 0.0000 0.0000 0.0000 113.0305 0.0000
# 6 0.0000 0.0000 0.0000 0.0000 0.0000 39.8754
#
#
#
# Elastic Compliance Matrix: (Units=1/GPa)
#
#
# Indices 1 2 3 4 5 6 
#
# 1 0.008646 0.006984 -0.005481 0.000000 0.000000 0.000000
# 2 0.006984 0.008645 -0.005481 0.000000 0.000000 0.000000
# 3 -0.005481 -0.005481 0.010610 0.000000 0.000000 0.000000
# 4 0.000000 0.000000 0.000000 0.008847 0.000000 0.000000
# 5 0.000000 0.000000 0.000000 0.000000 0.008847 0.000000
# 6 0.000000 0.000000 0.000000 0.000000 0.000000 0.025078
#
#
# Mechanical properties :
#
#
# Convention : Reuss Voigt Hill
#
# Bulk Modulus (GPa) = 50.13792 61.75581 55.94687
# Shear Modulus (GPa) = 58.63213 119.67639 89.15426
#
# Velocity S-wave (km/s) = 5.21127 7.44526 6.42609
# Velocity P-wave (km/s) = 7.70926 10.12488 8.99850
#
# Compressibility (1/GPa) = 0.01994498
#
# Stress axis : x y z
#
# Youngs Moduli (GPa) = 115.66663 115.67042 94.24996
#
# Poissons Ratio (x) = -0.80788 0.51660
# Poissons Ratio (y) = -0.80785 0.51659
# Poissons Ratio (z) = 0.63399 0.63400
#
# Static dielectric constant tensor:
#      x y z
#    x 1.789130 0.000000 0.000000 
#    y 0.000000 1.789130 0.000000 
#    z 0.000000 0.000000 2.124170 
# 
# From -- ./inp_files/9798.got.cif
#   From: 2010.05.17/outbox.cif.g08.bks.cpg/sg91_5_cif.got.tgz:9798.got - 2010.06.03 19:20:03.
