data_PCOD9548247
_publ_section_title
;
Structure prediction by ZEFSAII (Michael W. Deem and Ramdas Pophale) SiO2 
 PCOD9548247
Probable space group: P 41 2 2
;
_chemical_formula_sum "Si O2"
_cell_formula_units_Z 48
_cell_length_a 15.279290
_cell_length_b 15.279290
_cell_length_c 10.720362
_cell_angle_alpha 90.000000
_cell_angle_beta 90.000000
_cell_angle_gamma 90.000000
_cell_volume 2502.740366
_symmetry_space_group_name_H-M "P 41 2 2"
_symmetry_group_IT_number 91
_symmetry_cell_setting 'tetragonal'
loop_
_space_group_symop_operation_xyz
x,y,z
-y,x,1/4+z
-x,-y,1/2+z
y,-x,3/4+z
x,-y,1/2-z
-x,y,-z
y,x,3/4-z
-y,-x,1/4-z
loop_
_atom_site_type_symbol
_atom_site_label
_atom_site_fract_x
_atom_site_fract_y
_atom_site_fract_z
Si Si1 0.106157 0.872435 0.990490
Si Si2 0.313539 0.880325 0.355523
Si Si3 0.809238 0.333605 0.150481
Si Si4 0.079294 0.620483 0.152775
Si Si5 0.812719 0.957074 0.380646
Si Si6 0.907712 0.418265 0.931088
O O1 0.145971 0.854030 0.125000
O O2 0.122773 0.792743 0.895999
O O3 0.000000 0.884868 0.000000
O O4 0.156921 0.960726 0.959784
O O5 0.361127 0.815822 0.453765
O O6 0.335455 0.866817 0.209408
O O7 0.346675 0.979013 0.386187
O O8 0.721842 0.278159 0.125000
O O9 0.890861 0.265778 0.154887
O O10 0.834499 0.397495 0.036301
O O11 0.103041 0.633208 0.299006
O O12 0.086244 0.518443 0.114974
O O13 0.898174 0.898174 0.375000
O O14 0.792217 0.000000 0.250000
O O15 0.000000 0.401394 0.000000
#
# Coordination Sequence:
#
# PCOD9548247 Si02
#       6
#     8   8   8   8   8   8
#     4  12  22  33  49  67  97 147 189 249 291 326
#     4  11  21  35  52  75 107 126 187 250 290 357
#     4  11  24  38  54  79 108 150 187 242 300 347
#     4  10  22  36  57  85  95 135 189 249 300 330
#     4  11  22  34  44  62  94 138 194 228 275 324
#     4  11  20  37  62  78 105 136 187 252 294 353
#
# _framework density 19.178978000000001
#
# number of rings (size 3 to 8) (size 9 to 14) (size 15 to 20)
#    0.000    1.000    5.000    5.500    0.000    2.000 
#    0.000    0.000    0.000    0.000    0.000    0.000 
#    0.000    0.000    0.000    0.000    0.000   33.333 
#
# Total GULP energy -267617.870473 kJ/mol
# GULP energy per Si atom -5575.372302 kJ/mol
# Density = 1.913533 g / cm^3
# Si number density = 19.178978 Si / 1000 Ang^3
#
#
#
# Elastic Constant Matrix: (Units=GPa)
#
#
# Indices 1 2 3 4 5 6 
#
# 1 53.1117 5.7852 12.9802 0.0000 0.0000 0.0000
# 2 5.7852 53.1109 12.9799 0.0000 0.0000 0.0000
# 3 12.9802 12.9799 134.7325 0.0000 0.0000 0.0000
# 4 0.0000 0.0000 0.0000 22.7847 0.0000 0.0000
# 5 0.0000 0.0000 0.0000 0.0000 22.7849 0.0000
# 6 0.0000 0.0000 0.0000 0.0000 0.0000 -3.1673
#
#
#
# Elastic Compliance Matrix: (Units=1/GPa)
#
#
# Indices 1 2 3 4 5 6 
#
# 1 0.019431 -0.001699 -0.001708 0.000000 0.000000 0.000000
# 2 -0.001699 0.019431 -0.001708 0.000000 0.000000 0.000000
# 3 -0.001708 -0.001708 0.007751 0.000000 0.000000 0.000000
# 4 0.000000 0.000000 0.000000 0.043889 0.000000 0.000000
# 5 0.000000 0.000000 0.000000 0.000000 0.043889 0.000000
# 6 0.000000 0.000000 0.000000 0.000000 0.000000 -0.315725
#
#
# Mechanical properties :
#
#
# Convention : Reuss Voigt Hill
#
# Bulk Modulus (GPa) = 27.48615 33.82728 30.65672
# Shear Modulus (GPa) = -31.45144 22.42777 -4.51183
#
# Velocity S-wave (km/s) = -4.05395 3.42335 -1.53545
# Velocity P-wave (km/s) = 2.74776 5.77077 3.58828
#
# Compressibility (1/GPa) = 0.03638196
#
# Stress axis : x y z
#
# Youngs Moduli (GPa) = 51.46470 51.46395 129.01120
#
# Poissons Ratio (x) = 0.08744 0.22039
# Poissons Ratio (y) = 0.08744 0.22039
# Poissons Ratio (z) = 0.08792 0.08791
#
# Static dielectric constant tensor:
#      x y z
#    x 1.688630 0.000000 0.000000 
#    y 0.000000 1.688630 0.000000 
#    z 0.000000 0.000000 2.037900 
# 
# From -- ./inp_files/20237.got.cif
#   From: 2010.05.17/outbox.cif.g08.bks.cpg/sg91_11_cif.got.tgz:20237.got - 2010.06.03 19:20:03.
