data_PCOD9548211
_publ_section_title
;
Structure prediction by ZEFSAII (Michael W. Deem and Ramdas Pophale) SiO2 
 PCOD9548211
Probable space group: P 41 2 2
;
_chemical_formula_sum "Si O2"
_cell_formula_units_Z 48
_cell_length_a 9.411002
_cell_length_b 9.411002
_cell_length_c 24.808104
_cell_angle_alpha 90.000000
_cell_angle_beta 90.000000
_cell_angle_gamma 90.000000
_cell_volume 2197.178321
_symmetry_space_group_name_H-M "P 41 2 2"
_symmetry_group_IT_number 91
_symmetry_cell_setting 'tetragonal'
loop_
_space_group_symop_operation_xyz
x,y,z
-y,x,1/4+z
-x,-y,1/2+z
y,-x,3/4+z
x,-y,1/2-z
-x,y,-z
y,x,3/4-z
-y,-x,1/4-z
loop_
_atom_site_type_symbol
_atom_site_label
_atom_site_fract_x
_atom_site_fract_y
_atom_site_fract_z
Si Si1 0.348734 0.126466 0.981735
Si Si2 0.187974 0.667248 0.247129
Si Si3 0.826802 0.689520 0.553934
Si Si4 0.178730 0.663233 0.901798
Si Si5 0.641824 0.896096 0.802779
Si Si6 0.345163 0.114591 0.859954
O O1 0.227105 0.239500 0.998154
O O2 0.500000 0.188164 0.000000
O O3 0.376589 0.066730 0.921404
O O4 0.313810 0.979599 0.011100
O O5 0.219393 0.500000 0.250000
O O6 0.249645 0.741647 0.301288
O O7 0.264042 0.757220 0.201014
O O8 0.713603 0.747522 0.597165
O O9 0.840125 0.519465 0.553594
O O10 0.985547 0.722301 0.576116
O O11 0.179421 0.492784 0.911962
O O12 0.008393 0.687308 0.901706
O O13 0.653572 0.000000 0.750000
O O14 0.236243 0.236243 0.875000
#
# Coordination Sequence:
#
# PCOD9548211 Si02
#       6
#     8   8   8   8   8   8
#     4  11  23  41  66  94 127 167 214 268 318 382
#     4  10  22  41  66  91 124 165 216 261 315 381
#     4  11  23  40  65  91 127 166 209 261 322 380
#     4  10  21  43  62  88 131 163 203 267 319 376
#     4   9  22  40  61  88 127 166 202 258 320 371
#     4  11  25  41  62  96 129 166 214 265 321 383
#
# _framework density 21.8462
#
# number of rings (size 3 to 8) (size 9 to 14) (size 15 to 20)
#    0.000    1.667    3.333    0.000    7.000    3.333 
#    3.000    1.667    0.000    0.000    0.000    0.000 
#    0.000    0.000    0.000    0.000    0.000    0.000 
#
# Total GULP energy -267568.715101 kJ/mol
# GULP energy per Si atom -5574.348231 kJ/mol
# Density = 2.179648 g / cm^3
# Si number density = 21.846200 Si / 1000 Ang^3
#
#
#
# Elastic Constant Matrix: (Units=GPa)
#
#
# Indices 1 2 3 4 5 6 
#
# 1 87.0599 72.8501 2.5319 0.0000 0.0000 0.0000
# 2 72.8501 87.0599 2.5319 0.0000 0.0000 0.0000
# 3 2.5319 2.5319 40.9827 0.0000 0.0000 0.0000
# 4 0.0000 0.0000 0.0000 32.8052 0.0000 0.0000
# 5 0.0000 0.0000 0.0000 0.0000 32.8052 0.0000
# 6 0.0000 0.0000 0.0000 0.0000 0.0000 40.5619
#
#
#
# Elastic Compliance Matrix: (Units=1/GPa)
#
#
# Indices 1 2 3 4 5 6 
#
# 1 0.038320 -0.032054 -0.000387 0.000000 0.000000 0.000000
# 2 -0.032054 0.038320 -0.000387 0.000000 0.000000 0.000000
# 3 -0.000387 -0.000387 0.024448 0.000000 0.000000 0.000000
# 4 0.000000 0.000000 0.000000 0.030483 0.000000 0.000000
# 5 0.000000 0.000000 0.000000 0.000000 0.030483 0.000000
# 6 0.000000 0.000000 0.000000 0.000000 0.000000 0.024654
#
#
# Mechanical properties :
#
#
# Convention : Reuss Voigt Hill
#
# Bulk Modulus (GPa) = 28.22346 41.21446 34.71896
# Shear Modulus (GPa) = 18.92688 30.38039 24.65363
#
# Velocity S-wave (km/s) = 2.94661 3.73319 3.36297
# Velocity P-wave (km/s) = 4.95216 6.12282 5.56834
#
# Compressibility (1/GPa) = 0.03543152
#
# Stress axis : x y z
#
# Youngs Moduli (GPa) = 26.09615 26.09615 40.90257
#
# Poissons Ratio (x) = 0.83649 0.01583
# Poissons Ratio (y) = 0.83649 0.01583
# Poissons Ratio (z) = 0.01010 0.01010
#
# Static dielectric constant tensor:
#      x y z
#    x 1.791420 0.000000 0.000000 
#    y 0.000000 1.791420 0.000000 
#    z 0.000000 0.000000 2.269020 
# 
# From -- ./inp_files/7942.got.cif
#   From: 2010.05.17/outbox.cif.g08.bks.cpg/sg91_4_cif.got.tgz:7942.got - 2010.06.03 19:20:03.
