data_PCOD9548129
_publ_section_title
;
Structure prediction by ZEFSAII (Michael W. Deem and Ramdas Pophale) SiO2 
 PCOD9548129
Probable space group: P 41 2 2
;
_chemical_formula_sum "Si O2"
_cell_formula_units_Z 60
_cell_length_a 12.610018
_cell_length_b 12.610018
_cell_length_c 19.321430
_cell_angle_alpha 90.000000
_cell_angle_beta 90.000000
_cell_angle_gamma 90.000000
_cell_volume 3072.349930
_symmetry_space_group_name_H-M "P 41 2 2"
_symmetry_group_IT_number 91
_symmetry_cell_setting 'tetragonal'
loop_
_space_group_symop_operation_xyz
x,y,z
-y,x,1/4+z
-x,-y,1/2+z
y,-x,3/4+z
x,-y,1/2-z
-x,y,-z
y,x,3/4-z
-y,-x,1/4-z
loop_
_atom_site_type_symbol
_atom_site_label
_atom_site_fract_x
_atom_site_fract_y
_atom_site_fract_z
Si Si1 0.258857 0.024028 0.650137
Si Si2 0.682479 0.733830 0.145517
Si Si3 0.076689 0.000000 0.750000
Si Si4 0.405652 0.138201 0.056429
Si Si5 0.211906 0.551641 0.115679
Si Si6 0.223492 0.025211 0.487103
Si Si7 0.981191 0.506674 0.422223
Si Si8 0.291342 0.737337 0.020282
O O1 0.273940 0.149296 0.666442
O O2 0.157596 0.976111 0.687687
O O3 0.246853 0.017894 0.568509
O O4 0.366975 0.967797 0.672698
O O5 0.747129 0.648100 0.189013
O O6 0.556642 0.731327 0.156417
O O7 0.700046 0.723121 0.062238
O O8 0.010301 0.102328 0.727664
O O9 0.454073 0.113687 0.131535
O O10 0.500000 0.127137 0.000000
O O11 0.310349 0.053279 0.045992
O O12 0.088402 0.519823 0.120275
O O13 0.229098 0.643365 0.058874
O O14 0.253863 0.597261 0.188368
O O15 0.239538 0.147221 0.465881
O O16 0.000000 0.468883 0.500000
#
# Coordination Sequence:
#
# PCOD9548129 Si02
#       8
#     8   8   4   8   8   8   8   8
#     4  10  21  38  63  86 125 174 214 252 316 396
#     4  10  22  40  64  94 123 166 218 268 324 389
#     4  12  22  42  60  90 138 170 210 258 328 406
#     4  12  23  41  67  95 134 167 218 281 333 391
#     4  10  21  39  64  92 123 170 215 266 326 392
#     4  11  23  41  61  96 125 174 213 261 330 389
#     4  11  21  36  63  93 128 169 226 273 319 386
#     4  10  21  42  65  91 127 164 221 271 327 390
#
# _framework density 19.529026000000002
#
# number of rings (size 3 to 8) (size 9 to 14) (size 15 to 20)
#    0.000    1.333    4.667    1.600    0.000    0.000 
#   10.800    2.667    0.000    0.000    0.000    0.000 
#    0.000    0.000    0.000    0.000    0.000    0.000 
#
# Total GULP energy -335012.921992 kJ/mol
# GULP energy per Si atom -5583.548700 kJ/mol
# Density = 1.948458 g / cm^3
# Si number density = 19.529026 Si / 1000 Ang^3
#
#
#
# Elastic Constant Matrix: (Units=GPa)
#
#
# Indices 1 2 3 4 5 6 
#
# 1 102.5058 52.8489 9.4130 0.0000 0.0000 0.0000
# 2 52.8489 102.5058 9.4130 0.0000 0.0000 0.0000
# 3 9.4130 9.4130 52.3536 0.0000 0.0000 0.0000
# 4 0.0000 0.0000 0.0000 24.4209 0.0000 0.0000
# 5 0.0000 0.0000 0.0000 0.0000 24.4209 0.0000
# 6 0.0000 0.0000 0.0000 0.0000 0.0000 20.2438
#
#
#
# Elastic Compliance Matrix: (Units=1/GPa)
#
#
# Indices 1 2 3 4 5 6 
#
# 1 0.013359 -0.006779 -0.001183 0.000000 0.000000 0.000000
# 2 -0.006779 0.013359 -0.001183 0.000000 0.000000 0.000000
# 3 -0.001183 -0.001183 0.019526 0.000000 0.000000 0.000000
# 4 0.000000 0.000000 0.000000 0.040948 0.000000 0.000000
# 5 0.000000 0.000000 0.000000 0.000000 0.040948 0.000000
# 6 0.000000 0.000000 0.000000 0.000000 0.000000 0.049398
#
#
# Mechanical properties :
#
#
# Convention : Reuss Voigt Hill
#
# Bulk Modulus (GPa) = 35.77256 44.52391 40.14824
# Shear Modulus (GPa) = 24.37263 26.19648 25.28456
#
# Velocity S-wave (km/s) = 3.53657 3.66650 3.60212
# Velocity P-wave (km/s) = 5.91894 6.38535 6.15656
#
# Compressibility (1/GPa) = 0.02795439
#
# Stress axis : x y z
#
# Youngs Moduli (GPa) = 74.85471 74.85471 51.21290
#
# Poissons Ratio (x) = 0.50744 0.06059
# Poissons Ratio (y) = 0.50744 0.06059
# Poissons Ratio (z) = 0.08856 0.08856
#
# Static dielectric constant tensor:
#      x y z
#    x 1.693140 0.000000 0.000000 
#    y 0.000000 1.693140 0.000000 
#    z 0.000000 0.000000 1.700230 
# 
# From -- ./inp_files/17360.got.cif
#   From: 2010.05.17/outbox.cif.g08.bks.cpg/sg91_9_cif.got.tgz:17360.got - 2010.06.03 19:20:03.
