data_PCOD9548095
_publ_section_title
;
Structure prediction by ZEFSAII (Michael W. Deem and Ramdas Pophale) SiO2 
 PCOD9548095
Probable space group: P 41 2 2
;
_chemical_formula_sum "Si O2"
_cell_formula_units_Z 40
_cell_length_a 15.846325
_cell_length_b 15.846325
_cell_length_c 10.105035
_cell_angle_alpha 90.000000
_cell_angle_beta 90.000000
_cell_angle_gamma 90.000000
_cell_volume 2537.435080
_symmetry_space_group_name_H-M "P 41 2 2"
_symmetry_group_IT_number 91
_symmetry_cell_setting 'tetragonal'
loop_
_space_group_symop_operation_xyz
x,y,z
-y,x,1/4+z
-x,-y,1/2+z
y,-x,3/4+z
x,-y,1/2-z
-x,y,-z
y,x,3/4-z
-y,-x,1/4-z
loop_
_atom_site_type_symbol
_atom_site_label
_atom_site_fract_x
_atom_site_fract_y
_atom_site_fract_z
Si Si1 0.642397 0.266793 0.245303
Si Si2 0.656729 0.523688 0.896594
Si Si3 0.590941 0.079599 0.158669
Si Si4 0.612203 0.925319 0.648014
Si Si5 0.311595 0.752427 0.254142
O O1 0.558661 0.324361 0.267014
O O2 0.621731 0.169934 0.211956
O O3 0.696397 0.273527 0.378848
O O4 0.694385 0.305616 0.125000
O O5 0.688488 0.500000 0.750000
O O6 0.562737 0.562737 0.875000
O O7 0.708838 0.600449 0.959118
O O8 0.488962 0.087361 0.160081
O O9 0.613804 0.000000 0.250000
O O10 0.623176 0.061836 0.009482
O O11 0.663934 0.843734 0.693182
O O12 0.633928 0.000000 0.750000
O O13 0.252669 0.747332 0.125000
#
# Coordination Sequence:
#
# PCOD9548095 Si02
#       5
#     8   8   8   8   8
#     4  12  23  38  59  77 114 148 191 251 276 334
#     4  11  22  37  49  74 106 150 202 232 270 324
#     4  10  22  37  57  82 108 145 187 237 300 339
#     4  10  21  37  56  81 109 140 191 235 285 353
#     4  11  22  37  56  78 109 152 190 231 286 327
#
# _framework density 15.763951
#
# number of rings (size 3 to 8) (size 9 to 14) (size 15 to 20)
#    0.000    1.200    8.000    0.000    2.800    1.600 
#    0.000    0.000    0.000    0.000    0.000    0.000 
#    0.000    4.800    0.000    0.000    0.000    0.000 
#
# Total GULP energy -223017.856988 kJ/mol
# GULP energy per Si atom -5575.446425 kJ/mol
# Density = 1.572807 g / cm^3
# Si number density = 15.763951 Si / 1000 Ang^3
#
#
#
# Elastic Constant Matrix: (Units=GPa)
#
#
# Indices 1 2 3 4 5 6 
#
# 1 101.2348 40.4637 61.9898 0.0000 0.0000 0.0000
# 2 40.4637 101.2345 61.9900 0.0000 0.0000 0.0000
# 3 61.9898 61.9900 151.2742 0.0000 0.0000 0.0000
# 4 0.0000 0.0000 0.0000 18.8683 0.0000 0.0000
# 5 0.0000 0.0000 0.0000 0.0000 18.8677 0.0000
# 6 0.0000 0.0000 0.0000 0.0000 0.0000 17.4694
#
#
#
# Elastic Compliance Matrix: (Units=1/GPa)
#
#
# Indices 1 2 3 4 5 6 
#
# 1 0.013729 -0.002727 -0.004508 0.000000 0.000000 0.000000
# 2 -0.002727 0.013729 -0.004508 0.000000 0.000000 0.000000
# 3 -0.004508 -0.004508 0.010305 0.000000 0.000000 0.000000
# 4 0.000000 0.000000 0.000000 0.052999 0.000000 0.000000
# 5 0.000000 0.000000 0.000000 0.000000 0.053001 0.000000
# 6 0.000000 0.000000 0.000000 0.000000 0.000000 0.057243
#
#
# Mechanical properties :
#
#
# Convention : Reuss Voigt Hill
#
# Bulk Modulus (GPa) = 70.04947 75.84783 72.94865
# Shear Modulus (GPa) = 21.81019 23.66109 22.73564
#
# Velocity S-wave (km/s) = 3.72364 3.87843 3.80182
# Velocity P-wave (km/s) = 7.93853 8.26290 8.10234
#
# Compressibility (1/GPa) = 0.01427562
#
# Stress axis : x y z
#
# Youngs Moduli (GPa) = 72.84104 72.84054 97.03580
#
# Poissons Ratio (x) = 0.19861 0.43747
# Poissons Ratio (y) = 0.19861 0.43748
# Poissons Ratio (z) = 0.32840 0.32840
#
# Static dielectric constant tensor:
#      x y z
#    x 1.511780 0.000000 0.000000 
#    y 0.000000 1.511780 0.000000 
#    z 0.000000 0.000000 1.550750 
# 
# From -- ./inp_files/2371.got.cif
#   From: 2010.05.17/outbox.cif.g08.bks.cpg/sg91_2_cif.got.tgz:2371.got - 2010.06.03 19:20:03.
