data_PCOD9548802
_publ_section_title
;
Structure prediction by ZEFSAII (Michael W. Deem and Ramdas Pophale) SiO2 
 PCOD9548802
Probable space group: P 41 2 2
;
_chemical_formula_sum "Si O2"
_cell_formula_units_Z 40
_cell_length_a 14.280483
_cell_length_b 14.280483
_cell_length_c 9.120470
_cell_angle_alpha 90.000000
_cell_angle_beta 90.000000
_cell_angle_gamma 90.000000
_cell_volume 1859.957464
_symmetry_space_group_name_H-M "P 41 2 2"
_symmetry_group_IT_number 91
_symmetry_cell_setting 'tetragonal'
loop_
_space_group_symop_operation_xyz
x,y,z
-y,x,1/4+z
-x,-y,1/2+z
y,-x,3/4+z
x,-y,1/2-z
-x,y,-z
y,x,3/4-z
-y,-x,1/4-z
loop_
_atom_site_type_symbol
_atom_site_label
_atom_site_fract_x
_atom_site_fract_y
_atom_site_fract_z
Si Si1 0.573431 0.821583 0.125443
Si Si2 0.000000 0.470647 0.500000
Si Si3 0.425459 0.279349 0.902946
Si Si4 0.828429 0.202605 0.800098
Si Si5 0.767571 0.000000 0.250000
Si Si6 0.902527 0.335333 0.275285
O O1 0.539564 0.918042 0.199857
O O2 0.543451 0.743670 0.241700
O O3 0.683245 0.818208 0.077021
O O4 0.500000 0.808825 0.000000
O O5 0.026544 0.400336 0.633096
O O6 0.329041 0.329041 0.875000
O O7 0.500000 0.333615 0.000000
O O8 0.401315 0.183869 0.984932
O O9 0.823039 0.176962 0.625000
O O10 0.745792 0.142413 0.874238
O O11 0.922129 0.180643 0.897326
O O12 0.710094 0.944256 0.377095
#
# Coordination Sequence:
#
# PCOD9548802 Si02
#       6
#     8   4   8   8   4   8
#     4  12  25  41  68 107 147 186 245 303 370 446
#     4  12  27  42  72 121 148 186 248 323 368 450
#     4  12  25  46  70 100 144 199 248 301 380 445
#     4  12  26  45  72 109 158 201 241 306 387 455
#     4  12  23  42  76 105 144 194 254 291 366 454
#     4  12  24  46  72 111 155 193 239 309 388 446
#
# _framework density 21.505868
#
# number of rings (size 3 to 8) (size 9 to 14) (size 15 to 20)
#    0.000    0.000    6.000    4.800    2.800    0.000 
#    0.000    1.000    0.000   14.400    0.000    0.000 
#    0.000    0.000    0.000    0.000    0.000    0.000 
#
# Total GULP energy -223234.749498 kJ/mol
# GULP energy per Si atom -5580.868737 kJ/mol
# Density = 2.145692 g / cm^3
# Si number density = 21.505868 Si / 1000 Ang^3
#
#
#
# Elastic Constant Matrix: (Units=GPa)
#
#
# Indices 1 2 3 4 5 6 
#
# 1 63.7475 36.3262 40.2613 0.0000 0.0000 0.0000
# 2 36.3262 63.7476 40.2613 0.0000 0.0000 0.0000
# 3 40.2613 40.2613 167.1502 0.0000 0.0000 0.0000
# 4 0.0000 0.0000 0.0000 43.8122 0.0000 0.0000
# 5 0.0000 0.0000 0.0000 0.0000 43.8122 0.0000
# 6 0.0000 0.0000 0.0000 0.0000 0.0000 57.6572
#
#
#
# Elastic Compliance Matrix: (Units=1/GPa)
#
#
# Indices 1 2 3 4 5 6 
#
# 1 0.024431 -0.012037 -0.002986 0.000000 0.000000 0.000000
# 2 -0.012037 0.024431 -0.002986 0.000000 0.000000 0.000000
# 3 -0.002986 -0.002986 0.007421 0.000000 0.000000 0.000000
# 4 0.000000 0.000000 0.000000 0.022825 0.000000 0.000000
# 5 0.000000 0.000000 0.000000 0.000000 0.022825 0.000000
# 6 0.000000 0.000000 0.000000 0.000000 0.000000 0.017344
#
#
# Mechanical properties :
#
#
# Convention : Reuss Voigt Hill
#
# Bulk Modulus (GPa) = 49.33765 58.70476 54.02120
# Shear Modulus (GPa) = 30.85498 40.90943 35.88221
#
# Velocity S-wave (km/s) = 3.79188 4.36621 4.08914
# Velocity P-wave (km/s) = 6.49326 7.26462 6.88974
#
# Compressibility (1/GPa) = 0.02026850
#
# Stress axis : x y z
#
# Youngs Moduli (GPa) = 40.93087 40.93093 134.75470
#
# Poissons Ratio (x) = 0.49267 0.40232
# Poissons Ratio (y) = 0.49267 0.40232
# Poissons Ratio (z) = 0.12220 0.12220
#
# Static dielectric constant tensor:
#      x y z
#    x 1.690870 0.000000 0.000000 
#    y 0.000000 1.690870 0.000000 
#    z 0.000000 0.000000 0.728060 
# 
# From -- ./inp_files/19472.got.cif
#   From: 2010.05.17/outbox.cif.g08.bks.cpg/sg91_10_cif.got.tgz:19472.got - 2010.06.03 19:20:03.
