data_PCOD9548191
_publ_section_title
;
Structure prediction by ZEFSAII (Michael W. Deem and Ramdas Pophale) SiO2 
 PCOD9548191
Probable space group: P 41 2 2
;
_chemical_formula_sum "Si O2"
_cell_formula_units_Z 36
_cell_length_a 11.960040
_cell_length_b 11.960040
_cell_length_c 11.263966
_cell_angle_alpha 90.000000
_cell_angle_beta 90.000000
_cell_angle_gamma 90.000000
_cell_volume 1611.226496
_symmetry_space_group_name_H-M "P 41 2 2"
_symmetry_group_IT_number 91
_symmetry_cell_setting 'tetragonal'
loop_
_space_group_symop_operation_xyz
x,y,z
-y,x,1/4+z
-x,-y,1/2+z
y,-x,3/4+z
x,-y,1/2-z
-x,y,-z
y,x,3/4-z
-y,-x,1/4-z
loop_
_atom_site_type_symbol
_atom_site_label
_atom_site_fract_x
_atom_site_fract_y
_atom_site_fract_z
Si Si1 0.269329 0.142603 0.161249
Si Si2 0.000000 0.326076 0.000000
Si Si3 0.767369 0.581110 0.893648
Si Si4 0.355694 0.744483 0.741224
Si Si5 0.923838 0.732360 0.757100
O O1 0.378400 0.165612 0.239205
O O2 0.166226 0.168843 0.248617
O O3 0.264618 0.239600 0.062508
O O4 0.261293 0.023984 0.099502
O O5 0.025417 0.267216 0.124904
O O6 0.877675 0.377566 0.030559
O O7 0.663387 0.663387 0.875000
O O8 0.853495 0.619262 0.789008
O O9 0.717869 0.459435 0.922163
O O10 0.332225 0.667776 0.625000
#
# Coordination Sequence:
#
# PCOD9548191 Si02
#       5
#     8   4   8   8   8
#     4  10  22  42  69  99 141 185 243 296 371 439
#     4  10  22  38  70 100 138 186 234 302 356 432
#     4  10  24  44  70 103 142 189 238 297 357 438
#     4  11  23  44  69 108 140 185 238 300 367 435
#     4  10  21  41  70  99 142 186 243 302 365 439
#
# _framework density 22.343228
#
# number of rings (size 3 to 8) (size 9 to 14) (size 15 to 20)
#    0.000    1.778    2.222    0.667    3.111    8.889 
#    0.000    3.333   97.778    0.000    0.000    0.000 
#    0.000    0.000    0.000    0.000    0.000    0.000 
#
# Total GULP energy -200532.169566 kJ/mol
# GULP energy per Si atom -5570.338044 kJ/mol
# Density = 2.229237 g / cm^3
# Si number density = 22.343228 Si / 1000 Ang^3
#
#
#
# Elastic Constant Matrix: (Units=GPa)
#
#
# Indices 1 2 3 4 5 6 
#
# 1 123.5147 37.4334 45.2612 0.0000 0.0000 0.0000
# 2 37.4334 123.5154 45.2619 0.0000 0.0000 0.0000
# 3 45.2612 45.2619 122.8260 0.0000 0.0000 0.0000
# 4 0.0000 0.0000 0.0000 15.9760 0.0000 0.0000
# 5 0.0000 0.0000 0.0000 0.0000 15.9759 0.0000
# 6 0.0000 0.0000 0.0000 0.0000 0.0000 10.8220
#
#
#
# Elastic Compliance Matrix: (Units=1/GPa)
#
#
# Indices 1 2 3 4 5 6 
#
# 1 0.009727 -0.001890 -0.002888 0.000000 0.000000 0.000000
# 2 -0.001890 0.009727 -0.002888 0.000000 0.000000 0.000000
# 3 -0.002888 -0.002888 0.010270 0.000000 0.000000 0.000000
# 4 0.000000 0.000000 0.000000 0.062594 0.000000 0.000000
# 5 0.000000 0.000000 0.000000 0.000000 0.062594 0.000000
# 6 0.000000 0.000000 0.000000 0.000000 0.000000 0.092404
#
#
# Mechanical properties :
#
#
# Convention : Reuss Voigt Hill
#
# Bulk Modulus (GPa) = 69.47969 69.52990 69.50480
# Shear Modulus (GPa) = 18.69534 24.68143 21.68839
#
# Velocity S-wave (km/s) = 2.89577 3.32723 3.11897
# Velocity P-wave (km/s) = 6.50728 6.77844 6.64424
#
# Compressibility (1/GPa) = 0.01439270
#
# Stress axis : x y z
#
# Youngs Moduli (GPa) = 102.80408 102.80434 97.36932
#
# Poissons Ratio (x) = 0.19427 0.28122
# Poissons Ratio (y) = 0.19426 0.28122
# Poissons Ratio (z) = 0.29691 0.29692
#
# Static dielectric constant tensor:
#      x y z
#    x 1.839580 0.000000 0.000000 
#    y 0.000000 1.839580 0.000000 
#    z 0.000000 0.000000 1.926940 
# 
# From -- ./inp_files/3513.got.cif
#   From: 2010.05.17/outbox.cif.g08.bks.cpg/sg91_2_cif.got.tgz:3513.got - 2010.06.03 19:20:03.
