data_PCOD9548512
_publ_section_title
;
Structure prediction by ZEFSAII (Michael W. Deem and Ramdas Pophale) SiO2 
 PCOD9548512
Probable space group: P 41 2 2
;
_chemical_formula_sum "Si O2"
_cell_formula_units_Z 48
_cell_length_a 10.747083
_cell_length_b 10.747083
_cell_length_c 18.087882
_cell_angle_alpha 90.000000
_cell_angle_beta 90.000000
_cell_angle_gamma 90.000000
_cell_volume 2089.146627
_symmetry_space_group_name_H-M "P 41 2 2"
_symmetry_group_IT_number 91
_symmetry_cell_setting 'tetragonal'
loop_
_space_group_symop_operation_xyz
x,y,z
-y,x,1/4+z
-x,-y,1/2+z
y,-x,3/4+z
x,-y,1/2-z
-x,y,-z
y,x,3/4-z
-y,-x,1/4-z
loop_
_atom_site_type_symbol
_atom_site_label
_atom_site_fract_x
_atom_site_fract_y
_atom_site_fract_z
Si Si1 0.067826 0.891648 0.426053
Si Si2 0.651829 0.819378 0.093452
Si Si3 0.672758 0.030594 0.975851
Si Si4 0.418044 0.543284 0.931123
Si Si5 0.522258 0.978824 0.829738
Si Si6 0.808336 0.622777 0.362487
O O1 0.138826 0.781262 0.381529
O O2 0.181377 0.971786 0.459847
O O3 0.000000 0.844144 0.500000
O O4 0.975671 0.975671 0.375000
O O5 0.636945 0.680746 0.063445
O O6 0.539535 0.846836 0.151511
O O7 0.636090 0.913014 0.025228
O O8 0.608088 0.023227 0.896727
O O9 0.627644 0.147314 0.026732
O O10 0.532224 0.532224 0.875000
O O11 0.301535 0.465967 0.895017
O O12 0.500000 0.494599 0.000000
O O13 0.407323 0.073926 0.837500
O O14 0.580213 0.000000 0.750000
O O15 0.760867 0.760867 0.375000
#
# Coordination Sequence:
#
# PCOD9548512 Si02
#       6
#     8   8   8   8   8   8
#     4  12  26  47  76 117 149 197 255 322 386 468
#     4  11  24  45  75 105 150 197 248 320 384 465
#     4  11  25  48  75 103 154 198 252 314 396 468
#     4  11  26  47  74 109 148 195 256 319 392 466
#     4  11  25  43  70 108 144 198 253 303 390 468
#     4  10  24  43  74 105 142 192 251 324 382 461
#
# _framework density 22.97589
#
# number of rings (size 3 to 8) (size 9 to 14) (size 15 to 20)
#    0.000    1.000    1.667    4.500    9.333    7.333 
#    3.000    0.833    0.000    0.000    0.000    0.000 
#    0.000    0.000    0.000    0.000    0.000    0.000 
#
# Total GULP energy -267596.343133 kJ/mol
# GULP energy per Si atom -5574.923815 kJ/mol
# Density = 2.292360 g / cm^3
# Si number density = 22.975890 Si / 1000 Ang^3
#
#
#
# Elastic Constant Matrix: (Units=GPa)
#
#
# Indices 1 2 3 4 5 6 
#
# 1 79.2051 19.8235 20.1185 0.0000 0.0000 0.0000
# 2 19.8235 79.2051 20.1185 0.0000 0.0000 0.0000
# 3 20.1185 20.1185 158.1860 0.0000 0.0000 0.0000
# 4 0.0000 0.0000 0.0000 22.2752 0.0000 0.0000
# 5 0.0000 0.0000 0.0000 0.0000 22.2752 0.0000
# 6 0.0000 0.0000 0.0000 0.0000 0.0000 0.9084
#
#
#
# Elastic Compliance Matrix: (Units=1/GPa)
#
#
# Indices 1 2 3 4 5 6 
#
# 1 0.013744 -0.003096 -0.001354 0.000000 0.000000 0.000000
# 2 -0.003096 0.013744 -0.001354 0.000000 0.000000 0.000000
# 3 -0.001354 -0.001354 0.006666 0.000000 0.000000 0.000000
# 4 0.000000 0.000000 0.000000 0.044893 0.000000 0.000000
# 5 0.000000 0.000000 0.000000 0.000000 0.044893 0.000000
# 6 0.000000 0.000000 0.000000 0.000000 0.000000 1.100812
#
#
# Mechanical properties :
#
#
# Convention : Reuss Voigt Hill
#
# Bulk Modulus (GPa) = 44.35430 48.52416 46.43923
# Shear Modulus (GPa) = 4.01969 26.19415 15.10692
#
# Velocity S-wave (km/s) = 1.32413 3.38016 2.56698
# Velocity P-wave (km/s) = 4.65665 6.03319 5.38905
#
# Compressibility (1/GPa) = 0.02254573
#
# Stress axis : x y z
#
# Youngs Moduli (GPa) = 72.75749 72.75749 150.01150
#
# Poissons Ratio (x) = 0.22525 0.20316
# Poissons Ratio (y) = 0.22525 0.20316
# Poissons Ratio (z) = 0.09853 0.09853
#
# Static dielectric constant tensor:
#      x y z
#    x 1.937950 0.000000 0.000000 
#    y 0.000000 1.937950 0.000000 
#    z 0.000000 0.000000 1.745030 
# 
# From -- ./inp_files/5568.got.cif
#   From: 2010.05.17/outbox.cif.g08.bks.cpg/sg91_3_cif.got.tgz:5568.got - 2010.06.03 19:20:03.
