data_PCOD9548632
_publ_section_title
;
Structure prediction by ZEFSAII (Michael W. Deem and Ramdas Pophale) SiO2 
 PCOD9548632
Probable space group: P 41 2 2
;
_chemical_formula_sum "Si O2"
_cell_formula_units_Z 64
_cell_length_a 12.105327
_cell_length_b 12.105327
_cell_length_c 23.485456
_cell_angle_alpha 90.000000
_cell_angle_beta 90.000000
_cell_angle_gamma 90.000000
_cell_volume 3441.533869
_symmetry_space_group_name_H-M "P 41 2 2"
_symmetry_group_IT_number 91
_symmetry_cell_setting 'tetragonal'
loop_
_space_group_symop_operation_xyz
x,y,z
-y,x,1/4+z
-x,-y,1/2+z
y,-x,3/4+z
x,-y,1/2-z
-x,y,-z
y,x,3/4-z
-y,-x,1/4-z
loop_
_atom_site_type_symbol
_atom_site_label
_atom_site_fract_x
_atom_site_fract_y
_atom_site_fract_z
Si Si1 0.590706 0.259557 0.084440
Si Si2 0.937000 0.633397 0.417655
Si Si3 0.251689 0.041301 0.103067
Si Si4 0.848956 0.028094 0.385608
Si Si5 0.867102 0.091921 0.505397
Si Si6 0.746092 0.348211 0.296792
Si Si7 0.662662 0.899987 0.790434
Si Si8 0.162755 0.568608 0.459571
O O1 0.655615 0.344386 0.125000
O O2 0.596827 0.143713 0.117661
O O3 0.464609 0.291970 0.072794
O O4 0.644181 0.249696 0.021904
O O5 0.876504 0.610560 0.477762
O O6 0.973512 0.759646 0.406006
O O7 0.054487 0.573642 0.419964
O O8 0.155454 0.119573 0.127882
O O9 0.327391 0.130871 0.071094
O O10 0.187069 0.962881 0.059823
O O11 0.305884 0.962500 0.150731
O O12 0.814150 0.029253 0.451466
O O13 0.958532 0.958532 0.375000
O O14 0.854498 0.223978 0.512763
O O15 0.000000 0.074249 0.500000
O O16 0.655181 0.254604 0.310405
O O17 0.562409 0.812604 0.790548
O O18 0.623064 0.000000 0.750000
#
# Coordination Sequence:
#
# PCOD9548632 Si02
#       8
#     8   8   8   8   8   8   8   8
#     4  11  23  44  64  87 126 163 207 257 320 371
#     4  11  22  36  60  89 125 161 194 262 306 368
#     4  12  22  38  57  92 126 161 205 252 302 382
#     4  12  22  32  55  90 131 163 194 239 307 377
#     4  11  22  35  55  87 127 171 200 240 306 376
#     4  11  25  40  64  94 119 164 207 260 319 370
#     4  11  21  38  60  84 119 168 209 247 300 370
#     4  11  23  39  61  93 117 157 221 253 313 365
#
# _framework density 18.596360000000001
#
# number of rings (size 3 to 8) (size 9 to 14) (size 15 to 20)
#    0.000    0.750    7.500    2.250    1.750    0.000 
#    0.000    1.250    0.000    0.000    0.000    0.000 
#    0.000    0.000    0.000    0.000    0.000    0.000 
#
# Total GULP energy -356925.788060 kJ/mol
# GULP energy per Si atom -5576.965438 kJ/mol
# Density = 1.855403 g / cm^3
# Si number density = 18.596360 Si / 1000 Ang^3
#
#
#
# Elastic Constant Matrix: (Units=GPa)
#
#
# Indices 1 2 3 4 5 6 
#
# 1 78.1602 37.5676 36.9555 0.0000 0.0000 0.0000
# 2 37.5676 78.1605 36.9553 0.0000 0.0000 0.0000
# 3 36.9555 36.9553 89.3578 0.0000 0.0000 0.0000
# 4 0.0000 0.0000 0.0000 10.2268 0.0000 0.0000
# 5 0.0000 0.0000 0.0000 0.0000 10.2256 0.0000
# 6 0.0000 0.0000 0.0000 0.0000 0.0000 10.5745
#
#
#
# Elastic Compliance Matrix: (Units=1/GPa)
#
#
# Indices 1 2 3 4 5 6 
#
# 1 0.018189 -0.006446 -0.004856 0.000000 0.000000 0.000000
# 2 -0.006446 0.018189 -0.004856 0.000000 0.000000 0.000000
# 3 -0.004856 -0.004856 0.015208 0.000000 0.000000 0.000000
# 4 0.000000 0.000000 0.000000 0.097782 0.000000 0.000000
# 5 0.000000 0.000000 0.000000 0.000000 0.097794 0.000000
# 6 0.000000 0.000000 0.000000 0.000000 0.000000 0.094567
#
#
# Mechanical properties :
#
#
# Convention : Reuss Voigt Hill
#
# Bulk Modulus (GPa) = 51.90075 52.07057 51.98566
# Shear Modulus (GPa) = 13.14169 15.15206 14.14688
#
# Velocity S-wave (km/s) = 2.66123 2.85754 2.76113
# Velocity P-wave (km/s) = 6.11658 6.24088 6.17904
#
# Compressibility (1/GPa) = 0.01926754
#
# Stress axis : x y z
#
# Youngs Moduli (GPa) = 54.97895 54.97945 65.75587
#
# Poissons Ratio (x) = 0.35441 0.31933
# Poissons Ratio (y) = 0.35441 0.31933
# Poissons Ratio (z) = 0.26700 0.26699
#
# Static dielectric constant tensor:
#      x y z
#    x 1.682520 0.000000 0.000000 
#    y 0.000000 1.682520 0.000000 
#    z 0.000000 0.000000 1.703690 
# 
# From -- ./inp_files/21867.got.cif
#   From: 2010.05.17/outbox.cif.g08.bks.cpg/sg91_11_cif.got.tgz:21867.got - 2010.06.03 19:20:03.
