data_PCOD9548673
_publ_section_title
;
Structure prediction by ZEFSAII (Michael W. Deem and Ramdas Pophale) SiO2 
 PCOD9548673
Probable space group: P 41 2 2
;
_chemical_formula_sum "Si O2"
_cell_formula_units_Z 48
_cell_length_a 11.531007
_cell_length_b 11.531007
_cell_length_c 16.971918
_cell_angle_alpha 90.000000
_cell_angle_beta 90.000000
_cell_angle_gamma 90.000000
_cell_volume 2256.656183
_symmetry_space_group_name_H-M "P 41 2 2"
_symmetry_group_IT_number 91
_symmetry_cell_setting 'tetragonal'
loop_
_space_group_symop_operation_xyz
x,y,z
-y,x,1/4+z
-x,-y,1/2+z
y,-x,3/4+z
x,-y,1/2-z
-x,y,-z
y,x,3/4-z
-y,-x,1/4-z
loop_
_atom_site_type_symbol
_atom_site_label
_atom_site_fract_x
_atom_site_fract_y
_atom_site_fract_z
Si Si1 0.427436 0.162899 0.891340
Si Si2 0.369912 0.406111 0.464119
Si Si3 0.211103 0.947716 0.579979
Si Si4 0.364211 0.116888 0.202502
Si Si5 0.339595 0.694206 0.754680
Si Si6 0.135362 0.174869 0.660517
O O1 0.349519 0.054491 0.915208
O O2 0.558132 0.128944 0.876750
O O3 0.394454 0.262831 0.952962
O O4 0.389862 0.210820 0.805982
O O5 0.500000 0.376297 0.500000
O O6 0.362424 0.362424 0.375000
O O7 0.246942 0.368631 0.507184
O O8 0.365628 0.546994 0.460190
O O9 0.168600 0.831401 0.625000
O O10 0.177131 0.942267 0.488963
O O11 0.159979 0.046398 0.633327
O O12 0.239058 0.089676 0.166685
O O13 0.402382 0.000000 0.250000
O O14 0.255222 0.761335 0.813892
#
# Coordination Sequence:
#
# PCOD9548673 Si02
#       6
#     8   8   8   8   8   8
#     4   9  19  38  63  95 124 166 218 287 339 405
#     4  11  25  42  70 104 141 186 237 301 365 437
#     4  11  22  39  69 100 126 166 229 292 345 406
#     4  11  27  44  64  94 141 193 230 285 362 430
#     4   9  19  36  66  97 130 162 222 288 345 404
#     4  11  24  41  64  99 133 179 227 283 351 429
#
# _framework density 21.270409999999998
#
# number of rings (size 3 to 8) (size 9 to 14) (size 15 to 20)
#    0.000    1.667    3.333    1.500   11.667    4.667 
#    0.000    0.000    0.000    0.000    0.000    0.000 
#    0.000    0.000    0.000    0.000    0.000    0.000 
#
# Total GULP energy -267464.502029 kJ/mol
# GULP energy per Si atom -5572.177126 kJ/mol
# Density = 2.122200 g / cm^3
# Si number density = 21.270410 Si / 1000 Ang^3
#
#
#
# Elastic Constant Matrix: (Units=GPa)
#
#
# Indices 1 2 3 4 5 6 
#
# 1 55.4601 8.9032 29.0702 0.0000 0.0000 0.0000
# 2 8.9032 55.4593 29.0699 0.0000 0.0000 0.0000
# 3 29.0702 29.0699 98.5383 0.0000 0.0000 0.0000
# 4 0.0000 0.0000 0.0000 26.1008 0.0000 0.0000
# 5 0.0000 0.0000 0.0000 0.0000 26.1004 0.0000
# 6 0.0000 0.0000 0.0000 0.0000 0.0000 9.9459
#
#
#
# Elastic Compliance Matrix: (Units=1/GPa)
#
#
# Indices 1 2 3 4 5 6 
#
# 1 0.021330 -0.000149 -0.006249 0.000000 0.000000 0.000000
# 2 -0.000149 0.021331 -0.006249 0.000000 0.000000 0.000000
# 3 -0.006249 -0.006249 0.013835 0.000000 0.000000 0.000000
# 4 0.000000 0.000000 0.000000 0.038313 0.000000 0.000000
# 5 0.000000 0.000000 0.000000 0.000000 0.038314 0.000000
# 6 0.000000 0.000000 0.000000 0.000000 0.000000 0.100544
#
#
# Mechanical properties :
#
#
# Convention : Reuss Voigt Hill
#
# Bulk Modulus (GPa) = 32.04808 38.17161 35.10984
# Shear Modulus (GPa) = 18.56245 21.92372 20.24308
#
# Velocity S-wave (km/s) = 2.95734 3.21396 3.08831
# Velocity P-wave (km/s) = 5.17308 5.63538 5.40917
#
# Compressibility (1/GPa) = 0.03120312
#
# Stress axis : x y z
#
# Youngs Moduli (GPa) = 46.88174 46.88110 72.27884
#
# Poissons Ratio (x) = 0.00698 0.45166
# Poissons Ratio (y) = 0.00698 0.45166
# Poissons Ratio (z) = 0.29296 0.29295
#
# Static dielectric constant tensor:
#      x y z
#    x 1.796170 0.000000 0.000000 
#    y 0.000000 1.796170 0.000000 
#    z 0.000000 0.000000 1.770010 
# 
# From -- ./inp_files/16915.got.cif
#   From: 2010.05.17/outbox.cif.g08.bks.cpg/sg91_9_cif.got.tgz:16915.got - 2010.06.03 19:20:03.
