data_PCOD9548634
_publ_section_title
;
Structure prediction by ZEFSAII (Michael W. Deem and Ramdas Pophale) SiO2 
 PCOD9548634
Probable space group: P 41 2 2
;
_chemical_formula_sum "Si O2"
_cell_formula_units_Z 40
_cell_length_a 11.852022
_cell_length_b 11.852022
_cell_length_c 12.607978
_cell_angle_alpha 90.000000
_cell_angle_beta 90.000000
_cell_angle_gamma 90.000000
_cell_volume 1771.048034
_symmetry_space_group_name_H-M "P 41 2 2"
_symmetry_group_IT_number 91
_symmetry_cell_setting 'tetragonal'
loop_
_space_group_symop_operation_xyz
x,y,z
-y,x,1/4+z
-x,-y,1/2+z
y,-x,3/4+z
x,-y,1/2-z
-x,y,-z
y,x,3/4-z
-y,-x,1/4-z
loop_
_atom_site_type_symbol
_atom_site_label
_atom_site_fract_x
_atom_site_fract_y
_atom_site_fract_z
Si Si1 0.131664 0.132730 0.997050
Si Si2 0.484596 0.130119 0.830385
Si Si3 0.372590 0.554387 0.861867
Si Si4 0.983780 0.653115 0.229052
Si Si5 0.177960 0.361224 0.123514
O O1 0.160530 0.160530 0.875000
O O2 0.213951 0.032333 0.028522
O O3 0.158986 0.237125 0.073520
O O4 0.000000 0.106905 0.000000
O O5 0.511686 0.264408 0.823112
O O6 0.438784 0.112716 0.712297
O O7 0.394527 0.094999 0.922907
O O8 0.593911 0.065222 0.874766
O O9 0.336975 0.500000 0.750000
O O10 0.492795 0.492795 0.875000
O O11 0.381169 0.688204 0.876121
O O12 0.110780 0.627938 0.266320
#
# Coordination Sequence:
#
# PCOD9548634 Si02
#       5
#     8   8   8   8   8
#     4  12  21  36  65 103 136 169 231 288 344 415
#     4  11  21  38  66  97 142 177 229 290 345 416
#     4  12  23  39  67 102 137 181 235 282 350 420
#     4  11  23  39  65 107 132 178 235 285 353 420
#     4  12  23  41  68 103 142 181 232 298 349 422
#
# _framework density 22.585498000000001
#
# number of rings (size 3 to 8) (size 9 to 14) (size 15 to 20)
#    0.000    0.400   10.000    0.600    0.000    0.000 
#    3.600    0.000    0.000   14.400    0.000    0.000 
#    0.000    0.000    0.000    0.000    0.000    0.000 
#
# Total GULP energy -223230.935199 kJ/mol
# GULP energy per Si atom -5580.773380 kJ/mol
# Density = 2.253409 g / cm^3
# Si number density = 22.585498 Si / 1000 Ang^3
#
#
#
# Elastic Constant Matrix: (Units=GPa)
#
#
# Indices 1 2 3 4 5 6 
#
# 1 169.5289 46.9901 10.4261 0.0000 0.0000 0.0000
# 2 46.9901 169.5289 10.4261 0.0000 0.0000 0.0000
# 3 10.4261 10.4261 32.3251 0.0000 0.0000 0.0000
# 4 0.0000 0.0000 0.0000 20.1306 0.0000 0.0000
# 5 0.0000 0.0000 0.0000 0.0000 20.1306 0.0000
# 6 0.0000 0.0000 0.0000 0.0000 0.0000 31.9224
#
#
#
# Elastic Compliance Matrix: (Units=1/GPa)
#
#
# Indices 1 2 3 4 5 6 
#
# 1 0.006464 -0.001697 -0.001537 0.000000 0.000000 0.000000
# 2 -0.001697 0.006464 -0.001537 0.000000 0.000000 0.000000
# 3 -0.001537 -0.001537 0.031927 0.000000 0.000000 0.000000
# 4 0.000000 0.000000 0.000000 0.049676 0.000000 0.000000
# 5 0.000000 0.000000 0.000000 0.000000 0.049676 0.000000
# 6 0.000000 0.000000 0.000000 0.000000 0.000000 0.031326
#
#
# Mechanical properties :
#
#
# Convention : Reuss Voigt Hill
#
# Bulk Modulus (GPa) = 28.31976 56.34083 42.33030
# Shear Modulus (GPa) = 25.40056 34.67276 30.03666
#
# Velocity S-wave (km/s) = 3.35720 3.92239 3.65075
# Velocity P-wave (km/s) = 5.25299 6.74635 6.04595
#
# Compressibility (1/GPa) = 0.03531103
#
# Stress axis : x y z
#
# Youngs Moduli (GPa) = 154.71161 154.71161 31.32098
#
# Poissons Ratio (x) = 0.26255 0.04815
# Poissons Ratio (y) = 0.26255 0.04815
# Poissons Ratio (z) = 0.23786 0.23786
#
# Static dielectric constant tensor:
#      x y z
#    x 1.881150 0.000000 0.000000 
#    y 0.000000 1.881150 0.000000 
#    z 0.000000 0.000000 1.752300 
# 
# From -- ./inp_files/4696.got.cif
#   From: 2010.05.17/outbox.cif.g08.bks.cpg/sg91_3_cif.got.tgz:4696.got - 2010.06.03 19:20:03.
