data_PCOD9548930
_publ_section_title
;
Structure prediction by ZEFSAII (Michael W. Deem and Ramdas Pophale) SiO2 
 PCOD9548930
Probable space group: P 41 21 2
;
_chemical_formula_sum "Si O2"
_cell_formula_units_Z 48
_cell_length_a 15.633271
_cell_length_b 15.633271
_cell_length_c 7.563617
_cell_angle_alpha 90.000000
_cell_angle_beta 90.000000
_cell_angle_gamma 90.000000
_cell_volume 1848.541658
_symmetry_space_group_name_H-M "P 41 21 2"
_symmetry_group_IT_number 92
_symmetry_cell_setting 'tetragonal'
loop_
_space_group_symop_operation_xyz
x,y,z
1/2-y,1/2+x,1/4+z
-x,-y,1/2+z
1/2+y,1/2-x,3/4+z
1/2+x,1/2-y,3/4-z
1/2-x,1/2+y,1/4-z
y,x,-z
-y,-x,1/2-z
loop_
_atom_site_type_symbol
_atom_site_label
_atom_site_fract_x
_atom_site_fract_y
_atom_site_fract_z
Si Si1 0.622607 0.665789 0.807343
Si Si2 0.476909 0.588999 0.576149
Si Si3 0.275412 0.196770 0.683093
Si Si4 0.559118 0.084872 0.789720
Si Si5 0.691109 0.984278 0.018744
Si Si6 0.098998 0.233206 0.840866
O O1 0.563951 0.620680 0.665276
O O2 0.722735 0.668347 0.749159
O O3 0.567043 0.754405 0.832968
O O4 0.626871 0.626871 0.000000
O O5 0.496314 0.496314 0.500000
O O6 0.414136 0.585864 0.750000
O O7 0.452535 0.645519 0.406320
O O8 0.237644 0.237644 0.500000
O O9 0.308004 0.100779 0.641450
O O10 0.194088 0.199581 0.810407
O O11 0.461922 0.079729 0.856677
O O12 0.590217 0.183140 0.789466
O O13 0.606295 0.030020 0.944875
O O14 0.731957 0.943186 0.842363
#
# Coordination Sequence:
#
# PCOD9548930 Si02
#       6
#     8   8   8   8   8   8
#     4  10  19  33  58  88 115 148 194 248 298 357
#     4  11  23  40  61  85 116 153 200 249 305 361
#     4   9  16  29  54  84 111 144 192 242 286 342
#     4  10  20  35  55  81 116 156 200 241 289 350
#     4   9  17  31  54  86 116 146 200 244 285 350
#     4   9  17  34  58  82 112 155 193 238 292 361
#
# _framework density 25.966418000000001
#
# number of rings (size 3 to 8) (size 9 to 14) (size 15 to 20)
#    0.000    2.333    1.667    3.000    2.333    0.000 
#    3.000    0.000    0.000    3.000    0.000    0.000 
#    0.000    0.000    0.000    0.000    0.000    0.000 
#
# Total GULP energy -267631.870545 kJ/mol
# GULP energy per Si atom -5575.663970 kJ/mol
# Density = 2.590732 g / cm^3
# Si number density = 25.966418 Si / 1000 Ang^3
#
#
#
# Elastic Constant Matrix: (Units=GPa)
#
#
# Indices 1 2 3 4 5 6 
#
# 1 177.6290 -9.1503 13.0512 0.0000 0.0000 0.0000
# 2 -9.1503 177.6255 13.0531 0.0000 0.0000 0.0000
# 3 13.0512 13.0531 57.5371 0.0000 0.0000 0.0000
# 4 0.0000 0.0000 0.0000 28.7009 0.0000 0.0000
# 5 0.0000 0.0000 0.0000 0.0000 28.7010 0.0000
# 6 0.0000 0.0000 0.0000 0.0000 0.0000 43.3831
#
#
#
# Elastic Compliance Matrix: (Units=1/GPa)
#
#
# Indices 1 2 3 4 5 6 
#
# 1 0.005753 0.000399 -0.001395 0.000000 0.000000 0.000000
# 2 0.000399 0.005753 -0.001396 0.000000 0.000000 0.000000
# 3 -0.001395 -0.001396 0.018013 0.000000 0.000000 0.000000
# 4 0.000000 0.000000 0.000000 0.034842 0.000000 0.000000
# 5 0.000000 0.000000 0.000000 0.000000 0.034842 0.000000
# 6 0.000000 0.000000 0.000000 0.000000 0.000000 0.023050
#
#
# Mechanical properties :
#
#
# Convention : Reuss Voigt Hill
#
# Bulk Modulus (GPa) = 40.42905 49.63329 45.03117
# Shear Modulus (GPa) = 36.95964 46.54617 41.75291
#
# Velocity S-wave (km/s) = 3.77684 4.23845 4.01429
# Velocity P-wave (km/s) = 5.88412 6.56571 6.23424
#
# Compressibility (1/GPa) = 0.02473469
#
# Stress axis : x y z
#
# Youngs Moduli (GPa) = 173.82884 173.82451 55.51481
#
# Poissons Ratio (x) = -0.06934 0.07747
# Poissons Ratio (y) = -0.06934 0.07748
# Poissons Ratio (z) = 0.24256 0.24259
#
# Static dielectric constant tensor:
#      x y z
#    x 2.277780 0.000000 0.000000 
#    y 0.000000 2.277780 0.000000 
#    z 0.000000 0.000000 1.834240 
# 
# From -- ./inp_files/2166.got.cif
#   From: 2010.05.17/outbox.cif.g08.bks.cpg/sg92_2_cif.got.tgz:2166.got - 2010.06.03 19:35:17.
