data_PCOD9548973
_publ_section_title
;
Structure prediction by ZEFSAII (Michael W. Deem and Ramdas Pophale) SiO2 
 PCOD9548973
Probable space group: P 41 21 2
;
_chemical_formula_sum "Si O2"
_cell_formula_units_Z 60
_cell_length_a 11.682886
_cell_length_b 11.682886
_cell_length_c 20.988073
_cell_angle_alpha 90.000000
_cell_angle_beta 90.000000
_cell_angle_gamma 90.000000
_cell_volume 2864.658417
_symmetry_space_group_name_H-M "P 41 21 2"
_symmetry_group_IT_number 92
_symmetry_cell_setting 'tetragonal'
loop_
_space_group_symop_operation_xyz
x,y,z
1/2-y,1/2+x,1/4+z
-x,-y,1/2+z
1/2+y,1/2-x,3/4+z
1/2+x,1/2-y,3/4-z
1/2-x,1/2+y,1/4-z
y,x,-z
-y,-x,1/2-z
loop_
_atom_site_type_symbol
_atom_site_label
_atom_site_fract_x
_atom_site_fract_y
_atom_site_fract_z
Si Si1 0.283912 0.937382 0.353361
Si Si2 0.123298 0.588788 0.580884
Si Si3 0.301246 0.512951 0.298851
Si Si4 0.242070 0.757931 0.250000
Si Si5 0.384589 0.620723 0.557010
Si Si6 0.612703 0.703936 0.325513
Si Si7 0.542898 0.957874 0.306148
Si Si8 0.091805 0.051670 0.167491
O O1 0.231394 0.861606 0.297128
O O2 0.229583 0.867972 0.413360
O O3 0.416788 0.931363 0.334975
O O4 0.230569 0.064108 0.344931
O O5 0.089980 0.719042 0.567301
O O6 0.259618 0.579048 0.577948
O O7 0.061643 0.523249 0.520341
O O8 0.066263 0.571030 0.649811
O O9 0.237012 0.630310 0.279231
O O10 0.350815 0.461176 0.232987
O O11 0.367648 0.550604 0.360824
O O12 0.387206 0.637675 0.480651
O O13 0.479775 0.523883 0.568372
O O14 0.617726 0.841543 0.317552
O O15 0.530565 0.685824 0.386293
#
# Coordination Sequence:
#
# PCOD9548973 Si02
#       8
#     8   8   8   4   8   8   8   8
#     4  11  22  39  64  96 132 164 215 263 332 397
#     4  11  24  43  58  92 126 167 218 263 323 381
#     4  11  20  36  63  95 127 161 203 263 327 390
#     4  12  18  38  62 100 134 156 198 274 332 386
#     4  10  24  39  60  88 121 172 219 258 316 386
#     4  10  20  36  62 100 124 161 199 263 335 387
#     4  11  24  42  63  92 131 169 213 273 326 393
#     4  10  19  39  63  86 121 162 211 261 312 388
#
# _framework density 20.944904999999999
#
# number of rings (size 3 to 8) (size 9 to 14) (size 15 to 20)
#    0.000    1.333    4.000    3.200    1.867    4.267 
#    2.400    0.000    0.000    0.000    0.000    0.000 
#    0.000    0.000    0.000    0.000    0.000    0.000 
#
# Total GULP energy -334086.434136 kJ/mol
# GULP energy per Si atom -5568.107236 kJ/mol
# Density = 2.089723 g / cm^3
# Si number density = 20.944905 Si / 1000 Ang^3
#
#
#
# Elastic Constant Matrix: (Units=GPa)
#
#
# Indices 1 2 3 4 5 6 
#
# 1 42.2482 26.7414 -3.9994 0.0000 0.0000 0.0000
# 2 26.7414 42.2503 -4.0002 0.0000 0.0000 0.0000
# 3 -3.9994 -4.0002 45.3629 0.0000 0.0000 0.0000
# 4 0.0000 0.0000 0.0000 15.8591 0.0000 0.0000
# 5 0.0000 0.0000 0.0000 0.0000 15.8594 0.0000
# 6 0.0000 0.0000 0.0000 0.0000 0.0000 21.9391
#
#
#
# Elastic Compliance Matrix: (Units=1/GPa)
#
#
# Indices 1 2 3 4 5 6 
#
# 1 0.039565 -0.024920 0.001291 0.000000 0.000000 0.000000
# 2 -0.024920 0.039563 0.001292 0.000000 0.000000 0.000000
# 3 0.001291 0.001292 0.022272 0.000000 0.000000 0.000000
# 4 0.000000 0.000000 0.000000 0.063055 0.000000 0.000000
# 5 0.000000 0.000000 0.000000 0.000000 0.063054 0.000000
# 6 0.000000 0.000000 0.000000 0.000000 0.000000 0.045581
#
#
# Mechanical properties :
#
#
# Convention : Reuss Voigt Hill
#
# Bulk Modulus (GPa) = 17.62861 18.59391 18.11126
# Shear Modulus (GPa) = 14.85121 18.13950 16.49536
#
# Velocity S-wave (km/s) = 2.66571 2.94608 2.80939
# Velocity P-wave (km/s) = 4.23197 4.52430 4.38058
#
# Compressibility (1/GPa) = 0.05672596
#
# Stress axis : x y z
#
# Youngs Moduli (GPa) = 25.27492 25.27610 44.89914
#
# Poissons Ratio (x) = 0.62987 -0.05795
# Poissons Ratio (y) = 0.62984 -0.05800
# Poissons Ratio (z) = -0.03262 -0.03265
#
# Static dielectric constant tensor:
#      x y z
#    x 1.811750 0.000000 0.000000 
#    y 0.000000 1.811760 0.000000 
#    z 0.000000 0.000000 1.853290 
# 
# From -- ./inp_files/3618.got.cif
#   From: 2010.05.17/outbox.cif.g08.bks.cpg/sg92_2_cif.got.tgz:3618.got - 2010.06.03 19:35:17.
