data_PCOD9548741
_publ_section_title
;
Structure prediction by ZEFSAII (Michael W. Deem and Ramdas Pophale) SiO2 
 PCOD9548741
Probable space group: P 41 2 2
;
_chemical_formula_sum "Si O2"
_cell_formula_units_Z 40
_cell_length_a 11.087232
_cell_length_b 11.087232
_cell_length_c 14.501582
_cell_angle_alpha 90.000000
_cell_angle_beta 90.000000
_cell_angle_gamma 90.000000
_cell_volume 1782.631815
_symmetry_space_group_name_H-M "P 41 2 2"
_symmetry_group_IT_number 91
_symmetry_cell_setting 'tetragonal'
loop_
_space_group_symop_operation_xyz
x,y,z
-y,x,1/4+z
-x,-y,1/2+z
y,-x,3/4+z
x,-y,1/2-z
-x,y,-z
y,x,3/4-z
-y,-x,1/4-z
loop_
_atom_site_type_symbol
_atom_site_label
_atom_site_fract_x
_atom_site_fract_y
_atom_site_fract_z
Si Si1 0.402213 0.737061 0.309692
Si Si2 0.201813 0.738966 0.768004
Si Si3 0.364985 0.635016 0.625000
Si Si4 0.473835 0.885956 0.842980
Si Si5 0.941699 0.500000 0.250000
Si Si6 0.500000 0.308010 0.500000
Si Si7 0.000000 0.244921 0.000000
O O1 0.292572 0.783357 0.373902
O O2 0.495990 0.672903 0.381458
O O3 0.456306 0.846015 0.248958
O O4 0.377814 0.625526 0.240932
O O5 0.325428 0.713603 0.713002
O O6 0.126167 0.625121 0.729193
O O7 0.167666 0.876090 0.739326
O O8 0.342934 0.944229 0.822148
O O9 0.471962 0.771387 0.910283
O O10 0.535535 0.981494 0.910754
#
# Coordination Sequence:
#
# PCOD9548741 Si02
#       7
#     8   8   4   8   4   4   4
#     4  12  23  39  65 106 146 189 230 307 368 450
#     4  12  24  42  67 103 142 184 253 305 370 443
#     4  12  22  38  66 102 150 178 234 304 370 450
#     4  11  24  42  66  99 146 193 244 297 376 457
#     4  11  24  45  68 110 132 193 253 318 366 447
#     4  11  24  39  64 108 148 189 233 298 380 459
#     4  12  22  42  64 102 136 196 234 306 374 454
#
# _framework density 22.438732000000002
#
# number of rings (size 3 to 8) (size 9 to 14) (size 15 to 20)
#    0.000    0.400    6.000    3.000    5.600    0.000 
#    0.000    0.000    0.000    0.000   41.600    0.000 
#    0.000    0.000    0.000    0.000    0.000    0.000 
#
# Total GULP energy -222693.045197 kJ/mol
# GULP energy per Si atom -5567.326130 kJ/mol
# Density = 2.238766 g / cm^3
# Si number density = 22.438732 Si / 1000 Ang^3
#
#
#
# Elastic Constant Matrix: (Units=GPa)
#
#
# Indices 1 2 3 4 5 6 
#
# 1 121.6461 43.5579 33.5255 0.0000 0.0000 0.0000
# 2 43.5579 121.6455 33.5254 0.0000 0.0000 0.0000
# 3 33.5255 33.5254 109.6691 0.0000 0.0000 0.0000
# 4 0.0000 0.0000 0.0000 36.8875 0.0000 0.0000
# 5 0.0000 0.0000 0.0000 0.0000 36.8874 0.0000
# 6 0.0000 0.0000 0.0000 0.0000 0.0000 7.9248
#
#
#
# Elastic Compliance Matrix: (Units=1/GPa)
#
#
# Indices 1 2 3 4 5 6 
#
# 1 0.009858 -0.002948 -0.002113 0.000000 0.000000 0.000000
# 2 -0.002948 0.009858 -0.002113 0.000000 0.000000 0.000000
# 3 -0.002113 -0.002113 0.010410 0.000000 0.000000 0.000000
# 4 0.000000 0.000000 0.000000 0.027109 0.000000 0.000000
# 5 0.000000 0.000000 0.000000 0.000000 0.027110 0.000000
# 6 0.000000 0.000000 0.000000 0.000000 0.000000 0.126186
#
#
# Mechanical properties :
#
#
# Convention : Reuss Voigt Hill
#
# Bulk Modulus (GPa) = 63.36776 63.79758 63.58267
# Shear Modulus (GPa) = 21.72618 32.49674 27.11146
#
# Velocity S-wave (km/s) = 3.11504 3.80971 3.47975
# Velocity P-wave (km/s) = 6.42181 6.91704 6.67402
#
# Compressibility (1/GPa) = 0.01578089
#
# Stress axis : x y z
#
# Youngs Moduli (GPa) = 101.43752 101.43699 96.06225
#
# Poissons Ratio (x) = 0.29901 0.20293
# Poissons Ratio (y) = 0.29901 0.20293
# Poissons Ratio (z) = 0.21429 0.21429
#
# Static dielectric constant tensor:
#      x y z
#    x 1.994240 0.000000 0.000000 
#    y 0.000000 1.994240 0.000000 
#    z 0.000000 0.000000 1.868950 
# 
# From -- ./inp_files/4856.got.cif
#   From: 2010.05.17/outbox.cif.g08.bks.cpg/sg91_3_cif.got.tgz:4856.got - 2010.06.03 19:20:03.
