data_PCOD9548290
_publ_section_title
;
Structure prediction by ZEFSAII (Michael W. Deem and Ramdas Pophale) SiO2 
 PCOD9548290
Probable space group: P 41 2 2
;
_chemical_formula_sum "Si O2"
_cell_formula_units_Z 64
_cell_length_a 12.199171
_cell_length_b 12.199171
_cell_length_c 21.557344
_cell_angle_alpha 90.000000
_cell_angle_beta 90.000000
_cell_angle_gamma 90.000000
_cell_volume 3208.159042
_symmetry_space_group_name_H-M "P 41 2 2"
_symmetry_group_IT_number 91
_symmetry_cell_setting 'tetragonal'
loop_
_space_group_symop_operation_xyz
x,y,z
-y,x,1/4+z
-x,-y,1/2+z
y,-x,3/4+z
x,-y,1/2-z
-x,y,-z
y,x,3/4-z
-y,-x,1/4-z
loop_
_atom_site_type_symbol
_atom_site_label
_atom_site_fract_x
_atom_site_fract_y
_atom_site_fract_z
Si Si1 0.797273 0.753473 0.044054
Si Si2 0.990172 0.641706 0.568228
Si Si3 0.745356 0.612498 0.612526
Si Si4 0.020383 0.070018 0.188208
Si Si5 0.779425 0.601356 0.214334
Si Si6 0.362482 0.201914 0.340890
Si Si7 0.744152 0.859148 0.422251
Si Si8 0.046826 0.413359 0.613022
O O1 0.671939 0.748242 0.069795
O O2 0.845758 0.876347 0.054602
O O3 0.880705 0.683345 0.085732
O O4 0.806008 0.689273 0.978417
O O5 0.862796 0.638087 0.582747
O O6 0.000000 0.691775 0.500000
O O7 0.048880 0.694545 0.627165
O O8 0.040942 0.518985 0.568455
O O9 0.656501 0.685089 0.576398
O O10 0.739260 0.481167 0.602373
O O11 0.908591 0.139200 0.191167
O O12 0.029824 0.000000 0.250000
O O13 0.003882 0.996119 0.125000
O O14 0.728478 0.500000 0.250000
O O15 0.826109 0.682620 0.266172
O O16 0.884513 0.559044 0.174834
O O17 0.271670 0.271670 0.375000
O O18 0.376841 0.079321 0.368896
O O19 0.758041 0.758041 0.375000
#
# Coordination Sequence:
#
# PCOD9548290 Si02
#       8
#     8   8   8   8   8   8   8   8
#     4  11  23  43  67  99 136 177 227 283 348 419
#     4  11  20  39  66  90 128 169 218 275 328 413
#     4  10  24  44  66  95 133 177 224 288 349 403
#     4  11  26  41  64  99 143 181 222 280 357 432
#     4  11  23  43  67  96 132 171 228 291 342 414
#     4  11  25  44  69 102 132 186 236 289 358 422
#     4  11  24  38  59  95 127 172 220 265 343 415
#     4  10  22  39  68  95 127 169 224 278 338 405
#
# _framework density 19.949134999999998
#
# number of rings (size 3 to 8) (size 9 to 14) (size 15 to 20)
#    0.000    1.250    2.500    3.375    5.250    3.500 
#    2.250    0.000    0.000    0.000    0.000    0.000 
#    0.000    0.000    0.000    0.000    0.000    0.000 
#
# Total GULP energy -356497.425851 kJ/mol
# GULP energy per Si atom -5570.272279 kJ/mol
# Density = 1.990373 g / cm^3
# Si number density = 19.949135 Si / 1000 Ang^3
#
#
#
# Elastic Constant Matrix: (Units=GPa)
#
#
# Indices 1 2 3 4 5 6 
#
# 1 54.5494 8.8351 10.0011 0.0000 0.0000 0.0000
# 2 8.8351 54.5493 10.0010 0.0000 0.0000 0.0000
# 3 10.0011 10.0010 52.2930 0.0000 0.0000 0.0000
# 4 0.0000 0.0000 0.0000 25.1895 0.0000 0.0000
# 5 0.0000 0.0000 0.0000 0.0000 25.1895 0.0000
# 6 0.0000 0.0000 0.0000 0.0000 0.0000 24.2235
#
#
#
# Elastic Compliance Matrix: (Units=1/GPa)
#
#
# Indices 1 2 3 4 5 6 
#
# 1 0.019333 -0.002542 -0.003211 0.000000 0.000000 0.000000
# 2 -0.002542 0.019333 -0.003211 0.000000 0.000000 0.000000
# 3 -0.003211 -0.003211 0.020351 0.000000 0.000000 0.000000
# 4 0.000000 0.000000 0.000000 0.039699 0.000000 0.000000
# 5 0.000000 0.000000 0.000000 0.000000 0.039699 0.000000
# 6 0.000000 0.000000 0.000000 0.000000 0.000000 0.041282
#
#
# Mechanical properties :
#
#
# Convention : Reuss Voigt Hill
#
# Bulk Modulus (GPa) = 24.33861 24.34068 24.33965
# Shear Modulus (GPa) = 23.66059 23.75745 23.70902
#
# Velocity S-wave (km/s) = 3.44764 3.45469 3.45116
# Velocity P-wave (km/s) = 5.29859 5.30481 5.30170
#
# Compressibility (1/GPa) = 0.04108697
#
# Stress axis : x y z
#
# Youngs Moduli (GPa) = 51.72630 51.72620 49.13701
#
# Poissons Ratio (x) = 0.13151 0.15778
# Poissons Ratio (y) = 0.13151 0.15778
# Poissons Ratio (z) = 0.16610 0.16610
#
# Static dielectric constant tensor:
#      x y z
#    x 1.732810 0.000000 0.000000 
#    y 0.000000 1.732810 0.000000 
#    z 0.000000 0.000000 2.815340 
# 
# From -- ./inp_files/12940.got.cif
#   From: 2010.05.17/outbox.cif.g08.bks.cpg/sg91_7_cif.got.tgz:12940.got - 2010.06.03 19:20:03.
