data_PCOD9548308
_publ_section_title
;
Structure prediction by ZEFSAII (Michael W. Deem and Ramdas Pophale) SiO2 
 PCOD9548308
Probable space group: P 41 2 2
;
_chemical_formula_sum "Si O2"
_cell_formula_units_Z 60
_cell_length_a 11.296290
_cell_length_b 11.296290
_cell_length_c 21.876880
_cell_angle_alpha 90.000000
_cell_angle_beta 90.000000
_cell_angle_gamma 90.000000
_cell_volume 2791.624819
_symmetry_space_group_name_H-M "P 41 2 2"
_symmetry_group_IT_number 91
_symmetry_cell_setting 'tetragonal'
loop_
_space_group_symop_operation_xyz
x,y,z
-y,x,1/4+z
-x,-y,1/2+z
y,-x,3/4+z
x,-y,1/2-z
-x,y,-z
y,x,3/4-z
-y,-x,1/4-z
loop_
_atom_site_type_symbol
_atom_site_label
_atom_site_fract_x
_atom_site_fract_y
_atom_site_fract_z
Si Si1 0.700006 0.916619 0.507768
Si Si2 0.407453 0.874629 0.780404
Si Si3 0.809461 0.637164 0.734043
Si Si4 0.665964 0.306629 0.056597
Si Si5 0.989155 0.918428 0.690809
Si Si6 0.616246 0.712084 0.812023
Si Si7 0.500000 0.522918 0.500000
Si Si8 0.222567 0.799818 0.871214
O O1 0.627411 0.817389 0.472391
O O2 0.723430 0.861594 0.575830
O O3 0.653006 0.049974 0.498622
O O4 0.822780 0.920664 0.469176
O O5 0.362523 0.773272 0.733243
O O6 0.525688 0.821575 0.812064
O O7 0.296787 0.886336 0.826653
O O8 0.431962 0.000000 0.750000
O O9 0.784875 0.500000 0.750000
O O10 0.739140 0.729200 0.776740
O O11 0.758384 0.670787 0.666362
O O12 0.707392 0.292609 0.125000
O O13 0.554532 0.393419 0.051977
O O14 0.868401 0.856991 0.669624
O O15 0.968977 0.000000 0.750000
O O16 0.031500 0.968501 0.625000
O O17 0.656400 0.656400 0.875000
O O18 0.550684 0.608038 0.775577
#
# Coordination Sequence:
#
# PCOD9548308 Si02
#       8
#     8   8   8   8   8   8   4   8
#     4  10  23  40  65 102 137 182 230 290 359 425
#     4  10  24  42  69 106 135 183 236 295 358 423
#     4  11  24  45  69  99 136 191 232 287 371 436
#     4  10  22  40  65 103 136 175 228 294 357 424
#     4  11  21  37  68  98 139 192 226 286 353 443
#     4  11  23  47  71  95 135 185 233 289 357 438
#     4  10  22  42  68  98 130 176 238 284 356 426
#     4  10  23  44  67  98 142 183 238 292 356 437
#
# _framework density 21.492857999999998
#
# number of rings (size 3 to 8) (size 9 to 14) (size 15 to 20)
#    0.000    1.600    2.000    1.600    8.400    0.000 
#   16.800    0.667    0.000    0.000    0.000    0.000 
#    0.000    0.000    0.000    0.000    0.000    0.000 
#
# Total GULP energy -334225.420502 kJ/mol
# GULP energy per Si atom -5570.423675 kJ/mol
# Density = 2.144394 g / cm^3
# Si number density = 21.492858 Si / 1000 Ang^3
#
#
#
# Elastic Constant Matrix: (Units=GPa)
#
#
# Indices 1 2 3 4 5 6 
#
# 1 69.3370 29.4135 16.7461 0.0000 0.0000 0.0000
# 2 29.4135 69.3370 16.7461 0.0000 0.0000 0.0000
# 3 16.7461 16.7461 110.5810 0.0000 0.0000 0.0000
# 4 0.0000 0.0000 0.0000 30.9358 0.0000 0.0000
# 5 0.0000 0.0000 0.0000 0.0000 30.9366 0.0000
# 6 0.0000 0.0000 0.0000 0.0000 0.0000 27.8572
#
#
#
# Elastic Compliance Matrix: (Units=1/GPa)
#
#
# Indices 1 2 3 4 5 6 
#
# 1 0.017861 -0.007187 -0.001617 0.000000 0.000000 0.000000
# 2 -0.007187 0.017861 -0.001617 0.000000 0.000000 0.000000
# 3 -0.001617 -0.001617 0.009533 0.000000 0.000000 0.000000
# 4 0.000000 0.000000 0.000000 0.032325 0.000000 0.000000
# 5 0.000000 0.000000 0.000000 0.000000 0.032324 0.000000
# 6 0.000000 0.000000 0.000000 0.000000 0.000000 0.035897
#
#
# Mechanical properties :
#
#
# Convention : Reuss Voigt Hill
#
# Bulk Modulus (GPa) = 40.95656 41.67404 41.31530
# Shear Modulus (GPa) = 28.60738 30.36921 29.48829
#
# Velocity S-wave (km/s) = 3.65227 3.76306 3.70808
# Velocity P-wave (km/s) = 6.07311 6.18972 6.13169
#
# Compressibility (1/GPa) = 0.02441611
#
# Stress axis : x y z
#
# Youngs Moduli (GPa) = 55.98674 55.98681 104.90144
#
# Poissons Ratio (x) = 0.40235 0.16958
# Poissons Ratio (y) = 0.40235 0.16958
# Poissons Ratio (z) = 0.09051 0.09051
#
# Static dielectric constant tensor:
#      x y z
#    x 1.827080 0.000000 0.000000 
#    y 0.000000 1.827080 0.000000 
#    z 0.000000 0.000000 1.903340 
# 
# From -- ./inp_files/6458.got.cif
#   From: 2010.05.17/outbox.cif.g08.bks.cpg/sg91_4_cif.got.tgz:6458.got - 2010.06.03 19:20:03.
