data_PCOD9548086
_publ_section_title
;
Structure prediction by ZEFSAII (Michael W. Deem and Ramdas Pophale) SiO2 
 PCOD9548086
Probable space group: P 41 2 2
;
_chemical_formula_sum "Si O2"
_cell_formula_units_Z 44
_cell_length_a 21.082710
_cell_length_b 21.082710
_cell_length_c 5.180255
_cell_angle_alpha 90.000000
_cell_angle_beta 90.000000
_cell_angle_gamma 90.000000
_cell_volume 2302.523166
_symmetry_space_group_name_H-M "P 41 2 2"
_symmetry_group_IT_number 91
_symmetry_cell_setting 'tetragonal'
loop_
_space_group_symop_operation_xyz
x,y,z
-y,x,1/4+z
-x,-y,1/2+z
y,-x,3/4+z
x,-y,1/2-z
-x,y,-z
y,x,3/4-z
-y,-x,1/4-z
loop_
_atom_site_type_symbol
_atom_site_label
_atom_site_fract_x
_atom_site_fract_y
_atom_site_fract_z
Si Si1 0.832432 0.633581 0.217587
Si Si2 0.432232 0.000000 0.750000
Si Si3 0.195672 0.195672 0.375000
Si Si4 0.884334 0.500000 0.250000
Si Si5 0.903159 0.000000 0.250000
Si Si6 0.337612 0.913784 0.965959
Si Si7 0.255424 0.744577 0.625000
Si Si8 0.791899 0.943490 0.925592
O O1 0.838834 0.557874 0.163335
O O2 0.869102 0.639256 0.486715
O O3 0.767670 0.674435 0.271444
O O4 0.873766 0.662296 0.981497
O O5 0.383385 0.024943 0.530918
O O6 0.474470 0.937737 0.700914
O O7 0.238065 0.213001 0.623177
O O8 0.200051 0.123047 0.283666
O O9 0.856840 0.034520 0.449258
O O10 0.947724 0.947724 0.375000
O O11 0.266411 0.932045 0.884841
O O12 0.768809 0.000000 0.750000
#
# Coordination Sequence:
#
# PCOD9548086 Si02
#       8
#     8   4   4   4   4   8   4   8
#     4  11  23  41  60  92 119 161 198 246 293 358
#     4  10  21  36  58  86 127 168 194 248 296 376
#     4  12  26  42  66  83 112 148 191 256 314 360
#     4  10  22  36  60  86 128 164 202 238 300 362
#     4  12  31  48  60  78 105 146 192 260 342 406
#     4  11  24  38  63  90 120 151 198 241 307 360
#     4  12  22  44  64  89 116 154 201 248 294 354
#     4  12  27  41  64  86 107 143 194 261 313 386
#
# _framework density 19.109470999999999
#
# number of rings (size 3 to 8) (size 9 to 14) (size 15 to 20)
#    0.000    0.727    3.636    2.727   14.000    2.182 
#    0.000    0.000    0.000    0.000    0.000    0.000 
#    0.000    0.000    0.000    4.909    0.000    0.000 
#
# Total GULP energy -245206.406425 kJ/mol
# GULP energy per Si atom -5572.872873 kJ/mol
# Density = 1.906598 g / cm^3
# Si number density = 19.109471 Si / 1000 Ang^3
#
#
#
# Elastic Constant Matrix: (Units=GPa)
#
#
# Indices 1 2 3 4 5 6 
#
# 1 84.5079 66.4371 14.3155 0.0000 0.0000 0.0000
# 2 66.4371 84.5087 14.3154 0.0000 0.0000 0.0000
# 3 14.3155 14.3154 61.8495 0.0000 0.0000 0.0000
# 4 0.0000 0.0000 0.0000 21.1836 0.0000 0.0000
# 5 0.0000 0.0000 0.0000 0.0000 21.1838 0.0000
# 6 0.0000 0.0000 0.0000 0.0000 0.0000 29.6320
#
#
#
# Elastic Compliance Matrix: (Units=1/GPa)
#
#
# Indices 1 2 3 4 5 6 
#
# 1 0.031133 -0.024204 -0.001604 0.000000 0.000000 0.000000
# 2 -0.024204 0.031133 -0.001604 0.000000 0.000000 0.000000
# 3 -0.001604 -0.001604 0.016911 0.000000 0.000000 0.000000
# 4 0.000000 0.000000 0.000000 0.047206 0.000000 0.000000
# 5 0.000000 0.000000 0.000000 0.000000 0.047206 0.000000
# 6 0.000000 0.000000 0.000000 0.000000 0.000000 0.033747
#
#
# Mechanical properties :
#
#
# Convention : Reuss Voigt Hill
#
# Bulk Modulus (GPa) = 41.06140 46.77799 43.91970
# Shear Modulus (GPa) = 18.49957 23.45309 20.97633
#
# Velocity S-wave (km/s) = 3.11478 3.50709 3.31674
# Velocity P-wave (km/s) = 5.87111 6.39778 6.14010
#
# Compressibility (1/GPa) = 0.02435377
#
# Stress axis : x y z
#
# Youngs Moduli (GPa) = 32.12020 32.12055 59.13423
#
# Poissons Ratio (x) = 0.77744 0.09485
# Poissons Ratio (y) = 0.77743 0.09483
# Poissons Ratio (z) = 0.05152 0.05151
#
# Static dielectric constant tensor:
#      x y z
#    x 1.717840 0.000000 0.000000 
#    y 0.000000 1.717840 0.000000 
#    z 0.000000 0.000000 1.730070 
# 
# From -- ./inp_files/14347.got.cif
#   From: 2010.05.17/outbox.cif.g08.bks.cpg/sg91_8_cif.got.tgz:14347.got - 2010.06.03 19:20:03.
