data_PCOD9548273
_publ_section_title
;
Structure prediction by ZEFSAII (Michael W. Deem and Ramdas Pophale) SiO2 
 PCOD9548273
Probable space group: P 41 2 2
;
_chemical_formula_sum "Si O2"
_cell_formula_units_Z 48
_cell_length_a 12.522317
_cell_length_b 12.522317
_cell_length_c 15.861218
_cell_angle_alpha 90.000000
_cell_angle_beta 90.000000
_cell_angle_gamma 90.000000
_cell_volume 2487.172582
_symmetry_space_group_name_H-M "P 41 2 2"
_symmetry_group_IT_number 91
_symmetry_cell_setting 'tetragonal'
loop_
_space_group_symop_operation_xyz
x,y,z
-y,x,1/4+z
-x,-y,1/2+z
y,-x,3/4+z
x,-y,1/2-z
-x,y,-z
y,x,3/4-z
-y,-x,1/4-z
loop_
_atom_site_type_symbol
_atom_site_label
_atom_site_fract_x
_atom_site_fract_y
_atom_site_fract_z
Si Si1 0.016060 0.387282 0.786855
Si Si2 0.605627 0.667637 0.213515
Si Si3 0.682004 0.839646 0.615266
Si Si4 0.061196 0.000000 0.750000
Si Si5 0.530149 0.530149 0.375000
Si Si6 0.467408 0.885108 0.705530
Si Si7 0.173595 0.079686 0.584125
O O1 0.974118 0.500000 0.750000
O O2 0.074564 0.333833 0.708086
O O3 0.098054 0.410964 0.864018
O O4 0.934020 0.299272 0.819131
O O5 0.727537 0.668609 0.183222
O O6 0.575548 0.599562 0.297036
O O7 0.548473 0.595563 0.141789
O O8 0.576290 0.789266 0.236896
O O9 0.588429 0.855279 0.682498
O O10 0.795959 0.850596 0.658737
O O11 0.136926 0.025527 0.671564
O O12 0.984250 0.100949 0.767283
O O13 0.460331 0.000000 0.750000
#
# Coordination Sequence:
#
# PCOD9548273 Si02
#       7
#     8   8   8   4   4   8   8
#     4  10  23  41  63  96 129 167 214 264 322 376
#     4  11  21  40  62  98 123 171 206 273 319 384
#     4  11  23  40  66  93 129 172 211 265 329 377
#     4  10  24  38  68  94 130 170 224 258 320 372
#     4  10  22  38  68  92 134 154 226 264 326 378
#     4  11  24  41  64  96 129 166 217 267 324 384
#     4  11  22  43  62  97 129 172 214 270 311 388
#
# _framework density 19.299023999999999
#
# number of rings (size 3 to 8) (size 9 to 14) (size 15 to 20)
#    0.000    1.333    3.333    2.000    9.333    0.000 
#    0.000    5.000    3.667    0.000    0.000    0.000 
#    0.000    0.000    0.000    0.000    0.000    0.000 
#
# Total GULP energy -267792.873820 kJ/mol
# GULP energy per Si atom -5579.018205 kJ/mol
# Density = 1.925510 g / cm^3
# Si number density = 19.299024 Si / 1000 Ang^3
#
#
#
# Elastic Constant Matrix: (Units=GPa)
#
#
# Indices 1 2 3 4 5 6 
#
# 1 97.1060 29.2743 22.5783 0.0000 0.0000 0.0000
# 2 29.2743 97.1060 22.5783 0.0000 0.0000 0.0000
# 3 22.5783 22.5783 49.4059 0.0000 0.0000 0.0000
# 4 0.0000 0.0000 0.0000 21.7242 0.0000 0.0000
# 5 0.0000 0.0000 0.0000 0.0000 21.7242 0.0000
# 6 0.0000 0.0000 0.0000 0.0000 0.0000 26.1824
#
#
#
# Elastic Compliance Matrix: (Units=1/GPa)
#
#
# Indices 1 2 3 4 5 6 
#
# 1 0.012100 -0.002643 -0.004322 0.000000 0.000000 0.000000
# 2 -0.002643 0.012100 -0.004322 0.000000 0.000000 0.000000
# 3 -0.004322 -0.004322 0.024191 0.000000 0.000000 0.000000
# 4 0.000000 0.000000 0.000000 0.046032 0.000000 0.000000
# 5 0.000000 0.000000 0.000000 0.000000 0.046032 0.000000
# 6 0.000000 0.000000 0.000000 0.000000 0.000000 0.038194
#
#
# Mechanical properties :
#
#
# Convention : Reuss Voigt Hill
#
# Bulk Modulus (GPa) = 38.73382 43.60888 41.17135
# Shear Modulus (GPa) = 23.82944 25.20532 24.51738
#
# Velocity S-wave (km/s) = 3.51771 3.61784 3.56813
# Velocity P-wave (km/s) = 6.05087 6.33223 6.19315
#
# Compressibility (1/GPa) = 0.02581723
#
# Stress axis : x y z
#
# Youngs Moduli (GPa) = 82.64743 82.64743 41.33848
#
# Poissons Ratio (x) = 0.21842 0.17865
# Poissons Ratio (y) = 0.21842 0.17865
# Poissons Ratio (z) = 0.35718 0.35718
#
# Static dielectric constant tensor:
#      x y z
#    x 1.675570 0.000000 0.000000 
#    y 0.000000 1.675570 0.000000 
#    z 0.000000 0.000000 1.687760 
# 
# From -- ./inp_files/21134.got.cif
#   From: 2010.05.17/outbox.cif.g08.bks.cpg/sg91_11_cif.got.tgz:21134.got - 2010.06.03 19:20:03.
