data_PCOD9548294
_publ_section_title
;
Structure prediction by ZEFSAII (Michael W. Deem and Ramdas Pophale) SiO2 
 PCOD9548294
Probable space group: P 41 2 2
;
_chemical_formula_sum "Si O2"
_cell_formula_units_Z 60
_cell_length_a 17.233539
_cell_length_b 17.233539
_cell_length_c 9.615209
_cell_angle_alpha 90.000000
_cell_angle_beta 90.000000
_cell_angle_gamma 90.000000
_cell_volume 2855.667713
_symmetry_space_group_name_H-M "P 41 2 2"
_symmetry_group_IT_number 91
_symmetry_cell_setting 'tetragonal'
loop_
_space_group_symop_operation_xyz
x,y,z
-y,x,1/4+z
-x,-y,1/2+z
y,-x,3/4+z
x,-y,1/2-z
-x,y,-z
y,x,3/4-z
-y,-x,1/4-z
loop_
_atom_site_type_symbol
_atom_site_label
_atom_site_fract_x
_atom_site_fract_y
_atom_site_fract_z
Si Si1 0.211592 0.261886 0.017670
Si Si2 0.570180 0.308192 0.773615
Si Si3 0.031809 0.423925 0.657681
Si Si4 0.298902 0.954364 0.894231
Si Si5 0.451714 0.451714 0.375000
Si Si6 0.065527 0.804078 0.117607
Si Si7 0.672289 0.596908 0.495620
Si Si8 0.166553 0.678144 0.967191
O O1 0.132926 0.287186 0.091080
O O2 0.259450 0.340108 0.989587
O O3 0.259531 0.209860 0.123655
O O4 0.212405 0.212405 0.875000
O O5 0.539303 0.361107 0.646754
O O6 0.620668 0.367985 0.870256
O O7 0.482640 0.285620 0.812350
O O8 0.621751 0.235322 0.730568
O O9 0.047302 0.500000 0.750000
O O10 0.107976 0.372762 0.625397
O O11 0.000000 0.440727 0.500000
O O12 0.975074 0.370951 0.753791
O O13 0.306728 0.000000 0.750000
O O14 0.222145 0.972456 0.986685
O O15 0.500000 0.481551 0.500000
O O16 0.121563 0.878438 0.125000
O O17 0.118518 0.729270 0.076324
O O18 0.000000 0.812692 0.000000
O O19 0.610695 0.610695 0.375000
#
# Coordination Sequence:
#
# PCOD9548294 Si02
#       8
#     8   8   8   8   4   8   8   8
#     4  10  23  40  67 107 142 185 248 300 358 437
#     4  11  24  38  63  93 129 184 237 296 357 420
#     4  12  26  47  70 107 148 195 248 303 374 441
#     4  12  24  43  75 108 148 196 242 297 369 443
#     4  12  26  44  62  92 132 180 236 304 368 424
#     4  12  25  50  80 108 149 192 235 297 375 460
#     4  10  22  40  60  93 135 180 241 301 367 414
#     4  11  23  44  73  99 143 191 241 294 367 432
#
# _framework density 21.010846999999998
#
# number of rings (size 3 to 8) (size 9 to 14) (size 15 to 20)
#    0.000    0.800    5.333    1.600    1.867    5.333 
#    0.000    1.333    0.000    0.000    0.000    0.000 
#    0.000    0.000    0.000    0.000    0.000    0.000 
#
# Total GULP energy -334025.521919 kJ/mol
# GULP energy per Si atom -5567.092032 kJ/mol
# Density = 2.096303 g / cm^3
# Si number density = 21.010847 Si / 1000 Ang^3
#
#
#
# Elastic Constant Matrix: (Units=GPa)
#
#
# Indices 1 2 3 4 5 6 
#
# 1 82.8325 67.1831 40.6758 0.0000 0.0000 0.0000
# 2 67.1831 82.8346 40.6768 0.0000 0.0000 0.0000
# 3 40.6758 40.6768 122.8676 0.0000 0.0000 0.0000
# 4 0.0000 0.0000 0.0000 -241.9221 0.0000 0.0000
# 5 0.0000 0.0000 0.0000 0.0000 -241.8940 0.0000
# 6 0.0000 0.0000 0.0000 0.0000 0.0000 38.5751
#
#
#
# Elastic Compliance Matrix: (Units=1/GPa)
#
#
# Indices 1 2 3 4 5 6 
#
# 1 0.036011 -0.027886 -0.002690 0.000000 0.000000 0.000000
# 2 -0.027886 0.036010 -0.002690 0.000000 0.000000 0.000000
# 3 -0.002690 -0.002690 0.009920 0.000000 0.000000 0.000000
# 4 0.000000 0.000000 0.000000 -0.004134 0.000000 0.000000
# 5 0.000000 0.000000 0.000000 0.000000 -0.004134 0.000000
# 6 0.000000 0.000000 0.000000 0.000000 0.000000 0.025923
#
#
# Mechanical properties :
#
#
# Convention : Reuss Voigt Hill
#
# Bulk Modulus (GPa) = 64.89286 65.06735 64.98010
# Shear Modulus (GPa) = 29.19484 -79.71494 -25.26005
#
# Velocity S-wave (km/s) = 3.73166 -6.16622 -3.47109
# Velocity P-wave (km/s) = 7.03701 4.43404 3.86386
#
# Compressibility (1/GPa) = 0.01541002
#
# Stress axis : x y z
#
# Youngs Moduli (GPa) = 27.76955 27.77013 100.80928
#
# Poissons Ratio (x) = 0.77439 0.27113
# Poissons Ratio (y) = 0.77438 0.27116
# Poissons Ratio (z) = 0.07469 0.07470
#
# Static dielectric constant tensor:
#      x y z
#    x 1.994900 0.000000 0.000000 
#    y 0.000000 1.994880 0.000000 
#    z 0.000000 0.000000 1.950610 
# 
# From -- ./inp_files/10070.got.cif
#   From: 2010.05.17/outbox.cif.g08.bks.cpg/sg91_6_cif.got.tgz:10070.got - 2010.06.03 19:20:03.
