data_PCOD9548053
_publ_section_title
;
Structure prediction by ZEFSAII (Michael W. Deem and Ramdas Pophale) SiO2 
 PCOD9548053
Probable space group: P 41 2 2
;
_chemical_formula_sum "Si O2"
_cell_formula_units_Z 48
_cell_length_a 8.875871
_cell_length_b 8.875871
_cell_length_c 27.373742
_cell_angle_alpha 90.000000
_cell_angle_beta 90.000000
_cell_angle_gamma 90.000000
_cell_volume 2156.533123
_symmetry_space_group_name_H-M "P 41 2 2"
_symmetry_group_IT_number 91
_symmetry_cell_setting 'tetragonal'
loop_
_space_group_symop_operation_xyz
x,y,z
-y,x,1/4+z
-x,-y,1/2+z
y,-x,3/4+z
x,-y,1/2-z
-x,y,-z
y,x,3/4-z
-y,-x,1/4-z
loop_
_atom_site_type_symbol
_atom_site_label
_atom_site_fract_x
_atom_site_fract_y
_atom_site_fract_z
Si Si1 0.254963 0.022998 0.055838
Si Si2 0.531854 0.000000 0.250000
Si Si3 0.549915 0.549915 0.875000
Si Si4 0.984079 0.015922 0.125000
Si Si5 0.816778 0.198984 0.043619
Si Si6 0.500000 0.509407 0.500000
Si Si7 0.514077 0.257150 0.918817
Si Si8 0.672748 0.264116 0.716684
O O1 0.411630 0.095715 0.073435
O O2 0.150979 0.034185 0.103808
O O3 0.250953 0.852054 0.036380
O O4 0.203080 0.126373 0.010165
O O5 0.647774 0.911594 0.285760
O O6 0.421084 0.889777 0.219928
O O7 0.562482 0.366209 0.874446
O O8 0.634752 0.626263 0.920134
O O9 0.890102 0.073603 0.078547
O O10 0.661602 0.240249 0.070370
O O11 0.434462 0.629288 0.461842
O O12 0.363317 0.396020 0.511006
#
# Coordination Sequence:
#
# PCOD9548053 Si02
#       8
#     8   4   4   4   8   4   8   8
#     4  12  26  49  73 109 155 203 250 335 395 477
#     4  12  24  50  82 102 160 208 252 326 394 488
#     4  10  24  48  68 110 150 188 262 324 376 478
#     4  12  28  44  68 108 154 192 262 306 398 464
#     4  12  24  49  74 111 141 208 260 314 394 476
#     4  10  20  42  72 102 132 196 250 298 378 470
#     4  11  22  47  76 103 142 194 261 313 387 468
#     4  11  26  45  71 112 151 199 254 320 407 460
#
# _framework density 22.257947999999999
#
# number of rings (size 3 to 8) (size 9 to 14) (size 15 to 20)
#    0.000    0.667    5.000    2.000    4.667    1.333 
#   12.000    0.000    0.000    0.000    0.000    0.000 
#    0.000    0.000    0.000    0.000    0.000    0.000 
#
# Total GULP energy -267452.145959 kJ/mol
# GULP energy per Si atom -5571.919707 kJ/mol
# Density = 2.220729 g / cm^3
# Si number density = 22.257948 Si / 1000 Ang^3
#
#
#
# Elastic Constant Matrix: (Units=GPa)
#
#
# Indices 1 2 3 4 5 6 
#
# 1 136.9344 101.2468 33.4940 0.0000 0.0000 0.0000
# 2 101.2468 136.9340 33.4931 0.0000 0.0000 0.0000
# 3 33.4940 33.4931 93.0670 0.0000 0.0000 0.0000
# 4 0.0000 0.0000 0.0000 21.8249 0.0000 0.0000
# 5 0.0000 0.0000 0.0000 0.0000 21.8250 0.0000
# 6 0.0000 0.0000 0.0000 0.0000 0.0000 36.9274
#
#
#
# Elastic Compliance Matrix: (Units=1/GPa)
#
#
# Indices 1 2 3 4 5 6 
#
# 1 0.016346 -0.011675 -0.001681 0.000000 0.000000 0.000000
# 2 -0.011675 0.016346 -0.001681 0.000000 0.000000 0.000000
# 3 -0.001681 -0.001681 0.011955 0.000000 0.000000 0.000000
# 4 0.000000 0.000000 0.000000 0.045819 0.000000 0.000000
# 5 0.000000 0.000000 0.000000 0.000000 0.045819 0.000000
# 6 0.000000 0.000000 0.000000 0.000000 0.000000 0.027080
#
#
# Mechanical properties :
#
#
# Convention : Reuss Voigt Hill
#
# Bulk Modulus (GPa) = 68.61989 78.15591 73.38790
# Shear Modulus (GPa) = 25.21460 29.36223 27.28842
#
# Velocity S-wave (km/s) = 3.36941 3.63599 3.50524
# Velocity P-wave (km/s) = 6.78481 7.26754 7.03032
#
# Compressibility (1/GPa) = 0.01457303
#
# Stress axis : x y z
#
# Youngs Moduli (GPa) = 61.17616 61.17628 83.64711
#
# Poissons Ratio (x) = 0.71423 0.14063
# Poissons Ratio (y) = 0.71423 0.14061
# Poissons Ratio (z) = 0.10285 0.10284
#
# Static dielectric constant tensor:
#      x y z
#    x 1.863650 0.000000 0.000000 
#    y 0.000000 1.863650 0.000000 
#    z 0.000000 0.000000 -2.892020 
# 
# From -- ./inp_files/18246.got.cif
#   From: 2010.05.17/outbox.cif.g08.bks.cpg/sg91_10_cif.got.tgz:18246.got - 2010.06.03 19:20:03.
