data_PCOD9548573
_publ_section_title
;
Structure prediction by ZEFSAII (Michael W. Deem and Ramdas Pophale) SiO2 
 PCOD9548573
Probable space group: P 41 2 2
;
_chemical_formula_sum "Si O2"
_cell_formula_units_Z 48
_cell_length_a 14.092330
_cell_length_b 14.092330
_cell_length_c 11.494175
_cell_angle_alpha 90.000000
_cell_angle_beta 90.000000
_cell_angle_gamma 90.000000
_cell_volume 2282.671487
_symmetry_space_group_name_H-M "P 41 2 2"
_symmetry_group_IT_number 91
_symmetry_cell_setting 'tetragonal'
loop_
_space_group_symop_operation_xyz
x,y,z
-y,x,1/4+z
-x,-y,1/2+z
y,-x,3/4+z
x,-y,1/2-z
-x,y,-z
y,x,3/4-z
-y,-x,1/4-z
loop_
_atom_site_type_symbol
_atom_site_label
_atom_site_fract_x
_atom_site_fract_y
_atom_site_fract_z
Si Si1 0.082943 0.846898 0.742108
Si Si2 0.814267 0.768699 0.679120
Si Si3 0.598214 0.725794 0.661305
Si Si4 0.644970 0.485286 0.879153
Si Si5 0.500000 0.881676 0.500000
Si Si6 0.008417 0.341016 0.138287
Si Si7 0.899927 0.100074 0.625000
O O1 0.091824 0.908177 0.625000
O O2 0.184015 0.832253 0.803009
O O3 0.044795 0.746231 0.699602
O O4 0.008118 0.885427 0.836152
O O5 0.705036 0.747523 0.701725
O O6 0.883015 0.676950 0.680685
O O7 0.845016 0.850955 0.768129
O O8 0.611334 0.622475 0.601080
O O9 0.526344 0.709992 0.768501
O O10 0.561344 0.810265 0.580209
O O11 0.688400 0.500000 0.750000
O O12 0.552600 0.552600 0.875000
O O13 0.566103 0.952209 0.426646
O O14 0.000000 0.332688 0.000000
#
# Coordination Sequence:
#
# PCOD9548573 Si02
#       7
#     8   8   8   8   4   8   4
#     4  11  22  48  73 102 138 184 244 309 364 441
#     4  11  24  48  72  98 146 188 249 295 377 438
#     4  11  25  44  77 106 146 199 238 310 366 444
#     4   9  22  44  69 110 145 179 248 290 359 434
#     4  12  28  48  70 108 152 184 246 304 380 434
#     4  11  25  50  69 105 141 195 245 296 369 455
#     4  10  26  42  68 106 140 186 242 308 356 426
#
# _framework density 21.027995000000001
#
# number of rings (size 3 to 8) (size 9 to 14) (size 15 to 20)
#    0.000    1.333    3.333    0.500    9.333    0.000 
#   30.000    0.000    0.000    0.000    0.000    0.000 
#    0.000    0.000    0.000    0.000    0.000    0.000 
#
# Total GULP energy -268097.923862 kJ/mol
# GULP energy per Si atom -5585.373414 kJ/mol
# Density = 2.098013 g / cm^3
# Si number density = 21.027995 Si / 1000 Ang^3
#
#
#
# Elastic Constant Matrix: (Units=GPa)
#
#
# Indices 1 2 3 4 5 6 
#
# 1 97.7138 13.5803 29.9123 0.0000 0.0000 0.0000
# 2 13.5803 97.7118 29.9105 0.0000 0.0000 0.0000
# 3 29.9123 29.9105 95.0652 0.0000 0.0000 0.0000
# 4 0.0000 0.0000 0.0000 26.7494 0.0000 0.0000
# 5 0.0000 0.0000 0.0000 0.0000 26.7498 0.0000
# 6 0.0000 0.0000 0.0000 0.0000 0.0000 30.5150
#
#
#
# Elastic Compliance Matrix: (Units=1/GPa)
#
#
# Indices 1 2 3 4 5 6 
#
# 1 0.011350 -0.000536 -0.003403 0.000000 0.000000 0.000000
# 2 -0.000536 0.011350 -0.003403 0.000000 0.000000 0.000000
# 3 -0.003403 -0.003403 0.012660 0.000000 0.000000 0.000000
# 4 0.000000 0.000000 0.000000 0.037384 0.000000 0.000000
# 5 0.000000 0.000000 0.000000 0.000000 0.037383 0.000000
# 6 0.000000 0.000000 0.000000 0.000000 0.000000 0.032771
#
#
# Mechanical properties :
#
#
# Convention : Reuss Voigt Hill
#
# Bulk Modulus (GPa) = 48.35967 48.58857 48.47412
# Shear Modulus (GPa) = 30.39997 31.27535 30.83766
#
# Velocity S-wave (km/s) = 3.80635 3.86076 3.83365
# Velocity P-wave (km/s) = 6.50887 6.55978 6.53438
#
# Compressibility (1/GPa) = 0.02067839
#
# Stress axis : x y z
#
# Youngs Moduli (GPa) = 88.10506 88.10419 78.98709
#
# Poissons Ratio (x) = 0.04721 0.26877
# Poissons Ratio (y) = 0.04721 0.26875
# Poissons Ratio (z) = 0.29980 0.29978
#
# Static dielectric constant tensor:
#      x y z
#    x 1.759660 0.000000 0.000000 
#    y 0.000000 1.759670 0.000000 
#    z 0.000000 0.000000 1.769430 
# 
# From -- ./inp_files/15922.got.cif
#   From: 2010.05.17/outbox.cif.g08.bks.cpg/sg91_8_cif.got.tgz:15922.got - 2010.06.03 19:20:03.
