data_PCOD9548503
_publ_section_title
;
Structure prediction by ZEFSAII (Michael W. Deem and Ramdas Pophale) SiO2 
 PCOD9548503
Probable space group: P 41 2 2
;
_chemical_formula_sum "Si O2"
_cell_formula_units_Z 36
_cell_length_a 12.033293
_cell_length_b 12.033293
_cell_length_c 10.772877
_cell_angle_alpha 90.000000
_cell_angle_beta 90.000000
_cell_angle_gamma 90.000000
_cell_volume 1559.914102
_symmetry_space_group_name_H-M "P 41 2 2"
_symmetry_group_IT_number 91
_symmetry_cell_setting 'tetragonal'
loop_
_space_group_symop_operation_xyz
x,y,z
-y,x,1/4+z
-x,-y,1/2+z
y,-x,3/4+z
x,-y,1/2-z
-x,y,-z
y,x,3/4-z
-y,-x,1/4-z
loop_
_atom_site_type_symbol
_atom_site_label
_atom_site_fract_x
_atom_site_fract_y
_atom_site_fract_z
Si Si1 0.061498 0.061498 0.375000
Si Si2 0.482205 0.204377 0.307744
Si Si3 0.385838 0.860777 0.575996
Si Si4 0.701535 0.081771 0.528924
Si Si5 0.301567 0.298655 0.623333
O O1 0.048091 0.194402 0.362565
O O2 0.000000 0.022363 0.500000
O O3 0.573485 0.148131 0.217202
O O4 0.406892 0.123469 0.392781
O O5 0.564933 0.290323 0.373560
O O6 0.395902 0.265514 0.219024
O O7 0.500000 0.868097 0.500000
O O8 0.321966 0.760197 0.504306
O O9 0.324332 0.975157 0.552522
O O10 0.736250 0.184690 0.442238
#
# Coordination Sequence:
#
# PCOD9548503 Si02
#       5
#     4   8   8   8   8
#     4  12  28  54  82 116 162 204 256 326 402 478
#     4  11  24  46  69 108 148 199 259 321 385 468
#     4  10  24  42  70 103 144 190 252 323 385 459
#     4  12  24  47  77 107 146 200 262 317 392 479
#     4  11  23  44  69 105 147 196 250 318 390 456
#
# _framework density 23.078195000000001
#
# number of rings (size 3 to 8) (size 9 to 14) (size 15 to 20)
#    0.000    0.889    2.222    4.000    3.111    4.444 
#    8.000   22.222    0.000    0.000    0.000    0.000 
#    0.000    0.000    0.000    0.000    0.000    0.000 
#
# Total GULP energy -201213.669884 kJ/mol
# GULP energy per Si atom -5589.268608 kJ/mol
# Density = 2.302567 g / cm^3
# Si number density = 23.078195 Si / 1000 Ang^3
#
#
#
# Elastic Constant Matrix: (Units=GPa)
#
#
# Indices 1 2 3 4 5 6 
#
# 1 118.5865 37.1812 48.2377 0.0000 0.0000 0.0000
# 2 37.1812 118.5865 48.2377 0.0000 0.0000 0.0000
# 3 48.2377 48.2377 108.7257 0.0000 0.0000 0.0000
# 4 0.0000 0.0000 0.0000 39.1099 0.0000 0.0000
# 5 0.0000 0.0000 0.0000 0.0000 39.1099 0.0000
# 6 0.0000 0.0000 0.0000 0.0000 0.0000 7.9490
#
#
#
# Elastic Compliance Matrix: (Units=1/GPa)
#
#
# Indices 1 2 3 4 5 6 
#
# 1 0.010568 -0.001716 -0.003927 0.000000 0.000000 0.000000
# 2 -0.001716 0.010568 -0.003927 0.000000 0.000000 0.000000
# 3 -0.003927 -0.003927 0.012682 0.000000 0.000000 0.000000
# 4 0.000000 0.000000 0.000000 0.025569 0.000000 0.000000
# 5 0.000000 0.000000 0.000000 0.000000 0.025569 0.000000
# 6 0.000000 0.000000 0.000000 0.000000 0.000000 0.125802
#
#
# Mechanical properties :
#
#
# Convention : Reuss Voigt Hill
#
# Bulk Modulus (GPa) = 68.13291 68.13467 68.13379
# Shear Modulus (GPa) = 21.29535 31.38322 26.33928
#
# Velocity S-wave (km/s) = 3.04097 3.69163 3.38199
# Velocity P-wave (km/s) = 6.47431 6.91074 6.69609
#
# Compressibility (1/GPa) = 0.01467720
#
# Stress axis : x y z
#
# Youngs Moduli (GPa) = 94.62293 94.62293 78.84945
#
# Poissons Ratio (x) = 0.16237 0.30968
# Poissons Ratio (y) = 0.16237 0.30968
# Poissons Ratio (z) = 0.37163 0.37163
#
# Static dielectric constant tensor:
#      x y z
#    x 1.878920 0.000000 0.000000 
#    y 0.000000 1.878920 0.000000 
#    z 0.000000 0.000000 1.976100 
# 
# From -- ./inp_files/3563.got.cif
#   From: 2010.05.17/outbox.cif.g08.bks.cpg/sg91_2_cif.got.tgz:3563.got - 2010.06.03 19:20:03.
