data_PCOD9548831
_publ_section_title
;
Structure prediction by ZEFSAII (Michael W. Deem and Ramdas Pophale) SiO2 
 PCOD9548831
Probable space group: P 41 2 2
;
_chemical_formula_sum "Si O2"
_cell_formula_units_Z 56
_cell_length_a 12.000000
_cell_length_b 12.000000
_cell_length_c 21.000000
_cell_angle_alpha 90.000000
_cell_angle_beta 90.000000
_cell_angle_gamma 90.000000
_cell_volume 3024.000000
_symmetry_space_group_name_H-M "P 41 2 2"
_symmetry_group_IT_number 91
_symmetry_cell_setting 'tetragonal'
loop_
_space_group_symop_operation_xyz
x,y,z
-y,x,1/4+z
-x,-y,1/2+z
y,-x,3/4+z
x,-y,1/2-z
-x,y,-z
y,x,3/4-z
-y,-x,1/4-z
loop_
_atom_site_type_symbol
_atom_site_label
_atom_site_fract_x
_atom_site_fract_y
_atom_site_fract_z
Si Si1 0.006922 0.405515 0.573685
Si Si2 0.192629 0.457583 0.102270
Si Si3 0.759241 0.142173 0.189609
Si Si4 0.504987 0.775458 0.294679
Si Si5 0.590694 0.539536 0.678502
Si Si6 0.002821 0.144944 0.576383
Si Si7 0.120957 0.208622 0.078981
O O1 0.136458 0.428123 0.582951
O O2 0.974920 0.276478 0.576343
O O3 0.000000 0.445688 0.500000
O O4 0.924168 0.480364 0.614477
O O5 0.280818 0.468183 0.158114
O O6 0.176088 0.326348 0.094050
O O7 0.229329 0.508057 0.032904
O O8 0.807578 0.192423 0.125000
O O9 0.632543 0.185481 0.196167
O O10 0.822410 0.164485 0.257338
O O11 0.766028 0.009718 0.180080
O O12 0.468516 0.658841 0.323031
O O13 0.575757 0.500000 0.750000
O O14 0.532874 0.467127 0.625000
O O15 0.121188 0.134587 0.613486
O O16 0.000000 0.110296 0.500000
O O17 0.921693 0.078308 0.625000
#
# Coordination Sequence:
#
# PCOD9548831 Si02
#       7
#     8   8   8   8   8   8   8
#     4   9  19  40  64  87 118 161 210 248 306 372
#     4  10  20  40  65  91 121 161 216 256 308 379
#     4  10  20  35  63  94 118 157 204 260 314 365
#     4  10  19  39  67  90 121 163 207 260 316 376
#     4  12  24  40  61  95 132 167 208 259 320 384
#     4  11  25  41  61  91 125 168 207 258 316 377
#     4  10  21  38  63  89 119 163 209 255 310 372
#
# _framework density 18.518519000000001
#
# number of rings (size 3 to 8) (size 9 to 14) (size 15 to 20)
#    0.000    1.714    2.857    1.714    4.000    0.571 
#    5.143    0.000    0.000    0.000    0.000    0.000 
#    0.000    0.000    0.000    0.000    0.000    0.000 
#
# Total GULP energy -311773.343678 kJ/mol
# GULP energy per Si atom -5567.381137 kJ/mol
# Density = 1.847637 g / cm^3
# Si number density = 18.518519 Si / 1000 Ang^3
#
#
#
# Elastic Constant Matrix: (Units=GPa)
#
#
# Indices 1 2 3 4 5 6 
#
# 1 68.9790 18.4675 44.4955 0.0000 0.0000 0.0000
# 2 18.4675 68.9795 44.4962 0.0000 0.0000 0.0000
# 3 44.4955 44.4962 123.0567 0.0000 0.0000 0.0000
# 4 0.0000 0.0000 0.0000 9.5999 0.0000 0.0000
# 5 0.0000 0.0000 0.0000 0.0000 9.6005 0.0000
# 6 0.0000 0.0000 0.0000 0.0000 0.0000 12.8824
#
#
#
# Elastic Compliance Matrix: (Units=1/GPa)
#
#
# Indices 1 2 3 4 5 6 
#
# 1 0.018945 -0.000852 -0.006542 0.000000 0.000000 0.000000
# 2 -0.000852 0.018945 -0.006542 0.000000 0.000000 0.000000
# 3 -0.006542 -0.006542 0.012858 0.000000 0.000000 0.000000
# 4 0.000000 0.000000 0.000000 0.104168 0.000000 0.000000
# 5 0.000000 0.000000 0.000000 0.000000 0.104161 0.000000
# 6 0.000000 0.000000 0.000000 0.000000 0.000000 0.077625
#
#
# Mechanical properties :
#
#
# Convention : Reuss Voigt Hill
#
# Bulk Modulus (GPa) = 43.71570 52.88151 48.29861
# Shear Modulus (GPa) = 13.43360 16.65363 15.04362
#
# Velocity S-wave (km/s) = 2.69627 3.00208 2.85328
# Velocity P-wave (km/s) = 5.77503 6.37453 6.08217
#
# Compressibility (1/GPa) = 0.02287507
#
# Stress axis : x y z
#
# Youngs Moduli (GPa) = 52.78311 52.78312 77.77470
#
# Poissons Ratio (x) = 0.04497 0.50883
# Poissons Ratio (y) = 0.04497 0.50884
# Poissons Ratio (z) = 0.34533 0.34533
#
# Static dielectric constant tensor:
#      x y z
#    x 1.663860 0.000000 0.000000 
#    y 0.000000 1.663860 0.000000 
#    z 0.000000 0.000000 1.630490 
# 
# From -- ./inp_files/6378.got.cif
#   From: 2010.05.17/outbox.ucp.g08.bks.cvg/sg91_4_cif.got.tgz:6378.got - 2010.06.11 10:36:11.
