data_PCOD9548592
_publ_section_title
;
Structure prediction by ZEFSAII (Michael W. Deem and Ramdas Pophale) SiO2 
 PCOD9548592
Probable space group: P 41 2 2
;
_chemical_formula_sum "Si O2"
_cell_formula_units_Z 36
_cell_length_a 11.215357
_cell_length_b 11.215357
_cell_length_c 15.406235
_cell_angle_alpha 90.000000
_cell_angle_beta 90.000000
_cell_angle_gamma 90.000000
_cell_volume 1937.861447
_symmetry_space_group_name_H-M "P 41 2 2"
_symmetry_group_IT_number 91
_symmetry_cell_setting 'tetragonal'
loop_
_space_group_symop_operation_xyz
x,y,z
-y,x,1/4+z
-x,-y,1/2+z
y,-x,3/4+z
x,-y,1/2-z
-x,y,-z
y,x,3/4-z
-y,-x,1/4-z
loop_
_atom_site_type_symbol
_atom_site_label
_atom_site_fract_x
_atom_site_fract_y
_atom_site_fract_z
Si Si1 0.766196 0.937017 0.125808
Si Si2 0.447491 0.392803 0.188349
Si Si3 0.734147 0.355792 0.958940
Si Si4 0.783581 0.783581 0.375000
Si Si5 0.127753 0.019906 0.451044
O O1 0.659568 0.865433 0.169169
O O2 0.886699 0.870968 0.160830
O O3 0.768467 0.076988 0.147627
O O4 0.775218 0.943679 0.021549
O O5 0.399756 0.500000 0.250000
O O6 0.543227 0.456774 0.125000
O O7 0.352429 0.336669 0.123087
O O8 0.517416 0.299605 0.248791
O O9 0.717687 0.262861 0.038785
O O10 0.000000 0.020560 0.500000
O O11 0.114905 0.114905 0.375000
#
# Coordination Sequence:
#
# PCOD9548592 Si02
#       5
#     8   8   8   4   8
#     4  11  18  32  54  95 122 159 197 241 286 357
#     4   9  20  41  64  88 105 149 212 262 310 357
#     4  11  21  35  65  90 117 152 205 260 298 361
#     4  12  20  32  60 100 126 158 202 238 298 364
#     4   9  15  27  48  76 120 154 194 222 267 345
#
# _framework density 18.577179000000001
#
# number of rings (size 3 to 8) (size 9 to 14) (size 15 to 20)
#    0.000    1.778    6.667    0.667    0.000    0.000 
#    0.000    3.333    9.778    8.000    0.000    0.000 
#    0.000    0.000    0.000    0.000    0.000    0.000 
#
# Total GULP energy -200411.466267 kJ/mol
# GULP energy per Si atom -5566.985174 kJ/mol
# Density = 1.853490 g / cm^3
# Si number density = 18.577179 Si / 1000 Ang^3
#
#
#
# Elastic Constant Matrix: (Units=GPa)
#
#
# Indices 1 2 3 4 5 6 
#
# 1 50.1817 48.9024 43.0516 0.0000 0.0000 0.0000
# 2 48.9024 50.1816 43.0514 0.0000 0.0000 0.0000
# 3 43.0516 43.0514 129.9564 0.0000 0.0000 0.0000
# 4 0.0000 0.0000 0.0000 37.3677 0.0000 0.0000
# 5 0.0000 0.0000 0.0000 0.0000 37.3680 0.0000
# 6 0.0000 0.0000 0.0000 0.0000 0.0000 17.6718
#
#
#
# Elastic Compliance Matrix: (Units=1/GPa)
#
#
# Indices 1 2 3 4 5 6 
#
# 1 0.397937 -0.383765 -0.004696 0.000000 0.000000 0.000000
# 2 -0.383765 0.397937 -0.004694 0.000000 0.000000 0.000000
# 3 -0.004696 -0.004694 0.010806 0.000000 0.000000 0.000000
# 4 0.000000 0.000000 0.000000 0.026761 0.000000 0.000000
# 5 0.000000 0.000000 0.000000 0.000000 0.026761 0.000000
# 6 0.000000 0.000000 0.000000 0.000000 0.000000 0.056587
#
#
# Mechanical properties :
#
#
# Convention : Reuss Voigt Hill
#
# Bulk Modulus (GPa) = 49.09097 55.59229 52.34163
# Shear Modulus (GPa) = 2.92417 24.83578 13.87997
#
# Velocity S-wave (km/s) = 1.25598 3.66033 2.73637
# Velocity P-wave (km/s) = 5.34660 6.91766 6.18224
#
# Compressibility (1/GPa) = 0.02037034
#
# Stress axis : x y z
#
# Youngs Moduli (GPa) = 2.51296 2.51296 92.54507
#
# Poissons Ratio (x) = 0.96439 0.43455
# Poissons Ratio (y) = 0.96439 0.43444
# Poissons Ratio (z) = 0.01180 0.01180
#
# Static dielectric constant tensor:
#      x y z
#    x 1.656710 0.000000 0.000000 
#    y 0.000000 1.656710 0.000000 
#    z 0.000000 0.000000 1.719880 
# 
# From -- ./inp_files/11285.got.cif
#   From: 2010.05.17/outbox.cif.g08.bks.cpg/sg91_6_cif.got.tgz:11285.got - 2010.06.03 19:20:03.
