data_PCOD9548621
_publ_section_title
;
Structure prediction by ZEFSAII (Michael W. Deem and Ramdas Pophale) SiO2 
 PCOD9548621
Probable space group: P 41 2 2
;
_chemical_formula_sum "Si O2"
_cell_formula_units_Z 48
_cell_length_a 16.945930
_cell_length_b 16.945930
_cell_length_c 9.710473
_cell_angle_alpha 90.000000
_cell_angle_beta 90.000000
_cell_angle_gamma 90.000000
_cell_volume 2788.503547
_symmetry_space_group_name_H-M "P 41 2 2"
_symmetry_group_IT_number 91
_symmetry_cell_setting 'tetragonal'
loop_
_space_group_symop_operation_xyz
x,y,z
-y,x,1/4+z
-x,-y,1/2+z
y,-x,3/4+z
x,-y,1/2-z
-x,y,-z
y,x,3/4-z
-y,-x,1/4-z
loop_
_atom_site_type_symbol
_atom_site_label
_atom_site_fract_x
_atom_site_fract_y
_atom_site_fract_z
Si Si1 0.405325 0.919990 0.482708
Si Si2 0.796814 0.330385 0.077658
Si Si3 0.565449 0.129924 0.689858
Si Si4 0.437319 0.311014 0.370452
Si Si5 0.913621 0.386803 0.859568
Si Si6 0.540567 0.330026 0.143302
O O1 0.500000 0.915263 0.500000
O O2 0.360825 0.844986 0.541442
O O3 0.396597 0.915974 0.317881
O O4 0.376477 0.993483 0.576953
O O5 0.744888 0.255113 0.125000
O O6 0.737940 0.402803 0.044041
O O7 0.861064 0.328379 0.953271
O O8 0.565416 0.224366 0.700098
O O9 0.475238 0.099257 0.671107
O O10 0.609216 0.117807 0.545794
O O11 0.500000 0.307265 0.500000
O O12 0.350649 0.350649 0.375000
O O13 0.478155 0.361130 0.251886
O O14 0.599462 0.400539 0.125000
O O15 0.500000 0.305151 0.000000
#
# Coordination Sequence:
#
# PCOD9548621 Si02
#       6
#     8   8   8   8   8   8
#     4  12  21  33  60  88 109 145 198 245 297 362
#     4  11  23  38  54  77 115 154 187 236 307 371
#     4  11  21  36  53  83 112 137 188 261 310 359
#     4  12  23  37  54  73 107 156 205 258 306 350
#     4  11  21  35  58  82 113 141 190 247 308 356
#     4  11  22  36  50  67  96 138 192 251 293 336
#
# _framework density 17.213533000000002
#
# number of rings (size 3 to 8) (size 9 to 14) (size 15 to 20)
#    0.000    0.667    6.667    3.500    0.000    6.000 
#    0.000    0.000    0.000    0.000    0.000    0.000 
#    0.000    0.000    0.000   30.000    0.000    1.333 
#
# Total GULP energy -267307.716813 kJ/mol
# GULP energy per Si atom -5568.910767 kJ/mol
# Density = 1.717435 g / cm^3
# Si number density = 17.213533 Si / 1000 Ang^3
#
#
#
# Elastic Constant Matrix: (Units=GPa)
#
#
# Indices 1 2 3 4 5 6 
#
# 1 -189.7529 288.5089 13.9044 0.0000 0.0000 0.0000
# 2 288.5089 -189.3467 14.1137 0.0000 0.0000 0.0000
# 3 13.9044 14.1137 96.4649 0.0000 0.0000 0.0000
# 4 0.0000 0.0000 0.0000 29.9708 0.0000 0.0000
# 5 0.0000 0.0000 0.0000 0.0000 29.9692 0.0000
# 6 0.0000 0.0000 0.0000 0.0000 0.0000 12.2712
#
#
#
# Elastic Compliance Matrix: (Units=1/GPa)
#
#
# Indices 1 2 3 4 5 6 
#
# 1 0.004220 0.006315 -0.001532 0.000000 0.000000 0.000000
# 2 0.006315 0.004227 -0.001529 0.000000 0.000000 0.000000
# 3 -0.001532 -0.001529 0.010811 0.000000 0.000000 0.000000
# 4 0.000000 0.000000 0.000000 0.033366 0.000000 0.000000
# 5 0.000000 0.000000 0.000000 0.000000 0.033368 0.000000
# 6 0.000000 0.000000 0.000000 0.000000 0.000000 0.081492
#
#
# Mechanical properties :
#
#
# Convention : Reuss Voigt Hill
#
# Bulk Modulus (GPa) = 38.81058 38.93547 38.87303
# Shear Modulus (GPa) = 29.48760 -25.50187 1.99287
#
# Velocity S-wave (km/s) = 4.14339 -3.85320 1.07715
# Velocity P-wave (km/s) = 6.74431 1.69469 4.91720
#
# Compressibility (1/GPa) = 0.02576617
#
# Stress axis : x y z
#
# Youngs Moduli (GPa) = 236.99253 236.56568 92.49857
#
# Poissons Ratio (x) = -1.49395 0.14172
# Poissons Ratio (y) = -1.49664 0.14141
# Poissons Ratio (z) = 0.36311 0.36165
#
# Static dielectric constant tensor:
#      x y z
#    x 1.595710 0.000000 0.000000 
#    y 0.000000 1.595700 0.000000 
#    z 0.000000 0.000000 1.632550 
# 
# From -- ./inp_files/19555.got.cif
#   From: 2010.05.17/outbox.cif.g08.bks.cpg/sg91_10_cif.got.tgz:19555.got - 2010.06.03 19:20:03.
