data_PCOD9548216
_publ_section_title
;
Structure prediction by ZEFSAII (Michael W. Deem and Ramdas Pophale) SiO2 
 PCOD9548216
Probable space group: P 41 2 2
;
_chemical_formula_sum "Si O2"
_cell_formula_units_Z 48
_cell_length_a 9.366962
_cell_length_b 9.366962
_cell_length_c 26.173151
_cell_angle_alpha 90.000000
_cell_angle_beta 90.000000
_cell_angle_gamma 90.000000
_cell_volume 2296.431670
_symmetry_space_group_name_H-M "P 41 2 2"
_symmetry_group_IT_number 91
_symmetry_cell_setting 'tetragonal'
loop_
_space_group_symop_operation_xyz
x,y,z
-y,x,1/4+z
-x,-y,1/2+z
y,-x,3/4+z
x,-y,1/2-z
-x,y,-z
y,x,3/4-z
-y,-x,1/4-z
loop_
_atom_site_type_symbol
_atom_site_label
_atom_site_fract_x
_atom_site_fract_y
_atom_site_fract_z
Si Si1 0.786707 0.272603 0.443618
Si Si2 0.399554 0.775647 0.665120
Si Si3 0.919486 0.314014 0.611970
Si Si4 0.373491 0.109997 0.643797
Si Si5 0.080388 0.659100 0.229785
Si Si6 0.832750 0.804313 0.507510
O O1 0.751652 0.436673 0.430705
O O2 0.685638 0.174489 0.408365
O O3 0.751880 0.217584 0.500936
O O4 0.950733 0.261507 0.423771
O O5 0.337024 0.662977 0.625000
O O6 0.309701 0.778310 0.716888
O O7 0.376469 0.937071 0.643601
O O8 0.809067 0.190934 0.625000
O O9 0.852981 0.462649 0.592234
O O10 0.961539 0.353690 0.670175
O O11 0.267305 0.170451 0.686825
O O12 0.099092 0.500000 0.250000
O O13 0.945106 0.742605 0.251503
O O14 0.000000 0.837131 0.500000
#
# Coordination Sequence:
#
# PCOD9548216 Si02
#       6
#     8   8   8   8   8   8
#     4  11  24  42  66  97 135 168 226 271 328 402
#     4  10  23  41  66  94 128 175 215 271 327 390
#     4  11  26  42  67  97 135 179 215 277 344 385
#     4  10  21  44  63  94 132 165 219 272 322 397
#     4  12  25  44  67  98 133 175 220 280 335 398
#     4  10  23  41  69  96 125 172 222 268 330 393
#
# _framework density 20.901992
#
# number of rings (size 3 to 8) (size 9 to 14) (size 15 to 20)
#    0.000    1.333    3.333    1.000    7.000    1.333 
#    0.000    0.833    0.000    0.000    0.000    0.000 
#    0.000    0.000    0.000    0.000    0.000    0.000 
#
# Total GULP energy -267907.584756 kJ/mol
# GULP energy per Si atom -5581.408016 kJ/mol
# Density = 2.085442 g / cm^3
# Si number density = 20.901992 Si / 1000 Ang^3
#
#
#
# Elastic Constant Matrix: (Units=GPa)
#
#
# Indices 1 2 3 4 5 6 
#
# 1 69.3026 70.2891 16.2194 0.0000 0.0000 0.0000
# 2 70.2891 69.2998 16.2208 0.0000 0.0000 0.0000
# 3 16.2194 16.2208 47.4244 0.0000 0.0000 0.0000
# 4 0.0000 0.0000 0.0000 16.2640 0.0000 0.0000
# 5 0.0000 0.0000 0.0000 0.0000 16.2646 0.0000
# 6 0.0000 0.0000 0.0000 0.0000 0.0000 -4.5694
#
#
#
# Elastic Compliance Matrix: (Units=1/GPa)
#
#
# Indices 1 2 3 4 5 6 
#
# 1 -0.502195 0.509992 -0.002681 0.000000 0.000000 0.000000
# 2 0.509992 -0.502224 -0.002642 0.000000 0.000000 0.000000
# 3 -0.002681 -0.002642 0.022907 0.000000 0.000000 0.000000
# 4 0.000000 0.000000 0.000000 0.061486 0.000000 0.000000
# 5 0.000000 0.000000 0.000000 0.000000 0.061483 0.000000
# 6 0.000000 0.000000 0.000000 0.000000 0.000000 -0.218846
#
#
# Mechanical properties :
#
#
# Convention : Reuss Voigt Hill
#
# Bulk Modulus (GPa) = 35.93918 43.49838 39.71878
# Shear Modulus (GPa) = -2.40679 11.14499 4.36910
#
# Velocity S-wave (km/s) = -1.07423 2.31162 1.44735
# Velocity P-wave (km/s) = 3.96142 5.28967 4.67298
#
# Compressibility (1/GPa) = 0.02782479
#
# Stress axis : x y z
#
# Youngs Moduli (GPa) = -1.99126 -1.99114 43.65491
#
# Poissons Ratio (x) = 1.01547 0.11705
# Poissons Ratio (y) = 1.01553 0.11534
# Poissons Ratio (z) = -0.00534 -0.00526
#
# Static dielectric constant tensor:
#      x y z
#    x 1.745640 0.000000 0.000000 
#    y 0.000000 1.745640 0.000000 
#    z 0.000000 0.000000 1.876330 
# 
# From -- ./inp_files/13584.got.cif
#   From: 2010.05.17/outbox.cif.g08.bks.cpg/sg91_7_cif.got.tgz:13584.got - 2010.06.03 19:20:03.
