data_PCOD9548400
_publ_section_title
;
Structure prediction by ZEFSAII (Michael W. Deem and Ramdas Pophale) SiO2 
 PCOD9548400
Probable space group: P 41 2 2
;
_chemical_formula_sum "Si O2"
_cell_formula_units_Z 60
_cell_length_a 17.108920
_cell_length_b 17.108920
_cell_length_c 8.298755
_cell_angle_alpha 90.000000
_cell_angle_beta 90.000000
_cell_angle_gamma 90.000000
_cell_volume 2429.171261
_symmetry_space_group_name_H-M "P 41 2 2"
_symmetry_group_IT_number 91
_symmetry_cell_setting 'tetragonal'
loop_
_space_group_symop_operation_xyz
x,y,z
-y,x,1/4+z
-x,-y,1/2+z
y,-x,3/4+z
x,-y,1/2-z
-x,y,-z
y,x,3/4-z
-y,-x,1/4-z
loop_
_atom_site_type_symbol
_atom_site_label
_atom_site_fract_x
_atom_site_fract_y
_atom_site_fract_z
Si Si1 0.415596 0.016132 0.561290
Si Si2 0.176055 0.367016 0.192379
Si Si3 0.744404 0.681956 0.096857
Si Si4 0.543817 0.304029 0.646968
Si Si5 0.923213 0.311643 0.391866
Si Si6 0.566913 0.224133 0.121680
Si Si7 0.097899 0.902101 0.125000
Si Si8 0.923671 0.849785 0.216248
O O1 0.500000 0.042636 0.500000
O O2 0.356240 0.086236 0.515084
O O3 0.414747 0.000000 0.750000
O O4 0.390844 0.942928 0.451956
O O5 0.233077 0.293278 0.168972
O O6 0.224423 0.425294 0.308188
O O7 0.169619 0.407954 0.017452
O O8 0.835120 0.683914 0.038055
O O9 0.752255 0.643007 0.271778
O O10 0.685158 0.621793 0.006035
O O11 0.500000 0.348856 0.500000
O O12 0.476451 0.292986 0.779989
O O13 0.923869 0.242704 0.259204
O O14 0.000000 0.293772 0.500000
O O15 0.500000 0.195654 0.000000
O O16 0.141910 0.881721 0.291061
O O17 0.008374 0.886049 0.176297
O O18 0.889741 0.889741 0.375000
#
# Coordination Sequence:
#
# PCOD9548400 Si02
#       8
#     8   8   8   8   8   8   4   8
#     4  12  28  47  72 100 140 197 247 302 375 461
#     4  11  22  40  66  98 136 177 246 298 355 423
#     4  11  23  40  68  98 139 187 237 303 356 426
#     4   9  19  37  63  95 134 175 221 280 350 425
#     4  12  27  48  63 100 145 190 242 307 384 444
#     4   9  19  36  62  94 134 174 218 284 351 422
#     4  10  22  44  72 100 136 186 250 326 382 450
#     4  11  25  44  73 101 139 188 255 319 385 466
#
# _framework density 24.699781000000002
#
# number of rings (size 3 to 8) (size 9 to 14) (size 15 to 20)
#    0.000    1.333    1.333    4.400    3.733   10.667 
#    2.400    0.000    0.000    0.000    0.000    0.000 
#    0.000  630.400    0.000    0.000    0.000    0.000 
#
# Total GULP energy -334762.645298 kJ/mol
# GULP energy per Si atom -5579.377422 kJ/mol
# Density = 2.464356 g / cm^3
# Si number density = 24.699781 Si / 1000 Ang^3
#
#
#
# Elastic Constant Matrix: (Units=GPa)
#
#
# Indices 1 2 3 4 5 6 
#
# 1 91.0140 51.7455 28.8654 0.0000 0.0000 0.0000
# 2 51.7455 91.0147 28.8652 0.0000 0.0000 0.0000
# 3 28.8654 28.8652 100.4868 0.0000 0.0000 0.0000
# 4 0.0000 0.0000 0.0000 25.5060 0.0000 0.0000
# 5 0.0000 0.0000 0.0000 0.0000 25.5062 0.0000
# 6 0.0000 0.0000 0.0000 0.0000 0.0000 24.4926
#
#
#
# Elastic Compliance Matrix: (Units=1/GPa)
#
#
# Indices 1 2 3 4 5 6 
#
# 1 0.016696 -0.008770 -0.002277 0.000000 0.000000 0.000000
# 2 -0.008770 0.016695 -0.002277 0.000000 0.000000 0.000000
# 3 -0.002277 -0.002277 0.011259 0.000000 0.000000 0.000000
# 4 0.000000 0.000000 0.000000 0.039206 0.000000 0.000000
# 5 0.000000 0.000000 0.000000 0.000000 0.039206 0.000000
# 6 0.000000 0.000000 0.000000 0.000000 0.000000 0.040829
#
#
# Mechanical properties :
#
#
# Convention : Reuss Voigt Hill
#
# Bulk Modulus (GPa) = 55.54363 55.71863 55.63113
# Shear Modulus (GPa) = 25.44017 26.63691 26.03854
#
# Velocity S-wave (km/s) = 3.21281 3.28750 3.25037
# Velocity P-wave (km/s) = 6.02488 6.08421 6.05461
#
# Compressibility (1/GPa) = 0.01800387
#
# Stress axis : x y z
#
# Youngs Moduli (GPa) = 59.89626 59.89683 88.81398
#
# Poissons Ratio (x) = 0.52530 0.20220
# Poissons Ratio (y) = 0.52529 0.20219
# Poissons Ratio (z) = 0.13636 0.13636
#
# Static dielectric constant tensor:
#      x y z
#    x 2.030040 0.000000 0.000000 
#    y 0.000000 2.030030 0.000000 
#    z 0.000000 0.000000 2.036980 
# 
# From -- ./inp_files/15299.got.cif
#   From: 2010.05.17/outbox.cif.g08.bks.cpg/sg91_8_cif.got.tgz:15299.got - 2010.06.03 19:20:03.
