data_PCOD9548401
_publ_section_title
;
Structure prediction by ZEFSAII (Michael W. Deem and Ramdas Pophale) SiO2 
 PCOD9548401
Probable space group: P 41 2 2
;
_chemical_formula_sum "Si O2"
_cell_formula_units_Z 40
_cell_length_a 17.848096
_cell_length_b 17.848096
_cell_length_c 5.027553
_cell_angle_alpha 90.000000
_cell_angle_beta 90.000000
_cell_angle_gamma 90.000000
_cell_volume 1601.549787
_symmetry_space_group_name_H-M "P 41 2 2"
_symmetry_group_IT_number 91
_symmetry_cell_setting 'tetragonal'
loop_
_space_group_symop_operation_xyz
x,y,z
-y,x,1/4+z
-x,-y,1/2+z
y,-x,3/4+z
x,-y,1/2-z
-x,y,-z
y,x,3/4-z
-y,-x,1/4-z
loop_
_atom_site_type_symbol
_atom_site_label
_atom_site_fract_x
_atom_site_fract_y
_atom_site_fract_z
Si Si1 0.321481 0.605660 0.867130
Si Si2 0.500000 0.760439 0.000000
Si Si3 0.000000 0.140945 0.000000
Si Si4 0.379828 0.834287 0.636681
Si Si5 0.053323 0.500000 0.750000
Si Si6 0.869618 0.130382 0.625000
Si Si7 0.734443 0.068740 0.891580
O O1 0.381714 0.618287 0.625000
O O2 0.244508 0.637642 0.749173
O O3 0.350624 0.649377 0.125000
O O4 0.292752 0.528201 0.008602
O O5 0.569019 0.810780 0.110459
O O6 0.026943 0.197622 0.776458
O O7 0.927623 0.105602 0.858754
O O8 0.432820 0.888113 0.459911
O O9 0.306709 0.885083 0.623320
O O10 0.000000 0.514752 0.500000
O O11 0.781132 0.121718 0.693065
O O12 0.689602 0.000000 0.750000
#
# Coordination Sequence:
#
# PCOD9548401 Si02
#       7
#     8   4   4   8   4   4   8
#     4  12  27  48  80 120 157 206 264 333 408 479
#     4  12  25  52  78 118 169 206 260 348 402 513
#     4  10  22  44  72 102 152 204 264 336 408 480
#     4  12  26  47  75 116 163 209 269 328 401 489
#     4  12  27  44  74 112 163 218 264 318 398 487
#     4  10  22  44  74 104 154 200 276 338 412 482
#     4  10  24  44  72 108 153 209 262 334 400 482
#
# _framework density 24.975807
#
# number of rings (size 3 to 8) (size 9 to 14) (size 15 to 20)
#    0.000    0.800    4.000    1.800    2.800    4.800 
#    0.000    0.000   79.200    0.000    5.200    0.000 
#    0.000    0.000    0.000    0.000    0.000    0.000 
#
# Total GULP energy -222945.134279 kJ/mol
# GULP energy per Si atom -5573.628357 kJ/mol
# Density = 2.491896 g / cm^3
# Si number density = 24.975807 Si / 1000 Ang^3
#
#
#
# Elastic Constant Matrix: (Units=GPa)
#
#
# Indices 1 2 3 4 5 6 
#
# 1 86.0739 45.3568 44.3391 0.0000 0.0000 0.0000
# 2 45.3568 86.0741 44.3394 0.0000 0.0000 0.0000
# 3 44.3391 44.3394 174.5686 0.0000 0.0000 0.0000
# 4 0.0000 0.0000 0.0000 36.4265 0.0000 0.0000
# 5 0.0000 0.0000 0.0000 0.0000 36.4268 0.0000
# 6 0.0000 0.0000 0.0000 0.0000 0.0000 -84.7304
#
#
#
# Elastic Compliance Matrix: (Units=1/GPa)
#
#
# Indices 1 2 3 4 5 6 
#
# 1 0.016871 -0.007689 -0.002332 0.000000 0.000000 0.000000
# 2 -0.007689 0.016871 -0.002332 0.000000 0.000000 0.000000
# 3 -0.002332 -0.002332 0.006913 0.000000 0.000000 0.000000
# 4 0.000000 0.000000 0.000000 0.027453 0.000000 0.000000
# 5 0.000000 0.000000 0.000000 0.000000 0.027452 0.000000
# 6 0.000000 0.000000 0.000000 0.000000 0.000000 -0.011802
#
#
# Mechanical properties :
#
#
# Convention : Reuss Voigt Hill
#
# Bulk Modulus (GPa) = 62.70138 68.30967 65.50553
# Shear Modulus (GPa) = 43.94441 11.80335 27.87388
#
# Velocity S-wave (km/s) = 4.19916 2.17627 3.34434
# Velocity P-wave (km/s) = 6.97639 5.80729 6.41851
#
# Compressibility (1/GPa) = 0.01594861
#
# Stress axis : x y z
#
# Youngs Moduli (GPa) = 59.27367 59.27372 144.65219
#
# Poissons Ratio (x) = 0.45574 0.33736
# Poissons Ratio (y) = 0.45574 0.33736
# Poissons Ratio (z) = 0.13824 0.13824
#
# Static dielectric constant tensor:
#      x y z
#    x 2.069500 0.000000 0.000000 
#    y 0.000000 2.069500 0.000000 
#    z 0.000000 0.000000 1.965700 
# 
# From -- ./inp_files/18634.got.cif
#   From: 2010.05.17/outbox.cif.g08.bks.cpg/sg91_10_cif.got.tgz:18634.got - 2010.06.03 19:20:03.
