data_PCOD9548396
_publ_section_title
;
Structure prediction by ZEFSAII (Michael W. Deem and Ramdas Pophale) SiO2 
 PCOD9548396
Probable space group: P 41 2 2
;
_chemical_formula_sum "Si O2"
_cell_formula_units_Z 44
_cell_length_a 7.846999
_cell_length_b 7.846999
_cell_length_c 25.838100
_cell_angle_alpha 90.000000
_cell_angle_beta 90.000000
_cell_angle_gamma 90.000000
_cell_volume 1590.991170
_symmetry_space_group_name_H-M "P 41 2 2"
_symmetry_group_IT_number 91
_symmetry_cell_setting 'tetragonal'
loop_
_space_group_symop_operation_xyz
x,y,z
-y,x,1/4+z
-x,-y,1/2+z
y,-x,3/4+z
x,-y,1/2-z
-x,y,-z
y,x,3/4-z
-y,-x,1/4-z
loop_
_atom_site_type_symbol
_atom_site_label
_atom_site_fract_x
_atom_site_fract_y
_atom_site_fract_z
Si Si1 0.492980 0.260454 0.181876
Si Si2 0.589531 0.687773 0.561624
Si Si3 0.509928 0.071298 0.444996
Si Si4 0.782088 0.782088 0.875000
Si Si5 0.052581 0.740188 0.445127
Si Si6 0.129989 0.148859 0.582553
O O1 0.432501 0.307540 0.123642
O O2 0.582709 0.424871 0.204517
O O3 0.313305 0.192320 0.200413
O O4 0.625481 0.106663 0.179952
O O5 0.777394 0.628288 0.545718
O O6 0.578821 0.887738 0.548163
O O7 0.500000 0.162523 0.500000
O O8 0.401936 0.176325 0.401640
O O9 0.709244 0.029514 0.433645
O O10 0.150830 0.892295 0.854829
O O11 0.927671 0.815995 0.918396
O O12 0.000000 0.827083 0.500000
#
# Coordination Sequence:
#
# PCOD9548396 Si02
#       6
#     8   8   8   4   8   8
#     4  10  22  44  70 102 148 200 253 323 390 458
#     4  10  23  43  73 105 145 199 255 321 384 460
#     4  12  28  49  77 117 159 212 268 328 404 485
#     4  12  26  52  80 112 164 210 262 336 398 486
#     4  11  23  41  72 114 146 203 261 322 394 474
#     4  11  25  49  74 111 156 216 253 331 407 462
#
# _framework density 27.655714
#
# number of rings (size 3 to 8) (size 9 to 14) (size 15 to 20)
#    0.000    1.091    5.455    0.000    5.091    5.091 
#    9.818    0.000    0.000    0.000    0.000    0.000 
#    0.000    0.000    0.000    0.000    0.000    0.000 
#
# Total GULP energy -245299.979615 kJ/mol
# GULP energy per Si atom -5574.999537 kJ/mol
# Density = 2.759277 g / cm^3
# Si number density = 27.655714 Si / 1000 Ang^3
#
#
#
# Elastic Constant Matrix: (Units=GPa)
#
#
# Indices 1 2 3 4 5 6 
#
# 1 98.8179 94.4051 27.8529 0.0000 0.0000 0.0000
# 2 94.4051 98.8179 27.8529 0.0000 0.0000 0.0000
# 3 27.8529 27.8529 82.2040 0.0000 0.0000 0.0000
# 4 0.0000 0.0000 0.0000 -12.3836 0.0000 0.0000
# 5 0.0000 0.0000 0.0000 0.0000 -12.3836 0.0000
# 6 0.0000 0.0000 0.0000 0.0000 0.0000 65.8743
#
#
#
# Elastic Compliance Matrix: (Units=1/GPa)
#
#
# Indices 1 2 3 4 5 6 
#
# 1 0.116177 -0.110441 -0.001943 0.000000 0.000000 0.000000
# 2 -0.110441 0.116177 -0.001943 0.000000 0.000000 0.000000
# 3 -0.001943 -0.001943 0.013482 0.000000 0.000000 0.000000
# 4 0.000000 0.000000 0.000000 -0.080752 0.000000 0.000000
# 5 0.000000 0.000000 0.000000 0.000000 -0.080752 0.000000
# 6 0.000000 0.000000 0.000000 0.000000 0.000000 0.015180
#
#
# Mechanical properties :
#
#
# Convention : Reuss Voigt Hill
#
# Bulk Modulus (GPa) = 58.20878 64.45127 61.33003
# Shear Modulus (GPa) = 14.97485 16.87001 15.92243
#
# Velocity S-wave (km/s) = 2.32948 2.47250 2.40206
# Velocity P-wave (km/s) = 5.32247 5.61306 5.46970
#
# Compressibility (1/GPa) = 0.01717954
#
# Stress axis : x y z
#
# Youngs Moduli (GPa) = 8.60759 8.60759 74.17410
#
# Poissons Ratio (x) = 0.95063 0.14415
# Poissons Ratio (y) = 0.95063 0.14415
# Poissons Ratio (z) = 0.01673 0.01673
#
# Static dielectric constant tensor:
#      x y z
#    x 2.413850 0.000000 0.000000 
#    y 0.000000 2.413850 0.000000 
#    z 0.000000 0.000000 2.251330 
# 
# From -- ./inp_files/18075.got.cif
#   From: 2010.05.17/outbox.cif.g08.bks.cpg/sg91_10_cif.got.tgz:18075.got - 2010.06.03 19:20:03.
