data_PCOD9548822
_publ_section_title
;
Structure prediction by ZEFSAII (Michael W. Deem and Ramdas Pophale) SiO2 
 PCOD9548822
Probable space group: P 41 2 2
;
_chemical_formula_sum "Si O2"
_cell_formula_units_Z 48
_cell_length_a 8.328654
_cell_length_b 8.328654
_cell_length_c 30.379276
_cell_angle_alpha 90.000000
_cell_angle_beta 90.000000
_cell_angle_gamma 90.000000
_cell_volume 2107.303364
_symmetry_space_group_name_H-M "P 41 2 2"
_symmetry_group_IT_number 91
_symmetry_cell_setting 'tetragonal'
loop_
_space_group_symop_operation_xyz
x,y,z
-y,x,1/4+z
-x,-y,1/2+z
y,-x,3/4+z
x,-y,1/2-z
-x,y,-z
y,x,3/4-z
-y,-x,1/4-z
loop_
_atom_site_type_symbol
_atom_site_label
_atom_site_fract_x
_atom_site_fract_y
_atom_site_fract_z
Si Si1 0.284545 0.856369 0.541462
Si Si2 0.070928 0.070928 0.875000
Si Si3 0.667719 0.000000 0.250000
Si Si4 0.571798 0.839595 0.810301
Si Si5 0.167097 0.659654 0.233491
Si Si6 0.650549 0.459994 0.337844
Si Si7 0.022053 0.292034 0.643856
O O1 0.204096 0.901800 0.588014
O O2 0.153651 0.773650 0.510459
O O3 0.427106 0.729980 0.550315
O O4 0.323874 0.023985 0.518247
O O5 0.894902 0.069383 0.896909
O O6 0.556733 0.964025 0.208202
O O7 0.702219 0.797843 0.772770
O O8 0.474371 0.677098 0.822395
O O9 0.665395 0.914789 0.851542
O O10 0.255898 0.500000 0.250000
O O11 0.078969 0.651542 0.186211
O O12 0.565000 0.565000 0.375000
O O13 0.808622 0.380305 0.358676
#
# Coordination Sequence:
#
# PCOD9548822 Si02
#       7
#     8   4   4   8   8   8   8
#     4  12  27  48  76 112 147 210 249 317 394 460
#     4  12  26  48  78 104 156 196 256 300 382 470
#     4  12  30  46  72 110 156 188 260 320 386 472
#     4  12  29  49  76 114 151 201 261 320 388 464
#     4  12  26  47  78 109 150 199 257 312 380 454
#     4  12  26  47  78 109 154 193 256 319 387 457
#     4  12  26  50  76 107 152 204 251 314 386 468
#
# _framework density 22.777925
#
# number of rings (size 3 to 8) (size 9 to 14) (size 15 to 20)
#    0.000    0.000    4.167    5.000    7.000    1.333 
#    0.000    0.000    0.000    0.000    0.000    0.000 
#    0.000    0.000    0.000    0.000    0.000    0.000 
#
# Total GULP energy -268838.093933 kJ/mol
# GULP energy per Si atom -5600.793624 kJ/mol
# Density = 2.272608 g / cm^3
# Si number density = 22.777925 Si / 1000 Ang^3
#
#
#
# Elastic Constant Matrix: (Units=GPa)
#
#
# Indices 1 2 3 4 5 6 
#
# 1 875.4096 -770.3816 3.0002 0.0000 0.0000 0.0000
# 2 -770.3816 875.4096 3.0002 0.0000 0.0000 0.0000
# 3 3.0002 3.0002 75.5076 0.0000 0.0000 0.0000
# 4 0.0000 0.0000 0.0000 42.5545 0.0000 0.0000
# 5 0.0000 0.0000 0.0000 0.0000 42.5545 0.0000
# 6 0.0000 0.0000 0.0000 0.0000 0.0000 48.4230
#
#
#
# Elastic Compliance Matrix: (Units=1/GPa)
#
#
# Indices 1 2 3 4 5 6 
#
# 1 0.005075 0.004468 -0.000379 0.000000 0.000000 0.000000
# 2 0.004468 0.005075 -0.000379 0.000000 0.000000 0.000000
# 3 -0.000379 -0.000379 0.013274 0.000000 0.000000 0.000000
# 4 0.000000 0.000000 0.000000 0.023499 0.000000 0.000000
# 5 0.000000 0.000000 0.000000 0.000000 0.023499 0.000000
# 6 0.000000 0.000000 0.000000 0.000000 0.000000 0.020651
#
#
# Mechanical properties :
#
#
# Convention : Reuss Voigt Hill
#
# Bulk Modulus (GPa) = 32.42227 33.06271 32.74249
# Shear Modulus (GPa) = 53.22734 199.42025 126.32380
#
# Velocity S-wave (km/s) = 4.83928 9.36696 7.45515
# Velocity P-wave (km/s) = 6.74462 11.46879 9.40806
#
# Compressibility (1/GPa) = 0.03084300
#
# Stress axis : x y z
#
# Youngs Moduli (GPa) = 197.03387 197.03387 75.33621
#
# Poissons Ratio (x) = -0.88028 0.02857
# Poissons Ratio (y) = -0.88028 0.02857
# Poissons Ratio (z) = 0.07471 0.07471
#
# Static dielectric constant tensor:
#      x y z
#    x 1.835910 0.000000 0.000000 
#    y 0.000000 1.835910 0.000000 
#    z 0.000000 0.000000 1.910700 
# 
# From -- ./inp_files/18211.got.cif
#   From: 2010.05.17/outbox.cif.g08.bks.cpg/sg91_10_cif.got.tgz:18211.got - 2010.06.03 19:20:03.
