data_PCOD9548707
_publ_section_title
;
Structure prediction by ZEFSAII (Michael W. Deem and Ramdas Pophale) SiO2 
 PCOD9548707
Probable space group: P 41 2 2
;
_chemical_formula_sum "Si O2"
_cell_formula_units_Z 24
_cell_length_a 7.244264
_cell_length_b 7.244264
_cell_length_c 19.724509
_cell_angle_alpha 90.000000
_cell_angle_beta 90.000000
_cell_angle_gamma 90.000000
_cell_volume 1035.129626
_symmetry_space_group_name_H-M "P 41 2 2"
_symmetry_group_IT_number 91
_symmetry_cell_setting 'tetragonal'
loop_
_space_group_symop_operation_xyz
x,y,z
-y,x,1/4+z
-x,-y,1/2+z
y,-x,3/4+z
x,-y,1/2-z
-x,y,-z
y,x,3/4-z
-y,-x,1/4-z
loop_
_atom_site_type_symbol
_atom_site_label
_atom_site_fract_x
_atom_site_fract_y
_atom_site_fract_z
Si Si1 0.613629 0.442152 0.935983
Si Si2 0.119897 0.151104 0.122853
Si Si3 0.294363 0.854493 0.020615
O O1 0.468569 0.468569 0.875000
O O2 0.678376 0.648349 0.952880
O O3 0.792809 0.329353 0.912833
O O4 0.500000 0.366696 0.000000
O O5 0.903316 0.096685 0.125000
O O6 0.211622 0.989319 0.077258
O O7 0.163636 0.824932 0.297905
O O8 0.500000 0.920842 0.000000
#
# Coordination Sequence:
#
# PCOD9548707 Si02
#       3
#     8   8   8
#     4  11  22  49  86 112 159 224 270 333 413 491
#     4  12  26  48  75 124 160 206 279 339 409 494
#     4  11  25  52  82 112 165 220 272 342 424 490
#
# _framework density 23.185503000000001
#
# number of rings (size 3 to 8) (size 9 to 14) (size 15 to 20)
#    0.000    0.667    6.667    3.000    0.000    0.000 
#   12.000    0.000    0.000    0.000    0.000    0.000 
#    0.000    0.000    0.000    0.000    0.000    0.000 
#
# Total GULP energy -134072.006931 kJ/mol
# GULP energy per Si atom -5586.333622 kJ/mol
# Density = 2.313273 g / cm^3
# Si number density = 23.185503 Si / 1000 Ang^3
#
#
#
# Elastic Constant Matrix: (Units=GPa)
#
#
# Indices 1 2 3 4 5 6 
#
# 1 91.2566 37.9802 56.0063 0.0000 0.0000 0.0000
# 2 37.9802 91.2550 56.0061 0.0000 0.0000 0.0000
# 3 56.0063 56.0061 199.0765 0.0000 0.0000 0.0000
# 4 0.0000 0.0000 0.0000 36.6267 0.0000 0.0000
# 5 0.0000 0.0000 0.0000 0.0000 36.6267 0.0000
# 6 0.0000 0.0000 0.0000 0.0000 0.0000 39.3727
#
#
#
# Elastic Compliance Matrix: (Units=1/GPa)
#
#
# Indices 1 2 3 4 5 6 
#
# 1 0.014501 -0.004269 -0.002879 0.000000 0.000000 0.000000
# 2 -0.004269 0.014502 -0.002879 0.000000 0.000000 0.000000
# 3 -0.002879 -0.002879 0.006643 0.000000 0.000000 0.000000
# 4 0.000000 0.000000 0.000000 0.027303 0.000000 0.000000
# 5 0.000000 0.000000 0.000000 0.000000 0.027302 0.000000
# 6 0.000000 0.000000 0.000000 0.000000 0.000000 0.025398
#
#
# Mechanical properties :
#
#
# Convention : Reuss Voigt Hill
#
# Bulk Modulus (GPa) = 64.12905 75.73036 69.92970
# Shear Modulus (GPa) = 35.48612 37.96491 36.72551
#
# Velocity S-wave (km/s) = 3.91644 4.05092 3.98425
# Velocity P-wave (km/s) = 6.94050 7.39011 7.16883
#
# Compressibility (1/GPa) = 0.01559356
#
# Stress axis : x y z
#
# Youngs Moduli (GPa) = 68.95847 68.95707 150.53431
#
# Poissons Ratio (x) = 0.29436 0.43336
# Poissons Ratio (y) = 0.29436 0.43337
# Poissons Ratio (z) = 0.19852 0.19852
#
# Static dielectric constant tensor:
#      x y z
#    x 1.928090 0.000000 0.000000 
#    y 0.000000 1.928090 0.000000 
#    z 0.000000 0.000000 1.916870 
# 
# From -- ./inp_files/21611.got.cif
#   From: 2010.05.17/outbox.cif.g08.bks.cpg/sg91_11_cif.got.tgz:21611.got - 2010.06.03 19:20:03.
