data_PCOD9548504
_publ_section_title
;
Structure prediction by ZEFSAII (Michael W. Deem and Ramdas Pophale) SiO2 
 PCOD9548504
Probable space group: P 41 2 2
;
_chemical_formula_sum "Si O2"
_cell_formula_units_Z 36
_cell_length_a 9.656580
_cell_length_b 9.656580
_cell_length_c 18.431205
_cell_angle_alpha 90.000000
_cell_angle_beta 90.000000
_cell_angle_gamma 90.000000
_cell_volume 1718.701338
_symmetry_space_group_name_H-M "P 41 2 2"
_symmetry_group_IT_number 91
_symmetry_cell_setting 'tetragonal'
loop_
_space_group_symop_operation_xyz
x,y,z
-y,x,1/4+z
-x,-y,1/2+z
y,-x,3/4+z
x,-y,1/2-z
-x,y,-z
y,x,3/4-z
-y,-x,1/4-z
loop_
_atom_site_type_symbol
_atom_site_label
_atom_site_fract_x
_atom_site_fract_y
_atom_site_fract_z
Si Si1 0.932979 0.000000 0.750000
Si Si2 0.497091 0.868624 0.914954
Si Si3 0.191606 0.191606 0.375000
Si Si4 0.399780 0.580257 0.929691
Si Si5 0.430183 0.891377 0.685356
Si Si6 0.126735 0.126735 0.875000
O O1 0.851617 0.104359 0.696498
O O2 0.017369 0.092159 0.809951
O O3 0.647369 0.828419 0.887476
O O4 0.396306 0.737687 0.898089
O O5 0.468794 0.019345 0.884510
O O6 0.500000 0.881055 0.000000
O O7 0.476831 0.476831 0.875000
O O8 0.248139 0.518250 0.945276
O O9 0.500000 0.585950 0.000000
O O10 0.268477 0.867973 0.670934
O O11 0.451723 0.000000 0.750000
#
# Coordination Sequence:
#
# PCOD9548504 Si02
#       6
#     4   8   4   8   8   4
#     4  10  24  42  74 100 146 192 234 304 368 436
#     4  11  26  45  71 105 141 184 243 300 355 440
#     4  11  24  45  72 102 142 189 244 295 372 432
#     4  11  24  46  72 101 143 183 235 298 358 421
#     4  12  26  44  74 104 141 191 242 297 369 432
#     4  11  22  47  64 106 142 187 240 303 358 444
#
# _framework density 20.946048999999999
#
# number of rings (size 3 to 8) (size 9 to 14) (size 15 to 20)
#    0.000    0.889    3.333    2.667    4.667    4.444 
#    8.000    0.000    0.000    0.000    0.000    0.000 
#    0.000    0.000    0.000    0.000    0.000    0.000 
#
# Total GULP energy -200943.919745 kJ/mol
# GULP energy per Si atom -5581.775548 kJ/mol
# Density = 2.089838 g / cm^3
# Si number density = 20.946049 Si / 1000 Ang^3
#
#
#
# Elastic Constant Matrix: (Units=GPa)
#
#
# Indices 1 2 3 4 5 6 
#
# 1 86.6709 65.6323 36.2516 0.0000 0.0000 0.0000
# 2 65.6323 86.6709 36.2516 0.0000 0.0000 0.0000
# 3 36.2516 36.2516 103.2299 0.0000 0.0000 0.0000
# 4 0.0000 0.0000 0.0000 23.0995 0.0000 0.0000
# 5 0.0000 0.0000 0.0000 0.0000 23.0995 0.0000
# 6 0.0000 0.0000 0.0000 0.0000 0.0000 26.5504
#
#
#
# Elastic Compliance Matrix: (Units=1/GPa)
#
#
# Indices 1 2 3 4 5 6 
#
# 1 0.027708 -0.019824 -0.002769 0.000000 0.000000 0.000000
# 2 -0.019824 0.027708 -0.002769 0.000000 0.000000 0.000000
# 3 -0.002769 -0.002769 0.011632 0.000000 0.000000 0.000000
# 4 0.000000 0.000000 0.000000 0.043291 0.000000 0.000000
# 5 0.000000 0.000000 0.000000 0.000000 0.043291 0.000000
# 6 0.000000 0.000000 0.000000 0.000000 0.000000 0.037664
#
#
# Mechanical properties :
#
#
# Convention : Reuss Voigt Hill
#
# Bulk Modulus (GPa) = 61.25609 61.42700 61.34155
# Shear Modulus (GPa) = 20.20551 23.77896 21.99224
#
# Velocity S-wave (km/s) = 3.10924 3.37300 3.24380
# Velocity P-wave (km/s) = 6.49600 6.67529 6.58626
#
# Compressibility (1/GPa) = 0.01632491
#
# Stress axis : x y z
#
# Youngs Moduli (GPa) = 36.09095 36.09095 85.97253
#
# Poissons Ratio (x) = 0.71547 0.23802
# Poissons Ratio (y) = 0.71547 0.23802
# Poissons Ratio (z) = 0.09992 0.09992
#
# Static dielectric constant tensor:
#      x y z
#    x 1.812400 0.000000 0.000000 
#    y 0.000000 1.812400 0.000000 
#    z 0.000000 0.000000 1.793010 
# 
# From -- ./inp_files/12335.got.cif
#   From: 2010.05.17/outbox.cif.g08.bks.cpg/sg91_7_cif.got.tgz:12335.got - 2010.06.03 19:20:03.
