data_PCOD9548570
_publ_section_title
;
Structure prediction by ZEFSAII (Michael W. Deem and Ramdas Pophale) SiO2 
 PCOD9548570
Probable space group: P 41 2 2
;
_chemical_formula_sum "Si O2"
_cell_formula_units_Z 36
_cell_length_a 12.231192
_cell_length_b 12.231192
_cell_length_c 11.080437
_cell_angle_alpha 90.000000
_cell_angle_beta 90.000000
_cell_angle_gamma 90.000000
_cell_volume 1657.656176
_symmetry_space_group_name_H-M "P 41 2 2"
_symmetry_group_IT_number 91
_symmetry_cell_setting 'tetragonal'
loop_
_space_group_symop_operation_xyz
x,y,z
-y,x,1/4+z
-x,-y,1/2+z
y,-x,3/4+z
x,-y,1/2-z
-x,y,-z
y,x,3/4-z
-y,-x,1/4-z
loop_
_atom_site_type_symbol
_atom_site_label
_atom_site_fract_x
_atom_site_fract_y
_atom_site_fract_z
Si Si1 0.266721 0.334906 0.506832
Si Si2 0.723999 0.062524 0.918100
Si Si3 0.777567 0.222433 0.125000
Si Si4 0.939007 0.939007 0.875000
Si Si5 0.420960 0.222417 0.688247
Si Si6 0.956353 0.500000 0.750000
O O1 0.286276 0.286276 0.375000
O O2 0.157964 0.286670 0.568688
O O3 0.368184 0.305223 0.592215
O O4 0.257372 0.464447 0.493621
O O5 0.811346 0.969120 0.888532
O O6 0.601573 0.021918 0.944352
O O7 0.772466 0.121299 0.035673
O O8 0.668561 0.213576 0.206546
O O9 0.974275 0.000000 0.750000
O O10 0.447619 0.115809 0.607602
#
# Coordination Sequence:
#
# PCOD9548570 Si02
#       6
#     8   8   4   4   8   4
#     4  11  23  48  70 108 147 191 241 312 369 459
#     4  11  28  45  78 105 151 196 256 312 387 453
#     4  10  25  52  68 109 152 192 248 318 377 470
#     4  12  31  48  74 115 156 204 256 324 391 464
#     4  11  25  44  75 102 148 191 251 305 383 448
#     4  12  26  48  76 108 136 208 256 320 380 466
#
# _framework density 21.717411999999999
#
# number of rings (size 3 to 8) (size 9 to 14) (size 15 to 20)
#    0.000    0.889    2.222    2.000   10.889    5.333 
#    6.000    0.000    0.000    0.000    0.000    0.000 
#    0.000    0.000    0.000    0.000    0.000    0.000 
#
# Total GULP energy -201505.923548 kJ/mol
# GULP energy per Si atom -5597.386765 kJ/mol
# Density = 2.166798 g / cm^3
# Si number density = 21.717412 Si / 1000 Ang^3
#
#
#
# Elastic Constant Matrix: (Units=GPa)
#
#
# Indices 1 2 3 4 5 6 
#
# 1 251.8975 -100.7986 46.2898 0.0000 0.0000 0.0000
# 2 -100.7986 251.8975 46.2898 0.0000 0.0000 0.0000
# 3 46.2898 46.2898 138.7782 0.0000 0.0000 0.0000
# 4 0.0000 0.0000 0.0000 0.8891 0.0000 0.0000
# 5 0.0000 0.0000 0.0000 0.0000 0.8891 0.0000
# 6 0.0000 0.0000 0.0000 0.0000 0.0000 34.2226
#
#
#
# Elastic Compliance Matrix: (Units=1/GPa)
#
#
# Indices 1 2 3 4 5 6 
#
# 1 0.005577 0.002741 -0.002775 0.000000 0.000000 0.000000
# 2 0.002741 0.005577 -0.002775 0.000000 0.000000 0.000000
# 3 -0.002775 -0.002775 0.009057 0.000000 0.000000 0.000000
# 4 0.000000 0.000000 0.000000 1.124678 0.000000 0.000000
# 5 0.000000 0.000000 0.000000 0.000000 1.124678 0.000000
# 6 0.000000 0.000000 0.000000 0.000000 0.000000 0.029220
#
#
# Mechanical properties :
#
#
# Convention : Reuss Voigt Hill
#
# Bulk Modulus (GPa) = 68.51749 69.57058 69.04403
# Shear Modulus (GPa) = 2.16519 50.58633 26.37576
#
# Velocity S-wave (km/s) = 0.99957 4.83152 3.48875
# Velocity P-wave (km/s) = 5.74023 7.95165 6.93466
#
# Compressibility (1/GPa) = 0.01459481
#
# Stress axis : x y z
#
# Youngs Moduli (GPa) = 179.31637 179.31637 110.41604
#
# Poissons Ratio (x) = -0.49158 0.30635
# Poissons Ratio (y) = -0.49158 0.30635
# Poissons Ratio (z) = 0.49752 0.49752
#
# Static dielectric constant tensor:
#      x y z
#    x 1.776320 0.000000 0.000000 
#    y 0.000000 1.776320 0.000000 
#    z 0.000000 0.000000 1.862690 
# 
# From -- ./inp_files/10551.got.cif
#   From: 2010.05.17/outbox.cif.g08.bks.cpg/sg91_6_cif.got.tgz:10551.got - 2010.06.03 19:20:03.
