data_PCOD9548779
_publ_section_title
;
Structure prediction by ZEFSAII (Michael W. Deem and Ramdas Pophale) SiO2 
 PCOD9548779
Probable space group: P 41 2 2
;
_chemical_formula_sum "Si O2"
_cell_formula_units_Z 24
_cell_length_a 13.759903
_cell_length_b 13.759903
_cell_length_c 5.706389
_cell_angle_alpha 90.000000
_cell_angle_beta 90.000000
_cell_angle_gamma 90.000000
_cell_volume 1080.418765
_symmetry_space_group_name_H-M "P 41 2 2"
_symmetry_group_IT_number 91
_symmetry_cell_setting 'tetragonal'
loop_
_space_group_symop_operation_xyz
x,y,z
-y,x,1/4+z
-x,-y,1/2+z
y,-x,3/4+z
x,-y,1/2-z
-x,y,-z
y,x,3/4-z
-y,-x,1/4-z
loop_
_atom_site_type_symbol
_atom_site_label
_atom_site_fract_x
_atom_site_fract_y
_atom_site_fract_z
Si Si1 0.662619 0.662619 0.875000
Si Si2 0.500000 0.355895 0.000000
Si Si3 0.440380 0.000000 0.750000
Si Si4 0.896545 0.103456 0.625000
Si Si5 0.718130 0.160457 0.311797
O O1 0.565792 0.681683 0.717281
O O2 0.755511 0.667534 0.709254
O O3 0.421447 0.421447 0.875000
O O4 0.366545 0.909194 0.720280
O O5 0.500000 0.009138 0.500000
O O6 0.799283 0.106266 0.467284
O O7 0.000000 0.106970 0.500000
O O8 0.782614 0.217387 0.125000
#
# Coordination Sequence:
#
# PCOD9548779 Si02
#       5
#     4   4   4   4   8
#     4  11  26  44  74 108 147 200 252 334 387 468
#     4  12  22  44  66 106 148 188 252 324 386 456
#     4  12  32  54  80 116 168 222 268 336 418 504
#     4  11  26  44  82 124 153 196 252 336 411 478
#     4  11  27  52  78 109 158 204 273 324 400 493
#
# _framework density 22.213609999999999
#
# number of rings (size 3 to 8) (size 9 to 14) (size 15 to 20)
#    0.000    0.667    1.667    3.000   16.333    5.333 
#    3.000    0.000    0.000    0.000    0.000    0.000 
#    0.000    0.000    0.000    0.000    0.000    0.000 
#
# Total GULP energy -133912.254985 kJ/mol
# GULP energy per Si atom -5579.677291 kJ/mol
# Density = 2.216305 g / cm^3
# Si number density = 22.213610 Si / 1000 Ang^3
#
#
#
# Elastic Constant Matrix: (Units=GPa)
#
#
# Indices 1 2 3 4 5 6 
#
# 1 110.4712 107.9715 75.2361 0.0000 0.0000 0.0000
# 2 107.9715 110.4717 75.2334 0.0000 0.0000 0.0000
# 3 75.2361 75.2334 135.6445 0.0000 0.0000 0.0000
# 4 0.0000 0.0000 0.0000 24.9946 0.0000 0.0000
# 5 0.0000 0.0000 0.0000 0.0000 24.9932 0.0000
# 6 0.0000 0.0000 0.0000 0.0000 0.0000 69.4423
#
#
#
# Elastic Compliance Matrix: (Units=1/GPa)
#
#
# Indices 1 2 3 4 5 6 
#
# 1 0.203714 -0.196301 -0.004116 0.000000 0.000000 0.000000
# 2 -0.196301 0.203704 -0.004102 0.000000 0.000000 0.000000
# 3 -0.004116 -0.004102 0.011930 0.000000 0.000000 0.000000
# 4 0.000000 0.000000 0.000000 0.040009 0.000000 0.000000
# 5 0.000000 0.000000 0.000000 0.000000 0.040011 0.000000
# 6 0.000000 0.000000 0.000000 0.000000 0.000000 0.014400
#
#
# Mechanical properties :
#
#
# Convention : Reuss Voigt Hill
#
# Bulk Modulus (GPa) = 96.98482 97.05216 97.01849
# Shear Modulus (GPa) = 5.39816 30.42912 17.91364
#
# Velocity S-wave (km/s) = 1.56057 3.70515 2.84285
# Velocity P-wave (km/s) = 6.85580 7.87969 7.38551
#
# Compressibility (1/GPa) = 0.01031089
#
# Stress axis : x y z
#
# Youngs Moduli (GPa) = 4.90884 4.90909 83.82075
#
# Poissons Ratio (x) = 0.96366 0.34498
# Poissons Ratio (y) = 0.96361 0.34384
# Poissons Ratio (z) = 0.02020 0.02014
#
# Static dielectric constant tensor:
#      x y z
#    x 1.840420 0.000000 0.000000 
#    y 0.000000 1.840420 0.000000 
#    z 0.000000 0.000000 1.688010 
# 
# From -- ./inp_files/13810.got.cif
#   From: 2010.05.17/outbox.cif.g08.bks.cpg/sg91_7_cif.got.tgz:13810.got - 2010.06.03 19:20:03.
