data_PCOD9548878
_publ_section_title
;
Structure prediction by ZEFSAII (Michael W. Deem and Ramdas Pophale) SiO2 
 PCOD9548878
Probable space group: P 41 21 2
;
_chemical_formula_sum "Si O2"
_cell_formula_units_Z 64
_cell_length_a 12.832806
_cell_length_b 12.832806
_cell_length_c 18.961438
_cell_angle_alpha 90.000000
_cell_angle_beta 90.000000
_cell_angle_gamma 90.000000
_cell_volume 3122.586862
_symmetry_space_group_name_H-M "P 41 21 2"
_symmetry_group_IT_number 92
_symmetry_cell_setting 'tetragonal'
loop_
_space_group_symop_operation_xyz
x,y,z
1/2-y,1/2+x,1/4+z
-x,-y,1/2+z
1/2+y,1/2-x,3/4+z
1/2+x,1/2-y,3/4-z
1/2-x,1/2+y,1/4-z
y,x,-z
-y,-x,1/2-z
loop_
_atom_site_type_symbol
_atom_site_label
_atom_site_fract_x
_atom_site_fract_y
_atom_site_fract_z
Si Si1 0.005672 0.426390 0.995246
Si Si2 0.749308 0.590043 0.516300
Si Si3 0.292565 0.414841 0.255967
Si Si4 0.706712 0.406362 0.413780
Si Si5 0.703855 0.225235 0.944659
Si Si6 0.551357 0.348466 0.863523
Si Si7 0.498805 0.573422 0.828132
Si Si8 0.492128 0.097575 0.151852
O O1 0.126585 0.408027 0.015871
O O2 0.965191 0.526830 0.036022
O O3 0.936939 0.328470 0.020286
O O4 0.022269 0.457091 0.913054
O O5 0.701398 0.701398 0.500000
O O6 0.702030 0.518466 0.453154
O O7 0.712630 0.526975 0.584696
O O8 0.294110 0.325108 0.197444
O O9 0.323833 0.521428 0.216555
O O10 0.384591 0.382283 0.310378
O O11 0.732334 0.328232 0.477887
O O12 0.600718 0.380780 0.371109
O O13 0.811676 0.426487 0.368491
O O14 0.663505 0.308335 0.887852
O O15 0.649704 0.115337 0.928437
O O16 0.529654 0.469754 0.870950
O O17 0.453660 0.546341 0.750000
#
# Coordination Sequence:
#
# PCOD9548878 Si02
#       8
#     8   8   8   8   8   8   8   8
#     4  11  22  37  57  94 131 162 207 264 337 383
#     4  10  18  31  60  90 118 156 195 251 316 385
#     4  11  24  38  56  94 132 159 205 270 332 390
#     4  10  21  39  61  91 120 170 222 256 318 394
#     4  11  22  39  64  91 122 170 217 269 327 399
#     4  10  19  35  59  87 119 153 200 258 322 379
#     4  10  21  37  57  87 126 163 207 260 319 383
#     4  11  19  40  63  90 127 166 216 271 325 399
#
# _framework density 20.495827999999999
#
# number of rings (size 3 to 8) (size 9 to 14) (size 15 to 20)
#    0.000    1.500    6.250    1.500    1.750    3.500 
#    2.250    0.000    0.000    0.000    0.000    0.000 
#    0.000    0.000    0.000    0.000    0.000    0.000 
#
# Total GULP energy -356493.750873 kJ/mol
# GULP energy per Si atom -5570.214857 kJ/mol
# Density = 2.044918 g / cm^3
# Si number density = 20.495828 Si / 1000 Ang^3
#
#
#
# Elastic Constant Matrix: (Units=GPa)
#
#
# Indices 1 2 3 4 5 6 
#
# 1 46.1710 13.0306 25.0647 0.0000 0.0000 0.0000
# 2 13.0306 46.1710 25.0647 0.0000 0.0000 0.0000
# 3 25.0647 25.0647 69.2925 0.0000 0.0000 0.0000
# 4 0.0000 0.0000 0.0000 33.7656 0.0000 0.0000
# 5 0.0000 0.0000 0.0000 0.0000 33.7657 0.0000
# 6 0.0000 0.0000 0.0000 0.0000 0.0000 20.2062
#
#
#
# Elastic Compliance Matrix: (Units=1/GPa)
#
#
# Indices 1 2 3 4 5 6 
#
# 1 0.027262 -0.002913 -0.008808 0.000000 0.000000 0.000000
# 2 -0.002913 0.027262 -0.008808 0.000000 0.000000 0.000000
# 3 -0.008808 -0.008808 0.020804 0.000000 0.000000 0.000000
# 4 0.000000 0.000000 0.000000 0.029616 0.000000 0.000000
# 5 0.000000 0.000000 0.000000 0.000000 0.029616 0.000000
# 6 0.000000 0.000000 0.000000 0.000000 0.000000 0.049490
#
#
# Mechanical properties :
#
#
# Convention : Reuss Voigt Hill
#
# Bulk Modulus (GPa) = 29.17881 31.99491 30.58686
# Shear Modulus (GPa) = 21.13903 24.11247 22.62575
#
# Velocity S-wave (km/s) = 3.21500 3.43367 3.32613
# Velocity P-wave (km/s) = 5.29613 5.60040 5.45039
#
# Compressibility (1/GPa) = 0.03427144
#
# Stress axis : x y z
#
# Youngs Moduli (GPa) = 36.68098 36.68100 48.06876
#
# Poissons Ratio (x) = 0.10684 0.42338
# Poissons Ratio (y) = 0.10684 0.42338
# Poissons Ratio (z) = 0.32308 0.32308
#
# Static dielectric constant tensor:
#      x y z
#    x 1.773780 0.000000 0.000000 
#    y 0.000000 1.773780 0.000000 
#    z 0.000000 0.000000 1.788830 
# 
# From -- ./inp_files/3235.got.cif
#   From: 2010.05.17/outbox.cif.g08.bks.cpg/sg92_2_cif.got.tgz:3235.got - 2010.06.03 19:35:17.
