data_PCOD9548890
_publ_section_title
;
Structure prediction by ZEFSAII (Michael W. Deem and Ramdas Pophale) SiO2 
 PCOD9548890
Probable space group: P 41 21 2
;
_chemical_formula_sum "Si O2"
_cell_formula_units_Z 56
_cell_length_a 24.377059
_cell_length_b 24.377059
_cell_length_c 5.351459
_cell_angle_alpha 90.000000
_cell_angle_beta 90.000000
_cell_angle_gamma 90.000000
_cell_volume 3180.056377
_symmetry_space_group_name_H-M "P 41 21 2"
_symmetry_group_IT_number 92
_symmetry_cell_setting 'tetragonal'
loop_
_space_group_symop_operation_xyz
x,y,z
1/2-y,1/2+x,1/4+z
-x,-y,1/2+z
1/2+y,1/2-x,3/4+z
1/2+x,1/2-y,3/4-z
1/2-x,1/2+y,1/4-z
y,x,-z
-y,-x,1/2-z
loop_
_atom_site_type_symbol
_atom_site_label
_atom_site_fract_x
_atom_site_fract_y
_atom_site_fract_z
Si Si1 0.502553 0.232821 0.654768
Si Si2 0.802931 0.802931 0.500000
Si Si3 0.200083 0.653093 0.977897
Si Si4 0.096860 0.668650 0.725428
Si Si5 0.854249 0.854249 0.000000
Si Si6 0.276992 0.556243 0.832042
Si Si7 0.076984 0.371429 0.079058
Si Si8 0.960363 0.430851 0.459678
O O1 0.438816 0.216334 0.649262
O O2 0.519526 0.266931 0.410429
O O3 0.531973 0.173909 0.614013
O O4 0.525375 0.260356 0.910278
O O5 0.815435 0.740998 0.413316
O O6 0.820723 0.837341 0.253409
O O7 0.160550 0.611986 0.121976
O O8 0.155191 0.689073 0.833535
O O9 0.237894 0.610941 0.820053
O O10 0.114118 0.621026 0.535569
O O11 0.057707 0.632236 0.910824
O O12 0.916119 0.837005 0.069567
O O13 0.052813 0.426010 0.956701
O O14 0.938981 0.475442 0.259621
#
# Coordination Sequence:
#
# PCOD9548890 Si02
#       8
#     8   4   8   8   4   8   8   8
#     4  11  22  32  50  67  94 122 162 199 251 298
#     4  10  20  32  56  80  92 118 150 210 260 318
#     4   9  20  33  51  70  94 116 158 201 264 298
#     4  11  22  34  48  61  92 128 158 206 254 305
#     4  10  18  34  56  74  96 114 148 208 270 302
#     4  10  20  35  50  74  90 119 154 206 252 305
#     4  10  20  35  47  61  86 123 159 212 251 304
#     4  11  25  33  42  59  81 119 173 219 262 297
#
# _framework density 17.609749999999998
#
# number of rings (size 3 to 8) (size 9 to 14) (size 15 to 20)
#    0.000    1.714    1.429    4.286   14.000    0.000 
#    0.000    0.000    0.000    0.000    0.000    0.000 
#    0.000    0.000    0.000    0.000    0.000    0.000 
#
# Total GULP energy -311904.972982 kJ/mol
# GULP energy per Si atom -5569.731660 kJ/mol
# Density = 1.756967 g / cm^3
# Si number density = 17.609750 Si / 1000 Ang^3
#
#
#
# Elastic Constant Matrix: (Units=GPa)
#
#
# Indices 1 2 3 4 5 6 
#
# 1 11.3400 -5.7099 -0.8840 0.0000 0.0000 0.0000
# 2 -5.7099 11.3400 -0.8840 0.0000 0.0000 0.0000
# 3 -0.8840 -0.8840 80.4928 0.0000 0.0000 0.0000
# 4 0.0000 0.0000 0.0000 15.0672 0.0000 0.0000
# 5 0.0000 0.0000 0.0000 0.0000 15.0672 0.0000
# 6 0.0000 0.0000 0.0000 0.0000 0.0000 16.6243
#
#
#
# Elastic Compliance Matrix: (Units=1/GPa)
#
#
# Indices 1 2 3 4 5 6 
#
# 1 0.118440 0.059789 0.001957 0.000000 0.000000 0.000000
# 2 0.059789 0.118440 0.001957 0.000000 0.000000 0.000000
# 3 0.001957 0.001957 0.012466 0.000000 0.000000 0.000000
# 4 0.000000 0.000000 0.000000 0.066370 0.000000 0.000000
# 5 0.000000 0.000000 0.000000 0.000000 0.066370 0.000000
# 6 0.000000 0.000000 0.000000 0.000000 0.000000 0.060153
#
#
# Mechanical properties :
#
#
# Convention : Reuss Voigt Hill
#
# Bulk Modulus (GPa) = 2.65424 9.80190 6.22807
# Shear Modulus (GPa) = 11.35288 16.72843 14.04066
#
# Velocity S-wave (km/s) = 2.54184 3.08547 2.82675
# Velocity P-wave (km/s) = 3.18200 4.27455 3.76808
#
# Compressibility (1/GPa) = 0.37675505
#
# Stress axis : x y z
#
# Youngs Moduli (GPa) = 8.44306 8.44306 80.21517
#
# Poissons Ratio (x) = -0.50480 -0.15701
# Poissons Ratio (y) = -0.50480 -0.15701
# Poissons Ratio (z) = -0.01653 -0.01653
#
# Static dielectric constant tensor:
#      x y z
#    x 1.655080 0.000000 0.000000 
#    y 0.000000 1.655080 0.000000 
#    z 0.000000 0.000000 1.796750 
# 
# From -- ./inp_files/863.got.cif
#   From: 2010.05.17/outbox.cif.g08.bks.cpg/sg92_1_cif.got.tgz:863.got - 2010.06.03 19:35:17.
