data_PCOD9548041
_publ_section_title
;
Structure prediction by ZEFSAII (Michael W. Deem and Ramdas Pophale) SiO2 
 PCOD9548041
Probable space group: P 41 2 2
;
_chemical_formula_sum "Si O2"
_cell_formula_units_Z 56
_cell_length_a 15.540043
_cell_length_b 15.540043
_cell_length_c 11.647372
_cell_angle_alpha 90.000000
_cell_angle_beta 90.000000
_cell_angle_gamma 90.000000
_cell_volume 2812.758066
_symmetry_space_group_name_H-M "P 41 2 2"
_symmetry_group_IT_number 91
_symmetry_cell_setting 'tetragonal'
loop_
_space_group_symop_operation_xyz
x,y,z
-y,x,1/4+z
-x,-y,1/2+z
y,-x,3/4+z
x,-y,1/2-z
-x,y,-z
y,x,3/4-z
-y,-x,1/4-z
loop_
_atom_site_type_symbol
_atom_site_label
_atom_site_fract_x
_atom_site_fract_y
_atom_site_fract_z
Si Si1 0.500000 0.190535 0.000000
Si Si2 0.418894 0.708207 0.287961
Si Si3 0.867928 0.188744 0.826096
Si Si4 0.445210 0.692680 0.886491
Si Si5 0.062774 0.629406 0.660048
Si Si6 0.623081 0.882472 0.155422
Si Si7 0.828469 0.935969 0.468171
Si Si8 0.742388 0.742388 0.875000
O O1 0.473705 0.241192 0.115446
O O2 0.581502 0.128416 0.010289
O O3 0.493457 0.663287 0.215261
O O4 0.358011 0.643092 0.355306
O O5 0.352366 0.748018 0.189178
O O6 0.876870 0.273207 0.905834
O O7 0.807045 0.228009 0.726576
O O8 0.960792 0.160342 0.776708
O O9 0.836191 0.112325 0.909439
O O10 0.421707 0.793591 0.875010
O O11 0.500000 0.679446 0.000000
O O12 0.089189 0.599415 0.533035
O O13 0.074368 0.731082 0.673481
O O14 0.962958 0.605412 0.678127
O O15 0.893190 0.893190 0.375000
#
# Coordination Sequence:
#
# PCOD9548041 Si02
#       8
#     4   8   8   8   8   8   8   4
#     4  12  26  44  64 112 140 168 232 292 360 408
#     4  12  26  46  72  99 137 182 225 287 348 433
#     4  11  23  42  68 100 134 183 237 283 346 419
#     4  12  23  46  71  96 131 181 227 273 351 418
#     4  10  22  38  66  99 131 168 226 288 343 409
#     4  10  20  41  68  94 126 174 225 281 342 411
#     4  11  22  42  69  97 138 186 237 290 343 414
#     4  12  24  48  70  96 138 182 230 272 360 432
#
# _framework density 19.909282999999999
#
# number of rings (size 3 to 8) (size 9 to 14) (size 15 to 20)
#    0.000    0.857    5.714    1.286    1.000    1.143 
#    7.714    0.000    0.000    0.000    0.000    0.000 
#    0.000    0.000    0.000    0.000    0.000    0.000 
#
# Total GULP energy -311961.140520 kJ/mol
# GULP energy per Si atom -5570.734652 kJ/mol
# Density = 1.986397 g / cm^3
# Si number density = 19.909283 Si / 1000 Ang^3
#
#
#
# Elastic Constant Matrix: (Units=GPa)
#
#
# Indices 1 2 3 4 5 6 
#
# 1 62.6691 17.1270 14.7541 0.0000 0.0000 0.0000
# 2 17.1270 62.6691 14.7541 0.0000 0.0000 0.0000
# 3 14.7541 14.7541 74.2418 0.0000 0.0000 0.0000
# 4 0.0000 0.0000 0.0000 42.1261 0.0000 0.0000
# 5 0.0000 0.0000 0.0000 0.0000 42.1261 0.0000
# 6 0.0000 0.0000 0.0000 0.0000 0.0000 27.0855
#
#
#
# Elastic Compliance Matrix: (Units=1/GPa)
#
#
# Indices 1 2 3 4 5 6 
#
# 1 0.017742 -0.004216 -0.002688 0.000000 0.000000 0.000000
# 2 -0.004216 0.017742 -0.002688 0.000000 0.000000 0.000000
# 3 -0.002688 -0.002688 0.014538 0.000000 0.000000 0.000000
# 4 0.000000 0.000000 0.000000 0.023738 0.000000 0.000000
# 5 0.000000 0.000000 0.000000 0.000000 0.023738 0.000000
# 6 0.000000 0.000000 0.000000 0.000000 0.000000 0.036920
#
#
# Mechanical properties :
#
#
# Convention : Reuss Voigt Hill
#
# Bulk Modulus (GPa) = 32.42782 32.53894 32.48338
# Shear Modulus (GPa) = 30.50988 32.46383 31.48685
#
# Velocity S-wave (km/s) = 3.91889 4.04243 3.98114
# Velocity P-wave (km/s) = 6.06631 6.17798 6.12240
#
# Compressibility (1/GPa) = 0.03083772
#
# Stress axis : x y z
#
# Youngs Moduli (GPa) = 56.36394 56.36394 68.78576
#
# Poissons Ratio (x) = 0.23762 0.18490
# Poissons Ratio (y) = 0.23762 0.18490
# Poissons Ratio (z) = 0.15151 0.15151
#
# Static dielectric constant tensor:
#      x y z
#    x 1.702580 0.000000 0.000000 
#    y 0.000000 1.702580 0.000000 
#    z 0.000000 0.000000 1.744190 
# 
# From -- ./inp_files/16008.got.cif
#   From: 2010.05.17/outbox.cif.g08.bks.cpg/sg91_9_cif.got.tgz:16008.got - 2010.06.03 19:20:03.
