data_PCOD9548776
_publ_section_title
;
Structure prediction by ZEFSAII (Michael W. Deem and Ramdas Pophale) SiO2 
 PCOD9548776
Probable space group: P 41 2 2
;
_chemical_formula_sum "Si O2"
_cell_formula_units_Z 32
_cell_length_a 7.974837
_cell_length_b 7.974837
_cell_length_c 22.202719
_cell_angle_alpha 90.000000
_cell_angle_beta 90.000000
_cell_angle_gamma 90.000000
_cell_volume 1412.049082
_symmetry_space_group_name_H-M "P 41 2 2"
_symmetry_group_IT_number 91
_symmetry_cell_setting 'tetragonal'
loop_
_space_group_symop_operation_xyz
x,y,z
-y,x,1/4+z
-x,-y,1/2+z
y,-x,3/4+z
x,-y,1/2-z
-x,y,-z
y,x,3/4-z
-y,-x,1/4-z
loop_
_atom_site_type_symbol
_atom_site_label
_atom_site_fract_x
_atom_site_fract_y
_atom_site_fract_z
Si Si1 0.885065 0.472051 0.840147
Si Si2 0.166393 0.604027 0.481774
Si Si3 0.815316 0.500000 0.250000
Si Si4 0.880764 0.252113 0.450175
Si Si5 0.797955 0.797955 0.875000
O O1 0.857623 0.446533 0.911942
O O2 0.821975 0.298233 0.813043
O O3 0.780582 0.643989 0.827569
O O4 0.066255 0.491034 0.809109
O O5 0.335584 0.702211 0.493558
O O6 0.155582 0.438947 0.524376
O O7 0.000000 0.707387 0.500000
O O8 0.000000 0.166343 0.500000
O O9 0.010414 0.233051 0.394783
#
# Coordination Sequence:
#
# PCOD9548776 Si02
#       5
#     8   8   4   8   4
#     4  12  27  50  81 112 154 214 267 321 415 473
#     4  11  27  52  74 115 164 204 264 343 395 473
#     4  12  30  46  80 122 148 218 266 320 418 480
#     4  11  25  48  75 111 156 202 261 335 388 476
#     4  12  24  50  80 112 156 212 264 324 406 470
#
# _framework density 22.662102000000001
#
# number of rings (size 3 to 8) (size 9 to 14) (size 15 to 20)
#    0.000    0.500    5.000    3.000    3.500    6.000 
#    0.000    0.000    0.000    0.000    0.000    0.000 
#    0.000    0.000    0.000    0.000    0.000    0.000 
#
# Total GULP energy -178450.442331 kJ/mol
# GULP energy per Si atom -5576.576323 kJ/mol
# Density = 2.261052 g / cm^3
# Si number density = 22.662102 Si / 1000 Ang^3
#
#
#
# Elastic Constant Matrix: (Units=GPa)
#
#
# Indices 1 2 3 4 5 6 
#
# 1 181.2236 105.5323 60.5470 0.0000 0.0000 0.0000
# 2 105.5323 181.2236 60.5470 0.0000 0.0000 0.0000
# 3 60.5470 60.5470 107.6609 0.0000 0.0000 0.0000
# 4 0.0000 0.0000 0.0000 35.7930 0.0000 0.0000
# 5 0.0000 0.0000 0.0000 0.0000 35.7930 0.0000
# 6 0.0000 0.0000 0.0000 0.0000 0.0000 -30.6968
#
#
#
# Elastic Compliance Matrix: (Units=1/GPa)
#
#
# Indices 1 2 3 4 5 6 
#
# 1 0.008892 -0.004319 -0.002572 0.000000 0.000000 0.000000
# 2 -0.004319 0.008892 -0.002572 0.000000 0.000000 0.000000
# 3 -0.002572 -0.002572 0.012181 0.000000 0.000000 0.000000
# 4 0.000000 0.000000 0.000000 0.027938 0.000000 0.000000
# 5 0.000000 0.000000 0.000000 0.000000 0.027938 0.000000
# 6 0.000000 0.000000 0.000000 0.000000 0.000000 -0.032577
#
#
# Mechanical properties :
#
#
# Convention : Reuss Voigt Hill
#
# Bulk Modulus (GPa) = 90.57890 102.59566 96.58728
# Shear Modulus (GPa) = 65.89977 24.40997 45.15487
#
# Velocity S-wave (km/s) = 5.39837 3.28552 4.46862
# Velocity P-wave (km/s) = 8.88328 7.73066 8.32694
#
# Compressibility (1/GPa) = 0.01104010
#
# Stress axis : x y z
#
# Youngs Moduli (GPa) = 112.45439 112.45439 82.09249
#
# Poissons Ratio (x) = 0.48570 0.21114
# Poissons Ratio (y) = 0.48570 0.21114
# Poissons Ratio (z) = 0.28924 0.28924
#
# Static dielectric constant tensor:
#      x y z
#    x 1.880590 0.000000 0.000000 
#    y 0.000000 1.880590 0.000000 
#    z 0.000000 0.000000 2.041670 
# 
# From -- ./inp_files/21920.got.cif
#   From: 2010.05.17/outbox.cif.g08.bks.cpg/sg91_11_cif.got.tgz:21920.got - 2010.06.03 19:20:03.
