data_PCOD9548035
_publ_section_title
;
Structure prediction by ZEFSAII (Michael W. Deem and Ramdas Pophale) SiO2 
 PCOD9548035
Probable space group: P 41 2 2
;
_chemical_formula_sum "Si O2"
_cell_formula_units_Z 40
_cell_length_a 8.244216
_cell_length_b 8.244216
_cell_length_c 24.699816
_cell_angle_alpha 90.000000
_cell_angle_beta 90.000000
_cell_angle_gamma 90.000000
_cell_volume 1678.774801
_symmetry_space_group_name_H-M "P 41 2 2"
_symmetry_group_IT_number 91
_symmetry_cell_setting 'tetragonal'
loop_
_space_group_symop_operation_xyz
x,y,z
-y,x,1/4+z
-x,-y,1/2+z
y,-x,3/4+z
x,-y,1/2-z
-x,y,-z
y,x,3/4-z
-y,-x,1/4-z
loop_
_atom_site_type_symbol
_atom_site_label
_atom_site_fract_x
_atom_site_fract_y
_atom_site_fract_z
Si Si1 0.583985 0.243565 0.283989
Si Si2 0.174269 0.751686 0.976779
Si Si3 0.065406 0.646710 0.185350
Si Si4 0.087585 0.165466 0.110790
Si Si5 0.184830 0.500000 0.750000
Si Si6 0.390140 0.390140 0.375000
O O1 0.434537 0.188149 0.246829
O O2 0.681700 0.109834 0.319832
O O3 0.713516 0.336775 0.247787
O O4 0.513559 0.384673 0.325014
O O5 0.193145 0.804170 0.914919
O O6 0.312916 0.845149 0.009015
O O7 0.000000 0.805662 0.000000
O O8 0.205161 0.595729 0.145168
O O9 0.980864 0.812352 0.167012
O O10 0.925011 0.519694 0.196698
O O11 0.911196 0.088805 0.125000
#
# Coordination Sequence:
#
# PCOD9548035 Si02
#       6
#     8   8   8   8   4   4
#     4  10  25  40  66 107 138 178 243 297 360 421
#     4  11  22  43  73  97 137 186 244 290 344 438
#     4  10  21  42  68  95 129 192 249 266 338 455
#     4  11  21  43  70  99 144 192 235 296 368 439
#     4  10  24  42  60  96 144 166 228 294 354 394
#     4  10  20  40  72  94 130 190 250 274 328 444
#
# _framework density 23.826898
#
# number of rings (size 3 to 8) (size 9 to 14) (size 15 to 20)
#    0.000    1.600    3.000    1.200    5.600    1.600 
#    7.200    0.000    2.200    0.000    0.000    0.000 
#    0.000    0.000    0.000    0.000    0.000    0.000 
#
# Total GULP energy -223383.054501 kJ/mol
# GULP energy per Si atom -5584.576363 kJ/mol
# Density = 2.377267 g / cm^3
# Si number density = 23.826898 Si / 1000 Ang^3
#
#
#
# Elastic Constant Matrix: (Units=GPa)
#
#
# Indices 1 2 3 4 5 6 
#
# 1 92.4630 38.3630 41.2414 0.0000 0.0000 0.0000
# 2 38.3630 92.4624 41.2412 0.0000 0.0000 0.0000
# 3 41.2414 41.2412 88.5734 0.0000 0.0000 0.0000
# 4 0.0000 0.0000 0.0000 28.6960 0.0000 0.0000
# 5 0.0000 0.0000 0.0000 0.0000 28.6964 0.0000
# 6 0.0000 0.0000 0.0000 0.0000 0.0000 29.1013
#
#
#
# Elastic Compliance Matrix: (Units=1/GPa)
#
#
# Indices 1 2 3 4 5 6 
#
# 1 0.014652 -0.003832 -0.005038 0.000000 0.000000 0.000000
# 2 -0.003832 0.014652 -0.005038 0.000000 0.000000 0.000000
# 3 -0.005038 -0.005038 0.015982 0.000000 0.000000 0.000000
# 4 0.000000 0.000000 0.000000 0.034848 0.000000 0.000000
# 5 0.000000 0.000000 0.000000 0.000000 0.034848 0.000000
# 6 0.000000 0.000000 0.000000 0.000000 0.000000 0.034363
#
#
# Mechanical properties :
#
#
# Convention : Reuss Voigt Hill
#
# Bulk Modulus (GPa) = 57.24176 57.24335 57.24256
# Shear Modulus (GPa) = 27.32476 27.47561 27.40018
#
# Velocity S-wave (km/s) = 3.39012 3.39947 3.39480
# Velocity P-wave (km/s) = 6.27695 6.28374 6.28034
#
# Compressibility (1/GPa) = 0.01746976
#
# Stress axis : x y z
#
# Youngs Moduli (GPa) = 68.24901 68.24872 62.57169
#
# Poissons Ratio (x) = 0.26154 0.31524
# Poissons Ratio (y) = 0.26154 0.31524
# Poissons Ratio (z) = 0.34384 0.34384
#
# Static dielectric constant tensor:
#      x y z
#    x 1.988620 0.000000 0.000000 
#    y 0.000000 1.988620 0.000000 
#    z 0.000000 0.000000 2.047880 
# 
# From -- ./inp_files/7414.got.cif
#   From: 2010.05.17/outbox.cif.g08.bks.cpg/sg91_4_cif.got.tgz:7414.got - 2010.06.03 19:20:03.
