data_PCOD9548824
_publ_section_title
;
Structure prediction by ZEFSAII (Michael W. Deem and Ramdas Pophale) SiO2 
 PCOD9548824
Probable space group: P 41 2 2
;
_chemical_formula_sum "Si O2"
_cell_formula_units_Z 24
_cell_length_a 7.496901
_cell_length_b 7.496901
_cell_length_c 17.552892
_cell_angle_alpha 90.000000
_cell_angle_beta 90.000000
_cell_angle_gamma 90.000000
_cell_volume 986.534397
_symmetry_space_group_name_H-M "P 41 2 2"
_symmetry_group_IT_number 91
_symmetry_cell_setting 'tetragonal'
loop_
_space_group_symop_operation_xyz
x,y,z
-y,x,1/4+z
-x,-y,1/2+z
y,-x,3/4+z
x,-y,1/2-z
-x,y,-z
y,x,3/4-z
-y,-x,1/4-z
loop_
_atom_site_type_symbol
_atom_site_label
_atom_site_fract_x
_atom_site_fract_y
_atom_site_fract_z
Si Si1 0.790335 0.522020 0.338564
Si Si2 0.173699 0.291158 0.447204
Si Si3 0.644378 0.183098 0.402477
O O1 0.766156 0.500000 0.250000
O O2 0.625759 0.625759 0.375000
O O3 0.789895 0.319366 0.368405
O O4 0.968848 0.636465 0.353752
O O5 0.158068 0.158068 0.375000
O O6 0.322704 0.223453 0.507174
O O7 0.223729 0.473669 0.402734
O O8 0.000000 0.312227 0.500000
#
# Coordination Sequence:
#
# PCOD9548824 Si02
#       3
#     8   8   8
#     4  12  28  51  83 120 168 224 288 361 443 528
#     4  12  26  50  84 120 170 229 292 367 447 535
#     4  12  27  54  81 122 168 224 293 355 438 531
#
# _framework density 24.327584000000002
#
# number of rings (size 3 to 8) (size 9 to 14) (size 15 to 20)
#    0.000    0.000    3.333    6.000    0.000    2.667 
#    0.000    1.667    0.000    0.000    0.000    0.000 
#    0.000    0.000    0.000    0.000    0.000    0.000 
#
# Total GULP energy -133760.711581 kJ/mol
# GULP energy per Si atom -5573.362983 kJ/mol
# Density = 2.427221 g / cm^3
# Si number density = 24.327584 Si / 1000 Ang^3
#
#
#
# Elastic Constant Matrix: (Units=GPa)
#
#
# Indices 1 2 3 4 5 6 
#
# 1 128.7185 64.9446 72.5507 0.0000 0.0000 0.0000
# 2 64.9446 128.7185 72.5507 0.0000 0.0000 0.0000
# 3 72.5507 72.5507 202.5485 0.0000 0.0000 0.0000
# 4 0.0000 0.0000 0.0000 57.7154 0.0000 0.0000
# 5 0.0000 0.0000 0.0000 0.0000 57.7154 0.0000
# 6 0.0000 0.0000 0.0000 0.0000 0.0000 30.3748
#
#
#
# Elastic Compliance Matrix: (Units=1/GPa)
#
#
# Indices 1 2 3 4 5 6 
#
# 1 0.011369 -0.004311 -0.002528 0.000000 0.000000 0.000000
# 2 -0.004311 0.011369 -0.002528 0.000000 0.000000 0.000000
# 3 -0.002528 -0.002528 0.006748 0.000000 0.000000 0.000000
# 4 0.000000 0.000000 0.000000 0.017326 0.000000 0.000000
# 5 0.000000 0.000000 0.000000 0.000000 0.017326 0.000000
# 6 0.000000 0.000000 0.000000 0.000000 0.000000 0.032922
#
#
# Mechanical properties :
#
#
# Convention : Reuss Voigt Hill
#
# Bulk Modulus (GPa) = 93.01015 97.78638 95.39826
# Shear Modulus (GPa) = 41.88323 45.82375 43.85349
#
# Velocity S-wave (km/s) = 4.15376 4.34477 4.25034
# Velocity P-wave (km/s) = 7.83073 8.09026 7.96155
#
# Compressibility (1/GPa) = 0.01075151
#
# Stress axis : x y z
#
# Youngs Moduli (GPa) = 87.95816 87.95816 148.19025
#
# Poissons Ratio (x) = 0.37922 0.37462
# Poissons Ratio (y) = 0.37922 0.37462
# Poissons Ratio (z) = 0.22236 0.22236
#
# Static dielectric constant tensor:
#      x y z
#    x 2.006250 0.000000 0.000000 
#    y 0.000000 2.006250 0.000000 
#    z 0.000000 0.000000 1.869810 
# 
# From -- ./inp_files/4298.got.cif
#   From: 2010.05.17/outbox.cif.g08.bks.cpg/sg91_3_cif.got.tgz:4298.got - 2010.06.03 19:20:03.
