data_PCOD9548320
_publ_section_title
;
Structure prediction by ZEFSAII (Michael W. Deem and Ramdas Pophale) SiO2 
 PCOD9548320
Probable space group: P 41 2 2
;
_chemical_formula_sum "Si O2"
_cell_formula_units_Z 40
_cell_length_a 14.931466
_cell_length_b 14.931466
_cell_length_c 9.206160
_cell_angle_alpha 90.000000
_cell_angle_beta 90.000000
_cell_angle_gamma 90.000000
_cell_volume 2052.501191
_symmetry_space_group_name_H-M "P 41 2 2"
_symmetry_group_IT_number 91
_symmetry_cell_setting 'tetragonal'
loop_
_space_group_symop_operation_xyz
x,y,z
-y,x,1/4+z
-x,-y,1/2+z
y,-x,3/4+z
x,-y,1/2-z
-x,y,-z
y,x,3/4-z
-y,-x,1/4-z
loop_
_atom_site_type_symbol
_atom_site_label
_atom_site_fract_x
_atom_site_fract_y
_atom_site_fract_z
Si Si1 0.589147 0.901789 0.678781
Si Si2 0.159623 0.288767 0.329650
Si Si3 0.718088 0.500152 0.077171
Si Si4 0.405113 0.982492 0.922999
Si Si5 0.398208 0.675694 0.939356
O O1 0.672981 0.863814 0.762365
O O2 0.518140 0.823150 0.705883
O O3 0.575351 0.000000 0.750000
O O4 0.602130 0.923573 0.510115
O O5 0.189244 0.189244 0.375000
O O6 0.079073 0.322857 0.226472
O O7 0.243967 0.340677 0.257753
O O8 0.709754 0.500000 0.250000
O O9 0.654505 0.583822 0.032674
O O10 0.689309 0.414960 0.982967
O O11 0.402400 0.000000 0.750000
O O12 0.500000 0.945482 0.000000
O O13 0.500000 0.676640 0.000000
#
# Coordination Sequence:
#
# PCOD9548320 Si02
#       5
#     8   8   8   8   8
#     4  10  22  41  61  86 121 160 211 257 328 386
#     4  11  21  40  62  87 123 168 207 256 319 382
#     4  12  26  40  55  87 121 164 220 269 311 370
#     4  11  24  38  63  94 124 166 213 267 325 398
#     4  12  23  40  62  78 119 169 219 257 317 366
#
# _framework density 19.488417999999999
#
# number of rings (size 3 to 8) (size 9 to 14) (size 15 to 20)
#    0.000    0.800    4.000    4.200    8.400    2.400 
#    0.000    1.000    0.000    0.000    0.000    0.000 
#    0.000   43.200    0.000    0.000    0.000    0.000 
#
# Total GULP energy -222676.399307 kJ/mol
# GULP energy per Si atom -5566.909983 kJ/mol
# Density = 1.944406 g / cm^3
# Si number density = 19.488418 Si / 1000 Ang^3
#
#
#
# Elastic Constant Matrix: (Units=GPa)
#
#
# Indices 1 2 3 4 5 6 
#
# 1 57.0192 30.1066 19.7236 0.0000 0.0000 0.0000
# 2 30.1066 57.0192 19.7236 0.0000 0.0000 0.0000
# 3 19.7236 19.7236 145.2811 0.0000 0.0000 0.0000
# 4 0.0000 0.0000 0.0000 28.6963 0.0000 0.0000
# 5 0.0000 0.0000 0.0000 0.0000 28.6963 0.0000
# 6 0.0000 0.0000 0.0000 0.0000 0.0000 30.8513
#
#
#
# Elastic Compliance Matrix: (Units=1/GPa)
#
#
# Indices 1 2 3 4 5 6 
#
# 1 0.024693 -0.012464 -0.001660 0.000000 0.000000 0.000000
# 2 -0.012464 0.024693 -0.001660 0.000000 0.000000 0.000000
# 3 -0.001660 -0.001660 0.007334 0.000000 0.000000 0.000000
# 4 0.000000 0.000000 0.000000 0.034848 0.000000 0.000000
# 5 0.000000 0.000000 0.000000 0.000000 0.034848 0.000000
# 6 0.000000 0.000000 0.000000 0.000000 0.000000 0.032414
#
#
# Mechanical properties :
#
#
# Convention : Reuss Voigt Hill
#
# Bulk Modulus (GPa) = 39.75884 44.26966 42.01425
# Shear Modulus (GPa) = 25.15315 30.29985 27.72650
#
# Velocity S-wave (km/s) = 3.59649 3.94732 3.77598
# Velocity P-wave (km/s) = 6.13937 6.59851 6.37308
#
# Compressibility (1/GPa) = 0.02515164
#
# Stress axis : x y z
#
# Youngs Moduli (GPa) = 40.49684 40.49684 136.35108
#
# Poissons Ratio (x) = 0.50475 0.22638
# Poissons Ratio (y) = 0.50475 0.22638
# Poissons Ratio (z) = 0.06724 0.06724
#
# Static dielectric constant tensor:
#      x y z
#    x 1.714700 0.000000 0.000000 
#    y 0.000000 1.714700 0.000000 
#    z 0.000000 0.000000 1.847320 
# 
# From -- ./inp_files/2366.got.cif
#   From: 2010.05.17/outbox.cif.g08.bks.cpg/sg91_2_cif.got.tgz:2366.got - 2010.06.03 19:20:03.
