data_PCOD9548136
_publ_section_title
;
Structure prediction by ZEFSAII (Michael W. Deem and Ramdas Pophale) SiO2 
 PCOD9548136
Probable space group: P 41 2 2
;
_chemical_formula_sum "Si O2"
_cell_formula_units_Z 56
_cell_length_a 11.900728
_cell_length_b 11.900728
_cell_length_c 19.048787
_cell_angle_alpha 90.000000
_cell_angle_beta 90.000000
_cell_angle_gamma 90.000000
_cell_volume 2697.828784
_symmetry_space_group_name_H-M "P 41 2 2"
_symmetry_group_IT_number 91
_symmetry_cell_setting 'tetragonal'
loop_
_space_group_symop_operation_xyz
x,y,z
-y,x,1/4+z
-x,-y,1/2+z
y,-x,3/4+z
x,-y,1/2-z
-x,y,-z
y,x,3/4-z
-y,-x,1/4-z
loop_
_atom_site_type_symbol
_atom_site_label
_atom_site_fract_x
_atom_site_fract_y
_atom_site_fract_z
Si Si1 0.819485 0.334021 0.841334
Si Si2 0.903942 0.854390 0.051411
Si Si3 0.871329 0.326724 0.997458
Si Si4 0.537533 0.394527 0.424091
Si Si5 0.739719 0.446776 0.114421
Si Si6 0.394730 0.054474 0.963549
Si Si7 0.080665 0.835954 0.779766
O O1 0.792363 0.217337 0.801609
O O2 0.737034 0.433852 0.820095
O O3 0.954556 0.348304 0.834777
O O4 0.806639 0.322729 0.924141
O O5 0.928036 0.864398 0.136277
O O6 0.000000 0.802623 0.000000
O O7 0.881283 0.974137 0.013626
O O8 0.806472 0.414380 0.045004
O O9 0.873774 0.192566 0.012706
O O10 0.000000 0.363023 0.000000
O O11 0.500000 0.438739 0.500000
O O12 0.436554 0.436554 0.375000
O O13 0.654148 0.449972 0.395392
O O14 0.658109 0.341892 0.125000
O O15 0.834501 0.440422 0.174681
O O16 0.500000 0.998648 0.000000
O O17 0.298467 0.081360 0.019518
#
# Coordination Sequence:
#
# PCOD9548136 Si02
#       7
#     8   8   8   8   8   8   8
#     4  10  23  42  65  95 133 172 223 271 331 402
#     4  10  21  39  61  97 136 180 224 261 326 402
#     4  11  20  36  60  93 131 164 214 276 335 390
#     4  11  25  46  71  95 129 177 227 275 334 407
#     4  11  23  38  64  98 131 165 219 280 341 388
#     4  11  23  40  64  94 130 169 215 277 339 394
#     4  10  22  37  63  92 133 179 222 269 330 401
#
# _framework density 20.757432000000001
#
# number of rings (size 3 to 8) (size 9 to 14) (size 15 to 20)
#    0.000    1.429    2.857    2.143    4.000    3.429 
#    0.000    6.429    0.000    0.000    0.000    0.000 
#    0.000    0.000    0.000    0.000    0.000    0.000 
#
# Total GULP energy -311772.842517 kJ/mol
# GULP energy per Si atom -5567.372188 kJ/mol
# Density = 2.071019 g / cm^3
# Si number density = 20.757432 Si / 1000 Ang^3
#
#
#
# Elastic Constant Matrix: (Units=GPa)
#
#
# Indices 1 2 3 4 5 6 
#
# 1 78.9382 1.0351 11.8200 0.0000 0.0000 0.0000
# 2 1.0351 78.9352 11.8166 0.0000 0.0000 0.0000
# 3 11.8200 11.8166 89.6794 0.0000 0.0000 0.0000
# 4 0.0000 0.0000 0.0000 24.7031 0.0000 0.0000
# 5 0.0000 0.0000 0.0000 0.0000 24.7032 0.0000
# 6 0.0000 0.0000 0.0000 0.0000 0.0000 26.0631
#
#
#
# Elastic Compliance Matrix: (Units=1/GPa)
#
#
# Indices 1 2 3 4 5 6 
#
# 1 0.012924 0.000087 -0.001715 0.000000 0.000000 0.000000
# 2 0.000087 0.012924 -0.001714 0.000000 0.000000 0.000000
# 3 -0.001715 -0.001714 0.011603 0.000000 0.000000 0.000000
# 4 0.000000 0.000000 0.000000 0.040481 0.000000 0.000000
# 5 0.000000 0.000000 0.000000 0.000000 0.040481 0.000000
# 6 0.000000 0.000000 0.000000 0.000000 0.000000 0.038368
#
#
# Mechanical properties :
#
#
# Convention : Reuss Voigt Hill
#
# Bulk Modulus (GPa) = 32.50291 32.98848 32.74570
# Shear Modulus (GPa) = 28.78195 29.95263 29.36729
#
# Velocity S-wave (km/s) = 3.72773 3.80278 3.76544
# Velocity P-wave (km/s) = 5.84982 5.93367 5.89189
#
# Compressibility (1/GPa) = 0.03076648
#
# Stress axis : x y z
#
# Youngs Moduli (GPa) = 77.37674 77.37464 86.18632
#
# Poissons Ratio (x) = -0.00675 0.14780
# Poissons Ratio (y) = -0.00675 0.14776
# Poissons Ratio (z) = 0.13269 0.13266
#
# Static dielectric constant tensor:
#      x y z
#    x 1.823150 0.000000 0.000000 
#    y 0.000000 1.823150 0.000000 
#    z 0.000000 0.000000 1.763590 
# 
# From -- ./inp_files/6408.got.cif
#   From: 2010.05.17/outbox.cif.g08.bks.cpg/sg91_4_cif.got.tgz:6408.got - 2010.06.03 19:20:03.
