data_PCOD9548025
_publ_section_title
;
Structure prediction by ZEFSAII (Michael W. Deem and Ramdas Pophale) SiO2 
 PCOD9548025
Probable space group: P 41 2 2
;
_chemical_formula_sum "Si O2"
_cell_formula_units_Z 48
_cell_length_a 13.904742
_cell_length_b 13.904742
_cell_length_c 12.786375
_cell_angle_alpha 90.000000
_cell_angle_beta 90.000000
_cell_angle_gamma 90.000000
_cell_volume 2472.141398
_symmetry_space_group_name_H-M "P 41 2 2"
_symmetry_group_IT_number 91
_symmetry_cell_setting 'tetragonal'
loop_
_space_group_symop_operation_xyz
x,y,z
-y,x,1/4+z
-x,-y,1/2+z
y,-x,3/4+z
x,-y,1/2-z
-x,y,-z
y,x,3/4-z
-y,-x,1/4-z
loop_
_atom_site_type_symbol
_atom_site_label
_atom_site_fract_x
_atom_site_fract_y
_atom_site_fract_z
Si Si1 0.938061 0.888433 0.764091
Si Si2 0.938650 0.591772 0.898960
Si Si3 0.195951 0.245934 0.140704
Si Si4 0.731491 0.397458 0.687712
Si Si5 0.123167 0.238279 0.790755
Si Si6 0.021756 0.625971 0.343475
O O1 0.886548 0.886548 0.875000
O O2 0.857050 0.847037 0.688527
O O3 0.031203 0.822131 0.751526
O O4 0.964938 0.000000 0.750000
O O5 0.822377 0.600286 0.893803
O O6 0.966138 0.480275 0.885027
O O7 0.964179 0.631888 0.783403
O O8 0.000000 0.628864 0.000000
O O9 0.246461 0.313878 0.226331
O O10 0.104576 0.309819 0.104664
O O11 0.259345 0.201313 0.048728
O O12 0.728118 0.500000 0.750000
O O13 0.637066 0.362935 0.625000
O O14 0.170450 0.170450 0.875000
O O15 0.083090 0.330193 0.851904
#
# Coordination Sequence:
#
# PCOD9548025 Si02
#       6
#     8   8   8   8   8   8
#     4  11  20  34  48  74 115 164 210 247 281 340
#     4  10  20  40  67  89 120 158 200 258 320 367
#     4  10  21  38  56  82 121 158 203 249 298 358
#     4  11  23  44  68  98 122 156 208 261 330 389
#     4  11  24  33  52  80 121 169 207 243 300 360
#     4   9  21  38  55  88 120 156 209 244 297 373
#
# _framework density 19.416364000000002
#
# number of rings (size 3 to 8) (size 9 to 14) (size 15 to 20)
#    0.000    1.667    5.000    1.000    7.000    0.000 
#    0.000    0.000    0.000    3.000    0.000    0.000 
#    0.000    0.000    0.000    0.000    0.000    0.000 
#
# Total GULP energy -267405.757313 kJ/mol
# GULP energy per Si atom -5570.953277 kJ/mol
# Density = 1.937217 g / cm^3
# Si number density = 19.416364 Si / 1000 Ang^3
#
#
#
# Elastic Constant Matrix: (Units=GPa)
#
#
# Indices 1 2 3 4 5 6 
#
# 1 70.0477 35.4436 15.7997 0.0000 0.0000 0.0000
# 2 35.4436 70.0439 15.7977 0.0000 0.0000 0.0000
# 3 15.7997 15.7977 70.5473 0.0000 0.0000 0.0000
# 4 0.0000 0.0000 0.0000 18.1788 0.0000 0.0000
# 5 0.0000 0.0000 0.0000 0.0000 18.1788 0.0000
# 6 0.0000 0.0000 0.0000 0.0000 0.0000 16.1169
#
#
#
# Elastic Compliance Matrix: (Units=1/GPa)
#
#
# Indices 1 2 3 4 5 6 
#
# 1 0.019530 -0.009369 -0.002276 0.000000 0.000000 0.000000
# 2 -0.009369 0.019531 -0.002275 0.000000 0.000000 0.000000
# 3 -0.002276 -0.002275 0.015194 0.000000 0.000000 0.000000
# 4 0.000000 0.000000 0.000000 0.055009 0.000000 0.000000
# 5 0.000000 0.000000 0.000000 0.000000 0.055009 0.000000
# 6 0.000000 0.000000 0.000000 0.000000 0.000000 0.062047
#
#
# Mechanical properties :
#
#
# Convention : Reuss Voigt Hill
#
# Bulk Modulus (GPa) = 37.85826 38.30233 38.08029
# Shear Modulus (GPa) = 19.01389 20.06810 19.54099
#
# Velocity S-wave (km/s) = 3.13273 3.21840 3.17585
# Velocity P-wave (km/s) = 5.71189 5.79486 5.75353
#
# Compressibility (1/GPa) = 0.02641432
#
# Stress axis : x y z
#
# Youngs Moduli (GPa) = 51.20290 51.20064 65.81505
#
# Poissons Ratio (x) = 0.47972 0.14979
# Poissons Ratio (y) = 0.47974 0.14975
# Poissons Ratio (z) = 0.11653 0.11649
#
# Static dielectric constant tensor:
#      x y z
#    x 1.679310 0.000000 0.000000 
#    y 0.000000 1.679310 0.000000 
#    z 0.000000 0.000000 1.787790 
# 
# From -- ./inp_files/20227.got.cif
#   From: 2010.05.17/outbox.cif.g08.bks.cpg/sg91_11_cif.got.tgz:20227.got - 2010.06.03 19:20:03.
