data_PCOD9548469
_publ_section_title
;
Structure prediction by ZEFSAII (Michael W. Deem and Ramdas Pophale) SiO2 
 PCOD9548469
Probable space group: P 41 2 2
;
_chemical_formula_sum "Si O2"
_cell_formula_units_Z 56
_cell_length_a 11.817386
_cell_length_b 11.817386
_cell_length_c 17.116204
_cell_angle_alpha 90.000000
_cell_angle_beta 90.000000
_cell_angle_gamma 90.000000
_cell_volume 2390.288362
_symmetry_space_group_name_H-M "P 41 2 2"
_symmetry_group_IT_number 91
_symmetry_cell_setting 'tetragonal'
loop_
_space_group_symop_operation_xyz
x,y,z
-y,x,1/4+z
-x,-y,1/2+z
y,-x,3/4+z
x,-y,1/2-z
-x,y,-z
y,x,3/4-z
-y,-x,1/4-z
loop_
_atom_site_type_symbol
_atom_site_label
_atom_site_fract_x
_atom_site_fract_y
_atom_site_fract_z
Si Si1 0.960351 0.223888 0.410470
Si Si2 0.164122 0.461708 0.589069
Si Si3 0.249691 0.916833 0.917121
Si Si4 0.681458 0.829764 0.923475
Si Si5 0.541230 0.168394 0.334453
Si Si6 0.649215 0.401074 0.307078
Si Si7 0.165169 0.315634 0.815746
O O1 0.894500 0.341914 0.399179
O O2 0.874176 0.123093 0.392248
O O3 0.000000 0.213466 0.500000
O O4 0.070387 0.239049 0.358777
O O5 0.139864 0.493471 0.500407
O O6 0.295488 0.449707 0.613907
O O7 0.129534 0.564660 0.645283
O O8 0.341871 0.896295 0.849959
O O9 0.254624 0.045445 0.947695
O O10 0.292486 0.830473 0.985147
O O11 0.719860 0.719860 0.875000
O O12 0.552924 0.856515 0.899787
O O13 0.565823 0.301862 0.329508
O O14 0.605702 0.500000 0.250000
O O15 0.753806 0.345636 0.257035
O O16 0.241545 0.241545 0.875000
#
# Coordination Sequence:
#
# PCOD9548469 Si02
#       7
#     8   8   8   8   8   8   8
#     4  12  23  45  72  95 133 192 239 277 356 439
#     4  11  22  43  75 100 132 189 233 285 354 429
#     4  12  27  44  69 107 142 183 239 304 356 426
#     4  12  26  46  68  99 142 186 237 293 358 433
#     4  12  24  45  71 103 139 183 241 296 347 431
#     4  10  23  45  72 101 147 188 235 292 365 435
#     4  11  24  45  70 107 143 180 235 305 361 421
#
# _framework density 23.428135999999999
#
# number of rings (size 3 to 8) (size 9 to 14) (size 15 to 20)
#    0.000    0.571    5.714    2.143    0.000    2.857 
#    2.571    0.000    0.000    0.000    0.000    0.000 
#    0.000    0.000    0.000    0.000    0.000    0.000 
#
# Total GULP energy -313421.509177 kJ/mol
# GULP energy per Si atom -5596.812664 kJ/mol
# Density = 2.337481 g / cm^3
# Si number density = 23.428136 Si / 1000 Ang^3
#
#
#
# Elastic Constant Matrix: (Units=GPa)
#
#
# Indices 1 2 3 4 5 6 
#
# 1 81.9789 36.2287 1.7054 0.0000 0.0000 0.0000
# 2 36.2287 81.9789 1.7054 0.0000 0.0000 0.0000
# 3 1.7054 1.7054 60.4143 0.0000 0.0000 0.0000
# 4 0.0000 0.0000 0.0000 19.0951 0.0000 0.0000
# 5 0.0000 0.0000 0.0000 0.0000 19.0951 0.0000
# 6 0.0000 0.0000 0.0000 0.0000 0.0000 36.4641
#
#
#
# Elastic Compliance Matrix: (Units=1/GPa)
#
#
# Indices 1 2 3 4 5 6 
#
# 1 0.015162 -0.006696 -0.000239 0.000000 0.000000 0.000000
# 2 -0.006696 0.015162 -0.000239 0.000000 0.000000 0.000000
# 3 -0.000239 -0.000239 0.016566 0.000000 0.000000 0.000000
# 4 0.000000 0.000000 0.000000 0.052369 0.000000 0.000000
# 5 0.000000 0.000000 0.000000 0.000000 0.052369 0.000000
# 6 0.000000 0.000000 0.000000 0.000000 0.000000 0.027424
#
#
# Mechanical properties :
#
#
# Convention : Reuss Voigt Hill
#
# Bulk Modulus (GPa) = 30.72855 33.73903 32.23379
# Shear Modulus (GPa) = 24.48001 27.24637 25.86319
#
# Velocity S-wave (km/s) = 3.23599 3.41394 3.32616
# Velocity P-wave (km/s) = 5.20642 5.47470 5.34224
#
# Compressibility (1/GPa) = 0.03254303
#
# Stress axis : x y z
#
# Youngs Moduli (GPa) = 65.95340 65.95340 60.36512
#
# Poissons Ratio (x) = 0.44160 0.01443
# Poissons Ratio (y) = 0.44160 0.01443
# Poissons Ratio (z) = 0.01576 0.01576
#
# Static dielectric constant tensor:
#      x y z
#    x 1.897250 0.000000 0.000000 
#    y 0.000000 1.897250 0.000000 
#    z 0.000000 0.000000 1.891450 
# 
# From -- ./inp_files/21530.got.cif
#   From: 2010.05.17/outbox.cif.g08.bks.cpg/sg91_11_cif.got.tgz:21530.got - 2010.06.03 19:20:03.
