data_PCOD9548830
_publ_section_title
;
Structure prediction by ZEFSAII (Michael W. Deem and Ramdas Pophale) SiO2 
 PCOD9548830
Probable space group: P 41 2 2
;
_chemical_formula_sum "Si O2"
_cell_formula_units_Z 40
_cell_length_a 12.000000
_cell_length_b 12.000000
_cell_length_c 15.000000
_cell_angle_alpha 90.000000
_cell_angle_beta 90.000000
_cell_angle_gamma 90.000000
_cell_volume 2160.000000
_symmetry_space_group_name_H-M "P 41 2 2"
_symmetry_group_IT_number 91
_symmetry_cell_setting 'tetragonal'
loop_
_space_group_symop_operation_xyz
x,y,z
-y,x,1/4+z
-x,-y,1/2+z
y,-x,3/4+z
x,-y,1/2-z
-x,y,-z
y,x,3/4-z
-y,-x,1/4-z
loop_
_atom_site_type_symbol
_atom_site_label
_atom_site_fract_x
_atom_site_fract_y
_atom_site_fract_z
Si Si1 0.705840 0.630785 0.274300
Si Si2 0.800885 0.060013 0.343638
Si Si3 0.180085 0.345284 0.323670
Si Si4 0.939491 0.748781 0.229699
Si Si5 0.597107 0.788834 0.128304
O O1 0.699409 0.500000 0.250000
O O2 0.664048 0.664048 0.375000
O O3 0.834440 0.672216 0.260139
O O4 0.631327 0.695724 0.200308
O O5 0.885806 0.164302 0.340395
O O6 0.673925 0.106106 0.344736
O O7 0.817486 0.000000 0.250000
O O8 0.810760 0.984534 0.431203
O O9 0.250060 0.250060 0.375000
O O10 0.189344 0.464980 0.372868
O O11 0.231929 0.363638 0.224259
O O12 0.049653 0.312311 0.309240
#
# Coordination Sequence:
#
# PCOD9548830 Si02
#       5
#     8   8   8   8   8
#     4  11  25  43  69  98 132 169 220 272 330 401
#     4  10  19  37  61  88 127 170 212 264 326 379
#     4  10  22  41  67  91 133 174 220 269 326 390
#     4  10  22  40  61  94 131 170 218 268 320 390
#     4   9  22  42  60  95 127 170 219 265 332 388
#
# _framework density 18.518519000000001
#
# number of rings (size 3 to 8) (size 9 to 14) (size 15 to 20)
#    0.000    2.000    0.000    3.000    8.400    2.400 
#    0.000    8.000    0.000    0.000    0.000    0.000 
#    0.000    0.000    0.000    0.000    0.000    0.000 
#
# Total GULP energy -223135.244706 kJ/mol
# GULP energy per Si atom -5578.381118 kJ/mol
# Density = 1.847637 g / cm^3
# Si number density = 18.518519 Si / 1000 Ang^3
#
#
#
# Elastic Constant Matrix: (Units=GPa)
#
#
# Indices 1 2 3 4 5 6 
#
# 1 136.3236 72.8507 69.1980 0.0000 0.0000 0.0000
# 2 72.8507 136.3236 69.1980 0.0000 0.0000 0.0000
# 3 69.1980 69.1980 99.5958 0.0000 0.0000 0.0000
# 4 0.0000 0.0000 0.0000 37.8454 0.0000 0.0000
# 5 0.0000 0.0000 0.0000 0.0000 37.8454 0.0000
# 6 0.0000 0.0000 0.0000 0.0000 0.0000 17.9507
#
#
#
# Elastic Compliance Matrix: (Units=1/GPa)
#
#
# Indices 1 2 3 4 5 6 
#
# 1 0.012301 -0.003453 -0.006148 0.000000 0.000000 0.000000
# 2 -0.003453 0.012301 -0.006148 0.000000 0.000000 0.000000
# 3 -0.006148 -0.006148 0.018583 0.000000 0.000000 0.000000
# 4 0.000000 0.000000 0.000000 0.026423 0.000000 0.000000
# 5 0.000000 0.000000 0.000000 0.000000 0.026423 0.000000
# 6 0.000000 0.000000 0.000000 0.000000 0.000000 0.055708
#
#
# Mechanical properties :
#
#
# Convention : Reuss Voigt Hill
#
# Bulk Modulus (GPa) = 85.55008 88.30405 86.92707
# Shear Modulus (GPa) = 26.71882 29.46137 28.09010
#
# Velocity S-wave (km/s) = 3.80256 3.99295 3.89892
# Velocity P-wave (km/s) = 8.09794 8.30939 8.20435
#
# Compressibility (1/GPa) = 0.01168906
#
# Stress axis : x y z
#
# Youngs Moduli (GPa) = 81.29124 81.29124 53.81235
#
# Poissons Ratio (x) = 0.28073 0.33082
# Poissons Ratio (y) = 0.28073 0.33082
# Poissons Ratio (z) = 0.49974 0.49974
#
# Static dielectric constant tensor:
#      x y z
#    x 1.643020 0.000000 0.000000 
#    y 0.000000 1.643020 0.000000 
#    z 0.000000 0.000000 1.641670 
# 
# From -- ./inp_files/11327.got.cif
#   From: 2010.05.17/outbox.ucp.g08.bks.cvg/sg91_6_cif.got.tgz:11327.got - 2010.06.11 10:36:11.
