data_PCOD9548145
_publ_section_title
;
Structure prediction by ZEFSAII (Michael W. Deem and Ramdas Pophale) SiO2 
 PCOD9548145
Probable space group: P 41 2 2
;
_chemical_formula_sum "Si O2"
_cell_formula_units_Z 40
_cell_length_a 7.837749
_cell_length_b 7.837749
_cell_length_c 23.695657
_cell_angle_alpha 90.000000
_cell_angle_beta 90.000000
_cell_angle_gamma 90.000000
_cell_volume 1455.631541
_symmetry_space_group_name_H-M "P 41 2 2"
_symmetry_group_IT_number 91
_symmetry_cell_setting 'tetragonal'
loop_
_space_group_symop_operation_xyz
x,y,z
-y,x,1/4+z
-x,-y,1/2+z
y,-x,3/4+z
x,-y,1/2-z
-x,y,-z
y,x,3/4-z
-y,-x,1/4-z
loop_
_atom_site_type_symbol
_atom_site_label
_atom_site_fract_x
_atom_site_fract_y
_atom_site_fract_z
Si Si1 0.077742 0.456352 0.184661
Si Si2 0.019608 0.137134 0.936577
Si Si3 0.373407 0.762882 0.295586
Si Si4 0.858127 0.508369 0.929919
Si Si5 0.704731 0.396339 0.192176
O O1 0.081067 0.500000 0.250000
O O2 0.181737 0.279900 0.188102
O O3 0.175987 0.551933 0.134975
O O4 0.880449 0.469237 0.165985
O O5 0.038446 0.038446 0.875000
O O6 0.200842 0.230999 0.944549
O O7 0.885975 0.299519 0.933102
O O8 0.000000 0.052220 0.000000
O O9 0.418223 0.739882 0.228985
O O10 0.509345 0.637247 0.325952
O O11 0.412492 0.957906 0.306999
O O12 0.695818 0.500000 0.250000
#
# Coordination Sequence:
#
# PCOD9548145 Si02
#       5
#     8   8   8   8   8
#     4  11  24  40  65 104 146 184 248 306 370 463
#     4  11  20  42  70  95 140 192 248 315 383 467
#     4  10  22  44  67  99 142 193 241 309 379 438
#     4  10  21  43  66  96 146 185 245 315 363 461
#     4  10  21  39  67  99 139 184 244 306 367 450
#
# _framework density 27.479482000000001
#
# number of rings (size 3 to 8) (size 9 to 14) (size 15 to 20)
#    0.000    1.600    6.000    0.600    0.000    4.000 
#    3.600    2.000    0.000    4.800    0.000    0.000 
#    0.000    0.000    0.000    0.000    0.000    0.000 
#
# Total GULP energy -222714.338616 kJ/mol
# GULP energy per Si atom -5567.858465 kJ/mol
# Density = 2.741694 g / cm^3
# Si number density = 27.479482 Si / 1000 Ang^3
#
#
#
# Elastic Constant Matrix: (Units=GPa)
#
#
# Indices 1 2 3 4 5 6 
#
# 1 57.0488 49.7593 37.9530 0.0000 0.0000 0.0000
# 2 49.7593 57.0488 37.9530 0.0000 0.0000 0.0000
# 3 37.9530 37.9530 247.5149 0.0000 0.0000 0.0000
# 4 0.0000 0.0000 0.0000 7.1995 0.0000 0.0000
# 5 0.0000 0.0000 0.0000 0.0000 7.1995 0.0000
# 6 0.0000 0.0000 0.0000 0.0000 0.0000 0.2851
#
#
#
# Elastic Compliance Matrix: (Units=1/GPa)
#
#
# Indices 1 2 3 4 5 6 
#
# 1 0.073846 -0.063338 -0.001611 0.000000 0.000000 0.000000
# 2 -0.063338 0.073846 -0.001611 0.000000 0.000000 0.000000
# 3 -0.001611 -0.001611 0.004534 0.000000 0.000000 0.000000
# 4 0.000000 0.000000 0.000000 0.138899 0.000000 0.000000
# 5 0.000000 0.000000 0.000000 0.000000 0.138899 0.000000
# 6 0.000000 0.000000 0.000000 0.000000 0.000000 3.507165
#
#
# Mechanical properties :
#
#
# Convention : Reuss Voigt Hill
#
# Bulk Modulus (GPa) = 52.34306 68.10477 60.22391
# Shear Modulus (GPa) = 1.22649 18.66663 9.94656
#
# Velocity S-wave (km/s) = 0.66880 2.60915 1.90460
# Velocity P-wave (km/s) = 4.43687 5.82362 5.17689
#
# Compressibility (1/GPa) = 0.01910473
#
# Stress axis : x y z
#
# Youngs Moduli (GPa) = 13.54178 13.54178 220.54262
#
# Poissons Ratio (x) = 0.85771 0.35534
# Poissons Ratio (y) = 0.85771 0.35534
# Poissons Ratio (z) = 0.02182 0.02182
#
# Static dielectric constant tensor:
#      x y z
#    x 2.157850 0.000000 0.000000 
#    y 0.000000 2.157850 0.000000 
#    z 0.000000 0.000000 2.308280 
# 
# From -- ./inp_files/12743.got.cif
#   From: 2010.05.17/outbox.cif.g08.bks.cpg/sg91_7_cif.got.tgz:12743.got - 2010.06.03 19:20:03.
