data_PCOD9548355
_publ_section_title
;
Structure prediction by ZEFSAII (Michael W. Deem and Ramdas Pophale) SiO2 
 PCOD9548355
Probable space group: P 41 2 2
;
_chemical_formula_sum "Si O2"
_cell_formula_units_Z 28
_cell_length_a 6.551915
_cell_length_b 6.551915
_cell_length_c 23.433902
_cell_angle_alpha 90.000000
_cell_angle_beta 90.000000
_cell_angle_gamma 90.000000
_cell_volume 1005.960941
_symmetry_space_group_name_H-M "P 41 2 2"
_symmetry_group_IT_number 91
_symmetry_cell_setting 'tetragonal'
loop_
_space_group_symop_operation_xyz
x,y,z
-y,x,1/4+z
-x,-y,1/2+z
y,-x,3/4+z
x,-y,1/2-z
-x,y,-z
y,x,3/4-z
-y,-x,1/4-z
loop_
_atom_site_type_symbol
_atom_site_label
_atom_site_fract_x
_atom_site_fract_y
_atom_site_fract_z
Si Si1 0.954781 0.509281 0.406721
Si Si2 0.000000 0.167812 0.500000
Si Si3 0.511932 0.555131 0.939765
Si Si4 0.750273 0.846346 0.554514
O O1 0.029969 0.324918 0.448158
O O2 0.716889 0.509448 0.423157
O O3 0.962394 0.409361 0.344646
O O4 0.055485 0.733565 0.413457
O O5 0.820318 0.001095 0.506238
O O6 0.600983 0.600983 0.875000
O O7 0.642929 0.363065 0.960509
O O8 0.500000 0.679416 0.000000
#
# Coordination Sequence:
#
# PCOD9548355 Si02
#       4
#     8   4   8   8
#     4  11  26  46  69 103 144 188 245 305 369 449
#     4  12  24  44  74 104 144 186 240 308 378 444
#     4  10  22  42  68  96 138 186 238 304 368 438
#     4  11  26  46  69 103 144 188 245 305 369 449
#
# _framework density 27.834085000000002
#
# number of rings (size 3 to 8) (size 9 to 14) (size 15 to 20)
#    0.000    1.143    0.000    5.143    0.000   22.857 
#    0.000    2.857    0.000    0.000    0.000    0.000 
#    0.000    0.000    0.000    0.000    0.000    0.000 
#
# Total GULP energy -156097.940227 kJ/mol
# GULP energy per Si atom -5574.926437 kJ/mol
# Density = 2.777073 g / cm^3
# Si number density = 27.834085 Si / 1000 Ang^3
#
#
#
# Elastic Constant Matrix: (Units=GPa)
#
#
# Indices 1 2 3 4 5 6 
#
# 1 127.5199 38.5554 30.1939 0.0000 0.0000 0.0000
# 2 38.5554 127.5199 30.1939 0.0000 0.0000 0.0000
# 3 30.1939 30.1939 185.9517 0.0000 0.0000 0.0000
# 4 0.0000 0.0000 0.0000 48.8083 0.0000 0.0000
# 5 0.0000 0.0000 0.0000 0.0000 48.8083 0.0000
# 6 0.0000 0.0000 0.0000 0.0000 0.0000 67.4811
#
#
#
# Elastic Compliance Matrix: (Units=1/GPa)
#
#
# Indices 1 2 3 4 5 6 
#
# 1 0.008820 -0.002421 -0.001039 0.000000 0.000000 0.000000
# 2 -0.002421 0.008820 -0.001039 0.000000 0.000000 0.000000
# 3 -0.001039 -0.001039 0.005715 0.000000 0.000000 0.000000
# 4 0.000000 0.000000 0.000000 0.020488 0.000000 0.000000
# 5 0.000000 0.000000 0.000000 0.000000 0.020488 0.000000
# 6 0.000000 0.000000 0.000000 0.000000 0.000000 0.014819
#
#
# Mechanical properties :
#
#
# Convention : Reuss Voigt Hill
#
# Bulk Modulus (GPa) = 69.65108 70.98645 70.31877
# Shear Modulus (GPa) = 53.80180 55.82276 54.81228
#
# Velocity S-wave (km/s) = 4.40130 4.48320 4.44244
# Velocity P-wave (km/s) = 7.13488 7.23585 7.18555
#
# Compressibility (1/GPa) = 0.01435728
#
# Stress axis : x y z
#
# Youngs Moduli (GPa) = 113.38111 113.38111 174.97273
#
# Poissons Ratio (x) = 0.27445 0.18181
# Poissons Ratio (y) = 0.27445 0.18181
# Poissons Ratio (z) = 0.11781 0.11781
#
# Static dielectric constant tensor:
#      x y z
#    x 2.279920 0.000000 0.000000 
#    y 0.000000 2.279920 0.000000 
#    z 0.000000 0.000000 2.374640 
# 
# From -- ./inp_files/12149.got.cif
#   From: 2010.05.17/outbox.cif.g08.bks.cpg/sg91_7_cif.got.tgz:12149.got - 2010.06.03 19:20:03.
