data_PCOD9548506
_publ_section_title
;
Structure prediction by ZEFSAII (Michael W. Deem and Ramdas Pophale) SiO2 
 PCOD9548506
Probable space group: P 41 2 2
;
_chemical_formula_sum "Si O2"
_cell_formula_units_Z 28
_cell_length_a 8.906619
_cell_length_b 8.906619
_cell_length_c 15.806661
_cell_angle_alpha 90.000000
_cell_angle_beta 90.000000
_cell_angle_gamma 90.000000
_cell_volume 1253.908623
_symmetry_space_group_name_H-M "P 41 2 2"
_symmetry_group_IT_number 91
_symmetry_cell_setting 'tetragonal'
loop_
_space_group_symop_operation_xyz
x,y,z
-y,x,1/4+z
-x,-y,1/2+z
y,-x,3/4+z
x,-y,1/2-z
-x,y,-z
y,x,3/4-z
-y,-x,1/4-z
loop_
_atom_site_type_symbol
_atom_site_label
_atom_site_fract_x
_atom_site_fract_y
_atom_site_fract_z
Si Si1 0.601902 0.398098 0.625000
Si Si2 0.593497 0.814810 0.422968
Si Si3 0.969955 0.148647 0.806149
Si Si4 0.355171 0.737181 0.306244
O O1 0.429875 0.376987 0.594974
O O2 0.633767 0.289327 0.705210
O O3 0.500000 0.744295 0.500000
O O4 0.698265 0.698265 0.375000
O O5 0.475605 0.850304 0.348256
O O6 0.695697 0.943724 0.465919
O O7 0.806642 0.202099 0.832422
O O8 0.947599 0.000000 0.750000
O O9 0.080288 0.080288 0.875000
#
# Coordination Sequence:
#
# PCOD9548506 Si02
#       4
#     4   8   8   8
#     4  10  24  42  74 114 134 186 252 314 368 426
#     4  11  23  43  73 102 144 191 243 305 376 447
#     4  11  27  46  69 105 146 195 244 298 370 454
#     4  11  23  44  76 104 150 186 250 309 367 443
#
# _framework density 22.330176999999999
#
# number of rings (size 3 to 8) (size 9 to 14) (size 15 to 20)
#    0.000    1.143    1.429    3.429    6.000    4.571 
#    0.000    1.429    0.000    0.000    0.000    0.000 
#    0.000    0.000    0.000    0.000    0.000    0.000 
#
# Total GULP energy -156078.344719 kJ/mol
# GULP energy per Si atom -5574.226597 kJ/mol
# Density = 2.227935 g / cm^3
# Si number density = 22.330177 Si / 1000 Ang^3
#
#
#
# Elastic Constant Matrix: (Units=GPa)
#
#
# Indices 1 2 3 4 5 6 
#
# 1 106.9336 63.2022 30.6561 0.0000 0.0000 0.0000
# 2 63.2022 106.9336 30.6561 0.0000 0.0000 0.0000
# 3 30.6561 30.6561 83.1367 0.0000 0.0000 0.0000
# 4 0.0000 0.0000 0.0000 22.1283 0.0000 0.0000
# 5 0.0000 0.0000 0.0000 0.0000 22.1283 0.0000
# 6 0.0000 0.0000 0.0000 0.0000 0.0000 44.1839
#
#
#
# Elastic Compliance Matrix: (Units=1/GPa)
#
#
# Indices 1 2 3 4 5 6 
#
# 1 0.014823 -0.008044 -0.002499 0.000000 0.000000 0.000000
# 2 -0.008044 0.014823 -0.002499 0.000000 0.000000 0.000000
# 3 -0.002499 -0.002499 0.013872 0.000000 0.000000 0.000000
# 4 0.000000 0.000000 0.000000 0.045191 0.000000 0.000000
# 5 0.000000 0.000000 0.000000 0.000000 0.045191 0.000000
# 6 0.000000 0.000000 0.000000 0.000000 0.000000 0.022633
#
#
# Mechanical properties :
#
#
# Convention : Reuss Voigt Hill
#
# Bulk Modulus (GPa) = 57.37048 60.67030 59.02039
# Shear Modulus (GPa) = 26.53528 29.18739 27.86134
#
# Velocity S-wave (km/s) = 3.45093 3.61928 3.53611
# Velocity P-wave (km/s) = 6.45184 6.68537 6.56965
#
# Compressibility (1/GPa) = 0.01743057
#
# Stress axis : x y z
#
# Youngs Moduli (GPa) = 67.46433 67.46433 72.08905
#
# Poissons Ratio (x) = 0.54270 0.18019
# Poissons Ratio (y) = 0.54270 0.18019
# Poissons Ratio (z) = 0.16863 0.16863
#
# Static dielectric constant tensor:
#      x y z
#    x 1.858170 0.000000 0.000000 
#    y 0.000000 1.858170 0.000000 
#    z 0.000000 0.000000 1.881040 
# 
# From -- ./inp_files/5289.got.cif
#   From: 2010.05.17/outbox.cif.g08.bks.cpg/sg91_3_cif.got.tgz:5289.got - 2010.06.03 19:20:03.
