data_PCOD9548476
_publ_section_title
;
Structure prediction by ZEFSAII (Michael W. Deem and Ramdas Pophale) SiO2 
 PCOD9548476
Probable space group: P 41 2 2
;
_chemical_formula_sum "Si O2"
_cell_formula_units_Z 40
_cell_length_a 9.079078
_cell_length_b 9.079078
_cell_length_c 21.276898
_cell_angle_alpha 90.000000
_cell_angle_beta 90.000000
_cell_angle_gamma 90.000000
_cell_volume 1753.847411
_symmetry_space_group_name_H-M "P 41 2 2"
_symmetry_group_IT_number 91
_symmetry_cell_setting 'tetragonal'
loop_
_space_group_symop_operation_xyz
x,y,z
-y,x,1/4+z
-x,-y,1/2+z
y,-x,3/4+z
x,-y,1/2-z
-x,y,-z
y,x,3/4-z
-y,-x,1/4-z
loop_
_atom_site_type_symbol
_atom_site_label
_atom_site_fract_x
_atom_site_fract_y
_atom_site_fract_z
Si Si1 0.112831 0.013777 0.943511
Si Si2 0.722374 0.742930 0.024080
Si Si3 0.427429 0.882354 0.085541
Si Si4 0.538334 0.157314 0.278252
Si Si5 0.347737 0.184317 0.020338
O O1 0.058786 0.058786 0.875000
O O2 0.148692 0.840102 0.945783
O O3 0.259252 0.104201 0.963639
O O4 0.000000 0.045123 0.000000
O O5 0.574887 0.801212 0.058512
O O6 0.700955 0.799728 0.952305
O O7 0.755739 0.570263 0.019597
O O8 0.446120 0.871781 0.159076
O O9 0.400314 0.051406 0.065218
O O10 0.686411 0.244608 0.294945
O O11 0.579872 0.000000 0.250000
O O12 0.500000 0.257916 0.000000
#
# Coordination Sequence:
#
# PCOD9548476 Si02
#       5
#     8   8   8   8   8
#     4  11  25  44  73 105 143 195 254 309 381 449
#     4  10  23  47  71 102 150 194 243 312 373 445
#     4  10  23  49  72 101 151 198 245 307 382 440
#     4  12  28  42  75 116 143 189 259 310 370 461
#     4  11  25  47  71 102 152 200 241 310 376 450
#
# _framework density 22.807001
#
# number of rings (size 3 to 8) (size 9 to 14) (size 15 to 20)
#    0.000    1.200    4.000    1.800   11.200    4.800 
#    0.000    0.000    0.000    0.000    0.000    0.000 
#    0.000    0.000    0.000    0.000    0.000    0.000 
#
# Total GULP energy -223483.119312 kJ/mol
# GULP energy per Si atom -5587.077983 kJ/mol
# Density = 2.275509 g / cm^3
# Si number density = 22.807001 Si / 1000 Ang^3
#
#
#
# Elastic Constant Matrix: (Units=GPa)
#
#
# Indices 1 2 3 4 5 6 
#
# 1 111.8392 74.0499 40.6965 0.0000 0.0000 0.0000
# 2 74.0499 111.8392 40.6965 0.0000 0.0000 0.0000
# 3 40.6965 40.6965 110.2607 0.0000 0.0000 0.0000
# 4 0.0000 0.0000 0.0000 19.1297 0.0000 0.0000
# 5 0.0000 0.0000 0.0000 0.0000 19.1297 0.0000
# 6 0.0000 0.0000 0.0000 0.0000 0.0000 33.1938
#
#
#
# Elastic Compliance Matrix: (Units=1/GPa)
#
#
# Indices 1 2 3 4 5 6 
#
# 1 0.016440 -0.010023 -0.002368 0.000000 0.000000 0.000000
# 2 -0.010023 0.016440 -0.002368 0.000000 0.000000 0.000000
# 3 -0.002368 -0.002368 0.010818 0.000000 0.000000 0.000000
# 4 0.000000 0.000000 0.000000 0.052275 0.000000 0.000000
# 5 0.000000 0.000000 0.000000 0.000000 0.052275 0.000000
# 6 0.000000 0.000000 0.000000 0.000000 0.000000 0.030126
#
#
# Mechanical properties :
#
#
# Convention : Reuss Voigt Hill
#
# Bulk Modulus (GPa) = 70.53415 71.64719 71.09067
# Shear Modulus (GPa) = 23.51641 26.19037 24.85339
#
# Velocity S-wave (km/s) = 3.21457 3.39240 3.30468
# Velocity P-wave (km/s) = 6.69116 6.84305 6.76753
#
# Compressibility (1/GPa) = 0.01417753
#
# Stress axis : x y z
#
# Youngs Moduli (GPa) = 60.82908 60.82908 92.44141
#
# Poissons Ratio (x) = 0.60969 0.21893
# Poissons Ratio (y) = 0.60969 0.21893
# Poissons Ratio (z) = 0.14406 0.14406
#
# Static dielectric constant tensor:
#      x y z
#    x 1.873620 0.000000 0.000000 
#    y 0.000000 1.873620 0.000000 
#    z 0.000000 0.000000 1.926180 
# 
# From -- ./inp_files/21706.got.cif
#   From: 2010.05.17/outbox.cif.g08.bks.cpg/sg91_11_cif.got.tgz:21706.got - 2010.06.03 19:20:03.
