data_PCOD9548197
_publ_section_title
;
Structure prediction by ZEFSAII (Michael W. Deem and Ramdas Pophale) SiO2 
 PCOD9548197
Probable space group: P 41 2 2
;
_chemical_formula_sum "Si O2"
_cell_formula_units_Z 32
_cell_length_a 7.762500
_cell_length_b 7.762500
_cell_length_c 21.540213
_cell_angle_alpha 90.000000
_cell_angle_beta 90.000000
_cell_angle_gamma 90.000000
_cell_volume 1297.935825
_symmetry_space_group_name_H-M "P 41 2 2"
_symmetry_group_IT_number 91
_symmetry_cell_setting 'tetragonal'
loop_
_space_group_symop_operation_xyz
x,y,z
-y,x,1/4+z
-x,-y,1/2+z
y,-x,3/4+z
x,-y,1/2-z
-x,y,-z
y,x,3/4-z
-y,-x,1/4-z
loop_
_atom_site_type_symbol
_atom_site_label
_atom_site_fract_x
_atom_site_fract_y
_atom_site_fract_z
Si Si1 0.031425 0.811528 0.836512
Si Si2 0.568564 0.898978 0.684886
Si Si3 0.870068 0.682460 0.722755
Si Si4 0.692961 0.255861 0.019133
O O1 0.981513 0.981513 0.875000
O O2 0.808678 0.890807 0.968439
O O3 0.994336 0.635966 0.875771
O O4 0.205639 0.794427 0.795256
O O5 0.725351 0.760504 0.680440
O O6 0.392111 0.792981 0.689495
O O7 0.571114 0.000000 0.750000
O O8 0.818004 0.500000 0.750000
O O9 0.067266 0.672142 0.699936
O O10 0.500000 0.313772 0.000000
#
# Coordination Sequence:
#
# PCOD9548197 Si02
#       4
#     8   8   8   8
#     4  10  21  42  66  93 134 183 219 283 359 406
#     4  12  22  37  69  94 129 182 223 278 345 415
#     4   9  21  44  62  87 136 170 221 284 330 408
#     4   9  22  43  61  98 135 167 235 283 333 415
#
# _framework density 24.654530999999999
#
# number of rings (size 3 to 8) (size 9 to 14) (size 15 to 20)
#    1.500    0.500    2.500    0.750    0.000    6.000 
#    0.000    0.000    0.000    0.000    0.000    0.000 
#    0.000    0.000    0.000    0.000    0.000    0.000 
#
# Total GULP energy -178283.647298 kJ/mol
# GULP energy per Si atom -5571.363978 kJ/mol
# Density = 2.459842 g / cm^3
# Si number density = 24.654531 Si / 1000 Ang^3
#
#
#
# Elastic Constant Matrix: (Units=GPa)
#
#
# Indices 1 2 3 4 5 6 
#
# 1 77.0359 22.8144 20.0600 0.0000 0.0000 0.0000
# 2 22.8144 77.0359 20.0600 0.0000 0.0000 0.0000
# 3 20.0600 20.0600 84.9685 0.0000 0.0000 0.0000
# 4 0.0000 0.0000 0.0000 28.2855 0.0000 0.0000
# 5 0.0000 0.0000 0.0000 0.0000 28.2855 0.0000
# 6 0.0000 0.0000 0.0000 0.0000 0.0000 -14.3402
#
#
#
# Elastic Compliance Matrix: (Units=1/GPa)
#
#
# Indices 1 2 3 4 5 6 
#
# 1 0.014754 -0.003689 -0.002612 0.000000 0.000000 0.000000
# 2 -0.003689 0.014754 -0.002612 0.000000 0.000000 0.000000
# 3 -0.002612 -0.002612 0.013002 0.000000 0.000000 0.000000
# 4 0.000000 0.000000 0.000000 0.035354 0.000000 0.000000
# 5 0.000000 0.000000 0.000000 0.000000 0.035354 0.000000
# 6 0.000000 0.000000 0.000000 0.000000 0.000000 -0.069734
#
#
# Mechanical properties :
#
#
# Convention : Reuss Voigt Hill
#
# Bulk Modulus (GPa) = 40.51401 40.54545 40.52973
# Shear Modulus (GPa) = 71.90271 20.18654 46.04463
#
# Velocity S-wave (km/s) = 5.40624 2.86453 4.32625
# Velocity P-wave (km/s) = 7.44569 5.23659 6.43662
#
# Compressibility (1/GPa) = 0.02468282
#
# Stress axis : x y z
#
# Youngs Moduli (GPa) = 67.77944 67.77944 76.90842
#
# Poissons Ratio (x) = 0.25005 0.20090
# Poissons Ratio (y) = 0.25005 0.20090
# Poissons Ratio (z) = 0.17705 0.17705
#
# Static dielectric constant tensor:
#      x y z
#    x 2.078170 0.000000 0.000000 
#    y 0.000000 2.078170 0.000000 
#    z 0.000000 0.000000 0.603870 
# 
# From -- ./inp_files/12634.got.cif
#   From: 2010.05.17/outbox.cif.g08.bks.cpg/sg91_7_cif.got.tgz:12634.got - 2010.06.03 19:20:03.
