data_PCOD9548458
_publ_section_title
;
Structure prediction by ZEFSAII (Michael W. Deem and Ramdas Pophale) SiO2 
 PCOD9548458
Probable space group: P 41 2 2
;
_chemical_formula_sum "Si O2"
_cell_formula_units_Z 40
_cell_length_a 17.073633
_cell_length_b 17.073633
_cell_length_c 6.506719
_cell_angle_alpha 90.000000
_cell_angle_beta 90.000000
_cell_angle_gamma 90.000000
_cell_volume 1896.766783
_symmetry_space_group_name_H-M "P 41 2 2"
_symmetry_group_IT_number 91
_symmetry_cell_setting 'tetragonal'
loop_
_space_group_symop_operation_xyz
x,y,z
-y,x,1/4+z
-x,-y,1/2+z
y,-x,3/4+z
x,-y,1/2-z
-x,y,-z
y,x,3/4-z
-y,-x,1/4-z
loop_
_atom_site_type_symbol
_atom_site_label
_atom_site_fract_x
_atom_site_fract_y
_atom_site_fract_z
Si Si1 0.000000 0.883196 0.500000
Si Si2 0.700566 0.299435 0.125000
Si Si3 0.685179 0.410308 0.746566
Si Si4 0.613203 0.000000 0.250000
Si Si5 0.816550 0.345331 0.453621
Si Si6 0.749610 0.054449 0.556942
Si Si7 0.500000 0.111133 0.000000
O O1 0.951475 0.823808 0.652222
O O2 0.060595 0.939406 0.625000
O O3 0.629070 0.308596 0.282536
O O4 0.780827 0.305698 0.250230
O O5 0.704595 0.500000 0.750000
O O6 0.604227 0.395774 0.625000
O O7 0.747076 0.367249 0.603894
O O8 0.672736 0.024944 0.431208
O O9 0.553732 0.935918 0.338327
O O10 0.868722 0.283850 0.579790
O O11 0.848932 0.430328 0.382269
O O12 0.769492 0.000000 0.750000
#
# Coordination Sequence:
#
# PCOD9548458 Si02
#       7
#     4   4   8   4   8   8   4
#     4  11  30  58  82 107 140 186 252 319 378 442
#     4  10  24  46  62 100 142 176 240 292 344 428
#     4  10  23  44  66  97 136 182 238 292 347 412
#     4  11  24  42  64 109 150 178 236 285 354 440
#     4  11  24  42  69 103 144 190 234 284 361 423
#     4  11  25  50  71 109 148 182 236 296 363 443
#     4  12  22  40  72 102 148 196 228 292 350 434
#
# _framework density 21.088515999999998
#
# number of rings (size 3 to 8) (size 9 to 14) (size 15 to 20)
#    0.000    1.200    2.000    2.400    7.000    2.400 
#   16.200    0.000    0.000    0.000    0.000    0.000 
#    0.000    0.000    0.000    0.000    0.000    0.000 
#
# Total GULP energy -223131.901506 kJ/mol
# GULP energy per Si atom -5578.297538 kJ/mol
# Density = 2.104052 g / cm^3
# Si number density = 21.088516 Si / 1000 Ang^3
#
#
#
# Elastic Constant Matrix: (Units=GPa)
#
#
# Indices 1 2 3 4 5 6 
#
# 1 50.1023 142.8718 64.9246 0.0000 0.0000 0.0000
# 2 142.8718 50.0788 64.9171 0.0000 0.0000 0.0000
# 3 64.9246 64.9171 146.7238 0.0000 0.0000 0.0000
# 4 0.0000 0.0000 0.0000 60.5899 0.0000 0.0000
# 5 0.0000 0.0000 0.0000 0.0000 60.5847 0.0000
# 6 0.0000 0.0000 0.0000 0.0000 0.0000 -104.8731
#
#
#
# Elastic Compliance Matrix: (Units=1/GPa)
#
#
# Indices 1 2 3 4 5 6 
#
# 1 -0.001699 0.009079 -0.003265 0.000000 0.000000 0.000000
# 2 0.009079 -0.001700 -0.003265 0.000000 0.000000 0.000000
# 3 -0.003265 -0.003265 0.009705 0.000000 0.000000 0.000000
# 4 0.000000 0.000000 0.000000 0.016504 0.000000 0.000000
# 5 0.000000 0.000000 0.000000 0.000000 0.016506 0.000000
# 6 0.000000 0.000000 0.000000 0.000000 0.000000 -0.009535
#
#
# Mechanical properties :
#
#
# Convention : Reuss Voigt Hill
#
# Bulk Modulus (GPa) = 87.69477 88.03687 87.86582
# Shear Modulus (GPa) = 175.52724 1.53975 88.53350
#
# Velocity S-wave (km/s) = 9.13314 0.85541 6.48637
# Velocity P-wave (km/s) = 12.36501 6.54313 9.89207
#
# Compressibility (1/GPa) = 0.01140319
#
# Stress axis : x y z
#
# Youngs Moduli (GPa) = -588.71310 -588.24735 103.03944
#
# Poissons Ratio (x) = 5.34055 0.33645
# Poissons Ratio (y) = 5.34478 0.33644
# Poissons Ratio (z) = -1.92227 -1.92073
#
# Static dielectric constant tensor:
#      x y z
#    x 1.576550 0.000000 0.000000 
#    y 0.000000 1.576640 0.000000 
#    z 0.000000 0.000000 1.418010 
# 
# From -- ./inp_files/948.got.cif
#   From: 2010.05.17/outbox.cif.g08.bks.cpg/sg91_1_cif.got.tgz:948.got - 2010.06.03 19:20:03.
