data_PCOD9548260
_publ_section_title
;
Structure prediction by ZEFSAII (Michael W. Deem and Ramdas Pophale) SiO2 
 PCOD9548260
Probable space group: P 41 2 2
;
_chemical_formula_sum "Si O2"
_cell_formula_units_Z 60
_cell_length_a 11.220401
_cell_length_b 11.220401
_cell_length_c 21.681040
_cell_angle_alpha 90.000000
_cell_angle_beta 90.000000
_cell_angle_gamma 90.000000
_cell_volume 2729.586535
_symmetry_space_group_name_H-M "P 41 2 2"
_symmetry_group_IT_number 91
_symmetry_cell_setting 'tetragonal'
loop_
_space_group_symop_operation_xyz
x,y,z
-y,x,1/4+z
-x,-y,1/2+z
y,-x,3/4+z
x,-y,1/2-z
-x,y,-z
y,x,3/4-z
-y,-x,1/4-z
loop_
_atom_site_type_symbol
_atom_site_label
_atom_site_fract_x
_atom_site_fract_y
_atom_site_fract_z
Si Si1 0.752392 0.533858 0.108923
Si Si2 0.872194 0.547954 0.519144
Si Si3 0.626476 0.302416 0.469831
Si Si4 0.912674 0.215785 0.836073
Si Si5 0.841511 0.306681 0.170634
Si Si6 0.213727 0.243748 0.691031
Si Si7 0.000000 0.130374 0.500000
Si Si8 0.824271 0.691292 0.930122
O O1 0.630643 0.590440 0.080556
O O2 0.762415 0.421968 0.154483
O O3 0.807340 0.642324 0.147761
O O4 0.823276 0.496483 0.047377
O O5 0.785823 0.647140 0.547163
O O6 0.885493 0.439333 0.568095
O O7 0.000000 0.600834 0.500000
O O8 0.500000 0.274553 0.500000
O O9 0.700647 0.193035 0.440571
O O10 0.712678 0.336735 0.525693
O O11 0.867550 0.165902 0.901753
O O12 0.019686 0.308126 0.844028
O O13 0.934705 0.102350 0.790963
O O14 0.793006 0.206995 0.125000
O O15 0.834363 0.270065 0.241580
O O16 0.921898 0.218318 0.542875
O O17 0.760890 0.760890 0.875000
#
# Coordination Sequence:
#
# PCOD9548260 Si02
#       8
#     8   8   8   8   8   8   4   8
#     4  10  23  46  65  98 139 183 236 294 362 437
#     4  11  22  44  72  98 144 191 237 300 369 440
#     4   9  21  43  63  99 139 174 235 301 363 427
#     4  10  25  43  72 102 143 188 246 306 365 443
#     4  12  25  46  67 100 143 192 244 296 369 451
#     4  11  25  43  70 105 138 187 247 297 367 446
#     4  10  22  50  64 102 148 186 234 306 364 422
#     4  10  22  37  67 101 131 184 235 283 364 433
#
# _framework density 21.981352999999999
#
# number of rings (size 3 to 8) (size 9 to 14) (size 15 to 20)
#    0.000    1.600    2.000    2.000    3.733    4.800 
#    4.800    0.000    0.000    0.000    0.000    0.000 
#    0.000    0.000    0.000    0.000    0.000    0.000 
#
# Total GULP energy -334321.274391 kJ/mol
# GULP energy per Si atom -5572.021240 kJ/mol
# Density = 2.193132 g / cm^3
# Si number density = 21.981353 Si / 1000 Ang^3
#
#
#
# Elastic Constant Matrix: (Units=GPa)
#
#
# Indices 1 2 3 4 5 6 
#
# 1 65.8023 4.6405 13.1907 0.0000 0.0000 0.0000
# 2 4.6405 65.8021 13.1898 0.0000 0.0000 0.0000
# 3 13.1907 13.1898 96.4063 0.0000 0.0000 0.0000
# 4 0.0000 0.0000 0.0000 53.7255 0.0000 0.0000
# 5 0.0000 0.0000 0.0000 0.0000 53.7172 0.0000
# 6 0.0000 0.0000 0.0000 0.0000 0.0000 5.6647
#
#
#
# Elastic Compliance Matrix: (Units=1/GPa)
#
#
# Indices 1 2 3 4 5 6 
#
# 1 0.015656 -0.000694 -0.002047 0.000000 0.000000 0.000000
# 2 -0.000694 0.015656 -0.002047 0.000000 0.000000 0.000000
# 3 -0.002047 -0.002047 0.010933 0.000000 0.000000 0.000000
# 4 0.000000 0.000000 0.000000 0.018613 0.000000 0.000000
# 5 0.000000 0.000000 0.000000 0.000000 0.018616 0.000000
# 6 0.000000 0.000000 0.000000 0.000000 0.000000 0.176533
#
#
# Mechanical properties :
#
#
# Convention : Reuss Voigt Hill
#
# Bulk Modulus (GPa) = 30.60964 32.22808 31.41886
# Shear Modulus (GPa) = 18.08492 35.75411 26.91951
#
# Velocity S-wave (km/s) = 2.87145 4.03745 3.50330
# Velocity P-wave (km/s) = 4.99492 6.03556 5.53973
#
# Compressibility (1/GPa) = 0.03266944
#
# Stress axis : x y z
#
# Youngs Moduli (GPa) = 63.87181 63.87187 91.46655
#
# Poissons Ratio (x) = 0.04431 0.18725
# Poissons Ratio (y) = 0.04431 0.18724
# Poissons Ratio (z) = 0.13076 0.13075
#
# Static dielectric constant tensor:
#      x y z
#    x 1.828370 0.000000 0.000000 
#    y 0.000000 1.828370 0.000000 
#    z 0.000000 0.000000 1.837540 
# 
# From -- ./inp_files/17368.got.cif
#   From: 2010.05.17/outbox.cif.g08.bks.cpg/sg91_9_cif.got.tgz:17368.got - 2010.06.03 19:20:03.
