data_PCOD9548132
_publ_section_title
;
Structure prediction by ZEFSAII (Michael W. Deem and Ramdas Pophale) SiO2 
 PCOD9548132
Probable space group: P 41 2 2
;
_chemical_formula_sum "Si O2"
_cell_formula_units_Z 48
_cell_length_a 9.100023
_cell_length_b 9.100023
_cell_length_c 28.132546
_cell_angle_alpha 90.000000
_cell_angle_beta 90.000000
_cell_angle_gamma 90.000000
_cell_volume 2329.667911
_symmetry_space_group_name_H-M "P 41 2 2"
_symmetry_group_IT_number 91
_symmetry_cell_setting 'tetragonal'
loop_
_space_group_symop_operation_xyz
x,y,z
-y,x,1/4+z
-x,-y,1/2+z
y,-x,3/4+z
x,-y,1/2-z
-x,y,-z
y,x,3/4-z
-y,-x,1/4-z
loop_
_atom_site_type_symbol
_atom_site_label
_atom_site_fract_x
_atom_site_fract_y
_atom_site_fract_z
Si Si1 0.982144 0.762170 0.849356
Si Si2 0.528654 0.456205 0.054107
Si Si3 0.854196 0.001840 0.302159
Si Si4 0.536385 0.777975 0.626660
Si Si5 0.796910 0.492464 0.695634
Si Si6 0.285773 0.996013 0.596440
O O1 0.890961 0.890961 0.875000
O O2 0.870855 0.640247 0.831691
O O3 0.107960 0.672741 0.878723
O O4 0.051916 0.848668 0.805083
O O5 0.436953 0.356983 0.090670
O O6 0.696561 0.472849 0.075776
O O7 0.475270 0.623442 0.055409
O O8 0.500000 0.403573 0.000000
O O9 0.946800 0.854803 0.315518
O O10 0.753254 0.015501 0.348335
O O11 0.785901 0.000000 0.250000
O O12 0.407566 0.867636 0.599152
O O13 0.846996 0.500000 0.750000
O O14 0.856559 0.641175 0.672546
#
# Coordination Sequence:
#
# PCOD9548132 Si02
#       6
#     8   8   8   8   8   8
#     4  11  23  40  63  92 124 171 216 258 321 390
#     4  10  21  38  65  95 123 162 212 267 322 385
#     4  11  21  36  62  91 124 165 216 263 319 376
#     4  10  23  41  64  87 126 169 209 263 319 382
#     4  10  22  40  63  91 127 165 209 263 333 393
#     4  10  21  41  62  88 128 167 214 267 318 393
#
# _framework density 20.603795999999999
#
# number of rings (size 3 to 8) (size 9 to 14) (size 15 to 20)
#    0.000    1.667    1.667    4.000    2.333    5.333 
#    0.000    0.000    0.000    0.000    0.000    0.000 
#    0.000    0.000    0.000    0.000    0.000    0.000 
#
# Total GULP energy -267573.485529 kJ/mol
# GULP energy per Si atom -5574.447615 kJ/mol
# Density = 2.055690 g / cm^3
# Si number density = 20.603796 Si / 1000 Ang^3
#
#
#
# Elastic Constant Matrix: (Units=GPa)
#
#
# Indices 1 2 3 4 5 6 
#
# 1 72.3282 13.9309 14.6145 0.0000 0.0000 0.0000
# 2 13.9309 72.3282 14.6145 0.0000 0.0000 0.0000
# 3 14.6145 14.6145 122.3241 0.0000 0.0000 0.0000
# 4 0.0000 0.0000 0.0000 13.0718 0.0000 0.0000
# 5 0.0000 0.0000 0.0000 0.0000 13.0718 0.0000
# 6 0.0000 0.0000 0.0000 0.0000 0.0000 21.2498
#
#
#
# Elastic Compliance Matrix: (Units=1/GPa)
#
#
# Indices 1 2 3 4 5 6 
#
# 1 0.014603 -0.002521 -0.001443 0.000000 0.000000 0.000000
# 2 -0.002521 0.014603 -0.001443 0.000000 0.000000 0.000000
# 3 -0.001443 -0.001443 0.008520 0.000000 0.000000 0.000000
# 4 0.000000 0.000000 0.000000 0.076501 0.000000 0.000000
# 5 0.000000 0.000000 0.000000 0.000000 0.076501 0.000000
# 6 0.000000 0.000000 0.000000 0.000000 0.000000 0.047059
#
#
# Mechanical properties :
#
#
# Convention : Reuss Voigt Hill
#
# Bulk Modulus (GPa) = 37.16065 39.25557 38.20811
# Shear Modulus (GPa) = 19.41199 24.40004 21.90602
#
# Velocity S-wave (km/s) = 3.07279 3.44503 3.26422
# Velocity P-wave (km/s) = 5.53754 5.90916 5.72637
#
# Compressibility (1/GPa) = 0.02691019
#
# Stress axis : x y z
#
# Youngs Moduli (GPa) = 68.47861 68.47861 117.37197
#
# Poissons Ratio (x) = 0.17263 0.16943
# Poissons Ratio (y) = 0.17263 0.16943
# Poissons Ratio (z) = 0.09885 0.09885
#
# Static dielectric constant tensor:
#      x y z
#    x 1.789580 0.000000 0.000000 
#    y 0.000000 1.789580 0.000000 
#    z 0.000000 0.000000 1.747370 
# 
# From -- ./inp_files/7999.got.cif
#   From: 2010.05.17/outbox.cif.g08.bks.cpg/sg91_4_cif.got.tgz:7999.got - 2010.06.03 19:20:03.
