data_PCOD9548178
_publ_section_title
;
Structure prediction by ZEFSAII (Michael W. Deem and Ramdas Pophale) SiO2 
 PCOD9548178
Probable space group: P 41 2 2
;
_chemical_formula_sum "Si O2"
_cell_formula_units_Z 40
_cell_length_a 8.329683
_cell_length_b 8.329683
_cell_length_c 26.642734
_cell_angle_alpha 90.000000
_cell_angle_beta 90.000000
_cell_angle_gamma 90.000000
_cell_volume 1848.569302
_symmetry_space_group_name_H-M "P 41 2 2"
_symmetry_group_IT_number 91
_symmetry_cell_setting 'tetragonal'
loop_
_space_group_symop_operation_xyz
x,y,z
-y,x,1/4+z
-x,-y,1/2+z
y,-x,3/4+z
x,-y,1/2-z
-x,y,-z
y,x,3/4-z
-y,-x,1/4-z
loop_
_atom_site_type_symbol
_atom_site_label
_atom_site_fract_x
_atom_site_fract_y
_atom_site_fract_z
Si Si1 0.972454 0.427268 0.941390
Si Si2 0.115526 0.661068 0.216692
Si Si3 0.047178 0.928086 0.441404
Si Si4 0.476059 0.707786 0.879764
Si Si5 0.241883 0.152308 0.188008
O O1 0.005120 0.246529 0.920634
O O2 0.793668 0.468079 0.923595
O O3 0.069923 0.587411 0.928156
O O4 0.000000 0.414569 0.000000
O O5 0.078260 0.500000 0.250000
O O6 0.216743 0.606040 0.168407
O O7 0.209361 0.783943 0.254605
O O8 0.965473 0.762157 0.194610
O O9 0.000000 0.920998 0.500000
O O10 0.956875 0.089261 0.422718
O O11 0.522980 0.522980 0.875000
O O12 0.311477 0.748481 0.905945
#
# Coordination Sequence:
#
# PCOD9548178 Si02
#       5
#     8   8   8   8   8
#     4  11  23  40  64  93 125 169 214 266 330 394
#     4   9  19  39  68  91 124 164 216 264 327 395
#     4   9  19  38  64  92 122 162 212 256 324 395
#     4  11  23  38  59  90 123 168 216 267 327 391
#     4  10  21  41  63  91 126 169 209 272 326 389
#
# _framework density 21.638356000000002
#
# number of rings (size 3 to 8) (size 9 to 14) (size 15 to 20)
#    0.000    2.000    0.000    4.200    2.800    0.800 
#    3.600    4.000    0.000    4.800    0.000    0.000 
#    0.000    0.000    0.000    0.000    0.000    0.000 
#
# Total GULP energy -222876.226107 kJ/mol
# GULP energy per Si atom -5571.905653 kJ/mol
# Density = 2.158911 g / cm^3
# Si number density = 21.638356 Si / 1000 Ang^3
#
#
#
# Elastic Constant Matrix: (Units=GPa)
#
#
# Indices 1 2 3 4 5 6 
#
# 1 132.6369 70.9283 21.3777 0.0000 0.0000 0.0000
# 2 70.9283 132.6369 21.3777 0.0000 0.0000 0.0000
# 3 21.3777 21.3777 65.6186 0.0000 0.0000 0.0000
# 4 0.0000 0.0000 0.0000 10.5600 0.0000 0.0000
# 5 0.0000 0.0000 0.0000 0.0000 10.5600 0.0000
# 6 0.0000 0.0000 0.0000 0.0000 0.0000 17.5426
#
#
#
# Elastic Compliance Matrix: (Units=1/GPa)
#
#
# Indices 1 2 3 4 5 6 
#
# 1 0.010739 -0.005466 -0.001718 0.000000 0.000000 0.000000
# 2 -0.005466 0.010739 -0.001718 0.000000 0.000000 0.000000
# 3 -0.001718 -0.001718 0.016359 0.000000 0.000000 0.000000
# 4 0.000000 0.000000 0.000000 0.094697 0.000000 0.000000
# 5 0.000000 0.000000 0.000000 0.000000 0.094697 0.000000
# 6 0.000000 0.000000 0.000000 0.000000 0.000000 0.057004
#
#
# Mechanical properties :
#
#
# Convention : Reuss Voigt Hill
#
# Bulk Modulus (GPa) = 49.91608 62.02888 55.97248
# Shear Modulus (GPa) = 16.19605 22.21310 19.20458
#
# Velocity S-wave (km/s) = 2.73882 3.20748 2.98237
# Velocity P-wave (km/s) = 5.75499 6.51503 6.14677
#
# Compressibility (1/GPa) = 0.02003363
#
# Stress axis : x y z
#
# Youngs Moduli (GPa) = 93.11664 93.11664 61.12859
#
# Poissons Ratio (x) = 0.50897 0.10502
# Poissons Ratio (y) = 0.50897 0.10502
# Poissons Ratio (z) = 0.15997 0.15997
#
# Static dielectric constant tensor:
#      x y z
#    x 1.827860 0.000000 0.000000 
#    y 0.000000 1.827860 0.000000 
#    z 0.000000 0.000000 1.864570 
# 
# From -- ./inp_files/13447.got.cif
#   From: 2010.05.17/outbox.cif.g08.bks.cpg/sg91_7_cif.got.tgz:13447.got - 2010.06.03 19:20:03.
