data_PCOD9548701
_publ_section_title
;
Structure prediction by ZEFSAII (Michael W. Deem and Ramdas Pophale) SiO2 
 PCOD9548701
Probable space group: P 41 2 2
;
_chemical_formula_sum "Si O2"
_cell_formula_units_Z 36
_cell_length_a 11.836639
_cell_length_b 11.836639
_cell_length_c 12.032555
_cell_angle_alpha 90.000000
_cell_angle_beta 90.000000
_cell_angle_gamma 90.000000
_cell_volume 1685.833425
_symmetry_space_group_name_H-M "P 41 2 2"
_symmetry_group_IT_number 91
_symmetry_cell_setting 'tetragonal'
loop_
_space_group_symop_operation_xyz
x,y,z
-y,x,1/4+z
-x,-y,1/2+z
y,-x,3/4+z
x,-y,1/2-z
-x,y,-z
y,x,3/4-z
-y,-x,1/4-z
loop_
_atom_site_type_symbol
_atom_site_label
_atom_site_fract_x
_atom_site_fract_y
_atom_site_fract_z
Si Si1 0.583843 0.136575 0.233636
Si Si2 0.231199 0.592267 0.152897
Si Si3 0.880982 0.500000 0.250000
Si Si4 0.134712 0.168891 0.003065
Si Si5 0.706044 0.008247 0.616887
O O1 0.478814 0.187700 0.298006
O O2 0.704141 0.169740 0.288618
O O3 0.581315 0.000000 0.250000
O O4 0.568977 0.171868 0.103944
O O5 0.236537 0.500000 0.250000
O O6 0.348102 0.651899 0.125000
O O7 0.137333 0.690334 0.172386
O O8 0.952233 0.406575 0.315921
O O9 0.192100 0.066073 0.067791
O O10 0.166839 0.166839 0.875000
O O11 0.000000 0.158587 0.000000
O O12 0.709735 0.000000 0.750000
#
# Coordination Sequence:
#
# PCOD9548701 Si02
#       5
#     8   8   4   8   8
#     4  11  22  44  73 101 142 192 245 297 361 446
#     4  12  27  46  75 103 141 187 246 312 374 440
#     4  12  18  42  74 106 136 190 258 286 352 446
#     4  11  27  44  70 108 154 192 235 299 372 448
#     4  12  24  44  74 112 145 196 244 306 373 461
#
# _framework density 21.354422
#
# number of rings (size 3 to 8) (size 9 to 14) (size 15 to 20)
#    0.000    0.444    7.778    0.000    6.222    1.778 
#    0.000    2.222    2.444    0.000    0.000    0.000 
#    0.000    0.000    0.000    0.000    0.000    0.000 
#
# Total GULP energy -201017.910127 kJ/mol
# GULP energy per Si atom -5583.830837 kJ/mol
# Density = 2.130582 g / cm^3
# Si number density = 21.354422 Si / 1000 Ang^3
#
#
#
# Elastic Constant Matrix: (Units=GPa)
#
#
# Indices 1 2 3 4 5 6 
#
# 1 99.1070 71.6191 37.3254 0.0000 0.0000 0.0000
# 2 71.6191 99.1118 37.3258 0.0000 0.0000 0.0000
# 3 37.3254 37.3258 138.8052 0.0000 0.0000 0.0000
# 4 0.0000 0.0000 0.0000 -215.7658 0.0000 0.0000
# 5 0.0000 0.0000 0.0000 0.0000 -215.6774 0.0000
# 6 0.0000 0.0000 0.0000 0.0000 0.0000 115.4898
#
#
#
# Elastic Compliance Matrix: (Units=1/GPa)
#
#
# Indices 1 2 3 4 5 6 
#
# 1 0.021508 -0.014869 -0.001785 0.000000 0.000000 0.000000
# 2 -0.014869 0.021507 -0.001785 0.000000 0.000000 0.000000
# 3 -0.001785 -0.001785 0.008164 0.000000 0.000000 0.000000
# 4 0.000000 0.000000 0.000000 -0.004635 0.000000 0.000000
# 5 0.000000 0.000000 0.000000 0.000000 -0.004637 0.000000
# 6 0.000000 0.000000 0.000000 0.000000 0.000000 0.008659
#
#
# Mechanical properties :
#
#
# Convention : Reuss Voigt Hill
#
# Bulk Modulus (GPa) = 69.92995 69.95164 69.94079
# Shear Modulus (GPa) = 54.22344 -50.47379 1.87483
#
# Velocity S-wave (km/s) = 5.04453 -4.86698 0.93801
# Velocity P-wave (km/s) = 8.16995 1.11588 5.83066
#
# Compressibility (1/GPa) = 0.01430002
#
# Stress axis : x y z
#
# Youngs Moduli (GPa) = 46.49518 46.49756 122.48450
#
# Poissons Ratio (x) = 0.69139 0.21864
# Poissons Ratio (y) = 0.69135 0.21861
# Poissons Ratio (z) = 0.08299 0.08299
#
# Static dielectric constant tensor:
#      x y z
#    x 2.837650 0.000000 0.000000 
#    y 0.000000 2.837360 0.000000 
#    z 0.000000 0.000000 1.753590 
# 
# From -- ./inp_files/3512.got.cif
#   From: 2010.05.17/outbox.cif.g08.bks.cpg/sg91_2_cif.got.tgz:3512.got - 2010.06.03 19:20:03.
