data_PCOD9548351
_publ_section_title
;
Structure prediction by ZEFSAII (Michael W. Deem and Ramdas Pophale) SiO2 
 PCOD9548351
Probable space group: P 41 2 2
;
_chemical_formula_sum "Si O2"
_cell_formula_units_Z 36
_cell_length_a 8.536698
_cell_length_b 8.536698
_cell_length_c 23.478961
_cell_angle_alpha 90.000000
_cell_angle_beta 90.000000
_cell_angle_gamma 90.000000
_cell_volume 1711.034278
_symmetry_space_group_name_H-M "P 41 2 2"
_symmetry_group_IT_number 91
_symmetry_cell_setting 'tetragonal'
loop_
_space_group_symop_operation_xyz
x,y,z
-y,x,1/4+z
-x,-y,1/2+z
y,-x,3/4+z
x,-y,1/2-z
-x,y,-z
y,x,3/4-z
-y,-x,1/4-z
loop_
_atom_site_type_symbol
_atom_site_label
_atom_site_fract_x
_atom_site_fract_y
_atom_site_fract_z
Si Si1 0.142393 0.729572 0.066294
Si Si2 0.681314 0.209768 0.017545
Si Si3 0.199323 0.878916 0.952264
Si Si4 0.587900 0.587900 0.375000
Si Si5 0.616955 0.223892 0.343687
O O1 0.214912 0.785089 0.125000
O O2 0.144694 0.543125 0.072442
O O3 0.971923 0.809530 0.061858
O O4 0.239726 0.785795 0.010800
O O5 0.667104 0.335766 0.068886
O O6 0.784135 0.061210 0.034692
O O7 0.500000 0.167214 0.000000
O O8 0.762864 0.277223 0.961782
O O9 0.308922 0.859369 0.897781
O O10 0.604460 0.402733 0.365803
#
# Coordination Sequence:
#
# PCOD9548351 Si02
#       5
#     8   8   8   4   8
#     4  11  25  45  68 103 140 190 240 292 367 427
#     4  10  24  43  71 104 144 184 239 294 359 421
#     4  11  26  43  68 100 144 183 239 291 366 430
#     4  10  22  42  68 106 134 184 240 294 350 432
#     4  11  23  44  72  99 141 187 241 299 353 433
#
# _framework density 21.039902999999999
#
# number of rings (size 3 to 8) (size 9 to 14) (size 15 to 20)
#    0.000    1.333    1.111    2.667   10.889    0.000 
#    0.000    0.000    0.000    0.000    0.000    0.000 
#    0.000    0.000    0.000    0.000    0.000    0.000 
#
# Total GULP energy -201078.381125 kJ/mol
# GULP energy per Si atom -5585.510587 kJ/mol
# Density = 2.099202 g / cm^3
# Si number density = 21.039903 Si / 1000 Ang^3
#
#
#
# Elastic Constant Matrix: (Units=GPa)
#
#
# Indices 1 2 3 4 5 6 
#
# 1 98.9525 58.6995 45.3836 0.0000 0.0000 0.0000
# 2 58.6995 98.9528 45.3836 0.0000 0.0000 0.0000
# 3 45.3836 45.3836 119.7868 0.0000 0.0000 0.0000
# 4 0.0000 0.0000 0.0000 24.8081 0.0000 0.0000
# 5 0.0000 0.0000 0.0000 0.0000 24.8095 0.0000
# 6 0.0000 0.0000 0.0000 0.0000 0.0000 32.8606
#
#
#
# Elastic Compliance Matrix: (Units=1/GPa)
#
#
# Indices 1 2 3 4 5 6 
#
# 1 0.016478 -0.008365 -0.003074 0.000000 0.000000 0.000000
# 2 -0.008365 0.016478 -0.003074 0.000000 0.000000 0.000000
# 3 -0.003074 -0.003074 0.010677 0.000000 0.000000 0.000000
# 4 0.000000 0.000000 0.000000 0.040309 0.000000 0.000000
# 5 0.000000 0.000000 0.000000 0.000000 0.040307 0.000000
# 6 0.000000 0.000000 0.000000 0.000000 0.000000 0.030432
#
#
# Mechanical properties :
#
#
# Convention : Reuss Voigt Hill
#
# Bulk Modulus (GPa) = 68.45568 68.51391 68.48479
# Shear Modulus (GPa) = 26.51468 27.71068 27.11268
#
# Velocity S-wave (km/s) = 3.55379 3.63306 3.59365
# Velocity P-wave (km/s) = 7.03179 7.08755 7.05972
#
# Compressibility (1/GPa) = 0.01460799
#
# Stress axis : x y z
#
# Youngs Moduli (GPa) = 60.68787 60.68803 93.65749
#
# Poissons Ratio (x) = 0.50766 0.28787
# Poissons Ratio (y) = 0.50765 0.28787
# Poissons Ratio (z) = 0.18653 0.18653
#
# Static dielectric constant tensor:
#      x y z
#    x 1.772450 0.000000 0.000000 
#    y 0.000000 1.772450 0.000000 
#    z 0.000000 0.000000 1.761680 
# 
# From -- ./inp_files/6139.got.cif
#   From: 2010.05.17/outbox.cif.g08.bks.cpg/sg91_4_cif.got.tgz:6139.got - 2010.06.03 19:20:03.
