data_PCOD9548778
_publ_section_title
;
Structure prediction by ZEFSAII (Michael W. Deem and Ramdas Pophale) SiO2 
 PCOD9548778
Probable space group: P 41 2 2
;
_chemical_formula_sum "Si O2"
_cell_formula_units_Z 32
_cell_length_a 13.532040
_cell_length_b 13.532040
_cell_length_c 7.179368
_cell_angle_alpha 90.000000
_cell_angle_beta 90.000000
_cell_angle_gamma 90.000000
_cell_volume 1314.657916
_symmetry_space_group_name_H-M "P 41 2 2"
_symmetry_group_IT_number 91
_symmetry_cell_setting 'tetragonal'
loop_
_space_group_symop_operation_xyz
x,y,z
-y,x,1/4+z
-x,-y,1/2+z
y,-x,3/4+z
x,-y,1/2-z
-x,y,-z
y,x,3/4-z
-y,-x,1/4-z
loop_
_atom_site_type_symbol
_atom_site_label
_atom_site_fract_x
_atom_site_fract_y
_atom_site_fract_z
Si Si1 0.612349 0.203184 0.291918
Si Si2 0.904656 0.904656 0.375000
Si Si3 0.500000 0.967255 0.000000
Si Si4 0.500000 0.635637 0.000000
Si Si5 0.228694 0.228694 0.375000
Si Si6 0.105474 0.690374 0.806935
O O1 0.545815 0.107262 0.344610
O O2 0.547004 0.296104 0.341147
O O3 0.699029 0.217324 0.445085
O O4 0.866013 0.269686 0.510951
O O5 0.647869 0.808624 0.419217
O O6 0.000000 0.913693 0.500000
O O7 0.597484 0.030728 0.945839
O O8 0.573602 0.573602 0.875000
O O9 0.918844 0.205538 0.207327
#
# Coordination Sequence:
#
# PCOD9548778 Si02
#       6
#     8   4   4   4   4   8
#     4  11  25  51  75 122 161 211 279 357 429 502
#     4  12  28  57  80 117 172 230 278 348 430 523
#     4  11  28  48  89 124 166 218 293 370 431 498
#     4  11  26  46  75 112 158 216 271 330 421 512
#     4  12  26  47  78 121 160 224 262 350 444 505
#     4  12  28  52  81 120 168 214 282 356 422 517
#
# _framework density 24.340931000000001
#
# number of rings (size 3 to 8) (size 9 to 14) (size 15 to 20)
#    0.000    0.500    3.750    2.250   10.500    3.000 
#    0.000    0.000    0.000    0.000    0.000    0.000 
#    0.000    0.000    0.000    0.000    0.000    0.000 
#
# Total GULP energy -178430.883826 kJ/mol
# GULP energy per Si atom -5575.965120 kJ/mol
# Density = 2.428553 g / cm^3
# Si number density = 24.340931 Si / 1000 Ang^3
#
#
#
# Elastic Constant Matrix: (Units=GPa)
#
#
# Indices 1 2 3 4 5 6 
#
# 1 160.8467 100.1261 60.3545 0.0000 0.0000 0.0000
# 2 100.1261 160.8467 60.3545 0.0000 0.0000 0.0000
# 3 60.3545 60.3545 130.5849 0.0000 0.0000 0.0000
# 4 0.0000 0.0000 0.0000 35.6656 0.0000 0.0000
# 5 0.0000 0.0000 0.0000 0.0000 35.6656 0.0000
# 6 0.0000 0.0000 0.0000 0.0000 0.0000 41.2427
#
#
#
# Elastic Compliance Matrix: (Units=1/GPa)
#
#
# Indices 1 2 3 4 5 6 
#
# 1 0.010671 -0.005798 -0.002253 0.000000 0.000000 0.000000
# 2 -0.005798 0.010671 -0.002253 0.000000 0.000000 0.000000
# 3 -0.002253 -0.002253 0.009740 0.000000 0.000000 0.000000
# 4 0.000000 0.000000 0.000000 0.028038 0.000000 0.000000
# 5 0.000000 0.000000 0.000000 0.000000 0.028038 0.000000
# 6 0.000000 0.000000 0.000000 0.000000 0.000000 0.024247
#
#
# Mechanical properties :
#
#
# Convention : Reuss Voigt Hill
#
# Bulk Modulus (GPa) = 95.44505 99.32760 97.38632
# Shear Modulus (GPa) = 36.89937 37.94431 37.42184
#
# Velocity S-wave (km/s) = 3.89773 3.95253 3.92523
# Velocity P-wave (km/s) = 7.71708 7.85655 7.78713
#
# Compressibility (1/GPa) = 0.01047723
#
# Stress axis : x y z
#
# Youngs Moduli (GPa) = 93.70939 93.70939 102.66889
#
# Poissons Ratio (x) = 0.54329 0.23127
# Poissons Ratio (y) = 0.54329 0.23127
# Poissons Ratio (z) = 0.21109 0.21109
#
# Static dielectric constant tensor:
#      x y z
#    x 1.979890 0.000000 0.000000 
#    y 0.000000 1.979890 0.000000 
#    z 0.000000 0.000000 1.874870 
# 
# From -- ./inp_files/3472.got.cif
#   From: 2010.05.17/outbox.cif.g08.bks.cpg/sg91_2_cif.got.tgz:3472.got - 2010.06.03 19:20:03.
