data_PCOD9548232
_publ_section_title
;
Structure prediction by ZEFSAII (Michael W. Deem and Ramdas Pophale) SiO2 
 PCOD9548232
Probable space group: P 41 2 2
;
_chemical_formula_sum "Si O2"
_cell_formula_units_Z 20
_cell_length_a 7.226279
_cell_length_b 7.226279
_cell_length_c 13.148008
_cell_angle_alpha 90.000000
_cell_angle_beta 90.000000
_cell_angle_gamma 90.000000
_cell_volume 686.577252
_symmetry_space_group_name_H-M "P 41 2 2"
_symmetry_group_IT_number 91
_symmetry_cell_setting 'tetragonal'
loop_
_space_group_symop_operation_xyz
x,y,z
-y,x,1/4+z
-x,-y,1/2+z
y,-x,3/4+z
x,-y,1/2-z
-x,y,-z
y,x,3/4-z
-y,-x,1/4-z
loop_
_atom_site_type_symbol
_atom_site_label
_atom_site_fract_x
_atom_site_fract_y
_atom_site_fract_z
Si Si1 0.538847 0.004248 0.634643
Si Si2 0.329093 0.329093 0.875000
Si Si3 0.027479 0.972522 0.125000
Si Si4 0.500000 0.643892 0.000000
O O1 0.380601 0.872674 0.583411
O O2 0.475081 0.000000 0.750000
O O3 0.757630 0.962254 0.633705
O O4 0.532938 0.208838 0.588668
O O5 0.498436 0.357850 0.797491
O O6 0.968940 0.000000 0.250000
#
# Coordination Sequence:
#
# PCOD9548232 Si02
#       4
#     8   4   4   4
#     4  11  25  48  80 118 170 232 292 365 459 552
#     4  12  25  48  81 118 164 226 298 370 450 544
#     4  10  21  46  79 120 172 228 296 370 446 542
#     4  12  24  46  78 114 162 220 292 364 436 536
#
# _framework density 29.130009000000001
#
# number of rings (size 3 to 8) (size 9 to 14) (size 15 to 20)
#    0.000    0.800    0.000    9.600    0.000    0.000 
#    0.000   30.000    0.000    9.600    0.000    0.000 
#    0.000    0.000    0.000    0.000    0.000    0.000 
#
# Total GULP energy -111365.919258 kJ/mol
# GULP energy per Si atom -5568.295963 kJ/mol
# Density = 2.906371 g / cm^3
# Si number density = 29.130009 Si / 1000 Ang^3
#
#
#
# Elastic Constant Matrix: (Units=GPa)
#
#
# Indices 1 2 3 4 5 6 
#
# 1 176.3962 82.4543 48.4318 0.0000 0.0000 0.0000
# 2 82.4543 176.3954 48.4317 0.0000 0.0000 0.0000
# 3 48.4318 48.4317 228.8129 0.0000 0.0000 0.0000
# 4 0.0000 0.0000 0.0000 39.9668 0.0000 0.0000
# 5 0.0000 0.0000 0.0000 0.0000 39.9671 0.0000
# 6 0.0000 0.0000 0.0000 0.0000 0.0000 121.0835
#
#
#
# Elastic Compliance Matrix: (Units=1/GPa)
#
#
# Indices 1 2 3 4 5 6 
#
# 1 0.007420 -0.003225 -0.000888 0.000000 0.000000 0.000000
# 2 -0.003225 0.007420 -0.000888 0.000000 0.000000 0.000000
# 3 -0.000888 -0.000888 0.004746 0.000000 0.000000 0.000000
# 4 0.000000 0.000000 0.000000 0.025021 0.000000 0.000000
# 5 0.000000 0.000000 0.000000 0.000000 0.025021 0.000000
# 6 0.000000 0.000000 0.000000 0.000000 0.000000 0.008259
#
#
# Mechanical properties :
#
#
# Convention : Reuss Voigt Hill
#
# Bulk Modulus (GPa) = 104.32728 104.47112 104.39920
# Shear Modulus (GPa) = 54.89464 67.02259 60.95862
#
# Velocity S-wave (km/s) = 4.34576 4.80188 4.57950
# Velocity P-wave (km/s) = 7.81492 8.16613 7.99245
#
# Compressibility (1/GPa) = 0.00958522
#
# Stress axis : x y z
#
# Youngs Moduli (GPa) = 134.76680 134.76621 210.68942
#
# Poissons Ratio (x) = 0.43458 0.18710
# Poissons Ratio (y) = 0.43458 0.18710
# Poissons Ratio (z) = 0.11968 0.11968
#
# Static dielectric constant tensor:
#      x y z
#    x 2.523940 0.000000 0.000000 
#    y 0.000000 2.523950 0.000000 
#    z 0.000000 0.000000 2.490570 
# 
# From -- ./inp_files/16108.got.cif
#   From: 2010.05.17/outbox.cif.g08.bks.cpg/sg91_9_cif.got.tgz:16108.got - 2010.06.03 19:20:03.
