data_PCOD9548888
_publ_section_title
;
Structure prediction by ZEFSAII (Michael W. Deem and Ramdas Pophale) SiO2 
 PCOD9548888
Probable space group: P 41 21 2
;
_chemical_formula_sum "Si O2"
_cell_formula_units_Z 32
_cell_length_a 12.243758
_cell_length_b 12.243758
_cell_length_c 7.761713
_cell_angle_alpha 90.000000
_cell_angle_beta 90.000000
_cell_angle_gamma 90.000000
_cell_volume 1163.555368
_symmetry_space_group_name_H-M "P 41 21 2"
_symmetry_group_IT_number 92
_symmetry_cell_setting 'tetragonal'
loop_
_space_group_symop_operation_xyz
x,y,z
1/2-y,1/2+x,1/4+z
-x,-y,1/2+z
1/2+y,1/2-x,3/4+z
1/2+x,1/2-y,3/4-z
1/2-x,1/2+y,1/4-z
y,x,-z
-y,-x,1/2-z
loop_
_atom_site_type_symbol
_atom_site_label
_atom_site_fract_x
_atom_site_fract_y
_atom_site_fract_z
Si Si1 0.213126 0.137813 0.306569
Si Si2 0.289045 0.948190 0.491958
Si Si3 0.018869 0.842340 0.681302
Si Si4 0.946018 0.384527 0.037505
O O1 0.189695 0.189695 0.500000
O O2 0.328547 0.164768 0.220868
O O3 0.111617 0.171608 0.190576
O O4 0.225389 0.009471 0.343493
O O5 0.201292 0.927820 0.641347
O O6 0.370613 0.041193 0.578260
O O7 0.032019 0.967982 0.750000
O O8 0.061204 0.746013 0.554348
O O9 0.065741 0.418883 0.103730
#
# Coordination Sequence:
#
# PCOD9548888 Si02
#       4
#     8   8   8   8
#     4  10  20  35  59  91 116 160 206 269 314 367
#     4  10  18  33  62  85 116 152 212 255 305 370
#     4  10  21  34  59  88 122 158 211 255 310 376
#     4  10  20  34  61  95 118 160 212 266 304 364
#
# _framework density 27.501916000000001
#
# number of rings (size 3 to 8) (size 9 to 14) (size 15 to 20)
#    0.000    2.000    5.000    0.750    7.000    0.000 
#    0.000    2.500    5.500    0.000    0.000    0.000 
#    0.000    0.000    0.000    0.000    0.000    0.000 
#
# Total GULP energy -178192.556884 kJ/mol
# GULP energy per Si atom -5568.517403 kJ/mol
# Density = 2.743932 g / cm^3
# Si number density = 27.501916 Si / 1000 Ang^3
#
#
#
# Elastic Constant Matrix: (Units=GPa)
#
#
# Indices 1 2 3 4 5 6 
#
# 1 -45.5013 -140.4873 -133.2803 0.0000 0.0000 0.0000
# 2 -140.4873 -45.5133 -133.2854 0.0000 0.0000 0.0000
# 3 -133.2803 -133.2854 -74.2290 0.0000 0.0000 0.0000
# 4 0.0000 0.0000 0.0000 21.7844 0.0000 0.0000
# 5 0.0000 0.0000 0.0000 0.0000 21.7854 0.0000
# 6 0.0000 0.0000 0.0000 0.0000 0.0000 -63.3704
#
#
#
# Elastic Compliance Matrix: (Units=1/GPa)
#
#
# Indices 1 2 3 4 5 6 
#
# 1 0.006973 -0.003556 -0.006136 0.000000 0.000000 0.000000
# 2 -0.003556 0.006973 -0.006136 0.000000 0.000000 0.000000
# 3 -0.006136 -0.006136 0.008562 0.000000 0.000000 0.000000
# 4 0.000000 0.000000 0.000000 0.045904 0.000000 0.000000
# 5 0.000000 0.000000 0.000000 0.000000 0.045902 0.000000
# 6 0.000000 0.000000 0.000000 0.000000 0.000000 -0.015780
#
#
# Mechanical properties :
#
#
# Convention : Reuss Voigt Hill
#
# Bulk Modulus (GPa) = -109.33449 -108.81664 -109.07557
# Shear Modulus (GPa) = 39.32676 12.16053 25.74364
#
# Velocity S-wave (km/s) = 3.78559 2.10507 3.06284
# Velocity P-wave (km/s) = 4.55345 5.80900 5.21912
#
# Compressibility (1/GPa) = -0.00914624
#
# Stress axis : x y z
#
# Youngs Moduli (GPa) = 143.41111 143.41596 116.79070
#
# Poissons Ratio (x) = 0.50994 0.71658
# Poissons Ratio (y) = 0.50993 0.71661
# Poissons Ratio (z) = 0.87991 0.87998
#
# Static dielectric constant tensor:
#      x y z
#    x 1.288070 0.000000 0.000000 
#    y 0.000000 1.288110 0.000000 
#    z 0.000000 0.000000 2.232410 
# 
# From -- ./inp_files/1904.got.cif
#   From: 2010.05.17/outbox.cif.g08.bks.cpg/sg92_1_cif.got.tgz:1904.got - 2010.06.03 19:35:17.
