data_PCOD9548342
_publ_section_title
;
Structure prediction by ZEFSAII (Michael W. Deem and Ramdas Pophale) SiO2 
 PCOD9548342
Probable space group: P 41 2 2
;
_chemical_formula_sum "Si O2"
_cell_formula_units_Z 56
_cell_length_a 12.066770
_cell_length_b 12.066770
_cell_length_c 18.485717
_cell_angle_alpha 90.000000
_cell_angle_beta 90.000000
_cell_angle_gamma 90.000000
_cell_volume 2691.648653
_symmetry_space_group_name_H-M "P 41 2 2"
_symmetry_group_IT_number 91
_symmetry_cell_setting 'tetragonal'
loop_
_space_group_symop_operation_xyz
x,y,z
-y,x,1/4+z
-x,-y,1/2+z
y,-x,3/4+z
x,-y,1/2-z
-x,y,-z
y,x,3/4-z
-y,-x,1/4-z
loop_
_atom_site_type_symbol
_atom_site_label
_atom_site_fract_x
_atom_site_fract_y
_atom_site_fract_z
Si Si1 0.069260 0.529782 0.069140
Si Si2 0.982416 0.104319 0.703594
Si Si3 0.304438 0.840255 0.469136
Si Si4 0.255560 0.591366 0.498317
Si Si5 0.748794 0.816587 0.794609
Si Si6 0.602594 0.389775 0.712785
Si Si7 0.469409 0.132398 0.896423
O O1 0.086427 0.660016 0.057888
O O2 0.997949 0.491391 0.135479
O O3 0.185920 0.471815 0.063472
O O4 0.000000 0.489733 0.000000
O O5 0.945315 0.054686 0.625000
O O6 0.865197 0.145993 0.738821
O O7 0.068111 0.208803 0.702838
O O8 0.026391 0.000000 0.750000
O O9 0.254071 0.719380 0.480247
O O10 0.404372 0.828998 0.411452
O O11 0.377493 0.859934 0.541663
O O12 0.368597 0.521820 0.493478
O O13 0.199173 0.571647 0.576268
O O14 0.778570 0.778570 0.875000
O O15 0.680417 0.713660 0.762419
O O16 0.646776 0.500000 0.750000
O O17 0.602282 0.397719 0.625000
#
# Coordination Sequence:
#
# PCOD9548342 Si02
#       7
#     8   8   8   8   8   8   8
#     4   9  18  37  62  84 114 167 217 252 321 398
#     4  11  25  44  67  97 134 175 222 287 342 405
#     4  11  25  41  63 101 129 170 229 270 342 408
#     4  10  23  40  65  90 131 173 215 268 337 411
#     4   9  18  38  59  90 125 161 216 270 331 396
#     4  10  23  39  62  97 131 171 220 278 337 406
#     4  10  22  42  65  90 129 178 214 278 327 412
#
# _framework density 20.805091999999998
#
# number of rings (size 3 to 8) (size 9 to 14) (size 15 to 20)
#    0.000    2.000    0.000    2.571    4.000    6.286 
#   10.286    0.000    0.000    0.000    0.000    0.000 
#    0.000    0.000    0.000    0.000    0.000    0.000 
#
# Total GULP energy -311897.104485 kJ/mol
# GULP energy per Si atom -5569.591152 kJ/mol
# Density = 2.075774 g / cm^3
# Si number density = 20.805092 Si / 1000 Ang^3
#
#
#
# Elastic Constant Matrix: (Units=GPa)
#
#
# Indices 1 2 3 4 5 6 
#
# 1 121.1998 30.7109 20.5057 0.0000 0.0000 0.0000
# 2 30.7109 121.2004 20.5058 0.0000 0.0000 0.0000
# 3 20.5057 20.5058 44.3102 0.0000 0.0000 0.0000
# 4 0.0000 0.0000 0.0000 21.7882 0.0000 0.0000
# 5 0.0000 0.0000 0.0000 0.0000 21.7880 0.0000
# 6 0.0000 0.0000 0.0000 0.0000 0.0000 10.5357
#
#
#
# Elastic Compliance Matrix: (Units=1/GPa)
#
#
# Indices 1 2 3 4 5 6 
#
# 1 0.009287 -0.001764 -0.003481 0.000000 0.000000 0.000000
# 2 -0.001764 0.009287 -0.003481 0.000000 0.000000 0.000000
# 3 -0.003481 -0.003481 0.025790 0.000000 0.000000 0.000000
# 4 0.000000 0.000000 0.000000 0.045896 0.000000 0.000000
# 5 0.000000 0.000000 0.000000 0.000000 0.045897 0.000000
# 6 0.000000 0.000000 0.000000 0.000000 0.000000 0.094915
#
#
# Mechanical properties :
#
#
# Convention : Reuss Voigt Hill
#
# Bulk Modulus (GPa) = 37.16039 47.79503 42.47771
# Shear Modulus (GPa) = 19.41775 25.15490 22.28633
#
# Velocity S-wave (km/s) = 3.05834 3.48095 3.27646
# Velocity P-wave (km/s) = 5.51101 6.25928 5.89703
#
# Compressibility (1/GPa) = 0.02691038
#
# Stress axis : x y z
#
# Youngs Moduli (GPa) = 107.67891 107.67934 38.77421
#
# Poissons Ratio (x) = 0.18997 0.13499
# Poissons Ratio (y) = 0.18997 0.13499
# Poissons Ratio (z) = 0.37486 0.37487
#
# Static dielectric constant tensor:
#      x y z
#    x 1.817260 0.000000 0.000000 
#    y 0.000000 1.817260 0.000000 
#    z 0.000000 0.000000 1.779850 
# 
# From -- ./inp_files/12467.got.cif
#   From: 2010.05.17/outbox.cif.g08.bks.cpg/sg91_7_cif.got.tgz:12467.got - 2010.06.03 19:20:03.
