data_PCOD9548787
_publ_section_title
;
Structure prediction by ZEFSAII (Michael W. Deem and Ramdas Pophale) SiO2 
 PCOD9548787
Probable space group: P 41 2 2
;
_chemical_formula_sum "Si O2"
_cell_formula_units_Z 36
_cell_length_a 15.642848
_cell_length_b 15.642848
_cell_length_c 7.964633
_cell_angle_alpha 90.000000
_cell_angle_beta 90.000000
_cell_angle_gamma 90.000000
_cell_volume 1948.935290
_symmetry_space_group_name_H-M "P 41 2 2"
_symmetry_group_IT_number 91
_symmetry_cell_setting 'tetragonal'
loop_
_space_group_symop_operation_xyz
x,y,z
-y,x,1/4+z
-x,-y,1/2+z
y,-x,3/4+z
x,-y,1/2-z
-x,y,-z
y,x,3/4-z
-y,-x,1/4-z
loop_
_atom_site_type_symbol
_atom_site_label
_atom_site_fract_x
_atom_site_fract_y
_atom_site_fract_z
Si Si1 0.055446 0.314206 0.173229
Si Si2 0.882707 0.364082 0.336131
Si Si3 0.165190 0.180060 0.673052
Si Si4 0.102732 0.469425 0.002433
Si Si5 0.889914 0.000000 0.750000
O O1 0.118859 0.233286 0.172033
O O2 0.981970 0.332254 0.310798
O O3 0.110848 0.401146 0.151517
O O4 0.000000 0.301787 0.000000
O O5 0.824361 0.281129 0.354461
O O6 0.865326 0.434797 0.477447
O O7 0.869018 0.415084 0.161146
O O8 0.071478 0.159953 0.603029
O O9 0.166411 0.166411 0.875000
O O10 0.000000 0.481845 0.000000
O O11 0.949077 0.949077 0.875000
#
# Coordination Sequence:
#
# PCOD9548787 Si02
#       5
#     8   8   8   8   4
#     4   9  17  30  49  68  92 131 163 209 260 292
#     4   9  17  29  48  70  93 122 166 208 251 305
#     4  12  21  36  52  68  98 134 174 215 255 298
#     4   8  15  28  48  70  88 120 159 208 257 307
#     4  12  28  36  48  64  90 140 184 220 238 284
#
# _framework density 18.471623999999998
#
# number of rings (size 3 to 8) (size 9 to 14) (size 15 to 20)
#    0.000    2.667    4.444    2.000    3.111    0.000 
#    0.000    0.000    0.000    0.000    0.000    0.000 
#    0.000    0.000    0.000   80.000    0.000    0.000 
#
# Total GULP energy -200485.608684 kJ/mol
# GULP energy per Si atom -5569.044686 kJ/mol
# Density = 1.842958 g / cm^3
# Si number density = 18.471624 Si / 1000 Ang^3
#
#
#
# Elastic Constant Matrix: (Units=GPa)
#
#
# Indices 1 2 3 4 5 6 
#
# 1 106.1333 36.9351 24.4369 0.0000 0.0000 0.0000
# 2 36.9351 106.1333 24.4369 0.0000 0.0000 0.0000
# 3 24.4369 24.4369 58.4426 0.0000 0.0000 0.0000
# 4 0.0000 0.0000 0.0000 10.9443 0.0000 0.0000
# 5 0.0000 0.0000 0.0000 0.0000 10.9443 0.0000
# 6 0.0000 0.0000 0.0000 0.0000 0.0000 19.2966
#
#
#
# Elastic Compliance Matrix: (Units=1/GPa)
#
#
# Indices 1 2 3 4 5 6 
#
# 1 0.011303 -0.003148 -0.003410 0.000000 0.000000 0.000000
# 2 -0.003148 0.011303 -0.003410 0.000000 0.000000 0.000000
# 3 -0.003410 -0.003410 0.019962 0.000000 0.000000 0.000000
# 4 0.000000 0.000000 0.000000 0.091371 0.000000 0.000000
# 5 0.000000 0.000000 0.000000 0.000000 0.091371 0.000000
# 6 0.000000 0.000000 0.000000 0.000000 0.000000 0.051823
#
#
# Mechanical properties :
#
#
# Convention : Reuss Voigt Hill
#
# Bulk Modulus (GPa) = 44.18437 49.14747 46.66592
# Shear Modulus (GPa) = 16.41427 20.56374 18.48901
#
# Velocity S-wave (km/s) = 2.98421 3.34018 3.16720
# Velocity P-wave (km/s) = 5.98716 6.44519 6.22039
#
# Compressibility (1/GPa) = 0.02263244
#
# Stress axis : x y z
#
# Youngs Moduli (GPa) = 88.47334 88.47334 50.09467
#
# Poissons Ratio (x) = 0.27855 0.17081
# Poissons Ratio (y) = 0.27855 0.17081
# Poissons Ratio (z) = 0.30166 0.30166
#
# Static dielectric constant tensor:
#      x y z
#    x 1.663050 0.000000 0.000000 
#    y 0.000000 1.663050 0.000000 
#    z 0.000000 0.000000 1.513440 
# 
# From -- ./inp_files/14918.got.cif
#   From: 2010.05.17/outbox.cif.g08.bks.cpg/sg91_8_cif.got.tgz:14918.got - 2010.06.03 19:20:03.
