data_PCOD9548112
_publ_section_title
;
Structure prediction by ZEFSAII (Michael W. Deem and Ramdas Pophale) SiO2 
 PCOD9548112
Probable space group: P 41 2 2
;
_chemical_formula_sum "Si O2"
_cell_formula_units_Z 28
_cell_length_a 10.085387
_cell_length_b 10.085387
_cell_length_c 10.836779
_cell_angle_alpha 90.000000
_cell_angle_beta 90.000000
_cell_angle_gamma 90.000000
_cell_volume 1102.263311
_symmetry_space_group_name_H-M "P 41 2 2"
_symmetry_group_IT_number 91
_symmetry_cell_setting 'tetragonal'
loop_
_space_group_symop_operation_xyz
x,y,z
-y,x,1/4+z
-x,-y,1/2+z
y,-x,3/4+z
x,-y,1/2-z
-x,y,-z
y,x,3/4-z
-y,-x,1/4-z
loop_
_atom_site_type_symbol
_atom_site_label
_atom_site_fract_x
_atom_site_fract_y
_atom_site_fract_z
Si Si1 0.427666 0.828770 0.324815
Si Si2 0.710301 0.802619 0.195584
Si Si3 0.000000 0.069436 0.000000
Si Si4 0.630254 0.116782 0.560871
O O1 0.579540 0.821045 0.279326
O O2 0.352677 0.726337 0.413400
O O3 0.346348 0.820243 0.194997
O O4 0.405794 0.968447 0.393323
O O5 0.500000 0.815689 0.000000
O O6 0.713475 0.882300 0.063836
O O7 0.013673 0.986328 0.125000
O O8 0.128820 0.162884 0.995243
#
# Coordination Sequence:
#
# PCOD9548112 Si02
#       4
#     8   8   4   8
#     4  10  21  37  66  99 135 184 238 298 366 444
#     4  11  22  41  69 102 141 186 237 298 370 449
#     4  12  28  48  74 110 148 190 250 316 368 430
#     4   9  18  36  62  91 127 178 232 282 349 427
#
# _framework density 25.402277999999999
#
# number of rings (size 3 to 8) (size 9 to 14) (size 15 to 20)
#    0.000    1.714    0.000    6.000    0.000    4.571 
#    0.000    0.000    0.000   49.714    0.000    0.000 
#    0.000    0.000    0.000    0.000    0.000    0.000 
#
# Total GULP energy -156141.167265 kJ/mol
# GULP energy per Si atom -5576.470259 kJ/mol
# Density = 2.534446 g / cm^3
# Si number density = 25.402278 Si / 1000 Ang^3
#
#
#
# Elastic Constant Matrix: (Units=GPa)
#
#
# Indices 1 2 3 4 5 6 
#
# 1 57.5779 49.6177 32.9964 0.0000 0.0000 0.0000
# 2 49.6177 57.5789 32.9976 0.0000 0.0000 0.0000
# 3 32.9964 32.9976 190.3246 0.0000 0.0000 0.0000
# 4 0.0000 0.0000 0.0000 40.1730 0.0000 0.0000
# 5 0.0000 0.0000 0.0000 0.0000 40.1729 0.0000
# 6 0.0000 0.0000 0.0000 0.0000 0.0000 21.4923
#
#
#
# Elastic Compliance Matrix: (Units=1/GPa)
#
#
# Indices 1 2 3 4 5 6 
#
# 1 0.068031 -0.057587 -0.001810 0.000000 0.000000 0.000000
# 2 -0.057587 0.068030 -0.001811 0.000000 0.000000 0.000000
# 3 -0.001810 -0.001811 0.005882 0.000000 0.000000 0.000000
# 4 0.000000 0.000000 0.000000 0.024892 0.000000 0.000000
# 5 0.000000 0.000000 0.000000 0.000000 0.024892 0.000000
# 6 0.000000 0.000000 0.000000 0.000000 0.000000 0.046528
#
#
# Mechanical properties :
#
#
# Convention : Reuss Voigt Hill
#
# Bulk Modulus (GPa) = 51.21279 59.63386 55.42333
# Shear Modulus (GPa) = 13.61730 33.02562 23.32146
#
# Velocity S-wave (km/s) = 2.31782 3.60961 3.03328
# Velocity P-wave (km/s) = 5.23140 6.39524 5.84237
#
# Compressibility (1/GPa) = 0.01952637
#
# Stress axis : x y z
#
# Youngs Moduli (GPa) = 14.69929 14.69945 170.01043
#
# Poissons Ratio (x) = 0.84649 0.30776
# Poissons Ratio (y) = 0.84648 0.30787
# Poissons Ratio (z) = 0.02661 0.02662
#
# Static dielectric constant tensor:
#      x y z
#    x 2.083990 0.000000 0.000000 
#    y 0.000000 2.083990 0.000000 
#    z 0.000000 0.000000 2.137920 
# 
# From -- ./inp_files/3281.got.cif
#   From: 2010.05.17/outbox.cif.g08.bks.cpg/sg91_2_cif.got.tgz:3281.got - 2010.06.03 19:20:03.
