data_PCOD9548945
_publ_section_title
;
Structure prediction by ZEFSAII (Michael W. Deem and Ramdas Pophale) SiO2 
 PCOD9548945
Probable space group: P 41 21 2
;
_chemical_formula_sum "Si O2"
_cell_formula_units_Z 48
_cell_length_a 11.941305
_cell_length_b 11.941305
_cell_length_c 15.234253
_cell_angle_alpha 90.000000
_cell_angle_beta 90.000000
_cell_angle_gamma 90.000000
_cell_volume 2172.324728
_symmetry_space_group_name_H-M "P 41 21 2"
_symmetry_group_IT_number 92
_symmetry_cell_setting 'tetragonal'
loop_
_space_group_symop_operation_xyz
x,y,z
1/2-y,1/2+x,1/4+z
-x,-y,1/2+z
1/2+y,1/2-x,3/4+z
1/2+x,1/2-y,3/4-z
1/2-x,1/2+y,1/4-z
y,x,-z
-y,-x,1/2-z
loop_
_atom_site_type_symbol
_atom_site_label
_atom_site_fract_x
_atom_site_fract_y
_atom_site_fract_z
Si Si1 0.306341 0.101213 0.820651
Si Si2 0.310203 0.042610 0.292636
Si Si3 0.603161 0.439922 0.032358
Si Si4 0.200653 0.027241 0.538947
Si Si5 0.718512 0.155039 0.902115
Si Si6 0.587305 0.953885 0.132915
O O1 0.183528 0.050810 0.801889
O O2 0.282859 0.227756 0.849474
O O3 0.361329 0.082350 0.725062
O O4 0.387156 0.028008 0.879585
O O5 0.189692 0.098925 0.312495
O O6 0.332844 0.095494 0.197244
O O7 0.414454 0.073691 0.357018
O O8 0.292743 0.911609 0.311318
O O9 0.652972 0.506994 0.115217
O O10 0.484375 0.484375 0.000000
O O11 0.114242 0.114242 0.500000
O O12 0.321579 0.082192 0.559580
O O13 0.218217 0.926045 0.471520
#
# Coordination Sequence:
#
# PCOD9548945 Si02
#       6
#     8   8   8   8   8   8
#     4  10  23  39  60  95 126 165 213 265 323 391
#     4  10  20  41  64  89 126 172 218 261 328 396
#     4  10  22  38  61  94 129 164 211 273 331 384
#     4  10  19  35  63  92 123 167 213 263 326 382
#     4  10  21  39  64  95 130 170 216 271 329 392
#     4  10  21  39  64  90 127 168 215 266 316 395
#
# _framework density 22.096143999999999
#
# number of rings (size 3 to 8) (size 9 to 14) (size 15 to 20)
#    0.000    2.000    1.667    2.000    2.333    0.667 
#    9.000    0.000    0.000    0.000    0.000    0.000 
#    0.000    0.000    0.000    0.000    0.000    0.000 
#
# Total GULP energy -267566.507733 kJ/mol
# GULP energy per Si atom -5574.302244 kJ/mol
# Density = 2.204585 g / cm^3
# Si number density = 22.096144 Si / 1000 Ang^3
#
#
#
# Elastic Constant Matrix: (Units=GPa)
#
#
# Indices 1 2 3 4 5 6 
#
# 1 101.9771 61.2527 15.1374 0.0000 0.0000 0.0000
# 2 61.2527 101.9771 15.1374 0.0000 0.0000 0.0000
# 3 15.1374 15.1374 19.7863 0.0000 0.0000 0.0000
# 4 0.0000 0.0000 0.0000 18.5944 0.0000 0.0000
# 5 0.0000 0.0000 0.0000 0.0000 18.5944 0.0000
# 6 0.0000 0.0000 0.0000 0.0000 0.0000 28.2332
#
#
#
# Elastic Compliance Matrix: (Units=1/GPa)
#
#
# Indices 1 2 3 4 5 6 
#
# 1 0.015847 -0.008708 -0.005462 0.000000 0.000000 0.000000
# 2 -0.008708 0.015847 -0.005462 0.000000 0.000000 0.000000
# 3 -0.005462 -0.005462 0.058897 0.000000 0.000000 0.000000
# 4 0.000000 0.000000 0.000000 0.053780 0.000000 0.000000
# 5 0.000000 0.000000 0.000000 0.000000 0.053780 0.000000
# 6 0.000000 0.000000 0.000000 0.000000 0.000000 0.035419
#
#
# Mechanical properties :
#
#
# Convention : Reuss Voigt Hill
#
# Bulk Modulus (GPa) = 19.48244 45.19951 32.34097
# Shear Modulus (GPa) = 17.24474 21.89861 19.57167
#
# Velocity S-wave (km/s) = 2.79667 3.15153 2.97938
# Velocity P-wave (km/s) = 4.38916 5.80888 5.14819
#
# Compressibility (1/GPa) = 0.05132828
#
# Stress axis : x y z
#
# Youngs Moduli (GPa) = 63.10201 63.10201 16.97870
#
# Poissons Ratio (x) = 0.54949 0.09274
# Poissons Ratio (y) = 0.54949 0.09274
# Poissons Ratio (z) = 0.34466 0.34466
#
# Static dielectric constant tensor:
#      x y z
#    x 1.857890 0.000000 0.000000 
#    y 0.000000 1.857890 0.000000 
#    z 0.000000 0.000000 1.849950 
# 
# From -- ./inp_files/3118.got.cif
#   From: 2010.05.17/outbox.cif.g08.bks.cpg/sg92_2_cif.got.tgz:3118.got - 2010.06.03 19:35:17.
