data_PCOD9548918
_publ_section_title
;
Structure prediction by ZEFSAII (Michael W. Deem and Ramdas Pophale) SiO2 
 PCOD9548918
Probable space group: P 41 21 2
;
_chemical_formula_sum "Si O2"
_cell_formula_units_Z 40
_cell_length_a 20.768233
_cell_length_b 20.768233
_cell_length_c 5.015316
_cell_angle_alpha 90.000000
_cell_angle_beta 90.000000
_cell_angle_gamma 90.000000
_cell_volume 2163.203599
_symmetry_space_group_name_H-M "P 41 21 2"
_symmetry_group_IT_number 92
_symmetry_cell_setting 'tetragonal'
loop_
_space_group_symop_operation_xyz
x,y,z
1/2-y,1/2+x,1/4+z
-x,-y,1/2+z
1/2+y,1/2-x,3/4+z
1/2+x,1/2-y,3/4-z
1/2-x,1/2+y,1/4-z
y,x,-z
-y,-x,1/2-z
loop_
_atom_site_type_symbol
_atom_site_label
_atom_site_fract_x
_atom_site_fract_y
_atom_site_fract_z
Si Si1 0.975540 0.914832 0.248386
Si Si2 0.587220 0.875728 0.012509
Si Si3 0.647155 0.003304 0.762773
Si Si4 0.549870 0.715728 0.444882
Si Si5 0.760923 0.136030 0.212033
O O1 0.932000 0.932000 0.500000
O O2 0.005822 0.844553 0.239200
O O3 0.931749 0.931749 0.000000
O O4 0.035671 0.964330 0.250000
O O5 0.535838 0.850418 0.801453
O O6 0.635021 0.814792 0.043967
O O7 0.617873 0.934890 0.847325
O O8 0.548242 0.889360 0.289710
O O9 0.720512 0.006017 0.663081
O O10 0.604488 0.728839 0.670487
O O11 0.587415 0.705130 0.169513
O O12 0.795930 0.204071 0.250000
#
# Coordination Sequence:
#
# PCOD9548918 Si02
#       5
#     8   8   8   8   8
#     4  10  19  30  47  73 104 137 176 218 260 313
#     4  10  21  36  56  81 108 139 174 219 269 320
#     4  10  21  37  56  79 108 138 174 219 268 322
#     4  10  20  34  53  76 106 141 177 222 270 314
#     4  10  19  33  55  79 103 137 181 222 263 315
#
# _framework density 18.491095000000001
#
# number of rings (size 3 to 8) (size 9 to 14) (size 15 to 20)
#    0.000    2.000    0.000    4.200    0.000    3.200 
#    0.000    1.000    0.000    4.800    0.000    0.000 
#    0.000    0.000    0.000    0.000    0.000    0.000 
#
# Total GULP energy -222751.783085 kJ/mol
# GULP energy per Si atom -5568.794577 kJ/mol
# Density = 1.844901 g / cm^3
# Si number density = 18.491095 Si / 1000 Ang^3
#
#
#
# Elastic Constant Matrix: (Units=GPa)
#
#
# Indices 1 2 3 4 5 6 
#
# 1 63.4498 52.5312 10.7337 0.0000 0.0000 0.0000
# 2 52.5312 63.4439 10.7358 0.0000 0.0000 0.0000
# 3 10.7337 10.7358 101.4988 0.0000 0.0000 0.0000
# 4 0.0000 0.0000 0.0000 28.6369 0.0000 0.0000
# 5 0.0000 0.0000 0.0000 0.0000 28.6427 0.0000
# 6 0.0000 0.0000 0.0000 0.0000 0.0000 18.9325
#
#
#
# Elastic Compliance Matrix: (Units=1/GPa)
#
#
# Indices 1 2 3 4 5 6 
#
# 1 0.050201 -0.041409 -0.000929 0.000000 0.000000 0.000000
# 2 -0.041409 0.050206 -0.000931 0.000000 0.000000 0.000000
# 3 -0.000929 -0.000931 0.010049 0.000000 0.000000 0.000000
# 4 0.000000 0.000000 0.000000 0.034920 0.000000 0.000000
# 5 0.000000 0.000000 0.000000 0.000000 0.034913 0.000000
# 6 0.000000 0.000000 0.000000 0.000000 0.000000 0.052819
#
#
# Mechanical properties :
#
#
# Convention : Reuss Voigt Hill
#
# Bulk Modulus (GPa) = 41.81025 41.82153 41.81589
# Shear Modulus (GPa) = 15.26170 25.53520 20.39845
#
# Velocity S-wave (km/s) = 2.87601 3.72014 3.32497
# Velocity P-wave (km/s) = 5.80420 6.41239 6.11586
#
# Compressibility (1/GPa) = 0.02391758
#
# Stress axis : x y z
#
# Youngs Moduli (GPa) = 19.92010 19.91809 99.51162
#
# Poissons Ratio (x) = 0.82478 0.09244
# Poissons Ratio (y) = 0.82486 0.09268
# Poissons Ratio (z) = 0.01850 0.01855
#
# Static dielectric constant tensor:
#      x y z
#    x 1.676360 0.000000 0.000000 
#    y 0.000000 1.676360 0.000000 
#    z 0.000000 0.000000 1.642110 
# 
# From -- ./inp_files/430.got.cif
#   From: 2010.05.17/outbox.cif.g08.bks.cpg/sg92_1_cif.got.tgz:430.got - 2010.06.03 19:35:17.
