data_PCOD9548335
_publ_section_title
;
Structure prediction by ZEFSAII (Michael W. Deem and Ramdas Pophale) SiO2 
 PCOD9548335
Probable space group: P 41 2 2
;
_chemical_formula_sum "Si O2"
_cell_formula_units_Z 44
_cell_length_a 8.675116
_cell_length_b 8.675116
_cell_length_c 25.088808
_cell_angle_alpha 90.000000
_cell_angle_beta 90.000000
_cell_angle_gamma 90.000000
_cell_volume 1888.124421
_symmetry_space_group_name_H-M "P 41 2 2"
_symmetry_group_IT_number 91
_symmetry_cell_setting 'tetragonal'
loop_
_space_group_symop_operation_xyz
x,y,z
-y,x,1/4+z
-x,-y,1/2+z
y,-x,3/4+z
x,-y,1/2-z
-x,y,-z
y,x,3/4-z
-y,-x,1/4-z
loop_
_atom_site_type_symbol
_atom_site_label
_atom_site_fract_x
_atom_site_fract_y
_atom_site_fract_z
Si Si1 0.500000 0.668074 0.500000
Si Si2 0.890624 0.460904 0.642491
Si Si3 0.731680 0.088053 0.975203
Si Si4 0.605009 0.660890 0.798794
Si Si5 0.060330 0.192138 0.114609
Si Si6 0.221663 0.158427 0.219254
O O1 0.357895 0.784079 0.509088
O O2 0.567796 0.554191 0.545330
O O3 0.807598 0.395674 0.588931
O O4 0.741468 0.450513 0.681516
O O5 0.951892 0.627436 0.625925
O O6 0.018796 0.375809 0.677900
O O7 0.877330 0.158574 0.944430
O O8 0.775204 0.941246 0.009947
O O9 0.645284 0.730251 0.740956
O O10 0.192114 0.138149 0.157021
O O11 0.909877 0.090124 0.125000
O O12 0.243702 0.000000 0.250000
#
# Coordination Sequence:
#
# PCOD9548335 Si02
#       6
#     4   8   8   8   8   8
#     4  12  22  42  64 102 140 170 220 290 346 408
#     4  10  22  44  68  97 131 182 232 279 333 420
#     4  11  24  43  70  98 136 183 227 280 349 415
#     4  10  22  41  71  98 137 181 233 280 345 417
#     4  12  23  41  67  98 134 173 228 280 336 406
#     4  11  22  42  69  99 131 185 234 277 334 416
#
# _framework density 23.303546999999998
#
# number of rings (size 3 to 8) (size 9 to 14) (size 15 to 20)
#    0.000    1.091    3.636    3.273    2.545    2.909 
#    0.000   11.818    0.000    0.000    0.000    0.000 
#    0.000    0.000    0.000    0.000    0.000    0.000 
#
# Total GULP energy -245764.967857 kJ/mol
# GULP energy per Si atom -5585.567451 kJ/mol
# Density = 2.325051 g / cm^3
# Si number density = 23.303547 Si / 1000 Ang^3
#
#
#
# Elastic Constant Matrix: (Units=GPa)
#
#
# Indices 1 2 3 4 5 6 
#
# 1 90.5253 48.1094 15.6837 0.0000 0.0000 0.0000
# 2 48.1094 90.5262 15.6838 0.0000 0.0000 0.0000
# 3 15.6837 15.6838 70.9765 0.0000 0.0000 0.0000
# 4 0.0000 0.0000 0.0000 29.3714 0.0000 0.0000
# 5 0.0000 0.0000 0.0000 0.0000 29.3716 0.0000
# 6 0.0000 0.0000 0.0000 0.0000 0.0000 42.6364
#
#
#
# Elastic Compliance Matrix: (Units=1/GPa)
#
#
# Indices 1 2 3 4 5 6 
#
# 1 0.015584 -0.007992 -0.001678 0.000000 0.000000 0.000000
# 2 -0.007992 0.015584 -0.001678 0.000000 0.000000 0.000000
# 3 -0.001678 -0.001678 0.014831 0.000000 0.000000 0.000000
# 4 0.000000 0.000000 0.000000 0.034047 0.000000 0.000000
# 5 0.000000 0.000000 0.000000 0.000000 0.034046 0.000000
# 6 0.000000 0.000000 0.000000 0.000000 0.000000 0.023454
#
#
# Mechanical properties :
#
#
# Convention : Reuss Voigt Hill
#
# Bulk Modulus (GPa) = 42.90908 45.66465 44.28686
# Shear Modulus (GPa) = 29.76029 31.77929 30.76979
#
# Velocity S-wave (km/s) = 3.57749 3.69685 3.63766
# Velocity P-wave (km/s) = 5.95967 6.15308 6.05715
#
# Compressibility (1/GPa) = 0.02330509
#
# Stress axis : x y z
#
# Youngs Moduli (GPa) = 64.16684 64.16743 67.42791
#
# Poissons Ratio (x) = 0.51279 0.11313
# Poissons Ratio (y) = 0.51279 0.11313
# Poissons Ratio (z) = 0.10766 0.10766
#
# Static dielectric constant tensor:
#      x y z
#    x 1.869220 0.000000 0.000000 
#    y 0.000000 1.869220 0.000000 
#    z 0.000000 0.000000 1.924110 
# 
# From -- ./inp_files/13545.got.cif
#   From: 2010.05.17/outbox.cif.g08.bks.cpg/sg91_7_cif.got.tgz:13545.got - 2010.06.03 19:20:03.
