data_PCOD9548979
_publ_section_title
;
Structure prediction by ZEFSAII (Michael W. Deem and Ramdas Pophale) SiO2 
 PCOD9548979
Probable space group: P 41 21 2
;
_chemical_formula_sum "Si O2"
_cell_formula_units_Z 32
_cell_length_a 8.141126
_cell_length_b 8.141126
_cell_length_c 17.692708
_cell_angle_alpha 90.000000
_cell_angle_beta 90.000000
_cell_angle_gamma 90.000000
_cell_volume 1172.636107
_symmetry_space_group_name_H-M "P 41 21 2"
_symmetry_group_IT_number 92
_symmetry_cell_setting 'tetragonal'
loop_
_space_group_symop_operation_xyz
x,y,z
1/2-y,1/2+x,1/4+z
-x,-y,1/2+z
1/2+y,1/2-x,3/4+z
1/2+x,1/2-y,3/4-z
1/2-x,1/2+y,1/4-z
y,x,-z
-y,-x,1/2-z
loop_
_atom_site_type_symbol
_atom_site_label
_atom_site_fract_x
_atom_site_fract_y
_atom_site_fract_z
Si Si1 0.679807 0.379201 0.089192
Si Si2 0.013115 0.120808 0.923476
Si Si3 0.429135 0.149158 0.164031
Si Si4 0.327727 0.918901 0.782839
O O1 0.555292 0.513699 0.128974
O O2 0.571020 0.217675 0.106301
O O3 0.710976 0.441993 0.004231
O O4 0.855252 0.364451 0.132993
O O5 0.058168 0.279972 0.875585
O O6 0.823190 0.134512 0.945689
O O7 0.115232 0.115232 0.000000
O O8 0.508846 0.056477 0.233989
O O9 0.249017 0.750984 0.750000
#
# Coordination Sequence:
#
# PCOD9548979 Si02
#       4
#     8   8   8   8
#     4   9  20  41  71  97 141 186 244 299 356 430
#     4  10  19  44  65  94 142 187 236 301 358 435
#     4   9  20  41  64  98 135 183 235 289 364 421
#     4  10  19  44  67  98 140 188 240 290 356 431
#
# _framework density 27.288944000000001
#
# number of rings (size 3 to 8) (size 9 to 14) (size 15 to 20)
#    1.500    1.000    2.500    0.000    0.000    1.000 
#   13.500    5.000    0.000    0.000    0.000    0.000 
#    0.000    0.000    0.000    0.000    0.000    0.000 
#
# Total GULP energy -178574.822435 kJ/mol
# GULP energy per Si atom -5580.463201 kJ/mol
# Density = 2.722683 g / cm^3
# Si number density = 27.288944 Si / 1000 Ang^3
#
#
#
# Elastic Constant Matrix: (Units=GPa)
#
#
# Indices 1 2 3 4 5 6 
#
# 1 51.6885 82.3413 48.2344 0.0000 0.0000 0.0000
# 2 82.3413 51.6875 48.2341 0.0000 0.0000 0.0000
# 3 48.2344 48.2341 104.3694 0.0000 0.0000 0.0000
# 4 0.0000 0.0000 0.0000 40.5679 0.0000 0.0000
# 5 0.0000 0.0000 0.0000 0.0000 40.5679 0.0000
# 6 0.0000 0.0000 0.0000 0.0000 0.0000 57.9451
#
#
#
# Elastic Compliance Matrix: (Units=1/GPa)
#
#
# Indices 1 2 3 4 5 6 
#
# 1 -0.010721 0.021901 -0.005167 0.000000 0.000000 0.000000
# 2 0.021901 -0.010722 -0.005167 0.000000 0.000000 0.000000
# 3 -0.005167 -0.005167 0.014357 0.000000 0.000000 0.000000
# 4 0.000000 0.000000 0.000000 0.024650 0.000000 0.000000
# 5 0.000000 0.000000 0.000000 0.000000 0.024650 0.000000
# 6 0.000000 0.000000 0.000000 0.000000 0.000000 0.017258
#
#
# Mechanical properties :
#
#
# Convention : Reuss Voigt Hill
#
# Bulk Modulus (GPa) = 62.30663 62.81833 62.56248
# Shear Modulus (GPa) = 119.94438 29.74520 74.84479
#
# Velocity S-wave (km/s) = 6.63693 3.30511 5.24274
# Velocity P-wave (km/s) = 9.03403 6.13471 7.72167
#
# Compressibility (1/GPa) = 0.01604966
#
# Stress axis : x y z
#
# Youngs Moduli (GPa) = -93.27166 -93.26926 69.65249
#
# Poissons Ratio (x) = 2.04273 0.35988
# Poissons Ratio (y) = 2.04278 0.35988
# Poissons Ratio (z) = -0.48192 -0.48190
#
# Static dielectric constant tensor:
#      x y z
#    x 2.187270 0.000000 0.000000 
#    y 0.000000 2.187270 0.000000 
#    z 0.000000 0.000000 2.156130 
# 
# From -- ./inp_files/3345.got.cif
#   From: 2010.05.17/outbox.cif.g08.bks.cpg/sg92_2_cif.got.tgz:3345.got - 2010.06.03 19:35:17.
