data_PCOD9548726
_publ_section_title
;
Structure prediction by ZEFSAII (Michael W. Deem and Ramdas Pophale) SiO2 
 PCOD9548726
Probable space group: P 41 2 2
;
_chemical_formula_sum "Si O2"
_cell_formula_units_Z 32
_cell_length_a 8.949011
_cell_length_b 8.949011
_cell_length_c 16.262352
_cell_angle_alpha 90.000000
_cell_angle_beta 90.000000
_cell_angle_gamma 90.000000
_cell_volume 1302.367173
_symmetry_space_group_name_H-M "P 41 2 2"
_symmetry_group_IT_number 91
_symmetry_cell_setting 'tetragonal'
loop_
_space_group_symop_operation_xyz
x,y,z
-y,x,1/4+z
-x,-y,1/2+z
y,-x,3/4+z
x,-y,1/2-z
-x,y,-z
y,x,3/4-z
-y,-x,1/4-z
loop_
_atom_site_type_symbol
_atom_site_label
_atom_site_fract_x
_atom_site_fract_y
_atom_site_fract_z
Si Si1 0.720259 0.468905 0.564998
Si Si2 0.074231 0.846034 0.915775
Si Si3 0.571063 0.241284 0.876809
Si Si4 0.976602 0.399646 0.828274
O O1 0.662692 0.337309 0.625000
O O2 0.606620 0.606874 0.577237
O O3 0.725105 0.424525 0.470333
O O4 0.877695 0.534151 0.596841
O O5 0.124480 0.707286 0.859791
O O6 0.228202 0.933278 0.933109
O O7 0.956542 0.956542 0.875000
O O8 0.000000 0.790009 0.000000
O O9 0.425426 0.151094 0.903195
O O10 0.933950 0.500000 0.750000
#
# Coordination Sequence:
#
# PCOD9548726 Si02
#       4
#     8   8   8   8
#     4  11  23  44  69  98 132 178 229 284 351 423
#     4  11  24  42  66  95 131 177 227 279 340 414
#     4  11  25  43  68  99 137 179 229 291 353 422
#     4  11  24  41  65  98 136 178 226 284 348 419
#
# _framework density 24.570644000000001
#
# number of rings (size 3 to 8) (size 9 to 14) (size 15 to 20)
#    0.000    1.000    0.000    7.500    0.000   11.000 
#    0.000    0.000    0.000    0.000    0.000    0.000 
#    0.000    0.000    0.000    0.000    0.000    0.000 
#
# Total GULP energy -179496.942462 kJ/mol
# GULP energy per Si atom -5609.279452 kJ/mol
# Density = 2.451472 g / cm^3
# Si number density = 24.570644 Si / 1000 Ang^3
#
#
#
# Elastic Constant Matrix: (Units=GPa)
#
#
# Indices 1 2 3 4 5 6 
#
# 1 84.8239 27.2837 13.1677 0.0000 0.0000 0.0000
# 2 27.2837 84.8254 13.1674 0.0000 0.0000 0.0000
# 3 13.1677 13.1674 79.2526 0.0000 0.0000 0.0000
# 4 0.0000 0.0000 0.0000 36.9692 0.0000 0.0000
# 5 0.0000 0.0000 0.0000 0.0000 36.9691 0.0000
# 6 0.0000 0.0000 0.0000 0.0000 0.0000 63.0746
#
#
#
# Elastic Compliance Matrix: (Units=1/GPa)
#
#
# Indices 1 2 3 4 5 6 
#
# 1 0.013331 -0.004048 -0.001542 0.000000 0.000000 0.000000
# 2 -0.004048 0.013330 -0.001542 0.000000 0.000000 0.000000
# 3 -0.001542 -0.001542 0.013130 0.000000 0.000000 0.000000
# 4 0.000000 0.000000 0.000000 0.027050 0.000000 0.000000
# 5 0.000000 0.000000 0.000000 0.000000 0.027050 0.000000
# 6 0.000000 0.000000 0.000000 0.000000 0.000000 0.015854
#
#
# Mechanical properties :
#
#
# Convention : Reuss Voigt Hill
#
# Bulk Modulus (GPa) = 39.17583 39.57107 39.37345
# Shear Modulus (GPa) = 37.73041 40.42146 39.07594
#
# Velocity S-wave (km/s) = 3.92291 4.06040 3.99225
# Velocity P-wave (km/s) = 6.04134 6.17434 6.10820
#
# Compressibility (1/GPa) = 0.02552594
#
# Stress axis : x y z
#
# Youngs Moduli (GPa) = 75.01478 75.01623 76.15945
#
# Poissons Ratio (x) = 0.30369 0.11746
# Poissons Ratio (y) = 0.30369 0.11745
# Poissons Ratio (z) = 0.11569 0.11569
#
# Static dielectric constant tensor:
#      x y z
#    x 1.934250 0.000000 0.000000 
#    y 0.000000 1.934250 0.000000 
#    z 0.000000 0.000000 1.921470 
# 
# From -- ./inp_files/6008.got.cif
#   From: 2010.05.17/outbox.cif.g08.bks.cpg/sg91_4_cif.got.tgz:6008.got - 2010.06.03 19:20:03.
