data_PCOD9548860
_publ_section_title
;
Structure prediction by ZEFSAII (Michael W. Deem and Ramdas Pophale) SiO2 
 PCOD9548860
Probable space group: P 41 21 2
;
_chemical_formula_sum "Si O2"
_cell_formula_units_Z 48
_cell_length_a 15.531797
_cell_length_b 15.531797
_cell_length_c 7.998522
_cell_angle_alpha 90.000000
_cell_angle_beta 90.000000
_cell_angle_gamma 90.000000
_cell_volume 1929.537197
_symmetry_space_group_name_H-M "P 41 21 2"
_symmetry_group_IT_number 92
_symmetry_cell_setting 'tetragonal'
loop_
_space_group_symop_operation_xyz
x,y,z
1/2-y,1/2+x,1/4+z
-x,-y,1/2+z
1/2+y,1/2-x,3/4+z
1/2+x,1/2-y,3/4-z
1/2-x,1/2+y,1/4-z
y,x,-z
-y,-x,1/2-z
loop_
_atom_site_type_symbol
_atom_site_label
_atom_site_fract_x
_atom_site_fract_y
_atom_site_fract_z
Si Si1 0.254605 0.686180 0.562481
Si Si2 0.087925 0.642230 0.751518
Si Si3 0.907915 0.532513 0.470143
Si Si4 0.412759 0.442241 0.736888
Si Si5 0.630674 0.754822 0.658653
Si Si6 0.486309 0.697291 0.074617
O O1 0.293768 0.706233 0.750000
O O2 0.162833 0.649170 0.616699
O O3 0.241578 0.768226 0.442076
O O4 0.308283 0.614555 0.463741
O O5 0.093179 0.545901 0.830325
O O6 0.109598 0.698518 0.915107
O O7 0.011369 0.702005 0.679382
O O8 0.918688 0.490965 0.650162
O O9 0.825843 0.593752 0.465664
O O10 0.478146 0.521855 0.750000
O O11 0.334342 0.420357 0.861047
O O12 0.472306 0.356833 0.725238
O O13 0.355305 0.467326 0.575305
#
# Coordination Sequence:
#
# PCOD9548860 Si02
#       6
#     8   8   8   8   8   8
#     4  10  17  29  52  79 105 137 175 231 288 329
#     4   9  16  31  52  76 102 134 182 236 281 325
#     4  10  20  34  54  83 116 150 191 240 292 349
#     4  10  19  33  51  78 108 139 180 234 283 328
#     4   9  18  32  52  78 110 137 183 237 283 333
#     4  10  19  31  52  80 105 136 184 230 275 338
#
# _framework density 24.876432000000001
#
# number of rings (size 3 to 8) (size 9 to 14) (size 15 to 20)
#    0.000    2.333    1.667    3.500    0.000    2.667 
#    0.000    1.667    0.000    0.000    4.333    0.000 
#    0.000    0.000    0.000    0.000    0.000    0.000 
#
# Total GULP energy -267609.969148 kJ/mol
# GULP energy per Si atom -5575.207691 kJ/mol
# Density = 2.481981 g / cm^3
# Si number density = 24.876432 Si / 1000 Ang^3
#
#
#
# Elastic Constant Matrix: (Units=GPa)
#
#
# Indices 1 2 3 4 5 6 
#
# 1 -139.7730 308.0354 35.4722 0.0000 0.0000 0.0000
# 2 308.0354 -139.7699 35.4747 0.0000 0.0000 0.0000
# 3 35.4722 35.4747 68.6702 0.0000 0.0000 0.0000
# 4 0.0000 0.0000 0.0000 21.7348 0.0000 0.0000
# 5 0.0000 0.0000 0.0000 0.0000 21.7357 0.0000
# 6 0.0000 0.0000 0.0000 0.0000 0.0000 29.6398
#
#
#
# Elastic Compliance Matrix: (Units=1/GPa)
#
#
# Indices 1 2 3 4 5 6 
#
# 1 0.002682 0.004916 -0.003925 0.000000 0.000000 0.000000
# 2 0.004916 0.002682 -0.003925 0.000000 0.000000 0.000000
# 3 -0.003925 -0.003925 0.018617 0.000000 0.000000 0.000000
# 4 0.000000 0.000000 0.000000 0.046009 0.000000 0.000000
# 5 0.000000 0.000000 0.000000 0.000000 0.046007 0.000000
# 6 0.000000 0.000000 0.000000 0.000000 0.000000 0.033738
#
#
# Mechanical properties :
#
#
# Convention : Reuss Voigt Hill
#
# Bulk Modulus (GPa) = 55.20712 60.78798 57.99755
# Shear Modulus (GPa) = 30.93222 -24.70161 3.11530
#
# Velocity S-wave (km/s) = 3.53006 -3.15457 1.12028
# Velocity P-wave (km/s) = 6.23345 3.34972 5.00382
#
# Compressibility (1/GPa) = 0.01811361
#
# Stress axis : x y z
#
# Youngs Moduli (GPa) = 372.79817 372.79697 53.71321
#
# Poissons Ratio (x) = -1.83249 0.21082
# Poissons Ratio (y) = -1.83250 0.21082
# Poissons Ratio (z) = 1.46322 1.46318
#
# Static dielectric constant tensor:
#      x y z
#    x 2.013500 0.000000 0.000000 
#    y 0.000000 2.013500 0.000000 
#    z 0.000000 0.000000 2.018420 
# 
# From -- ./inp_files/2209.got.cif
#   From: 2010.05.17/outbox.cif.g08.bks.cpg/sg92_2_cif.got.tgz:2209.got - 2010.06.03 19:35:17.
