data_PCOD9548638
_publ_section_title
;
Structure prediction by ZEFSAII (Michael W. Deem and Ramdas Pophale) SiO2 
 PCOD9548638
Probable space group: P 41 2 2
;
_chemical_formula_sum "Si O2"
_cell_formula_units_Z 56
_cell_length_a 11.293973
_cell_length_b 11.293973
_cell_length_c 21.344704
_cell_angle_alpha 90.000000
_cell_angle_beta 90.000000
_cell_angle_gamma 90.000000
_cell_volume 2722.598663
_symmetry_space_group_name_H-M "P 41 2 2"
_symmetry_group_IT_number 91
_symmetry_cell_setting 'tetragonal'
loop_
_space_group_symop_operation_xyz
x,y,z
-y,x,1/4+z
-x,-y,1/2+z
y,-x,3/4+z
x,-y,1/2-z
-x,y,-z
y,x,3/4-z
-y,-x,1/4-z
loop_
_atom_site_type_symbol
_atom_site_label
_atom_site_fract_x
_atom_site_fract_y
_atom_site_fract_z
Si Si1 0.608650 0.480117 0.321359
Si Si2 0.579927 0.126943 0.911550
Si Si3 0.997467 0.838774 0.838336
Si Si4 0.870701 0.381798 0.478927
Si Si5 0.731564 0.557745 0.903587
Si Si6 0.842594 0.892975 0.046690
Si Si7 0.437933 0.907473 0.938200
O O1 0.561311 0.500000 0.250000
O O2 0.582042 0.582042 0.375000
O O3 0.742900 0.434272 0.310763
O O4 0.540301 0.368884 0.350244
O O5 0.703874 0.050904 0.915893
O O6 0.566579 0.152051 0.838455
O O7 0.474761 0.043887 0.934553
O O8 0.088696 0.905442 0.886559
O O9 0.974651 0.869425 0.764730
O O10 0.873863 0.873863 0.875000
O O11 0.770261 0.418190 0.526372
O O12 0.873067 0.239938 0.474421
O O13 0.000000 0.422168 0.500000
O O14 0.676597 0.676597 0.875000
O O15 0.843477 0.504245 0.868178
O O16 0.702277 0.895886 0.059500
O O17 0.500000 0.855194 0.000000
#
# Coordination Sequence:
#
# PCOD9548638 Si02
#       7
#     8   8   8   8   8   8   8
#     4  11  25  46  70  96 135 187 236 283 344 414
#     4  11  23  42  70  95 134 182 229 278 350 414
#     4  11  23  42  69 101 135 181 227 288 356 422
#     4  11  21  39  65  98 133 174 220 281 349 414
#     4  11  24  38  65  99 135 168 227 293 351 403
#     4  11  24  39  68  99 138 176 233 287 357 416
#     4  12  23  40  64 101 136 174 230 288 343 418
#
# _framework density 20.568584999999999
#
# number of rings (size 3 to 8) (size 9 to 14) (size 15 to 20)
#    0.000    0.857    2.857    6.000    0.000    3.429 
#    0.000    0.714   15.714    0.000    0.000    0.000 
#    0.000    0.000    0.000    0.000    0.000    0.000 
#
# Total GULP energy -312087.139426 kJ/mol
# GULP energy per Si atom -5572.984633 kJ/mol
# Density = 2.052177 g / cm^3
# Si number density = 20.568585 Si / 1000 Ang^3
#
#
#
# Elastic Constant Matrix: (Units=GPa)
#
#
# Indices 1 2 3 4 5 6 
#
# 1 63.0283 33.2791 4.0305 0.0000 0.0000 0.0000
# 2 33.2791 63.0283 4.0305 0.0000 0.0000 0.0000
# 3 4.0305 4.0305 107.6413 0.0000 0.0000 0.0000
# 4 0.0000 0.0000 0.0000 85.6678 0.0000 0.0000
# 5 0.0000 0.0000 0.0000 0.0000 85.6678 0.0000
# 6 0.0000 0.0000 0.0000 0.0000 0.0000 14.1039
#
#
#
# Elastic Compliance Matrix: (Units=1/GPa)
#
#
# Indices 1 2 3 4 5 6 
#
# 1 0.022015 -0.011599 -0.000390 0.000000 0.000000 0.000000
# 2 -0.011599 0.022015 -0.000390 0.000000 0.000000 0.000000
# 3 -0.000390 -0.000390 0.009319 0.000000 0.000000 0.000000
# 4 0.000000 0.000000 0.000000 0.011673 0.000000 0.000000
# 5 0.000000 0.000000 0.000000 0.000000 0.011673 0.000000
# 6 0.000000 0.000000 0.000000 0.000000 0.000000 0.070902
#
#
# Mechanical properties :
#
#
# Convention : Reuss Voigt Hill
#
# Bulk Modulus (GPa) = 34.97556 35.15311 35.06434
# Shear Modulus (GPa) = 27.48962 49.91175 38.70069
#
# Velocity S-wave (km/s) = 3.65976 4.93140 4.34238
# Velocity P-wave (km/s) = 5.90760 7.03937 6.49817
#
# Compressibility (1/GPa) = 0.02859139
#
# Stress axis : x y z
#
# Youngs Moduli (GPa) = 45.42311 45.42311 107.30400
#
# Poissons Ratio (x) = 0.52687 0.04185
# Poissons Ratio (y) = 0.52687 0.04185
# Poissons Ratio (z) = 0.01772 0.01772
#
# Static dielectric constant tensor:
#      x y z
#    x 1.706870 0.000000 0.000000 
#    y 0.000000 1.706870 0.000000 
#    z 0.000000 0.000000 1.739920 
# 
# From -- ./inp_files/12447.got.cif
#   From: 2010.05.17/outbox.cif.g08.bks.cpg/sg91_7_cif.got.tgz:12447.got - 2010.06.03 19:20:03.
