data_PCOD9548931
_publ_section_title
;
Structure prediction by ZEFSAII (Michael W. Deem and Ramdas Pophale) SiO2 
 PCOD9548931
Probable space group: P 41 21 2
;
_chemical_formula_sum "Si O2"
_cell_formula_units_Z 52
_cell_length_a 22.076550
_cell_length_b 22.076550
_cell_length_c 4.942180
_cell_angle_alpha 90.000000
_cell_angle_beta 90.000000
_cell_angle_gamma 90.000000
_cell_volume 2408.690331
_symmetry_space_group_name_H-M "P 41 21 2"
_symmetry_group_IT_number 92
_symmetry_cell_setting 'tetragonal'
loop_
_space_group_symop_operation_xyz
x,y,z
1/2-y,1/2+x,1/4+z
-x,-y,1/2+z
1/2+y,1/2-x,3/4+z
1/2+x,1/2-y,3/4-z
1/2-x,1/2+y,1/4-z
y,x,-z
-y,-x,1/2-z
loop_
_atom_site_type_symbol
_atom_site_label
_atom_site_fract_x
_atom_site_fract_y
_atom_site_fract_z
Si Si1 0.469302 0.530699 0.750000
Si Si2 0.275148 0.666031 0.504159
Si Si3 0.518795 0.747629 0.331956
Si Si4 0.674360 0.985188 0.076392
Si Si5 0.644541 0.443932 0.925830
Si Si6 0.105892 0.619764 0.994543
Si Si7 0.813949 0.635440 0.758269
O O1 0.512384 0.512384 0.500000
O O2 0.400199 0.525549 0.642640
O O3 0.311695 0.688306 0.250000
O O4 0.303896 0.599792 0.558792
O O5 0.205412 0.677125 0.442656
O O6 0.292033 0.707968 0.750000
O O7 0.504879 0.770031 0.633222
O O8 0.491100 0.682999 0.253079
O O9 0.591096 0.757792 0.300797
O O10 0.486354 0.796604 0.126126
O O11 0.645125 0.930050 0.910240
O O12 0.621295 0.035438 0.079671
O O13 0.598604 0.401397 0.750000
O O14 0.130016 0.678448 0.831382
O O15 0.108989 0.631885 0.314386
#
# Coordination Sequence:
#
# PCOD9548931 Si02
#       7
#     4   8   8   8   8   8   8
#     4  12  26  46  68  94 136 168 208 272 334 394
#     4  11  22  36  63  95 126 155 210 276 335 387
#     4  10  23  38  64  89 126 163 217 258 331 398
#     4  10  20  35  55  87 118 167 203 267 309 392
#     4  11  24  42  69 102 125 170 223 280 332 393
#     4  10  19  34  54  79 117 158 209 243 317 366
#     4  10  21  39  58  86 123 164 195 262 326 401
#
# _framework density 21.588495999999999
#
# number of rings (size 3 to 8) (size 9 to 14) (size 15 to 20)
#    0.000    1.538    1.538    3.692    2.154    1.231 
#    0.000    5.385    3.385    0.000    0.000    0.000 
#    0.000    0.000    0.000    0.000    0.000    0.000 
#
# Total GULP energy -289575.720017 kJ/mol
# GULP energy per Si atom -5568.763846 kJ/mol
# Density = 2.153936 g / cm^3
# Si number density = 21.588496 Si / 1000 Ang^3
#
#
#
# Elastic Constant Matrix: (Units=GPa)
#
#
# Indices 1 2 3 4 5 6 
#
# 1 82.0393 55.2622 13.6100 0.0000 0.0000 0.0000
# 2 55.2622 82.0404 13.6095 0.0000 0.0000 0.0000
# 3 13.6100 13.6095 100.1483 0.0000 0.0000 0.0000
# 4 0.0000 0.0000 0.0000 29.1229 0.0000 0.0000
# 5 0.0000 0.0000 0.0000 0.0000 29.1227 0.0000
# 6 0.0000 0.0000 0.0000 0.0000 0.0000 26.3318
#
#
#
# Elastic Compliance Matrix: (Units=1/GPa)
#
#
# Indices 1 2 3 4 5 6 
#
# 1 0.022415 -0.014930 -0.001017 0.000000 0.000000 0.000000
# 2 -0.014930 0.022415 -0.001017 0.000000 0.000000 0.000000
# 3 -0.001017 -0.001017 0.010262 0.000000 0.000000 0.000000
# 4 0.000000 0.000000 0.000000 0.034337 0.000000 0.000000
# 5 0.000000 0.000000 0.000000 0.000000 0.034337 0.000000
# 6 0.000000 0.000000 0.000000 0.000000 0.000000 0.037977
#
#
# Mechanical properties :
#
#
# Convention : Reuss Voigt Hill
#
# Bulk Modulus (GPa) = 47.25292 47.68795 47.47044
# Shear Modulus (GPa) = 24.66389 29.03188 26.84789
#
# Velocity S-wave (km/s) = 3.38369 3.67111 3.53033
# Velocity P-wave (km/s) = 6.09929 6.33300 6.21724
#
# Compressibility (1/GPa) = 0.02116271
#
# Stress axis : x y z
#
# Youngs Moduli (GPa) = 44.61311 44.61382 97.45020
#
# Poissons Ratio (x) = 0.66608 0.09913
# Poissons Ratio (y) = 0.66607 0.09911
# Poissons Ratio (z) = 0.04538 0.04537
#
# Static dielectric constant tensor:
#      x y z
#    x 1.853260 0.000000 0.000000 
#    y 0.000000 1.853260 0.000000 
#    z 0.000000 0.000000 1.792520 
# 
# From -- ./inp_files/711.got.cif
#   From: 2010.05.17/outbox.cif.g08.bks.cpg/sg92_1_cif.got.tgz:711.got - 2010.06.03 19:35:17.
