data_PCOD9548807
_publ_section_title
;
Structure prediction by ZEFSAII (Michael W. Deem and Ramdas Pophale) SiO2 
 PCOD9548807
Probable space group: P 41 2 2
;
_chemical_formula_sum "Si O2"
_cell_formula_units_Z 40
_cell_length_a 9.060388
_cell_length_b 9.060388
_cell_length_c 21.323410
_cell_angle_alpha 90.000000
_cell_angle_beta 90.000000
_cell_angle_gamma 90.000000
_cell_volume 1750.452176
_symmetry_space_group_name_H-M "P 41 2 2"
_symmetry_group_IT_number 91
_symmetry_cell_setting 'tetragonal'
loop_
_space_group_symop_operation_xyz
x,y,z
-y,x,1/4+z
-x,-y,1/2+z
y,-x,3/4+z
x,-y,1/2-z
-x,y,-z
y,x,3/4-z
-y,-x,1/4-z
loop_
_atom_site_type_symbol
_atom_site_label
_atom_site_fract_x
_atom_site_fract_y
_atom_site_fract_z
Si Si1 0.506638 0.506638 0.875000
Si Si2 0.448077 0.149944 0.636044
Si Si3 0.500000 0.305389 0.000000
Si Si4 0.963855 0.036146 0.625000
Si Si5 0.807370 0.144482 0.445599
Si Si6 0.406515 0.000000 0.250000
Si Si7 0.336011 0.972859 0.447030
O O1 0.683317 0.490236 0.867320
O O2 0.467436 0.409798 0.938274
O O3 0.277522 0.148340 0.619844
O O4 0.495784 0.101662 0.704940
O O5 0.525450 0.026235 0.593292
O O6 0.626938 0.188426 0.976284
O O7 0.070551 0.019872 0.566327
O O8 0.991007 0.199093 0.651061
O O9 0.886551 0.295113 0.465382
O O10 0.696264 0.090033 0.498117
#
# Coordination Sequence:
#
# PCOD9548807 Si02
#       7
#     4   8   4   4   8   4   8
#     4  12  31  51  78 118 164 224 263 337 436 522
#     4  12  27  48  81 109 155 209 268 328 407 495
#     4  12  30  50  80 116 172 204 280 352 426 502
#     4  12  23  45  74 112 150 206 265 313 402 482
#     4  12  24  45  77 113 150 200 261 326 391 473
#     4  12  26  50  80 116 158 206 278 334 402 502
#     4  12  23  50  76 111 155 207 259 342 392 484
#
# _framework density 22.851237000000001
#
# number of rings (size 3 to 8) (size 9 to 14) (size 15 to 20)
#    0.000    0.000    6.000    3.000    5.600    0.800 
#    7.200    0.000    0.000    0.000    0.000    0.000 
#    0.000    0.000    0.000    0.000    0.000    0.000 
#
# Total GULP energy -223087.205224 kJ/mol
# GULP energy per Si atom -5577.180131 kJ/mol
# Density = 2.279923 g / cm^3
# Si number density = 22.851237 Si / 1000 Ang^3
#
#
#
# Elastic Constant Matrix: (Units=GPa)
#
#
# Indices 1 2 3 4 5 6 
#
# 1 115.2261 32.6284 59.6210 0.0000 0.0000 0.0000
# 2 32.6284 115.2274 59.6211 0.0000 0.0000 0.0000
# 3 59.6210 59.6211 133.6281 0.0000 0.0000 0.0000
# 4 0.0000 0.0000 0.0000 27.3043 0.0000 0.0000
# 5 0.0000 0.0000 0.0000 0.0000 27.3037 0.0000
# 6 0.0000 0.0000 0.0000 0.0000 0.0000 -7.2410
#
#
#
# Elastic Compliance Matrix: (Units=1/GPa)
#
#
# Indices 1 2 3 4 5 6 
#
# 1 0.011336 -0.000771 -0.004714 0.000000 0.000000 0.000000
# 2 -0.000771 0.011336 -0.004714 0.000000 0.000000 0.000000
# 3 -0.004714 -0.004714 0.011690 0.000000 0.000000 0.000000
# 4 0.000000 0.000000 0.000000 0.036624 0.000000 0.000000
# 5 0.000000 0.000000 0.000000 0.000000 0.036625 0.000000
# 6 0.000000 0.000000 0.000000 0.000000 0.000000 -0.138102
#
#
# Mechanical properties :
#
#
# Convention : Reuss Voigt Hill
#
# Bulk Modulus (GPa) = 71.60997 74.20252 72.90625
# Shear Modulus (GPa) = -919.19620 23.62079 -447.78770
#
# Velocity S-wave (km/s) = -20.07799 3.21857 -14.01368
# Velocity P-wave (km/s) = 22.49656 6.80843 15.16147
#
# Compressibility (1/GPa) = 0.01396454
#
# Stress axis : x y z
#
# Youngs Moduli (GPa) = 88.21501 88.21620 85.54493
#
# Poissons Ratio (x) = 0.06801 0.40324
# Poissons Ratio (y) = 0.06801 0.40324
# Poissons Ratio (z) = 0.41583 0.41583
#
# Static dielectric constant tensor:
#      x y z
#    x 2.519610 0.000000 0.000000 
#    y 0.000000 2.519670 0.000000 
#    z 0.000000 0.000000 1.950900 
# 
# From -- ./inp_files/6878.got.cif
#   From: 2010.05.17/outbox.cif.g08.bks.cpg/sg91_4_cif.got.tgz:6878.got - 2010.06.03 19:20:03.
