data_PCOD9548282
_publ_section_title
;
Structure prediction by ZEFSAII (Michael W. Deem and Ramdas Pophale) SiO2 
 PCOD9548282
Probable space group: P 41 2 2
;
_chemical_formula_sum "Si O2"
_cell_formula_units_Z 36
_cell_length_a 14.822474
_cell_length_b 14.822474
_cell_length_c 8.214457
_cell_angle_alpha 90.000000
_cell_angle_beta 90.000000
_cell_angle_gamma 90.000000
_cell_volume 1804.763317
_symmetry_space_group_name_H-M "P 41 2 2"
_symmetry_group_IT_number 91
_symmetry_cell_setting 'tetragonal'
loop_
_space_group_symop_operation_xyz
x,y,z
-y,x,1/4+z
-x,-y,1/2+z
y,-x,3/4+z
x,-y,1/2-z
-x,y,-z
y,x,3/4-z
-y,-x,1/4-z
loop_
_atom_site_type_symbol
_atom_site_label
_atom_site_fract_x
_atom_site_fract_y
_atom_site_fract_z
Si Si1 0.261005 0.108560 0.574226
Si Si2 0.404503 0.021177 0.065978
Si Si3 0.706930 0.293071 0.625000
Si Si4 0.229899 0.770102 0.625000
Si Si5 0.236011 0.409429 0.663815
Si Si6 0.918941 0.081060 0.625000
O O1 0.294293 0.199704 0.479764
O O2 0.235836 0.143814 0.754977
O O3 0.171988 0.079030 0.479521
O O4 0.331869 0.027152 0.551231
O O5 0.419986 0.127861 0.090773
O O6 0.376320 0.000000 0.250000
O O7 0.500000 0.984350 0.000000
O O8 0.621317 0.283894 0.745967
O O9 0.319753 0.762254 0.520492
O O10 0.272635 0.500000 0.750000
O O11 0.000000 0.078368 0.500000
#
# Coordination Sequence:
#
# PCOD9548282 Si02
#       6
#     8   8   4   4   8   4
#     4  10  22  39  62  84 127 169 218 268 331 392
#     4  11  23  38  62  95 132 168 216 278 340 397
#     4   9  18  38  60  88 122 174 207 264 326 386
#     4  10  24  39  60  98 122 171 210 264 340 396
#     4  10  22  40  63  94 131 166 221 270 325 402
#     4  11  26  45  60  84 118 175 235 274 310 372
#
# _framework density 19.947213000000001
#
# number of rings (size 3 to 8) (size 9 to 14) (size 15 to 20)
#    0.000    1.778    2.222    0.667   12.444    0.889 
#    0.000    3.333    0.000    1.333    0.000    0.000 
#    0.000    0.000    0.000    0.000    0.000    0.000 
#
# Total GULP energy -200501.202816 kJ/mol
# GULP energy per Si atom -5569.477856 kJ/mol
# Density = 1.990181 g / cm^3
# Si number density = 19.947213 Si / 1000 Ang^3
#
#
#
# Elastic Constant Matrix: (Units=GPa)
#
#
# Indices 1 2 3 4 5 6 
#
# 1 87.0558 43.8996 54.7696 0.0000 0.0000 0.0000
# 2 43.8996 87.0565 54.7703 0.0000 0.0000 0.0000
# 3 54.7696 54.7703 141.9922 0.0000 0.0000 0.0000
# 4 0.0000 0.0000 0.0000 34.3820 0.0000 0.0000
# 5 0.0000 0.0000 0.0000 0.0000 34.3788 0.0000
# 6 0.0000 0.0000 0.0000 0.0000 0.0000 140.2526
#
#
#
# Elastic Compliance Matrix: (Units=1/GPa)
#
#
# Indices 1 2 3 4 5 6 
#
# 1 0.017223 -0.005949 -0.004348 0.000000 0.000000 0.000000
# 2 -0.005949 0.017222 -0.004349 0.000000 0.000000 0.000000
# 3 -0.004348 -0.004349 0.010397 0.000000 0.000000 0.000000
# 4 0.000000 0.000000 0.000000 0.029085 0.000000 0.000000
# 5 0.000000 0.000000 0.000000 0.000000 0.029088 0.000000
# 6 0.000000 0.000000 0.000000 0.000000 0.000000 0.007130
#
#
# Mechanical properties :
#
#
# Convention : Reuss Voigt Hill
#
# Bulk Modulus (GPa) = 64.30703 69.22038 66.76371
# Shear Modulus (GPa) = 34.57332 52.64703 43.61017
#
# Velocity S-wave (km/s) = 4.16774 5.14300 4.68084
# Velocity P-wave (km/s) = 7.44773 8.36925 7.92190
#
# Compressibility (1/GPa) = 0.01555040
#
# Stress axis : x y z
#
# Youngs Moduli (GPa) = 58.06355 58.06369 96.17902
#
# Poissons Ratio (x) = 0.34542 0.41823
# Poissons Ratio (y) = 0.34542 0.41824
# Poissons Ratio (z) = 0.25249 0.25249
#
# Static dielectric constant tensor:
#      x y z
#    x 1.648470 0.000000 0.000000 
#    y 0.000000 1.648470 0.000000 
#    z 0.000000 0.000000 1.736290 
# 
# From -- ./inp_files/9658.got.cif
#   From: 2010.05.17/outbox.cif.g08.bks.cpg/sg91_5_cif.got.tgz:9658.got - 2010.06.03 19:20:03.
