data_PCOD9548446
_publ_section_title
;
Structure prediction by ZEFSAII (Michael W. Deem and Ramdas Pophale) SiO2 
 PCOD9548446
Probable space group: P 41 2 2
;
_chemical_formula_sum "Si O2"
_cell_formula_units_Z 60
_cell_length_a 12.412947
_cell_length_b 12.412947
_cell_length_c 19.395297
_cell_angle_alpha 90.000000
_cell_angle_beta 90.000000
_cell_angle_gamma 90.000000
_cell_volume 2988.451668
_symmetry_space_group_name_H-M "P 41 2 2"
_symmetry_group_IT_number 91
_symmetry_cell_setting 'tetragonal'
loop_
_space_group_symop_operation_xyz
x,y,z
-y,x,1/4+z
-x,-y,1/2+z
y,-x,3/4+z
x,-y,1/2-z
-x,y,-z
y,x,3/4-z
-y,-x,1/4-z
loop_
_atom_site_type_symbol
_atom_site_label
_atom_site_fract_x
_atom_site_fract_y
_atom_site_fract_z
Si Si1 0.142828 0.990235 0.832507
Si Si2 0.157855 0.757088 0.848275
Si Si3 0.607090 0.782897 0.099055
Si Si4 0.469728 0.708824 0.754089
Si Si5 0.018219 0.616947 0.641929
Si Si6 0.081655 0.421211 0.557494
Si Si7 0.694687 0.767376 0.447447
Si Si8 0.388739 0.500000 0.250000
O O1 0.074727 0.074727 0.875000
O O2 0.266067 0.002112 0.857561
O O3 0.136350 0.000000 0.750000
O O4 0.102612 0.872055 0.854205
O O5 0.265979 0.759561 0.894431
O O6 0.090243 0.658728 0.877629
O O7 0.192766 0.748896 0.768193
O O8 0.565893 0.771135 0.177256
O O9 0.545223 0.691193 0.057915
O O10 0.593683 0.904481 0.070747
O O11 0.542669 0.797418 0.714780
O O12 0.359475 0.671802 0.714139
O O13 0.536492 0.601068 0.770371
O O14 0.027898 0.531168 0.581851
O O15 0.132851 0.613311 0.682131
O O16 0.000000 0.374816 0.500000
O O17 0.757927 0.757927 0.375000
#
# Coordination Sequence:
#
# PCOD9548446 Si02
#       8
#     8   8   8   8   8   8   8   4
#     4  11  23  40  69  98 132 173 219 285 351 407
#     4  10  24  42  64 100 133 176 231 278 344 420
#     4  10  23  42  64  90 130 177 227 277 336 420
#     4  11  24  41  66  98 133 182 220 281 353 417
#     4  11  22  39  67 100 129 171 222 281 346 417
#     4  12  23  42  68  92 136 184 229 274 338 421
#     4  11  22  40  68 105 138 164 218 294 363 402
#     4  12  24  44  66  90 130 176 236 272 340 404
#
# _framework density 20.077286999999998
#
# number of rings (size 3 to 8) (size 9 to 14) (size 15 to 20)
#    0.000    1.067    4.000    2.800    1.867    5.333 
#    0.000    0.000    2.933    0.000    0.000    0.000 
#    0.000    0.000    0.000    0.000    0.000    0.000 
#
# Total GULP energy -334392.433698 kJ/mol
# GULP energy per Si atom -5573.207228 kJ/mol
# Density = 2.003159 g / cm^3
# Si number density = 20.077287 Si / 1000 Ang^3
#
#
#
# Elastic Constant Matrix: (Units=GPa)
#
#
# Indices 1 2 3 4 5 6 
#
# 1 111.5322 41.9623 34.7456 0.0000 0.0000 0.0000
# 2 41.9623 111.5322 34.7456 0.0000 0.0000 0.0000
# 3 34.7456 34.7456 71.4410 0.0000 0.0000 0.0000
# 4 0.0000 0.0000 0.0000 21.6910 0.0000 0.0000
# 5 0.0000 0.0000 0.0000 0.0000 21.6910 0.0000
# 6 0.0000 0.0000 0.0000 0.0000 0.0000 3.0905
#
#
#
# Elastic Compliance Matrix: (Units=1/GPa)
#
#
# Indices 1 2 3 4 5 6 
#
# 1 0.011364 -0.003010 -0.004063 0.000000 0.000000 0.000000
# 2 -0.003010 0.011364 -0.004063 0.000000 0.000000 0.000000
# 3 -0.004063 -0.004063 0.017950 0.000000 0.000000 0.000000
# 4 0.000000 0.000000 0.000000 0.046102 0.000000 0.000000
# 5 0.000000 0.000000 0.000000 0.000000 0.046102 0.000000
# 6 0.000000 0.000000 0.000000 0.000000 0.000000 0.323570
#
#
# Mechanical properties :
#
#
# Convention : Reuss Voigt Hill
#
# Bulk Modulus (GPa) = 54.33044 57.49028 55.91036
# Shear Modulus (GPa) = 10.31226 21.49797 15.90512
#
# Velocity S-wave (km/s) = 2.26879 3.27580 2.81765
# Velocity P-wave (km/s) = 5.82946 6.55778 6.20432
#
# Compressibility (1/GPa) = 0.01840589
#
# Stress axis : x y z
#
# Youngs Moduli (GPa) = 87.99551 87.99551 55.71067
#
# Poissons Ratio (x) = 0.26485 0.22636
# Poissons Ratio (y) = 0.26485 0.22636
# Poissons Ratio (z) = 0.35754 0.35754
#
# Static dielectric constant tensor:
#      x y z
#    x 1.739010 0.000000 0.000000 
#    y 0.000000 1.739010 0.000000 
#    z 0.000000 0.000000 1.713400 
# 
# From -- ./inp_files/21580.got.cif
#   From: 2010.05.17/outbox.cif.g08.bks.cpg/sg91_11_cif.got.tgz:21580.got - 2010.06.03 19:20:03.
