data_PCOD9548245
_publ_section_title
;
Structure prediction by ZEFSAII (Michael W. Deem and Ramdas Pophale) SiO2 
 PCOD9548245
Probable space group: P 41 2 2
;
_chemical_formula_sum "Si O2"
_cell_formula_units_Z 20
_cell_length_a 14.448671
_cell_length_b 14.448671
_cell_length_c 4.853867
_cell_angle_alpha 90.000000
_cell_angle_beta 90.000000
_cell_angle_gamma 90.000000
_cell_volume 1013.313145
_symmetry_space_group_name_H-M "P 41 2 2"
_symmetry_group_IT_number 91
_symmetry_cell_setting 'tetragonal'
loop_
_space_group_symop_operation_xyz
x,y,z
-y,x,1/4+z
-x,-y,1/2+z
y,-x,3/4+z
x,-y,1/2-z
-x,y,-z
y,x,3/4-z
-y,-x,1/4-z
loop_
_atom_site_type_symbol
_atom_site_label
_atom_site_fract_x
_atom_site_fract_y
_atom_site_fract_z
Si Si1 0.102076 0.102076 0.875000
Si Si2 0.837757 0.706317 0.267302
Si Si3 0.391238 0.912413 0.055488
O O1 0.116165 0.193817 0.685716
O O2 0.109078 0.000000 0.750000
O O3 0.738445 0.738445 0.375000
O O4 0.895410 0.662089 0.520439
O O5 0.831659 0.638272 0.012591
O O6 0.365373 0.000000 0.250000
O O7 0.500000 0.918286 0.000000
#
# Coordination Sequence:
#
# PCOD9548245 Si02
#       3
#     4   8   8
#     4  10  22  36  54  82 120 174 214 238 282 348
#     4  10  24  40  57  85 123 161 207 251 307 351
#     4  12  22  39  62  87 116 160 212 264 313 363
#
# _framework density 19.737237
#
# number of rings (size 3 to 8) (size 9 to 14) (size 15 to 20)
#    1.200    0.000    0.000    8.400    0.000    4.800 
#    0.000    0.000    0.000    0.000    0.000    0.000 
#    0.000   44.800    0.000    0.000    0.000    0.000 
#
# Total GULP energy -111434.776517 kJ/mol
# GULP energy per Si atom -5571.738826 kJ/mol
# Density = 1.969231 g / cm^3
# Si number density = 19.737237 Si / 1000 Ang^3
#
#
#
# Elastic Constant Matrix: (Units=GPa)
#
#
# Indices 1 2 3 4 5 6 
#
# 1 73.0530 9.2104 27.6802 0.0000 0.0000 0.0000
# 2 9.2104 73.0530 27.6802 0.0000 0.0000 0.0000
# 3 27.6802 27.6802 127.4254 0.0000 0.0000 0.0000
# 4 0.0000 0.0000 0.0000 33.3431 0.0000 0.0000
# 5 0.0000 0.0000 0.0000 0.0000 33.3431 0.0000
# 6 0.0000 0.0000 0.0000 0.0000 0.0000 3.3751
#
#
#
# Elastic Compliance Matrix: (Units=1/GPa)
#
#
# Indices 1 2 3 4 5 6 
#
# 1 0.014950 -0.000713 -0.003093 0.000000 0.000000 0.000000
# 2 -0.000713 0.014950 -0.003093 0.000000 0.000000 0.000000
# 3 -0.003093 -0.003093 0.009191 0.000000 0.000000 0.000000
# 4 0.000000 0.000000 0.000000 0.029991 0.000000 0.000000
# 5 0.000000 0.000000 0.000000 0.000000 0.029991 0.000000
# 6 0.000000 0.000000 0.000000 0.000000 0.000000 0.296284
#
#
# Mechanical properties :
#
#
# Convention : Reuss Voigt Hill
#
# Bulk Modulus (GPa) = 39.53324 44.74144 42.13734
# Shear Modulus (GPa) = 11.97353 27.94298 19.95825
#
# Velocity S-wave (km/s) = 2.46569 3.76673 3.18338
# Velocity P-wave (km/s) = 5.30843 6.45255 5.90825
#
# Compressibility (1/GPa) = 0.02529517
#
# Stress axis : x y z
#
# Youngs Moduli (GPa) = 66.88766 66.88766 108.79759
#
# Poissons Ratio (x) = 0.04770 0.33648
# Poissons Ratio (y) = 0.04770 0.33648
# Poissons Ratio (z) = 0.20687 0.20687
#
# Static dielectric constant tensor:
#      x y z
#    x 1.740520 0.000000 0.000000 
#    y 0.000000 1.740520 0.000000 
#    z 0.000000 0.000000 1.803440 
# 
# From -- ./inp_files/1735.got.cif
#   From: 2010.05.17/outbox.cif.g08.bks.cpg/sg91_1_cif.got.tgz:1735.got - 2010.06.03 19:20:03.
