data_PCOD9548436
_publ_section_title
;
Structure prediction by ZEFSAII (Michael W. Deem and Ramdas Pophale) SiO2 
 PCOD9548436
Probable space group: P 41 2 2
;
_chemical_formula_sum "Si O2"
_cell_formula_units_Z 24
_cell_length_a 14.278243
_cell_length_b 14.278243
_cell_length_c 5.433676
_cell_angle_alpha 90.000000
_cell_angle_beta 90.000000
_cell_angle_gamma 90.000000
_cell_volume 1107.753871
_symmetry_space_group_name_H-M "P 41 2 2"
_symmetry_group_IT_number 91
_symmetry_cell_setting 'tetragonal'
loop_
_space_group_symop_operation_xyz
x,y,z
-y,x,1/4+z
-x,-y,1/2+z
y,-x,3/4+z
x,-y,1/2-z
-x,y,-z
y,x,3/4-z
-y,-x,1/4-z
loop_
_atom_site_type_symbol
_atom_site_label
_atom_site_fract_x
_atom_site_fract_y
_atom_site_fract_z
Si Si1 0.273691 0.000000 0.750000
Si Si2 0.605410 0.000000 0.750000
Si Si3 0.844015 0.500000 0.750000
Si Si4 0.201211 0.798790 0.625000
Si Si5 0.308024 0.350705 0.121461
O O1 0.334279 0.001281 0.499630
O O2 0.216427 0.903709 0.717610
O O3 0.540725 0.090410 0.713805
O O4 0.780152 0.581321 0.637387
O O5 0.242564 0.729264 0.838221
O O6 0.361048 0.361048 0.375000
O O7 0.366226 0.366226 0.875000
#
# Coordination Sequence:
#
# PCOD9548436 Si02
#       5
#     4   4   4   4   8
#     4  12  25  44  69  92 150 174 245 276 374 411
#     4  12  25  40  65 110 126 178 223 320 346 433
#     4  12  24  40  72 102 142 180 238 302 378 424
#     4  10  24  44  62  96 132 188 216 290 328 436
#     4  10  23  41  62  95 137 176 218 278 353 425
#
# _framework density 21.665462000000002
#
# number of rings (size 3 to 8) (size 9 to 14) (size 15 to 20)
#    1.000    0.000    3.333    3.000    0.000    4.000 
#    0.000    1.667    0.000    2.000    0.000    0.000 
#    0.000    0.000    0.000    0.000    0.000    0.000 
#
# Total GULP energy -133929.713802 kJ/mol
# GULP energy per Si atom -5580.404742 kJ/mol
# Density = 2.161615 g / cm^3
# Si number density = 21.665462 Si / 1000 Ang^3
#
#
#
# Elastic Constant Matrix: (Units=GPa)
#
#
# Indices 1 2 3 4 5 6 
#
# 1 78.3362 33.9538 52.3534 0.0000 0.0000 0.0000
# 2 33.9538 78.3380 52.3540 0.0000 0.0000 0.0000
# 3 52.3534 52.3540 206.5052 0.0000 0.0000 0.0000
# 4 0.0000 0.0000 0.0000 26.5607 0.0000 0.0000
# 5 0.0000 0.0000 0.0000 0.0000 26.5602 0.0000
# 6 0.0000 0.0000 0.0000 0.0000 0.0000 45.5195
#
#
#
# Elastic Compliance Matrix: (Units=1/GPa)
#
#
# Indices 1 2 3 4 5 6 
#
# 1 0.017097 -0.005434 -0.002957 0.000000 0.000000 0.000000
# 2 -0.005434 0.017097 -0.002957 0.000000 0.000000 0.000000
# 3 -0.002957 -0.002957 0.006342 0.000000 0.000000 0.000000
# 4 0.000000 0.000000 0.000000 0.037650 0.000000 0.000000
# 5 0.000000 0.000000 0.000000 0.000000 0.037650 0.000000
# 6 0.000000 0.000000 0.000000 0.000000 0.000000 0.021969
#
#
# Mechanical properties :
#
#
# Convention : Reuss Voigt Hill
#
# Bulk Modulus (GPa) = 56.05443 71.16687 63.61065
# Shear Modulus (GPa) = 30.03985 34.69596 32.36790
#
# Velocity S-wave (km/s) = 3.72766 4.00614 3.86941
# Velocity P-wave (km/s) = 6.66754 7.37009 7.02760
#
# Compressibility (1/GPa) = 0.01783980
#
# Stress axis : x y z
#
# Youngs Moduli (GPa) = 58.49001 58.49139 157.68716
#
# Poissons Ratio (x) = 0.31786 0.46624
# Poissons Ratio (y) = 0.31785 0.46623
# Poissons Ratio (z) = 0.17294 0.17294
#
# Static dielectric constant tensor:
#      x y z
#    x 1.810600 0.000000 0.000000 
#    y 0.000000 1.810590 0.000000 
#    z 0.000000 0.000000 1.865790 
# 
# From -- ./inp_files/8257.got.cif
#   From: 2010.05.17/outbox.cif.g08.bks.cpg/sg91_5_cif.got.tgz:8257.got - 2010.06.03 19:20:03.
