data_PCOD9548123
_publ_section_title
;
Structure prediction by ZEFSAII (Michael W. Deem and Ramdas Pophale) SiO2 
 PCOD9548123
Probable space group: P 41 2 2
;
_chemical_formula_sum "Si O2"
_cell_formula_units_Z 48
_cell_length_a 21.470586
_cell_length_b 21.470586
_cell_length_c 5.158698
_cell_angle_alpha 90.000000
_cell_angle_beta 90.000000
_cell_angle_gamma 90.000000
_cell_volume 2378.087882
_symmetry_space_group_name_H-M "P 41 2 2"
_symmetry_group_IT_number 91
_symmetry_cell_setting 'tetragonal'
loop_
_space_group_symop_operation_xyz
x,y,z
-y,x,1/4+z
-x,-y,1/2+z
y,-x,3/4+z
x,-y,1/2-z
-x,y,-z
y,x,3/4-z
-y,-x,1/4-z
loop_
_atom_site_type_symbol
_atom_site_label
_atom_site_fract_x
_atom_site_fract_y
_atom_site_fract_z
Si Si1 0.322038 0.600734 0.800420
Si Si2 0.570732 0.187280 0.025313
Si Si3 0.282278 0.282278 0.375000
Si Si4 0.349017 0.840329 0.020089
Si Si5 0.432114 0.432114 0.375000
Si Si6 0.829369 0.075063 0.232531
Si Si7 0.074362 0.245968 0.482764
O O1 0.379888 0.620113 0.625000
O O2 0.262164 0.569586 0.672378
O O3 0.295764 0.665898 0.909183
O O4 0.360225 0.565333 0.018202
O O5 0.613020 0.157108 0.251523
O O6 0.500000 0.164486 0.000000
O O7 0.602653 0.177421 0.746909
O O8 0.214932 0.297447 0.261020
O O9 0.310451 0.899051 0.123651
O O10 0.500000 0.433734 0.500000
O O11 0.890456 0.109545 0.125000
O O12 0.805700 0.092803 0.518226
O O13 0.837372 0.000000 0.250000
O O14 0.776205 0.093444 0.020451
O O15 0.000000 0.249363 0.500000
#
# Coordination Sequence:
#
# PCOD9548123 Si02
#       7
#     8   8   4   8   4   8   8
#     4  10  21  39  55  76 109 146 190 244 314 372
#     4  11  24  39  64  88 122 156 199 254 326 389
#     4   9  20  34  54  86 118 140 196 246 310 370
#     4  11  22  39  60  94 122 160 202 261 311 383
#     4  11  28  38  52  76 102 150 214 262 298 370
#     4  10  21  38  59  92 131 177 225 263 306 364
#     4  10  22  40  63  92 129 171 214 260 318 377
#
# _framework density 20.184284000000002
#
# number of rings (size 3 to 8) (size 9 to 14) (size 15 to 20)
#    0.000    1.667    1.667    2.000    5.833    0.000 
#    0.000    2.500    0.000    2.000    0.000    0.000 
#    0.000    0.000    0.000    0.000    0.000    0.000 
#
# Total GULP energy -267375.912573 kJ/mol
# GULP energy per Si atom -5570.331512 kJ/mol
# Density = 2.013834 g / cm^3
# Si number density = 20.184284 Si / 1000 Ang^3
#
#
#
# Elastic Constant Matrix: (Units=GPa)
#
#
# Indices 1 2 3 4 5 6 
#
# 1 88.3374 0.0838 16.3805 0.0000 0.0000 0.0000
# 2 0.0838 88.3487 16.3733 0.0000 0.0000 0.0000
# 3 16.3805 16.3733 70.7182 0.0000 0.0000 0.0000
# 4 0.0000 0.0000 0.0000 -4.6262 0.0000 0.0000
# 5 0.0000 0.0000 0.0000 0.0000 -4.6318 0.0000
# 6 0.0000 0.0000 0.0000 0.0000 0.0000 53.4946
#
#
#
# Elastic Compliance Matrix: (Units=1/GPa)
#
#
# Indices 1 2 3 4 5 6 
#
# 1 0.011851 0.000520 -0.002865 0.000000 0.000000 0.000000
# 2 0.000520 0.011849 -0.002864 0.000000 0.000000 0.000000
# 3 -0.002865 -0.002864 0.015467 0.000000 0.000000 0.000000
# 4 0.000000 0.000000 0.000000 -0.216162 0.000000 0.000000
# 5 0.000000 0.000000 0.000000 0.000000 -0.215898 0.000000
# 6 0.000000 0.000000 0.000000 0.000000 0.000000 0.018693
#
#
# Mechanical properties :
#
#
# Convention : Reuss Voigt Hill
#
# Bulk Modulus (GPa) = 34.78419 34.78659 34.78539
# Shear Modulus (GPa) = -14.11643 23.15178 4.51768
#
# Velocity S-wave (km/s) = -2.64744 3.39044 1.49769
# Velocity P-wave (km/s) = 2.81522 5.70953 4.50134
#
# Compressibility (1/GPa) = 0.02874869
#
# Stress axis : x y z
#
# Youngs Moduli (GPa) = 84.38052 84.39516 64.65210
#
# Poissons Ratio (x) = -0.04387 0.18526
# Poissons Ratio (y) = -0.04386 0.18515
# Poissons Ratio (z) = 0.24179 0.24169
#
# Static dielectric constant tensor:
#      x y z
#    x 1.713360 0.000000 0.000000 
#    y 0.000000 1.713360 0.000000 
#    z 0.000000 0.000000 1.533760 
# 
# From -- ./inp_files/1297.got.cif
#   From: 2010.05.17/outbox.cif.g08.bks.cpg/sg91_1_cif.got.tgz:1297.got - 2010.06.03 19:20:03.
