data_PCOD9548306
_publ_section_title
;
Structure prediction by ZEFSAII (Michael W. Deem and Ramdas Pophale) SiO2 
 PCOD9548306
Probable space group: P 41 2 2
;
_chemical_formula_sum "Si O2"
_cell_formula_units_Z 40
_cell_length_a 8.235209
_cell_length_b 8.235209
_cell_length_c 25.023686
_cell_angle_alpha 90.000000
_cell_angle_beta 90.000000
_cell_angle_gamma 90.000000
_cell_volume 1697.073035
_symmetry_space_group_name_H-M "P 41 2 2"
_symmetry_group_IT_number 91
_symmetry_cell_setting 'tetragonal'
loop_
_space_group_symop_operation_xyz
x,y,z
-y,x,1/4+z
-x,-y,1/2+z
y,-x,3/4+z
x,-y,1/2-z
-x,y,-z
y,x,3/4-z
-y,-x,1/4-z
loop_
_atom_site_type_symbol
_atom_site_label
_atom_site_fract_x
_atom_site_fract_y
_atom_site_fract_z
Si Si1 0.298117 0.948908 0.308560
Si Si2 0.903000 0.442274 0.659982
Si Si3 0.946073 0.800851 0.322071
Si Si4 0.634561 0.611298 0.114291
Si Si5 0.673043 0.808977 0.526530
O O1 0.390069 0.785845 0.325527
O O2 0.107619 0.905256 0.310845
O O3 0.343889 0.000000 0.250000
O O4 0.352050 0.074367 0.353880
O O5 0.717162 0.494136 0.663868
O O6 0.995357 0.616198 0.665361
O O7 0.002066 0.337954 0.703166
O O8 0.866879 0.866879 0.375000
O O9 0.822668 0.797862 0.272072
O O10 0.564587 0.435414 0.125000
O O11 0.700360 0.692000 0.170057
O O12 0.500000 0.763550 0.500000
#
# Coordination Sequence:
#
# PCOD9548306 Si02
#       5
#     8   8   8   8   8
#     4  10  23  40  61  93 129 166 209 261 319 384
#     4   9  21  40  58  85 124 161 203 254 316 381
#     4  10  22  41  65  90 123 167 215 266 323 386
#     4  10  22  40  64  94 127 169 217 263 319 387
#     4   9  20  39  61  88 126 165 203 264 326 374
#
# _framework density 23.569994000000001
#
# number of rings (size 3 to 8) (size 9 to 14) (size 15 to 20)
#    0.000    2.400    0.000    0.000    0.000   17.600 
#    0.000    5.000    0.000    0.000    0.000    0.000 
#    0.000    0.000    0.000    0.000    0.000    0.000 
#
# Total GULP energy -223635.064190 kJ/mol
# GULP energy per Si atom -5590.876605 kJ/mol
# Density = 2.351635 g / cm^3
# Si number density = 23.569994 Si / 1000 Ang^3
#
#
#
# Elastic Constant Matrix: (Units=GPa)
#
#
# Indices 1 2 3 4 5 6 
#
# 1 14.0151 56.7019 27.9393 0.0000 0.0000 0.0000
# 2 56.7019 14.0169 27.9392 0.0000 0.0000 0.0000
# 3 27.9393 27.9392 139.5073 0.0000 0.0000 0.0000
# 4 0.0000 0.0000 0.0000 29.2047 0.0000 0.0000
# 5 0.0000 0.0000 0.0000 0.0000 29.2040 0.0000
# 6 0.0000 0.0000 0.0000 0.0000 0.0000 28.3320
#
#
#
# Elastic Compliance Matrix: (Units=1/GPa)
#
#
# Indices 1 2 3 4 5 6 
#
# 1 -0.003314 0.020113 -0.003364 0.000000 0.000000 0.000000
# 2 0.020113 -0.003314 -0.003364 0.000000 0.000000 0.000000
# 3 -0.003364 -0.003364 0.008516 0.000000 0.000000 0.000000
# 4 0.000000 0.000000 0.000000 0.034241 0.000000 0.000000
# 5 0.000000 0.000000 0.000000 0.000000 0.034242 0.000000
# 6 0.000000 0.000000 0.000000 0.000000 0.000000 0.035296
#
#
# Mechanical properties :
#
#
# Convention : Reuss Voigt Hill
#
# Bulk Modulus (GPa) = 34.89625 43.63333 39.26479
# Shear Modulus (GPa) = 56.52907 21.01207 38.77057
#
# Velocity S-wave (km/s) = 4.90261 2.98900 4.06015
# Velocity P-wave (km/s) = 6.84726 5.51947 6.21890
#
# Compressibility (1/GPa) = 0.02865637
#
# Stress axis : x y z
#
# Youngs Moduli (GPa) = -301.72500 -301.78994 117.43077
#
# Poissons Ratio (x) = 6.06991 0.39507
# Poissons Ratio (y) = 6.06860 0.39509
# Poissons Ratio (z) = -1.01509 -1.01536
#
# Static dielectric constant tensor:
#      x y z
#    x 1.928640 0.000000 0.000000 
#    y 0.000000 1.928640 0.000000 
#    z 0.000000 0.000000 1.882920 
# 
# From -- ./inp_files/6801.got.cif
#   From: 2010.05.17/outbox.cif.g08.bks.cpg/sg91_4_cif.got.tgz:6801.got - 2010.06.03 19:20:03.
