data_PCOD9548309
_publ_section_title
;
Structure prediction by ZEFSAII (Michael W. Deem and Ramdas Pophale) SiO2 
 PCOD9548309
Probable space group: P 41 2 2
;
_chemical_formula_sum "Si O2"
_cell_formula_units_Z 44
_cell_length_a 8.178077
_cell_length_b 8.178077
_cell_length_c 26.909379
_cell_angle_alpha 90.000000
_cell_angle_beta 90.000000
_cell_angle_gamma 90.000000
_cell_volume 1799.724654
_symmetry_space_group_name_H-M "P 41 2 2"
_symmetry_group_IT_number 91
_symmetry_cell_setting 'tetragonal'
loop_
_space_group_symop_operation_xyz
x,y,z
-y,x,1/4+z
-x,-y,1/2+z
y,-x,3/4+z
x,-y,1/2-z
-x,y,-z
y,x,3/4-z
-y,-x,1/4-z
loop_
_atom_site_type_symbol
_atom_site_label
_atom_site_fract_x
_atom_site_fract_y
_atom_site_fract_z
Si Si1 0.277555 0.422490 0.421067
Si Si2 0.500000 0.449266 0.500000
Si Si3 0.967224 0.926198 0.433412
Si Si4 0.276635 0.660748 0.683040
Si Si5 0.802380 0.316487 0.339902
Si Si6 0.055068 0.705970 0.945274
O O1 0.390984 0.390984 0.375000
O O2 0.369774 0.350289 0.468707
O O3 0.267011 0.617063 0.424908
O O4 0.107232 0.335987 0.414044
O O5 0.605514 0.566758 0.464387
O O6 0.162743 0.900649 0.432727
O O7 0.833671 0.794731 0.452515
O O8 0.921407 0.102588 0.454015
O O9 0.929473 0.929473 0.375000
O O10 0.318617 0.681384 0.625000
O O11 0.163392 0.496471 0.682924
O O12 0.815350 0.331330 0.400520
O O13 0.000000 0.632510 0.000000
#
# Coordination Sequence:
#
# PCOD9548309 Si02
#       6
#     8   4   8   8   8   8
#     4  11  25  43  67  96 140 177 225 289 345 425
#     4  10  22  40  66 108 130 176 242 280 350 436
#     4   9  21  43  64  95 135 175 225 282 352 421
#     4  10  22  40  71  99 136 180 231 292 351 426
#     4  10  22  42  70  94 133 184 223 281 360 408
#     4  11  26  41  66 101 132 177 234 288 352 429
#
# _framework density 24.448183
#
# number of rings (size 3 to 8) (size 9 to 14) (size 15 to 20)
#    0.000    1.818    0.000    3.818   12.727    2.909 
#    0.000    0.000    0.000    0.000    0.000    0.000 
#    0.000    0.000    0.000    0.000    0.000    0.000 
#
# Total GULP energy -245245.546159 kJ/mol
# GULP energy per Si atom -5573.762413 kJ/mol
# Density = 2.439254 g / cm^3
# Si number density = 24.448183 Si / 1000 Ang^3
#
#
#
# Elastic Constant Matrix: (Units=GPa)
#
#
# Indices 1 2 3 4 5 6 
#
# 1 89.9777 11.5945 0.1554 0.0000 0.0000 0.0000
# 2 11.5945 89.9776 0.1553 0.0000 0.0000 0.0000
# 3 0.1554 0.1553 81.4169 0.0000 0.0000 0.0000
# 4 0.0000 0.0000 0.0000 149.0229 0.0000 0.0000
# 5 0.0000 0.0000 0.0000 0.0000 149.0186 0.0000
# 6 0.0000 0.0000 0.0000 0.0000 0.0000 30.6844
#
#
#
# Elastic Compliance Matrix: (Units=1/GPa)
#
#
# Indices 1 2 3 4 5 6 
#
# 1 0.011302 -0.001456 -0.000019 0.000000 0.000000 0.000000
# 2 -0.001456 0.011302 -0.000019 0.000000 0.000000 0.000000
# 3 -0.000019 -0.000019 0.012283 0.000000 0.000000 0.000000
# 4 0.000000 0.000000 0.000000 0.006710 0.000000 0.000000
# 5 0.000000 0.000000 0.000000 0.000000 0.006711 0.000000
# 6 0.000000 0.000000 0.000000 0.000000 0.000000 0.032590
#
#
# Mechanical properties :
#
#
# Convention : Reuss Voigt Hill
#
# Bulk Modulus (GPa) = 31.34999 31.68696 31.51847
# Shear Modulus (GPa) = 52.90065 82.37632 67.63848
#
# Velocity S-wave (km/s) = 4.65670 5.81097 5.26556
# Velocity P-wave (km/s) = 6.46251 7.61657 7.06315
#
# Compressibility (1/GPa) = 0.03189794
#
# Stress axis : x y z
#
# Youngs Moduli (GPa) = 88.48343 88.48335 81.41645
#
# Poissons Ratio (x) = 0.12886 0.00153
# Poissons Ratio (y) = 0.12886 0.00153
# Poissons Ratio (z) = 0.00166 0.00166
#
# Static dielectric constant tensor:
#      x y z
#    x 1.941900 0.000000 0.000000 
#    y 0.000000 1.941900 0.000000 
#    z 0.000000 0.000000 2.066860 
# 
# From -- ./inp_files/7850.got.cif
#   From: 2010.05.17/outbox.cif.g08.bks.cpg/sg91_4_cif.got.tgz:7850.got - 2010.06.03 19:20:03.
