data_PCOD9548050
_publ_section_title
;
Structure prediction by ZEFSAII (Michael W. Deem and Ramdas Pophale) SiO2 
 PCOD9548050
Probable space group: P 41 2 2
;
_chemical_formula_sum "Si O2"
_cell_formula_units_Z 40
_cell_length_a 13.813541
_cell_length_b 13.813541
_cell_length_c 9.313252
_cell_angle_alpha 90.000000
_cell_angle_beta 90.000000
_cell_angle_gamma 90.000000
_cell_volume 1777.098075
_symmetry_space_group_name_H-M "P 41 2 2"
_symmetry_group_IT_number 91
_symmetry_cell_setting 'tetragonal'
loop_
_space_group_symop_operation_xyz
x,y,z
-y,x,1/4+z
-x,-y,1/2+z
y,-x,3/4+z
x,-y,1/2-z
-x,y,-z
y,x,3/4-z
-y,-x,1/4-z
loop_
_atom_site_type_symbol
_atom_site_label
_atom_site_fract_x
_atom_site_fract_y
_atom_site_fract_z
Si Si1 0.199834 0.199834 0.875000
Si Si2 0.256544 0.500000 0.250000
Si Si3 0.796363 0.712339 0.675714
Si Si4 0.006928 0.293857 0.828016
Si Si5 0.416215 0.252522 0.205235
Si Si6 0.906200 0.500000 0.250000
Si Si7 0.395472 0.500000 0.750000
O O1 0.275032 0.210486 0.746298
O O2 0.095963 0.220738 0.803361
O O3 0.202434 0.401316 0.211780
O O4 0.299153 0.467053 0.404469
O O5 0.697926 0.762391 0.733387
O O6 0.903058 0.745973 0.722532
O O7 0.034040 0.401236 0.772532
O O8 0.000000 0.302758 0.000000
O O9 0.474581 0.161333 0.139551
O O10 0.420687 0.327867 0.074795
O O11 0.457444 0.542557 0.625000
#
# Coordination Sequence:
#
# PCOD9548050 Si02
#       7
#     4   4   8   8   8   4   4
#     4  10  20  42  68  98 142 184 240 286 358 442
#     4  12  25  41  67 101 140 184 239 291 371 427
#     4  11  23  40  66 105 138 187 230 302 356 432
#     4  10  21  37  67 105 140 179 237 296 361 425
#     4  11  24  41  69  96 139 185 242 296 360 436
#     4  11  21  42  69 107 136 190 232 304 359 437
#     4  11  26  41  62  92 134 190 243 287 352 434
#
# _framework density 22.508604999999999
#
# number of rings (size 3 to 8) (size 9 to 14) (size 15 to 20)
#    0.000    1.200    2.000    4.800    4.200    3.200 
#    0.000    0.000    0.000    0.000   46.800    0.000 
#    0.000    0.000    0.000    0.000    0.000    0.000 
#
# Total GULP energy -223119.306752 kJ/mol
# GULP energy per Si atom -5577.982669 kJ/mol
# Density = 2.245737 g / cm^3
# Si number density = 22.508605 Si / 1000 Ang^3
#
#
#
# Elastic Constant Matrix: (Units=GPa)
#
#
# Indices 1 2 3 4 5 6 
#
# 1 113.9233 39.0843 22.6732 0.0000 0.0000 0.0000
# 2 39.0843 113.9235 22.6735 0.0000 0.0000 0.0000
# 3 22.6732 22.6735 98.8614 0.0000 0.0000 0.0000
# 4 0.0000 0.0000 0.0000 23.2395 0.0000 0.0000
# 5 0.0000 0.0000 0.0000 0.0000 23.2393 0.0000
# 6 0.0000 0.0000 0.0000 0.0000 0.0000 19.2003
#
#
#
# Elastic Compliance Matrix: (Units=1/GPa)
#
#
# Indices 1 2 3 4 5 6 
#
# 1 0.010187 -0.003175 -0.001608 0.000000 0.000000 0.000000
# 2 -0.003175 0.010187 -0.001608 0.000000 0.000000 0.000000
# 3 -0.001608 -0.001608 0.010853 0.000000 0.000000 0.000000
# 4 0.000000 0.000000 0.000000 0.043030 0.000000 0.000000
# 5 0.000000 0.000000 0.000000 0.000000 0.043031 0.000000
# 6 0.000000 0.000000 0.000000 0.000000 0.000000 0.052083
#
#
# Mechanical properties :
#
#
# Convention : Reuss Voigt Hill
#
# Bulk Modulus (GPa) = 54.21685 55.06335 54.64010
# Shear Modulus (GPa) = 26.55321 29.28763 27.92042
#
# Velocity S-wave (km/s) = 3.43839 3.61109 3.52580
# Velocity P-wave (km/s) = 6.31687 6.47325 6.39554
#
# Compressibility (1/GPa) = 0.01844445
#
# Stress axis : x y z
#
# Youngs Moduli (GPa) = 98.16318 98.16321 92.14173
#
# Poissons Ratio (x) = 0.31166 0.14818
# Poissons Ratio (y) = 0.31166 0.14819
# Poissons Ratio (z) = 0.15787 0.15787
#
# Static dielectric constant tensor:
#      x y z
#    x 1.876480 0.000000 0.000000 
#    y 0.000000 1.876480 0.000000 
#    z 0.000000 0.000000 1.893710 
# 
# From -- ./inp_files/9770.got.cif
#   From: 2010.05.17/outbox.cif.g08.bks.cpg/sg91_5_cif.got.tgz:9770.got - 2010.06.03 19:20:03.
