data_PCOD9548668
_publ_section_title
;
Structure prediction by ZEFSAII (Michael W. Deem and Ramdas Pophale) SiO2 
 PCOD9548668
Probable space group: P 41 2 2
;
_chemical_formula_sum "Si O2"
_cell_formula_units_Z 36
_cell_length_a 11.601527
_cell_length_b 11.601527
_cell_length_c 12.699542
_cell_angle_alpha 90.000000
_cell_angle_beta 90.000000
_cell_angle_gamma 90.000000
_cell_volume 1709.300300
_symmetry_space_group_name_H-M "P 41 2 2"
_symmetry_group_IT_number 91
_symmetry_cell_setting 'tetragonal'
loop_
_space_group_symop_operation_xyz
x,y,z
-y,x,1/4+z
-x,-y,1/2+z
y,-x,3/4+z
x,-y,1/2-z
-x,y,-z
y,x,3/4-z
-y,-x,1/4-z
loop_
_atom_site_type_symbol
_atom_site_label
_atom_site_fract_x
_atom_site_fract_y
_atom_site_fract_z
Si Si1 0.658190 0.005616 0.958995
Si Si2 0.889067 0.061911 0.860021
Si Si3 0.631527 0.733341 0.482559
Si Si4 0.503051 0.000000 0.750000
Si Si5 0.670714 0.840162 0.138833
O O1 0.794331 0.002785 0.935379
O O2 0.585219 0.014152 0.851478
O O3 0.638382 0.126804 0.018330
O O4 0.628367 0.893550 0.027980
O O5 0.880982 0.195941 0.887026
O O6 0.854997 0.000000 0.750000
O O7 0.018131 0.018131 0.875000
O O8 0.500000 0.700561 0.500000
O O9 0.683854 0.683854 0.375000
O O10 0.707217 0.685342 0.580481
O O11 0.415681 0.104110 0.723683
#
# Coordination Sequence:
#
# PCOD9548668 Si02
#       5
#     8   8   8   4   8
#     4  11  23  42  69  95 135 178 222 281 336 405
#     4  11  22  39  61  96 137 171 208 270 342 410
#     4  11  24  45  68  94 132 177 227 283 342 401
#     4  12  24  42  66  98 136 174 228 286 336 404
#     4  11  24  38  65  98 126 177 227 268 341 413
#
# _framework density 21.061249
#
# number of rings (size 3 to 8) (size 9 to 14) (size 15 to 20)
#    0.000    0.889    3.333    4.667    1.556    0.889 
#    0.000    2.222    0.000    0.000    0.000    0.000 
#    0.000    0.000    0.000    0.000    0.000    0.000 
#
# Total GULP energy -200785.897899 kJ/mol
# GULP energy per Si atom -5577.386053 kJ/mol
# Density = 2.101331 g / cm^3
# Si number density = 21.061249 Si / 1000 Ang^3
#
#
#
# Elastic Constant Matrix: (Units=GPa)
#
#
# Indices 1 2 3 4 5 6 
#
# 1 135.8937 47.0973 53.2173 0.0000 0.0000 0.0000
# 2 47.0973 135.8937 53.2173 0.0000 0.0000 0.0000
# 3 53.2173 53.2173 130.6592 0.0000 0.0000 0.0000
# 4 0.0000 0.0000 0.0000 30.7068 0.0000 0.0000
# 5 0.0000 0.0000 0.0000 0.0000 30.7068 0.0000
# 6 0.0000 0.0000 0.0000 0.0000 0.0000 15.3667
#
#
#
# Elastic Compliance Matrix: (Units=1/GPa)
#
#
# Indices 1 2 3 4 5 6 
#
# 1 0.009211 -0.002050 -0.002917 0.000000 0.000000 0.000000
# 2 -0.002050 0.009211 -0.002917 0.000000 0.000000 0.000000
# 3 -0.002917 -0.002917 0.010029 0.000000 0.000000 0.000000
# 4 0.000000 0.000000 0.000000 0.032566 0.000000 0.000000
# 5 0.000000 0.000000 0.000000 0.000000 0.032566 0.000000
# 6 0.000000 0.000000 0.000000 0.000000 0.000000 0.065076
#
#
# Mechanical properties :
#
#
# Convention : Reuss Voigt Hill
#
# Bulk Modulus (GPa) = 78.83372 78.83447 78.83409
# Shear Modulus (GPa) = 27.98672 31.95038 29.96855
#
# Velocity S-wave (km/s) = 3.64926 3.89912 3.77626
# Velocity P-wave (km/s) = 7.43425 7.60153 7.51835
#
# Compressibility (1/GPa) = 0.01268493
#
# Stress axis : x y z
#
# Youngs Moduli (GPa) = 108.56009 108.56009 99.70594
#
# Poissons Ratio (x) = 0.22257 0.29082
# Poissons Ratio (y) = 0.22257 0.29082
# Poissons Ratio (z) = 0.31664 0.31664
#
# Static dielectric constant tensor:
#      x y z
#    x 1.743910 0.000000 0.000000 
#    y 0.000000 1.743910 0.000000 
#    z 0.000000 0.000000 1.871990 
# 
# From -- ./inp_files/15668.got.cif
#   From: 2010.05.17/outbox.cif.g08.bks.cpg/sg91_8_cif.got.tgz:15668.got - 2010.06.03 19:20:03.
