data_PCOD9548951
_publ_section_title
;
Structure prediction by ZEFSAII (Michael W. Deem and Ramdas Pophale) SiO2 
 PCOD9548951
Probable space group: P 41 21 2
;
_chemical_formula_sum "Si O2"
_cell_formula_units_Z 40
_cell_length_a 11.575950
_cell_length_b 11.575950
_cell_length_c 12.888975
_cell_angle_alpha 90.000000
_cell_angle_beta 90.000000
_cell_angle_gamma 90.000000
_cell_volume 1727.156399
_symmetry_space_group_name_H-M "P 41 21 2"
_symmetry_group_IT_number 92
_symmetry_cell_setting 'tetragonal'
loop_
_space_group_symop_operation_xyz
x,y,z
1/2-y,1/2+x,1/4+z
-x,-y,1/2+z
1/2+y,1/2-x,3/4+z
1/2+x,1/2-y,3/4-z
1/2-x,1/2+y,1/4-z
y,x,-z
-y,-x,1/2-z
loop_
_atom_site_type_symbol
_atom_site_label
_atom_site_fract_x
_atom_site_fract_y
_atom_site_fract_z
Si Si1 0.391723 0.724164 0.936432
Si Si2 0.444418 0.130733 0.557763
Si Si3 0.022484 0.840496 0.166685
Si Si4 0.725477 0.790503 0.617566
Si Si5 0.499104 0.893867 0.451620
O O1 0.341522 0.827081 0.866597
O O2 0.382957 0.601421 0.879137
O O3 0.514467 0.774672 0.975139
O O4 0.321164 0.706023 0.043326
O O5 0.435800 0.004273 0.503345
O O6 0.547815 0.105386 0.640518
O O7 0.009698 0.715674 0.222903
O O8 0.133751 0.809454 0.097444
O O9 0.066694 0.933307 0.250000
O O10 0.763818 0.763818 0.500000
O O11 0.663559 0.914884 0.617015
#
# Coordination Sequence:
#
# PCOD9548951 Si02
#       5
#     8   8   8   8   8
#     4  10  23  38  63  95 125 167 215 268 324 391
#     4  10  20  39  62  93 122 162 216 263 316 397
#     4  10  20  39  59  88 126 162 205 265 317 377
#     4  10  20  38  65  92 122 161 213 266 319 378
#     4  10  19  36  67  90 117 165 211 263 326 368
#
# _framework density 23.159454
#
# number of rings (size 3 to 8) (size 9 to 14) (size 15 to 20)
#    0.000    2.000    2.000    2.400    2.800    0.000 
#    7.200    1.000    4.400    0.000    0.000    0.000 
#    0.000    0.000    0.000    0.000    0.000    0.000 
#
# Total GULP energy -222970.375943 kJ/mol
# GULP energy per Si atom -5574.259399 kJ/mol
# Density = 2.310674 g / cm^3
# Si number density = 23.159454 Si / 1000 Ang^3
#
#
#
# Elastic Constant Matrix: (Units=GPa)
#
#
# Indices 1 2 3 4 5 6 
#
# 1 49.9511 -0.6786 -3.3386 0.0000 0.0000 0.0000
# 2 -0.6786 49.9517 -3.3380 0.0000 0.0000 0.0000
# 3 -3.3386 -3.3380 50.1107 0.0000 0.0000 0.0000
# 4 0.0000 0.0000 0.0000 21.7435 0.0000 0.0000
# 5 0.0000 0.0000 0.0000 0.0000 21.7429 0.0000
# 6 0.0000 0.0000 0.0000 0.0000 0.0000 15.5253
#
#
#
# Elastic Compliance Matrix: (Units=1/GPa)
#
#
# Indices 1 2 3 4 5 6 
#
# 1 0.020116 0.000364 0.001364 0.000000 0.000000 0.000000
# 2 0.000364 0.020115 0.001364 0.000000 0.000000 0.000000
# 3 0.001364 0.001364 0.020138 0.000000 0.000000 0.000000
# 4 0.000000 0.000000 0.000000 0.045991 0.000000 0.000000
# 5 0.000000 0.000000 0.000000 0.000000 0.045992 0.000000
# 6 0.000000 0.000000 0.000000 0.000000 0.000000 0.064411
#
#
# Mechanical properties :
#
#
# Convention : Reuss Voigt Hill
#
# Bulk Modulus (GPa) = 15.02516 15.03369 15.02943
# Shear Modulus (GPa) = 21.48125 22.29360 21.88742
#
# Velocity S-wave (km/s) = 3.04885 3.10597 3.07754
# Velocity P-wave (km/s) = 4.34693 4.40093 4.37401
#
# Compressibility (1/GPa) = 0.06655502
#
# Stress axis : x y z
#
# Youngs Moduli (GPa) = 49.71231 49.71304 49.65841
#
# Poissons Ratio (x) = -0.01812 -0.06776
# Poissons Ratio (y) = -0.01812 -0.06774
# Poissons Ratio (z) = -0.06783 -0.06782
#
# Static dielectric constant tensor:
#      x y z
#    x 1.954260 0.000000 0.000000 
#    y 0.000000 1.954260 0.000000 
#    z 0.000000 0.000000 1.937770 
# 
# From -- ./inp_files/2637.got.cif
#   From: 2010.05.17/outbox.cif.g08.bks.cpg/sg92_2_cif.got.tgz:2637.got - 2010.06.03 19:35:17.
