data_PCOD9548912
_publ_section_title
;
Structure prediction by ZEFSAII (Michael W. Deem and Ramdas Pophale) SiO2 
 PCOD9548912
Probable space group: P 41 21 2
;
_chemical_formula_sum "Si O2"
_cell_formula_units_Z 60
_cell_length_a 12.343597
_cell_length_b 12.343597
_cell_length_c 19.069591
_cell_angle_alpha 90.000000
_cell_angle_beta 90.000000
_cell_angle_gamma 90.000000
_cell_volume 2905.526541
_symmetry_space_group_name_H-M "P 41 21 2"
_symmetry_group_IT_number 92
_symmetry_cell_setting 'tetragonal'
loop_
_space_group_symop_operation_xyz
x,y,z
1/2-y,1/2+x,1/4+z
-x,-y,1/2+z
1/2+y,1/2-x,3/4+z
1/2+x,1/2-y,3/4-z
1/2-x,1/2+y,1/4-z
y,x,-z
-y,-x,1/2-z
loop_
_atom_site_type_symbol
_atom_site_label
_atom_site_fract_x
_atom_site_fract_y
_atom_site_fract_z
Si Si1 0.811230 0.874564 0.164682
Si Si2 0.307176 0.037300 0.281089
Si Si3 0.349484 0.945297 0.901248
Si Si4 0.180563 0.962088 0.791604
Si Si5 0.882254 0.117747 0.750000
Si Si6 0.040948 0.205726 0.973967
Si Si7 0.505439 0.519283 0.637435
Si Si8 0.399871 0.052988 0.137579
O O1 0.867247 0.761309 0.182828
O O2 0.682537 0.875851 0.155415
O O3 0.887395 0.926679 0.104028
O O4 0.833236 0.944986 0.234616
O O5 0.238099 0.934542 0.248555
O O6 0.367578 0.091002 0.215175
O O7 0.376821 0.981592 0.341275
O O8 0.296802 0.959594 0.824945
O O9 0.444370 0.032791 0.903196
O O10 0.268667 0.978659 0.964467
O O11 0.145179 0.854822 0.750000
O O12 0.100187 0.983495 0.856613
O O13 0.922894 0.061467 0.821035
O O14 0.981312 0.096308 0.947030
O O15 0.046578 0.290194 0.909275
O O16 0.157890 0.157890 0.000000
#
# Coordination Sequence:
#
# PCOD9548912 Si02
#       8
#     8   8   8   8   4   8   8   8
#     4  10  23  44  70  99 139 196 240 300 365 448
#     4  11  24  43  70 102 149 190 245 304 370 454
#     4  12  26  43  67 102 148 193 232 306 383 446
#     4  10  19  40  69  88 125 181 238 290 349 437
#     4  10  18  40  70  98 130 194 232 290 362 422
#     4  12  24  42  72 110 141 187 254 316 372 453
#     4  10  18  40  69 102 132 175 251 294 354 437
#     4  12  26  45  64 111 152 187 239 310 387 447
#
# _framework density 20.650303999999998
#
# number of rings (size 3 to 8) (size 9 to 14) (size 15 to 20)
#    0.000    1.067    7.333    0.800    0.933    4.267 
#    0.000    0.667    0.000    0.000    0.000    0.000 
#    0.000    0.000    0.000    0.000    0.000    0.000 
#
# Total GULP energy -334350.650101 kJ/mol
# GULP energy per Si atom -5572.510835 kJ/mol
# Density = 2.060330 g / cm^3
# Si number density = 20.650304 Si / 1000 Ang^3
#
#
#
# Elastic Constant Matrix: (Units=GPa)
#
#
# Indices 1 2 3 4 5 6 
#
# 1 83.0786 36.7059 30.2379 0.0000 0.0000 0.0000
# 2 36.7059 83.0777 30.2378 0.0000 0.0000 0.0000
# 3 30.2379 30.2378 49.9892 0.0000 0.0000 0.0000
# 4 0.0000 0.0000 0.0000 39.4867 0.0000 0.0000
# 5 0.0000 0.0000 0.0000 0.0000 39.3915 0.0000
# 6 0.0000 0.0000 0.0000 0.0000 0.0000 26.4530
#
#
#
# Elastic Compliance Matrix: (Units=1/GPa)
#
#
# Indices 1 2 3 4 5 6 
#
# 1 0.016792 -0.004773 -0.007270 0.000000 0.000000 0.000000
# 2 -0.004773 0.016792 -0.007270 0.000000 0.000000 0.000000
# 3 -0.007270 -0.007270 0.028799 0.000000 0.000000 0.000000
# 4 0.000000 0.000000 0.000000 0.025325 0.000000 0.000000
# 5 0.000000 0.000000 0.000000 0.000000 0.025386 0.000000
# 6 0.000000 0.000000 0.000000 0.000000 0.000000 0.037803
#
#
# Mechanical properties :
#
#
# Convention : Reuss Voigt Hill
#
# Bulk Modulus (GPa) = 42.09300 45.61207 43.85254
# Shear Modulus (GPa) = 25.32394 28.99717 27.16055
#
# Velocity S-wave (km/s) = 3.50569 3.75133 3.63059
# Velocity P-wave (km/s) = 6.06749 6.39524 6.23352
#
# Compressibility (1/GPa) = 0.02375692
#
# Stress axis : x y z
#
# Youngs Moduli (GPa) = 59.55363 59.55287 34.72297
#
# Poissons Ratio (x) = 0.28424 0.25243
# Poissons Ratio (y) = 0.28424 0.25244
# Poissons Ratio (z) = 0.43295 0.43295
#
# Static dielectric constant tensor:
#      x y z
#    x 0.798680 0.000000 0.000000 
#    y 0.000000 0.807250 0.000000 
#    z 0.000000 0.000000 1.734260 
# 
# From -- ./inp_files/3636.got.cif
#   From: 2010.05.17/outbox.cif.g08.bks.cpg/sg92_2_cif.got.tgz:3636.got - 2010.06.03 19:35:17.
