data_PCOD9548322
_publ_section_title
;
Structure prediction by ZEFSAII (Michael W. Deem and Ramdas Pophale) SiO2 
 PCOD9548322
Probable space group: P 41 2 2
;
_chemical_formula_sum "Si O2"
_cell_formula_units_Z 48
_cell_length_a 10.932191
_cell_length_b 10.932191
_cell_length_c 20.340905
_cell_angle_alpha 90.000000
_cell_angle_beta 90.000000
_cell_angle_gamma 90.000000
_cell_volume 2430.998512
_symmetry_space_group_name_H-M "P 41 2 2"
_symmetry_group_IT_number 91
_symmetry_cell_setting 'tetragonal'
loop_
_space_group_symop_operation_xyz
x,y,z
-y,x,1/4+z
-x,-y,1/2+z
y,-x,3/4+z
x,-y,1/2-z
-x,y,-z
y,x,3/4-z
-y,-x,1/4-z
loop_
_atom_site_type_symbol
_atom_site_label
_atom_site_fract_x
_atom_site_fract_y
_atom_site_fract_z
Si Si1 0.433835 0.750372 0.433834
Si Si2 0.598025 0.538084 0.947343
Si Si3 0.827680 0.495050 0.457886
Si Si4 0.774655 0.868938 0.737915
Si Si5 0.167491 0.148816 0.100355
Si Si6 0.000000 0.286403 0.000000
Si Si7 0.857259 0.142742 0.625000
O O1 0.500000 0.793487 0.500000
O O2 0.434792 0.603553 0.434058
O O3 0.502277 0.785915 0.367117
O O4 0.296278 0.803625 0.429062
O O5 0.598447 0.598447 0.875000
O O6 0.500000 0.591522 0.000000
O O7 0.721720 0.527181 0.988954
O O8 0.894469 0.363232 0.463042
O O9 0.898729 0.617920 0.474414
O O10 0.836852 0.803398 0.676153
O O11 0.784240 0.813692 0.810181
O O12 0.837977 0.000000 0.750000
O O13 0.059554 0.202432 0.056186
O O14 0.163567 0.001113 0.107406
#
# Coordination Sequence:
#
# PCOD9548322 Si02
#       7
#     8   8   8   8   8   4   4
#     4  10  22  41  62  90 126 164 207 261 318 381
#     4  11  21  37  60  87 123 162 205 252 310 377
#     4  11  22  40  61  89 124 165 205 257 320 374
#     4   9  20  40  62  83 117 163 210 253 309 377
#     4  10  23  40  62  93 127 159 215 260 312 396
#     4  12  24  40  64  92 130 164 206 268 328 372
#     4  10  22  42  66  86 120 174 212 256 316 384
#
# _framework density 19.744973999999999
#
# number of rings (size 3 to 8) (size 9 to 14) (size 15 to 20)
#    0.000    1.667    4.167    0.000    4.667    1.333 
#    0.000    0.000    0.000    0.000    0.000    0.000 
#    0.000    0.000    0.000    0.000    0.000    0.000 
#
# Total GULP energy -267396.340712 kJ/mol
# GULP energy per Si atom -5570.757098 kJ/mol
# Density = 1.970003 g / cm^3
# Si number density = 19.744974 Si / 1000 Ang^3
#
#
#
# Elastic Constant Matrix: (Units=GPa)
#
#
# Indices 1 2 3 4 5 6 
#
# 1 56.0876 15.9156 54.1522 0.0000 0.0000 0.0000
# 2 15.9156 56.0871 54.1522 0.0000 0.0000 0.0000
# 3 54.1522 54.1522 216.4920 0.0000 0.0000 0.0000
# 4 0.0000 0.0000 0.0000 24.3459 0.0000 0.0000
# 5 0.0000 0.0000 0.0000 0.0000 24.3458 0.0000
# 6 0.0000 0.0000 0.0000 0.0000 0.0000 20.1755
#
#
#
# Elastic Compliance Matrix: (Units=1/GPa)
#
#
# Indices 1 2 3 4 5 6 
#
# 1 0.023579 -0.001314 -0.005569 0.000000 0.000000 0.000000
# 2 -0.001314 0.023580 -0.005569 0.000000 0.000000 0.000000
# 3 -0.005569 -0.005569 0.007405 0.000000 0.000000 0.000000
# 4 0.000000 0.000000 0.000000 0.041075 0.000000 0.000000
# 5 0.000000 0.000000 0.000000 0.000000 0.041075 0.000000
# 6 0.000000 0.000000 0.000000 0.000000 0.000000 0.049565
#
#
# Mechanical properties :
#
#
# Convention : Reuss Voigt Hill
#
# Bulk Modulus (GPa) = 33.71663 64.12297 48.91980
# Shear Modulus (GPa) = 22.61723 27.40319 25.01021
#
# Velocity S-wave (km/s) = 3.38815 3.72944 3.56288
# Velocity P-wave (km/s) = 5.69379 7.14780 6.46182
#
# Compressibility (1/GPa) = 0.02965896
#
# Stress axis : x y z
#
# Youngs Moduli (GPa) = 42.41015 42.40965 135.03799
#
# Poissons Ratio (x) = 0.05572 0.75208
# Poissons Ratio (y) = 0.05572 0.75209
# Poissons Ratio (z) = 0.23620 0.23620
#
# Static dielectric constant tensor:
#      x y z
#    x 1.730520 0.000000 0.000000 
#    y 0.000000 1.730520 0.000000 
#    z 0.000000 0.000000 1.753580 
# 
# From -- ./inp_files/11983.got.cif
#   From: 2010.05.17/outbox.cif.g08.bks.cpg/sg91_6_cif.got.tgz:11983.got - 2010.06.03 19:20:03.
