data_PCOD9548569
_publ_section_title
;
Structure prediction by ZEFSAII (Michael W. Deem and Ramdas Pophale) SiO2 
 PCOD9548569
Probable space group: P 41 2 2
;
_chemical_formula_sum "Si O2"
_cell_formula_units_Z 24
_cell_length_a 10.792976
_cell_length_b 10.792976
_cell_length_c 8.425779
_cell_angle_alpha 90.000000
_cell_angle_beta 90.000000
_cell_angle_gamma 90.000000
_cell_volume 981.504933
_symmetry_space_group_name_H-M "P 41 2 2"
_symmetry_group_IT_number 91
_symmetry_cell_setting 'tetragonal'
loop_
_space_group_symop_operation_xyz
x,y,z
-y,x,1/4+z
-x,-y,1/2+z
y,-x,3/4+z
x,-y,1/2-z
-x,y,-z
y,x,3/4-z
-y,-x,1/4-z
loop_
_atom_site_type_symbol
_atom_site_label
_atom_site_fract_x
_atom_site_fract_y
_atom_site_fract_z
Si Si1 0.565157 0.245413 0.164377
Si Si2 0.500000 0.830850 0.000000
Si Si3 0.832854 0.167147 0.125000
Si Si4 0.252045 0.949231 0.082713
O O1 0.618289 0.381712 0.125000
O O2 0.493271 0.241195 0.330786
O O3 0.692458 0.167953 0.190857
O O4 0.500000 0.203107 0.000000
O O5 0.376041 0.911343 0.994039
O O6 0.945980 0.169241 0.246552
O O7 0.167837 0.832164 0.125000
O O8 0.297436 0.000000 0.250000
#
# Coordination Sequence:
#
# PCOD9548569 Si02
#       4
#     8   4   4   8
#     4  10  25  50  75 113 158 208 275 337 409 492
#     4  12  28  48  86 110 160 222 276 326 422 516
#     4  10  26  52  74 114 164 206 266 356 406 484
#     4  12  29  48  79 121 161 217 276 341 425 505
#
# _framework density 24.452245999999999
#
# number of rings (size 3 to 8) (size 9 to 14) (size 15 to 20)
#    1.000    0.000    0.000    4.000   14.000    2.667 
#    3.000    0.000    0.000    0.000    0.000    0.000 
#    0.000    0.000    0.000    0.000    0.000    0.000 
#
# Total GULP energy -133984.560052 kJ/mol
# GULP energy per Si atom -5582.690002 kJ/mol
# Density = 2.439659 g / cm^3
# Si number density = 24.452246 Si / 1000 Ang^3
#
#
#
# Elastic Constant Matrix: (Units=GPa)
#
#
# Indices 1 2 3 4 5 6 
#
# 1 303.9868 -143.8037 63.0223 0.0000 0.0000 0.0000
# 2 -143.8037 303.9948 63.0048 0.0000 0.0000 0.0000
# 3 63.0223 63.0048 215.2602 0.0000 0.0000 0.0000
# 4 0.0000 0.0000 0.0000 42.1027 0.0000 0.0000
# 5 0.0000 0.0000 0.0000 0.0000 42.0992 0.0000
# 6 0.0000 0.0000 0.0000 0.0000 0.0000 18.9666
#
#
#
# Elastic Compliance Matrix: (Units=1/GPa)
#
#
# Indices 1 2 3 4 5 6 
#
# 1 0.005172 0.002939 -0.002374 0.000000 0.000000 0.000000
# 2 0.002939 0.005172 -0.002374 0.000000 0.000000 0.000000
# 3 -0.002374 -0.002374 0.006036 0.000000 0.000000 0.000000
# 4 0.000000 0.000000 0.000000 0.023751 0.000000 0.000000
# 5 0.000000 0.000000 0.000000 0.000000 0.023753 0.000000
# 6 0.000000 0.000000 0.000000 0.000000 0.000000 0.052724
#
#
# Mechanical properties :
#
#
# Convention : Reuss Voigt Hill
#
# Bulk Modulus (GPa) = 78.37067 87.52095 82.94581
# Shear Modulus (GPa) = 40.16664 76.70159 58.43411
#
# Velocity S-wave (km/s) = 4.05737 5.60678 4.89378
# Velocity P-wave (km/s) = 7.35321 8.81958 8.11957
#
# Compressibility (1/GPa) = 0.01275988
#
# Stress axis : x y z
#
# Youngs Moduli (GPa) = 193.34630 193.35865 165.68434
#
# Poissons Ratio (x) = -0.56823 0.39340
# Poissons Ratio (y) = -0.56819 0.39335
# Poissons Ratio (z) = 0.45908 0.45905
#
# Static dielectric constant tensor:
#      x y z
#    x 2.055480 0.000000 0.000000 
#    y 0.000000 2.055570 0.000000 
#    z 0.000000 0.000000 2.073880 
# 
# From -- ./inp_files/1881.got.cif
#   From: 2010.05.17/outbox.cif.g08.bks.cpg/sg91_1_cif.got.tgz:1881.got - 2010.06.03 19:20:03.
