data_PCOD9548534
_publ_section_title
;
Structure prediction by ZEFSAII (Michael W. Deem and Ramdas Pophale) SiO2 
 PCOD9548534
Probable space group: P 41 2 2
;
_chemical_formula_sum "Si O2"
_cell_formula_units_Z 36
_cell_length_a 8.540695
_cell_length_b 8.540695
_cell_length_c 21.557239
_cell_angle_alpha 90.000000
_cell_angle_beta 90.000000
_cell_angle_gamma 90.000000
_cell_volume 1572.459840
_symmetry_space_group_name_H-M "P 41 2 2"
_symmetry_group_IT_number 91
_symmetry_cell_setting 'tetragonal'
loop_
_space_group_symop_operation_xyz
x,y,z
-y,x,1/4+z
-x,-y,1/2+z
y,-x,3/4+z
x,-y,1/2-z
-x,y,-z
y,x,3/4-z
-y,-x,1/4-z
loop_
_atom_site_type_symbol
_atom_site_label
_atom_site_fract_x
_atom_site_fract_y
_atom_site_fract_z
Si Si1 0.028555 0.115527 0.307785
Si Si2 0.237345 0.690616 0.853497
Si Si3 0.320551 0.739391 0.990465
Si Si4 0.328563 0.671438 0.625000
Si Si5 0.176669 0.579403 0.505096
O O1 0.033284 0.033284 0.375000
O O2 0.191858 0.193366 0.287495
O O3 0.928454 0.273257 0.322058
O O4 0.980780 0.000000 0.250000
O O5 0.254990 0.765016 0.921396
O O6 0.292280 0.509283 0.854657
O O7 0.340808 0.795382 0.809450
O O8 0.308276 0.553119 0.993495
O O9 0.500000 0.789923 0.000000
O O10 0.214452 0.687119 0.565213
O O11 0.000000 0.517429 0.500000
#
# Coordination Sequence:
#
# PCOD9548534 Si02
#       5
#     8   8   8   4   8
#     4  12  26  49  75 113 158 197 252 314 396 466
#     4  11  24  45  71 105 150 199 246 325 371 473
#     4  11  26  43  71 109 147 200 260 313 382 455
#     4  10  24  46  70 106 148 196 266 308 396 450
#     4  11  24  43  71 105 148 197 251 324 380 460
#
# _framework density 22.894067
#
# number of rings (size 3 to 8) (size 9 to 14) (size 15 to 20)
#    0.000    0.889    2.222    4.667    6.222    3.556 
#    4.000    0.000    0.000    0.000    0.000    0.000 
#    0.000    0.000    0.000    0.000    0.000    0.000 
#
# Total GULP energy -200561.713837 kJ/mol
# GULP energy per Si atom -5571.158718 kJ/mol
# Density = 2.284196 g / cm^3
# Si number density = 22.894067 Si / 1000 Ang^3
#
#
#
# Elastic Constant Matrix: (Units=GPa)
#
#
# Indices 1 2 3 4 5 6 
#
# 1 92.8632 -7.7950 28.1078 0.0000 0.0000 0.0000
# 2 -7.7950 92.8623 28.1080 0.0000 0.0000 0.0000
# 3 28.1078 28.1080 110.0217 0.0000 0.0000 0.0000
# 4 0.0000 0.0000 0.0000 25.0655 0.0000 0.0000
# 5 0.0000 0.0000 0.0000 0.0000 25.0655 0.0000
# 6 0.0000 0.0000 0.0000 0.0000 0.0000 34.4141
#
#
#
# Elastic Compliance Matrix: (Units=1/GPa)
#
#
# Indices 1 2 3 4 5 6 
#
# 1 0.012039 0.002104 -0.003613 0.000000 0.000000 0.000000
# 2 0.002104 0.012039 -0.003613 0.000000 0.000000 0.000000
# 3 -0.003613 -0.003613 0.010935 0.000000 0.000000 0.000000
# 4 0.000000 0.000000 0.000000 0.039895 0.000000 0.000000
# 5 0.000000 0.000000 0.000000 0.000000 0.039895 0.000000
# 6 0.000000 0.000000 0.000000 0.000000 0.000000 0.029058
#
#
# Mechanical properties :
#
#
# Convention : Reuss Voigt Hill
#
# Bulk Modulus (GPa) = 40.37373 43.62098 41.99735
# Shear Modulus (GPa) = 30.79531 33.39747 32.09639
#
# Velocity S-wave (km/s) = 3.67157 3.82354 3.74833
# Velocity P-wave (km/s) = 5.97053 6.21188 6.09240
#
# Compressibility (1/GPa) = 0.02476858
#
# Stress axis : x y z
#
# Youngs Moduli (GPa) = 83.06482 83.06386 91.44697
#
# Poissons Ratio (x) = -0.17478 0.33042
# Poissons Ratio (y) = -0.17479 0.33042
# Poissons Ratio (z) = 0.30013 0.30013
#
# Static dielectric constant tensor:
#      x y z
#    x 1.947410 0.000000 0.000000 
#    y 0.000000 1.947410 0.000000 
#    z 0.000000 0.000000 1.196860 
# 
# From -- ./inp_files/6127.got.cif
#   From: 2010.05.17/outbox.cif.g08.bks.cpg/sg91_4_cif.got.tgz:6127.got - 2010.06.03 19:20:03.
