data_PCOD9548514
_publ_section_title
;
Structure prediction by ZEFSAII (Michael W. Deem and Ramdas Pophale) SiO2 
 PCOD9548514
Probable space group: P 41 2 2
;
_chemical_formula_sum "Si O2"
_cell_formula_units_Z 28
_cell_length_a 8.415922
_cell_length_b 8.415922
_cell_length_c 18.222440
_cell_angle_alpha 90.000000
_cell_angle_beta 90.000000
_cell_angle_gamma 90.000000
_cell_volume 1290.654299
_symmetry_space_group_name_H-M "P 41 2 2"
_symmetry_group_IT_number 91
_symmetry_cell_setting 'tetragonal'
loop_
_space_group_symop_operation_xyz
x,y,z
-y,x,1/4+z
-x,-y,1/2+z
y,-x,3/4+z
x,-y,1/2-z
-x,y,-z
y,x,3/4-z
-y,-x,1/4-z
loop_
_atom_site_type_symbol
_atom_site_label
_atom_site_fract_x
_atom_site_fract_y
_atom_site_fract_z
Si Si1 0.749219 0.633970 0.593118
Si Si2 0.808561 0.500000 0.250000
Si Si3 0.738414 0.738414 0.875000
Si Si4 0.000000 0.837701 0.500000
Si Si5 0.749995 0.071320 0.474498
O O1 0.586331 0.697712 0.558849
O O2 0.757305 0.443378 0.596120
O O3 0.781555 0.703349 0.673903
O O4 0.883408 0.722477 0.544545
O O5 0.934696 0.381279 0.214120
O O6 0.862843 0.759063 0.807926
O O7 0.098290 0.967494 0.546215
#
# Coordination Sequence:
#
# PCOD9548514 Si02
#       5
#     8   4   4   4   8
#     4  11  25  46  70 105 145 185 237 297 361 420
#     4  10  24  44  66 104 140 184 236 288 356 440
#     4  12  26  44  76 106 136 192 240 292 364 432
#     4  10  26  44  70 106 136 192 232 292 354 430
#     4  11  24  47  70 103 143 180 244 289 359 426
#
# _framework density 21.694420999999998
#
# number of rings (size 3 to 8) (size 9 to 14) (size 15 to 20)
#    0.000    1.143    2.857    0.857   12.000    3.429 
#    5.143    0.000    0.000    0.000    0.000    0.000 
#    0.000    0.000    0.000    0.000    0.000    0.000 
#
# Total GULP energy -156188.388005 kJ/mol
# GULP energy per Si atom -5578.156714 kJ/mol
# Density = 2.164504 g / cm^3
# Si number density = 21.694421 Si / 1000 Ang^3
#
#
#
# Elastic Constant Matrix: (Units=GPa)
#
#
# Indices 1 2 3 4 5 6 
#
# 1 109.8735 64.2513 43.2573 0.0000 0.0000 0.0000
# 2 64.2513 109.8735 43.2573 0.0000 0.0000 0.0000
# 3 43.2573 43.2573 102.9514 0.0000 0.0000 0.0000
# 4 0.0000 0.0000 0.0000 27.8257 0.0000 0.0000
# 5 0.0000 0.0000 0.0000 0.0000 27.8257 0.0000
# 6 0.0000 0.0000 0.0000 0.0000 0.0000 17.2202
#
#
#
# Elastic Compliance Matrix: (Units=1/GPa)
#
#
# Indices 1 2 3 4 5 6 
#
# 1 0.014589 -0.007330 -0.003050 0.000000 0.000000 0.000000
# 2 -0.007330 0.014589 -0.003050 0.000000 0.000000 0.000000
# 3 -0.003050 -0.003050 0.012276 0.000000 0.000000 0.000000
# 4 0.000000 0.000000 0.000000 0.035938 0.000000 0.000000
# 5 0.000000 0.000000 0.000000 0.000000 0.035938 0.000000
# 6 0.000000 0.000000 0.000000 0.000000 0.000000 0.058071
#
#
# Mechanical properties :
#
#
# Convention : Reuss Voigt Hill
#
# Bulk Modulus (GPa) = 68.52227 69.35889 68.94058
# Shear Modulus (GPa) = 24.61537 26.03650 25.32594
#
# Velocity S-wave (km/s) = 3.37210 3.46807 3.42042
# Velocity P-wave (km/s) = 6.84216 6.93375 6.88811
#
# Compressibility (1/GPa) = 0.01459379
#
# Stress axis : x y z
#
# Youngs Moduli (GPa) = 68.54615 68.54615 81.45890
#
# Poissons Ratio (x) = 0.50247 0.24843
# Poissons Ratio (y) = 0.50247 0.24843
# Poissons Ratio (z) = 0.20905 0.20905
#
# Static dielectric constant tensor:
#      x y z
#    x 1.957440 0.000000 0.000000 
#    y 0.000000 1.957440 0.000000 
#    z 0.000000 0.000000 2.011100 
# 
# From -- ./inp_files/5332.got.cif
#   From: 2010.05.17/outbox.cif.g08.bks.cpg/sg91_3_cif.got.tgz:5332.got - 2010.06.03 19:20:03.
