data_PCOD9548623
_publ_section_title
;
Structure prediction by ZEFSAII (Michael W. Deem and Ramdas Pophale) SiO2 
 PCOD9548623
Probable space group: P 41 2 2
;
_chemical_formula_sum "Si O2"
_cell_formula_units_Z 40
_cell_length_a 11.118548
_cell_length_b 11.118548
_cell_length_c 17.003271
_cell_angle_alpha 90.000000
_cell_angle_beta 90.000000
_cell_angle_gamma 90.000000
_cell_volume 2101.980232
_symmetry_space_group_name_H-M "P 41 2 2"
_symmetry_group_IT_number 91
_symmetry_cell_setting 'tetragonal'
loop_
_space_group_symop_operation_xyz
x,y,z
-y,x,1/4+z
-x,-y,1/2+z
y,-x,3/4+z
x,-y,1/2-z
-x,y,-z
y,x,3/4-z
-y,-x,1/4-z
loop_
_atom_site_type_symbol
_atom_site_label
_atom_site_fract_x
_atom_site_fract_y
_atom_site_fract_z
Si Si1 0.870093 0.902196 0.969924
Si Si2 0.545178 0.366909 0.914209
Si Si3 0.752729 0.562780 0.899250
Si Si4 0.353470 0.845197 0.307260
Si Si5 0.397252 0.024496 0.445386
O O1 0.881990 0.881990 0.875000
O O2 0.739026 0.966428 0.979828
O O3 0.855645 0.781023 0.022175
O O4 0.000000 0.955157 0.000000
O O5 0.428931 0.428931 0.875000
O O6 0.646620 0.470165 0.916164
O O7 0.610032 0.266855 0.861864
O O8 0.500000 0.327833 0.000000
O O9 0.686345 0.686345 0.875000
O O10 0.846345 0.546838 0.829140
O O11 0.827262 0.569569 0.979201
O O12 0.379788 0.955652 0.363570
O O13 0.500000 0.966963 0.500000
#
# Coordination Sequence:
#
# PCOD9548623 Si02
#       5
#     8   8   8   8   8
#     4  12  22  42  72 100 131 176 232 289 338 405
#     4  11  23  38  58  90 132 172 208 267 346 422
#     4  11  21  35  63  91 119 160 214 273 324 387
#     4  12  21  39  63  93 127 173 220 276 338 399
#     4  12  24  39  65 100 130 168 227 285 335 395
#
# _framework density 19.029675000000001
#
# number of rings (size 3 to 8) (size 9 to 14) (size 15 to 20)
#    0.000    0.400    8.000    2.400    0.000    0.000 
#    0.000    0.000    4.400    0.000    0.000    0.000 
#    0.000    0.000    0.000    0.000    0.000    0.000 
#
# Total GULP energy -222760.697772 kJ/mol
# GULP energy per Si atom -5569.017444 kJ/mol
# Density = 1.898636 g / cm^3
# Si number density = 19.029675 Si / 1000 Ang^3
#
#
#
# Elastic Constant Matrix: (Units=GPa)
#
#
# Indices 1 2 3 4 5 6 
#
# 1 55.3602 51.2579 52.5515 0.0000 0.0000 0.0000
# 2 51.2579 55.3602 52.5515 0.0000 0.0000 0.0000
# 3 52.5515 52.5515 142.5671 0.0000 0.0000 0.0000
# 4 0.0000 0.0000 0.0000 24.8152 0.0000 0.0000
# 5 0.0000 0.0000 0.0000 0.0000 24.8152 0.0000
# 6 0.0000 0.0000 0.0000 0.0000 0.0000 -9.8666
#
#
#
# Elastic Compliance Matrix: (Units=1/GPa)
#
#
# Indices 1 2 3 4 5 6 
#
# 1 0.129249 -0.114516 -0.005431 0.000000 0.000000 0.000000
# 2 -0.114516 0.129249 -0.005431 0.000000 0.000000 0.000000
# 3 -0.005431 -0.005431 0.011018 0.000000 0.000000 0.000000
# 4 0.000000 0.000000 0.000000 0.040298 0.000000 0.000000
# 5 0.000000 0.000000 0.000000 0.000000 0.040298 0.000000
# 6 0.000000 0.000000 0.000000 0.000000 0.000000 -0.101352
#
#
# Mechanical properties :
#
#
# Convention : Reuss Voigt Hill
#
# Bulk Modulus (GPa) = 53.30274 62.88994 58.09634
# Shear Modulus (GPa) = 9.88598 14.41453 12.15025
#
# Velocity S-wave (km/s) = 2.28173 2.75521 2.52958
# Velocity P-wave (km/s) = 5.91717 6.57584 6.25518
#
# Compressibility (1/GPa) = 0.01876076
#
# Stress axis : x y z
#
# Youngs Moduli (GPa) = 7.73703 7.73703 90.76234
#
# Poissons Ratio (x) = 0.88601 0.49289
# Poissons Ratio (y) = 0.88601 0.49289
# Poissons Ratio (z) = 0.04202 0.04202
#
# Static dielectric constant tensor:
#      x y z
#    x 1.715920 0.000000 0.000000 
#    y 0.000000 1.715920 0.000000 
#    z 0.000000 0.000000 1.672200 
# 
# From -- ./inp_files/4694.got.cif
#   From: 2010.05.17/outbox.cif.g08.bks.cpg/sg91_3_cif.got.tgz:4694.got - 2010.06.03 19:20:03.
