data_PCOD9548524
_publ_section_title
;
Structure prediction by ZEFSAII (Michael W. Deem and Ramdas Pophale) SiO2 
 PCOD9548524
Probable space group: P 41 2 2
;
_chemical_formula_sum "Si O2"
_cell_formula_units_Z 56
_cell_length_a 14.478601
_cell_length_b 14.478601
_cell_length_c 13.046483
_cell_angle_alpha 90.000000
_cell_angle_beta 90.000000
_cell_angle_gamma 90.000000
_cell_volume 2734.932756
_symmetry_space_group_name_H-M "P 41 2 2"
_symmetry_group_IT_number 91
_symmetry_cell_setting 'tetragonal'
loop_
_space_group_symop_operation_xyz
x,y,z
-y,x,1/4+z
-x,-y,1/2+z
y,-x,3/4+z
x,-y,1/2-z
-x,y,-z
y,x,3/4-z
-y,-x,1/4-z
loop_
_atom_site_type_symbol
_atom_site_label
_atom_site_fract_x
_atom_site_fract_y
_atom_site_fract_z
Si Si1 0.337026 0.927355 0.446186
Si Si2 0.586283 0.378466 0.429728
Si Si3 0.326358 0.500000 0.750000
Si Si4 0.500000 0.959395 0.000000
Si Si5 0.353921 0.201030 0.873293
Si Si6 0.208604 0.931493 0.154630
Si Si7 0.820420 0.548488 0.586023
Si Si8 0.204190 0.649636 0.993632
O O1 0.337834 0.889029 0.559967
O O2 0.332552 0.840325 0.368746
O O3 0.434940 0.977391 0.430647
O O4 0.259648 0.004156 0.427614
O O5 0.500000 0.411442 0.500000
O O6 0.613535 0.443869 0.333663
O O7 0.554430 0.280864 0.384526
O O8 0.684399 0.358470 0.487405
O O9 0.261448 0.566732 0.681301
O O10 0.559996 0.894271 0.073954
O O11 0.264343 0.264343 0.875000
O O12 0.381882 0.177016 0.758298
O O13 0.111490 0.888511 0.125000
O O14 0.273467 0.845267 0.187221
O O15 0.200819 0.000000 0.250000
O O16 0.831105 0.447398 0.537276
#
# Coordination Sequence:
#
# PCOD9548524 Si02
#       8
#     8   8   4   4   8   8   8   8
#     4  11  23  44  73 101 132 183 239 296 369 443
#     4  12  27  45  67 102 141 199 250 301 349 426
#     4  12  23  50  67  96 142 210 259 296 353 428
#     4  12  25  40  69 102 134 174 243 310 369 418
#     4  12  23  45  70  95 142 194 242 292 365 432
#     4  10  24  44  75 104 136 178 227 291 376 448
#     4  12  24  42  64 100 137 182 241 305 349 420
#     4  11  23  45  68  95 137 186 236 288 357 419
#
# _framework density 20.475823999999999
#
# number of rings (size 3 to 8) (size 9 to 14) (size 15 to 20)
#    0.000    0.571    6.429    1.286    4.000    1.714 
#    7.714    0.714    0.000    0.000    0.000    0.000 
#    0.000    0.000    0.000    0.000    0.000    0.000 
#
# Total GULP energy -313176.937127 kJ/mol
# GULP energy per Si atom -5592.445306 kJ/mol
# Density = 2.042922 g / cm^3
# Si number density = 20.475824 Si / 1000 Ang^3
#
#
#
# Elastic Constant Matrix: (Units=GPa)
#
#
# Indices 1 2 3 4 5 6 
#
# 1 107.4510 33.1548 37.5756 0.0000 0.0000 0.0000
# 2 33.1548 107.4487 37.5747 0.0000 0.0000 0.0000
# 3 37.5756 37.5747 90.9601 0.0000 0.0000 0.0000
# 4 0.0000 0.0000 0.0000 41.6156 0.0000 0.0000
# 5 0.0000 0.0000 0.0000 0.0000 41.6169 0.0000
# 6 0.0000 0.0000 0.0000 0.0000 0.0000 38.0581
#
#
#
# Elastic Compliance Matrix: (Units=1/GPa)
#
#
# Indices 1 2 3 4 5 6 
#
# 1 0.011294 -0.002166 -0.003771 0.000000 0.000000 0.000000
# 2 -0.002166 0.011294 -0.003770 0.000000 0.000000 0.000000
# 3 -0.003771 -0.003770 0.014109 0.000000 0.000000 0.000000
# 4 0.000000 0.000000 0.000000 0.024029 0.000000 0.000000
# 5 0.000000 0.000000 0.000000 0.000000 0.024029 0.000000
# 6 0.000000 0.000000 0.000000 0.000000 0.000000 0.026276
#
#
# Mechanical properties :
#
#
# Convention : Reuss Voigt Hill
#
# Bulk Modulus (GPa) = 57.86427 58.05223 57.95825
# Shear Modulus (GPa) = 36.70938 37.42842 37.06890
#
# Velocity S-wave (km/s) = 4.23876 4.28007 4.25946
# Velocity P-wave (km/s) = 7.23030 7.26901 7.24968
#
# Compressibility (1/GPa) = 0.01728182
#
# Stress axis : x y z
#
# Youngs Moduli (GPa) = 88.54639 88.54483 70.87694
#
# Poissons Ratio (x) = 0.19181 0.26724
# Poissons Ratio (y) = 0.19181 0.26724
# Poissons Ratio (z) = 0.33386 0.33385
#
# Static dielectric constant tensor:
#      x y z
#    x 1.712310 0.000000 0.000000 
#    y 0.000000 1.712300 0.000000 
#    z 0.000000 0.000000 1.769920 
# 
# From -- ./inp_files/3960.got.cif
#   From: 2010.05.17/outbox.cif.g08.bks.cpg/sg91_2_cif.got.tgz:3960.got - 2010.06.03 19:20:03.
