data_PCOD9548800
_publ_section_title
;
Structure prediction by ZEFSAII (Michael W. Deem and Ramdas Pophale) SiO2 
 PCOD9548800
Probable space group: P 41 2 2
;
_chemical_formula_sum "Si O2"
_cell_formula_units_Z 44
_cell_length_a 8.727480
_cell_length_b 8.727480
_cell_length_c 27.250361
_cell_angle_alpha 90.000000
_cell_angle_beta 90.000000
_cell_angle_gamma 90.000000
_cell_volume 2075.630217
_symmetry_space_group_name_H-M "P 41 2 2"
_symmetry_group_IT_number 91
_symmetry_cell_setting 'tetragonal'
loop_
_space_group_symop_operation_xyz
x,y,z
-y,x,1/4+z
-x,-y,1/2+z
y,-x,3/4+z
x,-y,1/2-z
-x,y,-z
y,x,3/4-z
-y,-x,1/4-z
loop_
_atom_site_type_symbol
_atom_site_label
_atom_site_fract_x
_atom_site_fract_y
_atom_site_fract_z
Si Si1 0.318830 0.273318 0.997012
Si Si2 0.717904 0.507170 0.410054
Si Si3 0.142842 0.013331 0.535840
Si Si4 0.589899 0.780031 0.044003
Si Si5 0.067468 0.067468 0.375000
Si Si6 0.375920 0.949082 0.414866
O O1 0.260081 0.419706 0.964900
O O2 0.247156 0.136902 0.964651
O O3 0.500000 0.296134 0.000000
O O4 0.305002 0.189693 0.051106
O O5 0.623149 0.623149 0.375000
O O6 0.624884 0.347884 0.415901
O O7 0.871911 0.461907 0.381105
O O8 0.000000 0.990698 0.500000
O O9 0.250766 0.155119 0.522878
O O10 0.071984 0.050269 0.587869
O O11 0.492898 0.930635 0.059852
O O12 0.500000 0.701900 0.000000
O O13 0.048932 0.230601 0.350058
#
# Coordination Sequence:
#
# PCOD9548800 Si02
#       6
#     8   8   8   8   4   8
#     4  12  23  45  67  99 142 187 233 293 366 429
#     4  12  27  42  71 106 137 186 247 290 355 445
#     4  12  23  42  72 101 133 188 241 293 359 432
#     4  12  24  46  68  98 142 189 225 297 371 416
#     4  12  26  44  72 106 140 182 252 298 362 442
#     4  12  25  48  72 100 146 191 235 306 365 436
#
# _framework density 21.198381000000001
#
# number of rings (size 3 to 8) (size 9 to 14) (size 15 to 20)
#    0.000    0.000    9.091    0.545    5.091    0.000 
#    0.000    0.909    0.000    0.000    0.000    0.000 
#    0.000    0.000    0.000    0.000    0.000    0.000 
#
# Total GULP energy -245105.775877 kJ/mol
# GULP energy per Si atom -5570.585815 kJ/mol
# Density = 2.115013 g / cm^3
# Si number density = 21.198381 Si / 1000 Ang^3
#
#
#
# Elastic Constant Matrix: (Units=GPa)
#
#
# Indices 1 2 3 4 5 6 
#
# 1 63.2243 27.7345 26.1878 0.0000 0.0000 0.0000
# 2 27.7345 63.2243 26.1878 0.0000 0.0000 0.0000
# 3 26.1878 26.1878 67.9233 0.0000 0.0000 0.0000
# 4 0.0000 0.0000 0.0000 29.3360 0.0000 0.0000
# 5 0.0000 0.0000 0.0000 0.0000 29.3360 0.0000
# 6 0.0000 0.0000 0.0000 0.0000 0.0000 -5.4086
#
#
#
# Elastic Compliance Matrix: (Units=1/GPa)
#
#
# Indices 1 2 3 4 5 6 
#
# 1 0.021154 -0.007023 -0.005448 0.000000 0.000000 0.000000
# 2 -0.007023 0.021154 -0.005448 0.000000 0.000000 0.000000
# 3 -0.005448 -0.005448 0.018924 0.000000 0.000000 0.000000
# 4 0.000000 0.000000 0.000000 0.034088 0.000000 0.000000
# 5 0.000000 0.000000 0.000000 0.000000 0.034088 0.000000
# 6 0.000000 0.000000 0.000000 0.000000 0.000000 -0.184890
#
#
# Mechanical properties :
#
#
# Convention : Reuss Voigt Hill
#
# Bulk Modulus (GPa) = 39.38104 39.39913 39.39008
# Shear Modulus (GPa) = -447.28270 18.27012 -214.50629
#
# Velocity S-wave (km/s) = -14.54155 2.93894 -10.07023
# Velocity P-wave (km/s) = 16.22727 5.49024 10.79772
#
# Compressibility (1/GPa) = 0.02539293
#
# Stress axis : x y z
#
# Youngs Moduli (GPa) = 47.27206 47.27206 52.84399
#
# Poissons Ratio (x) = 0.33199 0.28791
# Poissons Ratio (y) = 0.33199 0.28791
# Poissons Ratio (z) = 0.25755 0.25755
#
# Static dielectric constant tensor:
#      x y z
#    x 1.810190 0.000000 0.000000 
#    y 0.000000 1.810190 0.000000 
#    z 0.000000 0.000000 1.842550 
# 
# From -- ./inp_files/18077.got.cif
#   From: 2010.05.17/outbox.cif.g08.bks.cpg/sg91_10_cif.got.tgz:18077.got - 2010.06.03 19:20:03.
