data_PCOD9548697
_publ_section_title
;
Structure prediction by ZEFSAII (Michael W. Deem and Ramdas Pophale) SiO2 
 PCOD9548697
Probable space group: P 41 2 2
;
_chemical_formula_sum "Si O2"
_cell_formula_units_Z 60
_cell_length_a 11.479282
_cell_length_b 11.479282
_cell_length_c 23.123012
_cell_angle_alpha 90.000000
_cell_angle_beta 90.000000
_cell_angle_gamma 90.000000
_cell_volume 3047.009823
_symmetry_space_group_name_H-M "P 41 2 2"
_symmetry_group_IT_number 91
_symmetry_cell_setting 'tetragonal'
loop_
_space_group_symop_operation_xyz
x,y,z
-y,x,1/4+z
-x,-y,1/2+z
y,-x,3/4+z
x,-y,1/2-z
-x,y,-z
y,x,3/4-z
-y,-x,1/4-z
loop_
_atom_site_type_symbol
_atom_site_label
_atom_site_fract_x
_atom_site_fract_y
_atom_site_fract_z
Si Si1 0.363770 0.767276 0.343150
Si Si2 0.027101 0.636800 0.069131
Si Si3 0.363199 0.027098 0.985797
Si Si4 0.254511 0.254516 0.708333
Si Si5 0.232728 0.636235 0.240184
Si Si6 0.636239 0.232721 0.176483
Si Si7 0.745487 0.745487 0.875000
Si Si8 0.972898 0.636801 0.597535
O O1 0.337658 0.716572 0.405310
O O2 0.294103 0.705901 0.291667
O O3 0.500005 0.762152 0.333335
O O4 0.331058 0.903520 0.347103
O O5 0.128210 0.717203 0.096233
O O6 0.053783 0.499999 0.083332
O O7 0.000000 0.646177 0.000000
O O8 0.353824 0.000000 0.916666
O O9 0.500000 0.053777 0.000000
O O10 0.282797 0.128208 0.012900
O O11 0.331053 0.903517 0.013768
O O12 0.337651 0.283429 0.761358
O O13 0.282795 0.128214 0.679565
O O14 0.237852 0.500000 0.250000
O O15 0.283430 0.662348 0.178024
O O16 0.705909 0.294092 0.125000
O O17 0.668947 0.096476 0.180438
#
# Coordination Sequence:
#
# PCOD9548697 Si02
#       8
#     8   8   8   8   8   8   4   8
#     4  11  24  44  68 100 134 179 223 270 335 401
#     4  11  22  43  71  97 133 179 224 271 336 406
#     4  11  22  43  71  97 133 179 224 271 336 406
#     4  12  24  40  74  98 130 170 230 282 320 396
#     4  11  24  44  68 100 134 179 223 270 335 401
#     4  11  24  44  68 100 134 179 223 270 335 401
#     4  12  24  40  74  98 130 170 230 282 320 396
#     4  11  22  43  71  97 133 179 224 271 336 406
#
# _framework density 19.691435999999999
#
# number of rings (size 3 to 8) (size 9 to 14) (size 15 to 20)
#    0.000    0.800    4.000    6.000    0.000    0.000 
#    3.600    0.000   17.600    0.000    0.000    0.000 
#    0.000    0.000    0.000    0.000    0.000    0.000 
#
# Total GULP energy -334860.383026 kJ/mol
# GULP energy per Si atom -5581.006384 kJ/mol
# Density = 1.964662 g / cm^3
# Si number density = 19.691436 Si / 1000 Ang^3
#
#
#
# Elastic Constant Matrix: (Units=GPa)
#
#
# Indices 1 2 3 4 5 6 
#
# 1 73.4180 69.0124 39.8476 0.0000 0.0000 0.0000
# 2 69.0124 73.4154 39.8472 0.0000 0.0000 0.0000
# 3 39.8476 39.8472 178.0790 0.0000 0.0000 0.0000
# 4 0.0000 0.0000 0.0000 24.2286 0.0000 0.0000
# 5 0.0000 0.0000 0.0000 0.0000 24.2287 0.0000
# 6 0.0000 0.0000 0.0000 0.0000 0.0000 33.9329
#
#
#
# Elastic Compliance Matrix: (Units=1/GPa)
#
#
# Indices 1 2 3 4 5 6 
#
# 1 0.117536 -0.109512 -0.001796 0.000000 0.000000 0.000000
# 2 -0.109512 0.117540 -0.001796 0.000000 0.000000 0.000000
# 3 -0.001796 -0.001796 0.006419 0.000000 0.000000 0.000000
# 4 0.000000 0.000000 0.000000 0.041274 0.000000 0.000000
# 5 0.000000 0.000000 0.000000 0.000000 0.041273 0.000000
# 6 0.000000 0.000000 0.000000 0.000000 0.000000 0.029470
#
#
# Mechanical properties :
#
#
# Convention : Reuss Voigt Hill
#
# Bulk Modulus (GPa) = 65.41323 69.14744 67.28033
# Shear Modulus (GPa) = 8.54972 28.22503 18.38738
#
# Velocity S-wave (km/s) = 2.08597 3.79009 3.05909
# Velocity P-wave (km/s) = 6.25243 7.37189 6.83512
#
# Compressibility (1/GPa) = 0.01528743
#
# Stress axis : x y z
#
# Youngs Moduli (GPa) = 8.50807 8.50775 155.78277
#
# Poissons Ratio (x) = 0.93170 0.27973
# Poissons Ratio (y) = 0.93173 0.27981
# Poissons Ratio (z) = 0.01528 0.01528
#
# Static dielectric constant tensor:
#      x y z
#    x 1.709670 0.000000 0.000000 
#    y 0.000000 1.709670 0.000000 
#    z 0.000000 0.000000 1.812460 
# 
# From -- ./inp_files/6472.got.cif
#   From: 2010.05.17/outbox.cif.g08.bks.cpg/sg91_4_cif.got.tgz:6472.got - 2010.06.03 19:20:03.
