data_PCOD9548896
_publ_section_title
;
Structure prediction by ZEFSAII (Michael W. Deem and Ramdas Pophale) SiO2 
 PCOD9548896
Probable space group: P 41 21 2
;
_chemical_formula_sum "Si O2"
_cell_formula_units_Z 56
_cell_length_a 10.768492
_cell_length_b 10.768492
_cell_length_c 22.163493
_cell_angle_alpha 90.000000
_cell_angle_beta 90.000000
_cell_angle_gamma 90.000000
_cell_volume 2570.087956
_symmetry_space_group_name_H-M "P 41 21 2"
_symmetry_group_IT_number 92
_symmetry_cell_setting 'tetragonal'
loop_
_space_group_symop_operation_xyz
x,y,z
1/2-y,1/2+x,1/4+z
-x,-y,1/2+z
1/2+y,1/2-x,3/4+z
1/2+x,1/2-y,3/4-z
1/2-x,1/2+y,1/4-z
y,x,-z
-y,-x,1/2-z
loop_
_atom_site_type_symbol
_atom_site_label
_atom_site_fract_x
_atom_site_fract_y
_atom_site_fract_z
Si Si1 0.387982 0.580043 0.031987
Si Si2 0.962352 0.733397 0.164191
Si Si3 0.650125 0.218379 0.393374
Si Si4 0.556818 0.762435 0.985334
Si Si5 0.621207 0.631033 0.217088
Si Si6 0.417680 0.457485 0.153245
Si Si7 0.496404 0.885847 0.788365
O O1 0.452532 0.714037 0.032829
O O2 0.357804 0.535455 0.098823
O O3 0.492275 0.492275 0.000000
O O4 0.281093 0.566736 0.982609
O O5 0.834871 0.761668 0.128639
O O6 0.979505 0.589088 0.177515
O O7 0.054856 0.824655 0.129347
O O8 0.522055 0.266991 0.424149
O O9 0.736020 0.136172 0.436149
O O10 0.611798 0.146851 0.334893
O O11 0.571955 0.911009 0.983282
O O12 0.679712 0.679712 0.000000
O O13 0.538437 0.536085 0.176745
O O14 0.565818 0.649434 0.283706
O O15 0.757154 0.568107 0.224226
#
# Coordination Sequence:
#
# PCOD9548896 Si02
#       7
#     8   8   8   8   8   8   8
#     4   8  16  34  58  82 110 153 204 245 292 368
#     4   9  19  34  55  88 114 156 200 240 305 353
#     4  10  21  36  52  81 125 151 194 251 295 360
#     4  10  22  34  57  83 113 157 196 235 317 362
#     4  10  22  32  55  89 119 154 203 248 305 355
#     4  10  18  35  59  86 115 155 203 253 294 366
#     4  11  22  32  55  84 124 153 186 250 295 366
#
# _framework density 21.789137
#
# number of rings (size 3 to 8) (size 9 to 14) (size 15 to 20)
#    0.000    2.286    1.429    1.714    8.000    0.000 
#    0.000    1.429    3.143    0.000    7.429    0.000 
#    0.000    0.000    0.000    0.000    0.000    0.000 
#
# Total GULP energy -311879.273844 kJ/mol
# GULP energy per Si atom -5569.272747 kJ/mol
# Density = 2.173954 g / cm^3
# Si number density = 21.789137 Si / 1000 Ang^3
#
#
#
# Elastic Constant Matrix: (Units=GPa)
#
#
# Indices 1 2 3 4 5 6 
#
# 1 43.4821 4.1465 8.8673 0.0000 0.0000 0.0000
# 2 4.1465 43.4821 8.8673 0.0000 0.0000 0.0000
# 3 8.8673 8.8673 91.6497 0.0000 0.0000 0.0000
# 4 0.0000 0.0000 0.0000 24.3610 0.0000 0.0000
# 5 0.0000 0.0000 0.0000 0.0000 24.3610 0.0000
# 6 0.0000 0.0000 0.0000 0.0000 0.0000 13.6822
#
#
#
# Elastic Compliance Matrix: (Units=1/GPa)
#
#
# Indices 1 2 3 4 5 6 
#
# 1 0.023601 -0.001821 -0.002107 0.000000 0.000000 0.000000
# 2 -0.001821 0.023601 -0.002107 0.000000 0.000000 0.000000
# 3 -0.002107 -0.002107 0.011319 0.000000 0.000000 0.000000
# 4 0.000000 0.000000 0.000000 0.041049 0.000000 0.000000
# 5 0.000000 0.000000 0.000000 0.000000 0.041049 0.000000
# 6 0.000000 0.000000 0.000000 0.000000 0.000000 0.073088
#
#
# Mechanical properties :
#
#
# Convention : Reuss Voigt Hill
#
# Bulk Modulus (GPa) = 21.52827 24.70845 23.11836
# Shear Modulus (GPa) = 20.72430 22.92967 21.82698
#
# Velocity S-wave (km/s) = 3.08739 3.24750 3.16846
# Velocity P-wave (km/s) = 4.75510 5.04243 4.90087
#
# Compressibility (1/GPa) = 0.04645056
#
# Stress axis : x y z
#
# Youngs Moduli (GPa) = 42.37042 42.37042 88.34800
#
# Poissons Ratio (x) = 0.07715 0.18618
# Poissons Ratio (y) = 0.07715 0.18618
# Poissons Ratio (z) = 0.08929 0.08929
#
# Static dielectric constant tensor:
#      x y z
#    x 1.884050 0.000000 0.000000 
#    y 0.000000 1.884050 0.000000 
#    z 0.000000 0.000000 1.874840 
# 
# From -- ./inp_files/3584.got.cif
#   From: 2010.05.17/outbox.cif.g08.bks.cpg/sg92_2_cif.got.tgz:3584.got - 2010.06.03 19:35:17.
