data_PCOD9548284
_publ_section_title
;
Structure prediction by ZEFSAII (Michael W. Deem and Ramdas Pophale) SiO2 
 PCOD9548284
Probable space group: P 41 2 2
;
_chemical_formula_sum "Si O2"
_cell_formula_units_Z 64
_cell_length_a 12.458432
_cell_length_b 12.458432
_cell_length_c 19.314438
_cell_angle_alpha 90.000000
_cell_angle_beta 90.000000
_cell_angle_gamma 90.000000
_cell_volume 2997.842747
_symmetry_space_group_name_H-M "P 41 2 2"
_symmetry_group_IT_number 91
_symmetry_cell_setting 'tetragonal'
loop_
_space_group_symop_operation_xyz
x,y,z
-y,x,1/4+z
-x,-y,1/2+z
y,-x,3/4+z
x,-y,1/2-z
-x,y,-z
y,x,3/4-z
-y,-x,1/4-z
loop_
_atom_site_type_symbol
_atom_site_label
_atom_site_fract_x
_atom_site_fract_y
_atom_site_fract_z
Si Si1 0.036823 0.355609 0.116418
Si Si2 0.386189 0.788172 0.983787
Si Si3 0.872926 0.775631 0.284045
Si Si4 0.131011 0.688832 0.123687
Si Si5 0.156997 0.635937 0.525235
Si Si6 0.890844 0.740695 0.125327
Si Si7 0.595696 0.213810 0.765471
Si Si8 0.063139 0.947894 0.936231
O O1 0.954174 0.289577 0.166205
O O2 0.130772 0.393103 0.168752
O O3 0.107704 0.324686 0.048461
O O4 0.940260 0.411657 0.072191
O O5 0.361543 0.861964 0.050413
O O6 0.500000 0.737708 0.000000
O O7 0.307357 0.686050 0.981815
O O8 0.748411 0.795327 0.303840
O O9 0.867979 0.730346 0.206252
O O10 0.942111 0.885479 0.284059
O O11 0.223333 0.776668 0.125000
O O12 0.017891 0.744519 0.116851
O O13 0.152926 0.613184 0.057888
O O14 0.234696 0.532281 0.518900
O O15 0.852749 0.640741 0.080509
O O16 0.855784 0.856616 0.093036
O O17 0.987308 0.987308 0.875000
O O18 0.000000 0.897772 0.000000
#
# Coordination Sequence:
#
# PCOD9548284 Si02
#       8
#     8   8   8   8   8   8   8   8
#     4  11  24  42  69  99 133 180 233 288 346 427
#     4  11  23  43  73 102 135 177 237 297 353 417
#     4  12  24  42  64  96 136 183 231 278 345 424
#     4  10  22  39  63  98 136 175 220 283 356 418
#     4  11  26  43  68  98 140 187 233 280 348 428
#     4  12  24  38  65  96 139 177 220 288 349 421
#     4  11  25  43  65  99 136 182 232 292 353 418
#     4  12  23  36  58  95 143 184 219 271 348 434
#
# _framework density 21.348686000000001
#
# number of rings (size 3 to 8) (size 9 to 14) (size 15 to 20)
#    0.000    0.750    2.500    5.625    8.750    0.000 
#    0.000    0.000    0.000   11.250    0.000    0.000 
#    0.000    0.000    0.000    0.000    0.000    0.000 
#
# Total GULP energy -356322.235699 kJ/mol
# GULP energy per Si atom -5567.534933 kJ/mol
# Density = 2.130009 g / cm^3
# Si number density = 21.348686 Si / 1000 Ang^3
#
#
#
# Elastic Constant Matrix: (Units=GPa)
#
#
# Indices 1 2 3 4 5 6 
#
# 1 110.4189 3.6548 38.5080 0.0000 0.0000 0.0000
# 2 3.6548 110.4075 38.5097 0.0000 0.0000 0.0000
# 3 38.5080 38.5097 154.4316 0.0000 0.0000 0.0000
# 4 0.0000 0.0000 0.0000 -1.7108 0.0000 0.0000
# 5 0.0000 0.0000 0.0000 0.0000 -1.7113 0.0000
# 6 0.0000 0.0000 0.0000 0.0000 0.0000 9.3441
#
#
#
# Elastic Compliance Matrix: (Units=1/GPa)
#
#
# Indices 1 2 3 4 5 6 
#
# 1 0.009954 0.000587 -0.002628 0.000000 0.000000 0.000000
# 2 0.000587 0.009955 -0.002629 0.000000 0.000000 0.000000
# 3 -0.002628 -0.002629 0.007786 0.000000 0.000000 0.000000
# 4 0.000000 0.000000 0.000000 -0.584510 0.000000 0.000000
# 5 0.000000 0.000000 0.000000 0.000000 -0.584362 0.000000
# 6 0.000000 0.000000 0.000000 0.000000 0.000000 0.107020
#
#
# Mechanical properties :
#
#
# Convention : Reuss Voigt Hill
#
# Bulk Modulus (GPa) = 54.48147 59.62256 57.05202
# Shear Modulus (GPa) = -4.90822 20.82343 7.95761
#
# Velocity S-wave (km/s) = -1.51791 3.12652 1.93275
# Velocity P-wave (km/s) = 4.74375 6.40485 5.63583
#
# Compressibility (1/GPa) = 0.01835486
#
# Stress axis : x y z
#
# Youngs Moduli (GPa) = 100.46589 100.45367 128.43075
#
# Poissons Ratio (x) = -0.05900 0.33757
# Poissons Ratio (y) = -0.05900 0.33762
# Poissons Ratio (z) = 0.26407 0.26407
#
# Static dielectric constant tensor:
#      x y z
#    x 1.833220 0.000000 0.000000 
#    y 0.000000 1.833220 0.000000 
#    z 0.000000 0.000000 1.830550 
# 
# From -- ./inp_files/5724.got.cif
#   From: 2010.05.17/outbox.cif.g08.bks.cpg/sg91_3_cif.got.tgz:5724.got - 2010.06.03 19:20:03.
