data_PCOD9548330
_publ_section_title
;
Structure prediction by ZEFSAII (Michael W. Deem and Ramdas Pophale) SiO2 
 PCOD9548330
Probable space group: P 41 2 2
;
_chemical_formula_sum "Si O2"
_cell_formula_units_Z 32
_cell_length_a 6.877479
_cell_length_b 6.877479
_cell_length_c 21.797355
_cell_angle_alpha 90.000000
_cell_angle_beta 90.000000
_cell_angle_gamma 90.000000
_cell_volume 1031.008731
_symmetry_space_group_name_H-M "P 41 2 2"
_symmetry_group_IT_number 91
_symmetry_cell_setting 'tetragonal'
loop_
_space_group_symop_operation_xyz
x,y,z
-y,x,1/4+z
-x,-y,1/2+z
y,-x,3/4+z
x,-y,1/2-z
-x,y,-z
y,x,3/4-z
-y,-x,1/4-z
loop_
_atom_site_type_symbol
_atom_site_label
_atom_site_fract_x
_atom_site_fract_y
_atom_site_fract_z
Si Si1 0.117435 0.756386 0.852842
Si Si2 0.505146 0.262516 0.192975
Si Si3 0.203792 0.944459 0.530781
Si Si4 0.717674 0.569529 0.926385
O O1 0.105307 0.560976 0.893576
O O2 0.010840 0.700793 0.786646
O O3 0.343551 0.765083 0.832737
O O4 0.138054 0.916180 0.911708
O O5 0.736636 0.282469 0.196426
O O6 0.427461 0.480323 0.181188
O O7 0.398767 0.206996 0.255826
O O8 0.000000 0.889008 0.500000
O O9 0.741008 0.741008 0.875000
#
# Coordination Sequence:
#
# PCOD9548330 Si02
#       4
#     8   8   8   8
#     4  10  22  41  67  95 134 187 232 286 358 417
#     4   9  19  40  67  96 131 177 231 283 348 419
#     4  11  24  43  66  98 141 183 234 295 348 417
#     4   8  16  36  64  96 132 168 224 291 343 415
#
# _framework density 31.037562000000001
#
# number of rings (size 3 to 8) (size 9 to 14) (size 15 to 20)
#    0.000    2.500    0.000    0.750    0.000    7.000 
#    0.000   37.500    0.000    6.000    0.000    0.000 
#    0.000    0.000    0.000    0.000    0.000    0.000 
#
# Total GULP energy -178141.380619 kJ/mol
# GULP energy per Si atom -5566.918144 kJ/mol
# Density = 3.096692 g / cm^3
# Si number density = 31.037562 Si / 1000 Ang^3
#
#
#
# Elastic Constant Matrix: (Units=GPa)
#
#
# Indices 1 2 3 4 5 6 
#
# 1 52.3722 2.9057 44.1956 0.0000 0.0000 0.0000
# 2 2.9057 52.3722 44.1956 0.0000 0.0000 0.0000
# 3 44.1956 44.1956 263.8279 0.0000 0.0000 0.0000
# 4 0.0000 0.0000 0.0000 66.9831 0.0000 0.0000
# 5 0.0000 0.0000 0.0000 0.0000 66.9831 0.0000
# 6 0.0000 0.0000 0.0000 0.0000 0.0000 139.0054
#
#
#
# Elastic Compliance Matrix: (Units=1/GPa)
#
#
# Indices 1 2 3 4 5 6 
#
# 1 0.022462 0.002247 -0.004139 0.000000 0.000000 0.000000
# 2 0.002247 0.022462 -0.004139 0.000000 0.000000 0.000000
# 3 -0.004139 -0.004139 0.005177 0.000000 0.000000 0.000000
# 4 0.000000 0.000000 0.000000 0.014929 0.000000 0.000000
# 5 0.000000 0.000000 0.000000 0.000000 0.014929 0.000000
# 6 0.000000 0.000000 0.000000 0.000000 0.000000 0.007194
#
#
# Mechanical properties :
#
#
# Convention : Reuss Voigt Hill
#
# Bulk Modulus (GPa) = 26.28911 61.24066 43.76489
# Shear Modulus (GPa) = 44.68392 73.07934 58.88163
#
# Velocity S-wave (km/s) = 3.79842 4.85763 4.36031
# Velocity P-wave (km/s) = 5.26553 7.15794 6.28339
#
# Compressibility (1/GPa) = 0.03803856
#
# Stress axis : x y z
#
# Youngs Moduli (GPa) = 44.51883 44.51883 193.15780
#
# Poissons Ratio (x) = -0.10002 0.79952
# Poissons Ratio (y) = -0.10002 0.79952
# Poissons Ratio (z) = 0.18427 0.18427
#
# Static dielectric constant tensor:
#      x y z
#    x 1.414290 0.000000 0.000000 
#    y 0.000000 1.414290 0.000000 
#    z 0.000000 0.000000 3.361970 
# 
# From -- ./inp_files/17452.got.cif
#   From: 2010.05.17/outbox.cif.g08.bks.cpg/sg91_9_cif.got.tgz:17452.got - 2010.06.03 19:20:03.
