data_PCOD9548526
_publ_section_title
;
Structure prediction by ZEFSAII (Michael W. Deem and Ramdas Pophale) SiO2 
 PCOD9548526
Probable space group: P 41 2 2
;
_chemical_formula_sum "Si O2"
_cell_formula_units_Z 56
_cell_length_a 14.507663
_cell_length_b 14.507663
_cell_length_c 11.970057
_cell_angle_alpha 90.000000
_cell_angle_beta 90.000000
_cell_angle_gamma 90.000000
_cell_volume 2519.365257
_symmetry_space_group_name_H-M "P 41 2 2"
_symmetry_group_IT_number 91
_symmetry_cell_setting 'tetragonal'
loop_
_space_group_symop_operation_xyz
x,y,z
-y,x,1/4+z
-x,-y,1/2+z
y,-x,3/4+z
x,-y,1/2-z
-x,y,-z
y,x,3/4-z
-y,-x,1/4-z
loop_
_atom_site_type_symbol
_atom_site_label
_atom_site_fract_x
_atom_site_fract_y
_atom_site_fract_z
Si Si1 0.465274 0.318374 0.844540
Si Si2 0.418046 0.943392 0.076526
Si Si3 0.095844 0.101821 0.748042
Si Si4 0.433104 0.643498 0.897452
Si Si5 0.274424 0.264722 0.247237
Si Si6 0.079226 0.782837 0.280054
Si Si7 0.142710 0.562329 0.926500
O O1 0.369498 0.369498 0.875000
O O2 0.484398 0.324084 0.712035
O O3 0.550655 0.378806 0.889286
O O4 0.479296 0.209515 0.864745
O O5 0.432178 0.891611 0.194450
O O6 0.428634 0.051479 0.104053
O O7 0.500000 0.910388 0.000000
O O8 0.323467 0.930113 0.008068
O O9 0.178694 0.087222 0.658584
O O10 0.009204 0.168221 0.724289
O O11 0.052499 0.000000 0.750000
O O12 0.126798 0.126798 0.875000
O O13 0.500000 0.622682 0.000000
O O14 0.361625 0.723210 0.932627
O O15 0.293274 0.293274 0.375000
O O16 0.184585 0.201058 0.254430
O O17 0.348339 0.207372 0.176898
#
# Coordination Sequence:
#
# PCOD9548526 Si02
#       7
#     8   8   8   8   8   8   8
#     4  11  23  40  67  98 133 175 231 295 364 430
#     4  11  25  45  69  92 135 186 236 295 369 446
#     4   9  21  44  67 105 147 181 237 303 360 436
#     4  11  22  37  62  94 137 176 220 284 354 424
#     4  11  22  37  62  96 132 174 233 291 340 423
#     4  11  22  41  72 101 140 194 242 297 368 431
#     4  10  24  45  62  98 136 174 240 301 353 441
#
# _framework density 22.227820000000001
#
# number of rings (size 3 to 8) (size 9 to 14) (size 15 to 20)
#    0.000    1.429    1.429    4.286    2.000    4.000 
#   10.286    0.714    0.000    0.000    0.000    0.000 
#    0.000    0.000    0.000    0.000    0.000    0.000 
#
# Total GULP energy -311934.747376 kJ/mol
# GULP energy per Si atom -5570.263346 kJ/mol
# Density = 2.217723 g / cm^3
# Si number density = 22.227820 Si / 1000 Ang^3
#
#
#
# Elastic Constant Matrix: (Units=GPa)
#
#
# Indices 1 2 3 4 5 6 
#
# 1 90.6637 13.7143 12.3474 0.0000 0.0000 0.0000
# 2 13.7143 90.6637 12.3474 0.0000 0.0000 0.0000
# 3 12.3474 12.3474 93.2343 0.0000 0.0000 0.0000
# 4 0.0000 0.0000 0.0000 18.5949 0.0000 0.0000
# 5 0.0000 0.0000 0.0000 0.0000 18.5949 0.0000
# 6 0.0000 0.0000 0.0000 0.0000 0.0000 31.0933
#
#
#
# Elastic Compliance Matrix: (Units=1/GPa)
#
#
# Indices 1 2 3 4 5 6 
#
# 1 0.011443 -0.001553 -0.001310 0.000000 0.000000 0.000000
# 2 -0.001553 0.011443 -0.001310 0.000000 0.000000 0.000000
# 3 -0.001310 -0.001310 0.011073 0.000000 0.000000 0.000000
# 4 0.000000 0.000000 0.000000 0.053778 0.000000 0.000000
# 5 0.000000 0.000000 0.000000 0.000000 0.053778 0.000000
# 6 0.000000 0.000000 0.000000 0.000000 0.000000 0.032161
#
#
# Mechanical properties :
#
#
# Convention : Reuss Voigt Hill
#
# Bulk Modulus (GPa) = 39.04089 39.04222 39.04155
# Shear Modulus (GPa) = 26.23862 29.40012 27.81937
#
# Velocity S-wave (km/s) = 3.43948 3.64080 3.54157
# Velocity P-wave (km/s) = 5.77715 5.93941 5.85884
#
# Compressibility (1/GPa) = 0.02561417
#
# Stress axis : x y z
#
# Youngs Moduli (GPa) = 87.38966 87.38966 90.31298
#
# Poissons Ratio (x) = 0.13568 0.11830
# Poissons Ratio (y) = 0.13568 0.11830
# Poissons Ratio (z) = 0.11447 0.11447
#
# Static dielectric constant tensor:
#      x y z
#    x 1.860030 0.000000 0.000000 
#    y 0.000000 1.860030 0.000000 
#    z 0.000000 0.000000 2.010510 
# 
# From -- ./inp_files/20314.got.cif
#   From: 2010.05.17/outbox.cif.g08.bks.cpg/sg91_11_cif.got.tgz:20314.got - 2010.06.03 19:20:03.
