data_PCOD9548788
_publ_section_title
;
Structure prediction by ZEFSAII (Michael W. Deem and Ramdas Pophale) SiO2 
 PCOD9548788
Probable space group: P 41 2 2
;
_chemical_formula_sum "Si O2"
_cell_formula_units_Z 24
_cell_length_a 7.870732
_cell_length_b 7.870732
_cell_length_c 16.800990
_cell_angle_alpha 90.000000
_cell_angle_beta 90.000000
_cell_angle_gamma 90.000000
_cell_volume 1040.794822
_symmetry_space_group_name_H-M "P 41 2 2"
_symmetry_group_IT_number 91
_symmetry_cell_setting 'tetragonal'
loop_
_space_group_symop_operation_xyz
x,y,z
-y,x,1/4+z
-x,-y,1/2+z
y,-x,3/4+z
x,-y,1/2-z
-x,y,-z
y,x,3/4-z
-y,-x,1/4-z
loop_
_atom_site_type_symbol
_atom_site_label
_atom_site_fract_x
_atom_site_fract_y
_atom_site_fract_z
Si Si1 0.280890 0.719111 0.125000
Si Si2 0.195629 0.392922 0.029694
Si Si3 0.729132 0.270869 0.125000
Si Si4 0.798642 0.025578 0.990449
O O1 0.250308 0.537223 0.087466
O O2 0.137419 0.736550 0.193810
O O3 0.228382 0.200388 0.059337
O O4 0.291686 0.403749 0.944921
O O5 0.000000 0.402550 0.000000
O O6 0.909421 0.274177 0.173858
O O7 0.000000 0.003673 0.000000
#
# Coordination Sequence:
#
# PCOD9548788 Si02
#       4
#     4   8   4   8
#     4  12  21  38  78 109 134 188 255 291 346 436
#     4   9  21  39  71 105 143 185 242 290 368 417
#     4   8  17  42  68  95 146 190 219 291 372 416
#     4   9  19  36  73 104 141 189 240 283 371 428
#
# _framework density 23.059297999999998
#
# number of rings (size 3 to 8) (size 9 to 14) (size 15 to 20)
#    2.000    0.667    0.000    2.000    0.000    0.000 
#    0.000    1.667   14.667    4.000    0.000    0.000 
#    0.000    0.000    0.000    0.000    0.000    0.000 
#
# Total GULP energy -133790.260939 kJ/mol
# GULP energy per Si atom -5574.594206 kJ/mol
# Density = 2.300681 g / cm^3
# Si number density = 23.059298 Si / 1000 Ang^3
#
#
#
# Elastic Constant Matrix: (Units=GPa)
#
#
# Indices 1 2 3 4 5 6 
#
# 1 39.9935 -3.7868 3.6757 0.0000 0.0000 0.0000
# 2 -3.7868 39.9911 3.6760 0.0000 0.0000 0.0000
# 3 3.6757 3.6760 63.6882 0.0000 0.0000 0.0000
# 4 0.0000 0.0000 0.0000 36.9910 0.0000 0.0000
# 5 0.0000 0.0000 0.0000 0.0000 36.9900 0.0000
# 6 0.0000 0.0000 0.0000 0.0000 0.0000 6.3698
#
#
#
# Elastic Compliance Matrix: (Units=1/GPa)
#
#
# Indices 1 2 3 4 5 6 
#
# 1 0.025394 0.002553 -0.001613 0.000000 0.000000 0.000000
# 2 0.002553 0.025396 -0.001613 0.000000 0.000000 0.000000
# 3 -0.001613 -0.001613 0.015888 0.000000 0.000000 0.000000
# 4 0.000000 0.000000 0.000000 0.027034 0.000000 0.000000
# 5 0.000000 0.000000 0.000000 0.000000 0.027034 0.000000
# 6 0.000000 0.000000 0.000000 0.000000 0.000000 0.156991
#
#
# Mechanical properties :
#
#
# Convention : Reuss Voigt Hill
#
# Bulk Modulus (GPa) = 15.30670 16.75583 16.03127
# Shear Modulus (GPa) = 16.61908 25.41070 21.01489
#
# Velocity S-wave (km/s) = 2.68752 3.32320 3.02212
# Velocity P-wave (km/s) = 4.03519 4.69117 4.37549
#
# Compressibility (1/GPa) = 0.06533085
#
# Stress axis : x y z
#
# Youngs Moduli (GPa) = 39.37939 39.37698 62.94180
#
# Poissons Ratio (x) = -0.10052 0.10152
# Poissons Ratio (y) = -0.10053 0.10153
# Poissons Ratio (z) = 0.06352 0.06352
#
# Static dielectric constant tensor:
#      x y z
#    x 1.884720 0.000000 0.000000 
#    y 0.000000 1.884720 0.000000 
#    z 0.000000 0.000000 1.904520 
# 
# From -- ./inp_files/11653.got.cif
#   From: 2010.05.17/outbox.cif.g08.bks.cpg/sg91_6_cif.got.tgz:11653.got - 2010.06.03 19:20:03.
