data_PCOD9548411
_publ_section_title
;
Structure prediction by ZEFSAII (Michael W. Deem and Ramdas Pophale) SiO2 
 PCOD9548411
Probable space group: P 41 2 2
;
_chemical_formula_sum "Si O2"
_cell_formula_units_Z 36
_cell_length_a 11.464677
_cell_length_b 11.464677
_cell_length_c 11.866889
_cell_angle_alpha 90.000000
_cell_angle_beta 90.000000
_cell_angle_gamma 90.000000
_cell_volume 1559.769872
_symmetry_space_group_name_H-M "P 41 2 2"
_symmetry_group_IT_number 91
_symmetry_cell_setting 'tetragonal'
loop_
_space_group_symop_operation_xyz
x,y,z
-y,x,1/4+z
-x,-y,1/2+z
y,-x,3/4+z
x,-y,1/2-z
-x,y,-z
y,x,3/4-z
-y,-x,1/4-z
loop_
_atom_site_type_symbol
_atom_site_label
_atom_site_fract_x
_atom_site_fract_y
_atom_site_fract_z
Si Si1 0.123059 0.757598 0.443103
Si Si2 0.274413 0.974023 0.484760
Si Si3 0.446168 0.446168 0.375000
Si Si4 0.807110 0.500000 0.250000
Si Si5 0.764552 0.475022 0.006112
Si Si6 0.000000 0.621331 0.000000
O O1 0.168249 0.882818 0.482672
O O2 0.216473 0.661250 0.480810
O O3 0.000000 0.730706 0.500000
O O4 0.085711 0.746241 0.313037
O O5 0.388805 0.894201 0.514102
O O6 0.299147 0.011232 0.358440
O O7 0.500000 0.473938 0.500000
O O8 0.312931 0.472842 0.407011
O O9 0.729090 0.500013 0.363482
O O10 0.888747 0.538465 0.004503
#
# Coordination Sequence:
#
# PCOD9548411 Si02
#       6
#     8   8   4   4   8   4
#     4  12  24  47  73 106 145 202 256 311 374 462
#     4  11  25  43  74 108 148 197 262 311 381 456
#     4  12  34  52  78 122 160 200 250 338 404 468
#     4  10  22  46  76 108 136 202 256 306 374 462
#     4  11  25  48  79 108 150 199 260 310 382 471
#     4  10  24  46  72 110 144 206 252 308 384 454
#
# _framework density 23.080327
#
# number of rings (size 3 to 8) (size 9 to 14) (size 15 to 20)
#    0.000    0.889    3.333    2.000   10.889    0.889 
#    6.000    0.000    0.000    0.000    0.000    0.000 
#    0.000    0.000    0.000    0.000    0.000    0.000 
#
# Total GULP energy -201229.192798 kJ/mol
# GULP energy per Si atom -5589.699800 kJ/mol
# Density = 2.302779 g / cm^3
# Si number density = 23.080327 Si / 1000 Ang^3
#
#
#
# Elastic Constant Matrix: (Units=GPa)
#
#
# Indices 1 2 3 4 5 6 
#
# 1 54.8274 22.3454 37.7560 0.0000 0.0000 0.0000
# 2 22.3454 54.8274 37.7560 0.0000 0.0000 0.0000
# 3 37.7560 37.7560 171.1109 0.0000 0.0000 0.0000
# 4 0.0000 0.0000 0.0000 35.8776 0.0000 0.0000
# 5 0.0000 0.0000 0.0000 0.0000 35.8776 0.0000
# 6 0.0000 0.0000 0.0000 0.0000 0.0000 18.3746
#
#
#
# Elastic Compliance Matrix: (Units=1/GPa)
#
#
# Indices 1 2 3 4 5 6 
#
# 1 0.023656 -0.007130 -0.003646 0.000000 0.000000 0.000000
# 2 -0.007130 0.023656 -0.003646 0.000000 0.000000 0.000000
# 3 -0.003646 -0.003646 0.007453 0.000000 0.000000 0.000000
# 4 0.000000 0.000000 0.000000 0.027873 0.000000 0.000000
# 5 0.000000 0.000000 0.000000 0.000000 0.027873 0.000000
# 6 0.000000 0.000000 0.000000 0.000000 0.000000 0.054423
#
#
# Mechanical properties :
#
#
# Convention : Reuss Voigt Hill
#
# Bulk Modulus (GPa) = 38.58130 52.94230 45.76180
# Shear Modulus (GPa) = 24.70114 30.21985 27.46049
#
# Velocity S-wave (km/s) = 3.27498 3.62240 3.45306
# Velocity P-wave (km/s) = 5.57252 6.36268 5.98067
#
# Compressibility (1/GPa) = 0.02591929
#
# Stress axis : x y z
#
# Youngs Moduli (GPa) = 42.27239 42.27239 134.16743
#
# Poissons Ratio (x) = 0.30141 0.48924
# Poissons Ratio (y) = 0.30141 0.48924
# Poissons Ratio (z) = 0.15415 0.15415
#
# Static dielectric constant tensor:
#      x y z
#    x 1.887600 0.000000 0.000000 
#    y 0.000000 1.887600 0.000000 
#    z 0.000000 0.000000 1.996020 
# 
# From -- ./inp_files/3575.got.cif
#   From: 2010.05.17/outbox.cif.g08.bks.cpg/sg91_2_cif.got.tgz:3575.got - 2010.06.03 19:20:03.
