data_PCOD9548540
_publ_section_title
;
Structure prediction by ZEFSAII (Michael W. Deem and Ramdas Pophale) SiO2 
 PCOD9548540
Probable space group: P 41 2 2
;
_chemical_formula_sum "Si O2"
_cell_formula_units_Z 24
_cell_length_a 8.103300
_cell_length_b 8.103300
_cell_length_c 15.883396
_cell_angle_alpha 90.000000
_cell_angle_beta 90.000000
_cell_angle_gamma 90.000000
_cell_volume 1042.958911
_symmetry_space_group_name_H-M "P 41 2 2"
_symmetry_group_IT_number 91
_symmetry_cell_setting 'tetragonal'
loop_
_space_group_symop_operation_xyz
x,y,z
-y,x,1/4+z
-x,-y,1/2+z
y,-x,3/4+z
x,-y,1/2-z
-x,y,-z
y,x,3/4-z
-y,-x,1/4-z
loop_
_atom_site_type_symbol
_atom_site_label
_atom_site_fract_x
_atom_site_fract_y
_atom_site_fract_z
Si Si1 0.319834 0.214977 0.715240
Si Si2 0.197994 0.007671 0.575481
Si Si3 0.317917 0.344202 0.540463
O O1 0.156125 0.233766 0.772168
O O2 0.321650 0.353087 0.641764
O O3 0.492345 0.233194 0.759239
O O4 0.313073 0.051004 0.656122
O O5 0.026850 0.973151 0.625000
O O6 0.217469 0.174480 0.522695
O O7 0.500000 0.327749 0.500000
#
# Coordination Sequence:
#
# PCOD9548540 Si02
#       3
#     8   8   8
#     4  10  24  50  82 111 169 203 277 329 409 476
#     4  10  24  48  78 113 162 210 263 334 403 478
#     4  10  24  46  85 117 157 213 275 326 407 484
#
# _framework density 23.011452999999999
#
# number of rings (size 3 to 8) (size 9 to 14) (size 15 to 20)
#    2.000    0.000    0.000    2.000    0.000    6.667 
#    0.000   16.667    0.000    0.000    0.000    0.000 
#    0.000    0.000    0.000    0.000    0.000    0.000 
#
# Total GULP energy -133698.854591 kJ/mol
# GULP energy per Si atom -5570.785608 kJ/mol
# Density = 2.295908 g / cm^3
# Si number density = 23.011453 Si / 1000 Ang^3
#
#
#
# Elastic Constant Matrix: (Units=GPa)
#
#
# Indices 1 2 3 4 5 6 
#
# 1 169.9465 91.6340 92.0838 0.0000 0.0000 0.0000
# 2 91.6340 169.9458 92.0836 0.0000 0.0000 0.0000
# 3 92.0838 92.0836 145.6331 0.0000 0.0000 0.0000
# 4 0.0000 0.0000 0.0000 33.5810 0.0000 0.0000
# 5 0.0000 0.0000 0.0000 0.0000 33.5816 0.0000
# 6 0.0000 0.0000 0.0000 0.0000 0.0000 37.0700
#
#
#
# Elastic Compliance Matrix: (Units=1/GPa)
#
#
# Indices 1 2 3 4 5 6 
#
# 1 0.009830 -0.002940 -0.004357 0.000000 0.000000 0.000000
# 2 -0.002940 0.009830 -0.004357 0.000000 0.000000 0.000000
# 3 -0.004357 -0.004357 0.012376 0.000000 0.000000 0.000000
# 4 0.000000 0.000000 0.000000 0.029779 0.000000 0.000000
# 5 0.000000 0.000000 0.000000 0.000000 0.029778 0.000000
# 6 0.000000 0.000000 0.000000 0.000000 0.000000 0.026976
#
#
# Mechanical properties :
#
#
# Convention : Reuss Voigt Hill
#
# Bulk Modulus (GPa) = 114.55063 115.23647 114.89355
# Shear Modulus (GPa) = 34.53401 34.82810 34.68105
#
# Velocity S-wave (km/s) = 3.87813 3.89461 3.88638
# Velocity P-wave (km/s) = 8.36308 8.39110 8.37710
#
# Compressibility (1/GPa) = 0.00872976
#
# Stress axis : x y z
#
# Youngs Moduli (GPa) = 101.73100 101.73064 80.80088
#
# Poissons Ratio (x) = 0.29904 0.35203
# Poissons Ratio (y) = 0.29904 0.35203
# Poissons Ratio (z) = 0.44322 0.44321
#
# Static dielectric constant tensor:
#      x y z
#    x 1.937830 0.000000 0.000000 
#    y 0.000000 1.937830 0.000000 
#    z 0.000000 0.000000 1.958480 
# 
# From -- ./inp_files/11637.got.cif
#   From: 2010.05.17/outbox.cif.g08.bks.cpg/sg91_6_cif.got.tgz:11637.got - 2010.06.03 19:20:03.
