data_PCOD9548981
_publ_section_title
;
Structure prediction by ZEFSAII (Michael W. Deem and Ramdas Pophale) SiO2 
 PCOD9548981
Probable space group: P 41 21 2
;
_chemical_formula_sum "Si O2"
_cell_formula_units_Z 64
_cell_length_a 29.301907
_cell_length_b 29.301907
_cell_length_c 5.211869
_cell_angle_alpha 90.000000
_cell_angle_beta 90.000000
_cell_angle_gamma 90.000000
_cell_volume 4474.919864
_symmetry_space_group_name_H-M "P 41 21 2"
_symmetry_group_IT_number 92
_symmetry_cell_setting 'tetragonal'
loop_
_space_group_symop_operation_xyz
x,y,z
1/2-y,1/2+x,1/4+z
-x,-y,1/2+z
1/2+y,1/2-x,3/4+z
1/2+x,1/2-y,3/4-z
1/2-x,1/2+y,1/4-z
y,x,-z
-y,-x,1/2-z
loop_
_atom_site_type_symbol
_atom_site_label
_atom_site_fract_x
_atom_site_fract_y
_atom_site_fract_z
Si Si1 0.005572 0.635545 0.918349
Si Si2 0.332476 0.185491 0.921787
Si Si3 0.326877 0.038963 0.105082
Si Si4 0.041888 0.445925 0.250662
Si Si5 0.355724 0.716462 0.679236
Si Si6 0.614802 0.098774 0.860715
Si Si7 0.254028 0.106826 0.928811
Si Si8 0.705119 0.777037 0.924485
O O1 0.986704 0.653007 0.645462
O O2 0.977174 0.588397 0.968569
O O3 0.993280 0.670149 0.147557
O O4 0.059317 0.624629 0.932595
O O5 0.330480 0.208373 0.643977
O O6 0.379075 0.160793 0.000786
O O7 0.294132 0.145280 0.917176
O O8 0.316798 0.220167 0.144110
O O9 0.358717 0.082407 0.185741
O O10 0.279137 0.060855 0.018201
O O11 0.052102 0.497169 0.325385
O O12 0.085320 0.425480 0.110065
O O13 0.330181 0.669820 0.750000
O O14 0.377472 0.719065 0.398704
O O15 0.315947 0.755269 0.677432
O O16 0.391164 0.731189 0.900069
O O17 0.730519 0.730519 0.000000
#
# Coordination Sequence:
#
# PCOD9548981 Si02
#       8
#     8   8   8   8   8   8   8   8
#     4  11  21  33  45  57  71  92 122 159 196 238
#     4   9  18  27  41  58  75  95 113 138 176 214
#     4  10  21  32  44  56  71  95 120 148 191 231
#     4  11  21  33  47  60  74  96 128 167 213 253
#     4   9  15  23  38  57  75  93 111 133 162 199
#     4  10  20  32  44  59  76  93 120 158 196 236
#     4   9  16  27  38  53  74  93 114 138 166 214
#     4   9  16  27  41  58  77  95 113 131 158 209
#
# _framework density 14.301931
#
# number of rings (size 3 to 8) (size 9 to 14) (size 15 to 20)
#    0.000    2.250    0.000    4.500    0.000   12.000 
#    0.000    0.000    0.000    0.000    0.000    0.000 
#    0.000    0.000    0.000    0.000    0.000    0.000 
#
# Total GULP energy -356809.713672 kJ/mol
# GULP energy per Si atom -5575.151776 kJ/mol
# Density = 1.426938 g / cm^3
# Si number density = 14.301931 Si / 1000 Ang^3
#
#
#
# Elastic Constant Matrix: (Units=GPa)
#
#
# Indices 1 2 3 4 5 6 
#
# 1 15.2975 10.5365 -9.6934 0.0000 0.0000 0.0000
# 2 10.5365 15.2983 -9.6928 0.0000 0.0000 0.0000
# 3 -9.6934 -9.6928 29.2975 0.0000 0.0000 0.0000
# 4 0.0000 0.0000 0.0000 15.2099 0.0000 0.0000
# 5 0.0000 0.0000 0.0000 0.0000 15.2098 0.0000
# 6 0.0000 0.0000 0.0000 0.0000 0.0000 12.8854
#
#
#
# Elastic Compliance Matrix: (Units=1/GPa)
#
#
# Indices 1 2 3 4 5 6 
#
# 1 0.130765 -0.079266 0.017040 0.000000 0.000000 0.000000
# 2 -0.079266 0.130752 0.017032 0.000000 0.000000 0.000000
# 3 0.017040 0.017032 0.045405 0.000000 0.000000 0.000000
# 4 0.000000 0.000000 0.000000 0.065747 0.000000 0.000000
# 5 0.000000 0.000000 0.000000 0.000000 0.065747 0.000000
# 6 0.000000 0.000000 0.000000 0.000000 0.000000 0.077607
#
#
# Mechanical properties :
#
#
# Convention : Reuss Voigt Hill
#
# Bulk Modulus (GPa) = 4.61822 4.68822 4.65322
# Shear Modulus (GPa) = 7.36823 13.24388 10.30606
#
# Velocity S-wave (km/s) = 2.27225 3.04636 2.68732
# Velocity P-wave (km/s) = 3.18123 3.95713 3.59020
#
# Compressibility (1/GPa) = 0.21653385
#
# Stress axis : x y z
#
# Youngs Moduli (GPa) = 7.64733 7.64807 22.02382
#
# Poissons Ratio (x) = 0.60623 -0.37529
# Poissons Ratio (y) = 0.60618 -0.37511
# Poissons Ratio (z) = -0.13031 -0.13026
#
# Static dielectric constant tensor:
#      x y z
#    x 1.479270 0.000000 0.000000 
#    y 0.000000 1.479270 0.000000 
#    z 0.000000 0.000000 1.534140 
# 
# From -- ./inp_files/885.got.cif
#   From: 2010.05.17/outbox.cif.g08.bks.cpg/sg92_1_cif.got.tgz:885.got - 2010.06.03 19:35:17.
