data_PCOD9548696
_publ_section_title
;
Structure prediction by ZEFSAII (Michael W. Deem and Ramdas Pophale) SiO2 
 PCOD9548696
Probable space group: P 41 2 2
;
_chemical_formula_sum "Si O2"
_cell_formula_units_Z 40
_cell_length_a 15.171215
_cell_length_b 15.171215
_cell_length_c 8.594933
_cell_angle_alpha 90.000000
_cell_angle_beta 90.000000
_cell_angle_gamma 90.000000
_cell_volume 1978.259325
_symmetry_space_group_name_H-M "P 41 2 2"
_symmetry_group_IT_number 91
_symmetry_cell_setting 'tetragonal'
loop_
_space_group_symop_operation_xyz
x,y,z
-y,x,1/4+z
-x,-y,1/2+z
y,-x,3/4+z
x,-y,1/2-z
-x,y,-z
y,x,3/4-z
-y,-x,1/4-z
loop_
_atom_site_type_symbol
_atom_site_label
_atom_site_fract_x
_atom_site_fract_y
_atom_site_fract_z
Si Si1 0.319964 0.601848 0.288923
Si Si2 0.000000 0.352287 0.000000
Si Si3 0.659614 0.659614 0.375000
Si Si4 0.255942 0.099722 0.212897
Si Si5 0.598482 0.851391 0.469796
Si Si6 0.843912 0.732360 0.685979
O O1 0.299957 0.500000 0.250000
O O2 0.367960 0.611640 0.460268
O O3 0.234977 0.662087 0.326988
O O4 0.361975 0.638026 0.125000
O O5 0.066985 0.293604 0.099535
O O6 0.933212 0.408225 0.102745
O O7 0.645430 0.763628 0.407434
O O8 0.186662 0.169050 0.140152
O O9 0.272487 0.137259 0.382280
O O10 0.227532 0.000000 0.250000
O O11 0.344012 0.110083 0.111435
O O12 0.500000 0.821400 0.500000
#
# Coordination Sequence:
#
# PCOD9548696 Si02
#       6
#     8   4   4   8   8   8
#     4  12  27  47  74 103 141 193 246 301 361 438
#     4  12  24  40  66 108 136 178 230 298 356 438
#     4  12  26  48  74  96 146 198 234 282 382 434
#     4  11  22  43  71  93 135 186 229 282 362 435
#     4  12  26  41  68 102 138 180 235 296 355 433
#     4  11  23  43  71  98 139 181 231 292 365 425
#
# _framework density 20.219795999999999
#
# number of rings (size 3 to 8) (size 9 to 14) (size 15 to 20)
#    0.000    0.400    8.000    0.000    7.000    0.800 
#    1.800    0.000    8.800    0.000    0.000    0.000 
#    0.000    0.000    0.000    0.000    0.000    0.000 
#
# Total GULP energy -222876.823035 kJ/mol
# GULP energy per Si atom -5571.920576 kJ/mol
# Density = 2.017377 g / cm^3
# Si number density = 20.219796 Si / 1000 Ang^3
#
#
#
# Elastic Constant Matrix: (Units=GPa)
#
#
# Indices 1 2 3 4 5 6 
#
# 1 119.6749 57.4047 31.0167 0.0000 0.0000 0.0000
# 2 57.4047 119.6747 31.0177 0.0000 0.0000 0.0000
# 3 31.0167 31.0177 110.5744 0.0000 0.0000 0.0000
# 4 0.0000 0.0000 0.0000 25.4654 0.0000 0.0000
# 5 0.0000 0.0000 0.0000 0.0000 25.4653 0.0000
# 6 0.0000 0.0000 0.0000 0.0000 0.0000 -1.0431
#
#
#
# Elastic Compliance Matrix: (Units=1/GPa)
#
#
# Indices 1 2 3 4 5 6 
#
# 1 0.011161 -0.004898 -0.001757 0.000000 0.000000 0.000000
# 2 -0.004898 0.011161 -0.001757 0.000000 0.000000 0.000000
# 3 -0.001757 -0.001757 0.010029 0.000000 0.000000 0.000000
# 4 0.000000 0.000000 0.000000 0.039269 0.000000 0.000000
# 5 0.000000 0.000000 0.000000 0.000000 0.039269 0.000000
# 6 0.000000 0.000000 0.000000 0.000000 0.000000 -0.958640
#
#
# Mechanical properties :
#
#
# Convention : Reuss Voigt Hill
#
# Bulk Modulus (GPa) = 64.40167 65.42248 64.91207
# Shear Modulus (GPa) = -6.05509 25.34316 9.64404
#
# Velocity S-wave (km/s) = -1.73238 3.54416 2.18631
# Velocity P-wave (km/s) = 5.28379 7.01241 6.20856
#
# Compressibility (1/GPa) = 0.01552755
#
# Stress axis : x y z
#
# Youngs Moduli (GPa) = 89.59930 89.59877 99.70841
#
# Poissons Ratio (x) = 0.43888 0.17515
# Poissons Ratio (y) = 0.43888 0.17517
# Poissons Ratio (z) = 0.15739 0.15741
#
# Static dielectric constant tensor:
#      x y z
#    x 1.666200 0.000000 0.000000 
#    y 0.000000 1.666200 0.000000 
#    z 0.000000 0.000000 1.724720 
# 
# From -- ./inp_files/2443.got.cif
#   From: 2010.05.17/outbox.cif.g08.bks.cpg/sg91_2_cif.got.tgz:2443.got - 2010.06.03 19:20:03.
