data_PCOD9548171
_publ_section_title
;
Structure prediction by ZEFSAII (Michael W. Deem and Ramdas Pophale) SiO2 
 PCOD9548171
Probable space group: P 41 2 2
;
_chemical_formula_sum "Si O2"
_cell_formula_units_Z 40
_cell_length_a 15.459573
_cell_length_b 15.459573
_cell_length_c 7.766494
_cell_angle_alpha 90.000000
_cell_angle_beta 90.000000
_cell_angle_gamma 90.000000
_cell_volume 1856.179619
_symmetry_space_group_name_H-M "P 41 2 2"
_symmetry_group_IT_number 91
_symmetry_cell_setting 'tetragonal'
loop_
_space_group_symop_operation_xyz
x,y,z
-y,x,1/4+z
-x,-y,1/2+z
y,-x,3/4+z
x,-y,1/2-z
-x,y,-z
y,x,3/4-z
-y,-x,1/4-z
loop_
_atom_site_type_symbol
_atom_site_label
_atom_site_fract_x
_atom_site_fract_y
_atom_site_fract_z
Si Si1 0.724728 0.531151 0.060735
Si Si2 0.858112 0.733705 0.760880
Si Si3 0.557282 0.092097 0.670286
Si Si4 0.889618 0.964834 0.047411
Si Si5 0.701082 0.349591 0.929907
O O1 0.698761 0.500000 0.250000
O O2 0.686353 0.627021 0.053208
O O3 0.827745 0.537849 0.044197
O O4 0.697301 0.453741 0.935110
O O5 0.793539 0.793539 0.875000
O O6 0.900946 0.658408 0.873235
O O7 0.935769 0.790974 0.677445
O O8 0.794354 0.685807 0.627276
O O9 0.500000 0.104324 0.500000
O O10 0.536610 0.000000 0.750000
O O11 0.913009 0.913009 0.875000
O O12 0.921012 0.057525 0.959695
O O13 0.683063 0.316938 0.125000
#
# Coordination Sequence:
#
# PCOD9548171 Si02
#       5
#     8   8   8   8   8
#     4  10  21  41  68  94 137 172 219 273 334 397
#     4  11  22  38  68  98 123 173 220 266 331 401
#     4  12  25  41  67  94 134 174 219 273 333 402
#     4   9  20  39  65  88 127 160 209 268 330 384
#     4  10  21  40  69  96 136 176 217 276 330 396
#
# _framework density 21.549638999999999
#
# number of rings (size 3 to 8) (size 9 to 14) (size 15 to 20)
#    0.000    1.600    4.000    0.600    5.600    0.000 
#    0.000    7.000   48.400    0.000    0.000    0.000 
#    0.000    0.000    0.000    0.000    0.000    0.000 
#
# Total GULP energy -222673.272280 kJ/mol
# GULP energy per Si atom -5566.831807 kJ/mol
# Density = 2.150059 g / cm^3
# Si number density = 21.549639 Si / 1000 Ang^3
#
#
#
# Elastic Constant Matrix: (Units=GPa)
#
#
# Indices 1 2 3 4 5 6 
#
# 1 57.1316 7.9676 0.5587 0.0000 0.0000 0.0000
# 2 7.9676 57.1313 0.5587 0.0000 0.0000 0.0000
# 3 0.5587 0.5587 87.8197 0.0000 0.0000 0.0000
# 4 0.0000 0.0000 0.0000 70.4542 0.0000 0.0000
# 5 0.0000 0.0000 0.0000 0.0000 70.4547 0.0000
# 6 0.0000 0.0000 0.0000 0.0000 0.0000**********
#
#
#
# Elastic Compliance Matrix: (Units=1/GPa)
#
#
# Indices 1 2 3 4 5 6 
#
# 1 0.017851 -0.002489 -0.000098 0.000000 0.000000 0.000000
# 2 -0.002489 0.017852 -0.000098 0.000000 0.000000 0.000000
# 3 -0.000098 -0.000098 0.011388 0.000000 0.000000 0.000000
# 4 0.000000 0.000000 0.000000 0.014194 0.000000 0.000000
# 5 0.000000 0.000000 0.000000 0.000000 0.014194 0.000000
# 6 0.000000 0.000000 0.000000 0.000000 0.000000 -0.000048
#
#
# Mechanical properties :
#
#
# Convention : Reuss Voigt Hill
#
# Bulk Modulus (GPa) = 23.96759 24.47253 24.22006
# Shear Modulus (GPa) = 52.79486 -4113.52939 -2030.36726
#
# Velocity S-wave (km/s) = 4.95504 -43.73793 -30.72828
# Velocity P-wave (km/s) = 6.62440 50.39141 35.32288
#
# Compressibility (1/GPa) = 0.04172300
#
# Stress axis : x y z
#
# Youngs Moduli (GPa) = 56.01774 56.01750 87.81007
#
# Poissons Ratio (x) = 0.13941 0.00858
# Poissons Ratio (y) = 0.13941 0.00858
# Poissons Ratio (z) = 0.00548 0.00548
#
# Static dielectric constant tensor:
#      x y z
#    x 1.607970 0.000000 0.000000 
#    y 0.000000 1.607970 0.000000 
#    z 0.000000 0.000000 1.839150 
# 
# From -- ./inp_files/14991.got.cif
#   From: 2010.05.17/outbox.cif.g08.bks.cpg/sg91_8_cif.got.tgz:14991.got - 2010.06.03 19:20:03.
