data_PCOD9548387
_publ_section_title
;
Structure prediction by ZEFSAII (Michael W. Deem and Ramdas Pophale) SiO2 
 PCOD9548387
Probable space group: P 41 2 2
;
_chemical_formula_sum "Si O2"
_cell_formula_units_Z 36
_cell_length_a 7.779798
_cell_length_b 7.779798
_cell_length_c 21.175375
_cell_angle_alpha 90.000000
_cell_angle_beta 90.000000
_cell_angle_gamma 90.000000
_cell_volume 1281.645012
_symmetry_space_group_name_H-M "P 41 2 2"
_symmetry_group_IT_number 91
_symmetry_cell_setting 'tetragonal'
loop_
_space_group_symop_operation_xyz
x,y,z
-y,x,1/4+z
-x,-y,1/2+z
y,-x,3/4+z
x,-y,1/2-z
-x,y,-z
y,x,3/4-z
-y,-x,1/4-z
loop_
_atom_site_type_symbol
_atom_site_label
_atom_site_fract_x
_atom_site_fract_y
_atom_site_fract_z
Si Si1 0.873782 0.979568 0.442222
Si Si2 0.688069 0.344896 0.441106
Si Si3 0.000000 0.506732 0.000000
Si Si4 0.512780 0.789985 0.435267
Si Si5 0.124965 0.395329 0.357442
O O1 0.811378 0.175776 0.449504
O O2 0.705263 0.862405 0.433838
O O3 0.000000 0.927122 0.500000
O O4 0.965214 0.965214 0.375000
O O5 0.796468 0.471853 0.484900
O O6 0.500672 0.261601 0.434564
O O7 0.694655 0.439675 0.373961
O O8 0.050410 0.510807 0.079202
O O9 0.500000 0.688523 0.500000
O O10 0.386819 0.957740 0.436952
O O11 0.220985 0.220985 0.375000
#
# Coordination Sequence:
#
# PCOD9548387 Si02
#       5
#     8   8   4   8   8
#     4  11  23  42  69  99 133 180 226 279 347 416
#     4  10  22  44  65  99 132 180 225 282 347 413
#     4  10  22  44  70  98 142 174 228 292 332 432
#     4  10  23  42  63  97 134 172 225 283 340 417
#     4  10  24  41  71  99 133 183 230 281 353 416
#
# _framework density 28.088902000000001
#
# number of rings (size 3 to 8) (size 9 to 14) (size 15 to 20)
#    0.000    1.778    1.111    1.333    6.222    4.444 
#   34.000    0.000    0.000    0.000    0.000    0.000 
#    0.000    0.000    0.000    0.000    0.000    0.000 
#
# Total GULP energy -200484.132774 kJ/mol
# GULP energy per Si atom -5569.003688 kJ/mol
# Density = 2.802497 g / cm^3
# Si number density = 28.088902 Si / 1000 Ang^3
#
#
#
# Elastic Constant Matrix: (Units=GPa)
#
#
# Indices 1 2 3 4 5 6 
#
# 1 87.9308 47.5158 -10.8608 0.0000 0.0000 0.0000
# 2 47.5158 87.9308 -10.8608 0.0000 0.0000 0.0000
# 3 -10.8608 -10.8608 139.1946 0.0000 0.0000 0.0000
# 4 0.0000 0.0000 0.0000 59.6784 0.0000 0.0000
# 5 0.0000 0.0000 0.0000 0.0000 59.6784 0.0000
# 6 0.0000 0.0000 0.0000 0.0000 0.0000 35.5431
#
#
#
# Elastic Compliance Matrix: (Units=1/GPa)
#
#
# Indices 1 2 3 4 5 6 
#
# 1 0.016110 -0.008633 0.000583 0.000000 0.000000 0.000000
# 2 -0.008633 0.016110 0.000583 0.000000 0.000000 0.000000
# 3 0.000583 0.000583 0.007275 0.000000 0.000000 0.000000
# 4 0.000000 0.000000 0.000000 0.016756 0.000000 0.000000
# 5 0.000000 0.000000 0.000000 0.000000 0.016756 0.000000
# 6 0.000000 0.000000 0.000000 0.000000 0.000000 0.028135
#
#
# Mechanical properties :
#
#
# Convention : Reuss Voigt Hill
#
# Bulk Modulus (GPa) = 40.71368 40.73826 40.72597
# Shear Modulus (GPa) = 40.23712 50.26412 45.25062
#
# Velocity S-wave (km/s) = 3.78893 4.23480 4.01805
# Velocity P-wave (km/s) = 5.80236 6.20050 6.00473
#
# Compressibility (1/GPa) = 0.02456177
#
# Stress axis : x y z
#
# Youngs Moduli (GPa) = 62.07361 62.07361 137.45282
#
# Poissons Ratio (x) = 0.53590 -0.08019
# Poissons Ratio (y) = 0.53590 -0.08019
# Poissons Ratio (z) = -0.03621 -0.03621
#
# Static dielectric constant tensor:
#      x y z
#    x 2.154180 0.000000 0.000000 
#    y 0.000000 2.154180 0.000000 
#    z 0.000000 0.000000 0.752100 
# 
# From -- ./inp_files/6176.got.cif
#   From: 2010.05.17/outbox.cif.g08.bks.cpg/sg91_4_cif.got.tgz:6176.got - 2010.06.03 19:20:03.
