data_PCOD9548111
_publ_section_title
;
Structure prediction by ZEFSAII (Michael W. Deem and Ramdas Pophale) SiO2 
 PCOD9548111
Probable space group: P 41 2 2
;
_chemical_formula_sum "Si O2"
_cell_formula_units_Z 56
_cell_length_a 11.708049
_cell_length_b 11.708049
_cell_length_c 18.874196
_cell_angle_alpha 90.000000
_cell_angle_beta 90.000000
_cell_angle_gamma 90.000000
_cell_volume 2587.244804
_symmetry_space_group_name_H-M "P 41 2 2"
_symmetry_group_IT_number 91
_symmetry_cell_setting 'tetragonal'
loop_
_space_group_symop_operation_xyz
x,y,z
-y,x,1/4+z
-x,-y,1/2+z
y,-x,3/4+z
x,-y,1/2-z
-x,y,-z
y,x,3/4-z
-y,-x,1/4-z
loop_
_atom_site_type_symbol
_atom_site_label
_atom_site_fract_x
_atom_site_fract_y
_atom_site_fract_z
Si Si1 0.904076 0.600303 0.843334
Si Si2 0.668747 0.915268 0.481171
Si Si3 0.026273 0.226384 0.578823
Si Si4 0.026892 0.623184 0.417235
Si Si5 0.740466 0.272610 0.346443
Si Si6 0.966077 0.911601 0.303415
Si Si7 0.504245 0.655491 0.079436
O O1 0.938800 0.507581 0.902275
O O2 0.777841 0.561099 0.823291
O O3 0.996278 0.599416 0.779990
O O4 0.922168 0.725565 0.875386
O O5 0.677641 0.790794 0.520681
O O6 0.795007 0.967612 0.487321
O O7 0.642683 0.933945 0.397019
O O8 0.145392 0.278757 0.606106
O O9 0.000000 0.263018 0.500000
O O10 0.044849 0.090550 0.576032
O O11 0.138821 0.703143 0.405788
O O12 0.000000 0.636591 0.500000
O O13 0.629567 0.329639 0.383965
O O14 0.896834 0.896834 0.375000
O O15 0.910998 0.000000 0.250000
O O16 0.428435 0.571566 0.125000
O O17 0.500000 0.609071 0.000000
#
# Coordination Sequence:
#
# PCOD9548111 Si02
#       7
#     8   8   8   8   8   8   8
#     4  10  22  43  68 101 129 175 242 303 356 418
#     4  11  23  40  69  97 144 186 224 309 360 434
#     4  10  21  37  65 102 143 176 230 296 353 432
#     4  11  23  40  65  97 134 187 240 282 355 442
#     4  10  23  43  64 104 146 180 245 294 363 452
#     4  11  23  35  56  97 144 186 220 266 353 440
#     4  11  26  47  77 101 142 194 250 314 374 438
#
# _framework density 21.644648
#
# number of rings (size 3 to 8) (size 9 to 14) (size 15 to 20)
#    0.000    1.429    1.429    4.286    4.000    1.714 
#    2.571    2.857    0.000    0.000    0.000    0.000 
#    0.000    0.000    0.000    0.000    0.000    0.000 
#
# Total GULP energy -312104.127068 kJ/mol
# GULP energy per Si atom -5573.287983 kJ/mol
# Density = 2.159538 g / cm^3
# Si number density = 21.644648 Si / 1000 Ang^3
#
#
#
# Elastic Constant Matrix: (Units=GPa)
#
#
# Indices 1 2 3 4 5 6 
#
# 1 86.7789 46.2946 50.8163 0.0000 0.0000 0.0000
# 2 46.2946 86.7786 50.8150 0.0000 0.0000 0.0000
# 3 50.8163 50.8150 169.3116 0.0000 0.0000 0.0000
# 4 0.0000 0.0000 0.0000 36.6556 0.0000 0.0000
# 5 0.0000 0.0000 0.0000 0.0000 36.6564 0.0000
# 6 0.0000 0.0000 0.0000 0.0000 0.0000 38.5448
#
#
#
# Elastic Compliance Matrix: (Units=1/GPa)
#
#
# Indices 1 2 3 4 5 6 
#
# 1 0.017225 -0.007476 -0.002926 0.000000 0.000000 0.000000
# 2 -0.007476 0.017225 -0.002926 0.000000 0.000000 0.000000
# 3 -0.002926 -0.002926 0.007663 0.000000 0.000000 0.000000
# 4 0.000000 0.000000 0.000000 0.027281 0.000000 0.000000
# 5 0.000000 0.000000 0.000000 0.000000 0.027280 0.000000
# 6 0.000000 0.000000 0.000000 0.000000 0.000000 0.025944
#
#
# Mechanical properties :
#
#
# Convention : Reuss Voigt Hill
#
# Bulk Modulus (GPa) = 64.69524 70.96899 67.83212
# Shear Modulus (GPa) = 32.37784 35.36756 33.87270
#
# Velocity S-wave (km/s) = 3.87186 4.04667 3.96023
# Velocity P-wave (km/s) = 7.06704 7.39551 7.23314
#
# Compressibility (1/GPa) = 0.01545709
#
# Stress axis : x y z
#
# Youngs Moduli (GPa) = 58.05436 58.05466 130.50241
#
# Poissons Ratio (x) = 0.43401 0.38188
# Poissons Ratio (y) = 0.43400 0.38185
# Poissons Ratio (z) = 0.16988 0.16987
#
# Static dielectric constant tensor:
#      x y z
#    x 1.780440 0.000000 0.000000 
#    y 0.000000 1.780440 0.000000 
#    z 0.000000 0.000000 1.819430 
# 
# From -- ./inp_files/6420.got.cif
#   From: 2010.05.17/outbox.cif.g08.bks.cpg/sg91_4_cif.got.tgz:6420.got - 2010.06.03 19:20:03.
