data_PCOD9548005
_publ_section_title
;
Structure prediction by ZEFSAII (Michael W. Deem and Ramdas Pophale) SiO2 
 PCOD9548005
Probable space group: P 41 2 2
;
_chemical_formula_sum "Si O2"
_cell_formula_units_Z 52
_cell_length_a 18.963716
_cell_length_b 18.963716
_cell_length_c 7.666897
_cell_angle_alpha 90.000000
_cell_angle_beta 90.000000
_cell_angle_gamma 90.000000
_cell_volume 2757.188854
_symmetry_space_group_name_H-M "P 41 2 2"
_symmetry_group_IT_number 91
_symmetry_cell_setting 'tetragonal'
loop_
_space_group_symop_operation_xyz
x,y,z
-y,x,1/4+z
-x,-y,1/2+z
y,-x,3/4+z
x,-y,1/2-z
-x,y,-z
y,x,3/4-z
-y,-x,1/4-z
loop_
_atom_site_type_symbol
_atom_site_label
_atom_site_fract_x
_atom_site_fract_y
_atom_site_fract_z
Si Si1 0.505901 0.078744 0.790138
Si Si2 0.671612 0.917618 0.783407
Si Si3 0.794264 0.713325 0.726335
Si Si4 0.579968 0.206133 0.312574
Si Si5 0.291746 0.546380 0.926306
Si Si6 0.433014 0.433014 0.375000
Si Si7 0.792518 0.321056 0.282316
O O1 0.586039 0.085652 0.722475
O O2 0.454154 0.129680 0.687390
O O3 0.482966 0.000000 0.750000
O O4 0.500000 0.094284 0.000000
O O5 0.691141 0.869300 0.616396
O O6 0.690815 0.000000 0.750000
O O7 0.704326 0.876417 0.954416
O O8 0.771973 0.631812 0.715270
O O9 0.754037 0.752302 0.562560
O O10 0.757087 0.757087 0.875000
O O11 0.512500 0.254913 0.294761
O O12 0.635255 0.203587 0.149227
O O13 0.299558 0.500000 0.750000
O O14 0.247704 0.617368 0.892138
O O15 0.365879 0.567133 0.001731
O O16 0.500000 0.433143 0.500000
#
# Coordination Sequence:
#
# PCOD9548005 Si02
#       7
#     8   8   8   8   8   4   8
#     4  11  22  36  56  86 121 153 192 235 288 356
#     4  10  21  37  56  81 120 149 186 238 291 349
#     4  10  24  37  56  82 109 147 198 239 289 344
#     4  11  21  38  59  80 109 152 189 239 295 348
#     4  10  23  40  58  75 103 140 186 240 302 351
#     4  12  28  42  56  72  96 132 188 258 310 354
#     4  10  20  40  58  81 111 147 193 238 285 349
#
# _framework density 18.859788999999999
#
# number of rings (size 3 to 8) (size 9 to 14) (size 15 to 20)
#    0.000    1.538    3.077    1.385    9.692    0.000 
#    0.000    0.000    0.000    0.000    0.000    0.000 
#    0.000    0.000    0.000  199.385    0.000    0.000 
#
# Total GULP energy -289533.439968 kJ/mol
# GULP energy per Si atom -5567.950769 kJ/mol
# Density = 1.881686 g / cm^3
# Si number density = 18.859789 Si / 1000 Ang^3
#
#
#
# Elastic Constant Matrix: (Units=GPa)
#
#
# Indices 1 2 3 4 5 6 
#
# 1 120.8713 53.5891 18.8673 0.0000 0.0000 0.0000
# 2 53.5891 120.8713 18.8673 0.0000 0.0000 0.0000
# 3 18.8673 18.8673 53.6257 0.0000 0.0000 0.0000
# 4 0.0000 0.0000 0.0000 21.0704 0.0000 0.0000
# 5 0.0000 0.0000 0.0000 0.0000 21.0704 0.0000
# 6 0.0000 0.0000 0.0000 0.0000 0.0000 36.0268
#
#
#
# Elastic Compliance Matrix: (Units=1/GPa)
#
#
# Indices 1 2 3 4 5 6 
#
# 1 0.010533 -0.004329 -0.002183 0.000000 0.000000 0.000000
# 2 -0.004329 0.010533 -0.002183 0.000000 0.000000 0.000000
# 3 -0.002183 -0.002183 0.020184 0.000000 0.000000 0.000000
# 4 0.000000 0.000000 0.000000 0.047460 0.000000 0.000000
# 5 0.000000 0.000000 0.000000 0.000000 0.047460 0.000000
# 6 0.000000 0.000000 0.000000 0.000000 0.000000 0.027757
#
#
# Mechanical properties :
#
#
# Convention : Reuss Voigt Hill
#
# Bulk Modulus (GPa) = 41.90994 53.11287 47.51140
# Shear Modulus (GPa) = 26.41711 29.23647 27.82679
#
# Velocity S-wave (km/s) = 3.74667 3.94153 3.84533
# Velocity P-wave (km/s) = 6.40209 6.99552 6.70537
#
# Compressibility (1/GPa) = 0.02386069
#
# Stress axis : x y z
#
# Youngs Moduli (GPa) = 94.93591 94.93591 49.54486
#
# Poissons Ratio (x) = 0.41101 0.10815
# Poissons Ratio (y) = 0.41101 0.10815
# Poissons Ratio (z) = 0.20723 0.20723
#
# Static dielectric constant tensor:
#      x y z
#    x 1.664420 0.000000 0.000000 
#    y 0.000000 1.664420 0.000000 
#    z 0.000000 0.000000 1.832830 
# 
# From -- ./inp_files/19646.got.cif
#   From: 2010.05.17/outbox.cif.g08.bks.cpg/sg91_10_cif.got.tgz:19646.got - 2010.06.03 19:20:03.
