data_PCOD9548582
_publ_section_title
;
Structure prediction by ZEFSAII (Michael W. Deem and Ramdas Pophale) SiO2 
 PCOD9548582
Probable space group: P 41 2 2
;
_chemical_formula_sum "Si O2"
_cell_formula_units_Z 40
_cell_length_a 8.332901
_cell_length_b 8.332901
_cell_length_c 23.845886
_cell_angle_alpha 90.000000
_cell_angle_beta 90.000000
_cell_angle_gamma 90.000000
_cell_volume 1655.792487
_symmetry_space_group_name_H-M "P 41 2 2"
_symmetry_group_IT_number 91
_symmetry_cell_setting 'tetragonal'
loop_
_space_group_symop_operation_xyz
x,y,z
-y,x,1/4+z
-x,-y,1/2+z
y,-x,3/4+z
x,-y,1/2-z
-x,y,-z
y,x,3/4-z
-y,-x,1/4-z
loop_
_atom_site_type_symbol
_atom_site_label
_atom_site_fract_x
_atom_site_fract_y
_atom_site_fract_z
Si Si1 0.391073 0.197570 0.446437
Si Si2 0.138311 0.224906 0.936040
Si Si3 0.826106 0.415408 0.481838
Si Si4 0.225171 0.878440 0.452158
Si Si5 0.631667 0.632355 0.623447
O O1 0.500000 0.148200 0.500000
O O2 0.298775 0.354806 0.470929
O O3 0.499761 0.239714 0.393097
O O4 0.276713 0.051500 0.430620
O O5 0.213100 0.213100 0.875000
O O6 0.157277 0.396519 0.966686
O O7 0.951552 0.176307 0.932598
O O8 0.219692 0.106832 0.980604
O O9 0.761386 0.349709 0.423242
O O10 0.000000 0.355402 0.500000
O O11 0.341691 0.735919 0.431853
O O12 0.464590 0.535411 0.625000
#
# Coordination Sequence:
#
# PCOD9548582 Si02
#       5
#     8   8   8   8   8
#     4  10  26  46  76 110 153 196 255 315 387 464
#     4  11  26  46  75 110 154 203 259 317 390 461
#     4  11  24  47  75 109 152 200 252 316 380 460
#     4  11  26  46  73 113 151 203 259 321 387 460
#     4  11  26  45  75 110 152 202 254 318 385 459
#
# _framework density 24.157613999999999
#
# number of rings (size 3 to 8) (size 9 to 14) (size 15 to 20)
#    0.000    1.200    2.000    1.800   11.200    2.400 
#    0.000    0.000    0.000    0.000    0.000    0.000 
#    0.000    0.000    0.000    0.000    0.000    0.000 
#
# Total GULP energy -223737.850981 kJ/mol
# GULP energy per Si atom -5593.446275 kJ/mol
# Density = 2.410263 g / cm^3
# Si number density = 24.157614 Si / 1000 Ang^3
#
#
#
# Elastic Constant Matrix: (Units=GPa)
#
#
# Indices 1 2 3 4 5 6 
#
# 1 114.7360 66.3916 31.9192 0.0000 0.0000 0.0000
# 2 66.3916 114.7362 31.9199 0.0000 0.0000 0.0000
# 3 31.9192 31.9199 99.4404 0.0000 0.0000 0.0000
# 4 0.0000 0.0000 0.0000 22.2959 0.0000 0.0000
# 5 0.0000 0.0000 0.0000 0.0000 22.2962 0.0000
# 6 0.0000 0.0000 0.0000 0.0000 0.0000 44.0405
#
#
#
# Elastic Compliance Matrix: (Units=1/GPa)
#
#
# Indices 1 2 3 4 5 6 
#
# 1 0.013455 -0.007230 -0.001998 0.000000 0.000000 0.000000
# 2 -0.007230 0.013455 -0.001998 0.000000 0.000000 0.000000
# 3 -0.001998 -0.001998 0.011339 0.000000 0.000000 0.000000
# 4 0.000000 0.000000 0.000000 0.044851 0.000000 0.000000
# 5 0.000000 0.000000 0.000000 0.000000 0.044851 0.000000
# 6 0.000000 0.000000 0.000000 0.000000 0.000000 0.022706
#
#
# Mechanical properties :
#
#
# Convention : Reuss Voigt Hill
#
# Bulk Modulus (GPa) = 63.30472 65.48601 64.39537
# Shear Modulus (GPa) = 28.03072 30.97199 29.50136
#
# Velocity S-wave (km/s) = 3.41005 3.58450 3.49836
# Velocity P-wave (km/s) = 6.46269 6.65569 6.55990
#
# Compressibility (1/GPa) = 0.01579661
#
# Stress axis : x y z
#
# Youngs Moduli (GPa) = 74.32148 74.32131 88.19026
#
# Poissons Ratio (x) = 0.53733 0.17622
# Poissons Ratio (y) = 0.53733 0.17623
# Poissons Ratio (z) = 0.14851 0.14852
#
# Static dielectric constant tensor:
#      x y z
#    x 1.948060 0.000000 0.000000 
#    y 0.000000 1.948060 0.000000 
#    z 0.000000 0.000000 1.954890 
# 
# From -- ./inp_files/7359.got.cif
#   From: 2010.05.17/outbox.cif.g08.bks.cpg/sg91_4_cif.got.tgz:7359.got - 2010.06.03 19:20:03.
