data_PCOD9548368
_publ_section_title
;
Structure prediction by ZEFSAII (Michael W. Deem and Ramdas Pophale) SiO2 
 PCOD9548368
Probable space group: P 41 2 2
;
_chemical_formula_sum "Si O2"
_cell_formula_units_Z 32
_cell_length_a 9.208033
_cell_length_b 9.208033
_cell_length_c 17.545974
_cell_angle_alpha 90.000000
_cell_angle_beta 90.000000
_cell_angle_gamma 90.000000
_cell_volume 1487.685793
_symmetry_space_group_name_H-M "P 41 2 2"
_symmetry_group_IT_number 91
_symmetry_cell_setting 'tetragonal'
loop_
_space_group_symop_operation_xyz
x,y,z
-y,x,1/4+z
-x,-y,1/2+z
y,-x,3/4+z
x,-y,1/2-z
-x,y,-z
y,x,3/4-z
-y,-x,1/4-z
loop_
_atom_site_type_symbol
_atom_site_label
_atom_site_fract_x
_atom_site_fract_y
_atom_site_fract_z
Si Si1 0.644799 0.997985 0.337850
Si Si2 0.839260 0.219276 0.408734
Si Si3 0.712217 0.501157 0.159014
Si Si4 0.669705 0.142405 0.668277
O O1 0.767734 0.065353 0.391961
O O2 0.497537 0.095725 0.335765
O O3 0.696724 0.000000 0.250000
O O4 0.591681 0.843325 0.370201
O O5 0.740256 0.334406 0.364831
O O6 0.840144 0.273303 0.495815
O O7 0.005286 0.242557 0.382625
O O8 0.715836 0.500000 0.250000
O O9 0.566402 0.433599 0.125000
O O10 0.712370 0.287631 0.625000
#
# Coordination Sequence:
#
# PCOD9548368 Si02
#       4
#     8   8   8   8
#     4  11  22  44  65  93 129 168 212 262 318 381
#     4  10  23  42  63  91 126 164 209 261 316 371
#     4  11  24  42  64  93 129 164 210 264 317 381
#     4  10  22  43  63  92 130 162 211 264 312 381
#
# _framework density 21.509920000000001
#
# number of rings (size 3 to 8) (size 9 to 14) (size 15 to 20)
#    0.000    1.500    5.000    1.500    7.000    2.000 
#    4.500    0.000    0.000    0.000    0.000    0.000 
#    0.000    0.000    0.000    0.000    0.000    0.000 
#
# Total GULP energy -178792.683002 kJ/mol
# GULP energy per Si atom -5587.271344 kJ/mol
# Density = 2.146096 g / cm^3
# Si number density = 21.509920 Si / 1000 Ang^3
#
#
#
# Elastic Constant Matrix: (Units=GPa)
#
#
# Indices 1 2 3 4 5 6 
#
# 1 26.1289 32.7063 4.5433 0.0000 0.0000 0.0000
# 2 32.7063 26.1245 4.5420 0.0000 0.0000 0.0000
# 3 4.5433 4.5420 88.0939 0.0000 0.0000 0.0000
# 4 0.0000 0.0000 0.0000 12.5218 0.0000 0.0000
# 5 0.0000 0.0000 0.0000 0.0000 12.5252 0.0000
# 6 0.0000 0.0000 0.0000 0.0000 0.0000 38.6227
#
#
#
# Elastic Compliance Matrix: (Units=1/GPa)
#
#
# Indices 1 2 3 4 5 6 
#
# 1 -0.067420 0.084560 -0.000883 0.000000 0.000000 0.000000
# 2 0.084560 -0.067432 -0.000884 0.000000 0.000000 0.000000
# 3 -0.000883 -0.000884 0.011443 0.000000 0.000000 0.000000
# 4 0.000000 0.000000 0.000000 0.079861 0.000000 0.000000
# 5 0.000000 0.000000 0.000000 0.000000 0.079839 0.000000
# 6 0.000000 0.000000 0.000000 0.000000 0.000000 0.025891
#
#
# Mechanical properties :
#
#
# Convention : Reuss Voigt Hill
#
# Bulk Modulus (GPa) = 23.71017 24.88116 24.29566
# Shear Modulus (GPa) = -55.96290 19.30433 -18.32929
#
# Velocity S-wave (km/s) = -5.10624 2.99902 -2.92230
# Velocity P-wave (km/s) = 4.87013 4.85639 0.25847
#
# Compressibility (1/GPa) = 0.04217599
#
# Stress axis : x y z
#
# Youngs Moduli (GPa) = -14.83229 -14.82985 87.39240
#
# Poissons Ratio (x) = 1.25401 0.07714
# Poissons Ratio (y) = 1.25421 0.07729
# Poissons Ratio (z) = -0.01309 -0.01311
#
# Static dielectric constant tensor:
#      x y z
#    x 1.782550 0.000000 0.000000 
#    y 0.000000 1.782560 0.000000 
#    z 0.000000 0.000000 1.549710 
# 
# From -- ./inp_files/5960.got.cif
#   From: 2010.05.17/outbox.cif.g08.bks.cpg/sg91_3_cif.got.tgz:5960.got - 2010.06.03 19:20:03.
