data_PCOD9548901
_publ_section_title
;
Structure prediction by ZEFSAII (Michael W. Deem and Ramdas Pophale) SiO2 
 PCOD9548901
Probable space group: P 41 21 2
;
_chemical_formula_sum "Si O2"
_cell_formula_units_Z 44
_cell_length_a 8.191909
_cell_length_b 8.191909
_cell_length_c 26.473373
_cell_angle_alpha 90.000000
_cell_angle_beta 90.000000
_cell_angle_gamma 90.000000
_cell_volume 1776.558518
_symmetry_space_group_name_H-M "P 41 21 2"
_symmetry_group_IT_number 92
_symmetry_cell_setting 'tetragonal'
loop_
_space_group_symop_operation_xyz
x,y,z
1/2-y,1/2+x,1/4+z
-x,-y,1/2+z
1/2+y,1/2-x,3/4+z
1/2+x,1/2-y,3/4-z
1/2-x,1/2+y,1/4-z
y,x,-z
-y,-x,1/2-z
loop_
_atom_site_type_symbol
_atom_site_label
_atom_site_fract_x
_atom_site_fract_y
_atom_site_fract_z
Si Si1 0.828909 0.253975 0.487514
Si Si2 0.737394 0.411371 0.931475
Si Si3 0.051024 0.283439 0.398371
Si Si4 0.445880 0.838290 0.671327
Si Si5 0.367408 0.632593 0.250000
Si Si6 0.753363 0.437377 0.647661
O O1 0.658019 0.306707 0.513350
O O2 0.884212 0.292721 0.431059
O O3 0.971309 0.330693 0.523553
O O4 0.838686 0.057675 0.489037
O O5 0.828167 0.579740 0.922058
O O6 0.593469 0.392821 0.891226
O O7 0.876636 0.281014 0.913554
O O8 0.159446 0.125259 0.409672
O O9 0.985568 0.318778 0.341778
O O10 0.587966 0.887319 0.632918
O O11 0.271279 0.667017 0.198574
#
# Coordination Sequence:
#
# PCOD9548901 Si02
#       6
#     8   8   8   8   4   8
#     4  10  20  40  61  82 122 165 205 244 306 382
#     4   9  21  38  60  87 117 155 203 250 296 362
#     4  11  22  37  63  90 122 161 200 252 323 352
#     4  10  22  39  58  89 124 157 202 261 301 379
#     4  10  18  36  68  80 110 172 204 236 302 374
#     4   9  20  39  58  89 114 157 211 245 290 366
#
# _framework density 24.766985999999999
#
# number of rings (size 3 to 8) (size 9 to 14) (size 15 to 20)
#    0.000    2.182    1.818    0.000    2.545    1.455 
#   26.182    0.000    4.000    0.000    0.000    0.000 
#    0.000    0.000    0.000    0.000    0.000    0.000 
#
# Total GULP energy -245695.149697 kJ/mol
# GULP energy per Si atom -5583.980675 kJ/mol
# Density = 2.471062 g / cm^3
# Si number density = 24.766986 Si / 1000 Ang^3
#
#
#
# Elastic Constant Matrix: (Units=GPa)
#
#
# Indices 1 2 3 4 5 6 
#
# 1 17.9521 16.0410 -2.6685 0.0000 0.0000 0.0000
# 2 16.0410 17.9517 -2.6685 0.0000 0.0000 0.0000
# 3 -2.6685 -2.6685 78.5462 0.0000 0.0000 0.0000
# 4 0.0000 0.0000 0.0000 24.3221 0.0000 0.0000
# 5 0.0000 0.0000 0.0000 0.0000 24.3219 0.0000
# 6 0.0000 0.0000 0.0000 0.0000 0.0000 39.7376
#
#
#
# Elastic Compliance Matrix: (Units=1/GPa)
#
#
# Indices 1 2 3 4 5 6 
#
# 1 0.276445 -0.246873 0.001005 0.000000 0.000000 0.000000
# 2 -0.246873 0.276453 0.001005 0.000000 0.000000 0.000000
# 3 0.001005 0.001005 0.012800 0.000000 0.000000 0.000000
# 4 0.000000 0.000000 0.000000 0.041115 0.000000 0.000000
# 5 0.000000 0.000000 0.000000 0.000000 0.041115 0.000000
# 6 0.000000 0.000000 0.000000 0.000000 0.000000 0.025165
#
#
# Mechanical properties :
#
#
# Convention : Reuss Voigt Hill
#
# Bulk Modulus (GPa) = 13.16307 15.09533 14.12920
# Shear Modulus (GPa) = 4.20825 24.59273 14.40049
#
# Velocity S-wave (km/s) = 1.30492 3.15455 2.41392
# Velocity P-wave (km/s) = 2.75622 4.40187 3.67241
#
# Compressibility (1/GPa) = 0.07597013
#
# Stress axis : x y z
#
# Youngs Moduli (GPa) = 3.61735 3.61726 78.12721
#
# Poissons Ratio (x) = 0.89300 -0.07850
# Poissons Ratio (y) = 0.89303 -0.07850
# Poissons Ratio (z) = -0.00363 -0.00363
#
# Static dielectric constant tensor:
#      x y z
#    x 2.005070 0.000000 0.000000 
#    y 0.000000 2.005080 0.000000 
#    z 0.000000 0.000000 2.010410 
# 
# From -- ./inp_files/4425.got.cif
#   From: 2010.05.17/outbox.cif.g08.bks.cpg/sg92_3_cif.got.tgz:4425.got - 2010.06.03 19:35:17.
