data_PCOD9548700
_publ_section_title
;
Structure prediction by ZEFSAII (Michael W. Deem and Ramdas Pophale) SiO2 
 PCOD9548700
Probable space group: P 41 2 2
;
_chemical_formula_sum "Si O2"
_cell_formula_units_Z 40
_cell_length_a 13.539051
_cell_length_b 13.539051
_cell_length_c 10.100447
_cell_angle_alpha 90.000000
_cell_angle_beta 90.000000
_cell_angle_gamma 90.000000
_cell_volume 1851.471548
_symmetry_space_group_name_H-M "P 41 2 2"
_symmetry_group_IT_number 91
_symmetry_cell_setting 'tetragonal'
loop_
_space_group_symop_operation_xyz
x,y,z
-y,x,1/4+z
-x,-y,1/2+z
y,-x,3/4+z
x,-y,1/2-z
-x,y,-z
y,x,3/4-z
-y,-x,1/4-z
loop_
_atom_site_type_symbol
_atom_site_label
_atom_site_fract_x
_atom_site_fract_y
_atom_site_fract_z
Si Si1 0.393278 0.058247 0.995450
Si Si2 0.227369 0.365935 0.950538
Si Si3 0.472695 0.324023 0.351451
Si Si4 0.120401 0.716509 0.295277
Si Si5 0.831072 0.684102 0.999370
O O1 0.414341 0.150707 0.899305
O O2 0.301281 0.996597 0.932473
O O3 0.500000 0.003404 0.000000
O O4 0.359752 0.102341 0.135659
O O5 0.272712 0.272712 0.875000
O O6 0.313122 0.436317 0.003538
O O7 0.169016 0.340326 0.083638
O O8 0.500000 0.284499 0.500000
O O9 0.432617 0.432617 0.375000
O O10 0.382586 0.266582 0.275933
O O11 0.200400 0.806342 0.281200
O O12 0.121518 0.676557 0.145104
#
# Coordination Sequence:
#
# PCOD9548700 Si02
#       5
#     8   8   8   8   8
#     4  12  26  39  71 109 138 172 243 300 351 435
#     4  12  25  44  68  98 142 181 233 296 361 418
#     4  12  24  42  67  91 139 193 234 278 349 429
#     4  11  24  42  67  97 135 185 224 288 358 419
#     4  11  22  44  65  95 139 185 222 280 363 428
#
# _framework density 21.604437999999998
#
# number of rings (size 3 to 8) (size 9 to 14) (size 15 to 20)
#    0.000    0.400    8.000    1.200    2.800    2.400 
#    0.000    0.000    0.000    0.000   15.600    0.000 
#    0.000    0.000    0.000    0.000    0.000    0.000 
#
# Total GULP energy -222741.192216 kJ/mol
# GULP energy per Si atom -5568.529805 kJ/mol
# Density = 2.155527 g / cm^3
# Si number density = 21.604438 Si / 1000 Ang^3
#
#
#
# Elastic Constant Matrix: (Units=GPa)
#
#
# Indices 1 2 3 4 5 6 
#
# 1 61.0210 35.3766 43.6889 0.0000 0.0000 0.0000
# 2 35.3766 61.0210 43.6889 0.0000 0.0000 0.0000
# 3 43.6889 43.6889 117.6998 0.0000 0.0000 0.0000
# 4 0.0000 0.0000 0.0000 22.6998 0.0000 0.0000
# 5 0.0000 0.0000 0.0000 0.0000 22.6998 0.0000
# 6 0.0000 0.0000 0.0000 0.0000 0.0000 22.4677
#
#
#
# Elastic Compliance Matrix: (Units=1/GPa)
#
#
# Indices 1 2 3 4 5 6 
#
# 1 0.027314 -0.011680 -0.005803 0.000000 0.000000 0.000000
# 2 -0.011680 0.027314 -0.005803 0.000000 0.000000 0.000000
# 3 -0.005803 -0.005803 0.012804 0.000000 0.000000 0.000000
# 4 0.000000 0.000000 0.000000 0.044053 0.000000 0.000000
# 5 0.000000 0.000000 0.000000 0.000000 0.044053 0.000000
# 6 0.000000 0.000000 0.000000 0.000000 0.000000 0.044508
#
#
# Mechanical properties :
#
#
# Convention : Reuss Voigt Hill
#
# Bulk Modulus (GPa) = 47.93976 53.91675 50.92826
# Shear Modulus (GPa) = 19.71808 21.37262 20.54535
#
# Velocity S-wave (km/s) = 3.02435 3.14868 3.08714
# Velocity P-wave (km/s) = 5.86801 6.18299 6.02756
#
# Compressibility (1/GPa) = 0.02085951
#
# Stress axis : x y z
#
# Youngs Moduli (GPa) = 36.61084 36.61084 78.09875
#
# Poissons Ratio (x) = 0.42763 0.45322
# Poissons Ratio (y) = 0.42763 0.45322
# Poissons Ratio (z) = 0.21246 0.21246
#
# Static dielectric constant tensor:
#      x y z
#    x 1.910480 0.000000 0.000000 
#    y 0.000000 1.910480 0.000000 
#    z 0.000000 0.000000 1.774750 
# 
# From -- ./inp_files/19413.got.cif
#   From: 2010.05.17/outbox.cif.g08.bks.cpg/sg91_10_cif.got.tgz:19413.got - 2010.06.03 19:20:03.
