data_PCOD9548373
_publ_section_title
;
Structure prediction by ZEFSAII (Michael W. Deem and Ramdas Pophale) SiO2 
 PCOD9548373
Probable space group: P 41 2 2
;
_chemical_formula_sum "Si O2"
_cell_formula_units_Z 40
_cell_length_a 8.729492
_cell_length_b 8.729492
_cell_length_c 25.220306
_cell_angle_alpha 90.000000
_cell_angle_beta 90.000000
_cell_angle_gamma 90.000000
_cell_volume 1921.888970
_symmetry_space_group_name_H-M "P 41 2 2"
_symmetry_group_IT_number 91
_symmetry_cell_setting 'tetragonal'
loop_
_space_group_symop_operation_xyz
x,y,z
-y,x,1/4+z
-x,-y,1/2+z
y,-x,3/4+z
x,-y,1/2-z
-x,y,-z
y,x,3/4-z
-y,-x,1/4-z
loop_
_atom_site_type_symbol
_atom_site_label
_atom_site_fract_x
_atom_site_fract_y
_atom_site_fract_z
Si Si1 0.987730 0.821246 0.761369
Si Si2 0.810417 0.519014 0.098268
Si Si3 0.266953 0.637683 0.710581
Si Si4 0.393881 0.248194 0.545093
Si Si5 0.657360 0.099628 0.610560
O O1 0.838441 0.743312 0.734906
O O2 0.982972 0.783342 0.823696
O O3 0.128384 0.729131 0.736801
O O4 0.994393 0.000000 0.750000
O O5 0.786684 0.440148 0.155375
O O6 0.763172 0.395560 0.053937
O O7 0.680418 0.645917 0.089194
O O8 0.978259 0.596977 0.096181
O O9 0.312909 0.500000 0.750000
O O10 0.500000 0.325998 0.500000
O O11 0.510502 0.133684 0.573941
O O12 0.740243 0.259758 0.625000
#
# Coordination Sequence:
#
# PCOD9548373 Si02
#       5
#     8   8   8   8   8
#     4  11  22  44  68  95 137 179 223 291 351 411
#     4  11  23  40  68  97 131 180 232 277 345 421
#     4  11  22  44  65  96 138 180 224 292 354 406
#     4  10  22  43  66  95 137 178 223 281 346 415
#     4  11  23  42  68 100 136 180 228 285 352 421
#
# _framework density 20.812857999999999
#
# number of rings (size 3 to 8) (size 9 to 14) (size 15 to 20)
#    0.000    1.200    4.000    2.400    2.800    1.600 
#    3.600    1.000    0.000    0.000    0.000    0.000 
#    0.000    0.000    0.000    0.000    0.000    0.000 
#
# Total GULP energy -223243.196353 kJ/mol
# GULP energy per Si atom -5581.079909 kJ/mol
# Density = 2.076549 g / cm^3
# Si number density = 20.812858 Si / 1000 Ang^3
#
#
#
# Elastic Constant Matrix: (Units=GPa)
#
#
# Indices 1 2 3 4 5 6 
#
# 1 73.6948 39.9262 16.8538 0.0000 0.0000 0.0000
# 2 39.9262 73.6934 16.8540 0.0000 0.0000 0.0000
# 3 16.8538 16.8540 46.6288 0.0000 0.0000 0.0000
# 4 0.0000 0.0000 0.0000 28.8705 0.0000 0.0000
# 5 0.0000 0.0000 0.0000 0.0000 28.8709 0.0000
# 6 0.0000 0.0000 0.0000 0.0000 0.0000 34.6528
#
#
#
# Elastic Compliance Matrix: (Units=1/GPa)
#
#
# Indices 1 2 3 4 5 6 
#
# 1 0.019736 -0.009878 -0.003563 0.000000 0.000000 0.000000
# 2 -0.009878 0.019736 -0.003563 0.000000 0.000000 0.000000
# 3 -0.003563 -0.003563 0.024022 0.000000 0.000000 0.000000
# 4 0.000000 0.000000 0.000000 0.034637 0.000000 0.000000
# 5 0.000000 0.000000 0.000000 0.000000 0.034637 0.000000
# 6 0.000000 0.000000 0.000000 0.000000 0.000000 0.028858
#
#
# Mechanical properties :
#
#
# Convention : Reuss Voigt Hill
#
# Bulk Modulus (GPa) = 33.91504 37.92056 35.91780
# Shear Modulus (GPa) = 24.33523 26.50438 25.41981
#
# Velocity S-wave (km/s) = 3.42313 3.57243 3.49857
# Velocity P-wave (km/s) = 5.65282 5.93933 5.79784
#
# Compressibility (1/GPa) = 0.02948544
#
# Stress axis : x y z
#
# Youngs Moduli (GPa) = 50.66904 50.66791 41.62874
#
# Poissons Ratio (x) = 0.50049 0.14833
# Poissons Ratio (y) = 0.50050 0.14834
# Poissons Ratio (z) = 0.18054 0.18055
#
# Static dielectric constant tensor:
#      x y z
#    x 1.772720 0.000000 0.000000 
#    y 0.000000 1.772720 0.000000 
#    z 0.000000 0.000000 1.796280 
# 
# From -- ./inp_files/6733.got.cif
#   From: 2010.05.17/outbox.cif.g08.bks.cpg/sg91_4_cif.got.tgz:6733.got - 2010.06.03 19:20:03.
