data_PCOD9548267
_publ_section_title
;
Structure prediction by ZEFSAII (Michael W. Deem and Ramdas Pophale) SiO2 
 PCOD9548267
Probable space group: P 41 2 2
;
_chemical_formula_sum "Si O2"
_cell_formula_units_Z 52
_cell_length_a 20.493802
_cell_length_b 20.493802
_cell_length_c 5.754183
_cell_angle_alpha 90.000000
_cell_angle_beta 90.000000
_cell_angle_gamma 90.000000
_cell_volume 2416.733385
_symmetry_space_group_name_H-M "P 41 2 2"
_symmetry_group_IT_number 91
_symmetry_cell_setting 'tetragonal'
loop_
_space_group_symop_operation_xyz
x,y,z
-y,x,1/4+z
-x,-y,1/2+z
y,-x,3/4+z
x,-y,1/2-z
-x,y,-z
y,x,3/4-z
-y,-x,1/4-z
loop_
_atom_site_type_symbol
_atom_site_label
_atom_site_fract_x
_atom_site_fract_y
_atom_site_fract_z
Si Si1 0.437088 0.743573 0.879490
Si Si2 0.888254 0.530486 0.503762
Si Si3 0.337982 0.100087 0.912320
Si Si4 0.707766 0.000000 0.750000
Si Si5 0.184921 0.184921 0.375000
Si Si6 0.673283 0.673283 0.375000
Si Si7 0.067341 0.791950 0.395716
Si Si8 0.670700 0.783961 0.736813
O O1 0.466351 0.808967 0.763515
O O2 0.398633 0.694610 0.708340
O O3 0.500000 0.711190 0.000000
O O4 0.383897 0.769572 0.070522
O O5 0.909203 0.500000 0.750000
O O6 0.912086 0.605215 0.517331
O O7 0.906575 0.500000 0.250000
O O8 0.265787 0.093896 0.810238
O O9 0.338436 0.046492 0.107684
O O10 0.353310 0.168122 0.034794
O O11 0.755022 0.040955 0.582801
O O12 0.168839 0.132161 0.574829
O O13 0.262616 0.181715 0.324378
O O14 0.689536 0.718704 0.596907
O O15 0.000000 0.821949 0.500000
#
# Coordination Sequence:
#
# PCOD9548267 Si02
#       8
#     8   8   8   4   4   4   8   8
#     4  11  24  38  59  92 137 169 219 281 353 425
#     4  11  24  39  64  91 124 177 231 276 340 409
#     4  11  21  39  64  85 130 174 219 278 343 404
#     4  10  22  38  62  84 130 168 222 270 334 404
#     4  12  20  38  66  92 142 169 217 292 340 410
#     4  12  22  36  60  92 134 167 221 278 350 432
#     4  10  23  39  59  95 130 179 216 264 348 412
#     4  12  22  38  63 102 130 166 217 281 352 412
#
# _framework density 21.516648
#
# number of rings (size 3 to 8) (size 9 to 14) (size 15 to 20)
#    0.000    0.923    4.615    3.692    2.154    0.000 
#    0.000    0.000    5.077    0.000    0.000    0.000 
#   34.615    0.308    0.000    0.000    0.000    0.000 
#
# Total GULP energy -290148.462543 kJ/mol
# GULP energy per Si atom -5579.778126 kJ/mol
# Density = 2.146768 g / cm^3
# Si number density = 21.516648 Si / 1000 Ang^3
#
#
#
# Elastic Constant Matrix: (Units=GPa)
#
#
# Indices 1 2 3 4 5 6 
#
# 1 69.4377 6.9182 17.7371 0.0000 0.0000 0.0000
# 2 6.9182 69.4377 17.7371 0.0000 0.0000 0.0000
# 3 17.7371 17.7371 82.3300 0.0000 0.0000 0.0000
# 4 0.0000 0.0000 0.0000 34.8922 0.0000 0.0000
# 5 0.0000 0.0000 0.0000 0.0000 34.8922 0.0000
# 6 0.0000 0.0000 0.0000 0.0000 0.0000 2.1244
#
#
#
# Elastic Compliance Matrix: (Units=1/GPa)
#
#
# Indices 1 2 3 4 5 6 
#
# 1 0.015274 -0.000721 -0.003135 0.000000 0.000000 0.000000
# 2 -0.000721 0.015274 -0.003135 0.000000 0.000000 0.000000
# 3 -0.003135 -0.003135 0.013497 0.000000 0.000000 0.000000
# 4 0.000000 0.000000 0.000000 0.028660 0.000000 0.000000
# 5 0.000000 0.000000 0.000000 0.000000 0.028660 0.000000
# 6 0.000000 0.000000 0.000000 0.000000 0.000000 0.470726
#
#
# Mechanical properties :
#
#
# Convention : Reuss Voigt Hill
#
# Bulk Modulus (GPa) = 33.26427 33.99891 33.63159
# Shear Modulus (GPa) = 8.38792 26.30260 17.34526
#
# Velocity S-wave (km/s) = 1.97656 3.50012 2.84233
# Velocity P-wave (km/s) = 4.54999 5.67186 5.14161
#
# Compressibility (1/GPa) = 0.03006229
#
# Stress axis : x y z
#
# Youngs Moduli (GPa) = 65.47024 65.47024 74.08953
#
# Poissons Ratio (x) = 0.04720 0.23230
# Poissons Ratio (y) = 0.04720 0.23230
# Poissons Ratio (z) = 0.20527 0.20527
#
# Static dielectric constant tensor:
#      x y z
#    x 1.871700 0.000000 0.000000 
#    y 0.000000 1.871700 0.000000 
#    z 0.000000 0.000000 1.820230 
# 
# From -- ./inp_files/9039.got.cif
#   From: 2010.05.17/outbox.cif.g08.bks.cpg/sg91_5_cif.got.tgz:9039.got - 2010.06.03 19:20:03.
