data_PCOD9548723
_publ_section_title
;
Structure prediction by ZEFSAII (Michael W. Deem and Ramdas Pophale) SiO2 
 PCOD9548723
Probable space group: P 41 2 2
;
_chemical_formula_sum "Si O2"
_cell_formula_units_Z 40
_cell_length_a 8.633702
_cell_length_b 8.633702
_cell_length_c 23.681835
_cell_angle_alpha 90.000000
_cell_angle_beta 90.000000
_cell_angle_gamma 90.000000
_cell_volume 1765.263169
_symmetry_space_group_name_H-M "P 41 2 2"
_symmetry_group_IT_number 91
_symmetry_cell_setting 'tetragonal'
loop_
_space_group_symop_operation_xyz
x,y,z
-y,x,1/4+z
-x,-y,1/2+z
y,-x,3/4+z
x,-y,1/2-z
-x,y,-z
y,x,3/4-z
-y,-x,1/4-z
loop_
_atom_site_type_symbol
_atom_site_label
_atom_site_fract_x
_atom_site_fract_y
_atom_site_fract_z
Si Si1 0.336322 0.826407 0.775066
Si Si2 0.318827 0.830463 0.376744
Si Si3 0.670204 0.116162 0.697343
Si Si4 0.335625 0.182558 0.925515
Si Si5 0.840282 0.329291 0.772487
O O1 0.211409 0.798444 0.823603
O O2 0.504128 0.800001 0.803527
O O3 0.303262 0.706499 0.724801
O O4 0.324858 0.000000 0.750000
O O5 0.492043 0.802159 0.400106
O O6 0.274992 0.725585 0.322418
O O7 0.307667 0.007063 0.355955
O O8 0.808602 0.222632 0.718083
O O9 0.651552 0.000000 0.750000
O O10 0.216574 0.216574 0.875000
O O11 0.317602 0.012679 0.952404
O O12 0.812165 0.500000 0.750000
#
# Coordination Sequence:
#
# PCOD9548723 Si02
#       5
#     8   8   8   8   8
#     4  11  23  43  71 102 137 180 232 285 342 413
#     4  11  23  44  70  99 141 183 224 283 346 411
#     4   9  21  43  66  94 136 178 221 276 337 404
#     4  12  25  45  70  99 136 179 233 288 341 410
#     4  11  24  45  70 102 139 178 230 286 342 408
#
# _framework density 22.659510000000001
#
# number of rings (size 3 to 8) (size 9 to 14) (size 15 to 20)
#    0.000    1.200    0.000    7.800    0.000    5.600 
#    0.000   23.000    0.000    0.000    0.000    0.000 
#    0.000    0.000    0.000    0.000    0.000    0.000 
#
# Total GULP energy -223761.115717 kJ/mol
# GULP energy per Si atom -5594.027893 kJ/mol
# Density = 2.260794 g / cm^3
# Si number density = 22.659510 Si / 1000 Ang^3
#
#
#
# Elastic Constant Matrix: (Units=GPa)
#
#
# Indices 1 2 3 4 5 6 
#
# 1 75.6016 111.0552 64.9558 0.0000 0.0000 0.0000
# 2 111.0552 75.6016 64.9558 0.0000 0.0000 0.0000
# 3 64.9558 64.9558 142.5434 0.0000 0.0000 0.0000
# 4 0.0000 0.0000 0.0000 38.6195 0.0000 0.0000
# 5 0.0000 0.0000 0.0000 0.0000 38.6195 0.0000
# 6 0.0000 0.0000 0.0000 0.0000 0.0000 -302.8454
#
#
#
# Elastic Compliance Matrix: (Units=1/GPa)
#
#
# Indices 1 2 3 4 5 6 
#
# 1 -0.010180 0.018026 -0.003575 0.000000 0.000000 0.000000
# 2 0.018026 -0.010180 -0.003575 0.000000 0.000000 0.000000
# 3 -0.003575 -0.003575 0.010274 0.000000 0.000000 0.000000
# 4 0.000000 0.000000 0.000000 0.025894 0.000000 0.000000
# 5 0.000000 0.000000 0.000000 0.000000 0.025894 0.000000
# 6 0.000000 0.000000 0.000000 0.000000 0.000000 -0.003302
#
#
# Mechanical properties :
#
#
# Convention : Reuss Voigt Hill
#
# Bulk Modulus (GPa) = 85.73116 86.18669 85.95893
# Shear Modulus (GPa) = 243.46819 -41.60265 100.93277
#
# Velocity S-wave (km/s) = 10.37688 -4.28949 6.68131
# Velocity P-wave (km/s) = 13.47180 3.68580 9.87610
#
# Compressibility (1/GPa) = 0.01166437
#
# Stress axis : x y z
#
# Youngs Moduli (GPa) = -98.23134 -98.23134 97.33469
#
# Poissons Ratio (x) = 1.77070 0.34800
# Poissons Ratio (y) = 1.77070 0.34800
# Poissons Ratio (z) = -0.35120 -0.35120
#
# Static dielectric constant tensor:
#      x y z
#    x 1.856540 0.000000 0.000000 
#    y 0.000000 1.856540 0.000000 
#    z 0.000000 0.000000 1.872200 
# 
# From -- ./inp_files/13155.got.cif
#   From: 2010.05.17/outbox.cif.g08.bks.cpg/sg91_7_cif.got.tgz:13155.got - 2010.06.03 19:20:03.
