data_PCOD9548114
_publ_section_title
;
Structure prediction by ZEFSAII (Michael W. Deem and Ramdas Pophale) SiO2 
 PCOD9548114
Probable space group: P 41 2 2
;
_chemical_formula_sum "Si O2"
_cell_formula_units_Z 32
_cell_length_a 12.518301
_cell_length_b 12.518301
_cell_length_c 9.446801
_cell_angle_alpha 90.000000
_cell_angle_beta 90.000000
_cell_angle_gamma 90.000000
_cell_volume 1480.387968
_symmetry_space_group_name_H-M "P 41 2 2"
_symmetry_group_IT_number 91
_symmetry_cell_setting 'tetragonal'
loop_
_space_group_symop_operation_xyz
x,y,z
-y,x,1/4+z
-x,-y,1/2+z
y,-x,3/4+z
x,-y,1/2-z
-x,y,-z
y,x,3/4-z
-y,-x,1/4-z
loop_
_atom_site_type_symbol
_atom_site_label
_atom_site_fract_x
_atom_site_fract_y
_atom_site_fract_z
Si Si1 0.583514 0.247063 0.127244
Si Si2 0.888059 0.246156 0.740452
Si Si3 0.745657 0.870970 0.553975
Si Si4 0.112943 0.437485 0.453414
O O1 0.637379 0.362622 0.125000
O O2 0.520606 0.207165 0.265261
O O3 0.500000 0.242867 0.000000
O O4 0.677495 0.167829 0.078966
O O5 0.819734 0.180267 0.625000
O O6 0.833475 0.211586 0.887043
O O7 0.885442 0.371871 0.693998
O O8 0.011000 0.211623 0.726176
O O9 0.658097 0.879496 0.680368
O O10 0.000000 0.489699 0.500000
#
# Coordination Sequence:
#
# PCOD9548114 Si02
#       4
#     8   8   8   8
#     4  10  21  38  53  72 104 137 175 232 282 324
#     4   9  16  32  55  82 112 145 177 218 270 335
#     4   9  18  32  53  80 113 143 177 221 273 332
#     4   8  16  32  56  78 101 139 182 223 271 325
#
# _framework density 21.615957000000002
#
# number of rings (size 3 to 8) (size 9 to 14) (size 15 to 20)
#    0.000    3.000    0.000    2.250    0.000    2.000 
#    0.000   13.750    0.000    0.000    0.000    0.000 
#    0.000    0.000    0.000    0.000    0.000    0.000 
#
# Total GULP energy -178372.389567 kJ/mol
# GULP energy per Si atom -5574.137174 kJ/mol
# Density = 2.156676 g / cm^3
# Si number density = 21.615957 Si / 1000 Ang^3
#
#
#
# Elastic Constant Matrix: (Units=GPa)
#
#
# Indices 1 2 3 4 5 6 
#
# 1 126.2209 24.4689 32.0572 0.0000 0.0000 0.0000
# 2 24.4689 126.1935 32.0491 0.0000 0.0000 0.0000
# 3 32.0572 32.0491 73.5774 0.0000 0.0000 0.0000
# 4 0.0000 0.0000 0.0000 20.0644 0.0000 0.0000
# 5 0.0000 0.0000 0.0000 0.0000 20.0649 0.0000
# 6 0.0000 0.0000 0.0000 0.0000 0.0000 25.6577
#
#
#
# Elastic Compliance Matrix: (Units=1/GPa)
#
#
# Indices 1 2 3 4 5 6 
#
# 1 0.008987 -0.000841 -0.003549 0.000000 0.000000 0.000000
# 2 -0.000841 0.008989 -0.003549 0.000000 0.000000 0.000000
# 3 -0.003549 -0.003549 0.016683 0.000000 0.000000 0.000000
# 4 0.000000 0.000000 0.000000 0.049840 0.000000 0.000000
# 5 0.000000 0.000000 0.000000 0.000000 0.049838 0.000000
# 6 0.000000 0.000000 0.000000 0.000000 0.000000 0.038975
#
#
# Mechanical properties :
#
#
# Convention : Reuss Voigt Hill
#
# Bulk Modulus (GPa) = 53.24629 55.90468 54.57549
# Shear Modulus (GPa) = 25.58197 28.98519 27.28358
#
# Velocity S-wave (km/s) = 3.44390 3.66583 3.55659
# Velocity P-wave (km/s) = 6.36398 6.62092 6.49372
#
# Compressibility (1/GPa) = 0.01878065
#
# Stress axis : x y z
#
# Youngs Moduli (GPa) = 111.27048 111.25030 59.94011
#
# Poissons Ratio (x) = 0.09358 0.21274
# Poissons Ratio (y) = 0.09360 0.21272
# Poissons Ratio (z) = 0.39492 0.39481
#
# Static dielectric constant tensor:
#      x y z
#    x 1.809680 0.000000 0.000000 
#    y 0.000000 1.809680 0.000000 
#    z 0.000000 0.000000 1.827730 
# 
# From -- ./inp_files/3356.got.cif
#   From: 2010.05.17/outbox.cif.g08.bks.cpg/sg91_2_cif.got.tgz:3356.got - 2010.06.03 19:20:03.
