data_PCOD9548479
_publ_section_title
;
Structure prediction by ZEFSAII (Michael W. Deem and Ramdas Pophale) SiO2 
 PCOD9548479
Probable space group: P 41 2 2
;
_chemical_formula_sum "Si O2"
_cell_formula_units_Z 32
_cell_length_a 6.398264
_cell_length_b 6.398264
_cell_length_c 28.190836
_cell_angle_alpha 90.000000
_cell_angle_beta 90.000000
_cell_angle_gamma 90.000000
_cell_volume 1154.070305
_symmetry_space_group_name_H-M "P 41 2 2"
_symmetry_group_IT_number 91
_symmetry_cell_setting 'tetragonal'
loop_
_space_group_symop_operation_xyz
x,y,z
-y,x,1/4+z
-x,-y,1/2+z
y,-x,3/4+z
x,-y,1/2-z
-x,y,-z
y,x,3/4-z
-y,-x,1/4-z
loop_
_atom_site_type_symbol
_atom_site_label
_atom_site_fract_x
_atom_site_fract_y
_atom_site_fract_z
Si Si1 0.354392 0.708012 0.726892
Si Si2 0.082355 0.249469 0.264292
Si Si3 0.347439 0.017013 0.328834
Si Si4 0.027766 0.333335 0.162543
O O1 0.450882 0.500000 0.750000
O O2 0.173604 0.746491 0.767623
O O3 0.213822 0.686801 0.678695
O O4 0.126499 0.841576 0.901656
O O5 0.112403 0.384708 0.215714
O O6 0.098785 0.000000 0.250000
O O7 0.244617 0.224987 0.307152
O O8 0.480964 0.879487 0.290572
O O9 0.505181 0.059361 0.371314
#
# Coordination Sequence:
#
# PCOD9548479 Si02
#       4
#     8   8   8   8
#     4  10  23  47  74 110 157 205 264 334 406 485
#     4   8  20  44  70 107 148 206 261 324 412 472
#     4  11  21  50  80 111 156 217 272 336 409 493
#     4   9  23  46  72 115 154 207 270 329 405 480
#
# _framework density 27.72795
#
# number of rings (size 3 to 8) (size 9 to 14) (size 15 to 20)
#    1.500    1.000    0.000    0.750    0.000    4.000 
#   18.000    3.750    0.000    0.000    0.000    0.000 
#    0.000    0.000    0.000    0.000    0.000    0.000 
#
# Total GULP energy -178251.923638 kJ/mol
# GULP energy per Si atom -5570.372614 kJ/mol
# Density = 2.766484 g / cm^3
# Si number density = 27.727950 Si / 1000 Ang^3
#
#
#
# Elastic Constant Matrix: (Units=GPa)
#
#
# Indices 1 2 3 4 5 6 
#
# 1 113.2344 116.0711 93.1703 0.0000 0.0000 0.0000
# 2 116.0711 113.2344 93.1703 0.0000 0.0000 0.0000
# 3 93.1703 93.1703 153.6721 0.0000 0.0000 0.0000
# 4 0.0000 0.0000 0.0000 63.5738 0.0000 0.0000
# 5 0.0000 0.0000 0.0000 0.0000 63.5738 0.0000
# 6 0.0000 0.0000 0.0000 0.0000 0.0000 -17.5494
#
#
#
# Elastic Compliance Matrix: (Units=1/GPa)
#
#
# Indices 1 2 3 4 5 6 
#
# 1 -0.171964 0.180561 -0.005212 0.000000 0.000000 0.000000
# 2 0.180561 -0.171964 -0.005212 0.000000 0.000000 0.000000
# 3 -0.005212 -0.005212 0.012827 0.000000 0.000000 0.000000
# 4 0.000000 0.000000 0.000000 0.015730 0.000000 0.000000
# 5 0.000000 0.000000 0.000000 0.000000 0.015730 0.000000
# 6 0.000000 0.000000 0.000000 0.000000 0.000000 -0.056982
#
#
# Mechanical properties :
#
#
# Convention : Reuss Voigt Hill
#
# Bulk Modulus (GPa) = 109.02365 109.44046 109.23205
# Shear Modulus (GPa) = -7.20626 27.10161 9.94768
#
# Velocity S-wave (km/s) = -1.61386 3.12975 1.89615
# Velocity P-wave (km/s) = 5.99430 7.25365 6.65384
#
# Compressibility (1/GPa) = 0.00917232
#
# Stress axis : x y z
#
# Youngs Moduli (GPa) = -5.81515 -5.81515 77.95908
#
# Poissons Ratio (x) = 1.04999 0.40632
# Poissons Ratio (y) = 1.04999 0.40632
# Poissons Ratio (z) = -0.03031 -0.03031
#
# Static dielectric constant tensor:
#      x y z
#    x 2.781850 0.000000 0.000000 
#    y 0.000000 2.781850 0.000000 
#    z 0.000000 0.000000 2.336860 
# 
# From -- ./inp_files/7159.got.cif
#   From: 2010.05.17/outbox.cif.g08.bks.cpg/sg91_4_cif.got.tgz:7159.got - 2010.06.03 19:20:03.
