data_PCOD9548293
_publ_section_title
;
Structure prediction by ZEFSAII (Michael W. Deem and Ramdas Pophale) SiO2 
 PCOD9548293
Probable space group: P 41 2 2
;
_chemical_formula_sum "Si O2"
_cell_formula_units_Z 36
_cell_length_a 8.262224
_cell_length_b 8.262224
_cell_length_c 22.100897
_cell_angle_alpha 90.000000
_cell_angle_beta 90.000000
_cell_angle_gamma 90.000000
_cell_volume 1508.703267
_symmetry_space_group_name_H-M "P 41 2 2"
_symmetry_group_IT_number 91
_symmetry_cell_setting 'tetragonal'
loop_
_space_group_symop_operation_xyz
x,y,z
-y,x,1/4+z
-x,-y,1/2+z
y,-x,3/4+z
x,-y,1/2-z
-x,y,-z
y,x,3/4-z
-y,-x,1/4-z
loop_
_atom_site_type_symbol
_atom_site_label
_atom_site_fract_x
_atom_site_fract_y
_atom_site_fract_z
Si Si1 0.916549 0.466966 0.142652
Si Si2 0.470445 0.391263 0.066281
Si Si3 0.336705 0.163439 0.229840
Si Si4 0.121672 0.323769 0.049187
Si Si5 0.500000 0.850708 0.000000
O O1 0.754898 0.402779 0.174986
O O2 0.859608 0.579909 0.085958
O O3 0.020919 0.328574 0.110304
O O4 0.038293 0.538292 0.191893
O O5 0.492684 0.507317 0.125000
O O6 0.306431 0.284770 0.062680
O O7 0.500000 0.463175 0.000000
O O8 0.490308 0.156937 0.275992
O O9 0.243696 0.332153 0.235792
O O10 0.241880 0.000000 0.250000
O O11 0.000000 0.249497 0.000000
#
# Coordination Sequence:
#
# PCOD9548293 Si02
#       5
#     8   8   8   8   4
#     4  10  22  40  58 100 139 168 234 287 345 442
#     4  12  24  40  68 100 134 179 233 293 353 432
#     4   9  22  40  65 102 138 178 243 291 352 451
#     4   9  21  40  62  95 135 168 223 293 343 427
#     4  12  22  40  74  90 144 200 216 304 378 410
#
# _framework density 23.861547999999999
#
# number of rings (size 3 to 8) (size 9 to 14) (size 15 to 20)
#    0.000    2.222    1.111    4.000    7.778    2.667 
#    0.000    1.111    4.889    0.000    0.000    0.000 
#    0.000    0.000    0.000    0.000    0.000    0.000 
#
# Total GULP energy -200416.024117 kJ/mol
# GULP energy per Si atom -5567.111781 kJ/mol
# Density = 2.380724 g / cm^3
# Si number density = 23.861548 Si / 1000 Ang^3
#
#
#
# Elastic Constant Matrix: (Units=GPa)
#
#
# Indices 1 2 3 4 5 6 
#
# 1 95.1413 16.2426 20.1537 0.0000 0.0000 0.0000
# 2 16.2426 95.1408 20.1535 0.0000 0.0000 0.0000
# 3 20.1537 20.1535 137.6753 0.0000 0.0000 0.0000
# 4 0.0000 0.0000 0.0000 33.6086 0.0000 0.0000
# 5 0.0000 0.0000 0.0000 0.0000 33.6085 0.0000
# 6 0.0000 0.0000 0.0000 0.0000 0.0000 9.2499
#
#
#
# Elastic Compliance Matrix: (Units=1/GPa)
#
#
# Indices 1 2 3 4 5 6 
#
# 1 0.011077 -0.001597 -0.001388 0.000000 0.000000 0.000000
# 2 -0.001597 0.011077 -0.001388 0.000000 0.000000 0.000000
# 3 -0.001388 -0.001388 0.007670 0.000000 0.000000 0.000000
# 4 0.000000 0.000000 0.000000 0.029754 0.000000 0.000000
# 5 0.000000 0.000000 0.000000 0.000000 0.029754 0.000000
# 6 0.000000 0.000000 0.000000 0.000000 0.000000 0.108110
#
#
# Mechanical properties :
#
#
# Convention : Reuss Voigt Hill
#
# Bulk Modulus (GPa) = 47.44040 49.00635 48.22337
# Shear Modulus (GPa) = 23.45056 33.38722 28.41889
#
# Velocity S-wave (km/s) = 3.13833 3.74465 3.45482
# Velocity P-wave (km/s) = 5.74951 6.26729 6.01397
#
# Compressibility (1/GPa) = 0.02107908
#
# Stress axis : x y z
#
# Youngs Moduli (GPa) = 90.27456 90.27414 130.38215
#
# Poissons Ratio (x) = 0.14418 0.18094
# Poissons Ratio (y) = 0.14418 0.18094
# Poissons Ratio (z) = 0.12528 0.12528
#
# Static dielectric constant tensor:
#      x y z
#    x 2.103080 0.000000 0.000000 
#    y 0.000000 2.103080 0.000000 
#    z 0.000000 0.000000 2.108180 
# 
# From -- ./inp_files/12301.got.cif
#   From: 2010.05.17/outbox.cif.g08.bks.cpg/sg91_7_cif.got.tgz:12301.got - 2010.06.03 19:20:03.
