data_PCOD9548819
_publ_section_title
;
Structure prediction by ZEFSAII (Michael W. Deem and Ramdas Pophale) SiO2 
 PCOD9548819
Probable space group: P 41 2 2
;
_chemical_formula_sum "Si O2"
_cell_formula_units_Z 40
_cell_length_a 11.006616
_cell_length_b 11.006616
_cell_length_c 14.685795
_cell_angle_alpha 90.000000
_cell_angle_beta 90.000000
_cell_angle_gamma 90.000000
_cell_volume 1779.119385
_symmetry_space_group_name_H-M "P 41 2 2"
_symmetry_group_IT_number 91
_symmetry_cell_setting 'tetragonal'
loop_
_space_group_symop_operation_xyz
x,y,z
-y,x,1/4+z
-x,-y,1/2+z
y,-x,3/4+z
x,-y,1/2-z
-x,y,-z
y,x,3/4-z
-y,-x,1/4-z
loop_
_atom_site_type_symbol
_atom_site_label
_atom_site_fract_x
_atom_site_fract_y
_atom_site_fract_z
Si Si1 0.035438 0.378138 0.311590
Si Si2 0.395542 0.732832 0.192523
Si Si3 0.127566 0.010064 0.555571
Si Si4 0.183221 0.726753 0.885577
Si Si5 0.355683 0.640778 0.519360
O O1 0.031654 0.500000 0.250000
O O2 0.154885 0.378247 0.374154
O O3 0.013565 0.254151 0.251857
O O4 0.926680 0.368687 0.384441
O O5 0.380642 0.619359 0.125000
O O6 0.297936 0.739410 0.273589
O O7 0.522396 0.718738 0.240991
O O8 0.138456 0.135564 0.611829
O O9 0.000000 0.021623 0.500000
O O10 0.101702 0.898299 0.625000
O O11 0.256238 0.695614 0.795721
O O12 0.500000 0.626288 0.500000
O O13 0.336607 0.663394 0.625000
#
# Coordination Sequence:
#
# PCOD9548819 Si02
#       5
#     8   8   8   8   8
#     4  12  27  48  75 114 158 204 270 344 414 486
#     4  12  26  44  79 109 150 201 263 325 406 491
#     4  12  25  49  78 112 160 218 280 340 412 504
#     4  12  26  47  73 111 156 207 267 341 412 494
#     4  12  26  49  77 115 162 212 269 339 428 511
#
# _framework density 22.483032000000001
#
# number of rings (size 3 to 8) (size 9 to 14) (size 15 to 20)
#    0.000    0.000    6.000    4.200    0.000    0.800 
#    0.000    0.000    0.000    0.000    0.000    0.000 
#    0.000    0.000    0.000    0.000    0.000    0.000 
#
# Total GULP energy -223566.468304 kJ/mol
# GULP energy per Si atom -5589.161708 kJ/mol
# Density = 2.243186 g / cm^3
# Si number density = 22.483032 Si / 1000 Ang^3
#
#
#
# Elastic Constant Matrix: (Units=GPa)
#
#
# Indices 1 2 3 4 5 6 
#
# 1 91.8598 48.5550 64.3748 0.0000 0.0000 0.0000
# 2 48.5550 91.8591 64.3731 0.0000 0.0000 0.0000
# 3 64.3748 64.3731 158.0039 0.0000 0.0000 0.0000
# 4 0.0000 0.0000 0.0000 41.7636 0.0000 0.0000
# 5 0.0000 0.0000 0.0000 0.0000 41.7625 0.0000
# 6 0.0000 0.0000 0.0000 0.0000 0.0000 36.0606
#
#
#
# Elastic Compliance Matrix: (Units=1/GPa)
#
#
# Indices 1 2 3 4 5 6 
#
# 1 0.017231 -0.005862 -0.004632 0.000000 0.000000 0.000000
# 2 -0.005862 0.017230 -0.004632 0.000000 0.000000 0.000000
# 3 -0.004632 -0.004632 0.010103 0.000000 0.000000 0.000000
# 4 0.000000 0.000000 0.000000 0.023944 0.000000 0.000000
# 5 0.000000 0.000000 0.000000 0.000000 0.023945 0.000000
# 6 0.000000 0.000000 0.000000 0.000000 0.000000 0.027731
#
#
# Mechanical properties :
#
#
# Convention : Reuss Voigt Hill
#
# Bulk Modulus (GPa) = 69.86511 77.36984 73.61748
# Shear Modulus (GPa) = 32.21511 34.87868 33.54689
#
# Velocity S-wave (km/s) = 3.78942 3.94297 3.86696
# Velocity P-wave (km/s) = 7.09143 7.43079 7.26309
#
# Compressibility (1/GPa) = 0.01431330
#
# Stress axis : x y z
#
# Youngs Moduli (GPa) = 58.03614 58.03677 98.97857
#
# Poissons Ratio (x) = 0.34020 0.45847
# Poissons Ratio (y) = 0.34019 0.45844
# Poissons Ratio (z) = 0.26883 0.26881
#
# Static dielectric constant tensor:
#      x y z
#    x 1.823290 0.000000 0.000000 
#    y 0.000000 1.823370 0.000000 
#    z 0.000000 0.000000 1.856810 
# 
# From -- ./inp_files/20658.got.cif
#   From: 2010.05.17/outbox.cif.g08.bks.cpg/sg91_11_cif.got.tgz:20658.got - 2010.06.03 19:20:03.
