data_PCOD9548719
_publ_section_title
;
Structure prediction by ZEFSAII (Michael W. Deem and Ramdas Pophale) SiO2 
 PCOD9548719
Probable space group: P 41 2 2
;
_chemical_formula_sum "Si O2"
_cell_formula_units_Z 36
_cell_length_a 11.983565
_cell_length_b 11.983565
_cell_length_c 11.237774
_cell_angle_alpha 90.000000
_cell_angle_beta 90.000000
_cell_angle_gamma 90.000000
_cell_volume 1613.809864
_symmetry_space_group_name_H-M "P 41 2 2"
_symmetry_group_IT_number 91
_symmetry_cell_setting 'tetragonal'
loop_
_space_group_symop_operation_xyz
x,y,z
-y,x,1/4+z
-x,-y,1/2+z
y,-x,3/4+z
x,-y,1/2-z
-x,y,-z
y,x,3/4-z
-y,-x,1/4-z
loop_
_atom_site_type_symbol
_atom_site_label
_atom_site_fract_x
_atom_site_fract_y
_atom_site_fract_z
Si Si1 0.946401 0.053600 0.625000
Si Si2 0.099218 0.721138 0.592320
Si Si3 0.461056 0.281545 0.864645
Si Si4 0.308058 0.984024 0.404565
Si Si5 0.348721 0.196486 0.289511
O O1 0.000000 0.016446 0.500000
O O2 0.967796 0.184266 0.638968
O O3 0.166116 0.833884 0.625000
O O4 0.193973 0.630289 0.563108
O O5 0.043485 0.673072 0.710533
O O6 0.000000 0.738956 0.500000
O O7 0.399181 0.399181 0.875000
O O8 0.560018 0.276235 0.769486
O O9 0.500000 0.251074 0.000000
O O10 0.304184 0.870454 0.327453
O O11 0.387413 0.084766 0.361115
O O12 0.267223 0.267223 0.375000
#
# Coordination Sequence:
#
# PCOD9548719 Si02
#       5
#     4   8   8   8   8
#     4  12  24  36  60 104 154 198 246 292 362 450
#     4  11  28  44  69 104 155 203 249 308 392 464
#     4  11  26  50  74 103 147 192 258 335 401 467
#     4  11  23  42  69 105 155 196 247 310 366 472
#     4  11  23  44  77 107 145 192 260 320 377 465
#
# _framework density 22.307462000000001
#
# number of rings (size 3 to 8) (size 9 to 14) (size 15 to 20)
#    0.000    0.889    5.556    0.000   10.889    0.889 
#    0.000    2.222    0.000    0.000    0.000    0.000 
#    0.000    0.000    0.000    0.000    0.000    0.000 
#
# Total GULP energy -200933.326951 kJ/mol
# GULP energy per Si atom -5581.481304 kJ/mol
# Density = 2.225669 g / cm^3
# Si number density = 22.307462 Si / 1000 Ang^3
#
#
#
# Elastic Constant Matrix: (Units=GPa)
#
#
# Indices 1 2 3 4 5 6 
#
# 1 105.8742 60.6013 43.2206 0.0000 0.0000 0.0000
# 2 60.6013 105.8744 43.2206 0.0000 0.0000 0.0000
# 3 43.2206 43.2206 120.1425 0.0000 0.0000 0.0000
# 4 0.0000 0.0000 0.0000 35.5512 0.0000 0.0000
# 5 0.0000 0.0000 0.0000 0.0000 35.5514 0.0000
# 6 0.0000 0.0000 0.0000 0.0000 0.0000 39.6865
#
#
#
# Elastic Compliance Matrix: (Units=1/GPa)
#
#
# Indices 1 2 3 4 5 6 
#
# 1 0.014737 -0.007351 -0.002657 0.000000 0.000000 0.000000
# 2 -0.007351 0.014737 -0.002657 0.000000 0.000000 0.000000
# 3 -0.002657 -0.002657 0.010235 0.000000 0.000000 0.000000
# 4 0.000000 0.000000 0.000000 0.028128 0.000000 0.000000
# 5 0.000000 0.000000 0.000000 0.000000 0.028128 0.000000
# 6 0.000000 0.000000 0.000000 0.000000 0.000000 0.025198
#
#
# Mechanical properties :
#
#
# Convention : Reuss Voigt Hill
#
# Bulk Modulus (GPa) = 69.54371 69.55291 69.54831
# Shear Modulus (GPa) = 33.04944 34.48105 33.76524
#
# Velocity S-wave (km/s) = 3.85326 3.93583 3.89476
# Velocity P-wave (km/s) = 7.14420 7.20425 7.17429
#
# Compressibility (1/GPa) = 0.01437945
#
# Stress axis : x y z
#
# Youngs Moduli (GPa) = 67.85419 67.85434 97.70051
#
# Poissons Ratio (x) = 0.49878 0.25962
# Poissons Ratio (y) = 0.49878 0.25962
# Poissons Ratio (z) = 0.18031 0.18031
#
# Static dielectric constant tensor:
#      x y z
#    x 1.858930 0.000000 0.000000 
#    y 0.000000 1.858930 0.000000 
#    z 0.000000 0.000000 1.850060 
# 
# From -- ./inp_files/3543.got.cif
#   From: 2010.05.17/outbox.cif.g08.bks.cpg/sg91_2_cif.got.tgz:3543.got - 2010.06.03 19:20:03.
