data_PCOD9548737
_publ_section_title
;
Structure prediction by ZEFSAII (Michael W. Deem and Ramdas Pophale) SiO2 
 PCOD9548737
Probable space group: P 41 2 2
;
_chemical_formula_sum "Si O2"
_cell_formula_units_Z 48
_cell_length_a 11.296384
_cell_length_b 11.296384
_cell_length_c 15.657928
_cell_angle_alpha 90.000000
_cell_angle_beta 90.000000
_cell_angle_gamma 90.000000
_cell_volume 1998.081440
_symmetry_space_group_name_H-M "P 41 2 2"
_symmetry_group_IT_number 91
_symmetry_cell_setting 'tetragonal'
loop_
_space_group_symop_operation_xyz
x,y,z
-y,x,1/4+z
-x,-y,1/2+z
y,-x,3/4+z
x,-y,1/2-z
-x,y,-z
y,x,3/4-z
-y,-x,1/4-z
loop_
_atom_site_type_symbol
_atom_site_label
_atom_site_fract_x
_atom_site_fract_y
_atom_site_fract_z
Si Si1 0.269796 0.114743 0.430160
Si Si2 0.973897 0.521169 0.098373
Si Si3 0.471948 0.706339 0.601220
Si Si4 0.688121 0.133968 0.371385
Si Si5 0.340583 0.524922 0.344482
Si Si6 0.066468 0.064938 0.676259
O O1 0.226275 0.226275 0.375000
O O2 0.394894 0.057253 0.405610
O O3 0.266284 0.144290 0.530783
O O4 0.177656 0.011322 0.404127
O O5 0.017049 0.388274 0.112919
O O6 0.837013 0.516466 0.124061
O O7 0.000000 0.554542 0.000000
O O8 0.500000 0.689007 0.500000
O O9 0.339035 0.660966 0.625000
O O10 0.553153 0.619042 0.657639
O O11 0.595400 0.239998 0.352843
O O12 0.803326 0.115191 0.313574
O O13 0.292301 0.500000 0.250000
O O14 0.405631 0.405631 0.375000
O O15 0.992628 0.000000 0.750000
O O16 0.060131 0.939870 0.625000
#
# Coordination Sequence:
#
# PCOD9548737 Si02
#       6
#     8   8   8   8   8   8
#     4  11  26  45  76 106 146 193 242 307 371 444
#     4  12  29  46  70 110 149 189 252 304 368 446
#     4  11  25  48  77 104 147 195 248 309 378 446
#     4  12  26  45  70 105 147 196 237 303 377 437
#     4  11  25  44  74 102 141 183 247 306 368 439
#     4  11  23  46  74 107 147 190 246 300 370 448
#
# _framework density 24.023046000000001
#
# number of rings (size 3 to 8) (size 9 to 14) (size 15 to 20)
#    0.000    0.667    1.667    6.000    9.333    2.000 
#    3.000    0.000    0.000    0.000    0.000    0.000 
#    0.000    0.000    0.000    0.000    0.000    0.000 
#
# Total GULP energy -267450.124275 kJ/mol
# GULP energy per Si atom -5571.877589 kJ/mol
# Density = 2.396837 g / cm^3
# Si number density = 24.023046 Si / 1000 Ang^3
#
#
#
# Elastic Constant Matrix: (Units=GPa)
#
#
# Indices 1 2 3 4 5 6 
#
# 1 80.0667 89.9042 -4.7867 0.0000 0.0000 0.0000
# 2 89.9042 80.0658 -4.7859 0.0000 0.0000 0.0000
# 3 -4.7867 -4.7859 53.3141 0.0000 0.0000 0.0000
# 4 0.0000 0.0000 0.0000 29.2890 0.0000 0.0000
# 5 0.0000 0.0000 0.0000 0.0000 29.2892 0.0000
# 6 0.0000 0.0000 0.0000 0.0000 0.0000 28.4131
#
#
#
# Elastic Compliance Matrix: (Units=1/GPa)
#
#
# Indices 1 2 3 4 5 6 
#
# 1 -0.047867 0.053780 0.000530 0.000000 0.000000 0.000000
# 2 0.053780 -0.047867 0.000532 0.000000 0.000000 0.000000
# 3 0.000530 0.000532 0.018852 0.000000 0.000000 0.000000
# 4 0.000000 0.000000 0.000000 0.034143 0.000000 0.000000
# 5 0.000000 0.000000 0.000000 0.000000 0.034142 0.000000
# 6 0.000000 0.000000 0.000000 0.000000 0.000000 0.035195
#
#
# Mechanical properties :
#
#
# Convention : Reuss Voigt Hill
#
# Bulk Modulus (GPa) = 30.48583 41.56773 36.02678
# Shear Modulus (GPa) = -69.29813 26.27258 -21.51277
#
# Velocity S-wave (km/s) = -5.37672 3.31061 -2.99575
# Velocity P-wave (km/s) = 5.08210 5.65282 1.75023
#
# Compressibility (1/GPa) = 0.03280213
#
# Stress axis : x y z
#
# Youngs Moduli (GPa) = -20.89131 -20.89113 53.04452
#
# Poissons Ratio (x) = 1.12353 -0.02812
# Poissons Ratio (y) = 1.12354 -0.02820
# Poissons Ratio (z) = 0.01107 0.01111
#
# Static dielectric constant tensor:
#      x y z
#    x 1.897480 0.000000 0.000000 
#    y 0.000000 1.897480 0.000000 
#    z 0.000000 0.000000 2.610950 
# 
# From -- ./inp_files/5614.got.cif
#   From: 2010.05.17/outbox.cif.g08.bks.cpg/sg91_3_cif.got.tgz:5614.got - 2010.06.03 19:20:03.
