data_PCOD9548032
_publ_section_title
;
Structure prediction by ZEFSAII (Michael W. Deem and Ramdas Pophale) SiO2 
 PCOD9548032
Probable space group: P 41 2 2
;
_chemical_formula_sum "Si O2"
_cell_formula_units_Z 52
_cell_length_a 21.701319
_cell_length_b 21.701319
_cell_length_c 5.169958
_cell_angle_alpha 90.000000
_cell_angle_beta 90.000000
_cell_angle_gamma 90.000000
_cell_volume 2434.777484
_symmetry_space_group_name_H-M "P 41 2 2"
_symmetry_group_IT_number 91
_symmetry_cell_setting 'tetragonal'
loop_
_space_group_symop_operation_xyz
x,y,z
-y,x,1/4+z
-x,-y,1/2+z
y,-x,3/4+z
x,-y,1/2-z
-x,y,-z
y,x,3/4-z
-y,-x,1/4-z
loop_
_atom_site_type_symbol
_atom_site_label
_atom_site_fract_x
_atom_site_fract_y
_atom_site_fract_z
Si Si1 0.202587 0.693005 0.151319
Si Si2 0.906287 0.000000 0.750000
Si Si3 0.246141 0.500000 0.750000
Si Si4 0.500000 0.160152 0.500000
Si Si5 0.073982 0.305137 0.551829
Si Si6 0.263803 0.635064 0.650650
Si Si7 0.889869 0.830219 0.140023
Si Si8 0.560379 0.070918 0.828098
O O1 0.241899 0.758102 0.125000
O O2 0.128255 0.696157 0.169061
O O3 0.228470 0.651544 0.385059
O O4 0.221389 0.659840 0.883895
O O5 0.863480 0.956311 0.578801
O O6 0.951441 0.951441 0.875000
O O7 0.203463 0.502328 0.496923
O O8 0.279915 0.564935 0.721983
O O9 0.554571 0.113058 0.572928
O O10 0.094284 0.241207 0.674435
O O11 0.081363 0.371536 0.690648
O O12 0.000000 0.301019 0.500000
O O13 0.325167 0.674834 0.625000
O O14 0.847082 0.847082 0.375000
O O15 0.857216 0.857216 0.875000
O O16 0.556272 0.000000 0.750000
O O17 0.500000 0.083934 0.000000
#
# Coordination Sequence:
#
# PCOD9548032 Si02
#       8
#     8   4   4   4   8   8   8   8
#     4  10  22  42  67  92 131 173 218 268 330 389
#     4  10  20  40  70  96 126 166 210 268 344 398
#     4  12  22  37  64 100 129 164 214 276 312 374
#     4  12  24  39  64  92 125 164 222 272 324 372
#     4  11  24  45  65  99 129 177 221 270 335 393
#     4  10  22  41  65  97 130 172 216 264 323 386
#     4  11  25  46  69  99 135 166 219 274 332 405
#     4  11  23  43  65  91 131 171 218 271 328 396
#
# _framework density 21.357187
#
# number of rings (size 3 to 8) (size 9 to 14) (size 15 to 20)
#    0.000    1.231    2.308    3.692    0.000    4.923 
#    2.769    2.308    0.000    0.000    0.000    4.308 
#    0.000    0.000    0.000    0.000    0.000    0.000 
#
# Total GULP energy -289771.828403 kJ/mol
# GULP energy per Si atom -5572.535162 kJ/mol
# Density = 2.130858 g / cm^3
# Si number density = 21.357187 Si / 1000 Ang^3
#
#
#
# Elastic Constant Matrix: (Units=GPa)
#
#
# Indices 1 2 3 4 5 6 
#
# 1 164.6052 66.5483 41.9312 0.0000 0.0000 0.0000
# 2 66.5483 164.6034 41.9313 0.0000 0.0000 0.0000
# 3 41.9312 41.9313 115.4634 0.0000 0.0000 0.0000
# 4 0.0000 0.0000 0.0000 10.8196 0.0000 0.0000
# 5 0.0000 0.0000 0.0000 0.0000 10.8204 0.0000
# 6 0.0000 0.0000 0.0000 0.0000 0.0000 61.9296
#
#
#
# Elastic Compliance Matrix: (Units=1/GPa)
#
#
# Indices 1 2 3 4 5 6 
#
# 1 0.007590 -0.002608 -0.001809 0.000000 0.000000 0.000000
# 2 -0.002608 0.007590 -0.001809 0.000000 0.000000 0.000000
# 3 -0.001809 -0.001809 0.009975 0.000000 0.000000 0.000000
# 4 0.000000 0.000000 0.000000 0.092424 0.000000 0.000000
# 5 0.000000 0.000000 0.000000 0.000000 0.092418 0.000000
# 6 0.000000 0.000000 0.000000 0.000000 0.000000 0.016147
#
#
# Mechanical properties :
#
#
# Convention : Reuss Voigt Hill
#
# Bulk Modulus (GPa) = 78.72552 82.83262 80.77907
# Shear Modulus (GPa) = 20.59023 36.33133 28.46078
#
# Velocity S-wave (km/s) = 3.10835 4.12895 3.65445
# Velocity P-wave (km/s) = 7.05860 7.84854 7.46403
#
# Compressibility (1/GPa) = 0.01270236
#
# Stress axis : x y z
#
# Youngs Moduli (GPa) = 131.74551 131.74389 100.25070
#
# Poissons Ratio (x) = 0.34356 0.18140
# Poissons Ratio (y) = 0.34357 0.18140
# Poissons Ratio (z) = 0.23839 0.23839
#
# Static dielectric constant tensor:
#      x y z
#    x 1.787800 0.000000 0.000000 
#    y 0.000000 1.787800 0.000000 
#    z 0.000000 0.000000 1.837380 
# 
# From -- ./inp_files/14481.got.cif
#   From: 2010.05.17/outbox.cif.g08.bks.cpg/sg91_8_cif.got.tgz:14481.got - 2010.06.03 19:20:03.
