data_PCOD9548254
_publ_section_title
;
Structure prediction by ZEFSAII (Michael W. Deem and Ramdas Pophale) SiO2 
 PCOD9548254
Probable space group: P 41 2 2
;
_chemical_formula_sum "Si O2"
_cell_formula_units_Z 44
_cell_length_a 7.717762
_cell_length_b 7.717762
_cell_length_c 30.186444
_cell_angle_alpha 90.000000
_cell_angle_beta 90.000000
_cell_angle_gamma 90.000000
_cell_volume 1798.020831
_symmetry_space_group_name_H-M "P 41 2 2"
_symmetry_group_IT_number 91
_symmetry_cell_setting 'tetragonal'
loop_
_space_group_symop_operation_xyz
x,y,z
-y,x,1/4+z
-x,-y,1/2+z
y,-x,3/4+z
x,-y,1/2-z
-x,y,-z
y,x,3/4-z
-y,-x,1/4-z
loop_
_atom_site_type_symbol
_atom_site_label
_atom_site_fract_x
_atom_site_fract_y
_atom_site_fract_z
Si Si1 0.769904 0.334873 0.081174
Si Si2 0.634793 0.165514 0.354888
Si Si3 0.234596 0.234596 0.375000
Si Si4 0.305282 0.165065 0.463586
Si Si5 0.061149 0.300057 0.193189
Si Si6 0.317780 0.430261 0.014000
O O1 0.643321 0.356680 0.125000
O O2 0.746028 0.135359 0.067372
O O3 0.960906 0.362851 0.098684
O O4 0.767616 0.436994 0.034560
O O5 0.438283 0.212863 0.366576
O O6 0.673316 0.245571 0.306546
O O7 0.739880 0.187302 0.401112
O O8 0.189342 0.137054 0.420082
O O9 0.338417 0.371636 0.469783
O O10 0.492740 0.081473 0.453042
O O11 0.222108 0.106831 0.509291
O O12 0.500000 0.349917 0.000000
#
# Coordination Sequence:
#
# PCOD9548254 Si02
#       6
#     8   8   4   8   8   8
#     4  10  22  37  57  90 126 167 211 262 326 385
#     4   9  19  36  57  87 128 165 204 265 321 380
#     4   8  16  32  62  86 120 166 212 262 312 380
#     4   9  17  33  57  90 122 160 208 262 312 374
#     4   9  17  34  58  84 122 167 208 256 314 387
#     4  11  21  34  58  96 122 161 213 263 325 378
#
# _framework density 24.471353000000001
#
# number of rings (size 3 to 8) (size 9 to 14) (size 15 to 20)
#    0.000    2.545    1.818    0.545    2.545    1.455 
#    1.636    0.000    0.000    8.727   11.818    0.000 
#    0.000    0.000    0.000    0.000    0.000    0.000 
#
# Total GULP energy -245211.635220 kJ/mol
# GULP energy per Si atom -5572.991710 kJ/mol
# Density = 2.441566 g / cm^3
# Si number density = 24.471353 Si / 1000 Ang^3
#
#
#
# Elastic Constant Matrix: (Units=GPa)
#
#
# Indices 1 2 3 4 5 6 
#
# 1 48.4044 30.5750 31.6046 0.0000 0.0000 0.0000
# 2 30.5750 48.4044 31.6047 0.0000 0.0000 0.0000
# 3 31.6046 31.6047 220.4561 0.0000 0.0000 0.0000
# 4 0.0000 0.0000 0.0000 25.2111 0.0000 0.0000
# 5 0.0000 0.0000 0.0000 0.0000 25.2113 0.0000
# 6 0.0000 0.0000 0.0000 0.0000 0.0000 4.6388
#
#
#
# Elastic Compliance Matrix: (Units=1/GPa)
#
#
# Indices 1 2 3 4 5 6 
#
# 1 0.035195 -0.020892 -0.002050 0.000000 0.000000 0.000000
# 2 -0.020892 0.035195 -0.002050 0.000000 0.000000 0.000000
# 3 -0.002050 -0.002050 0.005124 0.000000 0.000000 0.000000
# 4 0.000000 0.000000 0.000000 0.039665 0.000000 0.000000
# 5 0.000000 0.000000 0.000000 0.000000 0.039665 0.000000
# 6 0.000000 0.000000 0.000000 0.000000 0.000000 0.215571
#
#
# Mechanical properties :
#
#
# Convention : Reuss Voigt Hill
#
# Bulk Modulus (GPa) = 39.17365 56.09260 47.63313
# Shear Modulus (GPa) = 11.65746 25.91096 18.78421
#
# Velocity S-wave (km/s) = 2.18496 3.25749 2.77357
# Velocity P-wave (km/s) = 4.73372 6.09261 5.45564
#
# Compressibility (1/GPa) = 0.02552736
#
# Stress axis : x y z
#
# Youngs Moduli (GPa) = 28.41327 28.41322 195.16205
#
# Poissons Ratio (x) = 0.59362 0.40016
# Poissons Ratio (y) = 0.59362 0.40017
# Poissons Ratio (z) = 0.05826 0.05826
#
# Static dielectric constant tensor:
#      x y z
#    x 1.929830 0.000000 0.000000 
#    y 0.000000 1.929830 0.000000 
#    z 0.000000 0.000000 2.476000 
# 
# From -- ./inp_files/7853.got.cif
#   From: 2010.05.17/outbox.cif.g08.bks.cpg/sg91_4_cif.got.tgz:7853.got - 2010.06.03 19:20:03.
