data_PCOD9548591
_publ_section_title
;
Structure prediction by ZEFSAII (Michael W. Deem and Ramdas Pophale) SiO2 
 PCOD9548591
Probable space group: P 41 2 2
;
_chemical_formula_sum "Si O2"
_cell_formula_units_Z 32
_cell_length_a 14.254747
_cell_length_b 14.254747
_cell_length_c 7.846556
_cell_angle_alpha 90.000000
_cell_angle_beta 90.000000
_cell_angle_gamma 90.000000
_cell_volume 1594.403011
_symmetry_space_group_name_H-M "P 41 2 2"
_symmetry_group_IT_number 91
_symmetry_cell_setting 'tetragonal'
loop_
_space_group_symop_operation_xyz
x,y,z
-y,x,1/4+z
-x,-y,1/2+z
y,-x,3/4+z
x,-y,1/2-z
-x,y,-z
y,x,3/4-z
-y,-x,1/4-z
loop_
_atom_site_type_symbol
_atom_site_label
_atom_site_fract_x
_atom_site_fract_y
_atom_site_fract_z
Si Si1 0.795547 0.299500 0.462205
Si Si2 0.000000 0.720725 0.000000
Si Si3 0.323184 0.323184 0.875000
Si Si4 0.953766 0.403218 0.825165
Si Si5 0.488674 0.757160 0.817574
O O1 0.742643 0.257358 0.625000
O O2 0.738867 0.293590 0.287088
O O3 0.796783 0.412602 0.497371
O O4 0.895603 0.245948 0.446462
O O5 0.968157 0.666406 0.829260
O O6 0.429710 0.302037 0.817600
O O7 0.996485 0.500000 0.750000
O O8 0.847758 0.427363 0.877721
O O9 0.000000 0.372120 0.000000
O O10 0.500000 0.704747 0.000000
#
# Coordination Sequence:
#
# PCOD9548591 Si02
#       5
#     8   4   4   8   8
#     4  12  24  42  65  95 135 168 223 271 323 389
#     4  12  22  36  64  96 124 168 204 276 336 378
#     4  12  24  40  66  90 130 182 204 264 322 390
#     4  11  18  31  53  88 124 154 198 251 320 388
#     4  11  21  40  61  89 127 170 213 266 317 376
#
# _framework density 20.070208000000001
#
# number of rings (size 3 to 8) (size 9 to 14) (size 15 to 20)
#    0.000    0.500    8.750    2.250    0.000    0.000 
#    0.000    0.000   11.000    0.000    3.250    0.000 
#    0.000    0.000    0.000    0.000    0.000    0.000 
#
# Total GULP energy -178291.869895 kJ/mol
# GULP energy per Si atom -5571.620934 kJ/mol
# Density = 2.002453 g / cm^3
# Si number density = 20.070208 Si / 1000 Ang^3
#
#
#
# Elastic Constant Matrix: (Units=GPa)
#
#
# Indices 1 2 3 4 5 6 
#
# 1 61.8484 23.9653 31.3071 0.0000 0.0000 0.0000
# 2 23.9653 61.8466 31.3075 0.0000 0.0000 0.0000
# 3 31.3071 31.3075 142.4102 0.0000 0.0000 0.0000
# 4 0.0000 0.0000 0.0000 29.6910 0.0000 0.0000
# 5 0.0000 0.0000 0.0000 0.0000 29.6912 0.0000
# 6 0.0000 0.0000 0.0000 0.0000 0.0000 6.2528
#
#
#
# Elastic Compliance Matrix: (Units=1/GPa)
#
#
# Indices 1 2 3 4 5 6 
#
# 1 0.020138 -0.006259 -0.003051 0.000000 0.000000 0.000000
# 2 -0.006259 0.020139 -0.003051 0.000000 0.000000 0.000000
# 3 -0.003051 -0.003051 0.008364 0.000000 0.000000 0.000000
# 4 0.000000 0.000000 0.000000 0.033680 0.000000 0.000000
# 5 0.000000 0.000000 0.000000 0.000000 0.033680 0.000000
# 6 0.000000 0.000000 0.000000 0.000000 0.000000 0.159928
#
#
# Mechanical properties :
#
#
# Convention : Reuss Voigt Hill
#
# Bulk Modulus (GPa) = 41.80994 48.80721 45.30858
# Shear Modulus (GPa) = 16.20092 25.09537 20.64815
#
# Velocity S-wave (km/s) = 2.84423 3.53991 3.21096
# Velocity P-wave (km/s) = 5.62701 6.40929 6.03085
#
# Compressibility (1/GPa) = 0.02391776
#
# Stress axis : x y z
#
# Youngs Moduli (GPa) = 49.65662 49.65483 119.56640
#
# Poissons Ratio (x) = 0.31079 0.36482
# Poissons Ratio (y) = 0.31080 0.36485
# Poissons Ratio (z) = 0.15151 0.15152
#
# Static dielectric constant tensor:
#      x y z
#    x 1.784560 0.000000 0.000000 
#    y 0.000000 1.784560 0.000000 
#    z 0.000000 0.000000 1.733350 
# 
# From -- ./inp_files/9494.got.cif
#   From: 2010.05.17/outbox.cif.g08.bks.cpg/sg91_5_cif.got.tgz:9494.got - 2010.06.03 19:20:03.
