data_PCOD9548568
_publ_section_title
;
Structure prediction by ZEFSAII (Michael W. Deem and Ramdas Pophale) SiO2 
 PCOD9548568
Probable space group: P 41 2 2
;
_chemical_formula_sum "Si O2"
_cell_formula_units_Z 40
_cell_length_a 15.036413
_cell_length_b 15.036413
_cell_length_c 8.028744
_cell_angle_alpha 90.000000
_cell_angle_beta 90.000000
_cell_angle_gamma 90.000000
_cell_volume 1815.248565
_symmetry_space_group_name_H-M "P 41 2 2"
_symmetry_group_IT_number 91
_symmetry_cell_setting 'tetragonal'
loop_
_space_group_symop_operation_xyz
x,y,z
-y,x,1/4+z
-x,-y,1/2+z
y,-x,3/4+z
x,-y,1/2-z
-x,y,-z
y,x,3/4-z
-y,-x,1/4-z
loop_
_atom_site_type_symbol
_atom_site_label
_atom_site_fract_x
_atom_site_fract_y
_atom_site_fract_z
Si Si1 0.687832 0.644606 0.634136
Si Si2 0.531713 0.729277 0.782030
Si Si3 0.142082 0.255200 0.002263
Si Si4 0.945840 0.111610 0.787827
Si Si5 0.905108 0.451720 0.075562
O O1 0.601464 0.705523 0.639761
O O2 0.676908 0.560729 0.512115
O O3 0.705958 0.589020 0.804168
O O4 0.772553 0.706481 0.601345
O O5 0.496924 0.829372 0.786324
O O6 0.183502 0.183502 0.875000
O O7 0.106377 0.344928 0.916125
O O8 0.070341 0.204234 0.118104
O O9 0.883427 0.116574 0.625000
O O10 0.037540 0.085055 0.681188
O O11 0.896048 0.500000 0.250000
O O12 0.000000 0.470687 0.000000
#
# Coordination Sequence:
#
# PCOD9548568 Si02
#       5
#     8   8   8   8   8
#     4   9  19  38  69  95 134 174 222 284 338 410
#     4   9  19  39  68  93 132 173 223 277 342 404
#     4  11  25  42  70 104 137 183 235 291 346 425
#     4  10  25  48  73 100 143 186 230 295 364 429
#     4  11  26  45  68  97 138 185 230 287 351 417
#
# _framework density 22.035549
#
# number of rings (size 3 to 8) (size 9 to 14) (size 15 to 20)
#    0.000    2.000    0.000    1.200   11.200    4.000 
#    0.000    0.000   79.200    0.000    0.000    0.000 
#    0.000    0.000    0.000    0.000    0.000    0.000 
#
# Total GULP energy -222713.029568 kJ/mol
# GULP energy per Si atom -5567.825739 kJ/mol
# Density = 2.198540 g / cm^3
# Si number density = 22.035549 Si / 1000 Ang^3
#
#
#
# Elastic Constant Matrix: (Units=GPa)
#
#
# Indices 1 2 3 4 5 6 
#
# 1 117.9360 69.2039 50.6184 0.0000 0.0000 0.0000
# 2 69.2039 117.9359 50.6189 0.0000 0.0000 0.0000
# 3 50.6184 50.6189 106.2309 0.0000 0.0000 0.0000
# 4 0.0000 0.0000 0.0000 33.2767 0.0000 0.0000
# 5 0.0000 0.0000 0.0000 0.0000 33.2767 0.0000
# 6 0.0000 0.0000 0.0000 0.0000 0.0000 32.2759
#
#
#
# Elastic Compliance Matrix: (Units=1/GPa)
#
#
# Indices 1 2 3 4 5 6 
#
# 1 0.013860 -0.006660 -0.003430 0.000000 0.000000 0.000000
# 2 -0.006660 0.013860 -0.003431 0.000000 0.000000 0.000000
# 3 -0.003430 -0.003431 0.012683 0.000000 0.000000 0.000000
# 4 0.000000 0.000000 0.000000 0.030051 0.000000 0.000000
# 5 0.000000 0.000000 0.000000 0.000000 0.030051 0.000000
# 6 0.000000 0.000000 0.000000 0.000000 0.000000 0.030983
#
#
# Mechanical properties :
#
#
# Convention : Reuss Voigt Hill
#
# Bulk Modulus (GPa) = 74.85292 75.88723 75.37007
# Shear Modulus (GPa) = 30.67794 31.20996 30.94395
#
# Velocity S-wave (km/s) = 3.73527 3.76752 3.75143
# Velocity P-wave (km/s) = 7.25575 7.31019 7.28302
#
# Compressibility (1/GPa) = 0.01335953
#
# Stress axis : x y z
#
# Youngs Moduli (GPa) = 72.15093 72.15049 78.84765
#
# Poissons Ratio (x) = 0.48056 0.27048
# Poissons Ratio (y) = 0.48056 0.27049
# Poissons Ratio (z) = 0.24751 0.24752
#
# Static dielectric constant tensor:
#      x y z
#    x 1.839290 0.000000 0.000000 
#    y 0.000000 1.839290 0.000000 
#    z 0.000000 0.000000 1.982140 
# 
# From -- ./inp_files/15001.got.cif
#   From: 2010.05.17/outbox.cif.g08.bks.cpg/sg91_8_cif.got.tgz:15001.got - 2010.06.03 19:20:03.
