data_PCOD9548748
_publ_section_title
;
Structure prediction by ZEFSAII (Michael W. Deem and Ramdas Pophale) SiO2 
 PCOD9548748
Probable space group: P 41 2 2
;
_chemical_formula_sum "Si O2"
_cell_formula_units_Z 40
_cell_length_a 8.634858
_cell_length_b 8.634858
_cell_length_c 24.316808
_cell_angle_alpha 90.000000
_cell_angle_beta 90.000000
_cell_angle_gamma 90.000000
_cell_volume 1813.079994
_symmetry_space_group_name_H-M "P 41 2 2"
_symmetry_group_IT_number 91
_symmetry_cell_setting 'tetragonal'
loop_
_space_group_symop_operation_xyz
x,y,z
-y,x,1/4+z
-x,-y,1/2+z
y,-x,3/4+z
x,-y,1/2-z
-x,y,-z
y,x,3/4-z
-y,-x,1/4-z
loop_
_atom_site_type_symbol
_atom_site_label
_atom_site_fract_x
_atom_site_fract_y
_atom_site_fract_z
Si Si1 0.984759 0.770349 0.610348
Si Si2 0.710499 0.526087 0.055650
Si Si3 0.500000 0.730511 0.500000
Si Si4 0.563387 0.000000 0.250000
Si Si5 0.658718 0.087357 0.903792
Si Si6 0.165630 0.526417 0.313275
O O1 0.993415 0.672418 0.553936
O O2 0.838817 0.884463 0.604951
O O3 0.936964 0.662840 0.661189
O O4 0.139867 0.860134 0.625000
O O5 0.610885 0.375758 0.038850
O O6 0.819111 0.555824 0.108847
O O7 0.581235 0.658154 0.064976
O O8 0.841596 0.535394 0.007288
O O9 0.391666 0.832745 0.460885
O O10 0.618414 0.905662 0.904457
O O11 0.135093 0.500000 0.250000
#
# Coordination Sequence:
#
# PCOD9548748 Si02
#       6
#     8   8   4   4   8   8
#     4  11  27  46  73 106 145 195 245 308 367 440
#     4  11  25  45  69 107 142 187 246 300 362 431
#     4  12  22  42  74 102 136 192 238 302 362 424
#     4  12  24  48  74 108 148 196 250 308 370 448
#     4  11  24  44  68 103 141 187 244 297 362 437
#     4  11  24  47  69 102 146 189 239 298 365 442
#
# _framework density 22.061907000000001
#
# number of rings (size 3 to 8) (size 9 to 14) (size 15 to 20)
#    0.000    0.800    6.000    0.600    5.600    0.000 
#    7.200    5.000    0.000    0.000    0.000    0.000 
#    0.000    0.000    0.000    0.000    0.000    0.000 
#
# Total GULP energy -223141.892898 kJ/mol
# GULP energy per Si atom -5578.547322 kJ/mol
# Density = 2.201169 g / cm^3
# Si number density = 22.061907 Si / 1000 Ang^3
#
#
#
# Elastic Constant Matrix: (Units=GPa)
#
#
# Indices 1 2 3 4 5 6 
#
# 1 50.5581 36.4005 20.9314 0.0000 0.0000 0.0000
# 2 36.4005 50.5612 20.9320 0.0000 0.0000 0.0000
# 3 20.9314 20.9320 104.5673 0.0000 0.0000 0.0000
# 4 0.0000 0.0000 0.0000 23.4512 0.0000 0.0000
# 5 0.0000 0.0000 0.0000 0.0000 23.4511 0.0000
# 6 0.0000 0.0000 0.0000 0.0000 0.0000 58.7919
#
#
#
# Elastic Compliance Matrix: (Units=1/GPa)
#
#
# Indices 1 2 3 4 5 6 
#
# 1 0.041677 -0.028950 -0.002547 0.000000 0.000000 0.000000
# 2 -0.028950 0.041674 -0.002547 0.000000 0.000000 0.000000
# 3 -0.002547 -0.002547 0.010583 0.000000 0.000000 0.000000
# 4 0.000000 0.000000 0.000000 0.042642 0.000000 0.000000
# 5 0.000000 0.000000 0.000000 0.000000 0.042642 0.000000
# 6 0.000000 0.000000 0.000000 0.000000 0.000000 0.017009
#
#
# Mechanical properties :
#
#
# Convention : Reuss Voigt Hill
#
# Bulk Modulus (GPa) = 38.69188 40.24604 39.46896
# Shear Modulus (GPa) = 18.31960 29.63368 23.97664
#
# Velocity S-wave (km/s) = 2.88474 3.66895 3.30022
# Velocity P-wave (km/s) = 5.35459 6.01915 5.69657
#
# Compressibility (1/GPa) = 0.02584522
#
# Stress axis : x y z
#
# Youngs Moduli (GPa) = 23.99407 23.99552 94.49060
#
# Poissons Ratio (x) = 0.69467 0.24071
# Poissons Ratio (y) = 0.69462 0.24070
# Poissons Ratio (z) = 0.06112 0.06113
#
# Static dielectric constant tensor:
#      x y z
#    x 1.851820 0.000000 0.000000 
#    y 0.000000 1.851810 0.000000 
#    z 0.000000 0.000000 1.817740 
# 
# From -- ./inp_files/12762.got.cif
#   From: 2010.05.17/outbox.cif.g08.bks.cpg/sg91_7_cif.got.tgz:12762.got - 2010.06.03 19:20:03.
