data_PCOD9548158
_publ_section_title
;
Structure prediction by ZEFSAII (Michael W. Deem and Ramdas Pophale) SiO2 
 PCOD9548158
Probable space group: P 41 2 2
;
_chemical_formula_sum "Si O2"
_cell_formula_units_Z 48
_cell_length_a 11.980565
_cell_length_b 11.980565
_cell_length_c 16.650904
_cell_angle_alpha 90.000000
_cell_angle_beta 90.000000
_cell_angle_gamma 90.000000
_cell_volume 2389.969818
_symmetry_space_group_name_H-M "P 41 2 2"
_symmetry_group_IT_number 91
_symmetry_cell_setting 'tetragonal'
loop_
_space_group_symop_operation_xyz
x,y,z
-y,x,1/4+z
-x,-y,1/2+z
y,-x,3/4+z
x,-y,1/2-z
-x,y,-z
y,x,3/4-z
-y,-x,1/4-z
loop_
_atom_site_type_symbol
_atom_site_label
_atom_site_fract_x
_atom_site_fract_y
_atom_site_fract_z
Si Si1 0.976765 0.804044 0.855661
Si Si2 0.458234 0.997053 0.407499
Si Si3 0.512829 0.745307 0.377212
Si Si4 0.086492 0.337932 0.072639
Si Si5 0.976086 0.133150 0.822916
Si Si6 0.671714 0.666373 0.507202
O O1 0.856265 0.856265 0.875000
O O2 0.010588 0.854036 0.768846
O O3 0.976420 0.671855 0.850765
O O4 0.063719 0.861065 0.916740
O O5 0.500000 0.995401 0.500000
O O6 0.474687 0.872587 0.371345
O O7 0.537673 0.080821 0.358500
O O8 0.617857 0.746700 0.439395
O O9 0.418470 0.671779 0.421500
O O10 0.553644 0.692463 0.293923
O O11 0.045016 0.254294 0.140860
O O12 0.208256 0.302889 0.041845
O O13 0.000000 0.330806 0.000000
O O14 0.067787 0.067787 0.875000
#
# Coordination Sequence:
#
# PCOD9548158 Si02
#       6
#     8   8   8   8   8   8
#     4  11  24  44  67  92 134 183 224 265 336 406
#     4  12  23  43  63  97 132 179 221 275 333 397
#     4  10  21  40  73  94 134 168 226 282 339 396
#     4  12  24  38  65 101 135 169 222 279 338 408
#     4  11  23  40  64  98 135 170 220 278 336 397
#     4  10  21  40  65 103 124 173 223 281 343 386
#
# _framework density 20.083936000000001
#
# number of rings (size 3 to 8) (size 9 to 14) (size 15 to 20)
#    0.000    1.000    5.000    4.000    0.000    2.667 
#    3.000    0.000   18.333    0.000    0.000    0.000 
#    0.000    0.000    0.000    0.000    0.000    0.000 
#
# Total GULP energy -268226.114007 kJ/mol
# GULP energy per Si atom -5588.044042 kJ/mol
# Density = 2.003822 g / cm^3
# Si number density = 20.083936 Si / 1000 Ang^3
#
#
#
# Elastic Constant Matrix: (Units=GPa)
#
#
# Indices 1 2 3 4 5 6 
#
# 1 103.6535 29.3525 13.9177 0.0000 0.0000 0.0000
# 2 29.3525 103.6535 13.9177 0.0000 0.0000 0.0000
# 3 13.9177 13.9177 60.1585 0.0000 0.0000 0.0000
# 4 0.0000 0.0000 0.0000 19.6644 0.0000 0.0000
# 5 0.0000 0.0000 0.0000 0.0000 19.6644 0.0000
# 6 0.0000 0.0000 0.0000 0.0000 0.0000 20.0626
#
#
#
# Elastic Compliance Matrix: (Units=1/GPa)
#
#
# Indices 1 2 3 4 5 6 
#
# 1 0.010680 -0.002779 -0.001828 0.000000 0.000000 0.000000
# 2 -0.002779 0.010680 -0.001828 0.000000 0.000000 0.000000
# 3 -0.001828 -0.001828 0.017469 0.000000 0.000000 0.000000
# 4 0.000000 0.000000 0.000000 0.050853 0.000000 0.000000
# 5 0.000000 0.000000 0.000000 0.000000 0.050853 0.000000
# 6 0.000000 0.000000 0.000000 0.000000 0.000000 0.049844
#
#
# Mechanical properties :
#
#
# Convention : Reuss Voigt Hill
#
# Bulk Modulus (GPa) = 38.52238 42.42678 40.47458
# Shear Modulus (GPa) = 23.59591 25.89680 24.74635
#
# Velocity S-wave (km/s) = 3.43135 3.59476 3.51400
# Velocity P-wave (km/s) = 5.90942 6.19680 6.05481
#
# Compressibility (1/GPa) = 0.02595894
#
# Stress axis : x y z
#
# Youngs Moduli (GPa) = 93.63397 93.63397 57.24583
#
# Poissons Ratio (x) = 0.26020 0.10464
# Poissons Ratio (y) = 0.26020 0.10464
# Poissons Ratio (z) = 0.17115 0.17115
#
# Static dielectric constant tensor:
#      x y z
#    x 1.711710 0.000000 0.000000 
#    y 0.000000 1.711710 0.000000 
#    z 0.000000 0.000000 1.727190 
# 
# From -- ./inp_files/5612.got.cif
#   From: 2010.05.17/outbox.cif.g08.bks.cpg/sg91_3_cif.got.tgz:5612.got - 2010.06.03 19:20:03.
