data_PCOD9548214
_publ_section_title
;
Structure prediction by ZEFSAII (Michael W. Deem and Ramdas Pophale) SiO2 
 PCOD9548214
Probable space group: P 41 2 2
;
_chemical_formula_sum "Si O2"
_cell_formula_units_Z 60
_cell_length_a 17.859457
_cell_length_b 17.859457
_cell_length_c 8.111551
_cell_angle_alpha 90.000000
_cell_angle_beta 90.000000
_cell_angle_gamma 90.000000
_cell_volume 2587.261964
_symmetry_space_group_name_H-M "P 41 2 2"
_symmetry_group_IT_number 91
_symmetry_cell_setting 'tetragonal'
loop_
_space_group_symop_operation_xyz
x,y,z
-y,x,1/4+z
-x,-y,1/2+z
y,-x,3/4+z
x,-y,1/2-z
-x,y,-z
y,x,3/4-z
-y,-x,1/4-z
loop_
_atom_site_type_symbol
_atom_site_label
_atom_site_fract_x
_atom_site_fract_y
_atom_site_fract_z
Si Si1 0.634443 0.430906 0.485314
Si Si2 0.074538 0.459061 0.576538
Si Si3 0.739367 0.063823 0.372388
Si Si4 0.798566 0.636866 0.966024
Si Si5 0.145632 0.594847 0.401294
Si Si6 0.803364 0.158864 0.799288
Si Si7 0.408785 0.688329 0.724415
Si Si8 0.000000 0.249481 0.500000
O O1 0.570779 0.429222 0.625000
O O2 0.717802 0.401599 0.531876
O O3 0.604281 0.360996 0.383886
O O4 0.652513 0.512759 0.415201
O O5 0.061221 0.500000 0.750000
O O6 0.142648 0.401466 0.590908
O O7 0.101593 0.519285 0.441123
O O8 0.000000 0.422063 0.500000
O O9 0.660358 0.090269 0.297370
O O10 0.791405 0.137723 0.352568
O O11 0.768760 0.000000 0.250000
O O12 0.725901 0.040046 0.568098
O O13 0.830342 0.618203 0.783896
O O14 0.799169 0.723985 0.016494
O O15 0.223979 0.586955 0.497988
O O16 0.844808 0.155193 0.625000
O O17 0.787047 0.072874 0.836874
O O18 0.335477 0.664524 0.625000
#
# Coordination Sequence:
#
# PCOD9548214 Si02
#       8
#     8   8   8   8   8   8   8   4
#     4  12  25  44  72 103 139 194 250 306 378 439
#     4  12  29  47  71 109 153 194 246 307 381 456
#     4  11  25  47  75 112 154 188 252 316 375 464
#     4  12  23  44  79 100 143 197 249 302 371 447
#     4  12  24  49  73 107 146 195 247 311 372 460
#     4  10  21  43  73 109 141 188 246 300 369 453
#     4  12  28  45  70 102 146 192 248 314 372 439
#     4  10  22  44  76 104 148 198 240 308 378 442
#
# _framework density 23.190539999999999
#
# number of rings (size 3 to 8) (size 9 to 14) (size 15 to 20)
#    0.000    0.533    5.333    3.600    2.800    4.267 
#    2.400    0.000   13.200    0.000    0.000    0.000 
#    0.000    0.000    0.000    0.000    0.000    0.000 
#
# Total GULP energy -334296.033000 kJ/mol
# GULP energy per Si atom -5571.600550 kJ/mol
# Density = 2.313776 g / cm^3
# Si number density = 23.190540 Si / 1000 Ang^3
#
#
#
# Elastic Constant Matrix: (Units=GPa)
#
#
# Indices 1 2 3 4 5 6 
#
# 1 114.8705 29.1604 13.6703 0.0000 0.0000 0.0000
# 2 29.1604 114.8699 13.6688 0.0000 0.0000 0.0000
# 3 13.6703 13.6688 69.0612 0.0000 0.0000 0.0000
# 4 0.0000 0.0000 0.0000 23.6731 0.0000 0.0000
# 5 0.0000 0.0000 0.0000 0.0000 23.6756 0.0000
# 6 0.0000 0.0000 0.0000 0.0000 0.0000 4.7945
#
#
#
# Elastic Compliance Matrix: (Units=1/GPa)
#
#
# Indices 1 2 3 4 5 6 
#
# 1 0.009441 -0.002227 -0.001428 0.000000 0.000000 0.000000
# 2 -0.002227 0.009441 -0.001428 0.000000 0.000000 0.000000
# 3 -0.001428 -0.001428 0.015045 0.000000 0.000000 0.000000
# 4 0.000000 0.000000 0.000000 0.042242 0.000000 0.000000
# 5 0.000000 0.000000 0.000000 0.000000 0.042238 0.000000
# 6 0.000000 0.000000 0.000000 0.000000 0.000000 0.208570
#
#
# Mechanical properties :
#
#
# Convention : Reuss Voigt Hill
#
# Bulk Modulus (GPa) = 42.08473 45.75564 43.92018
# Shear Modulus (GPa) = 14.49016 26.58213 20.53615
#
# Velocity S-wave (km/s) = 2.50237 3.38930 2.97903
# Velocity P-wave (km/s) = 5.15130 5.92365 5.55093
#
# Compressibility (1/GPa) = 0.02376159
#
# Stress axis : x y z
#
# Youngs Moduli (GPa) = 105.92505 105.92504 66.46653
#
# Poissons Ratio (x) = 0.23586 0.09492
# Poissons Ratio (y) = 0.23586 0.09490
# Poissons Ratio (z) = 0.15126 0.15124
#
# Static dielectric constant tensor:
#      x y z
#    x 1.927370 0.000000 0.000000 
#    y 0.000000 1.927360 0.000000 
#    z 0.000000 0.000000 0.659620 
# 
# From -- ./inp_files/2802.got.cif
#   From: 2010.05.17/outbox.cif.g08.bks.cpg/sg91_2_cif.got.tgz:2802.got - 2010.06.03 19:20:03.
