data_PCOD9548562
_publ_section_title
;
Structure prediction by ZEFSAII (Michael W. Deem and Ramdas Pophale) SiO2 
 PCOD9548562
Probable space group: P 41 2 2
;
_chemical_formula_sum "Si O2"
_cell_formula_units_Z 40
_cell_length_a 9.145974
_cell_length_b 9.145974
_cell_length_c 20.675179
_cell_angle_alpha 90.000000
_cell_angle_beta 90.000000
_cell_angle_gamma 90.000000
_cell_volume 1729.454749
_symmetry_space_group_name_H-M "P 41 2 2"
_symmetry_group_IT_number 91
_symmetry_cell_setting 'tetragonal'
loop_
_space_group_symop_operation_xyz
x,y,z
-y,x,1/4+z
-x,-y,1/2+z
y,-x,3/4+z
x,-y,1/2-z
-x,y,-z
y,x,3/4-z
-y,-x,1/4-z
loop_
_atom_site_type_symbol
_atom_site_label
_atom_site_fract_x
_atom_site_fract_y
_atom_site_fract_z
Si Si1 0.165414 0.334966 0.012240
Si Si2 0.174881 0.629380 0.088139
Si Si3 0.358127 0.064107 0.050812
Si Si4 0.513007 0.284982 0.860999
Si Si5 0.664297 0.771004 0.020790
O O1 0.170206 0.463408 0.065817
O O2 0.243106 0.186931 0.032069
O O3 0.226282 0.413270 0.947752
O O4 0.000000 0.298069 0.000000
O O5 0.321376 0.678625 0.125000
O O6 0.041773 0.664535 0.136393
O O7 0.197493 0.724446 0.023772
O O8 0.486331 0.173149 0.078336
O O9 0.353949 0.944915 0.991651
O O10 0.440458 0.440458 0.875000
O O11 0.678616 0.301342 0.834767
O O12 0.500000 0.716723 0.000000
#
# Coordination Sequence:
#
# PCOD9548562 Si02
#       5
#     8   8   8   8   8
#     4  11  24  47  69 110 158 196 252 314 386 469
#     4   9  21  46  72 106 140 198 252 306 375 440
#     4  11  25  45  76 106 154 195 244 314 385 447
#     4  11  27  44  77 110 151 197 255 314 380 444
#     4  10  25  44  73 108 145 188 257 309 359 457
#
# _framework density 23.128675999999999
#
# number of rings (size 3 to 8) (size 9 to 14) (size 15 to 20)
#    0.000    1.600    2.000    0.000   14.000    0.000 
#   10.800    0.000    0.000    0.000    0.000    0.000 
#    0.000    0.000    0.000    0.000    0.000    0.000 
#
# Total GULP energy -222814.034023 kJ/mol
# GULP energy per Si atom -5570.350851 kJ/mol
# Density = 2.307603 g / cm^3
# Si number density = 23.128676 Si / 1000 Ang^3
#
#
#
# Elastic Constant Matrix: (Units=GPa)
#
#
# Indices 1 2 3 4 5 6 
#
# 1 145.9217 89.3219 61.1115 0.0000 0.0000 0.0000
# 2 89.3219 145.9223 61.1111 0.0000 0.0000 0.0000
# 3 61.1115 61.1111 84.1235 0.0000 0.0000 0.0000
# 4 0.0000 0.0000 0.0000 53.5773 0.0000 0.0000
# 5 0.0000 0.0000 0.0000 0.0000 53.5772 0.0000
# 6 0.0000 0.0000 0.0000 0.0000 0.0000 19.6485
#
#
#
# Elastic Compliance Matrix: (Units=1/GPa)
#
#
# Indices 1 2 3 4 5 6 
#
# 1 0.012248 -0.005420 -0.004960 0.000000 0.000000 0.000000
# 2 -0.005420 0.012248 -0.004960 0.000000 0.000000 0.000000
# 3 -0.004960 -0.004960 0.019094 0.000000 0.000000 0.000000
# 4 0.000000 0.000000 0.000000 0.018665 0.000000 0.000000
# 5 0.000000 0.000000 0.000000 0.000000 0.018665 0.000000
# 6 0.000000 0.000000 0.000000 0.000000 0.000000 0.050895
#
#
# Mechanical properties :
#
#
# Convention : Reuss Voigt Hill
#
# Bulk Modulus (GPa) = 77.46424 88.78404 83.12414
# Shear Modulus (GPa) = 29.97653 36.32213 33.14933
#
# Velocity S-wave (km/s) = 3.60401 3.96717 3.78994
# Velocity P-wave (km/s) = 7.13330 7.71070 7.42761
#
# Compressibility (1/GPa) = 0.01290918
#
# Stress axis : x y z
#
# Youngs Moduli (GPa) = 81.64618 81.64716 52.37267
#
# Poissons Ratio (x) = 0.44252 0.25978
# Poissons Ratio (y) = 0.44251 0.25977
# Poissons Ratio (z) = 0.40499 0.40498
#
# Static dielectric constant tensor:
#      x y z
#    x 1.885700 0.000000 0.000000 
#    y 0.000000 1.885690 0.000000 
#    z 0.000000 0.000000 1.988990 
# 
# From -- ./inp_files/21708.got.cif
#   From: 2010.05.17/outbox.cif.g08.bks.cpg/sg91_11_cif.got.tgz:21708.got - 2010.06.03 19:20:03.
