data_PCOD9548947
_publ_section_title
;
Structure prediction by ZEFSAII (Michael W. Deem and Ramdas Pophale) SiO2 
 PCOD9548947
Probable space group: P 41 21 2
;
_chemical_formula_sum "Si O2"
_cell_formula_units_Z 40
_cell_length_a 7.613722
_cell_length_b 7.613722
_cell_length_c 25.196944
_cell_angle_alpha 90.000000
_cell_angle_beta 90.000000
_cell_angle_gamma 90.000000
_cell_volume 1460.635667
_symmetry_space_group_name_H-M "P 41 21 2"
_symmetry_group_IT_number 92
_symmetry_cell_setting 'tetragonal'
loop_
_space_group_symop_operation_xyz
x,y,z
1/2-y,1/2+x,1/4+z
-x,-y,1/2+z
1/2+y,1/2-x,3/4+z
1/2+x,1/2-y,3/4-z
1/2-x,1/2+y,1/4-z
y,x,-z
-y,-x,1/2-z
loop_
_atom_site_type_symbol
_atom_site_label
_atom_site_fract_x
_atom_site_fract_y
_atom_site_fract_z
Si Si1 0.407554 0.418185 0.091673
Si Si2 0.085645 0.604014 0.954267
Si Si3 0.680480 0.944163 0.469854
Si Si4 0.283797 0.997230 0.657218
Si Si5 0.519733 0.687043 0.704541
O O1 0.495172 0.237010 0.073705
O O2 0.220016 0.409821 0.062752
O O3 0.579197 0.535258 0.077743
O O4 0.393575 0.417444 0.155754
O O5 0.992222 0.705207 0.906688
O O6 0.984248 0.447904 0.984006
O O7 0.151688 0.717866 0.004525
O O8 0.846695 0.846695 0.500000
O O9 0.669291 0.106397 0.427958
O O10 0.399204 0.836372 0.678154
O O11 0.405420 0.594581 0.750000
#
# Coordination Sequence:
#
# PCOD9548947 Si02
#       5
#     8   8   8   8   8
#     4  10  20  38  63  92 127 176 226 273 347 409
#     4   9  19  38  59  88 131 174 219 284 341 394
#     4   9  20  40  64  91 137 177 218 290 341 392
#     4  10  20  37  65  96 126 177 226 274 342 415
#     4  10  19  36  59  85 127 173 218 280 338 399
#
# _framework density 27.385335000000001
#
# number of rings (size 3 to 8) (size 9 to 14) (size 15 to 20)
#    0.000    2.400    2.000    0.000    0.000    2.400 
#    7.200   17.000    0.000    0.000    0.000    0.000 
#    0.000    0.000    0.000    0.000    0.000    0.000 
#
# Total GULP energy -222792.462070 kJ/mol
# GULP energy per Si atom -5569.811552 kJ/mol
# Density = 2.732301 g / cm^3
# Si number density = 27.385335 Si / 1000 Ang^3
#
#
#
# Elastic Constant Matrix: (Units=GPa)
#
#
# Indices 1 2 3 4 5 6 
#
# 1 17.6235 105.2533 43.7514 0.0000 0.0000 0.0000
# 2 105.2533 17.6234 43.7516 0.0000 0.0000 0.0000
# 3 43.7514 43.7516 165.0672 0.0000 0.0000 0.0000
# 4 0.0000 0.0000 0.0000 49.1007 0.0000 0.0000
# 5 0.0000 0.0000 0.0000 0.0000 49.1008 0.0000
# 6 0.0000 0.0000 0.0000 0.0000 0.0000 47.3974
#
#
#
# Elastic Compliance Matrix: (Units=1/GPa)
#
#
# Indices 1 2 3 4 5 6 
#
# 1 -0.000690 0.010722 -0.002659 0.000000 0.000000 0.000000
# 2 0.010722 -0.000690 -0.002659 0.000000 0.000000 0.000000
# 3 -0.002659 -0.002659 0.007468 0.000000 0.000000 0.000000
# 4 0.000000 0.000000 0.000000 0.020366 0.000000 0.000000
# 5 0.000000 0.000000 0.000000 0.000000 0.020366 0.000000
# 6 0.000000 0.000000 0.000000 0.000000 0.000000 0.021098
#
#
# Mechanical properties :
#
#
# Convention : Reuss Voigt Hill
#
# Bulk Modulus (GPa) = 59.18788 65.09186 62.13987
# Shear Modulus (GPa) = 79.69060 29.62364 54.65712
#
# Velocity S-wave (km/s) = 5.40027 3.29254 4.47234
# Velocity P-wave (km/s) = 7.78099 6.18667 7.02918
#
# Compressibility (1/GPa) = 0.01689535
#
# Stress axis : x y z
#
# Youngs Moduli (GPa) = -1449.37313 -1449.33415 133.91085
#
# Poissons Ratio (x) = 15.53929 0.35606
# Poissons Ratio (y) = 15.53971 0.35606
# Poissons Ratio (z) = -3.85380 -3.85367
#
# Static dielectric constant tensor:
#      x y z
#    x 2.311750 0.000000 0.000000 
#    y 0.000000 2.311750 0.000000 
#    z 0.000000 0.000000 2.212090 
# 
# From -- ./inp_files/3769.got.cif
#   From: 2010.05.17/outbox.cif.g08.bks.cpg/sg92_2_cif.got.tgz:3769.got - 2010.06.03 19:35:17.
