data_PCOD9548880
_publ_section_title
;
Structure prediction by ZEFSAII (Michael W. Deem and Ramdas Pophale) SiO2 
 PCOD9548880
Probable space group: P 41 21 2
;
_chemical_formula_sum "Si O2"
_cell_formula_units_Z 48
_cell_length_a 16.861518
_cell_length_b 16.861518
_cell_length_c 10.430872
_cell_angle_alpha 90.000000
_cell_angle_beta 90.000000
_cell_angle_gamma 90.000000
_cell_volume 2965.609451
_symmetry_space_group_name_H-M "P 41 21 2"
_symmetry_group_IT_number 92
_symmetry_cell_setting 'tetragonal'
loop_
_space_group_symop_operation_xyz
x,y,z
1/2-y,1/2+x,1/4+z
-x,-y,1/2+z
1/2+y,1/2-x,3/4+z
1/2+x,1/2-y,3/4-z
1/2-x,1/2+y,1/4-z
y,x,-z
-y,-x,1/2-z
loop_
_atom_site_type_symbol
_atom_site_label
_atom_site_fract_x
_atom_site_fract_y
_atom_site_fract_z
Si Si1 0.587457 0.722295 0.998531
Si Si2 0.917169 0.790577 0.842067
Si Si3 0.338227 0.203038 0.741157
Si Si4 0.198665 0.335058 0.739131
Si Si5 0.600984 0.736762 0.504788
Si Si6 0.426566 0.714103 0.599929
O O1 0.498330 0.693859 0.981793
O O2 0.607448 0.776298 0.875669
O O3 0.648808 0.648808 0.000000
O O4 0.604727 0.773285 0.124671
O O5 0.877181 0.710017 0.787937
O O6 0.857811 0.864994 0.824885
O O7 0.931966 0.780936 0.995037
O O8 0.266984 0.267603 0.739572
O O9 0.384355 0.214879 0.873966
O O10 0.117022 0.291866 0.705765
O O11 0.206879 0.376079 0.875998
O O12 0.662188 0.662188 0.500000
O O13 0.512163 0.706607 0.533883
#
# Coordination Sequence:
#
# PCOD9548880 Si02
#       6
#     8   8   8   8   8   8
#     4  10  18  32  55  79 103 137 175 216 262 313
#     4  10  19  33  56  81 105 139 182 221 257 312
#     4   9  19  33  51  77 105 137 179 217 251 312
#     4   9  17  33  54  75 100 139 184 211 251 315
#     4  10  20  34  54  79 110 140 170 218 275 316
#     4  10  19  33  56  81 105 139 181 219 261 316
#
# _framework density 16.185542999999999
#
# number of rings (size 3 to 8) (size 9 to 14) (size 15 to 20)
#    0.000    2.333    3.333    0.000    0.000    2.000 
#    0.000    2.500    0.000    6.000    0.000    0.000 
#    0.000    0.000    0.000    0.000    0.000    0.000 
#
# Total GULP energy -267337.300851 kJ/mol
# GULP energy per Si atom -5569.527101 kJ/mol
# Density = 1.614870 g / cm^3
# Si number density = 16.185543 Si / 1000 Ang^3
#
#
#
# Elastic Constant Matrix: (Units=GPa)
#
#
# Indices 1 2 3 4 5 6 
#
# 1 46.3237 65.6430 42.6542 0.0000 0.0000 0.0000
# 2 65.6430 46.3237 42.6542 0.0000 0.0000 0.0000
# 3 42.6542 42.6542 126.5474 0.0000 0.0000 0.0000
# 4 0.0000 0.0000 0.0000 19.9323 0.0000 0.0000
# 5 0.0000 0.0000 0.0000 0.0000 19.9323 0.0000
# 6 0.0000 0.0000 0.0000 0.0000 0.0000 14.0777
#
#
#
# Elastic Compliance Matrix: (Units=1/GPa)
#
#
# Indices 1 2 3 4 5 6 
#
# 1 -0.019872 0.031890 -0.004051 0.000000 0.000000 0.000000
# 2 0.031890 -0.019872 -0.004051 0.000000 0.000000 0.000000
# 3 -0.004051 -0.004051 0.010633 0.000000 0.000000 0.000000
# 4 0.000000 0.000000 0.000000 0.050170 0.000000 0.000000
# 5 0.000000 0.000000 0.000000 0.000000 0.050170 0.000000
# 6 0.000000 0.000000 0.000000 0.000000 0.000000 0.071034
#
#
# Mechanical properties :
#
#
# Convention : Reuss Voigt Hill
#
# Bulk Modulus (GPa) = 54.15594 57.89974 56.02784
# Shear Modulus (GPa) = 49.58318 15.33803 32.46061
#
# Velocity S-wave (km/s) = 5.54083 3.08171 4.48317
# Velocity P-wave (km/s) = 8.62939 6.96511 7.84153
#
# Compressibility (1/GPa) = 0.01846519
#
# Stress axis : x y z
#
# Youngs Moduli (GPa) = -50.32164 -50.32164 94.04880
#
# Poissons Ratio (x) = 1.60474 0.38095
# Poissons Ratio (y) = 1.60474 0.38095
# Poissons Ratio (z) = -0.20383 -0.20383
#
# Static dielectric constant tensor:
#      x y z
#    x 1.534140 0.000000 0.000000 
#    y 0.000000 1.534140 0.000000 
#    z 0.000000 0.000000 1.546640 
# 
# From -- ./inp_files/1518.got.cif
#   From: 2010.05.17/outbox.cif.g08.bks.cpg/sg92_1_cif.got.tgz:1518.got - 2010.06.03 19:35:17.
