data_PCOD9548340
_publ_section_title
;
Structure prediction by ZEFSAII (Michael W. Deem and Ramdas Pophale) SiO2 
 PCOD9548340
Probable space group: P 41 2 2
;
_chemical_formula_sum "Si O2"
_cell_formula_units_Z 28
_cell_length_a 7.521253
_cell_length_b 7.521253
_cell_length_c 23.586341
_cell_angle_alpha 90.000000
_cell_angle_beta 90.000000
_cell_angle_gamma 90.000000
_cell_volume 1334.261543
_symmetry_space_group_name_H-M "P 41 2 2"
_symmetry_group_IT_number 91
_symmetry_cell_setting 'tetragonal'
loop_
_space_group_symop_operation_xyz
x,y,z
-y,x,1/4+z
-x,-y,1/2+z
y,-x,3/4+z
x,-y,1/2-z
-x,y,-z
y,x,3/4-z
-y,-x,1/4-z
loop_
_atom_site_type_symbol
_atom_site_label
_atom_site_fract_x
_atom_site_fract_y
_atom_site_fract_z
Si Si1 0.145954 0.365003 0.544533
Si Si2 0.467535 0.500000 0.750000
Si Si3 0.460336 0.145800 0.076239
Si Si4 0.808280 0.036201 0.014729
O O1 0.340361 0.419775 0.524252
O O2 0.120037 0.433180 0.607902
O O3 0.140373 0.152050 0.541635
O O4 0.000000 0.432586 0.500000
O O5 0.341243 0.575777 0.800218
O O6 0.666610 0.120553 0.058336
O O7 0.318549 0.024765 0.041249
O O8 0.000000 0.123470 0.000000
#
# Coordination Sequence:
#
# PCOD9548340 Si02
#       4
#     8   4   8   8
#     4  11  24  41  67  99 127 180 220 271 350 392
#     4  10  22  42  60  96 132 168 218 270 332 394
#     4  10  23  43  63  96 134 172 224 278 329 408
#     4   9  21  43  65  94 129 174 222 272 339 395
#
# _framework density 20.985392999999998
#
# number of rings (size 3 to 8) (size 9 to 14) (size 15 to 20)
#    0.000    2.286    0.000    2.571    4.000    9.143 
#   15.429    0.000    0.000    0.000    0.000    0.000 
#    0.000    0.000    0.000    0.000    0.000    0.000 
#
# Total GULP energy -156147.903994 kJ/mol
# GULP energy per Si atom -5576.710857 kJ/mol
# Density = 2.093763 g / cm^3
# Si number density = 20.985393 Si / 1000 Ang^3
#
#
#
# Elastic Constant Matrix: (Units=GPa)
#
#
# Indices 1 2 3 4 5 6 
#
# 1 75.9486 0.2431 23.1266 0.0000 0.0000 0.0000
# 2 0.2431 75.9486 23.1266 0.0000 0.0000 0.0000
# 3 23.1266 23.1266 138.8746 0.0000 0.0000 0.0000
# 4 0.0000 0.0000 0.0000 9.1857 0.0000 0.0000
# 5 0.0000 0.0000 0.0000 0.0000 9.1857 0.0000
# 6 0.0000 0.0000 0.0000 0.0000 0.0000 30.4598
#
#
#
# Elastic Compliance Matrix: (Units=1/GPa)
#
#
# Indices 1 2 3 4 5 6 
#
# 1 0.013905 0.000696 -0.002431 0.000000 0.000000 0.000000
# 2 0.000696 0.013905 -0.002431 0.000000 0.000000 0.000000
# 3 -0.002431 -0.002431 0.008011 0.000000 0.000000 0.000000
# 4 0.000000 0.000000 0.000000 0.108865 0.000000 0.000000
# 5 0.000000 0.000000 0.000000 0.000000 0.108865 0.000000
# 6 0.000000 0.000000 0.000000 0.000000 0.000000 0.032830
#
#
# Mechanical properties :
#
#
# Convention : Reuss Voigt Hill
#
# Bulk Modulus (GPa) = 36.38164 42.64051 39.51108
# Shear Modulus (GPa) = 16.45399 26.05126 21.25262
#
# Velocity S-wave (km/s) = 2.80316 3.52717 3.18580
# Velocity P-wave (km/s) = 5.27743 6.07875 5.69221
#
# Compressibility (1/GPa) = 0.02748639
#
# Stress axis : x y z
#
# Youngs Moduli (GPa) = 71.91680 71.91680 124.83527
#
# Poissons Ratio (x) = -0.05005 0.30353
# Poissons Ratio (y) = -0.05005 0.30353
# Poissons Ratio (z) = 0.17486 0.17486
#
# Static dielectric constant tensor:
#      x y z
#    x 1.809760 0.000000 0.000000 
#    y 0.000000 1.809760 0.000000 
#    z 0.000000 0.000000 1.736980 
# 
# From -- ./inp_files/21288.got.cif
#   From: 2010.05.17/outbox.cif.g08.bks.cpg/sg91_11_cif.got.tgz:21288.got - 2010.06.03 19:20:03.
