data_PCOD9548378
_publ_section_title
;
Structure prediction by ZEFSAII (Michael W. Deem and Ramdas Pophale) SiO2 
 PCOD9548378
Probable space group: P 41 2 2
;
_chemical_formula_sum "Si O2"
_cell_formula_units_Z 48
_cell_length_a 8.416957
_cell_length_b 8.416957
_cell_length_c 29.486501
_cell_angle_alpha 90.000000
_cell_angle_beta 90.000000
_cell_angle_gamma 90.000000
_cell_volume 2088.976033
_symmetry_space_group_name_H-M "P 41 2 2"
_symmetry_group_IT_number 91
_symmetry_cell_setting 'tetragonal'
loop_
_space_group_symop_operation_xyz
x,y,z
-y,x,1/4+z
-x,-y,1/2+z
y,-x,3/4+z
x,-y,1/2-z
-x,y,-z
y,x,3/4-z
-y,-x,1/4-z
loop_
_atom_site_type_symbol
_atom_site_label
_atom_site_fract_x
_atom_site_fract_y
_atom_site_fract_z
Si Si1 0.250715 0.475193 0.820030
Si Si2 0.249439 0.157775 0.009663
Si Si3 0.894065 0.000000 0.750000
Si Si4 0.000000 0.397473 0.000000
Si Si5 0.161751 0.444856 0.583614
Si Si6 0.496258 0.624414 0.053861
Si Si7 0.143333 0.271440 0.414791
O O1 0.145584 0.617562 0.798148
O O2 0.218882 0.330203 0.786378
O O3 0.217118 0.454474 0.872819
O O4 0.434791 0.519645 0.811763
O O5 0.118082 0.282413 0.027347
O O6 0.154263 0.003086 0.995297
O O7 0.790299 0.047837 0.707740
O O8 0.116233 0.489325 0.966130
O O9 0.325571 0.339978 0.574589
O O10 0.982291 0.402694 0.600599
O O11 0.328906 0.692225 0.073985
O O12 0.500000 0.659149 0.000000
O O13 0.144229 0.144229 0.375000
#
# Coordination Sequence:
#
# PCOD9548378 Si02
#       7
#     8   8   4   4   8   8   8
#     4  11  21  43  70 110 141 183 262 313 381 463
#     4  10  22  43  70  97 143 193 236 319 379 450
#     4  11  25  50  66  96 149 205 242 298 405 463
#     4  11  21  40  70 102 145 183 242 308 385 459
#     4  12  24  42  73 108 143 196 250 315 395 464
#     4  12  23  45  77 109 151 197 253 327 399 469
#     4  12  27  49  68 110 153 197 262 323 391 481
#
# _framework density 22.977765000000002
#
# number of rings (size 3 to 8) (size 9 to 14) (size 15 to 20)
#    0.000    0.667    3.333    6.000    0.000    0.000 
#   27.000    0.000    0.000    0.000    0.000    0.000 
#    0.000    0.000    0.000    0.000    0.000    0.000 
#
# Total GULP energy -267317.567066 kJ/mol
# GULP energy per Si atom -5569.115981 kJ/mol
# Density = 2.292547 g / cm^3
# Si number density = 22.977765 Si / 1000 Ang^3
#
#
#
# Elastic Constant Matrix: (Units=GPa)
#
#
# Indices 1 2 3 4 5 6 
#
# 1 95.9362 28.3214 17.0229 0.0000 0.0000 0.0000
# 2 28.3214 95.9362 17.0229 0.0000 0.0000 0.0000
# 3 17.0229 17.0229 110.5329 0.0000 0.0000 0.0000
# 4 0.0000 0.0000 0.0000 26.2408 0.0000 0.0000
# 5 0.0000 0.0000 0.0000 0.0000 26.2408 0.0000
# 6 0.0000 0.0000 0.0000 0.0000 0.0000 212.4236
#
#
#
# Elastic Compliance Matrix: (Units=1/GPa)
#
#
# Indices 1 2 3 4 5 6 
#
# 1 0.011596 -0.003194 -0.001294 0.000000 0.000000 0.000000
# 2 -0.003194 0.011596 -0.001294 0.000000 0.000000 0.000000
# 3 -0.001294 -0.001294 0.009446 0.000000 0.000000 0.000000
# 4 0.000000 0.000000 0.000000 0.038109 0.000000 0.000000
# 5 0.000000 0.000000 0.000000 0.000000 0.038109 0.000000
# 6 0.000000 0.000000 0.000000 0.000000 0.000000 0.004708
#
#
# Mechanical properties :
#
#
# Convention : Reuss Voigt Hill
#
# Bulk Modulus (GPa) = 47.45126 47.45998 47.45562
# Shear Modulus (GPa) = 37.83564 68.98359 53.40962
#
# Velocity S-wave (km/s) = 4.06226 5.48517 4.82644
# Velocity P-wave (km/s) = 6.53440 7.79844 7.19424
#
# Compressibility (1/GPa) = 0.02107426
#
# Stress axis : x y z
#
# Youngs Moduli (GPa) = 86.23662 86.23662 105.86875
#
# Poissons Ratio (x) = 0.27541 0.13700
# Poissons Ratio (y) = 0.27541 0.13700
# Poissons Ratio (z) = 0.11159 0.11159
#
# Static dielectric constant tensor:
#      x y z
#    x 2.027480 0.000000 0.000000 
#    y 0.000000 2.027480 0.000000 
#    z 0.000000 0.000000 1.852280 
# 
# From -- ./inp_files/13665.got.cif
#   From: 2010.05.17/outbox.cif.g08.bks.cpg/sg91_7_cif.got.tgz:13665.got - 2010.06.03 19:20:03.
