data_PCOD9548507
_publ_section_title
;
Structure prediction by ZEFSAII (Michael W. Deem and Ramdas Pophale) SiO2 
 PCOD9548507
Probable space group: P 41 2 2
;
_chemical_formula_sum "Si O2"
_cell_formula_units_Z 44
_cell_length_a 8.540549
_cell_length_b 8.540549
_cell_length_c 26.467536
_cell_angle_alpha 90.000000
_cell_angle_beta 90.000000
_cell_angle_gamma 90.000000
_cell_volume 1930.567940
_symmetry_space_group_name_H-M "P 41 2 2"
_symmetry_group_IT_number 91
_symmetry_cell_setting 'tetragonal'
loop_
_space_group_symop_operation_xyz
x,y,z
-y,x,1/4+z
-x,-y,1/2+z
y,-x,3/4+z
x,-y,1/2-z
-x,y,-z
y,x,3/4-z
-y,-x,1/4-z
loop_
_atom_site_type_symbol
_atom_site_label
_atom_site_fract_x
_atom_site_fract_y
_atom_site_fract_z
Si Si1 0.997663 0.258207 0.709714
Si Si2 0.468944 0.666932 0.676453
Si Si3 0.765559 0.500000 0.250000
Si Si4 0.358208 0.996848 0.850813
Si Si5 0.000000 0.170478 0.000000
Si Si6 0.014834 0.985167 0.625000
Si Si7 0.545222 0.253677 0.585535
O O1 0.125656 0.398839 0.711965
O O2 0.054523 0.148086 0.755809
O O3 0.833471 0.346947 0.705528
O O4 0.993430 0.128244 0.664668
O O5 0.413757 0.586243 0.625000
O O6 0.346017 0.618151 0.719491
O O7 0.455951 0.848354 0.662778
O O8 0.635893 0.589368 0.687392
O O9 0.281694 0.956121 0.796535
O O10 0.202382 0.009352 0.885404
O O11 0.465985 0.875180 0.878764
O O12 0.649530 0.350471 0.625000
#
# Coordination Sequence:
#
# PCOD9548507 Si02
#       7
#     8   8   4   8   4   4   8
#     4  11  24  47  72 111 150 201 261 315 391 465
#     4  11  25  45  71 109 148 199 258 312 399 458
#     4  12  26  48  76 110 158 206 262 332 390 488
#     4  11  23  45  72 108 145 208 252 313 387 478
#     4  10  24  42  76 104 146 194 264 316 364 480
#     4  10  24  42  76 102 146 200 256 310 370 484
#     4  11  27  43  75 110 153 201 252 330 392 463
#
# _framework density 22.791222000000001
#
# number of rings (size 3 to 8) (size 9 to 14) (size 15 to 20)
#    0.000    1.091    3.636    1.091   15.273    0.727 
#    0.000    2.727    0.000    0.000    0.000    0.000 
#    0.000    0.000    0.000    0.000    0.000    0.000 
#
# Total GULP energy -245306.977290 kJ/mol
# GULP energy per Si atom -5575.158575 kJ/mol
# Density = 2.273935 g / cm^3
# Si number density = 22.791222 Si / 1000 Ang^3
#
#
#
# Elastic Constant Matrix: (Units=GPa)
#
#
# Indices 1 2 3 4 5 6 
#
# 1 141.4500 74.7145 20.0208 0.0000 0.0000 0.0000
# 2 74.7145 141.4527 20.0216 0.0000 0.0000 0.0000
# 3 20.0208 20.0216 75.0038 0.0000 0.0000 0.0000
# 4 0.0000 0.0000 0.0000 28.2878 0.0000 0.0000
# 5 0.0000 0.0000 0.0000 0.0000 28.2873 0.0000
# 6 0.0000 0.0000 0.0000 0.0000 0.0000 51.6260
#
#
#
# Elastic Compliance Matrix: (Units=1/GPa)
#
#
# Indices 1 2 3 4 5 6 
#
# 1 0.009926 -0.005059 -0.001299 0.000000 0.000000 0.000000
# 2 -0.005059 0.009925 -0.001299 0.000000 0.000000 0.000000
# 3 -0.001299 -0.001299 0.014026 0.000000 0.000000 0.000000
# 4 0.000000 0.000000 0.000000 0.035351 0.000000 0.000000
# 5 0.000000 0.000000 0.000000 0.000000 0.035352 0.000000
# 6 0.000000 0.000000 0.000000 0.000000 0.000000 0.019370
#
#
# Mechanical properties :
#
#
# Convention : Reuss Voigt Hill
#
# Bulk Modulus (GPa) = 53.86990 65.26893 59.56941
# Shear Modulus (GPa) = 34.37574 37.85019 36.11296
#
# Velocity S-wave (km/s) = 3.88788 4.07963 3.98491
# Velocity P-wave (km/s) = 6.62131 7.13380 6.88233
#
# Compressibility (1/GPa) = 0.01856324
#
# Stress axis : x y z
#
# Youngs Moduli (GPa) = 100.74997 100.75163 71.29510
#
# Poissons Ratio (x) = 0.50968 0.09262
# Poissons Ratio (y) = 0.50967 0.09262
# Poissons Ratio (z) = 0.13088 0.13089
#
# Static dielectric constant tensor:
#      x y z
#    x 1.880850 0.000000 0.000000 
#    y 0.000000 1.880850 0.000000 
#    z 0.000000 0.000000 1.908010 
# 
# From -- ./inp_files/18136.got.cif
#   From: 2010.05.17/outbox.cif.g08.bks.cpg/sg91_10_cif.got.tgz:18136.got - 2010.06.03 19:20:03.
