data_PCOD9548722
_publ_section_title
;
Structure prediction by ZEFSAII (Michael W. Deem and Ramdas Pophale) SiO2 
 PCOD9548722
Probable space group: P 41 2 2
;
_chemical_formula_sum "Si O2"
_cell_formula_units_Z 24
_cell_length_a 8.320705
_cell_length_b 8.320705
_cell_length_c 14.680295
_cell_angle_alpha 90.000000
_cell_angle_beta 90.000000
_cell_angle_gamma 90.000000
_cell_volume 1016.377477
_symmetry_space_group_name_H-M "P 41 2 2"
_symmetry_group_IT_number 91
_symmetry_cell_setting 'tetragonal'
loop_
_space_group_symop_operation_xyz
x,y,z
-y,x,1/4+z
-x,-y,1/2+z
y,-x,3/4+z
x,-y,1/2-z
-x,y,-z
y,x,3/4-z
-y,-x,1/4-z
loop_
_atom_site_type_symbol
_atom_site_label
_atom_site_fract_x
_atom_site_fract_y
_atom_site_fract_z
Si Si1 0.811814 0.111028 0.528968
Si Si2 0.223657 0.311402 0.642138
Si Si3 0.169029 0.650840 0.551581
O O1 0.795863 0.204138 0.625000
O O2 0.731560 0.197173 0.442954
O O3 0.000000 0.107420 0.500000
O O4 0.754711 0.934043 0.555219
O O5 0.178142 0.484253 0.604700
O O6 0.354196 0.300735 0.721138
O O7 0.211800 0.788201 0.625000
O O8 0.000000 0.672188 0.500000
#
# Coordination Sequence:
#
# PCOD9548722 Si02
#       3
#     8   8   8
#     4   9  18  38  71 105 134 173 228 277 323 388
#     4  11  23  43  69 101 138 179 225 279 338 400
#     4  12  26  47  72 100 138 180 226 280 338 402
#
# _framework density 23.613275999999999
#
# number of rings (size 3 to 8) (size 9 to 14) (size 15 to 20)
#    0.000    1.333    0.000    7.000    0.000    2.667 
#    0.000   21.667    0.000    0.000    0.000    0.000 
#    0.000    0.000    0.000    0.000    0.000    0.000 
#
# Total GULP energy -134280.523790 kJ/mol
# GULP energy per Si atom -5595.021825 kJ/mol
# Density = 2.355953 g / cm^3
# Si number density = 23.613276 Si / 1000 Ang^3
#
#
#
# Elastic Constant Matrix: (Units=GPa)
#
#
# Indices 1 2 3 4 5 6 
#
# 1 48.3563 29.1404 65.3924 0.0000 0.0000 0.0000
# 2 29.1404 48.3548 65.3918 0.0000 0.0000 0.0000
# 3 65.3924 65.3918 226.2099 0.0000 0.0000 0.0000
# 4 0.0000 0.0000 0.0000 42.8181 0.0000 0.0000
# 5 0.0000 0.0000 0.0000 0.0000 42.8182 0.0000
# 6 0.0000 0.0000 0.0000 0.0000 0.0000 5.3830
#
#
#
# Elastic Compliance Matrix: (Units=1/GPa)
#
#
# Indices 1 2 3 4 5 6 
#
# 1 0.038618 -0.013423 -0.007283 0.000000 0.000000 0.000000
# 2 -0.013423 0.038620 -0.007284 0.000000 0.000000 0.000000
# 3 -0.007283 -0.007284 0.008632 0.000000 0.000000 0.000000
# 4 0.000000 0.000000 0.000000 0.023355 0.000000 0.000000
# 5 0.000000 0.000000 0.000000 0.000000 0.023355 0.000000
# 6 0.000000 0.000000 0.000000 0.000000 0.000000 0.185768
#
#
# Mechanical properties :
#
#
# Convention : Reuss Voigt Hill
#
# Bulk Modulus (GPa) = 33.45700 71.41889 52.43794
# Shear Modulus (GPa) = 13.01098 29.07029 21.04064
#
# Velocity S-wave (km/s) = 2.34989 3.51251 2.98829
# Velocity P-wave (km/s) = 4.64350 6.83821 5.84480
#
# Compressibility (1/GPa) = 0.02988911
#
# Stress axis : x y z
#
# Youngs Moduli (GPa) = 25.89448 25.89352 115.85249
#
# Poissons Ratio (x) = 0.34757 0.84380
# Poissons Ratio (y) = 0.34759 0.84383
# Poissons Ratio (z) = 0.18860 0.18860
#
# Static dielectric constant tensor:
#      x y z
#    x 1.930070 0.000000 0.000000 
#    y 0.000000 1.930060 0.000000 
#    z 0.000000 0.000000 1.911040 
# 
# From -- ./inp_files/4201.got.cif
#   From: 2010.05.17/outbox.cif.g08.bks.cpg/sg91_3_cif.got.tgz:4201.got - 2010.06.03 19:20:03.
