data_PCOD9548601
_publ_section_title
;
Structure prediction by ZEFSAII (Michael W. Deem and Ramdas Pophale) SiO2 
 PCOD9548601
Probable space group: P 41 2 2
;
_chemical_formula_sum "Si O2"
_cell_formula_units_Z 56
_cell_length_a 10.299347
_cell_length_b 10.299347
_cell_length_c 22.038534
_cell_angle_alpha 90.000000
_cell_angle_beta 90.000000
_cell_angle_gamma 90.000000
_cell_volume 2337.771624
_symmetry_space_group_name_H-M "P 41 2 2"
_symmetry_group_IT_number 91
_symmetry_cell_setting 'tetragonal'
loop_
_space_group_symop_operation_xyz
x,y,z
-y,x,1/4+z
-x,-y,1/2+z
y,-x,3/4+z
x,-y,1/2-z
-x,y,-z
y,x,3/4-z
-y,-x,1/4-z
loop_
_atom_site_type_symbol
_atom_site_label
_atom_site_fract_x
_atom_site_fract_y
_atom_site_fract_z
Si Si1 0.910411 0.106035 0.352672
Si Si2 0.977136 0.527193 0.341415
Si Si3 0.764847 0.349397 0.856320
Si Si4 0.288723 0.308057 0.275102
Si Si5 0.334333 0.033713 0.318341
Si Si6 0.534803 0.451335 0.314864
Si Si7 0.290531 0.975009 0.491406
O O1 0.764409 0.139208 0.371127
O O2 0.991150 0.215058 0.390085
O O3 0.930575 0.151390 0.283033
O O4 0.970947 0.970947 0.375000
O O5 0.134166 0.540368 0.334409
O O6 0.969117 0.469112 0.408905
O O7 0.932786 0.658568 0.307885
O O8 0.924976 0.406777 0.301946
O O9 0.682607 0.301933 0.797773
O O10 0.676653 0.392311 0.911961
O O11 0.336386 0.188033 0.315333
O O12 0.381417 0.419557 0.302784
O O13 0.131623 0.297326 0.269931
O O14 0.303167 0.000000 0.250000
O O15 0.585113 0.500000 0.250000
O O16 0.541339 0.541339 0.375000
#
# Coordination Sequence:
#
# PCOD9548601 Si02
#       7
#     8   8   8   8   8   8   8
#     4  11  22  36  57  88 121 159 212 273 329 371
#     4   9  19  34  55  80 116 150 193 243 316 388
#     4  11  22  38  56  87 125 169 208 263 319 399
#     4  11  20  34  58  91 121 149 204 263 341 379
#     4  11  20  34  57  85 115 150 195 267 321 383
#     4  12  24  38  62  94 139 177 210 261 333 422
#     4   9  19  34  56  87 117 151 191 263 329 380
#
# _framework density 23.954433999999999
#
# number of rings (size 3 to 8) (size 9 to 14) (size 15 to 20)
#    0.000    1.429    5.714    0.857    4.000    0.000 
#    5.143    0.000    0.000    4.286    0.000    4.000 
#    0.000    1.143    0.000    0.000    0.000    0.000 
#
# Total GULP energy -311924.168811 kJ/mol
# GULP energy per Si atom -5570.074443 kJ/mol
# Density = 2.389991 g / cm^3
# Si number density = 23.954434 Si / 1000 Ang^3
#
#
#
# Elastic Constant Matrix: (Units=GPa)
#
#
# Indices 1 2 3 4 5 6 
#
# 1 47.5150 10.7582 4.2765 0.0000 0.0000 0.0000
# 2 10.7582 47.5150 4.2765 0.0000 0.0000 0.0000
# 3 4.2765 4.2765 84.1832 0.0000 0.0000 0.0000
# 4 0.0000 0.0000 0.0000 20.4647 0.0000 0.0000
# 5 0.0000 0.0000 0.0000 0.0000 20.4647 0.0000
# 6 0.0000 0.0000 0.0000 0.0000 0.0000 20.5508
#
#
#
# Elastic Compliance Matrix: (Units=1/GPa)
#
#
# Indices 1 2 3 4 5 6 
#
# 1 0.022248 -0.004958 -0.000878 0.000000 0.000000 0.000000
# 2 -0.004958 0.022248 -0.000878 0.000000 0.000000 0.000000
# 3 -0.000878 -0.000878 0.011968 0.000000 0.000000 0.000000
# 4 0.000000 0.000000 0.000000 0.048865 0.000000 0.000000
# 5 0.000000 0.000000 0.000000 0.000000 0.048865 0.000000
# 6 0.000000 0.000000 0.000000 0.000000 0.000000 0.048660
#
#
# Mechanical properties :
#
#
# Convention : Reuss Voigt Hill
#
# Bulk Modulus (GPa) = 23.23756 24.20396 23.72076
# Shear Modulus (GPa) = 21.68003 22.95616 22.31810
#
# Velocity S-wave (km/s) = 3.01167 3.09904 3.05567
# Velocity P-wave (km/s) = 4.67069 4.78869 4.73006
#
# Compressibility (1/GPa) = 0.04303378
#
# Stress axis : x y z
#
# Youngs Moduli (GPa) = 44.94857 44.94857 83.55549
#
# Poissons Ratio (x) = 0.22286 0.07339
# Poissons Ratio (y) = 0.22286 0.07339
# Poissons Ratio (z) = 0.03948 0.03948
#
# Static dielectric constant tensor:
#      x y z
#    x 1.992310 0.000000 0.000000 
#    y 0.000000 1.992310 0.000000 
#    z 0.000000 0.000000 1.979860 
# 
# From -- ./inp_files/21834.got.cif
#   From: 2010.05.17/outbox.cif.g08.bks.cpg/sg91_11_cif.got.tgz:21834.got - 2010.06.03 19:20:03.
