data_PCOD9548477
_publ_section_title
;
Structure prediction by ZEFSAII (Michael W. Deem and Ramdas Pophale) SiO2 
 PCOD9548477
Probable space group: P 41 2 2
;
_chemical_formula_sum "Si O2"
_cell_formula_units_Z 56
_cell_length_a 10.736984
_cell_length_b 10.736984
_cell_length_c 21.311628
_cell_angle_alpha 90.000000
_cell_angle_beta 90.000000
_cell_angle_gamma 90.000000
_cell_volume 2456.864690
_symmetry_space_group_name_H-M "P 41 2 2"
_symmetry_group_IT_number 91
_symmetry_cell_setting 'tetragonal'
loop_
_space_group_symop_operation_xyz
x,y,z
-y,x,1/4+z
-x,-y,1/2+z
y,-x,3/4+z
x,-y,1/2-z
-x,y,-z
y,x,3/4-z
-y,-x,1/4-z
loop_
_atom_site_type_symbol
_atom_site_label
_atom_site_fract_x
_atom_site_fract_y
_atom_site_fract_z
Si Si1 0.000000 0.761277 0.500000
Si Si2 0.533967 0.533967 0.875000
Si Si3 0.003322 0.856960 0.925408
Si Si4 0.798518 0.519971 0.677066
Si Si5 0.066165 0.730162 0.365040
Si Si6 0.046251 0.391417 0.630845
Si Si7 0.719251 0.442972 0.166823
Si Si8 0.871327 0.726086 0.257772
O O1 0.974062 0.692890 0.565352
O O2 0.869900 0.833461 0.489788
O O3 0.530182 0.662968 0.911740
O O4 0.521647 0.408823 0.917097
O O5 0.122811 0.919970 0.892547
O O6 0.029980 0.709020 0.923857
O O7 0.893682 0.893682 0.875000
O O8 0.000000 0.894449 0.000000
O O9 0.824349 0.500000 0.750000
O O10 0.807095 0.663928 0.656137
O O11 0.914549 0.460120 0.640025
O O12 0.964611 0.695278 0.313763
O O13 0.168363 0.480142 0.633709
O O14 0.065451 0.306353 0.692729
O O15 0.676812 0.323189 0.125000
O O16 0.762310 0.374192 0.230416
#
# Coordination Sequence:
#
# PCOD9548477 Si02
#       8
#     4   4   8   8   8   8   8   8
#     4  12  26  40  74 120 154 184 254 330 384 460
#     4  10  28  46  72 114 146 196 262 324 386 458
#     4  12  28  47  77 114 159 200 253 318 399 472
#     4  12  26  50  76 104 149 204 259 317 397 475
#     4  12  25  46  72 109 151 197 251 313 384 459
#     4  12  24  48  75 105 146 209 252 310 384 476
#     4  10  23  47  73 106 147 196 258 316 385 459
#     4  12  23  45  75 107 151 198 250 305 392 462
#
# _framework density 22.793277
#
# number of rings (size 3 to 8) (size 9 to 14) (size 15 to 20)
#    0.429    0.000    4.286    4.286    3.000    1.143 
#    1.286    0.000    0.000    0.000    0.000    0.000 
#    0.000    0.000    0.000    0.000    0.000    0.000 
#
# Total GULP energy -312624.959291 kJ/mol
# GULP energy per Si atom -5582.588559 kJ/mol
# Density = 2.274140 g / cm^3
# Si number density = 22.793277 Si / 1000 Ang^3
#
#
#
# Elastic Constant Matrix: (Units=GPa)
#
#
# Indices 1 2 3 4 5 6 
#
# 1 121.7200 45.0583 23.7331 0.0000 0.0000 0.0000
# 2 45.0583 121.7203 23.7331 0.0000 0.0000 0.0000
# 3 23.7331 23.7331 128.7299 0.0000 0.0000 0.0000
# 4 0.0000 0.0000 0.0000 26.8200 0.0000 0.0000
# 5 0.0000 0.0000 0.0000 0.0000 26.8200 0.0000
# 6 0.0000 0.0000 0.0000 0.0000 0.0000 23.8258
#
#
#
# Elastic Compliance Matrix: (Units=1/GPa)
#
#
# Indices 1 2 3 4 5 6 
#
# 1 0.009686 -0.003358 -0.001167 0.000000 0.000000 0.000000
# 2 -0.003358 0.009686 -0.001167 0.000000 0.000000 0.000000
# 3 -0.001167 -0.001167 0.008198 0.000000 0.000000 0.000000
# 4 0.000000 0.000000 0.000000 0.037286 0.000000 0.000000
# 5 0.000000 0.000000 0.000000 0.000000 0.037286 0.000000
# 6 0.000000 0.000000 0.000000 0.000000 0.000000 0.041971
#
#
# Mechanical properties :
#
#
# Convention : Reuss Voigt Hill
#
# Bulk Modulus (GPa) = 61.77494 61.91323 61.84409
# Shear Modulus (GPa) = 31.07673 34.13620 32.60647
#
# Velocity S-wave (km/s) = 3.69645 3.87414 3.78634
# Velocity P-wave (km/s) = 6.73643 6.87269 6.80490
#
# Compressibility (1/GPa) = 0.01618779
#
# Stress axis : x y z
#
# Youngs Moduli (GPa) = 103.24001 103.24026 121.97534
#
# Poissons Ratio (x) = 0.34670 0.14230
# Poissons Ratio (y) = 0.34669 0.14230
# Poissons Ratio (z) = 0.12045 0.12045
#
# Static dielectric constant tensor:
#      x y z
#    x 1.929670 0.000000 0.000000 
#    y 0.000000 1.929670 0.000000 
#    z 0.000000 0.000000 1.895520 
# 
# From -- ./inp_files/17336.got.cif
#   From: 2010.05.17/outbox.cif.g08.bks.cpg/sg91_9_cif.got.tgz:17336.got - 2010.06.03 19:20:03.
