data_PCOD9548258
_publ_section_title
;
Structure prediction by ZEFSAII (Michael W. Deem and Ramdas Pophale) SiO2 
 PCOD9548258
Probable space group: P 41 2 2
;
_chemical_formula_sum "Si O2"
_cell_formula_units_Z 64
_cell_length_a 17.352362
_cell_length_b 17.352362
_cell_length_c 11.617523
_cell_angle_alpha 90.000000
_cell_angle_beta 90.000000
_cell_angle_gamma 90.000000
_cell_volume 3498.088071
_symmetry_space_group_name_H-M "P 41 2 2"
_symmetry_group_IT_number 91
_symmetry_cell_setting 'tetragonal'
loop_
_space_group_symop_operation_xyz
x,y,z
-y,x,1/4+z
-x,-y,1/2+z
y,-x,3/4+z
x,-y,1/2-z
-x,y,-z
y,x,3/4-z
-y,-x,1/4-z
loop_
_atom_site_type_symbol
_atom_site_label
_atom_site_fract_x
_atom_site_fract_y
_atom_site_fract_z
Si Si1 0.760083 0.860291 0.535094
Si Si2 0.920464 0.206413 0.940169
Si Si3 0.562370 0.204838 0.360257
Si Si4 0.425828 0.026890 0.569833
Si Si5 0.646196 0.126689 0.175024
Si Si6 0.733759 0.605272 0.851357
Si Si7 0.960802 0.737172 0.801912
Si Si8 0.727651 0.828519 0.787280
O O1 0.848242 0.839609 0.511426
O O2 0.698540 0.847506 0.433510
O O3 0.741342 0.816667 0.653464
O O4 0.756610 0.950430 0.560878
O O5 0.927072 0.210090 0.802094
O O6 0.904507 0.293712 0.980136
O O7 0.000000 0.182196 0.000000
O O8 0.550322 0.112230 0.382562
O O9 0.601971 0.197483 0.235393
O O10 0.612119 0.238931 0.467339
O O11 0.485152 0.256773 0.367645
O O12 0.500000 0.000831 0.500000
O O13 0.350948 0.043153 0.491776
O O14 0.402305 0.949942 0.641882
O O15 0.654525 0.654525 0.875000
O O16 0.799360 0.643446 0.930176
O O17 0.914523 0.742757 0.919416
O O18 0.779008 0.779008 0.875000
#
# Coordination Sequence:
#
# PCOD9548258 Si02
#       8
#     8   8   8   8   8   8   8   8
#     4  11  25  35  60  89 116 165 218 270 318 373
#     4  12  20  40  60  81 120 162 219 259 311 370
#     4  11  19  39  63  90 129 160 199 253 312 367
#     4  11  19  34  57  90 122 159 198 243 311 385
#     4  11  23  36  59  92 122 160 207 257 323 375
#     4  10  22  37  62  96 121 160 209 240 299 379
#     4  11  21  38  59  84 114 162 207 258 327 369
#     4  11  20  38  59  81 123 159 204 263 317 376
#
# _framework density 18.295708999999999
#
# number of rings (size 3 to 8) (size 9 to 14) (size 15 to 20)
#    0.000    1.000    7.500    1.125    1.750    2.000 
#    0.000    3.750    2.750    0.000    0.000    7.000 
#    0.000    0.000    0.000    0.000    0.000    0.000 
#
# Total GULP energy -356438.055354 kJ/mol
# GULP energy per Si atom -5569.344615 kJ/mol
# Density = 1.825407 g / cm^3
# Si number density = 18.295709 Si / 1000 Ang^3
#
#
#
# Elastic Constant Matrix: (Units=GPa)
#
#
# Indices 1 2 3 4 5 6 
#
# 1 73.2447 38.4443 28.7711 0.0000 0.0000 0.0000
# 2 38.4443 73.2447 28.7711 0.0000 0.0000 0.0000
# 3 28.7711 28.7711 107.7624 0.0000 0.0000 0.0000
# 4 0.0000 0.0000 0.0000 21.5535 0.0000 0.0000
# 5 0.0000 0.0000 0.0000 0.0000 21.5535 0.0000
# 6 0.0000 0.0000 0.0000 0.0000 0.0000 28.5591
#
#
#
# Elastic Compliance Matrix: (Units=1/GPa)
#
#
# Indices 1 2 3 4 5 6 
#
# 1 0.019558 -0.009177 -0.002772 0.000000 0.000000 0.000000
# 2 -0.009177 0.019558 -0.002772 0.000000 0.000000 0.000000
# 3 -0.002772 -0.002772 0.010760 0.000000 0.000000 0.000000
# 4 0.000000 0.000000 0.000000 0.046396 0.000000 0.000000
# 5 0.000000 0.000000 0.000000 0.000000 0.046396 0.000000
# 6 0.000000 0.000000 0.000000 0.000000 0.000000 0.035015
#
#
# Mechanical properties :
#
#
# Convention : Reuss Voigt Hill
#
# Bulk Modulus (GPa) = 48.93389 49.58051 49.25720
# Shear Modulus (GPa) = 23.37141 24.88424 24.12783
#
# Velocity S-wave (km/s) = 3.57799 3.69197 3.63543
# Velocity P-wave (km/s) = 6.62371 6.73295 6.67855
#
# Compressibility (1/GPa) = 0.02043573
#
# Stress axis : x y z
#
# Youngs Moduli (GPa) = 51.12897 51.12897 92.93957
#
# Poissons Ratio (x) = 0.46921 0.25760
# Poissons Ratio (y) = 0.46921 0.25760
# Poissons Ratio (z) = 0.14171 0.14171
#
# Static dielectric constant tensor:
#      x y z
#    x 1.666440 0.000000 0.000000 
#    y 0.000000 1.666440 0.000000 
#    z 0.000000 0.000000 1.700690 
# 
# From -- ./inp_files/10951.got.cif
#   From: 2010.05.17/outbox.cif.g08.bks.cpg/sg91_6_cif.got.tgz:10951.got - 2010.06.03 19:20:03.
