data_PCOD9548556
_publ_section_title
;
Structure prediction by ZEFSAII (Michael W. Deem and Ramdas Pophale) SiO2 
 PCOD9548556
Probable space group: P 41 2 2
;
_chemical_formula_sum "Si O2"
_cell_formula_units_Z 36
_cell_length_a 8.076577
_cell_length_b 8.076577
_cell_length_c 21.652053
_cell_angle_alpha 90.000000
_cell_angle_beta 90.000000
_cell_angle_gamma 90.000000
_cell_volume 1412.387149
_symmetry_space_group_name_H-M "P 41 2 2"
_symmetry_group_IT_number 91
_symmetry_cell_setting 'tetragonal'
loop_
_space_group_symop_operation_xyz
x,y,z
-y,x,1/4+z
-x,-y,1/2+z
y,-x,3/4+z
x,-y,1/2-z
-x,y,-z
y,x,3/4-z
-y,-x,1/4-z
loop_
_atom_site_type_symbol
_atom_site_label
_atom_site_fract_x
_atom_site_fract_y
_atom_site_fract_z
Si Si1 0.428811 0.428811 0.375000
Si Si2 0.956244 0.623707 0.895130
Si Si3 0.069815 0.957760 0.939345
Si Si4 0.689493 0.104710 0.988875
Si Si5 0.408984 0.264546 0.815080
O O1 0.475152 0.569167 0.322760
O O2 0.232074 0.441223 0.391255
O O3 0.030673 0.692967 0.829823
O O4 0.095087 0.504597 0.922852
O O5 0.969681 0.788917 0.935975
O O6 0.044937 0.044937 0.875000
O O7 0.258109 0.964466 0.960769
O O8 0.000000 0.051989 0.000000
O O9 0.500000 0.135675 0.000000
O O10 0.753234 0.288996 0.006432
O O11 0.293649 0.293649 0.875000
#
# Coordination Sequence:
#
# PCOD9548556 Si02
#       5
#     4   8   8   8   8
#     4  10  24  52  80 114 168 216 284 342 428 522
#     4  12  25  53  82 117 167 226 279 354 433 512
#     4  12  26  51  79 120 163 217 295 348 434 527
#     4  12  25  49  75 116 162 216 278 344 439 501
#     4  10  25  48  77 117 161 214 282 343 425 515
#
# _framework density 25.488762999999999
#
# number of rings (size 3 to 8) (size 9 to 14) (size 15 to 20)
#    0.667    0.000    5.556    0.667    3.111    0.000 
#   20.000    0.000    0.000    0.000    0.000    0.000 
#    0.000    0.000    0.000    0.000    0.000    0.000 
#
# Total GULP energy -200757.345500 kJ/mol
# GULP energy per Si atom -5576.592931 kJ/mol
# Density = 2.543075 g / cm^3
# Si number density = 25.488763 Si / 1000 Ang^3
#
#
#
# Elastic Constant Matrix: (Units=GPa)
#
#
# Indices 1 2 3 4 5 6 
#
# 1 133.3558 137.2690 40.3064 0.0000 0.0000 0.0000
# 2 137.2690 133.3558 40.3064 0.0000 0.0000 0.0000
# 3 40.3064 40.3064 139.8977 0.0000 0.0000 0.0000
# 4 0.0000 0.0000 0.0000 47.8172 0.0000 0.0000
# 5 0.0000 0.0000 0.0000 0.0000 47.8172 0.0000
# 6 0.0000 0.0000 0.0000 0.0000 0.0000 69.8313
#
#
#
# Elastic Compliance Matrix: (Units=1/GPa)
#
#
# Indices 1 2 3 4 5 6 
#
# 1 -0.125752 0.129794 -0.001165 0.000000 0.000000 0.000000
# 2 0.129794 -0.125752 -0.001165 0.000000 0.000000 0.000000
# 3 -0.001165 -0.001165 0.007819 0.000000 0.000000 0.000000
# 4 0.000000 0.000000 0.000000 0.020913 0.000000 0.000000
# 5 0.000000 0.000000 0.000000 0.000000 0.020913 0.000000
# 6 0.000000 0.000000 0.000000 0.000000 0.000000 0.014320
#
#
# Mechanical properties :
#
#
# Convention : Reuss Voigt Hill
#
# Bulk Modulus (GPa) = 88.92871 93.59698 91.26284
# Shear Modulus (GPa) = -11.39679 45.67497 17.13909
#
# Velocity S-wave (km/s) = -2.11684 4.23775 2.59591
# Velocity P-wave (km/s) = 5.38428 7.79393 6.69835
#
# Compressibility (1/GPa) = 0.01124496
#
# Stress axis : x y z
#
# Youngs Moduli (GPa) = -7.95216 -7.95216 127.89139
#
# Poissons Ratio (x) = 1.03214 0.14894
# Poissons Ratio (y) = 1.03214 0.14894
# Poissons Ratio (z) = -0.00926 -0.00926
#
# Static dielectric constant tensor:
#      x y z
#    x 1.797730 0.000000 0.000000 
#    y 0.000000 1.797730 0.000000 
#    z 0.000000 0.000000 2.079400 
# 
# From -- ./inp_files/17207.got.cif
#   From: 2010.05.17/outbox.cif.g08.bks.cpg/sg91_9_cif.got.tgz:17207.got - 2010.06.03 19:20:03.
