data_PCOD9548169
_publ_section_title
;
Structure prediction by ZEFSAII (Michael W. Deem and Ramdas Pophale) SiO2 
 PCOD9548169
Probable space group: P 41 2 2
;
_chemical_formula_sum "Si O2"
_cell_formula_units_Z 16
_cell_length_a 9.348389
_cell_length_b 9.348389
_cell_length_c 6.004708
_cell_angle_alpha 90.000000
_cell_angle_beta 90.000000
_cell_angle_gamma 90.000000
_cell_volume 524.765705
_symmetry_space_group_name_H-M "P 41 2 2"
_symmetry_group_IT_number 91
_symmetry_cell_setting 'tetragonal'
loop_
_space_group_symop_operation_xyz
x,y,z
-y,x,1/4+z
-x,-y,1/2+z
y,-x,3/4+z
x,-y,1/2-z
-x,y,-z
y,x,3/4-z
-y,-x,1/4-z
loop_
_atom_site_type_symbol
_atom_site_label
_atom_site_fract_x
_atom_site_fract_y
_atom_site_fract_z
Si Si1 0.783934 0.500000 0.250000
Si Si2 0.322931 0.322931 0.375000
Si Si3 0.756266 0.986842 0.006300
O O1 0.690093 0.456310 0.461744
O O2 0.890611 0.635097 0.268326
O O3 0.317078 0.169273 0.500457
O O4 0.828571 0.000000 0.250000
O O5 0.816242 0.000000 0.750000
#
# Coordination Sequence:
#
# PCOD9548169 Si02
#       3
#     4   4   8
#     4  10  22  42  74 122 168 220 278 344 424 504
#     4  10  22  42  78 124 168 224 290 352 436 522
#     4  10  21  40  69 113 157 209 274 335 410 490
#
# _framework density 30.489798
#
# number of rings (size 3 to 8) (size 9 to 14) (size 15 to 20)
#    0.000    2.000    0.000    4.500    0.000    8.000 
#    0.000    0.000    0.000   81.000    0.000  357.000 
#    0.000    0.000    0.000    0.000    0.000    0.000 
#
# Total GULP energy -89699.532435 kJ/mol
# GULP energy per Si atom -5606.220777 kJ/mol
# Density = 3.042040 g / cm^3
# Si number density = 30.489798 Si / 1000 Ang^3
#
#
#
# Elastic Constant Matrix: (Units=GPa)
#
#
# Indices 1 2 3 4 5 6 
#
# 1 143.8013 54.2166 131.1421 0.0000 0.0000 0.0000
# 2 54.2166 143.8013 131.1421 0.0000 0.0000 0.0000
# 3 131.1421 131.1421 386.4330 0.0000 0.0000 0.0000
# 4 0.0000 0.0000 0.0000 93.8488 0.0000 0.0000
# 5 0.0000 0.0000 0.0000 0.0000 93.8488 0.0000
# 6 0.0000 0.0000 0.0000 0.0000 0.0000 62.1426
#
#
#
# Elastic Compliance Matrix: (Units=1/GPa)
#
#
# Indices 1 2 3 4 5 6 
#
# 1 0.010168 -0.000994 -0.003113 0.000000 0.000000 0.000000
# 2 -0.000994 0.010168 -0.003113 0.000000 0.000000 0.000000
# 3 -0.003113 -0.003113 0.004701 0.000000 0.000000 0.000000
# 4 0.000000 0.000000 0.000000 0.010655 0.000000 0.000000
# 5 0.000000 0.000000 0.000000 0.000000 0.010655 0.000000
# 6 0.000000 0.000000 0.000000 0.000000 0.000000 0.016092
#
#
# Mechanical properties :
#
#
# Convention : Reuss Voigt Hill
#
# Bulk Modulus (GPa) = 94.38198 145.22637 119.80417
# Shear Modulus (GPa) = 62.17851 73.80368 67.99110
#
# Velocity S-wave (km/s) = 4.52078 4.92530 4.72737
# Velocity P-wave (km/s) = 7.63364 8.94870 8.31720
#
# Compressibility (1/GPa) = 0.01059524
#
# Stress axis : x y z
#
# Youngs Moduli (GPa) = 98.34635 98.34635 212.72894
#
# Poissons Ratio (x) = 0.09780 0.66227
# Poissons Ratio (y) = 0.09780 0.66227
# Poissons Ratio (z) = 0.30617 0.30617
#
# Static dielectric constant tensor:
#      x y z
#    x 2.347940 0.000000 0.000000 
#    y 0.000000 2.347940 0.000000 
#    z 0.000000 0.000000 2.439720 
# 
# From -- ./inp_files/191.got.cif
#   From: 2010.05.17/outbox.cif.g08.bks.cpg/sg91_1_cif.got.tgz:191.got - 2010.06.03 19:20:03.
