data_PCOD9548326
_publ_section_title
;
Structure prediction by ZEFSAII (Michael W. Deem and Ramdas Pophale) SiO2 
 PCOD9548326
Probable space group: P 41 2 2
;
_chemical_formula_sum "Si O2"
_cell_formula_units_Z 28
_cell_length_a 8.675056
_cell_length_b 8.675056
_cell_length_c 20.869078
_cell_angle_alpha 90.000000
_cell_angle_beta 90.000000
_cell_angle_gamma 90.000000
_cell_volume 1570.535785
_symmetry_space_group_name_H-M "P 41 2 2"
_symmetry_group_IT_number 91
_symmetry_cell_setting 'tetragonal'
loop_
_space_group_symop_operation_xyz
x,y,z
-y,x,1/4+z
-x,-y,1/2+z
y,-x,3/4+z
x,-y,1/2-z
-x,y,-z
y,x,3/4-z
-y,-x,1/4-z
loop_
_atom_site_type_symbol
_atom_site_label
_atom_site_fract_x
_atom_site_fract_y
_atom_site_fract_z
Si Si1 0.213508 0.210527 0.947311
Si Si2 0.470048 0.000000 0.750000
Si Si3 0.659720 0.092100 0.624069
Si Si4 0.027595 0.500000 0.750000
Si Si5 0.002707 0.997294 0.125000
O O1 0.258841 0.258841 0.875000
O O2 0.085459 0.076959 0.934023
O O3 0.138886 0.355529 0.981670
O O4 0.356380 0.134036 0.981660
O O5 0.571138 0.049051 0.688873
O O6 0.738776 0.261225 0.625000
O O7 0.552146 0.068694 0.562380
O O8 0.813216 0.983560 0.620061
#
# Coordination Sequence:
#
# PCOD9548326 Si02
#       5
#     8   4   8   4   4
#     4  10  22  41  65  95 128 176 215 270 322 401
#     4  12  22  44  64  98 134 170 220 270 340 382
#     4  10  24  38  68  98 125 168 220 283 310 389
#     4  12  22  42  64 100 132 170 218 272 342 382
#     4   8  20  42  68 100 114 176 230 270 298 392
#
# _framework density 17.828312
#
# number of rings (size 3 to 8) (size 9 to 14) (size 15 to 20)
#    1.714    0.000    2.857    1.714    4.000    0.000 
#    0.000    2.857    0.000    0.000    0.000    0.000 
#    0.000    0.000    0.000    0.000    0.000    0.000 
#
# Total GULP energy -155920.733960 kJ/mol
# GULP energy per Si atom -5568.597641 kJ/mol
# Density = 1.778773 g / cm^3
# Si number density = 17.828312 Si / 1000 Ang^3
#
#
#
# Elastic Constant Matrix: (Units=GPa)
#
#
# Indices 1 2 3 4 5 6 
#
# 1 117.8551 61.9222 72.8632 0.0000 0.0000 0.0000
# 2 61.9222 117.8542 72.8633 0.0000 0.0000 0.0000
# 3 72.8632 72.8633 161.1440 0.0000 0.0000 0.0000
# 4 0.0000 0.0000 0.0000 36.3065 0.0000 0.0000
# 5 0.0000 0.0000 0.0000 0.0000 36.3065 0.0000
# 6 0.0000 0.0000 0.0000 0.0000 0.0000 29.8462
#
#
#
# Elastic Compliance Matrix: (Units=1/GPa)
#
#
# Indices 1 2 3 4 5 6 
#
# 1 0.013330 -0.004549 -0.003970 0.000000 0.000000 0.000000
# 2 -0.004549 0.013330 -0.003970 0.000000 0.000000 0.000000
# 3 -0.003970 -0.003970 0.009796 0.000000 0.000000 0.000000
# 4 0.000000 0.000000 0.000000 0.027543 0.000000 0.000000
# 5 0.000000 0.000000 0.000000 0.000000 0.027543 0.000000
# 6 0.000000 0.000000 0.000000 0.000000 0.000000 0.033505
#
#
# Mechanical properties :
#
#
# Convention : Reuss Voigt Hill
#
# Bulk Modulus (GPa) = 87.13591 90.23897 88.68744
# Shear Modulus (GPa) = 32.49878 33.10549 32.80213
#
# Velocity S-wave (km/s) = 4.27415 4.31386 4.29405
# Velocity P-wave (km/s) = 8.56381 8.69125 8.62777
#
# Compressibility (1/GPa) = 0.01147632
#
# Stress axis : x y z
#
# Youngs Moduli (GPa) = 75.02060 75.01978 102.08122
#
# Poissons Ratio (x) = 0.34126 0.40529
# Poissons Ratio (y) = 0.34126 0.40530
# Poissons Ratio (z) = 0.29786 0.29786
#
# Static dielectric constant tensor:
#      x y z
#    x 1.600360 0.000000 0.000000 
#    y 0.000000 1.600370 0.000000 
#    z 0.000000 0.000000 1.765580 
# 
# From -- ./inp_files/12132.got.cif
#   From: 2010.05.17/outbox.cif.g08.bks.cpg/sg91_7_cif.got.tgz:12132.got - 2010.06.03 19:20:03.
