data_PCOD9548240
_publ_section_title
;
Structure prediction by ZEFSAII (Michael W. Deem and Ramdas Pophale) SiO2 
 PCOD9548240
Probable space group: P 41 2 2
;
_chemical_formula_sum "Si O2"
_cell_formula_units_Z 32
_cell_length_a 12.495606
_cell_length_b 12.495606
_cell_length_c 8.812769
_cell_angle_alpha 90.000000
_cell_angle_beta 90.000000
_cell_angle_gamma 90.000000
_cell_volume 1376.027244
_symmetry_space_group_name_H-M "P 41 2 2"
_symmetry_group_IT_number 91
_symmetry_cell_setting 'tetragonal'
loop_
_space_group_symop_operation_xyz
x,y,z
-y,x,1/4+z
-x,-y,1/2+z
y,-x,3/4+z
x,-y,1/2-z
-x,y,-z
y,x,3/4-z
-y,-x,1/4-z
loop_
_atom_site_type_symbol
_atom_site_label
_atom_site_fract_x
_atom_site_fract_y
_atom_site_fract_z
Si Si1 0.846843 0.153158 0.625000
Si Si2 0.791602 0.032157 0.088512
Si Si3 0.360148 0.895317 0.321352
Si Si4 0.632809 0.500000 0.750000
Si Si5 0.325752 0.381229 0.713780
O O1 0.732040 0.136704 0.701347
O O2 0.934980 0.144977 0.757113
O O3 0.873808 0.126193 0.125000
O O4 0.744251 0.000000 0.250000
O O5 0.701110 0.066389 0.971901
O O6 0.408834 0.783300 0.374339
O O7 0.418066 0.000000 0.250000
O O8 0.568552 0.431449 0.625000
O O9 0.683647 0.406634 0.853914
O O10 0.370417 0.500000 0.750000
O O11 0.320460 0.320460 0.875000
#
# Coordination Sequence:
#
# PCOD9548240 Si02
#       5
#     4   8   8   4   8
#     4  10  22  34  56  86 122 168 222 292 324 406
#     4  11  21  33  55  85 122 164 226 287 346 395
#     4  10  24  42  59  92 136 184 232 271 348 435
#     4  12  20  42  68 116 144 158 226 308 382 430
#     4  12  24  42  74 104 142 177 226 304 372 435
#
# _framework density 23.255351999999998
#
# number of rings (size 3 to 8) (size 9 to 14) (size 15 to 20)
#    0.000    1.000    6.250    0.750    3.500    0.000 
#    0.000    1.250    2.750    0.000    0.000    0.000 
#    0.000    0.000    0.000    0.000    0.000    0.000 
#
# Total GULP energy -178566.787725 kJ/mol
# GULP energy per Si atom -5580.212116 kJ/mol
# Density = 2.320242 g / cm^3
# Si number density = 23.255352 Si / 1000 Ang^3
#
#
#
# Elastic Constant Matrix: (Units=GPa)
#
#
# Indices 1 2 3 4 5 6 
#
# 1 53.1657 3.3535 24.8069 0.0000 0.0000 0.0000
# 2 3.3535 53.1657 24.8068 0.0000 0.0000 0.0000
# 3 24.8069 24.8068 160.5668 0.0000 0.0000 0.0000
# 4 0.0000 0.0000 0.0000 25.8147 0.0000 0.0000
# 5 0.0000 0.0000 0.0000 0.0000 25.8145 0.0000
# 6 0.0000 0.0000 0.0000 0.0000 0.0000 19.8665
#
#
#
# Elastic Compliance Matrix: (Units=1/GPa)
#
#
# Indices 1 2 3 4 5 6 
#
# 1 0.020272 0.000197 -0.003162 0.000000 0.000000 0.000000
# 2 0.000197 0.020272 -0.003162 0.000000 0.000000 0.000000
# 3 -0.003162 -0.003162 0.007205 0.000000 0.000000 0.000000
# 4 0.000000 0.000000 0.000000 0.038738 0.000000 0.000000
# 5 0.000000 0.000000 0.000000 0.000000 0.038738 0.000000
# 6 0.000000 0.000000 0.000000 0.000000 0.000000 0.050336
#
#
# Mechanical properties :
#
#
# Convention : Reuss Voigt Hill
#
# Bulk Modulus (GPa) = 28.17397 41.42584 34.79991
# Shear Modulus (GPa) = 25.04406 28.56122 26.80264
#
# Velocity S-wave (km/s) = 3.28520 3.50831 3.39859
# Velocity P-wave (km/s) = 5.15086 5.85347 5.51337
#
# Compressibility (1/GPa) = 0.03549375
#
# Stress axis : x y z
#
# Youngs Moduli (GPa) = 49.32854 49.32857 138.79093
#
# Poissons Ratio (x) = -0.00971 0.43891
# Poissons Ratio (y) = -0.00971 0.43891
# Poissons Ratio (z) = 0.15600 0.15600
#
# Static dielectric constant tensor:
#      x y z
#    x 1.920710 0.000000 0.000000 
#    y 0.000000 1.920710 0.000000 
#    z 0.000000 0.000000 1.936170 
# 
# From -- ./inp_files/9524.got.cif
#   From: 2010.05.17/outbox.cif.g08.bks.cpg/sg91_5_cif.got.tgz:9524.got - 2010.06.03 19:20:03.
