data_PCOD9548688
_publ_section_title
;
Structure prediction by ZEFSAII (Michael W. Deem and Ramdas Pophale) SiO2 
 PCOD9548688
Probable space group: P 41 2 2
;
_chemical_formula_sum "Si O2"
_cell_formula_units_Z 40
_cell_length_a 11.507165
_cell_length_b 11.507165
_cell_length_c 15.877654
_cell_angle_alpha 90.000000
_cell_angle_beta 90.000000
_cell_angle_gamma 90.000000
_cell_volume 2102.437115
_symmetry_space_group_name_H-M "P 41 2 2"
_symmetry_group_IT_number 91
_symmetry_cell_setting 'tetragonal'
loop_
_space_group_symop_operation_xyz
x,y,z
-y,x,1/4+z
-x,-y,1/2+z
y,-x,3/4+z
x,-y,1/2-z
-x,y,-z
y,x,3/4-z
-y,-x,1/4-z
loop_
_atom_site_type_symbol
_atom_site_label
_atom_site_fract_x
_atom_site_fract_y
_atom_site_fract_z
Si Si1 0.269061 0.730940 0.625000
Si Si2 0.000000 0.572953 0.000000
Si Si3 0.429890 0.057955 0.910596
Si Si4 0.397116 0.785605 0.931514
Si Si5 0.638491 0.558944 0.516324
Si Si6 0.233951 0.322304 0.463561
O O1 0.139889 0.684334 0.650623
O O2 0.349596 0.692962 0.702571
O O3 0.100178 0.647456 0.043767
O O4 0.930985 0.504325 0.073857
O O5 0.408273 0.919751 0.906462
O O6 0.500000 0.082500 0.000000
O O7 0.411177 0.691522 0.857781
O O8 0.500000 0.765238 0.000000
O O9 0.269407 0.775180 0.970802
O O10 0.500000 0.559273 0.500000
O O11 0.691331 0.431648 0.504176
O O12 0.284556 0.284556 0.375000
#
# Coordination Sequence:
#
# PCOD9548688 Si02
#       6
#     4   4   8   8   8   8
#     4  12  24  38  64  96 140 174 222 272 336 404
#     4  12  24  46  68  92 140 184 226 280 352 406
#     4  11  23  44  65  97 137 188 227 273 342 416
#     4  11  22  42  66  94 133 177 221 269 333 413
#     4  12  24  37  60 100 137 163 205 275 347 403
#     4  12  23  40  65  94 128 173 220 274 331 409
#
# _framework density 19.025538999999998
#
# number of rings (size 3 to 8) (size 9 to 14) (size 15 to 20)
#    0.000    0.400    6.000    3.600    4.200    0.000 
#    0.000    0.000    2.200    0.000    0.000    0.000 
#    0.000    0.000    0.000    0.000    0.000    0.000 
#
# Total GULP energy -222945.532861 kJ/mol
# GULP energy per Si atom -5573.638322 kJ/mol
# Density = 1.898224 g / cm^3
# Si number density = 19.025539 Si / 1000 Ang^3
#
#
#
# Elastic Constant Matrix: (Units=GPa)
#
#
# Indices 1 2 3 4 5 6 
#
# 1 103.7758 39.5098 41.6786 0.0000 0.0000 0.0000
# 2 39.5098 103.7760 41.6788 0.0000 0.0000 0.0000
# 3 41.6786 41.6788 112.3344 0.0000 0.0000 0.0000
# 4 0.0000 0.0000 0.0000 24.3175 0.0000 0.0000
# 5 0.0000 0.0000 0.0000 0.0000 24.3175 0.0000
# 6 0.0000 0.0000 0.0000 0.0000 0.0000 16.5458
#
#
#
# Elastic Compliance Matrix: (Units=1/GPa)
#
#
# Indices 1 2 3 4 5 6 
#
# 1 0.012230 -0.003330 -0.003302 0.000000 0.000000 0.000000
# 2 -0.003330 0.012230 -0.003302 0.000000 0.000000 0.000000
# 3 -0.003302 -0.003302 0.011352 0.000000 0.000000 0.000000
# 4 0.000000 0.000000 0.000000 0.041123 0.000000 0.000000
# 5 0.000000 0.000000 0.000000 0.000000 0.041123 0.000000
# 6 0.000000 0.000000 0.000000 0.000000 0.000000 0.060438
#
#
# Mechanical properties :
#
#
# Convention : Reuss Voigt Hill
#
# Bulk Modulus (GPa) = 62.71964 62.84672 62.78318
# Shear Modulus (GPa) = 24.54834 26.17077 25.35956
#
# Velocity S-wave (km/s) = 3.59595 3.71288 3.65488
# Velocity P-wave (km/s) = 7.09075 7.17531 7.13316
#
# Compressibility (1/GPa) = 0.01594397
#
# Stress axis : x y z
#
# Youngs Moduli (GPa) = 81.76479 81.76477 88.08751
#
# Poissons Ratio (x) = 0.27228 0.29088
# Poissons Ratio (y) = 0.27228 0.29088
# Poissons Ratio (z) = 0.27000 0.27000
#
# Static dielectric constant tensor:
#      x y z
#    x 1.690430 0.000000 0.000000 
#    y 0.000000 1.690430 0.000000 
#    z 0.000000 0.000000 2.049500 
# 
# From -- ./inp_files/16424.got.cif
#   From: 2010.05.17/outbox.cif.g08.bks.cpg/sg91_9_cif.got.tgz:16424.got - 2010.06.03 19:20:03.
