data_PCOD9548907
_publ_section_title
;
Structure prediction by ZEFSAII (Michael W. Deem and Ramdas Pophale) SiO2 
 PCOD9548907
Probable space group: P 41 21 2
;
_chemical_formula_sum "Si O2"
_cell_formula_units_Z 32
_cell_length_a 8.123361
_cell_length_b 8.123361
_cell_length_c 18.258421
_cell_angle_alpha 90.000000
_cell_angle_beta 90.000000
_cell_angle_gamma 90.000000
_cell_volume 1204.854833
_symmetry_space_group_name_H-M "P 41 21 2"
_symmetry_group_IT_number 92
_symmetry_cell_setting 'tetragonal'
loop_
_space_group_symop_operation_xyz
x,y,z
1/2-y,1/2+x,1/4+z
-x,-y,1/2+z
1/2+y,1/2-x,3/4+z
1/2+x,1/2-y,3/4-z
1/2-x,1/2+y,1/4-z
y,x,-z
-y,-x,1/2-z
loop_
_atom_site_type_symbol
_atom_site_label
_atom_site_fract_x
_atom_site_fract_y
_atom_site_fract_z
Si Si1 0.953143 0.046858 0.250000
Si Si2 0.802412 0.121730 0.388147
Si Si3 0.715356 0.802271 0.714193
Si Si4 0.999903 0.423214 0.906885
Si Si5 0.322679 0.677322 0.250000
O O1 0.917761 0.161650 0.319558
O O2 0.128029 0.079947 0.216349
O O3 0.813277 0.257676 0.451293
O O4 0.626416 0.076208 0.350158
O O5 0.845635 0.957719 0.435783
O O6 0.777942 0.636942 0.672681
O O7 0.579240 0.894350 0.667403
O O8 0.134156 0.357188 0.966445
#
# Coordination Sequence:
#
# PCOD9548907 Si02
#       5
#     4   8   8   8   4
#     4  10  20  45  61  92 140 174 224 293 347 418
#     4  10  22  41  64  97 141 177 235 290 359 422
#     4  10  22  42  66  97 134 183 230 290 346 427
#     4  10  19  41  66  97 137 176 233 284 349 424
#     4  10  18  39  65 100 130 174 242 275 339 436
#
# _framework density 26.559217
#
# number of rings (size 3 to 8) (size 9 to 14) (size 15 to 20)
#    0.000    2.000    5.000    0.000    0.000    1.000 
#   13.500    1.250    0.000    0.000    0.000    0.000 
#    0.000    0.000    0.000    0.000    0.000    0.000 
#
# Total GULP energy -178544.199805 kJ/mol
# GULP energy per Si atom -5579.506244 kJ/mol
# Density = 2.649877 g / cm^3
# Si number density = 26.559217 Si / 1000 Ang^3
#
#
#
# Elastic Constant Matrix: (Units=GPa)
#
#
# Indices 1 2 3 4 5 6 
#
# 1 57.3513 35.2456 15.7947 0.0000 0.0000 0.0000
# 2 35.2456 57.3521 15.7951 0.0000 0.0000 0.0000
# 3 15.7947 15.7951 151.5175 0.0000 0.0000 0.0000
# 4 0.0000 0.0000 0.0000 57.2814 0.0000 0.0000
# 5 0.0000 0.0000 0.0000 0.0000 57.2813 0.0000
# 6 0.0000 0.0000 0.0000 0.0000 0.0000 27.1354
#
#
#
# Elastic Compliance Matrix: (Units=1/GPa)
#
#
# Indices 1 2 3 4 5 6 
#
# 1 0.028217 -0.017019 -0.001167 0.000000 0.000000 0.000000
# 2 -0.017019 0.028217 -0.001167 0.000000 0.000000 0.000000
# 3 -0.001167 -0.001167 0.006843 0.000000 0.000000 0.000000
# 4 0.000000 0.000000 0.000000 0.017458 0.000000 0.000000
# 5 0.000000 0.000000 0.000000 0.000000 0.017458 0.000000
# 6 0.000000 0.000000 0.000000 0.000000 0.000000 0.036852
#
#
# Mechanical properties :
#
#
# Convention : Reuss Voigt Hill
#
# Bulk Modulus (GPa) = 40.70097 44.43239 42.56668
# Shear Modulus (GPa) = 27.48120 41.63200 34.55660
#
# Velocity S-wave (km/s) = 3.22019 3.96348 3.61101
# Velocity P-wave (km/s) = 5.40222 6.14097 5.78340
#
# Compressibility (1/GPa) = 0.02456944
#
# Stress axis : x y z
#
# Youngs Moduli (GPa) = 35.43936 35.43983 146.12899
#
# Poissons Ratio (x) = 0.60316 0.17057
# Poissons Ratio (y) = 0.60315 0.17058
# Poissons Ratio (z) = 0.04137 0.04137
#
# Static dielectric constant tensor:
#      x y z
#    x 2.135340 0.000000 0.000000 
#    y 0.000000 2.135340 0.000000 
#    z 0.000000 0.000000 2.133090 
# 
# From -- ./inp_files/3430.got.cif
#   From: 2010.05.17/outbox.cif.g08.bks.cpg/sg92_2_cif.got.tgz:3430.got - 2010.06.03 19:35:17.
