data_PCOD9548438
_publ_section_title
;
Structure prediction by ZEFSAII (Michael W. Deem and Ramdas Pophale) SiO2 
 PCOD9548438
Probable space group: P 41 2 2
;
_chemical_formula_sum "Si O2"
_cell_formula_units_Z 56
_cell_length_a 14.420793
_cell_length_b 14.420793
_cell_length_c 12.019718
_cell_angle_alpha 90.000000
_cell_angle_beta 90.000000
_cell_angle_gamma 90.000000
_cell_volume 2499.611790
_symmetry_space_group_name_H-M "P 41 2 2"
_symmetry_group_IT_number 91
_symmetry_cell_setting 'tetragonal'
loop_
_space_group_symop_operation_xyz
x,y,z
-y,x,1/4+z
-x,-y,1/2+z
y,-x,3/4+z
x,-y,1/2-z
-x,y,-z
y,x,3/4-z
-y,-x,1/4-z
loop_
_atom_site_type_symbol
_atom_site_label
_atom_site_fract_x
_atom_site_fract_y
_atom_site_fract_z
Si Si1 0.382558 0.109770 0.765094
Si Si2 0.850091 0.420146 0.577444
Si Si3 0.180987 0.266567 0.589329
Si Si4 0.597843 0.673182 0.560172
Si Si5 0.111704 0.303783 0.217639
Si Si6 0.906825 0.773862 0.311132
Si Si7 0.473598 0.645542 0.199120
O O1 0.491413 0.128272 0.751568
O O2 0.342753 0.148157 0.650188
O O3 0.316773 0.133047 0.869531
O O4 0.373791 0.000000 0.750000
O O5 0.868717 0.335285 0.495019
O O6 0.897853 0.387473 0.693100
O O7 0.741659 0.439683 0.606414
O O8 0.243169 0.332938 0.669177
O O9 0.234872 0.195881 0.508708
O O10 0.121051 0.216000 0.682368
O O11 0.500000 0.694490 0.500000
O O12 0.579993 0.641317 0.686059
O O13 0.644506 0.580576 0.512804
O O14 0.016790 0.248223 0.194706
O O15 0.862336 0.862336 0.375000
O O16 0.440500 0.559501 0.125000
#
# Coordination Sequence:
#
# PCOD9548438 Si02
#       7
#     8   8   8   8   8   8   8
#     4  10  23  41  66 101 136 177 231 281 358 435
#     4  11  24  40  66 101 141 182 228 291 359 443
#     4  11  25  41  69 100 140 180 234 300 361 440
#     4  11  23  36  58  89 132 185 238 290 343 416
#     4  11  23  46  70 102 139 189 237 295 378 436
#     4  11  25  44  75 100 136 183 242 309 371 443
#     4  11  22  37  56  84 128 182 236 279 335 417
#
# _framework density 22.403476999999999
#
# number of rings (size 3 to 8) (size 9 to 14) (size 15 to 20)
#    0.000    1.143    1.429    5.143    6.000    1.143 
#    0.000    0.000    0.000    5.143    0.000    0.000 
#    0.000    0.000    0.000    0.000    0.000    0.000 
#
# Total GULP energy -312046.680921 kJ/mol
# GULP energy per Si atom -5572.262159 kJ/mol
# Density = 2.235249 g / cm^3
# Si number density = 22.403477 Si / 1000 Ang^3
#
#
#
# Elastic Constant Matrix: (Units=GPa)
#
#
# Indices 1 2 3 4 5 6 
#
# 1 42.4409 16.5143 16.1139 0.0000 0.0000 0.0000
# 2 16.5143 42.4389 16.1146 0.0000 0.0000 0.0000
# 3 16.1139 16.1146 68.7017 0.0000 0.0000 0.0000
# 4 0.0000 0.0000 0.0000 19.2998 0.0000 0.0000
# 5 0.0000 0.0000 0.0000 0.0000 19.2998 0.0000
# 6 0.0000 0.0000 0.0000 0.0000 0.0000 28.9995
#
#
#
# Elastic Compliance Matrix: (Units=1/GPa)
#
#
# Indices 1 2 3 4 5 6 
#
# 1 0.029014 -0.009557 -0.004563 0.000000 0.000000 0.000000
# 2 -0.009557 0.029015 -0.004564 0.000000 0.000000 0.000000
# 3 -0.004563 -0.004564 0.016697 0.000000 0.000000 0.000000
# 4 0.000000 0.000000 0.000000 0.051814 0.000000 0.000000
# 5 0.000000 0.000000 0.000000 0.000000 0.051814 0.000000
# 6 0.000000 0.000000 0.000000 0.000000 0.000000 0.034483
#
#
# Mechanical properties :
#
#
# Convention : Reuss Voigt Hill
#
# Bulk Modulus (GPa) = 26.76953 27.89636 27.33294
# Shear Modulus (GPa) = 19.03609 20.50906 19.77258
#
# Velocity S-wave (km/s) = 2.91811 3.02891 2.97403
# Velocity P-wave (km/s) = 4.82997 4.97104 4.90101
#
# Compressibility (1/GPa) = 0.03735591
#
# Stress axis : x y z
#
# Youngs Moduli (GPa) = 34.46646 34.46439 59.89251
#
# Poissons Ratio (x) = 0.32939 0.27331
# Poissons Ratio (y) = 0.32941 0.27336
# Poissons Ratio (z) = 0.15728 0.15730
#
# Static dielectric constant tensor:
#      x y z
#    x 1.964930 0.000000 0.000000 
#    y 0.000000 1.964930 0.000000 
#    z 0.000000 0.000000 1.824960 
# 
# From -- ./inp_files/3922.got.cif
#   From: 2010.05.17/outbox.cif.g08.bks.cpg/sg91_2_cif.got.tgz:3922.got - 2010.06.03 19:20:03.
