data_PCOD9548069
_publ_section_title
;
Structure prediction by ZEFSAII (Michael W. Deem and Ramdas Pophale) SiO2 
 PCOD9548069
Probable space group: P 41 2 2
;
_chemical_formula_sum "Si O2"
_cell_formula_units_Z 56
_cell_length_a 15.309226
_cell_length_b 15.309226
_cell_length_c 11.877070
_cell_angle_alpha 90.000000
_cell_angle_beta 90.000000
_cell_angle_gamma 90.000000
_cell_volume 2783.657409
_symmetry_space_group_name_H-M "P 41 2 2"
_symmetry_group_IT_number 91
_symmetry_cell_setting 'tetragonal'
loop_
_space_group_symop_operation_xyz
x,y,z
-y,x,1/4+z
-x,-y,1/2+z
y,-x,3/4+z
x,-y,1/2-z
-x,y,-z
y,x,3/4-z
-y,-x,1/4-z
loop_
_atom_site_type_symbol
_atom_site_label
_atom_site_fract_x
_atom_site_fract_y
_atom_site_fract_z
Si Si1 0.637633 0.499197 0.876744
Si Si2 0.604114 0.091551 0.510188
Si Si3 0.596997 0.901730 0.239394
Si Si4 0.417751 0.799408 0.214570
Si Si5 0.602211 0.670664 0.490758
Si Si6 0.938729 0.306837 0.398114
Si Si7 0.719246 0.161197 0.058764
O O1 0.673821 0.500000 0.750000
O O2 0.541918 0.541918 0.875000
O O3 0.696995 0.561700 0.955945
O O4 0.632561 0.400477 0.918742
O O5 0.500000 0.086050 0.500000
O O6 0.641086 0.102972 0.384508
O O7 0.620381 0.172139 0.593175
O O8 0.632295 0.005378 0.577605
O O9 0.515218 0.837156 0.235648
O O10 0.658323 0.883797 0.345987
O O11 0.561708 0.000000 0.250000
O O12 0.358275 0.856005 0.298826
O O13 0.500000 0.693081 0.500000
O O14 0.620251 0.620251 0.375000
O O15 0.661736 0.756787 0.486434
O O16 0.897409 0.251614 0.296595
O O17 0.000000 0.271360 0.500000
O O18 0.800448 0.199553 0.125000
#
# Coordination Sequence:
#
# PCOD9548069 Si02
#       7
#     8   8   8   8   8   8   8
#     4  12  25  40  57  76 109 168 234 285 321 354
#     4   9  17  33  53  84 112 143 193 248 315 387
#     4  11  19  34  58  86 115 154 193 252 322 394
#     4  10  21  33  53  82 110 149 205 269 323 375
#     4  11  24  40  55  76 107 160 223 281 319 353
#     4  10  21  36  58  83 117 156 197 247 325 392
#     4  11  25  37  58  89 123 158 200 258 321 379
#
# _framework density 20.117418000000001
#
# number of rings (size 3 to 8) (size 9 to 14) (size 15 to 20)
#    0.000    1.429    1.429    6.857    6.000    0.000 
#    0.000    0.000    0.000    0.000    0.000    0.000 
#    0.000    1.143    0.000    0.000    0.000    0.286 
#
# Total GULP energy -312391.515587 kJ/mol
# GULP energy per Si atom -5578.419921 kJ/mol
# Density = 2.007163 g / cm^3
# Si number density = 20.117418 Si / 1000 Ang^3
#
#
#
# Elastic Constant Matrix: (Units=GPa)
#
#
# Indices 1 2 3 4 5 6 
#
# 1 47.3769 4.5690 36.6133 0.0000 0.0000 0.0000
# 2 4.5690 47.3778 36.6129 0.0000 0.0000 0.0000
# 3 36.6133 36.6129 153.3068 0.0000 0.0000 0.0000
# 4 0.0000 0.0000 0.0000 25.6075 0.0000 0.0000
# 5 0.0000 0.0000 0.0000 0.0000 25.6078 0.0000
# 6 0.0000 0.0000 0.0000 0.0000 0.0000 4.8894
#
#
#
# Elastic Compliance Matrix: (Units=1/GPa)
#
#
# Indices 1 2 3 4 5 6 
#
# 1 0.026191 0.002830 -0.006931 0.000000 0.000000 0.000000
# 2 0.002830 0.026190 -0.006931 0.000000 0.000000 0.000000
# 3 -0.006931 -0.006931 0.009833 0.000000 0.000000 0.000000
# 4 0.000000 0.000000 0.000000 0.039051 0.000000 0.000000
# 5 0.000000 0.000000 0.000000 0.000000 0.039051 0.000000
# 6 0.000000 0.000000 0.000000 0.000000 0.000000 0.204526
#
#
# Mechanical properties :
#
#
# Convention : Reuss Voigt Hill
#
# Bulk Modulus (GPa) = 24.90571 44.85020 34.87795
# Shear Modulus (GPa) = 13.14794 22.57202 17.85998
#
# Velocity S-wave (km/s) = 2.55926 3.35328 2.98281
# Velocity P-wave (km/s) = 4.59784 6.11026 5.40719
#
# Compressibility (1/GPa) = 0.04015143
#
# Stress axis : x y z
#
# Youngs Moduli (GPa) = 38.18163 38.18264 101.69511
#
# Poissons Ratio (x) = -0.10807 0.70484
# Poissons Ratio (y) = -0.10807 0.70481
# Poissons Ratio (z) = 0.26463 0.26463
#
# Static dielectric constant tensor:
#      x y z
#    x 1.716800 0.000000 0.000000 
#    y 0.000000 1.716800 0.000000 
#    z 0.000000 0.000000 1.988180 
# 
# From -- ./inp_files/20319.got.cif
#   From: 2010.05.17/outbox.cif.g08.bks.cpg/sg91_11_cif.got.tgz:20319.got - 2010.06.03 19:20:03.
