data_PCOD9548672
_publ_section_title
;
Structure prediction by ZEFSAII (Michael W. Deem and Ramdas Pophale) SiO2 
 PCOD9548672
Probable space group: P 41 2 2
;
_chemical_formula_sum "Si O2"
_cell_formula_units_Z 44
_cell_length_a 9.214162
_cell_length_b 9.214162
_cell_length_c 25.784966
_cell_angle_alpha 90.000000
_cell_angle_beta 90.000000
_cell_angle_gamma 90.000000
_cell_volume 2189.163761
_symmetry_space_group_name_H-M "P 41 2 2"
_symmetry_group_IT_number 91
_symmetry_cell_setting 'tetragonal'
loop_
_space_group_symop_operation_xyz
x,y,z
-y,x,1/4+z
-x,-y,1/2+z
y,-x,3/4+z
x,-y,1/2-z
-x,y,-z
y,x,3/4-z
-y,-x,1/4-z
loop_
_atom_site_type_symbol
_atom_site_label
_atom_site_fract_x
_atom_site_fract_y
_atom_site_fract_z
Si Si1 0.679980 0.923143 0.175035
Si Si2 0.000000 0.079307 0.000000
Si Si3 0.552278 0.305363 0.694948
Si Si4 0.451560 0.451560 0.875000
Si Si5 0.196696 0.196696 0.375000
Si Si6 0.854031 0.888289 0.663482
Si Si7 0.468531 0.195566 0.190256
O O1 0.567667 0.793513 0.166628
O O2 0.771584 0.934249 0.122428
O O3 0.804946 0.899794 0.218667
O O4 0.575232 0.056802 0.190178
O O5 0.935228 0.970212 0.043006
O O6 0.516687 0.463396 0.674131
O O7 0.711468 0.257829 0.673934
O O8 0.520230 0.276115 0.754666
O O9 0.287182 0.483086 0.890129
O O10 0.022864 0.205402 0.378487
O O11 0.702972 0.835253 0.687308
#
# Coordination Sequence:
#
# PCOD9548672 Si02
#       7
#     8   4   8   4   4   8   8
#     4  12  24  41  67 100 129 169 224 276 330 401
#     4  12  24  40  68  98 136 168 218 280 334 402
#     4  11  23  44  66  95 128 183 220 266 334 413
#     4  11  26  43  66  94 136 169 232 277 328 408
#     4  11  22  39  68  94 130 173 228 271 312 402
#     4  12  25  43  66 102 133 176 225 281 333 392
#     4  12  25  43  69  92 134 182 216 274 349 391
#
# _framework density 20.098998000000002
#
# number of rings (size 3 to 8) (size 9 to 14) (size 15 to 20)
#    0.000    0.364    7.273    1.636    2.545    0.000 
#    0.000    0.000    0.000    0.000    0.000    0.000 
#    0.000    0.000    0.000    0.000    0.000    0.000 
#
# Total GULP energy -245177.445114 kJ/mol
# GULP energy per Si atom -5572.214662 kJ/mol
# Density = 2.005325 g / cm^3
# Si number density = 20.098998 Si / 1000 Ang^3
#
#
#
# Elastic Constant Matrix: (Units=GPa)
#
#
# Indices 1 2 3 4 5 6 
#
# 1 83.1751 10.1581 19.6425 0.0000 0.0000 0.0000
# 2 10.1581 83.1751 19.6425 0.0000 0.0000 0.0000
# 3 19.6425 19.6425 75.8374 0.0000 0.0000 0.0000
# 4 0.0000 0.0000 0.0000 24.3020 0.0000 0.0000
# 5 0.0000 0.0000 0.0000 0.0000 24.3020 0.0000
# 6 0.0000 0.0000 0.0000 0.0000 0.0000 16.9697
#
#
#
# Elastic Compliance Matrix: (Units=1/GPa)
#
#
# Indices 1 2 3 4 5 6 
#
# 1 0.012860 -0.000835 -0.003115 0.000000 0.000000 0.000000
# 2 -0.000835 0.012860 -0.003115 0.000000 0.000000 0.000000
# 3 -0.003115 -0.003115 0.014800 0.000000 0.000000 0.000000
# 4 0.000000 0.000000 0.000000 0.041149 0.000000 0.000000
# 5 0.000000 0.000000 0.000000 0.000000 0.041149 0.000000
# 6 0.000000 0.000000 0.000000 0.000000 0.000000 0.058928
#
#
# Mechanical properties :
#
#
# Convention : Reuss Voigt Hill
#
# Bulk Modulus (GPa) = 37.89094 37.89709 37.89401
# Shear Modulus (GPa) = 24.42928 25.96438 25.19683
#
# Velocity S-wave (km/s) = 3.49011 3.59810 3.54451
# Velocity P-wave (km/s) = 5.92741 6.01314 5.97043
#
# Compressibility (1/GPa) = 0.02639153
#
# Stress axis : x y z
#
# Youngs Moduli (GPa) = 77.75833 77.75833 67.56968
#
# Poissons Ratio (x) = 0.06493 0.21046
# Poissons Ratio (y) = 0.06493 0.21046
# Poissons Ratio (z) = 0.24219 0.24219
#
# Static dielectric constant tensor:
#      x y z
#    x 1.735650 0.000000 0.000000 
#    y 0.000000 1.735650 0.000000 
#    z 0.000000 0.000000 1.760570 
# 
# From -- ./inp_files/7886.got.cif
#   From: 2010.05.17/outbox.cif.g08.bks.cpg/sg91_4_cif.got.tgz:7886.got - 2010.06.03 19:20:03.
