data_PCOD9548631
_publ_section_title
;
Structure prediction by ZEFSAII (Michael W. Deem and Ramdas Pophale) SiO2 
 PCOD9548631
Probable space group: P 41 2 2
;
_chemical_formula_sum "Si O2"
_cell_formula_units_Z 48
_cell_length_a 13.938721
_cell_length_b 13.938721
_cell_length_c 12.646822
_cell_angle_alpha 90.000000
_cell_angle_beta 90.000000
_cell_angle_gamma 90.000000
_cell_volume 2457.125033
_symmetry_space_group_name_H-M "P 41 2 2"
_symmetry_group_IT_number 91
_symmetry_cell_setting 'tetragonal'
loop_
_space_group_symop_operation_xyz
x,y,z
-y,x,1/4+z
-x,-y,1/2+z
y,-x,3/4+z
x,-y,1/2-z
-x,y,-z
y,x,3/4-z
-y,-x,1/4-z
loop_
_atom_site_type_symbol
_atom_site_label
_atom_site_fract_x
_atom_site_fract_y
_atom_site_fract_z
Si Si1 0.217396 0.639953 0.085351
Si Si2 0.751315 0.912942 0.187557
Si Si3 0.035872 0.685782 0.210958
Si Si4 0.090081 0.500000 0.750000
Si Si5 0.214454 0.881454 0.324208
Si Si6 0.885630 0.464748 0.016180
Si Si7 0.000000 0.951959 0.000000
O O1 0.321431 0.678570 0.125000
O O2 0.144212 0.664893 0.179068
O O3 0.178995 0.707782 0.990153
O O4 0.186709 0.532271 0.050572
O O5 0.819073 0.822490 0.172984
O O6 0.647046 0.885396 0.233935
O O7 0.798664 0.000000 0.250000
O O8 0.732816 0.959907 0.074177
O O9 0.977580 0.588940 0.225423
O O10 0.979161 0.742313 0.120768
O O11 0.141516 0.522461 0.639401
O O12 0.119901 0.908969 0.257915
O O13 0.000000 0.494228 0.000000
O O14 0.994742 0.994742 0.875000
#
# Coordination Sequence:
#
# PCOD9548631 Si02
#       7
#     8   8   8   4   8   8   4
#     4  12  21  36  61  87 114 155 206 258 312 379
#     4  11  24  39  54  85 123 163 208 263 321 372
#     4  12  20  36  59  83 117 158 204 260 308 379
#     4  12  20  36  62  84 114 162 202 252 332 394
#     4  12  23  39  57  84 123 163 218 263 314 379
#     4  11  21  38  59  85 118 158 202 260 327 377
#     4  12  26  44  60  84 124 184 234 268 318 388
#
# _framework density 19.535024
#
# number of rings (size 3 to 8) (size 9 to 14) (size 15 to 20)
#    0.000    0.333   10.000    1.500    1.167    0.667 
#    0.000    0.000    0.000    0.000    0.000    0.000 
#    5.000    0.000    0.000    0.000    0.000    0.000 
#
# Total GULP energy -267551.197187 kJ/mol
# GULP energy per Si atom -5573.983275 kJ/mol
# Density = 1.949056 g / cm^3
# Si number density = 19.535024 Si / 1000 Ang^3
#
#
#
# Elastic Constant Matrix: (Units=GPa)
#
#
# Indices 1 2 3 4 5 6 
#
# 1 40.0046 15.7125 0.2594 0.0000 0.0000 0.0000
# 2 15.7125 40.0050 0.2594 0.0000 0.0000 0.0000
# 3 0.2594 0.2594 94.4542 0.0000 0.0000 0.0000
# 4 0.0000 0.0000 0.0000 32.9666 0.0000 0.0000
# 5 0.0000 0.0000 0.0000 0.0000 32.9662 0.0000
# 6 0.0000 0.0000 0.0000 0.0000 0.0000 -14.7160
#
#
#
# Elastic Compliance Matrix: (Units=1/GPa)
#
#
# Indices 1 2 3 4 5 6 
#
# 1 0.029557 -0.011609 -0.000049 0.000000 0.000000 0.000000
# 2 -0.011609 0.029557 -0.000049 0.000000 0.000000 0.000000
# 3 -0.000049 -0.000049 0.010587 0.000000 0.000000 0.000000
# 4 0.000000 0.000000 0.000000 0.030334 0.000000 0.000000
# 5 0.000000 0.000000 0.000000 0.000000 0.030334 0.000000
# 6 0.000000 0.000000 0.000000 0.000000 0.000000 -0.067953
#
#
# Mechanical properties :
#
#
# Convention : Reuss Voigt Hill
#
# Bulk Modulus (GPa) = 21.60448 22.99181 22.29814
# Shear Modulus (GPa) = 49.37859 20.79220 35.08539
#
# Velocity S-wave (km/s) = 5.03307 3.26598 4.24255
# Velocity P-wave (km/s) = 6.69770 5.10071 5.95300
#
# Compressibility (1/GPa) = 0.04628669
#
# Stress axis : x y z
#
# Youngs Moduli (GPa) = 33.83306 33.83342 94.45183
#
# Poissons Ratio (x) = 0.39276 0.00465
# Poissons Ratio (y) = 0.39275 0.00466
# Poissons Ratio (z) = 0.00167 0.00167
#
# Static dielectric constant tensor:
#      x y z
#    x 1.724590 0.000000 0.000000 
#    y 0.000000 1.724590 0.000000 
#    z 0.000000 0.000000 1.749610 
# 
# From -- ./inp_files/3868.got.cif
#   From: 2010.05.17/outbox.cif.g08.bks.cpg/sg91_2_cif.got.tgz:3868.got - 2010.06.03 19:20:03.
