data_PCOD9548676
_publ_section_title
;
Structure prediction by ZEFSAII (Michael W. Deem and Ramdas Pophale) SiO2 
 PCOD9548676
Probable space group: P 41 2 2
;
_chemical_formula_sum "Si O2"
_cell_formula_units_Z 32
_cell_length_a 9.426549
_cell_length_b 9.426549
_cell_length_c 14.709833
_cell_angle_alpha 90.000000
_cell_angle_beta 90.000000
_cell_angle_gamma 90.000000
_cell_volume 1307.113202
_symmetry_space_group_name_H-M "P 41 2 2"
_symmetry_group_IT_number 91
_symmetry_cell_setting 'tetragonal'
loop_
_space_group_symop_operation_xyz
x,y,z
-y,x,1/4+z
-x,-y,1/2+z
y,-x,3/4+z
x,-y,1/2-z
-x,y,-z
y,x,3/4-z
-y,-x,1/4-z
loop_
_atom_site_type_symbol
_atom_site_label
_atom_site_fract_x
_atom_site_fract_y
_atom_site_fract_z
Si Si1 0.199669 0.577337 0.866382
Si Si2 0.709933 0.948896 0.358388
Si Si3 0.931063 0.158251 0.407636
Si Si4 0.520788 0.648422 0.797676
O O1 0.118284 0.431130 0.847805
O O2 0.354318 0.624536 0.826114
O O3 0.094391 0.705303 0.847364
O O4 0.232542 0.550266 0.973936
O O5 0.824172 0.824172 0.375000
O O6 0.700683 0.000000 0.250000
O O7 0.083629 0.777183 0.339800
O O8 0.038794 0.038794 0.375000
O O9 0.000000 0.209032 0.500000
O O10 0.549657 0.500000 0.750000
O O11 0.640395 0.640395 0.875000
#
# Coordination Sequence:
#
# PCOD9548676 Si02
#       4
#     8   8   8   8
#     4  11  22  40  68  95 126 169 217 263 317 387
#     4  11  22  41  67  95 126 169 219 264 316 385
#     4  11  25  43  61  90 130 168 210 266 322 378
#     4   9  19  36  62  98 129 154 199 265 321 368
#
# _framework density 24.48143
#
# number of rings (size 3 to 8) (size 9 to 14) (size 15 to 20)
#    0.000    1.500    0.000    7.500    0.000    3.000 
#    0.000    5.000    0.000    1.500    0.000    0.000 
#    0.000    0.000    0.000    0.000    0.000    0.000 
#
# Total GULP energy -178352.306670 kJ/mol
# GULP energy per Si atom -5573.509583 kJ/mol
# Density = 2.442571 g / cm^3
# Si number density = 24.481430 Si / 1000 Ang^3
#
#
#
# Elastic Constant Matrix: (Units=GPa)
#
#
# Indices 1 2 3 4 5 6 
#
# 1 94.8414 46.0247 15.7804 0.0000 0.0000 0.0000
# 2 46.0247 94.8414 15.7804 0.0000 0.0000 0.0000
# 3 15.7804 15.7804 74.6093 0.0000 0.0000 0.0000
# 4 0.0000 0.0000 0.0000 18.8217 0.0000 0.0000
# 5 0.0000 0.0000 0.0000 0.0000 18.8217 0.0000
# 6 0.0000 0.0000 0.0000 0.0000 0.0000 3.3879
#
#
#
# Elastic Compliance Matrix: (Units=1/GPa)
#
#
# Indices 1 2 3 4 5 6 
#
# 1 0.013968 -0.006516 -0.001576 0.000000 0.000000 0.000000
# 2 -0.006516 0.013968 -0.001576 0.000000 0.000000 0.000000
# 3 -0.001576 -0.001576 0.014070 0.000000 0.000000 0.000000
# 4 0.000000 0.000000 0.000000 0.053130 0.000000 0.000000
# 5 0.000000 0.000000 0.000000 0.000000 0.053130 0.000000
# 6 0.000000 0.000000 0.000000 0.000000 0.000000 0.295165
#
#
# Mechanical properties :
#
#
# Convention : Reuss Voigt Hill
#
# Bulk Modulus (GPa) = 44.11235 46.60700 45.35967
# Shear Modulus (GPa) = 10.63094 20.65337 15.64216
#
# Velocity S-wave (km/s) = 2.08612 2.90769 2.53047
# Velocity P-wave (km/s) = 4.88470 5.50926 5.20635
#
# Compressibility (1/GPa) = 0.02266939
#
# Stress axis : x y z
#
# Youngs Moduli (GPa) = 71.59002 71.59002 71.07369
#
# Poissons Ratio (x) = 0.46651 0.11202
# Poissons Ratio (y) = 0.46651 0.11202
# Poissons Ratio (z) = 0.11284 0.11284
#
# Static dielectric constant tensor:
#      x y z
#    x 1.971860 0.000000 0.000000 
#    y 0.000000 1.971860 0.000000 
#    z 0.000000 0.000000 2.172260 
# 
# From -- ./inp_files/21338.got.cif
#   From: 2010.05.17/outbox.cif.g08.bks.cpg/sg91_11_cif.got.tgz:21338.got - 2010.06.03 19:20:03.
