data_PCOD9548915
_publ_section_title
;
Structure prediction by ZEFSAII (Michael W. Deem and Ramdas Pophale) SiO2 
 PCOD9548915
Probable space group: P 41 21 2
;
_chemical_formula_sum "Si O2"
_cell_formula_units_Z 48
_cell_length_a 13.875927
_cell_length_b 13.875927
_cell_length_c 10.405910
_cell_angle_alpha 90.000000
_cell_angle_beta 90.000000
_cell_angle_gamma 90.000000
_cell_volume 2003.567961
_symmetry_space_group_name_H-M "P 41 21 2"
_symmetry_group_IT_number 92
_symmetry_cell_setting 'tetragonal'
loop_
_space_group_symop_operation_xyz
x,y,z
1/2-y,1/2+x,1/4+z
-x,-y,1/2+z
1/2+y,1/2-x,3/4+z
1/2+x,1/2-y,3/4-z
1/2-x,1/2+y,1/4-z
y,x,-z
-y,-x,1/2-z
loop_
_atom_site_type_symbol
_atom_site_label
_atom_site_fract_x
_atom_site_fract_y
_atom_site_fract_z
Si Si1 0.308419 0.174627 0.306624
Si Si2 0.209085 0.684926 0.368901
Si Si3 0.343745 0.423947 0.713198
Si Si4 0.995249 0.406311 0.823315
Si Si5 0.073777 0.926224 0.250000
Si Si6 0.141213 0.141213 0.500000
Si Si7 0.456808 0.625865 0.117168
O O1 0.249571 0.260836 0.238353
O O2 0.402554 0.236401 0.335695
O O3 0.339188 0.085580 0.217525
O O4 0.238738 0.140929 0.417696
O O5 0.258476 0.741524 0.250000
O O6 0.268816 0.587245 0.394102
O O7 0.097796 0.660571 0.350546
O O8 0.366370 0.407547 0.867834
O O9 0.357519 0.536655 0.686377
O O10 0.428778 0.372496 0.634543
O O11 0.965716 0.472263 0.700076
O O12 0.959825 0.915781 0.278023
O O13 0.415552 0.584449 0.250000
#
# Coordination Sequence:
#
# PCOD9548915 Si02
#       7
#     8   8   8   8   4   4   8
#     4  12  29  49  77 112 159 211 263 318 402 494
#     4  11  25  47  77 114 146 199 267 327 385 462
#     4  11  24  45  75 110 140 205 247 319 392 449
#     4  12  29  55  80 115 166 217 268 333 407 495
#     4  10  18  41  78 107 148 180 252 332 384 450
#     4  12  26  51  72 109 162 198 252 330 402 474
#     4   9  20  39  67 112 138 174 247 317 376 440
#
# _framework density 23.957259000000001
#
# number of rings (size 3 to 8) (size 9 to 14) (size 15 to 20)
#    0.000    1.000    4.167    2.000    3.500    4.667 
#    0.000    0.000    0.000    0.000    0.000    0.000 
#    0.000    0.000    0.000    0.000    0.000    0.000 
#
# Total GULP energy -268288.422700 kJ/mol
# GULP energy per Si atom -5589.342140 kJ/mol
# Density = 2.390273 g / cm^3
# Si number density = 23.957259 Si / 1000 Ang^3
#
#
#
# Elastic Constant Matrix: (Units=GPa)
#
#
# Indices 1 2 3 4 5 6 
#
# 1 121.3848 59.5369 10.6283 0.0000 0.0000 0.0000
# 2 59.5369 121.3891 10.6296 0.0000 0.0000 0.0000
# 3 10.6283 10.6296 74.0736 0.0000 0.0000 0.0000
# 4 0.0000 0.0000 0.0000 23.1918 0.0000 0.0000
# 5 0.0000 0.0000 0.0000 0.0000 23.1922 0.0000
# 6 0.0000 0.0000 0.0000 0.0000 0.0000 47.5365
#
#
#
# Elastic Compliance Matrix: (Units=1/GPa)
#
#
# Indices 1 2 3 4 5 6 
#
# 1 0.010895 -0.005273 -0.000807 0.000000 0.000000 0.000000
# 2 -0.005273 0.010895 -0.000807 0.000000 0.000000 0.000000
# 3 -0.000807 -0.000807 0.013732 0.000000 0.000000 0.000000
# 4 0.000000 0.000000 0.000000 0.043119 0.000000 0.000000
# 5 0.000000 0.000000 0.000000 0.000000 0.043118 0.000000
# 6 0.000000 0.000000 0.000000 0.000000 0.000000 0.021036
#
#
# Mechanical properties :
#
#
# Convention : Reuss Voigt Hill
#
# Bulk Modulus (GPa) = 45.97971 53.15965 49.56968
# Shear Modulus (GPa) = 30.52179 34.52094 32.52137
#
# Velocity S-wave (km/s) = 3.57320 3.80009 3.68839
# Velocity P-wave (km/s) = 6.02144 6.44141 6.23496
#
# Compressibility (1/GPa) = 0.02174873
#
# Stress axis : x y z
#
# Youngs Moduli (GPa) = 91.78325 91.78625 72.82477
#
# Poissons Ratio (x) = 0.48400 0.05874
# Poissons Ratio (y) = 0.48398 0.05876
# Poissons Ratio (z) = 0.07403 0.07405
#
# Static dielectric constant tensor:
#      x y z
#    x 2.084980 0.000000 0.000000 
#    y 0.000000 2.084970 0.000000 
#    z 0.000000 0.000000 1.999780 
# 
# From -- ./inp_files/2219.got.cif
#   From: 2010.05.17/outbox.cif.g08.bks.cpg/sg92_2_cif.got.tgz:2219.got - 2010.06.03 19:35:17.
