data_PCOD9548484
_publ_section_title
;
Structure prediction by ZEFSAII (Michael W. Deem and Ramdas Pophale) SiO2 
 PCOD9548484
Probable space group: P 41 2 2
;
_chemical_formula_sum "Si O2"
_cell_formula_units_Z 52
_cell_length_a 17.243417
_cell_length_b 17.243417
_cell_length_c 9.312951
_cell_angle_alpha 90.000000
_cell_angle_beta 90.000000
_cell_angle_gamma 90.000000
_cell_volume 2769.070289
_symmetry_space_group_name_H-M "P 41 2 2"
_symmetry_group_IT_number 91
_symmetry_cell_setting 'tetragonal'
loop_
_space_group_symop_operation_xyz
x,y,z
-y,x,1/4+z
-x,-y,1/2+z
y,-x,3/4+z
x,-y,1/2-z
-x,y,-z
y,x,3/4-z
-y,-x,1/4-z
loop_
_atom_site_type_symbol
_atom_site_label
_atom_site_fract_x
_atom_site_fract_y
_atom_site_fract_z
Si Si1 0.772449 0.740341 0.713477
Si Si2 0.916271 0.307095 0.973568
Si Si3 0.112251 0.475552 0.098899
Si Si4 0.471833 0.773851 0.361573
Si Si5 0.582330 0.694768 0.923144
Si Si6 0.000000 0.386761 0.500000
Si Si7 0.130774 0.670397 0.799562
O O1 0.855089 0.730002 0.636218
O O2 0.734927 0.653300 0.736913
O O3 0.723275 0.802018 0.620171
O O4 0.773890 0.773890 0.875000
O O5 0.930972 0.393780 0.907271
O O6 0.881209 0.310268 0.133710
O O7 0.000000 0.269254 0.000000
O O8 0.148585 0.500000 0.250000
O O9 0.058987 0.550915 0.071113
O O10 0.178680 0.465789 0.980364
O O11 0.500000 0.725661 0.500000
O O12 0.425127 0.735639 0.232160
O O13 0.416650 0.837135 0.434356
O O14 0.610324 0.610324 0.875000
O O15 0.500000 0.691147 0.000000
O O16 0.050507 0.334430 0.609192
#
# Coordination Sequence:
#
# PCOD9548484 Si02
#       7
#     8   8   8   8   8   4   8
#     4  11  24  44  65  90 130 175 219 264 326 400
#     4  12  24  38  61  93 130 173 213 264 318 382
#     4  11  21  33  55  86 129 165 200 249 316 396
#     4  11  20  36  57  90 117 161 206 258 313 393
#     4  11  23  43  65  87 116 165 225 281 343 387
#     4  10  24  34  60  92 138 166 208 260 332 388
#     4  11  23  40  60  93 132 170 216 258 313 397
#
# _framework density 18.778865
#
# number of rings (size 3 to 8) (size 9 to 14) (size 15 to 20)
#    0.000    0.923    5.385    3.692    4.308    0.000 
#    0.000    1.538    0.000    0.000    0.000    0.000 
#    9.231    0.000    0.000    0.000    0.000    0.000 
#
# Total GULP energy -289579.957585 kJ/mol
# GULP energy per Si atom -5568.845338 kJ/mol
# Density = 1.873612 g / cm^3
# Si number density = 18.778865 Si / 1000 Ang^3
#
#
#
# Elastic Constant Matrix: (Units=GPa)
#
#
# Indices 1 2 3 4 5 6 
#
# 1 85.4628 36.4708 54.1618 0.0000 0.0000 0.0000
# 2 36.4708 85.4628 54.1618 0.0000 0.0000 0.0000
# 3 54.1618 54.1618 161.4846 0.0000 0.0000 0.0000
# 4 0.0000 0.0000 0.0000 33.5405 0.0000 0.0000
# 5 0.0000 0.0000 0.0000 0.0000 33.5405 0.0000
# 6 0.0000 0.0000 0.0000 0.0000 0.0000 14.7046
#
#
#
# Elastic Compliance Matrix: (Units=1/GPa)
#
#
# Indices 1 2 3 4 5 6 
#
# 1 0.016047 -0.004365 -0.003918 0.000000 0.000000 0.000000
# 2 -0.004365 0.016047 -0.003918 0.000000 0.000000 0.000000
# 3 -0.003918 -0.003918 0.008821 0.000000 0.000000 0.000000
# 4 0.000000 0.000000 0.000000 0.029815 0.000000 0.000000
# 5 0.000000 0.000000 0.000000 0.000000 0.029815 0.000000
# 6 0.000000 0.000000 0.000000 0.000000 0.000000 0.068006
#
#
# Mechanical properties :
#
#
# Convention : Reuss Voigt Hill
#
# Bulk Modulus (GPa) = 60.56103 69.11099 64.83601
# Shear Modulus (GPa) = 25.19452 28.86482 27.02967
#
# Velocity S-wave (km/s) = 3.66682 3.92483 3.79801
# Velocity P-wave (km/s) = 7.08851 7.57770 7.33718
#
# Compressibility (1/GPa) = 0.01651227
#
# Stress axis : x y z
#
# Youngs Moduli (GPa) = 62.31795 62.31795 113.36829
#
# Poissons Ratio (x) = 0.27200 0.44419
# Poissons Ratio (y) = 0.27200 0.44419
# Poissons Ratio (z) = 0.24417 0.24417
#
# Static dielectric constant tensor:
#      x y z
#    x 1.710060 0.000000 0.000000 
#    y 0.000000 1.710060 0.000000 
#    z 0.000000 0.000000 1.729770 
# 
# From -- ./inp_files/2746.got.cif
#   From: 2010.05.17/outbox.cif.g08.bks.cpg/sg91_2_cif.got.tgz:2746.got - 2010.06.03 19:20:03.
