data_PCOD9548837
_publ_section_title
;
Structure prediction by ZEFSAII (Michael W. Deem and Ramdas Pophale) SiO2 
 PCOD9548837
Probable space group: P 41 2 2
;
_chemical_formula_sum "Si O2"
_cell_formula_units_Z 60
_cell_length_a 12.000000
_cell_length_b 12.000000
_cell_length_c 21.000000
_cell_angle_alpha 90.000000
_cell_angle_beta 90.000000
_cell_angle_gamma 90.000000
_cell_volume 3024.000000
_symmetry_space_group_name_H-M "P 41 2 2"
_symmetry_group_IT_number 91
_symmetry_cell_setting 'tetragonal'
loop_
_space_group_symop_operation_xyz
x,y,z
-y,x,1/4+z
-x,-y,1/2+z
y,-x,3/4+z
x,-y,1/2-z
-x,y,-z
y,x,3/4-z
-y,-x,1/4-z
loop_
_atom_site_type_symbol
_atom_site_label
_atom_site_fract_x
_atom_site_fract_y
_atom_site_fract_z
Si Si1 0.907394 0.724186 0.949484
Si Si2 0.816768 0.484184 0.991264
Si Si3 0.902642 0.704492 0.799022
Si Si4 0.728917 0.459725 0.133175
Si Si5 0.638327 0.549443 0.620528
Si Si6 0.907510 0.255178 0.041947
Si Si7 0.500000 0.758157 0.000000
Si Si8 0.904504 0.696504 0.311209
O O1 0.940364 0.713966 0.873875
O O2 0.804612 0.811434 0.956498
O O3 0.877133 0.598823 0.972463
O O4 0.000000 0.763653 0.000000
O O5 0.766599 0.494882 0.062287
O O6 0.883348 0.368816 0.002430
O O7 0.730395 0.467372 0.933591
O O8 0.833533 0.591286 0.786034
O O9 0.000611 0.700984 0.744246
O O10 0.646559 0.353442 0.125000
O O11 0.652417 0.562616 0.153765
O O12 0.831058 0.417080 0.177371
O O13 0.557730 0.442271 0.625000
O O14 0.688007 0.558395 0.692546
O O15 0.795006 0.183093 0.045748
O O16 0.944365 0.279787 0.115269
O O17 0.000000 0.193146 0.000000
#
# Coordination Sequence:
#
# PCOD9548837 Si02
#       8
#     8   8   8   8   8   8   4   8
#     4  11  25  48  69  97 137 182 229 282 343 417
#     4  11  21  41  66  95 131 181 218 268 342 412
#     4  11  26  45  70  98 139 176 231 290 339 407
#     4  10  20  41  63  98 138 172 222 280 340 413
#     4  11  22  36  66  96 134 182 219 271 337 410
#     4  10  22  41  71  93 133 178 227 279 352 420
#     4  12  24  44  64 104 134 180 230 276 336 412
#     4  10  22  46  65  99 135 172 225 294 340 398
#
# _framework density 19.841270000000002
#
# number of rings (size 3 to 8) (size 9 to 14) (size 15 to 20)
#    0.000    1.333    4.000    2.800    1.867    5.333 
#    4.800    2.667    0.000    0.000    0.000    0.000 
#    0.000    0.000    0.000    0.000    0.000    0.000 
#
# Total GULP energy -334728.105800 kJ/mol
# GULP energy per Si atom -5578.801763 kJ/mol
# Density = 1.979611 g / cm^3
# Si number density = 19.841270 Si / 1000 Ang^3
#
#
#
# Elastic Constant Matrix: (Units=GPa)
#
#
# Indices 1 2 3 4 5 6 
#
# 1 95.7923 29.8056 59.0920 0.0000 0.0000 0.0000
# 2 29.8056 95.7927 59.0920 0.0000 0.0000 0.0000
# 3 59.0920 59.0920 153.1564 0.0000 0.0000 0.0000
# 4 0.0000 0.0000 0.0000 42.4560 0.0000 0.0000
# 5 0.0000 0.0000 0.0000 0.0000 42.4545 0.0000
# 6 0.0000 0.0000 0.0000 0.0000 0.0000 16.0232
#
#
#
# Elastic Compliance Matrix: (Units=1/GPa)
#
#
# Indices 1 2 3 4 5 6 
#
# 1 0.013827 -0.001327 -0.004823 0.000000 0.000000 0.000000
# 2 -0.001327 0.013827 -0.004823 0.000000 0.000000 0.000000
# 3 -0.004823 -0.004823 0.010251 0.000000 0.000000 0.000000
# 4 0.000000 0.000000 0.000000 0.023554 0.000000 0.000000
# 5 0.000000 0.000000 0.000000 0.000000 0.023555 0.000000
# 6 0.000000 0.000000 0.000000 0.000000 0.000000 0.062410
#
#
# Mechanical properties :
#
#
# Convention : Reuss Voigt Hill
#
# Bulk Modulus (GPa) = 62.65850 71.19118 66.92484
# Shear Modulus (GPa) = 28.62223 33.30351 30.96287
#
# Velocity S-wave (km/s) = 3.80223 4.10139 3.95464
# Velocity P-wave (km/s) = 7.13613 7.64113 7.39294
#
# Compressibility (1/GPa) = 0.01595953
#
# Stress axis : x y z
#
# Youngs Moduli (GPa) = 72.32042 72.32092 97.55262
#
# Poissons Ratio (x) = 0.09599 0.47049
# Poissons Ratio (y) = 0.09598 0.47048
# Poissons Ratio (z) = 0.34879 0.34879
#
# Static dielectric constant tensor:
#      x y z
#    x 1.736780 0.000000 0.000000 
#    y 0.000000 1.736780 0.000000 
#    z 0.000000 0.000000 1.682800 
# 
# From -- ./inp_files/17361.got.cif
#   From: 2010.05.17/outbox.ucp.g08.bks.cvg/sg91_9_cif.got.tgz:17361.got - 2010.06.11 10:36:11.
