data_PCOD9548845
_publ_section_title
;
Structure prediction by ZEFSAII (Michael W. Deem and Ramdas Pophale) SiO2 
 PCOD9548845
Probable space group: P 41 2 2
;
_chemical_formula_sum "Si O2"
_cell_formula_units_Z 36
_cell_length_a 12.000000
_cell_length_b 12.000000
_cell_length_c 12.000000
_cell_angle_alpha 90.000000
_cell_angle_beta 90.000000
_cell_angle_gamma 90.000000
_cell_volume 1728.000000
_symmetry_space_group_name_H-M "P 41 2 2"
_symmetry_group_IT_number 91
_symmetry_cell_setting 'tetragonal'
loop_
_space_group_symop_operation_xyz
x,y,z
-y,x,1/4+z
-x,-y,1/2+z
y,-x,3/4+z
x,-y,1/2-z
-x,y,-z
y,x,3/4-z
-y,-x,1/4-z
loop_
_atom_site_type_symbol
_atom_site_label
_atom_site_fract_x
_atom_site_fract_y
_atom_site_fract_z
Si Si1 0.370308 0.208832 0.045525
Si Si2 0.793436 0.439847 0.539030
Si Si3 0.550299 0.449701 0.625000
Si Si4 0.686652 0.126817 0.291986
Si Si5 0.369351 0.942812 0.028073
O O1 0.383836 0.242473 0.174155
O O2 0.248899 0.260861 0.007300
O O3 0.352987 0.075419 0.035218
O O4 0.500000 0.232862 0.000000
O O5 0.682895 0.468086 0.609574
O O6 0.857410 0.555583 0.511660
O O7 0.875404 0.359090 0.607453
O O8 0.516199 0.500000 0.750000
O O9 0.695659 0.112262 0.425547
O O10 0.720297 0.000000 0.250000
O O11 0.500000 0.927438 0.000000
#
# Coordination Sequence:
#
# PCOD9548845 Si02
#       5
#     8   8   4   8   8
#     4  11  23  38  65 100 131 173 235 298 353 422
#     4  11  21  40  64  93 131 177 233 290 343 415
#     4  12  26  42  64 100 146 186 228 298 378 440
#     4  11  23  39  62  93 136 182 224 280 355 434
#     4   9  19  38  62  90 124 171 229 283 343 423
#
# _framework density 20.833333
#
# number of rings (size 3 to 8) (size 9 to 14) (size 15 to 20)
#    0.000    1.333    0.000    9.333    0.000    7.111 
#    0.000    0.000    0.000   10.667    0.000    0.000 
#    0.000    0.000    0.000    0.000    0.000    0.000 
#
# Total GULP energy -200656.437412 kJ/mol
# GULP energy per Si atom -5573.789928 kJ/mol
# Density = 2.078592 g / cm^3
# Si number density = 20.833333 Si / 1000 Ang^3
#
#
#
# Elastic Constant Matrix: (Units=GPa)
#
#
# Indices 1 2 3 4 5 6 
#
# 1 117.5405 31.0816 30.8234 0.0000 0.0000 0.0000
# 2 31.0816 117.5398 30.8234 0.0000 0.0000 0.0000
# 3 30.8234 30.8234 117.8188 0.0000 0.0000 0.0000
# 4 0.0000 0.0000 0.0000 30.1675 0.0000 0.0000
# 5 0.0000 0.0000 0.0000 0.0000 30.1675 0.0000
# 6 0.0000 0.0000 0.0000 0.0000 0.0000 35.9838
#
#
#
# Elastic Compliance Matrix: (Units=1/GPa)
#
#
# Indices 1 2 3 4 5 6 
#
# 1 0.009557 -0.002009 -0.001975 0.000000 0.000000 0.000000
# 2 -0.002009 0.009557 -0.001975 0.000000 0.000000 0.000000
# 3 -0.001975 -0.001975 0.009521 0.000000 0.000000 0.000000
# 4 0.000000 0.000000 0.000000 0.033148 0.000000 0.000000
# 5 0.000000 0.000000 0.000000 0.000000 0.033148 0.000000
# 6 0.000000 0.000000 0.000000 0.000000 0.000000 0.027790
#
#
# Mechanical properties :
#
#
# Convention : Reuss Voigt Hill
#
# Bulk Modulus (GPa) = 59.81732 59.81732 59.81732
# Shear Modulus (GPa) = 35.66060 36.60848 36.13454
#
# Velocity S-wave (km/s) = 4.14177 4.19645 4.16920
# Velocity P-wave (km/s) = 7.18658 7.22876 7.20770
#
# Compressibility (1/GPa) = 0.01671757
#
# Stress axis : x y z
#
# Youngs Moduli (GPa) = 104.63701 104.63637 105.03360
#
# Poissons Ratio (x) = 0.21025 0.20739
# Poissons Ratio (y) = 0.21025 0.20740
# Poissons Ratio (z) = 0.20661 0.20661
#
# Static dielectric constant tensor:
#      x y z
#    x 1.764450 0.000000 0.000000 
#    y 0.000000 1.764460 0.000000 
#    z 0.000000 0.000000 1.862290 
# 
# From -- ./inp_files/3504.got.cif
#   From: 2010.05.17/outbox.ucp.g08.bks.cvg/sg91_2_cif.got.tgz:3504.got - 2010.06.11 10:36:11.
