data_PCOD9548770
_publ_section_title
;
Structure prediction by ZEFSAII (Michael W. Deem and Ramdas Pophale) SiO2 
 PCOD9548770
Probable space group: P 41 2 2
;
_chemical_formula_sum "Si O2"
_cell_formula_units_Z 60
_cell_length_a 11.360710
_cell_length_b 11.360710
_cell_length_c 20.082052
_cell_angle_alpha 90.000000
_cell_angle_beta 90.000000
_cell_angle_gamma 90.000000
_cell_volume 2591.904735
_symmetry_space_group_name_H-M "P 41 2 2"
_symmetry_group_IT_number 91
_symmetry_cell_setting 'tetragonal'
loop_
_space_group_symop_operation_xyz
x,y,z
-y,x,1/4+z
-x,-y,1/2+z
y,-x,3/4+z
x,-y,1/2-z
-x,y,-z
y,x,3/4-z
-y,-x,1/4-z
loop_
_atom_site_type_symbol
_atom_site_label
_atom_site_fract_x
_atom_site_fract_y
_atom_site_fract_z
Si Si1 0.379654 0.714476 0.347039
Si Si2 0.906331 0.316290 0.952816
Si Si3 0.904841 0.383085 0.284105
Si Si4 0.822378 0.886590 0.449493
Si Si5 0.556934 0.443067 0.625000
Si Si6 0.178505 0.137418 0.571989
Si Si7 0.261462 0.934652 0.139576
Si Si8 0.779782 0.546254 0.962453
O O1 0.384885 0.793996 0.414401
O O2 0.418898 0.579520 0.356176
O O3 0.251035 0.737697 0.312112
O O4 0.463286 0.772360 0.291769
O O5 0.924545 0.247802 0.883809
O O6 0.810835 0.415722 0.937001
O O7 0.876691 0.208944 0.001539
O O8 0.000000 0.382960 0.000000
O O9 0.947025 0.500000 0.250000
O O10 0.868042 0.312286 0.218180
O O11 0.012438 0.327822 0.325362
O O12 0.859207 0.859207 0.375000
O O13 0.848172 0.021305 0.470955
O O14 0.582004 0.347805 0.683103
O O15 0.051027 0.194654 0.584242
O O16 0.165910 0.834091 0.125000
O O17 0.359737 0.876350 0.187250
#
# Coordination Sequence:
#
# PCOD9548770 Si02
#       8
#     8   8   8   8   4   8   8   8
#     4  11  27  49  77 113 154 203 262 324 395 469
#     4  12  26  47  72 111 154 191 261 315 387 470
#     4  11  28  49  73 112 157 202 261 327 387 474
#     4  12  25  44  76 109 146 209 249 320 391 455
#     4  12  24  52  78 110 152 200 264 330 384 476
#     4  11  25  46  73 109 154 192 259 317 379 475
#     4  11  26  50  73 112 155 203 256 320 396 471
#     4  12  28  48  79 113 152 207 257 326 405 476
#
# _framework density 23.148997000000001
#
# number of rings (size 3 to 8) (size 9 to 14) (size 15 to 20)
#    0.000    0.533    6.000    0.800    9.333    2.133 
#    0.000    0.000    0.000    0.000    0.000    0.000 
#    0.000    0.000    0.000    0.000    0.000    0.000 
#
# Total GULP energy -334562.364037 kJ/mol
# GULP energy per Si atom -5576.039401 kJ/mol
# Density = 2.309631 g / cm^3
# Si number density = 23.148997 Si / 1000 Ang^3
#
#
#
# Elastic Constant Matrix: (Units=GPa)
#
#
# Indices 1 2 3 4 5 6 
#
# 1 134.6842 59.8669 47.4671 0.0000 0.0000 0.0000
# 2 59.8669 134.6844 47.4675 0.0000 0.0000 0.0000
# 3 47.4671 47.4675 39.9168 0.0000 0.0000 0.0000
# 4 0.0000 0.0000 0.0000 182.5128 0.0000 0.0000
# 5 0.0000 0.0000 0.0000 0.0000 182.5523 0.0000
# 6 0.0000 0.0000 0.0000 0.0000 0.0000 60.4747
#
#
#
# Elastic Compliance Matrix: (Units=1/GPa)
#
#
# Indices 1 2 3 4 5 6 
#
# 1 0.012806 -0.000560 -0.014562 0.000000 0.000000 0.000000
# 2 -0.000560 0.012806 -0.014563 0.000000 0.000000 0.000000
# 3 -0.014562 -0.014563 0.059686 0.000000 0.000000 0.000000
# 4 0.000000 0.000000 0.000000 0.005479 0.000000 0.000000
# 5 0.000000 0.000000 0.000000 0.000000 0.005478 0.000000
# 6 0.000000 0.000000 0.000000 0.000000 0.000000 0.016536
#
#
# Mechanical properties :
#
#
# Convention : Reuss Voigt Hill
#
# Bulk Modulus (GPa) = 38.56775 68.76538 53.66657
# Shear Modulus (GPa) = 27.65442 95.40691 61.53066
#
# Velocity S-wave (km/s) = 3.46009 6.42680 5.16120
# Velocity P-wave (km/s) = 5.71487 9.21096 7.66490
#
# Compressibility (1/GPa) = 0.02592840
#
# Stress axis : x y z
#
# Youngs Moduli (GPa) = 78.08902 78.08846 16.75435
#
# Poissons Ratio (x) = 0.04372 0.24398
# Poissons Ratio (y) = 0.04372 0.24399
# Poissons Ratio (z) = 1.13715 1.13716
#
# Static dielectric constant tensor:
#      x y z
#    x 0.643300 0.000000 0.000000 
#    y 0.000000 0.643050 0.000000 
#    z 0.000000 0.000000 3.288580 
# 
# From -- ./inp_files/17359.got.cif
#   From: 2010.05.17/outbox.cif.g08.bks.cpg/sg91_9_cif.got.tgz:17359.got - 2010.06.03 19:20:03.
