data_PCOD9549620
_publ_section_title
;
Structure prediction by ZEFSAII (Michael W. Deem and Ramdas Pophale) SiO2 
 PCOD9549620
Probable space group: P 42 2 2
;
_chemical_formula_sum "Si O2"
_cell_formula_units_Z 40
_cell_length_a 8.156758
_cell_length_b 8.156758
_cell_length_c 25.740653
_cell_angle_alpha 90.000000
_cell_angle_beta 90.000000
_cell_angle_gamma 90.000000
_cell_volume 1712.595171
_symmetry_space_group_name_H-M "P 42 2 2"
_symmetry_group_IT_number 93
_symmetry_cell_setting 'tetragonal'
loop_
_space_group_symop_operation_xyz
x,y,z
-y,x,1/2+z
-x,-y,z
y,-x,1/2+z
x,-y,-z
-x,y,-z
y,x,1/2-z
-y,-x,1/2-z
loop_
_atom_site_type_symbol
_atom_site_label
_atom_site_fract_x
_atom_site_fract_y
_atom_site_fract_z
Si Si1 0.000000 0.741166 0.500000
Si Si2 0.219901 0.219901 0.750000
Si Si3 0.500000 0.000000 0.414444
Si Si4 0.262203 0.000000 0.500000
Si Si5 0.445607 0.310647 0.199200
Si Si6 0.268762 0.902449 0.887900
Si Si7 0.211444 0.095666 0.643681
O O1 0.857008 0.860917 0.521715
O O2 0.916970 0.669038 0.447838
O O3 0.219765 0.394476 0.721229
O O4 0.210468 0.084543 0.705677
O O5 0.375576 0.078239 0.455947
O O6 0.605388 0.119352 0.378510
O O7 0.500000 0.500000 0.186544
O O8 0.328276 0.328276 0.250000
O O9 0.370740 0.212229 0.150820
O O10 0.079477 0.842946 0.879786
O O11 0.243065 0.090158 0.870299
#
# Coordination Sequence:
#
# PCOD9549620 Si02
#       7
#     4   4   4   4   8   8   8
#     4  11  18  40  60  99 136 187 228 305 364 421
#     4  10  25  43  62  94 128 178 232 281 363 432
#     4  11  20  32  56  98 136 178 228 287 352 432
#     4  10  18  32  58  90 138 172 226 290 358 418
#     4   9  23  45  66  92 135 188 236 303 374 450
#     4  11  23  41  65 100 142 178 235 295 374 435
#     4  11  24  36  64 101 134 180 229 298 355 443
#
# _framework density 23.356368
#
# number of rings (size 3 to 8) (size 9 to 14) (size 15 to 20)
#    0.000    1.800    4.000    1.200    8.400    1.600 
#    0.000    0.000    0.000    3.600    0.000    5.600 
#    0.000    0.000    0.000    0.000    0.000    0.000 
#
# Total GULP energy -222889.955576 kJ/mol
# GULP energy per Si atom -5572.248889 kJ/mol
# Density = 2.330321 g / cm^3
# Si number density = 23.356368 Si / 1000 Ang^3
#
#
#
# Elastic Constant Matrix: (Units=GPa)
#
#
# Indices 1 2 3 4 5 6 
#
# 1 76.4634 23.6733 61.5856 0.0000 0.0000 0.0000
# 2 23.6733 76.4634 61.5856 0.0000 0.0000 0.0000
# 3 61.5856 61.5856 220.5335 0.0000 0.0000 0.0000
# 4 0.0000 0.0000 0.0000 25.3630 0.0000 0.0000
# 5 0.0000 0.0000 0.0000 0.0000 25.3630 0.0000
# 6 0.0000 0.0000 0.0000 0.0000 0.0000 33.8536
#
#
#
# Elastic Compliance Matrix: (Units=1/GPa)
#
#
# Indices 1 2 3 4 5 6 
#
# 1 0.017077 -0.001866 -0.004248 0.000000 0.000000 0.000000
# 2 -0.001866 0.017077 -0.004248 0.000000 0.000000 0.000000
# 3 -0.004248 -0.004248 0.006907 0.000000 0.000000 0.000000
# 4 0.000000 0.000000 0.000000 0.039428 0.000000 0.000000
# 5 0.000000 0.000000 0.000000 0.000000 0.039428 0.000000
# 6 0.000000 0.000000 0.000000 0.000000 0.000000 0.029539
#
#
# Mechanical properties :
#
#
# Convention : Reuss Voigt Hill
#
# Bulk Modulus (GPa) = 49.16859 74.12770 61.64815
# Shear Modulus (GPa) = 28.25532 32.02363 30.13948
#
# Velocity S-wave (km/s) = 3.48192 3.70684 3.59614
# Velocity P-wave (km/s) = 6.10427 7.08007 6.61020
#
# Compressibility (1/GPa) = 0.02033819
#
# Stress axis : x y z
#
# Youngs Moduli (GPa) = 58.55770 58.55770 144.78127
#
# Poissons Ratio (x) = 0.10926 0.61502
# Poissons Ratio (y) = 0.10926 0.61502
# Poissons Ratio (z) = 0.24875 0.24875
#
# Static dielectric constant tensor:
#      x y z
#    x 1.979910 0.000000 0.000000 
#    y 0.000000 1.979910 0.000000 
#    z 0.000000 0.000000 1.984470 
# 
# From -- ./inp_files/7353.got.cif
#   From: 2010.05.17/outbox.cif.g08.bks.cpg/sg93_4_cif.got.tgz:7353.got - 2010.06.03 19:38:44.
