data_PCOD9549509
_publ_section_title
;
Structure prediction by ZEFSAII (Michael W. Deem and Ramdas Pophale) SiO2 
 PCOD9549509
Probable space group: P 41 21 2
;
_chemical_formula_sum "Si O2"
_cell_formula_units_Z 24
_cell_length_a 7.272842
_cell_length_b 7.272842
_cell_length_c 20.111292
_cell_angle_alpha 90.000000
_cell_angle_beta 90.000000
_cell_angle_gamma 90.000000
_cell_volume 1063.771320
_symmetry_space_group_name_H-M "P 41 21 2"
_symmetry_group_IT_number 92
_symmetry_cell_setting 'tetragonal'
loop_
_space_group_symop_operation_xyz
x,y,z
1/2-y,1/2+x,1/4+z
-x,-y,1/2+z
1/2+y,1/2-x,3/4+z
1/2+x,1/2-y,3/4-z
1/2-x,1/2+y,1/4-z
y,x,-z
-y,-x,1/2-z
loop_
_atom_site_type_symbol
_atom_site_label
_atom_site_fract_x
_atom_site_fract_y
_atom_site_fract_z
Si Si1 0.993326 0.617510 0.134600
Si Si2 0.506786 0.410635 0.323683
Si Si3 0.896338 0.639240 0.521307
O O1 0.994992 0.837024 0.121471
O O2 0.782709 0.556421 0.145727
O O3 0.078780 0.529603 0.069084
O O4 0.095003 0.527309 0.198233
O O5 0.599690 0.400311 0.250000
O O6 0.317558 0.520767 0.308462
O O7 0.690177 0.690177 0.500000
#
# Coordination Sequence:
#
# PCOD9549509 Si02
#       3
#     8   8   8
#     4  12  24  48  77 112 155 198 252 320 378 458
#     4  11  24  47  74 113 149 194 255 313 384 454
#     4  11  28  44  73 109 154 195 252 310 377 452
#
# _framework density 22.561240999999999
#
# number of rings (size 3 to 8) (size 9 to 14) (size 15 to 20)
#    0.000    0.667    6.667    0.000    9.333    0.000 
#    0.000    1.667    0.000    0.000    0.000    0.000 
#    0.000    0.000    0.000    0.000    0.000    0.000 
#
# Total GULP energy -133815.211922 kJ/mol
# GULP energy per Si atom -5575.633830 kJ/mol
# Density = 2.250989 g / cm^3
# Si number density = 22.561241 Si / 1000 Ang^3
#
#
#
# Elastic Constant Matrix: (Units=GPa)
#
#
# Indices 1 2 3 4 5 6 
#
# 1 101.4503 51.0069 39.1551 0.0000 0.0000 0.0000
# 2 51.0069 101.4500 39.1547 0.0000 0.0000 0.0000
# 3 39.1551 39.1547 133.4158 0.0000 0.0000 0.0000
# 4 0.0000 0.0000 0.0000 39.2989 0.0000 0.0000
# 5 0.0000 0.0000 0.0000 0.0000 39.2990 0.0000
# 6 0.0000 0.0000 0.0000 0.0000 0.0000 27.4387
#
#
#
# Elastic Compliance Matrix: (Units=1/GPa)
#
#
# Indices 1 2 3 4 5 6 
#
# 1 0.013774 -0.006050 -0.002267 0.000000 0.000000 0.000000
# 2 -0.006050 0.013774 -0.002267 0.000000 0.000000 0.000000
# 3 -0.002267 -0.002267 0.008826 0.000000 0.000000 0.000000
# 4 0.000000 0.000000 0.000000 0.025446 0.000000 0.000000
# 5 0.000000 0.000000 0.000000 0.000000 0.025446 0.000000
# 6 0.000000 0.000000 0.000000 0.000000 0.000000 0.036445
#
#
# Mechanical properties :
#
#
# Convention : Reuss Voigt Hill
#
# Bulk Modulus (GPa) = 65.76326 66.10552 65.93439
# Shear Modulus (GPa) = 33.34520 35.00729 34.17624
#
# Velocity S-wave (km/s) = 3.84863 3.94338 3.89629
# Velocity P-wave (km/s) = 6.99724 7.07798 7.03772
#
# Compressibility (1/GPa) = 0.01520606
#
# Stress axis : x y z
#
# Youngs Moduli (GPa) = 72.60117 72.60113 113.30381
#
# Poissons Ratio (x) = 0.43926 0.25683
# Poissons Ratio (y) = 0.43926 0.25682
# Poissons Ratio (z) = 0.16457 0.16456
#
# Static dielectric constant tensor:
#      x y z
#    x 1.872920 0.000000 0.000000 
#    y 0.000000 1.872920 0.000000 
#    z 0.000000 0.000000 1.902490 
# 
# From -- ./inp_files/2451.got.cif
#   From: 2010.05.17/outbox.cif.g08.bks.cpg/sg92_2_cif.got.tgz:2451.got - 2010.06.03 19:35:17.
