data_PCOD9549687
_publ_section_title
;
Structure prediction by ZEFSAII (Michael W. Deem and Ramdas Pophale) SiO2 
 PCOD9549687
Probable space group: P 42 2 2
;
_chemical_formula_sum "Si O2"
_cell_formula_units_Z 40
_cell_length_a 15.118198
_cell_length_b 15.118198
_cell_length_c 8.016522
_cell_angle_alpha 90.000000
_cell_angle_beta 90.000000
_cell_angle_gamma 90.000000
_cell_volume 1832.255553
_symmetry_space_group_name_H-M "P 42 2 2"
_symmetry_group_IT_number 93
_symmetry_cell_setting 'tetragonal'
loop_
_space_group_symop_operation_xyz
x,y,z
-y,x,1/2+z
-x,-y,z
y,-x,1/2+z
x,-y,-z
-x,y,-z
y,x,1/2-z
-y,-x,1/2-z
loop_
_atom_site_type_symbol
_atom_site_label
_atom_site_fract_x
_atom_site_fract_y
_atom_site_fract_z
Si Si1 0.805281 0.605631 0.170619
Si Si2 0.175021 0.076798 0.103521
Si Si3 0.758804 0.278678 0.501540
Si Si4 0.997096 0.340062 0.810883
Si Si5 0.560501 0.829914 0.828941
O O1 0.769907 0.665563 0.021074
O O2 0.778753 0.665858 0.328930
O O3 0.911072 0.598305 0.174385
O O4 0.779251 0.505605 0.204047
O O5 0.117103 0.117103 0.250000
O O6 0.208613 0.160722 0.994984
O O7 0.261227 0.029308 0.185746
O O8 0.128913 0.000000 0.000000
O O9 0.769897 0.354805 0.368079
O O10 0.079737 0.395888 0.742377
O O11 0.000000 0.303054 0.000000
O O12 0.500000 0.845485 0.000000
#
# Coordination Sequence:
#
# PCOD9549687 Si02
#       5
#     8   8   8   8   8
#     4   9  18  31  50  79 127 163 213 269 328 388
#     4  11  20  38  65  88 119 171 230 278 337 403
#     4   9  16  32  54  84 113 171 222 263 321 411
#     4  11  22  34  56  92 126 165 212 282 346 397
#     4  10  20  32  56  87 124 177 225 266 343 423
#
# _framework density 21.831016000000002
#
# number of rings (size 3 to 8) (size 9 to 14) (size 15 to 20)
#    0.000    2.000    6.000    0.600    0.000    5.600 
#    0.000    4.000    0.000    1.800    0.000    0.000 
#    0.000    0.000   34.000  188.600    2.000    0.000 
#
# Total GULP energy -223182.579957 kJ/mol
# GULP energy per Si atom -5579.564499 kJ/mol
# Density = 2.178133 g / cm^3
# Si number density = 21.831016 Si / 1000 Ang^3
#
#
#
# Elastic Constant Matrix: (Units=GPa)
#
#
# Indices 1 2 3 4 5 6 
#
# 1 108.0386 76.3960 28.0526 0.0000 0.0000 0.0000
# 2 76.3960 108.0386 28.0526 0.0000 0.0000 0.0000
# 3 28.0526 28.0526 71.2845 0.0000 0.0000 0.0000
# 4 0.0000 0.0000 0.0000 30.0413 0.0000 0.0000
# 5 0.0000 0.0000 0.0000 0.0000 30.0413 0.0000
# 6 0.0000 0.0000 0.0000 0.0000 0.0000 25.9869
#
#
#
# Elastic Compliance Matrix: (Units=1/GPa)
#
#
# Indices 1 2 3 4 5 6 
#
# 1 0.018881 -0.012722 -0.002424 0.000000 0.000000 0.000000
# 2 -0.012722 0.018881 -0.002424 0.000000 0.000000 0.000000
# 3 -0.002424 -0.002424 0.015936 0.000000 0.000000 0.000000
# 4 0.000000 0.000000 0.000000 0.033287 0.000000 0.000000
# 5 0.000000 0.000000 0.000000 0.000000 0.033287 0.000000
# 6 0.000000 0.000000 0.000000 0.000000 0.000000 0.038481
#
#
# Mechanical properties :
#
#
# Convention : Reuss Voigt Hill
#
# Bulk Modulus (GPa) = 53.88174 61.37378 57.62776
# Shear Modulus (GPa) = 24.99002 27.53794 26.26398
#
# Velocity S-wave (km/s) = 3.38702 3.55549 3.47228
# Velocity P-wave (km/s) = 6.32698 6.71040 6.52151
#
# Compressibility (1/GPa) = 0.01855916
#
# Stress axis : x y z
#
# Youngs Moduli (GPa) = 52.96279 52.96279 62.75093
#
# Poissons Ratio (x) = 0.67379 0.15210
# Poissons Ratio (y) = 0.67379 0.15210
# Poissons Ratio (z) = 0.12838 0.12838
#
# Static dielectric constant tensor:
#      x y z
#    x 1.804520 0.000000 0.000000 
#    y 0.000000 1.804520 0.000000 
#    z 0.000000 0.000000 1.988060 
# 
# From -- ./inp_files/1837.got.cif
#   From: 2010.05.17/outbox.cif.g08.bks.cpg/sg93_1_cif.got.tgz:1837.got - 2010.06.03 19:38:44.
