data_PCOD9549536
_publ_section_title
;
Structure prediction by ZEFSAII (Michael W. Deem and Ramdas Pophale) SiO2 
 PCOD9549536
Probable space group: P 41 21 2
;
_chemical_formula_sum "Si O2"
_cell_formula_units_Z 24
_cell_length_a 8.088536
_cell_length_b 8.088536
_cell_length_c 14.809705
_cell_angle_alpha 90.000000
_cell_angle_beta 90.000000
_cell_angle_gamma 90.000000
_cell_volume 968.916280
_symmetry_space_group_name_H-M "P 41 21 2"
_symmetry_group_IT_number 92
_symmetry_cell_setting 'tetragonal'
loop_
_space_group_symop_operation_xyz
x,y,z
1/2-y,1/2+x,1/4+z
-x,-y,1/2+z
1/2+y,1/2-x,3/4+z
1/2+x,1/2-y,3/4-z
1/2-x,1/2+y,1/4-z
y,x,-z
-y,-x,1/2-z
loop_
_atom_site_type_symbol
_atom_site_label
_atom_site_fract_x
_atom_site_fract_y
_atom_site_fract_z
Si Si1 0.662828 0.855843 0.789394
Si Si2 0.471648 0.561950 0.848832
Si Si3 0.298757 0.132444 0.082289
O O1 0.613155 0.700976 0.850876
O O2 0.667326 0.809292 0.684376
O O3 0.843615 0.910284 0.821994
O O4 0.554314 0.023978 0.803387
O O5 0.395991 0.604010 0.750000
O O6 0.535649 0.374175 0.843313
O O7 0.256253 0.256253 0.000000
#
# Coordination Sequence:
#
# PCOD9549536 Si02
#       3
#     8   8   8
#     4  12  26  51  80 115 163 209 269 334 412 482
#     4  11  26  49  75 119 157 209 270 332 401 481
#     4  11  26  49  80 114 159 212 268 329 403 486
#
# _framework density 24.769943000000001
#
# number of rings (size 3 to 8) (size 9 to 14) (size 15 to 20)
#    0.000    0.667    3.333    3.000    4.667   10.667 
#    0.000    0.000    0.000    0.000    0.000    0.000 
#    0.000    0.000    0.000    0.000    0.000    0.000 
#
# Total GULP energy -133954.970455 kJ/mol
# GULP energy per Si atom -5581.457102 kJ/mol
# Density = 2.471357 g / cm^3
# Si number density = 24.769943 Si / 1000 Ang^3
#
#
#
# Elastic Constant Matrix: (Units=GPa)
#
#
# Indices 1 2 3 4 5 6 
#
# 1 1523.6094-1322.6569 34.6722 0.0000 0.0000 0.0000
# 2 -1322.6569 1523.6391 34.6614 0.0000 0.0000 0.0000
# 3 34.6722 34.6614 142.6386 0.0000 0.0000 0.0000
# 4 0.0000 0.0000 0.0000 26.4209 0.0000 0.0000
# 5 0.0000 0.0000 0.0000 0.0000 26.4211 0.0000
# 6 0.0000 0.0000 0.0000 0.0000 0.0000 31.2873
#
#
#
# Elastic Compliance Matrix: (Units=1/GPa)
#
#
# Indices 1 2 3 4 5 6 
#
# 1 0.002891 0.002540 -0.001320 0.000000 0.000000 0.000000
# 2 0.002540 0.002891 -0.001320 0.000000 0.000000 0.000000
# 3 -0.001320 -0.001320 0.007652 0.000000 0.000000 0.000000
# 4 0.000000 0.000000 0.000000 0.037849 0.000000 0.000000
# 5 0.000000 0.000000 0.000000 0.000000 0.037849 0.000000
# 6 0.000000 0.000000 0.000000 0.000000 0.000000 0.031962
#
#
# Mechanical properties :
#
#
# Convention : Reuss Voigt Hill
#
# Bulk Modulus (GPa) = 75.55764 75.91560 75.73662
# Shear Modulus (GPa) = 39.77536 313.03989 176.40763
#
# Velocity S-wave (km/s) = 4.01158 11.25403 8.44826
# Velocity P-wave (km/s) = 7.21298 14.12749 11.21635
#
# Compressibility (1/GPa) = 0.01323493
#
# Stress axis : x y z
#
# Youngs Moduli (GPa) = 345.85652 345.86450 130.67858
#
# Poissons Ratio (x) = -0.87850 0.17250
# Poissons Ratio (y) = -0.87848 0.17250
# Poissons Ratio (z) = 0.45655 0.45654
#
# Static dielectric constant tensor:
#      x y z
#    x 2.147680 0.000000 0.000000 
#    y 0.000000 2.147680 0.000000 
#    z 0.000000 0.000000 1.914210 
# 
# From -- ./inp_files/2437.got.cif
#   From: 2010.05.17/outbox.cif.g08.bks.cpg/sg92_2_cif.got.tgz:2437.got - 2010.06.03 19:35:17.
