data_PCOD9549198
_publ_section_title
;
Structure prediction by ZEFSAII (Michael W. Deem and Ramdas Pophale) SiO2 
 PCOD9549198
Probable space group: P 41 21 2
;
_chemical_formula_sum "Si O2"
_cell_formula_units_Z 40
_cell_length_a 7.661187
_cell_length_b 7.661187
_cell_length_c 28.146321
_cell_angle_alpha 90.000000
_cell_angle_beta 90.000000
_cell_angle_gamma 90.000000
_cell_volume 1652.014148
_symmetry_space_group_name_H-M "P 41 21 2"
_symmetry_group_IT_number 92
_symmetry_cell_setting 'tetragonal'
loop_
_space_group_symop_operation_xyz
x,y,z
1/2-y,1/2+x,1/4+z
-x,-y,1/2+z
1/2+y,1/2-x,3/4+z
1/2+x,1/2-y,3/4-z
1/2-x,1/2+y,1/4-z
y,x,-z
-y,-x,1/2-z
loop_
_atom_site_type_symbol
_atom_site_label
_atom_site_fract_x
_atom_site_fract_y
_atom_site_fract_z
Si Si1 0.327674 0.070230 0.285609
Si Si2 0.948654 0.189728 0.294390
Si Si3 0.044115 0.431336 0.064894
Si Si4 0.917010 0.096446 0.856951
Si Si5 0.568792 0.534520 0.197088
O O1 0.396912 0.975871 0.239039
O O2 0.455624 0.220571 0.304423
O O3 0.144030 0.165910 0.271933
O O4 0.257719 0.940879 0.326186
O O5 0.820366 0.179635 0.250000
O O6 0.957617 0.369158 0.322429
O O7 0.940427 0.027895 0.330315
O O8 0.203986 0.465340 0.099780
O O9 0.996740 0.227867 0.066430
O O10 0.908220 0.024618 0.909780
O O11 0.511866 0.488135 0.250000
#
# Coordination Sequence:
#
# PCOD9549198 Si02
#       5
#     8   8   8   8   8
#     4   9  20  44  67  90 145 185 225 305 373 418
#     4   9  19  41  72 101 139 187 236 290 370 438
#     4  11  21  44  75 103 134 201 230 307 385 419
#     4  10  21  46  67  98 153 182 237 308 368 435
#     4  11  25  43  67 108 137 185 264 297 358 466
#
# _framework density 24.212866999999999
#
# number of rings (size 3 to 8) (size 9 to 14) (size 15 to 20)
#    1.200    0.800    2.000    1.800    0.000    2.400 
#   14.400    0.000    0.000    0.000    0.000    0.000 
#    0.000    0.000    0.000    0.000    0.000    0.000 
#
# Total GULP energy -223629.383391 kJ/mol
# GULP energy per Si atom -5590.734585 kJ/mol
# Density = 2.415776 g / cm^3
# Si number density = 24.212867 Si / 1000 Ang^3
#
#
#
# Elastic Constant Matrix: (Units=GPa)
#
#
# Indices 1 2 3 4 5 6 
#
# 1 68.3159 24.4415 -4.2478 0.0000 0.0000 0.0000
# 2 24.4415 68.3157 -4.2488 0.0000 0.0000 0.0000
# 3 -4.2478 -4.2488 72.9744 0.0000 0.0000 0.0000
# 4 0.0000 0.0000 0.0000 22.5967 0.0000 0.0000
# 5 0.0000 0.0000 0.0000 0.0000 22.5968 0.0000
# 6 0.0000 0.0000 0.0000 0.0000 0.0000 27.3279
#
#
#
# Elastic Compliance Matrix: (Units=1/GPa)
#
#
# Indices 1 2 3 4 5 6 
#
# 1 0.016815 -0.005977 0.000631 0.000000 0.000000 0.000000
# 2 -0.005977 0.016816 0.000631 0.000000 0.000000 0.000000
# 3 0.000631 0.000631 0.013777 0.000000 0.000000 0.000000
# 4 0.000000 0.000000 0.000000 0.044254 0.000000 0.000000
# 5 0.000000 0.000000 0.000000 0.000000 0.044254 0.000000
# 6 0.000000 0.000000 0.000000 0.000000 0.000000 0.036593
#
#
# Mechanical properties :
#
#
# Convention : Reuss Voigt Hill
#
# Bulk Modulus (GPa) = 26.33097 26.83286 26.58192
# Shear Modulus (GPa) = 25.69398 27.41502 26.55450
#
# Velocity S-wave (km/s) = 3.26110 3.36854 3.31525
# Velocity P-wave (km/s) = 5.00780 5.12207 5.06525
#
# Compressibility (1/GPa) = 0.03797809
#
# Stress axis : x y z
#
# Youngs Moduli (GPa) = 59.46903 59.46878 72.58527
#
# Poissons Ratio (x) = 0.35544 -0.04579
# Poissons Ratio (y) = 0.35544 -0.04581
# Poissons Ratio (z) = -0.03751 -0.03753
#
# Static dielectric constant tensor:
#      x y z
#    x 1.950790 0.000000 0.000000 
#    y 0.000000 1.950790 0.000000 
#    z 0.000000 0.000000 1.880580 
# 
# From -- ./inp_files/4121.got.cif
#   From: 2010.05.17/outbox.cif.g08.bks.cpg/sg92_3_cif.got.tgz:4121.got - 2010.06.03 19:35:17.
