data_PCOD9549303
_publ_section_title
;
Structure prediction by ZEFSAII (Michael W. Deem and Ramdas Pophale) SiO2 
 PCOD9549303
Probable space group: P 41 21 2
;
_chemical_formula_sum "Si O2"
_cell_formula_units_Z 48
_cell_length_a 16.709954
_cell_length_b 16.709954
_cell_length_c 6.662950
_cell_angle_alpha 90.000000
_cell_angle_beta 90.000000
_cell_angle_gamma 90.000000
_cell_volume 1860.445974
_symmetry_space_group_name_H-M "P 41 21 2"
_symmetry_group_IT_number 92
_symmetry_cell_setting 'tetragonal'
loop_
_space_group_symop_operation_xyz
x,y,z
1/2-y,1/2+x,1/4+z
-x,-y,1/2+z
1/2+y,1/2-x,3/4+z
1/2+x,1/2-y,3/4-z
1/2-x,1/2+y,1/4-z
y,x,-z
-y,-x,1/2-z
loop_
_atom_site_type_symbol
_atom_site_label
_atom_site_fract_x
_atom_site_fract_y
_atom_site_fract_z
Si Si1 0.010172 0.858185 0.693489
Si Si2 0.830015 0.701603 0.198679
Si Si3 0.431118 0.652150 0.506637
Si Si4 0.083585 0.694137 0.607464
Si Si5 0.404708 0.285605 0.060071
Si Si6 0.097580 0.535839 0.134666
O O1 0.086362 0.913638 0.750000
O O2 0.972794 0.853574 0.465554
O O3 0.039602 0.767065 0.720159
O O4 0.936611 0.901140 0.804007
O O5 0.750287 0.662243 0.291300
O O6 0.850766 0.794195 0.221595
O O7 0.901223 0.664550 0.331392
O O8 0.831878 0.662537 0.977016
O O9 0.503396 0.698453 0.621049
O O10 0.098711 0.728438 0.384702
O O11 0.020742 0.623181 0.569098
O O12 0.372234 0.372234 0.000000
O O13 0.018633 0.582598 0.193371
#
# Coordination Sequence:
#
# PCOD9549303 Si02
#       6
#     8   8   8   8   8   8
#     4  10  22  45  76 104 154 202 265 330 380 467
#     4  12  24  45  76 110 153 196 254 315 390 469
#     4  10  23  47  74 111 151 203 260 319 395 458
#     4  11  26  45  74 112 149 198 260 312 397 460
#     4  11  25  45  77 102 149 199 248 321 391 457
#     4  12  23  45  73 107 149 199 252 316 380 469
#
# _framework density 25.800263000000001
#
# number of rings (size 3 to 8) (size 9 to 14) (size 15 to 20)
#    0.000    1.000    5.000    1.500    7.000    1.333 
#    0.000    0.000    7.333    0.000    0.000    0.000 
#    0.000    0.000    0.000    0.000    0.000    0.000 
#
# Total GULP energy -268354.478541 kJ/mol
# GULP energy per Si atom -5590.718303 kJ/mol
# Density = 2.574154 g / cm^3
# Si number density = 25.800263 Si / 1000 Ang^3
#
#
#
# Elastic Constant Matrix: (Units=GPa)
#
#
# Indices 1 2 3 4 5 6 
#
# 1 126.2328 -32.8375 5.7172 0.0000 0.0000 0.0000
# 2 -32.8375 126.2262 5.7178 0.0000 0.0000 0.0000
# 3 5.7172 5.7178 78.4554 0.0000 0.0000 0.0000
# 4 0.0000 0.0000 0.0000 36.5043 0.0000 0.0000
# 5 0.0000 0.0000 0.0000 0.0000 36.5046 0.0000
# 6 0.0000 0.0000 0.0000 0.0000 0.0000 54.0861
#
#
#
# Elastic Compliance Matrix: (Units=1/GPa)
#
#
# Indices 1 2 3 4 5 6 
#
# 1 0.008545 0.002259 -0.000787 0.000000 0.000000 0.000000
# 2 0.002259 0.008546 -0.000787 0.000000 0.000000 0.000000
# 3 -0.000787 -0.000787 0.012861 0.000000 0.000000 0.000000
# 4 0.000000 0.000000 0.000000 0.027394 0.000000 0.000000
# 5 0.000000 0.000000 0.000000 0.000000 0.027394 0.000000
# 6 0.000000 0.000000 0.000000 0.000000 0.000000 0.018489
#
#
# Mechanical properties :
#
#
# Convention : Reuss Voigt Hill
#
# Bulk Modulus (GPa) = 31.92914 32.01218 31.97066
# Shear Modulus (GPa) = 44.52352 48.90680 46.71516
#
# Velocity S-wave (km/s) = 4.15866 4.35856 4.25979
# Velocity P-wave (km/s) = 5.95497 6.14525 6.05086
#
# Compressibility (1/GPa) = 0.03131935
#
# Stress axis : x y z
#
# Youngs Moduli (GPa) = 117.02640 117.02014 77.75538
#
# Poissons Ratio (x) = -0.26431 0.06122
# Poissons Ratio (y) = -0.26432 0.06122
# Poissons Ratio (z) = 0.09214 0.09214
#
# Static dielectric constant tensor:
#      x y z
#    x 2.012890 0.000000 0.000000 
#    y 0.000000 2.012890 0.000000 
#    z 0.000000 0.000000 2.167350 
# 
# From -- ./inp_files/635.got.cif
#   From: 2010.05.17/outbox.cif.g08.bks.cpg/sg92_1_cif.got.tgz:635.got - 2010.06.03 19:35:17.
