data_PCOD9549955
_publ_section_title
;
Structure prediction by ZEFSAII (Michael W. Deem and Ramdas Pophale) SiO2 
 PCOD9549955
Probable space group: P 42 21 2
;
_chemical_formula_sum "Si O2"
_cell_formula_units_Z 28
_cell_length_a 12.421821
_cell_length_b 12.421821
_cell_length_c 7.367972
_cell_angle_alpha 90.000000
_cell_angle_beta 90.000000
_cell_angle_gamma 90.000000
_cell_volume 1136.890141
_symmetry_space_group_name_H-M "P 42 21 2"
_symmetry_group_IT_number 94
_symmetry_cell_setting 'tetragonal'
loop_
_space_group_symop_operation_xyz
x,y,z
1/2-y,1/2+x,1/2+z
-x,-y,z
1/2+y,1/2-x,1/2+z
1/2+x,1/2-y,1/2-z
1/2-x,1/2+y,1/2-z
y,x,-z
-y,-x,-z
loop_
_atom_site_type_symbol
_atom_site_label
_atom_site_fract_x
_atom_site_fract_y
_atom_site_fract_z
Si Si1 0.389403 0.062662 0.738870
Si Si2 0.868884 0.253942 0.340717
Si Si3 0.260487 0.044989 0.101402
Si Si4 0.599694 0.599694 0.500000
O O1 0.439197 0.170376 0.655664
O O2 0.500000 0.000000 0.793996
O O3 0.319260 0.980406 0.615578
O O4 0.311947 0.081673 0.909036
O O5 0.819978 0.180023 0.500000
O O6 0.786373 0.349307 0.284207
O O7 0.891032 0.184619 0.162885
O O8 0.137627 0.009390 0.097766
#
# Coordination Sequence:
#
# PCOD9549955 Si02
#       4
#     8   8   8   4
#     4   9  17  30  52  79 105 135 174 222 273 322
#     4  10  20  34  54  80 111 143 175 220 279 332
#     4  10  19  34  53  78 109 143 183 230 278 325
#     4  10  22  34  51  82 107 138 186 226 268 334
#
# _framework density 24.628589000000002
#
# number of rings (size 3 to 8) (size 9 to 14) (size 15 to 20)
#    0.000    2.286    0.000    4.286    0.000    4.571 
#    0.000    0.714    0.000    0.000    0.000   31.000 
#    0.000    0.000    0.000    0.000    0.000    0.000 
#
# Total GULP energy -156254.128414 kJ/mol
# GULP energy per Si atom -5580.504586 kJ/mol
# Density = 2.457253 g / cm^3
# Si number density = 24.628589 Si / 1000 Ang^3
#
#
#
# Elastic Constant Matrix: (Units=GPa)
#
#
# Indices 1 2 3 4 5 6 
#
# 1 30.9313 41.6128 -1.2287 0.0000 0.0000 0.0000
# 2 41.6128 30.9328 -1.2293 0.0000 0.0000 0.0000
# 3 -1.2287 -1.2293 46.7022 0.0000 0.0000 0.0000
# 4 0.0000 0.0000 0.0000 33.2461 0.0000 0.0000
# 5 0.0000 0.0000 0.0000 0.0000 33.2458 0.0000
# 6 0.0000 0.0000 0.0000 0.0000 0.0000 65.3284
#
#
#
# Elastic Compliance Matrix: (Units=1/GPa)
#
#
# Indices 1 2 3 4 5 6 
#
# 1 -0.039916 0.053712 0.000364 0.000000 0.000000 0.000000
# 2 0.053712 -0.039914 0.000362 0.000000 0.000000 0.000000
# 3 0.000364 0.000362 0.021431 0.000000 0.000000 0.000000
# 4 0.000000 0.000000 0.000000 0.030079 0.000000 0.000000
# 5 0.000000 0.000000 0.000000 0.000000 0.030079 0.000000
# 6 0.000000 0.000000 0.000000 0.000000 0.000000 0.015307
#
#
# Mechanical properties :
#
#
# Convention : Reuss Voigt Hill
#
# Bulk Modulus (GPa) = 19.81086 20.76401 20.28744
# Shear Modulus (GPa) = -66.68108 30.99149 -17.84479
#
# Velocity S-wave (km/s) = -5.20898 3.55118 -2.69468
# Velocity P-wave (km/s) = 5.30251 5.02629 1.19436
#
# Compressibility (1/GPa) = 0.05047736
#
# Stress axis : x y z
#
# Youngs Moduli (GPa) = -25.05265 -25.05385 46.66060
#
# Poissons Ratio (x) = 1.34569 -0.01697
# Poissons Ratio (y) = 1.34562 -0.01691
# Poissons Ratio (z) = 0.00911 0.00908
#
# Static dielectric constant tensor:
#      x y z
#    x 2.098620 0.000000 0.000000 
#    y 0.000000 2.098620 0.000000 
#    z 0.000000 0.000000 2.032010 
# 
# From -- ./inp_files/1098.got.cif
#   From: 2010.05.17/outbox.cif.g08.bks.cpg/sg94_1_cif.got.tgz:1098.got - 2010.06.03 19:43:16.
