data_PCOD9549993
_publ_section_title
;
Structure prediction by ZEFSAII (Michael W. Deem and Ramdas Pophale) SiO2 
 PCOD9549993
Probable space group: P 42 21 2
;
_chemical_formula_sum "Si O2"
_cell_formula_units_Z 64
_cell_length_a 13.833362
_cell_length_b 13.833362
_cell_length_c 15.014169
_cell_angle_alpha 90.000000
_cell_angle_beta 90.000000
_cell_angle_gamma 90.000000
_cell_volume 2873.139970
_symmetry_space_group_name_H-M "P 42 21 2"
_symmetry_group_IT_number 94
_symmetry_cell_setting 'tetragonal'
loop_
_space_group_symop_operation_xyz
x,y,z
1/2-y,1/2+x,1/2+z
-x,-y,z
1/2+y,1/2-x,1/2+z
1/2+x,1/2-y,1/2-z
1/2-x,1/2+y,1/2-z
y,x,-z
-y,-x,-z
loop_
_atom_site_type_symbol
_atom_site_label
_atom_site_fract_x
_atom_site_fract_y
_atom_site_fract_z
Si Si1 0.686751 0.533804 0.780932
Si Si2 0.960707 0.605415 0.241877
Si Si3 0.322135 0.211422 0.657005
Si Si4 0.082707 0.852013 0.090595
Si Si5 0.677146 0.598071 0.088708
Si Si6 0.423153 0.136483 0.491017
Si Si7 0.391067 0.920757 0.449187
Si Si8 0.649681 0.374899 0.106099
O O1 0.802669 0.520991 0.775830
O O2 0.645076 0.517744 0.680176
O O3 0.659938 0.633689 0.830082
O O4 0.644117 0.452533 0.846063
O O5 0.849217 0.629335 0.265282
O O6 0.955840 0.608010 0.135505
O O7 0.000000 0.500000 0.269217
O O8 0.367990 0.313313 0.635644
O O9 0.350549 0.145484 0.573277
O O10 0.205747 0.217356 0.653643
O O11 0.081660 0.741083 0.055715
O O12 0.082820 0.917181 0.000000
O O13 0.785596 0.622881 0.056904
O O14 0.676254 0.486350 0.117848
O O15 0.612565 0.612565 0.000000
O O16 0.533776 0.115687 0.523750
O O17 0.385561 0.036550 0.448187
O O18 0.644306 0.355695 0.000000
#
# Coordination Sequence:
#
# PCOD9549993 Si02
#       8
#     8   8   8   8   8   8   8   8
#     4  11  23  38  63  95 131 175 220 273 334 396
#     4  11  22  39  60  90 135 169 214 276 331 390
#     4  10  22  34  63  96 125 169 221 272 323 409
#     4  10  19  39  62  91 128 171 224 265 316 391
#     4  12  25  39  64  95 132 170 212 277 343 397
#     4  10  20  37  63  92 124 169 215 269 323 385
#     4  11  21  38  61  87 132 167 212 267 339 389
#     4  11  21  40  62  92 130 168 218 276 339 398
#
# _framework density 22.275281
#
# number of rings (size 3 to 8) (size 9 to 14) (size 15 to 20)
#    0.000    1.250    3.750    3.750    3.500    0.000 
#    0.000    0.000    0.000   10.500    0.000    0.000 
#    0.000    0.000    0.000    0.000    0.000    0.000 
#
# Total GULP energy -356767.415686 kJ/mol
# GULP energy per Si atom -5574.490870 kJ/mol
# Density = 2.222458 g / cm^3
# Si number density = 22.275281 Si / 1000 Ang^3
#
#
#
# Elastic Constant Matrix: (Units=GPa)
#
#
# Indices 1 2 3 4 5 6 
#
# 1 69.1082 20.3092 -0.2354 0.0000 0.0000 0.0000
# 2 20.3092 69.1078 -0.2354 0.0000 0.0000 0.0000
# 3 -0.2354 -0.2354 74.0906 0.0000 0.0000 0.0000
# 4 0.0000 0.0000 0.0000 18.9046 0.0000 0.0000
# 5 0.0000 0.0000 0.0000 0.0000 18.9046 0.0000
# 6 0.0000 0.0000 0.0000 0.0000 0.0000 19.6613
#
#
#
# Elastic Compliance Matrix: (Units=1/GPa)
#
#
# Indices 1 2 3 4 5 6 
#
# 1 0.015838 -0.004654 0.000036 0.000000 0.000000 0.000000
# 2 -0.004654 0.015838 0.000036 0.000000 0.000000 0.000000
# 3 0.000036 0.000036 0.013497 0.000000 0.000000 0.000000
# 4 0.000000 0.000000 0.000000 0.052897 0.000000 0.000000
# 5 0.000000 0.000000 0.000000 0.000000 0.052897 0.000000
# 6 0.000000 0.000000 0.000000 0.000000 0.000000 0.050861
#
#
# Mechanical properties :
#
#
# Convention : Reuss Voigt Hill
#
# Bulk Modulus (GPa) = 27.77254 27.99815 27.88534
# Shear Modulus (GPa) = 22.42174 24.32530 23.37352
#
# Velocity S-wave (km/s) = 3.17610 3.30817 3.24281
# Velocity P-wave (km/s) = 5.09363 5.21426 5.15430
#
# Compressibility (1/GPa) = 0.03600679
#
# Stress axis : x y z
#
# Youngs Moduli (GPa) = 63.13938 63.13907 74.08939
#
# Poissons Ratio (x) = 0.29387 -0.00263
# Poissons Ratio (y) = 0.29387 -0.00263
# Poissons Ratio (z) = -0.00224 -0.00224
#
# Static dielectric constant tensor:
#      x y z
#    x 1.895880 0.000000 0.000000 
#    y 0.000000 1.895880 0.000000 
#    z 0.000000 0.000000 1.951590 
# 
# From -- ./inp_files/4240.got.cif
#   From: 2010.05.17/outbox.cif.g08.bks.cpg/sg94_3_cif.got.tgz:4240.got - 2010.06.03 19:43:16.
