data_PCOD9549592
_publ_section_title
;
Structure prediction by ZEFSAII (Michael W. Deem and Ramdas Pophale) SiO2 
 PCOD9549592
Probable space group: P 42 2 2
;
_chemical_formula_sum "Si O2"
_cell_formula_units_Z 40
_cell_length_a 15.378659
_cell_length_b 15.378659
_cell_length_c 7.829474
_cell_angle_alpha 90.000000
_cell_angle_beta 90.000000
_cell_angle_gamma 90.000000
_cell_volume 1851.695284
_symmetry_space_group_name_H-M "P 42 2 2"
_symmetry_group_IT_number 93
_symmetry_cell_setting 'tetragonal'
loop_
_space_group_symop_operation_xyz
x,y,z
-y,x,1/2+z
-x,-y,z
y,-x,1/2+z
x,-y,-z
-x,y,-z
y,x,1/2-z
-y,-x,1/2-z
loop_
_atom_site_type_symbol
_atom_site_label
_atom_site_fract_x
_atom_site_fract_y
_atom_site_fract_z
Si Si1 0.821855 0.068638 0.854515
Si Si2 0.379466 0.816982 0.328959
Si Si3 0.813313 0.551291 0.318643
Si Si4 0.641094 0.991817 0.210447
Si Si5 0.279028 0.761386 0.984418
O O1 0.905566 0.094435 0.750000
O O2 0.741486 0.028654 0.748762
O O3 0.782620 0.159102 0.928658
O O4 0.841545 0.000000 0.000000
O O5 0.476225 0.779785 0.305786
O O6 0.323438 0.789992 0.162247
O O7 0.324707 0.777239 0.483788
O O8 0.385030 0.921205 0.308654
O O9 0.825544 0.500000 0.500000
O O10 0.907597 0.583404 0.255899
O O11 0.758409 0.637712 0.359350
O O12 0.637867 0.000000 0.000000
#
# Coordination Sequence:
#
# PCOD9549592 Si02
#       5
#     8   8   8   8   8
#     4  10  19  36  58  78 105 154 211 255 298 358
#     4  10  16  26  50  76 116 148 197 247 296 359
#     4   9  15  24  46  79 109 150 202 238 292 374
#     4  10  15  27  48  76 106 139 202 251 294 359
#     4   9  18  29  47  78 116 149 201 242 300 363
#
# _framework density 21.601825000000002
#
# number of rings (size 3 to 8) (size 9 to 14) (size 15 to 20)
#    0.000    2.400    8.000    0.600    0.000    0.000 
#    0.000    1.000    0.000   14.400    0.000    5.600 
#    0.000    0.000    0.000  820.800  115.200    2.800 
#
# Total GULP energy -223396.422482 kJ/mol
# GULP energy per Si atom -5584.910562 kJ/mol
# Density = 2.155266 g / cm^3
# Si number density = 21.601825 Si / 1000 Ang^3
#
#
#
# Elastic Constant Matrix: (Units=GPa)
#
#
# Indices 1 2 3 4 5 6 
#
# 1 102.1430 82.9974 40.4217 0.0000 0.0000 0.0000
# 2 82.9974 102.1462 40.4227 0.0000 0.0000 0.0000
# 3 40.4217 40.4227 76.0538 0.0000 0.0000 0.0000
# 4 0.0000 0.0000 0.0000 17.2079 0.0000 0.0000
# 5 0.0000 0.0000 0.0000 0.0000 17.2069 0.0000
# 6 0.0000 0.0000 0.0000 0.0000 0.0000 18.8845
#
#
#
# Elastic Compliance Matrix: (Units=1/GPa)
#
#
# Indices 1 2 3 4 5 6 
#
# 1 0.029631 -0.022597 -0.003738 0.000000 0.000000 0.000000
# 2 -0.022597 0.029630 -0.003739 0.000000 0.000000 0.000000
# 3 -0.003738 -0.003739 0.017122 0.000000 0.000000 0.000000
# 4 0.000000 0.000000 0.000000 0.058113 0.000000 0.000000
# 5 0.000000 0.000000 0.000000 0.000000 0.058116 0.000000
# 6 0.000000 0.000000 0.000000 0.000000 0.000000 0.052954
#
#
# Mechanical properties :
#
#
# Convention : Reuss Voigt Hill
#
# Bulk Modulus (GPa) = 61.59032 67.55851 64.57441
# Shear Modulus (GPa) = 16.07074 18.42660 17.24867
#
# Velocity S-wave (km/s) = 2.73051 2.92380 2.82881
# Velocity P-wave (km/s) = 6.20600 6.53762 6.37397
#
# Compressibility (1/GPa) = 0.01623632
#
# Stress axis : x y z
#
# Youngs Moduli (GPa) = 33.74879 33.74965 58.40303
#
# Poissons Ratio (x) = 0.76263 0.21832
# Poissons Ratio (y) = 0.76261 0.21834
# Poissons Ratio (z) = 0.12616 0.12617
#
# Static dielectric constant tensor:
#      x y z
#    x 1.781720 0.000000 0.000000 
#    y 0.000000 1.781720 0.000000 
#    z 0.000000 0.000000 1.891650 
# 
# From -- ./inp_files/1841.got.cif
#   From: 2010.05.17/outbox.cif.g08.bks.cpg/sg93_1_cif.got.tgz:1841.got - 2010.06.03 19:38:44.
