data_PCOD9549764
_publ_section_title
;
Structure prediction by ZEFSAII (Michael W. Deem and Ramdas Pophale) SiO2 
 PCOD9549764
Probable space group: P 42 2 2
;
_chemical_formula_sum "Si O2"
_cell_formula_units_Z 34
_cell_length_a 8.198498
_cell_length_b 8.198498
_cell_length_c 23.882860
_cell_angle_alpha 90.000000
_cell_angle_beta 90.000000
_cell_angle_gamma 90.000000
_cell_volume 1605.295259
_symmetry_space_group_name_H-M "P 42 2 2"
_symmetry_group_IT_number 93
_symmetry_cell_setting 'tetragonal'
loop_
_space_group_symop_operation_xyz
x,y,z
-y,x,1/2+z
-x,-y,z
y,-x,1/2+z
x,-y,-z
-x,y,-z
y,x,1/2-z
-y,-x,1/2-z
loop_
_atom_site_type_symbol
_atom_site_label
_atom_site_fract_x
_atom_site_fract_y
_atom_site_fract_z
Si Si1 0.146712 0.299340 0.600056
Si Si2 0.000000 0.000000 0.165340
Si Si3 0.414195 0.323624 0.155029
Si Si4 0.804815 0.499301 0.064485
Si Si5 0.812602 0.812602 0.250000
Si Si6 0.000000 0.500000 0.500000
O O1 0.036249 0.159250 0.627804
O O2 0.189877 0.453426 0.637840
O O3 0.324298 0.227441 0.590341
O O4 0.090487 0.376294 0.541665
O O5 0.963076 0.846064 0.206658
O O6 0.500000 0.500000 0.168774
O O7 0.290703 0.369704 0.103379
O O8 0.324731 0.233132 0.205281
O O9 0.000000 0.500000 0.063684
O O10 0.744838 0.500000 0.000000
#
# Coordination Sequence:
#
# PCOD9549764 Si02
#       6
#     8   4   8   8   4   2
#     4  11  24  43  63 100 135 177 226 282 350 429
#     4  11  26  45  62  94 140 181 226 289 356 416
#     4  10  22  43  66  96 128 172 236 291 346 420
#     4  10  21  39  67  99 133 174 222 291 354 419
#     4  11  23  46  64  92 127 185 228 286 342 411
#     4  12  24  38  70  96 132 186 216 282 350 430
#
# _framework density 21.179904000000001
#
# number of rings (size 3 to 8) (size 9 to 14) (size 15 to 20)
#    0.000    1.412    0.000    4.588    0.000    7.529 
#   29.647    0.000    0.000    0.000    0.000    0.000 
#    0.000    0.000    0.000    0.000    0.000    0.000 
#
# Total GULP energy -189281.045531 kJ/mol
# GULP energy per Si atom -5567.089574 kJ/mol
# Density = 2.113170 g / cm^3
# Si number density = 21.179904 Si / 1000 Ang^3
#
#
#
# Elastic Constant Matrix: (Units=GPa)
#
#
# Indices 1 2 3 4 5 6 
#
# 1 106.2002 52.7806 69.1146 0.0000 0.0000 0.0000
# 2 52.7806 106.2002 69.1146 0.0000 0.0000 0.0000
# 3 69.1146 69.1146 141.6303 0.0000 0.0000 0.0000
# 4 0.0000 0.0000 0.0000 -11.4642 0.0000 0.0000
# 5 0.0000 0.0000 0.0000 0.0000 -11.4642 0.0000
# 6 0.0000 0.0000 0.0000 0.0000 0.0000 25.2467
#
#
#
# Elastic Compliance Matrix: (Units=1/GPa)
#
#
# Indices 1 2 3 4 5 6 
#
# 1 0.014823 -0.003897 -0.005332 0.000000 0.000000 0.000000
# 2 -0.003897 0.014823 -0.005332 0.000000 0.000000 0.000000
# 3 -0.005332 -0.005332 0.012264 0.000000 0.000000 0.000000
# 4 0.000000 0.000000 0.000000 -0.087228 0.000000 0.000000
# 5 0.000000 0.000000 0.000000 0.000000 -0.087228 0.000000
# 6 0.000000 0.000000 0.000000 0.000000 0.000000 0.039609
#
#
# Mechanical properties :
#
#
# Convention : Reuss Voigt Hill
#
# Bulk Modulus (GPa) = 78.19162 81.78336 79.98749
# Shear Modulus (GPa) = -83.95864 11.33173 -36.31345
#
# Velocity S-wave (km/s) = -6.30292 2.31556 -4.14517
# Velocity P-wave (km/s) = 3.99638 6.77101 3.86494
#
# Compressibility (1/GPa) = 0.01278909
#
# Stress axis : x y z
#
# Youngs Moduli (GPa) = 67.46372 67.46372 81.53725
#
# Poissons Ratio (x) = 0.26290 0.43474
# Poissons Ratio (y) = 0.26290 0.43474
# Poissons Ratio (z) = 0.35970 0.35970
#
# Static dielectric constant tensor:
#      x y z
#    x 2.198080 0.000000 0.000000 
#    y 0.000000 2.198080 0.000000 
#    z 0.000000 0.000000 1.808240 
# 
# From -- ./inp_files/6094.got.cif
#   From: 2010.05.17/outbox.cif.g08.bks.cpg/sg93_4_cif.got.tgz:6094.got - 2010.06.03 19:38:44.
