data_PCOD9549102
_publ_section_title
;
Structure prediction by ZEFSAII (Michael W. Deem and Ramdas Pophale) SiO2 
 PCOD9549102
Probable space group: P 41 21 2
;
_chemical_formula_sum "Si O2"
_cell_formula_units_Z 48
_cell_length_a 18.786385
_cell_length_b 18.786385
_cell_length_c 6.039612
_cell_angle_alpha 90.000000
_cell_angle_beta 90.000000
_cell_angle_gamma 90.000000
_cell_volume 2131.549762
_symmetry_space_group_name_H-M "P 41 21 2"
_symmetry_group_IT_number 92
_symmetry_cell_setting 'tetragonal'
loop_
_space_group_symop_operation_xyz
x,y,z
1/2-y,1/2+x,1/4+z
-x,-y,1/2+z
1/2+y,1/2-x,3/4+z
1/2+x,1/2-y,3/4-z
1/2-x,1/2+y,1/4-z
y,x,-z
-y,-x,1/2-z
loop_
_atom_site_type_symbol
_atom_site_label
_atom_site_fract_x
_atom_site_fract_y
_atom_site_fract_z
Si Si1 0.604688 0.840561 0.380051
Si Si2 0.146513 0.105124 0.250781
Si Si3 0.272615 0.385519 0.503845
Si Si4 0.238214 0.506806 0.819936
Si Si5 0.590105 0.954823 0.034754
Si Si6 0.302345 0.779106 0.413134
O O1 0.548548 0.809445 0.548600
O O2 0.573847 0.906954 0.249227
O O3 0.677076 0.858017 0.512243
O O4 0.614254 0.773778 0.216224
O O5 0.109643 0.109643 0.500000
O O6 0.199043 0.037882 0.280515
O O7 0.203513 0.169656 0.244546
O O8 0.109633 0.109633 0.000000
O O9 0.351044 0.351044 0.500000
O O10 0.270246 0.463745 0.612557
O O11 0.227700 0.330657 0.653460
O O12 0.174690 0.560392 0.750526
O O13 0.536421 0.927616 0.846781
O O14 0.237717 0.762283 0.250000
#
# Coordination Sequence:
#
# PCOD9549102 Si02
#       6
#     8   8   8   8   8   8
#     4  11  24  40  64  94 138 185 230 300 342 429
#     4  11  27  44  72 103 141 187 236 306 369 442
#     4  11  21  41  67  98 132 177 238 301 367 413
#     4  11  27  42  65 103 137 188 241 298 362 435
#     4  12  25  41  62  90 144 200 252 283 350 435
#     4  10  21  35  63  96 133 172 228 295 359 420
#
# _framework density 22.518827999999999
#
# number of rings (size 3 to 8) (size 9 to 14) (size 15 to 20)
#    0.000    1.000    3.333    2.500   14.000    0.000 
#    0.000    0.000    0.000    0.000    4.333    0.000 
#    0.000    0.000    0.000    0.000    0.000    0.000 
#
# Total GULP energy -267697.366473 kJ/mol
# GULP energy per Si atom -5577.028468 kJ/mol
# Density = 2.246757 g / cm^3
# Si number density = 22.518828 Si / 1000 Ang^3
#
#
#
# Elastic Constant Matrix: (Units=GPa)
#
#
# Indices 1 2 3 4 5 6 
#
# 1 48.6785 28.2094 23.2344 0.0000 0.0000 0.0000
# 2 28.2094 48.6772 23.2352 0.0000 0.0000 0.0000
# 3 23.2344 23.2352 102.2762 0.0000 0.0000 0.0000
# 4 0.0000 0.0000 0.0000 36.3090 0.0000 0.0000
# 5 0.0000 0.0000 0.0000 0.0000 36.3097 0.0000
# 6 0.0000 0.0000 0.0000 0.0000 0.0000 32.3531
#
#
#
# Elastic Compliance Matrix: (Units=1/GPa)
#
#
# Indices 1 2 3 4 5 6 
#
# 1 0.031965 -0.016890 -0.003425 0.000000 0.000000 0.000000
# 2 -0.016890 0.031967 -0.003425 0.000000 0.000000 0.000000
# 3 -0.003425 -0.003425 0.011334 0.000000 0.000000 0.000000
# 4 0.000000 0.000000 0.000000 0.027541 0.000000 0.000000
# 5 0.000000 0.000000 0.000000 0.000000 0.027541 0.000000
# 6 0.000000 0.000000 0.000000 0.000000 0.000000 0.030909
#
#
# Mechanical properties :
#
#
# Convention : Reuss Voigt Hill
#
# Bulk Modulus (GPa) = 35.98944 38.77667 37.38305
# Shear Modulus (GPa) = 22.93597 29.32455 26.13026
#
# Velocity S-wave (km/s) = 3.19490 3.61255 3.41012
# Velocity P-wave (km/s) = 5.44302 5.88708 5.66940
#
# Compressibility (1/GPa) = 0.02778593
#
# Stress axis : x y z
#
# Youngs Moduli (GPa) = 31.28389 31.28269 88.23344
#
# Poissons Ratio (x) = 0.52836 0.30217
# Poissons Ratio (y) = 0.52838 0.30222
# Poissons Ratio (z) = 0.10714 0.10715
#
# Static dielectric constant tensor:
#      x y z
#    x 1.921920 0.000000 0.000000 
#    y 0.000000 1.921920 0.000000 
#    z 0.000000 0.000000 1.896960 
# 
# From -- ./inp_files/646.got.cif
#   From: 2010.05.17/outbox.cif.g08.bks.cpg/sg92_1_cif.got.tgz:646.got - 2010.06.03 19:35:17.
