data_PCOD9549873
_publ_section_title
;
Structure prediction by ZEFSAII (Michael W. Deem and Ramdas Pophale) SiO2 
 PCOD9549873
Probable space group: P 42 2 2
;
_chemical_formula_sum "Si O2"
_cell_formula_units_Z 34
_cell_length_a 9.229367
_cell_length_b 9.229367
_cell_length_c 20.335078
_cell_angle_alpha 90.000000
_cell_angle_beta 90.000000
_cell_angle_gamma 90.000000
_cell_volume 1732.166656
_symmetry_space_group_name_H-M "P 42 2 2"
_symmetry_group_IT_number 93
_symmetry_cell_setting 'tetragonal'
loop_
_space_group_symop_operation_xyz
x,y,z
-y,x,1/2+z
-x,-y,z
y,-x,1/2+z
x,-y,-z
-x,y,-z
y,x,1/2-z
-y,-x,1/2-z
loop_
_atom_site_type_symbol
_atom_site_label
_atom_site_fract_x
_atom_site_fract_y
_atom_site_fract_z
Si Si1 0.827652 0.786188 0.676033
Si Si2 0.708160 0.132013 0.892143
Si Si3 0.651296 0.487751 0.684090
Si Si4 0.988266 0.327627 0.921116
Si Si5 0.500000 0.000000 0.000000
O O1 0.847983 0.847983 0.750000
O O2 0.726914 0.644238 0.685925
O O3 0.981627 0.750629 0.642779
O O4 0.747058 0.891158 0.624785
O O5 0.610074 0.224975 0.844470
O O6 0.843042 0.236633 0.906452
O O7 0.607960 0.093924 0.954785
O O8 0.500000 0.500000 0.644094
O O9 0.594872 0.405129 0.750000
O O10 0.000000 0.500000 0.906204
O O11 0.000000 0.314106 0.000000
#
# Coordination Sequence:
#
# PCOD9549873 Si02
#       5
#     8   8   8   8   2
#     4  12  25  45  73 112 149 195 253 313 391 463
#     4  12  26  45  75 104 149 194 250 309 377 464
#     4  11  23  44  69 104 145 188 239 312 377 442
#     4  11  27  48  73 105 149 199 253 316 382 458
#     4  12  24  48  76 112 148 204 258 308 396 472
#
# _framework density 19.628595000000001
#
# number of rings (size 3 to 8) (size 9 to 14) (size 15 to 20)
#    0.000    0.471    4.706    3.529    3.294    1.882 
#    0.000    0.000    0.000    0.000    0.000    0.000 
#    0.000    0.000    0.000    0.000    0.000    0.000 
#
# Total GULP energy -189577.743842 kJ/mol
# GULP energy per Si atom -5575.815995 kJ/mol
# Density = 1.958392 g / cm^3
# Si number density = 19.628595 Si / 1000 Ang^3
#
#
#
# Elastic Constant Matrix: (Units=GPa)
#
#
# Indices 1 2 3 4 5 6 
#
# 1 138.4360 105.5718 80.1846 0.0000 0.0000 0.0000
# 2 105.5718 138.4357 80.1845 0.0000 0.0000 0.0000
# 3 80.1846 80.1845 132.8222 0.0000 0.0000 0.0000
# 4 0.0000 0.0000 0.0000 -255.8483 0.0000 0.0000
# 5 0.0000 0.0000 0.0000 0.0000 -255.5576 0.0000
# 6 0.0000 0.0000 0.0000 0.0000 0.0000 51.9736
#
#
#
# Elastic Compliance Matrix: (Units=1/GPa)
#
#
# Indices 1 2 3 4 5 6 
#
# 1 0.018611 -0.011817 -0.004101 0.000000 0.000000 0.000000
# 2 -0.011817 0.018611 -0.004101 0.000000 0.000000 0.000000
# 3 -0.004101 -0.004101 0.012481 0.000000 0.000000 0.000000
# 4 0.000000 0.000000 0.000000 -0.003909 0.000000 0.000000
# 5 0.000000 0.000000 0.000000 0.000000 -0.003913 0.000000
# 6 0.000000 0.000000 0.000000 0.000000 0.000000 0.019241
#
#
# Mechanical properties :
#
#
# Convention : Reuss Voigt Hill
#
# Bulk Modulus (GPa) = 103.48901 104.61951 104.05426
# Shear Modulus (GPa) = 47.90044 -82.30291 -17.20123
#
# Velocity S-wave (km/s) = 4.94534 -6.48237 -2.96351
# Velocity P-wave (km/s) = 9.24373 1.61646 6.43559
#
# Compressibility (1/GPa) = 0.00966286
#
# Stress axis : x y z
#
# Youngs Moduli (GPa) = 53.73141 53.73138 80.12256
#
# Poissons Ratio (x) = 0.63496 0.32862
# Poissons Ratio (y) = 0.63496 0.32861
# Poissons Ratio (z) = 0.22037 0.22037
#
# Static dielectric constant tensor:
#      x y z
#    x 2.252240 0.000000 0.000000 
#    y 0.000000 2.251710 0.000000 
#    z 0.000000 0.000000 1.809880 
# 
# From -- ./inp_files/6020.got.cif
#   From: 2010.05.17/outbox.cif.g08.bks.cpg/sg93_4_cif.got.tgz:6020.got - 2010.06.03 19:38:44.
