data_PCOD9549242
_publ_section_title
;
Structure prediction by ZEFSAII (Michael W. Deem and Ramdas Pophale) SiO2 
 PCOD9549242
Probable space group: P 41 21 2
;
_chemical_formula_sum "Si O2"
_cell_formula_units_Z 40
_cell_length_a 8.901421
_cell_length_b 8.901421
_cell_length_c 21.257182
_cell_angle_alpha 90.000000
_cell_angle_beta 90.000000
_cell_angle_gamma 90.000000
_cell_volume 1684.319104
_symmetry_space_group_name_H-M "P 41 21 2"
_symmetry_group_IT_number 92
_symmetry_cell_setting 'tetragonal'
loop_
_space_group_symop_operation_xyz
x,y,z
1/2-y,1/2+x,1/4+z
-x,-y,1/2+z
1/2+y,1/2-x,3/4+z
1/2+x,1/2-y,3/4-z
1/2-x,1/2+y,1/4-z
y,x,-z
-y,-x,1/2-z
loop_
_atom_site_type_symbol
_atom_site_label
_atom_site_fract_x
_atom_site_fract_y
_atom_site_fract_z
Si Si1 0.556522 0.206898 0.308787
Si Si2 0.698949 0.590390 0.641482
Si Si3 0.141368 0.142990 0.798200
Si Si4 0.894901 0.753905 0.155221
Si Si5 0.479730 0.520271 0.250000
Si Si6 0.656961 0.656961 0.000000
O O1 0.675736 0.268328 0.359684
O O2 0.426173 0.109311 0.339006
O O3 0.474577 0.354154 0.280530
O O4 0.661904 0.138738 0.253371
O O5 0.735523 0.489934 0.581715
O O6 0.820231 0.702203 0.669079
O O7 0.553237 0.688762 0.621793
O O8 0.643602 0.476486 0.696010
O O9 0.138508 0.185857 0.725316
O O10 0.111230 0.963881 0.803472
#
# Coordination Sequence:
#
# PCOD9549242 Si02
#       6
#     8   8   8   8   4   4
#     4  10  22  40  74 105 132 187 241 304 372 429
#     4  11  25  44  68 102 140 192 237 308 362 440
#     4  12  25  46  68 100 148 189 242 304 367 435
#     4  11  22  45  70 101 144 181 246 305 364 447
#     4   9  20  44  63  94 138 178 237 290 359 438
#     4  11  24  44  69 106 142 190 249 300 367 440
#
# _framework density 23.748470999999999
#
# number of rings (size 3 to 8) (size 9 to 14) (size 15 to 20)
#    0.000    1.200    4.000    1.200    5.600    0.000 
#    3.600    0.000    0.000    0.000    0.000    0.000 
#    0.000    0.000    0.000    0.000    0.000    0.000 
#
# Total GULP energy -223461.776113 kJ/mol
# GULP energy per Si atom -5586.544403 kJ/mol
# Density = 2.369442 g / cm^3
# Si number density = 23.748471 Si / 1000 Ang^3
#
#
#
# Elastic Constant Matrix: (Units=GPa)
#
#
# Indices 1 2 3 4 5 6 
#
# 1 69.8850 22.1651 29.6163 0.0000 0.0000 0.0000
# 2 22.1651 69.8845 29.6166 0.0000 0.0000 0.0000
# 3 29.6163 29.6166 125.4798 0.0000 0.0000 0.0000
# 4 0.0000 0.0000 0.0000 27.0752 0.0000 0.0000
# 5 0.0000 0.0000 0.0000 0.0000 27.0752 0.0000
# 6 0.0000 0.0000 0.0000 0.0000 0.0000 24.3129
#
#
#
# Elastic Compliance Matrix: (Units=1/GPa)
#
#
# Indices 1 2 3 4 5 6 
#
# 1 0.016882 -0.004073 -0.003023 0.000000 0.000000 0.000000
# 2 -0.004073 0.016883 -0.003023 0.000000 0.000000 0.000000
# 3 -0.003023 -0.003023 0.009397 0.000000 0.000000 0.000000
# 4 0.000000 0.000000 0.000000 0.036934 0.000000 0.000000
# 5 0.000000 0.000000 0.000000 0.000000 0.036934 0.000000
# 6 0.000000 0.000000 0.000000 0.000000 0.000000 0.041130
#
#
# Mechanical properties :
#
#
# Convention : Reuss Voigt Hill
#
# Bulk Modulus (GPa) = 43.62684 47.56059 45.59371
# Shear Modulus (GPa) = 26.87587 27.94941 27.41264
#
# Velocity S-wave (km/s) = 3.36771 3.43431 3.40117
# Velocity P-wave (km/s) = 5.79070 5.98300 5.88763
#
# Compressibility (1/GPa) = 0.02292167
#
# Stress axis : x y z
#
# Youngs Moduli (GPa) = 59.23354 59.23291 106.42195
#
# Poissons Ratio (x) = 0.24127 0.32174
# Poissons Ratio (y) = 0.24128 0.32175
# Poissons Ratio (z) = 0.17908 0.17908
#
# Static dielectric constant tensor:
#      x y z
#    x 1.924150 0.000000 0.000000 
#    y 0.000000 1.924160 0.000000 
#    z 0.000000 0.000000 1.917220 
# 
# From -- ./inp_files/3851.got.cif
#   From: 2010.05.17/outbox.cif.g08.bks.cpg/sg92_2_cif.got.tgz:3851.got - 2010.06.03 19:35:17.
