data_PCOD9549584
_publ_section_title
;
Structure prediction by ZEFSAII (Michael W. Deem and Ramdas Pophale) SiO2 
 PCOD9549584
Probable space group: P 41 21 2
;
_chemical_formula_sum "Si O2"
_cell_formula_units_Z 16
_cell_length_a 9.404431
_cell_length_b 9.404431
_cell_length_c 6.211038
_cell_angle_alpha 90.000000
_cell_angle_beta 90.000000
_cell_angle_gamma 90.000000
_cell_volume 549.324836
_symmetry_space_group_name_H-M "P 41 21 2"
_symmetry_group_IT_number 92
_symmetry_cell_setting 'tetragonal'
loop_
_space_group_symop_operation_xyz
x,y,z
1/2-y,1/2+x,1/4+z
-x,-y,1/2+z
1/2+y,1/2-x,3/4+z
1/2+x,1/2-y,3/4-z
1/2-x,1/2+y,1/4-z
y,x,-z
-y,-x,1/2-z
loop_
_atom_site_type_symbol
_atom_site_label
_atom_site_fract_x
_atom_site_fract_y
_atom_site_fract_z
Si Si1 0.178149 0.658758 0.104248
Si Si2 0.772415 0.986235 0.243015
O O1 0.199254 0.800747 0.250000
O O2 0.190778 0.531108 0.276759
O O3 0.328044 0.663143 0.977179
O O4 0.045965 0.676734 0.949951
O O5 0.899668 0.100333 0.250000
#
# Coordination Sequence:
#
# PCOD9549584 Si02
#       2
#     8   8
#     4   8  21  42  85 120 170 223 301 371 434 561
#     4   9  19  46  74 129 164 230 300 364 455 533
#
# _framework density 29.126666
#
# number of rings (size 3 to 8) (size 9 to 14) (size 15 to 20)
#    3.000    0.000    0.000    0.000    0.000    0.000 
#   18.000    2.500   11.000   12.000    0.000    0.000 
#    0.000    0.000    0.000    0.000    0.000    0.000 
#
# Total GULP energy -89446.663890 kJ/mol
# GULP energy per Si atom -5590.416493 kJ/mol
# Density = 2.906037 g / cm^3
# Si number density = 29.126666 Si / 1000 Ang^3
#
#
#
# Elastic Constant Matrix: (Units=GPa)
#
#
# Indices 1 2 3 4 5 6 
#
# 1 178.8752 77.7664 127.2445 0.0000 0.0000 0.0000
# 2 77.7664 178.8741 127.2449 0.0000 0.0000 0.0000
# 3 127.2445 127.2449 258.6809 0.0000 0.0000 0.0000
# 4 0.0000 0.0000 0.0000 100.0222 0.0000 0.0000
# 5 0.0000 0.0000 0.0000 0.0000 100.0218 0.0000
# 6 0.0000 0.0000 0.0000 0.0000 0.0000 54.3944
#
#
#
# Elastic Compliance Matrix: (Units=1/GPa)
#
#
# Indices 1 2 3 4 5 6 
#
# 1 0.008749 -0.001142 -0.003742 0.000000 0.000000 0.000000
# 2 -0.001142 0.008749 -0.003742 0.000000 0.000000 0.000000
# 3 -0.003742 -0.003742 0.007547 0.000000 0.000000 0.000000
# 4 0.000000 0.000000 0.000000 0.009998 0.000000 0.000000
# 5 0.000000 0.000000 0.000000 0.000000 0.009998 0.000000
# 6 0.000000 0.000000 0.000000 0.000000 0.000000 0.018384
#
#
# Mechanical properties :
#
#
# Convention : Reuss Voigt Hill
#
# Bulk Modulus (GPa) = 128.31178 142.32687 135.31932
# Shear Modulus (GPa) = 60.04352 69.83262 64.93807
#
# Velocity S-wave (km/s) = 4.54526 4.90179 4.72689
# Velocity P-wave (km/s) = 8.46726 9.00042 8.73791
#
# Compressibility (1/GPa) = 0.00779352
#
# Stress axis : x y z
#
# Youngs Moduli (GPa) = 114.30352 114.30214 132.50288
#
# Poissons Ratio (x) = 0.13050 0.49580
# Poissons Ratio (y) = 0.13050 0.49581
# Poissons Ratio (z) = 0.42770 0.42771
#
# Static dielectric constant tensor:
#      x y z
#    x 2.223420 0.000000 0.000000 
#    y 0.000000 2.223430 0.000000 
#    z 0.000000 0.000000 2.465700 
# 
# From -- ./inp_files/93.got.cif
#   From: 2010.05.17/outbox.cif.g08.bks.cpg/sg92_1_cif.got.tgz:93.got - 2010.06.03 19:35:17.
