data_PCOD9549768
_publ_section_title
;
Structure prediction by ZEFSAII (Michael W. Deem and Ramdas Pophale) SiO2 
 PCOD9549768
Probable space group: P 42 2 2
;
_chemical_formula_sum "Si O2"
_cell_formula_units_Z 48
_cell_length_a 10.890620
_cell_length_b 10.890620
_cell_length_c 17.713297
_cell_angle_alpha 90.000000
_cell_angle_beta 90.000000
_cell_angle_gamma 90.000000
_cell_volume 2100.896289
_symmetry_space_group_name_H-M "P 42 2 2"
_symmetry_group_IT_number 93
_symmetry_cell_setting 'tetragonal'
loop_
_space_group_symop_operation_xyz
x,y,z
-y,x,1/2+z
-x,-y,z
y,-x,1/2+z
x,-y,-z
-x,y,-z
y,x,1/2-z
-y,-x,1/2-z
loop_
_atom_site_type_symbol
_atom_site_label
_atom_site_fract_x
_atom_site_fract_y
_atom_site_fract_z
Si Si1 0.218612 0.899345 0.056273
Si Si2 0.525050 0.676148 0.413476
Si Si3 0.378830 0.750299 0.820222
Si Si4 0.308561 0.102279 0.445700
Si Si5 0.865581 0.896117 0.162540
Si Si6 0.733654 0.348947 0.325595
O O1 0.163718 0.793782 0.001714
O O2 0.305318 0.826486 0.111420
O O3 0.130342 0.981877 0.110782
O O4 0.275455 0.000000 0.000000
O O5 0.500000 0.643575 0.500000
O O6 0.646010 0.606729 0.384288
O O7 0.418590 0.813635 0.584088
O O8 0.405118 0.657959 0.361464
O O9 0.319581 0.680420 0.750000
O O10 0.279539 0.854071 0.839658
O O11 0.517066 0.780994 0.801336
O O12 0.221292 0.066941 0.375530
O O13 0.360196 0.000000 0.500000
O O14 0.903826 0.903826 0.250000
O O15 0.731579 0.268422 0.250000
#
# Coordination Sequence:
#
# PCOD9549768 Si02
#       6
#     8   8   8   8   8   8
#     4  10  23  45  65  97 139 178 229 282 337 411
#     4  11  22  41  63 101 129 172 221 274 337 409
#     4  10  21  40  66  95 134 172 219 275 341 407
#     4  10  22  43  69  93 130 175 226 283 337 399
#     4   9  21  42  67  96 128 174 227 276 339 407
#     4  12  24  40  67 102 139 177 225 284 345 414
#
# _framework density 22.847390999999998
#
# number of rings (size 3 to 8) (size 9 to 14) (size 15 to 20)
#    0.000    1.667    3.333    0.500    0.000    6.667 
#    0.000    5.000    3.667    0.000    0.000    0.000 
#    0.000    0.000    0.000    0.000    0.000    0.000 
#
# Total GULP energy -267858.169482 kJ/mol
# GULP energy per Si atom -5580.378531 kJ/mol
# Density = 2.279539 g / cm^3
# Si number density = 22.847391 Si / 1000 Ang^3
#
#
#
# Elastic Constant Matrix: (Units=GPa)
#
#
# Indices 1 2 3 4 5 6 
#
# 1 70.0159 47.8351 6.0551 0.0000 0.0000 0.0000
# 2 47.8351 70.0164 6.0555 0.0000 0.0000 0.0000
# 3 6.0551 6.0555 113.7655 0.0000 0.0000 0.0000
# 4 0.0000 0.0000 0.0000 14.0484 0.0000 0.0000
# 5 0.0000 0.0000 0.0000 0.0000 14.0511 0.0000
# 6 0.0000 0.0000 0.0000 0.0000 0.0000 9.2941
#
#
#
# Elastic Compliance Matrix: (Units=1/GPa)
#
#
# Indices 1 2 3 4 5 6 
#
# 1 0.026808 -0.018276 -0.000454 0.000000 0.000000 0.000000
# 2 -0.018276 0.026808 -0.000454 0.000000 0.000000 0.000000
# 3 -0.000454 -0.000454 0.008838 0.000000 0.000000 0.000000
# 4 0.000000 0.000000 0.000000 0.071183 0.000000 0.000000
# 5 0.000000 0.000000 0.000000 0.000000 0.071169 0.000000
# 6 0.000000 0.000000 0.000000 0.000000 0.000000 0.107595
#
#
# Mechanical properties :
#
#
# Convention : Reuss Voigt Hill
#
# Bulk Modulus (GPa) = 41.51833 41.52102 41.51967
# Shear Modulus (GPa) = 13.93547 20.40219 17.16883
#
# Velocity S-wave (km/s) = 2.47237 2.99151 2.74425
# Velocity P-wave (km/s) = 5.13436 5.49043 5.31538
#
# Compressibility (1/GPa) = 0.02408575
#
# Stress axis : x y z
#
# Youngs Moduli (GPa) = 37.30248 37.30272 113.14321
#
# Poissons Ratio (x) = 0.68174 0.05137
# Poissons Ratio (y) = 0.68173 0.05139
# Poissons Ratio (z) = 0.01694 0.01694
#
# Static dielectric constant tensor:
#      x y z
#    x 2.016490 0.000000 0.000000 
#    y 0.000000 2.016490 0.000000 
#    z 0.000000 0.000000 1.889890 
# 
# From -- ./inp_files/5396.got.cif
#   From: 2010.05.17/outbox.cif.g08.bks.cpg/sg93_3_cif.got.tgz:5396.got - 2010.06.03 19:38:44.
