data_PCOD9549105
_publ_section_title
;
Structure prediction by ZEFSAII (Michael W. Deem and Ramdas Pophale) SiO2 
 PCOD9549105
Probable space group: P 41 21 2
;
_chemical_formula_sum "Si O2"
_cell_formula_units_Z 48
_cell_length_a 9.284236
_cell_length_b 9.284236
_cell_length_c 20.415065
_cell_angle_alpha 90.000000
_cell_angle_beta 90.000000
_cell_angle_gamma 90.000000
_cell_volume 1759.718136
_symmetry_space_group_name_H-M "P 41 21 2"
_symmetry_group_IT_number 92
_symmetry_cell_setting 'tetragonal'
loop_
_space_group_symop_operation_xyz
x,y,z
1/2-y,1/2+x,1/4+z
-x,-y,1/2+z
1/2+y,1/2-x,3/4+z
1/2+x,1/2-y,3/4-z
1/2-x,1/2+y,1/4-z
y,x,-z
-y,-x,1/2-z
loop_
_atom_site_type_symbol
_atom_site_label
_atom_site_fract_x
_atom_site_fract_y
_atom_site_fract_z
Si Si1 0.638829 0.979798 0.987672
Si Si2 0.446942 0.762022 0.308480
Si Si3 0.974052 0.902514 0.654752
Si Si4 0.723556 0.254253 0.347487
Si Si5 0.215599 0.463963 0.046464
Si Si6 0.848781 0.693789 0.762108
O O1 0.740861 0.906111 0.934780
O O2 0.480490 0.917307 0.971717
O O3 0.614448 0.149241 0.982146
O O4 0.687111 0.907938 0.055643
O O5 0.384036 0.621793 0.162267
O O6 0.512152 0.837070 0.375773
O O7 0.587498 0.727908 0.265891
O O8 0.342263 0.856748 0.261467
O O9 0.887279 0.040470 0.684850
O O10 0.918536 0.787137 0.706263
O O11 0.141947 0.860141 0.653158
O O12 0.681210 0.271756 0.421203
#
# Coordination Sequence:
#
# PCOD9549105 Si02
#       6
#     8   8   8   8   8   8
#     4   9  21  36  62  86 120 168 219 261 319 388
#     4   9  21  37  61  90 122 166 216 274 314 395
#     4   9  22  38  58  93 126 163 212 270 337 372
#     4  10  21  39  58  91 126 169 211 273 336 387
#     4   9  20  38  64  93 122 162 226 266 317 387
#     4  10  21  36  61  86 124 169 219 263 326 401
#
# _framework density 27.277097000000001
#
# number of rings (size 3 to 8) (size 9 to 14) (size 15 to 20)
#    1.000    1.667    0.000    0.000   16.333    0.667 
#    0.000    8.333    0.000    0.000    0.000    0.000 
#    0.000    0.000    0.000    0.000    0.000    0.000 
#
# Total GULP energy -267289.812745 kJ/mol
# GULP energy per Si atom -5568.537766 kJ/mol
# Density = 2.721501 g / cm^3
# Si number density = 27.277097 Si / 1000 Ang^3
#
#
#
# Elastic Constant Matrix: (Units=GPa)
#
#
# Indices 1 2 3 4 5 6 
#
# 1 70.8936 6.9390 32.8022 0.0000 0.0000 0.0000
# 2 6.9390 70.8936 32.8022 0.0000 0.0000 0.0000
# 3 32.8022 32.8022 141.5781 0.0000 0.0000 0.0000
# 4 0.0000 0.0000 0.0000 31.2824 0.0000 0.0000
# 5 0.0000 0.0000 0.0000 0.0000 31.2824 0.0000
# 6 0.0000 0.0000 0.0000 0.0000 0.0000 35.5356
#
#
#
# Elastic Compliance Matrix: (Units=1/GPa)
#
#
# Indices 1 2 3 4 5 6 
#
# 1 0.015801 0.000165 -0.003699 0.000000 0.000000 0.000000
# 2 0.000165 0.015801 -0.003699 0.000000 0.000000 0.000000
# 3 -0.003699 -0.003699 0.008777 0.000000 0.000000 0.000000
# 4 0.000000 0.000000 0.000000 0.031967 0.000000 0.000000
# 5 0.000000 0.000000 0.000000 0.000000 0.031967 0.000000
# 6 0.000000 0.000000 0.000000 0.000000 0.000000 0.028141
#
#
# Mechanical properties :
#
#
# Convention : Reuss Voigt Hill
#
# Bulk Modulus (GPa) = 38.59091 47.60580 43.09835
# Shear Modulus (GPa) = 32.14226 33.67487 32.90856
#
# Velocity S-wave (km/s) = 3.43645 3.51742 3.47717
# Velocity P-wave (km/s) = 5.47029 5.82983 5.65292
#
# Compressibility (1/GPa) = 0.02591284
#
# Stress axis : x y z
#
# Youngs Moduli (GPa) = 63.28675 63.28675 113.92933
#
# Poissons Ratio (x) = -0.01044 0.42145
# Poissons Ratio (y) = -0.01044 0.42145
# Poissons Ratio (z) = 0.23411 0.23411
#
# Static dielectric constant tensor:
#      x y z
#    x 2.362870 0.000000 0.000000 
#    y 0.000000 2.362870 0.000000 
#    z 0.000000 0.000000 2.090910 
# 
# From -- ./inp_files/3102.got.cif
#   From: 2010.05.17/outbox.cif.g08.bks.cpg/sg92_2_cif.got.tgz:3102.got - 2010.06.03 19:35:17.
