data_PCOD9549269
_publ_section_title
;
Structure prediction by ZEFSAII (Michael W. Deem and Ramdas Pophale) SiO2 
 PCOD9549269
Probable space group: P 41 21 2
;
_chemical_formula_sum "Si O2"
_cell_formula_units_Z 40
_cell_length_a 13.964875
_cell_length_b 13.964875
_cell_length_c 9.170384
_cell_angle_alpha 90.000000
_cell_angle_beta 90.000000
_cell_angle_gamma 90.000000
_cell_volume 1788.387505
_symmetry_space_group_name_H-M "P 41 21 2"
_symmetry_group_IT_number 92
_symmetry_cell_setting 'tetragonal'
loop_
_space_group_symop_operation_xyz
x,y,z
1/2-y,1/2+x,1/4+z
-x,-y,1/2+z
1/2+y,1/2-x,3/4+z
1/2+x,1/2-y,3/4-z
1/2-x,1/2+y,1/4-z
y,x,-z
-y,-x,1/2-z
loop_
_atom_site_type_symbol
_atom_site_label
_atom_site_fract_x
_atom_site_fract_y
_atom_site_fract_z
Si Si1 0.898623 0.542266 0.115730
Si Si2 0.447579 0.710747 0.008931
Si Si3 0.014519 0.985482 0.750000
Si Si4 0.027011 0.822443 0.415676
Si Si5 0.640871 0.231082 0.975701
Si Si6 0.789054 0.210947 0.750000
O O1 0.939011 0.484162 0.253235
O O2 0.854168 0.645044 0.161537
O O3 0.812744 0.479192 0.049507
O O4 0.499538 0.619669 0.932705
O O5 0.487259 0.699594 0.174607
O O6 0.333516 0.692101 0.993802
O O7 0.929188 0.001253 0.635767
O O8 0.969567 0.755916 0.302114
O O9 0.137706 0.806843 0.381977
O O10 0.685865 0.199090 0.821663
#
# Coordination Sequence:
#
# PCOD9549269 Si02
#       6
#     8   8   4   8   8   4
#     4  12  32  51  75 111 155 208 259 328 392 478
#     4  11  25  45  75 106 151 196 254 319 389 461
#     4   9  20  42  66 110 142 179 246 312 382 443
#     4  10  22  42  71 106 142 192 245 309 377 452
#     4  11  23  48  71 109 140 201 251 306 383 458
#     4  11  22  38  78 102 146 191 246 316 376 459
#
# _framework density 22.366517999999999
#
# number of rings (size 3 to 8) (size 9 to 14) (size 15 to 20)
#    0.000    1.200    2.000    3.000    8.400    0.800 
#    7.200    0.000    0.000    0.000    0.000    0.000 
#    0.000    0.000    0.000    0.000    0.000    0.000 
#
# Total GULP energy -223559.433880 kJ/mol
# GULP energy per Si atom -5588.985847 kJ/mol
# Density = 2.231561 g / cm^3
# Si number density = 22.366518 Si / 1000 Ang^3
#
#
#
# Elastic Constant Matrix: (Units=GPa)
#
#
# Indices 1 2 3 4 5 6 
#
# 1 89.7961 58.1464 39.9407 0.0000 0.0000 0.0000
# 2 58.1464 89.7977 39.9405 0.0000 0.0000 0.0000
# 3 39.9407 39.9405 89.8048 0.0000 0.0000 0.0000
# 4 0.0000 0.0000 0.0000 38.5480 0.0000 0.0000
# 5 0.0000 0.0000 0.0000 0.0000 38.5477 0.0000
# 6 0.0000 0.0000 0.0000 0.0000 0.0000 35.2617
#
#
#
# Elastic Compliance Matrix: (Units=1/GPa)
#
#
# Indices 1 2 3 4 5 6 
#
# 1 0.020246 -0.011350 -0.003956 0.000000 0.000000 0.000000
# 2 -0.011350 0.020245 -0.003956 0.000000 0.000000 0.000000
# 3 -0.003956 -0.003956 0.014654 0.000000 0.000000 0.000000
# 4 0.000000 0.000000 0.000000 0.025942 0.000000 0.000000
# 5 0.000000 0.000000 0.000000 0.000000 0.025942 0.000000
# 6 0.000000 0.000000 0.000000 0.000000 0.000000 0.028359
#
#
# Mechanical properties :
#
#
# Convention : Reuss Voigt Hill
#
# Bulk Modulus (GPa) = 60.16740 60.60600 60.38670
# Shear Modulus (GPa) = 27.86252 31.22955 29.54603
#
# Velocity S-wave (km/s) = 3.53331 3.74071 3.63849
# Velocity P-wave (km/s) = 6.60339 6.76852 6.68646
#
# Compressibility (1/GPa) = 0.01662029
#
# Stress axis : x y z
#
# Youngs Moduli (GPa) = 49.39365 49.39487 68.23905
#
# Poissons Ratio (x) = 0.56062 0.26998
# Poissons Ratio (y) = 0.56061 0.26996
# Poissons Ratio (z) = 0.19542 0.19541
#
# Static dielectric constant tensor:
#      x y z
#    x 1.835100 0.000000 0.000000 
#    y 0.000000 1.835090 0.000000 
#    z 0.000000 0.000000 1.836850 
# 
# From -- ./inp_files/1388.got.cif
#   From: 2010.05.17/outbox.cif.g08.bks.cpg/sg92_1_cif.got.tgz:1388.got - 2010.06.03 19:35:17.
