data_PCOD9549747
_publ_section_title
;
Structure prediction by ZEFSAII (Michael W. Deem and Ramdas Pophale) SiO2 
 PCOD9549747
Probable space group: P 42 2 2
;
_chemical_formula_sum "Si O2"
_cell_formula_units_Z 20
_cell_length_a 11.577893
_cell_length_b 11.577893
_cell_length_c 7.094883
_cell_angle_alpha 90.000000
_cell_angle_beta 90.000000
_cell_angle_gamma 90.000000
_cell_volume 951.052083
_symmetry_space_group_name_H-M "P 42 2 2"
_symmetry_group_IT_number 93
_symmetry_cell_setting 'tetragonal'
loop_
_space_group_symop_operation_xyz
x,y,z
-y,x,1/2+z
-x,-y,z
y,-x,1/2+z
x,-y,-z
-x,y,-z
y,x,1/2-z
-y,-x,1/2-z
loop_
_atom_site_type_symbol
_atom_site_label
_atom_site_fract_x
_atom_site_fract_y
_atom_site_fract_z
Si Si1 0.122349 0.745050 0.897455
Si Si2 0.711115 0.711115 0.750000
Si Si3 0.543902 0.265253 0.713688
O O1 0.153527 0.846474 0.750000
O O2 0.152239 0.625872 0.784539
O O3 0.211283 0.743557 0.071841
O O4 0.000000 0.748334 0.000000
O O5 0.578668 0.731007 0.817237
O O6 0.500000 0.275172 0.500000
O O7 0.626172 0.373829 0.750000
#
# Coordination Sequence:
#
# PCOD9549747 Si02
#       3
#     8   4   8
#     4  10  23  42  64  90 121 162 214 265 312 370
#     4  10  21  36  61  94 128 164 202 256 323 386
#     4   9  19  34  58  89 125 162 203 255 321 391
#
# _framework density 21.029342
#
# number of rings (size 3 to 8) (size 9 to 14) (size 15 to 20)
#    0.000    2.400    0.000    0.600    0.000   28.000 
#    0.000    3.000    0.000   33.600    0.000    0.000 
#    0.000    0.000    0.000    0.000    0.000    0.000 
#
# Total GULP energy -111522.537184 kJ/mol
# GULP energy per Si atom -5576.126859 kJ/mol
# Density = 2.098148 g / cm^3
# Si number density = 21.029342 Si / 1000 Ang^3
#
#
#
# Elastic Constant Matrix: (Units=GPa)
#
#
# Indices 1 2 3 4 5 6 
#
# 1 151.6462 84.6003 51.4505 0.0000 0.0000 0.0000
# 2 84.6003 151.6386 51.4483 0.0000 0.0000 0.0000
# 3 51.4505 51.4483 50.0720 0.0000 0.0000 0.0000
# 4 0.0000 0.0000 0.0000 43.3666 0.0000 0.0000
# 5 0.0000 0.0000 0.0000 0.0000 43.3664 0.0000
# 6 0.0000 0.0000 0.0000 0.0000 0.0000 9.3102
#
#
#
# Elastic Compliance Matrix: (Units=1/GPa)
#
#
# Indices 1 2 3 4 5 6 
#
# 1 0.011289 -0.003627 -0.007873 0.000000 0.000000 0.000000
# 2 -0.003627 0.011289 -0.007873 0.000000 0.000000 0.000000
# 3 -0.007873 -0.007873 0.036150 0.000000 0.000000 0.000000
# 4 0.000000 0.000000 0.000000 0.023059 0.000000 0.000000
# 5 0.000000 0.000000 0.000000 0.000000 0.023059 0.000000
# 6 0.000000 0.000000 0.000000 0.000000 0.000000 0.107409
#
#
# Mechanical properties :
#
#
# Convention : Reuss Voigt Hill
#
# Bulk Modulus (GPa) = 50.04297 80.92831 65.48564
# Shear Modulus (GPa) = 19.40528 30.26582 24.83555
#
# Velocity S-wave (km/s) = 3.04101 3.79782 3.44029
# Velocity P-wave (km/s) = 6.01488 7.60252 6.85482
#
# Compressibility (1/GPa) = 0.01998283
#
# Stress axis : x y z
#
# Youngs Moduli (GPa) = 88.58301 88.58023 27.66253
#
# Poissons Ratio (x) = 0.32128 0.21779
# Poissons Ratio (y) = 0.32129 0.21778
# Poissons Ratio (z) = 0.69741 0.69736
#
# Static dielectric constant tensor:
#      x y z
#    x 1.812660 0.000000 0.000000 
#    y 0.000000 1.812670 0.000000 
#    z 0.000000 0.000000 1.883830 
# 
# From -- ./inp_files/1072.got.cif
#   From: 2010.05.17/outbox.cif.g08.bks.cpg/sg93_1_cif.got.tgz:1072.got - 2010.06.03 19:38:44.
