data_PCOD9549826
_publ_section_title
;
Structure prediction by ZEFSAII (Michael W. Deem and Ramdas Pophale) SiO2 
 PCOD9549826
Probable space group: P 42 2 2
;
_chemical_formula_sum "Si O2"
_cell_formula_units_Z 32
_cell_length_a 11.319684
_cell_length_b 11.319684
_cell_length_c 11.455504
_cell_angle_alpha 90.000000
_cell_angle_beta 90.000000
_cell_angle_gamma 90.000000
_cell_volume 1467.853821
_symmetry_space_group_name_H-M "P 42 2 2"
_symmetry_group_IT_number 93
_symmetry_cell_setting 'tetragonal'
loop_
_space_group_symop_operation_xyz
x,y,z
-y,x,1/2+z
-x,-y,z
y,-x,1/2+z
x,-y,-z
-x,y,-z
y,x,1/2-z
-y,-x,1/2-z
loop_
_atom_site_type_symbol
_atom_site_label
_atom_site_fract_x
_atom_site_fract_y
_atom_site_fract_z
Si Si1 0.975042 0.671004 0.130237
Si Si2 0.395203 0.213189 0.207040
Si Si3 0.810912 0.869529 0.040059
Si Si4 0.343010 0.190001 0.816865
O O1 0.868788 0.592484 0.179673
O O2 0.917179 0.800022 0.102748
O O3 0.080068 0.671821 0.225717
O O4 0.000000 0.629499 0.000000
O O5 0.336304 0.336304 0.250000
O O6 0.296741 0.144966 0.131004
O O7 0.521457 0.205758 0.145564
O O8 0.750430 0.818809 0.922273
O O9 0.844170 0.000000 0.000000
O O10 0.308229 0.308229 0.750000
#
# Coordination Sequence:
#
# PCOD9549826 Si02
#       4
#     8   8   8   8
#     4  11  23  42  63  99 132 173 216 273 339 401
#     4  10  24  43  67  96 129 174 230 280 325 399
#     4  11  23  42  67  96 133 172 225 274 330 404
#     4  12  24  42  66  96 133 178 221 271 344 404
#
# _framework density 21.800535
#
# number of rings (size 3 to 8) (size 9 to 14) (size 15 to 20)
#    0.000    1.000    5.000    1.500    0.000    4.000 
#    0.000    1.250    0.000    3.000    0.000    0.000 
#    0.000    0.000    0.000    0.000    0.000    0.000 
#
# Total GULP energy -178378.561095 kJ/mol
# GULP energy per Si atom -5574.330034 kJ/mol
# Density = 2.175092 g / cm^3
# Si number density = 21.800535 Si / 1000 Ang^3
#
#
#
# Elastic Constant Matrix: (Units=GPa)
#
#
# Indices 1 2 3 4 5 6 
#
# 1 59.2427 67.0466 10.2839 0.0000 0.0000 0.0000
# 2 67.0466 59.2427 10.2839 0.0000 0.0000 0.0000
# 3 10.2839 10.2839 94.8356 0.0000 0.0000 0.0000
# 4 0.0000 0.0000 0.0000 9.8691 0.0000 0.0000
# 5 0.0000 0.0000 0.0000 0.0000 9.8691 0.0000
# 6 0.0000 0.0000 0.0000 0.0000 0.0000 6.0657
#
#
#
# Elastic Compliance Matrix: (Units=1/GPa)
#
#
# Indices 1 2 3 4 5 6 
#
# 1 -0.060040 0.068101 -0.000874 0.000000 0.000000 0.000000
# 2 0.068101 -0.060040 -0.000874 0.000000 0.000000 0.000000
# 3 -0.000874 -0.000874 0.010734 0.000000 0.000000 0.000000
# 4 0.000000 0.000000 0.000000 0.101326 0.000000 0.000000
# 5 0.000000 0.000000 0.000000 0.000000 0.101326 0.000000
# 6 0.000000 0.000000 0.000000 0.000000 0.000000 0.164861
#
#
# Mechanical properties :
#
#
# Convention : Reuss Voigt Hill
#
# Bulk Modulus (GPa) = 42.80983 43.17221 42.99102
# Shear Modulus (GPa) = 37.52388 13.54121 25.53255
#
# Velocity S-wave (km/s) = 4.15328 2.49497 3.42598
# Velocity P-wave (km/s) = 6.53294 5.30529 5.95086
#
# Compressibility (1/GPa) = 0.02335912
#
# Stress axis : x y z
#
# Youngs Moduli (GPa) = -16.65552 -16.65552 93.16072
#
# Poissons Ratio (x) = 1.13425 0.08143
# Poissons Ratio (y) = 1.13425 0.08143
# Poissons Ratio (z) = -0.01456 -0.01456
#
# Static dielectric constant tensor:
#      x y z
#    x 1.835290 0.000000 0.000000 
#    y 0.000000 1.835290 0.000000 
#    z 0.000000 0.000000 1.837880 
# 
# From -- ./inp_files/3000.got.cif
#   From: 2010.05.17/outbox.cif.g08.bks.cpg/sg93_2_cif.got.tgz:3000.got - 2010.06.03 19:38:44.
