data_PCOD9549007
_publ_section_title
;
Structure prediction by ZEFSAII (Michael W. Deem and Ramdas Pophale) SiO2 
 PCOD9549007
Probable space group: P 41 21 2
;
_chemical_formula_sum "Si O2"
_cell_formula_units_Z 48
_cell_length_a 20.717429
_cell_length_b 20.717429
_cell_length_c 5.585510
_cell_angle_alpha 90.000000
_cell_angle_beta 90.000000
_cell_angle_gamma 90.000000
_cell_volume 2397.367161
_symmetry_space_group_name_H-M "P 41 21 2"
_symmetry_group_IT_number 92
_symmetry_cell_setting 'tetragonal'
loop_
_space_group_symop_operation_xyz
x,y,z
1/2-y,1/2+x,1/4+z
-x,-y,1/2+z
1/2+y,1/2-x,3/4+z
1/2+x,1/2-y,3/4-z
1/2-x,1/2+y,1/4-z
y,x,-z
-y,-x,1/2-z
loop_
_atom_site_type_symbol
_atom_site_label
_atom_site_fract_x
_atom_site_fract_y
_atom_site_fract_z
Si Si1 0.685504 0.314497 0.750000
Si Si2 0.304844 0.131202 0.796743
Si Si3 0.625979 0.954949 0.659416
Si Si4 0.009084 0.262216 0.475150
Si Si5 0.062423 0.142178 0.701168
Si Si6 0.972910 0.972910 0.500000
Si Si7 0.632665 0.064548 0.268909
O O1 0.683691 0.248312 0.603369
O O2 0.679759 0.377842 0.578872
O O3 0.263881 0.071696 0.693742
O O4 0.363522 0.140505 0.617275
O O5 0.342046 0.106362 0.029515
O O6 0.683424 0.982163 0.821997
O O7 0.569394 0.923568 0.818168
O O8 0.611577 0.010468 0.464025
O O9 0.011743 0.191771 0.586270
O O10 0.954106 0.295967 0.320620
O O11 0.095842 0.095842 0.500000
O O12 0.025194 0.100242 0.900558
O O13 0.988199 0.011801 0.250000
#
# Coordination Sequence:
#
# PCOD9549007 Si02
#       7
#     4   8   8   8   8   4   8
#     4  11  20  34  64 104 128 152 216 290 346 393
#     4  10  20  35  61  94 131 162 210 276 336 388
#     4  10  20  39  62  86 125 169 222 264 327 384
#     4  10  20  37  63  94 128 161 220 274 329 395
#     4  11  21  37  68 107 131 168 224 284 352 395
#     4  11  24  42  64 106 150 178 216 276 356 419
#     4  10  22  37  64  89 129 177 216 270 330 388
#
# _framework density 20.021965999999999
#
# number of rings (size 3 to 8) (size 9 to 14) (size 15 to 20)
#    0.000    1.667    4.167    1.000    0.000    0.000 
#    0.000    0.000  132.000    0.000   32.500    0.000 
#    0.000    0.000    0.000    0.000    0.000    0.000 
#
# Total GULP energy -267462.047921 kJ/mol
# GULP energy per Si atom -5572.125998 kJ/mol
# Density = 1.997639 g / cm^3
# Si number density = 20.021966 Si / 1000 Ang^3
#
#
#
# Elastic Constant Matrix: (Units=GPa)
#
#
# Indices 1 2 3 4 5 6 
#
# 1 61.9236 60.2244 28.0574 0.0000 0.0000 0.0000
# 2 60.2244 61.9232 28.0568 0.0000 0.0000 0.0000
# 3 28.0574 28.0568 78.5108 0.0000 0.0000 0.0000
# 4 0.0000 0.0000 0.0000 18.2440 0.0000 0.0000
# 5 0.0000 0.0000 0.0000 0.0000 18.2439 0.0000
# 6 0.0000 0.0000 0.0000 0.0000 0.0000 24.1300
#
#
#
# Elastic Compliance Matrix: (Units=1/GPa)
#
#
# Indices 1 2 3 4 5 6 
#
# 1 0.299189 -0.289394 -0.003503 0.000000 0.000000 0.000000
# 2 -0.289394 0.299189 -0.003498 0.000000 0.000000 0.000000
# 3 -0.003503 -0.003498 0.015239 0.000000 0.000000 0.000000
# 4 0.000000 0.000000 0.000000 0.054812 0.000000 0.000000
# 5 0.000000 0.000000 0.000000 0.000000 0.054813 0.000000
# 6 0.000000 0.000000 0.000000 0.000000 0.000000 0.041442
#
#
# Mechanical properties :
#
#
# Convention : Reuss Voigt Hill
#
# Bulk Modulus (GPa) = 48.01409 48.33720 48.17564
# Shear Modulus (GPa) = 3.66457 17.85820 10.76138
#
# Velocity S-wave (km/s) = 1.35434 2.98976 2.32087
# Velocity P-wave (km/s) = 5.14572 6.00939 5.59424
#
# Compressibility (1/GPa) = 0.02082722
#
# Stress axis : x y z
#
# Youngs Moduli (GPa) = 3.34237 3.34237 65.62144
#
# Poissons Ratio (x) = 0.96726 0.22984
# Poissons Ratio (y) = 0.96726 0.22955
# Poissons Ratio (z) = 0.01171 0.01169
#
# Static dielectric constant tensor:
#      x y z
#    x 1.735860 0.000000 0.000000 
#    y 0.000000 1.735860 0.000000 
#    z 0.000000 0.000000 1.968630 
# 
# From -- ./inp_files/669.got.cif
#   From: 2010.05.17/outbox.cif.g08.bks.cpg/sg92_1_cif.got.tgz:669.got - 2010.06.03 19:35:17.
