data_PCOD9549466
_publ_section_title
;
Structure prediction by ZEFSAII (Michael W. Deem and Ramdas Pophale) SiO2 
 PCOD9549466
Probable space group: P 41 21 2
;
_chemical_formula_sum "Si O2"
_cell_formula_units_Z 48
_cell_length_a 8.165859
_cell_length_b 8.165859
_cell_length_c 28.599847
_cell_angle_alpha 90.000000
_cell_angle_beta 90.000000
_cell_angle_gamma 90.000000
_cell_volume 1907.073640
_symmetry_space_group_name_H-M "P 41 21 2"
_symmetry_group_IT_number 92
_symmetry_cell_setting 'tetragonal'
loop_
_space_group_symop_operation_xyz
x,y,z
1/2-y,1/2+x,1/4+z
-x,-y,1/2+z
1/2+y,1/2-x,3/4+z
1/2+x,1/2-y,3/4-z
1/2-x,1/2+y,1/4-z
y,x,-z
-y,-x,1/2-z
loop_
_atom_site_type_symbol
_atom_site_label
_atom_site_fract_x
_atom_site_fract_y
_atom_site_fract_z
Si Si1 0.294036 0.727983 0.913411
Si Si2 0.425067 0.574934 0.250000
Si Si3 0.324601 0.324601 0.500000
Si Si4 0.501186 0.929589 0.415686
Si Si5 0.061832 0.696823 0.992332
Si Si6 0.176380 0.255836 0.909161
Si Si7 0.552450 0.580433 0.099427
O O1 0.200836 0.640474 0.956339
O O2 0.172796 0.803159 0.876123
O O3 0.394636 0.586457 0.887593
O O4 0.407859 0.893053 0.923829
O O5 0.610282 0.584615 0.232787
O O6 0.297234 0.594331 0.208043
O O7 0.404952 0.408765 0.545001
O O8 0.130894 0.344215 0.487412
O O9 0.365900 0.904534 0.455682
O O10 0.633502 0.781595 0.419998
O O11 0.417041 0.906393 0.365175
O O12 0.148001 0.114003 0.869763
#
# Coordination Sequence:
#
# PCOD9549466 Si02
#       7
#     8   4   4   8   8   8   8
#     4  11  24  47  69 107 143 189 243 299 368 436
#     4  11  22  48  67 100 148 199 242 304 369 432
#     4  11  24  42  73 104 146 201 240 310 375 428
#     4  11  24  47  71 106 146 195 241 304 374 438
#     4  11  23  44  72 102 145 195 242 302 372 444
#     4  11  26  47  70 104 150 195 250 304 369 451
#     4  11  24  44  70 106 142 189 249 304 356 448
#
# _framework density 25.169454999999999
#
# number of rings (size 3 to 8) (size 9 to 14) (size 15 to 20)
#    0.000    1.000    5.000    2.000    4.667    1.333 
#   12.000    0.000    0.000    0.000    0.000    0.000 
#    0.000    0.000    0.000    0.000    0.000    0.000 
#
# Total GULP energy -268067.585941 kJ/mol
# GULP energy per Si atom -5584.741374 kJ/mol
# Density = 2.511217 g / cm^3
# Si number density = 25.169455 Si / 1000 Ang^3
#
#
#
# Elastic Constant Matrix: (Units=GPa)
#
#
# Indices 1 2 3 4 5 6 
#
# 1 34.4900 10.1694 6.4095 0.0000 0.0000 0.0000
# 2 10.1694 34.4907 6.4096 0.0000 0.0000 0.0000
# 3 6.4095 6.4096 117.7155 0.0000 0.0000 0.0000
# 4 0.0000 0.0000 0.0000 41.1381 0.0000 0.0000
# 5 0.0000 0.0000 0.0000 0.0000 41.1379 0.0000
# 6 0.0000 0.0000 0.0000 0.0000 0.0000 36.2836
#
#
#
# Elastic Compliance Matrix: (Units=1/GPa)
#
#
# Indices 1 2 3 4 5 6 
#
# 1 0.031932 -0.009185 -0.001239 0.000000 0.000000 0.000000
# 2 -0.009185 0.031932 -0.001239 0.000000 0.000000 0.000000
# 3 -0.001239 -0.001239 0.008630 0.000000 0.000000 0.000000
# 4 0.000000 0.000000 0.000000 0.024308 0.000000 0.000000
# 5 0.000000 0.000000 0.000000 0.000000 0.024308 0.000000
# 6 0.000000 0.000000 0.000000 0.000000 0.000000 0.027561
#
#
# Mechanical properties :
#
#
# Convention : Reuss Voigt Hill
#
# Bulk Modulus (GPa) = 20.33769 25.85257 23.09513
# Shear Modulus (GPa) = 26.54138 34.62578 30.58358
#
# Velocity S-wave (km/s) = 3.25084 3.71308 3.48962
# Velocity P-wave (km/s) = 4.71046 5.35502 5.04305
#
# Compressibility (1/GPa) = 0.04916980
#
# Stress axis : x y z
#
# Youngs Moduli (GPa) = 31.31635 31.31692 115.87569
#
# Poissons Ratio (x) = 0.28764 0.14352
# Poissons Ratio (y) = 0.28764 0.14352
# Poissons Ratio (z) = 0.03879 0.03879
#
# Static dielectric constant tensor:
#      x y z
#    x 2.209480 0.000000 0.000000 
#    y 0.000000 2.209480 0.000000 
#    z 0.000000 0.000000 1.971400 
# 
# From -- ./inp_files/4558.got.cif
#   From: 2010.05.17/outbox.cif.g08.bks.cpg/sg92_3_cif.got.tgz:4558.got - 2010.06.03 19:35:17.
