data_PCOD9549397
_publ_section_title
;
Structure prediction by ZEFSAII (Michael W. Deem and Ramdas Pophale) SiO2 
 PCOD9549397
Probable space group: P 41 21 2
;
_chemical_formula_sum "Si O2"
_cell_formula_units_Z 40
_cell_length_a 11.195388
_cell_length_b 11.195388
_cell_length_c 12.793355
_cell_angle_alpha 90.000000
_cell_angle_beta 90.000000
_cell_angle_gamma 90.000000
_cell_volume 1603.477057
_symmetry_space_group_name_H-M "P 41 21 2"
_symmetry_group_IT_number 92
_symmetry_cell_setting 'tetragonal'
loop_
_space_group_symop_operation_xyz
x,y,z
1/2-y,1/2+x,1/4+z
-x,-y,1/2+z
1/2+y,1/2-x,3/4+z
1/2+x,1/2-y,3/4-z
1/2-x,1/2+y,1/4-z
y,x,-z
-y,-x,1/2-z
loop_
_atom_site_type_symbol
_atom_site_label
_atom_site_fract_x
_atom_site_fract_y
_atom_site_fract_z
Si Si1 0.272374 0.272374 0.000000
Si Si2 0.092915 0.459815 0.020902
Si Si3 0.914884 0.796910 0.347356
Si Si4 0.807914 0.939547 0.161670
Si Si5 0.496023 0.503978 0.250000
Si Si6 0.074569 0.637302 0.679456
O O1 0.224054 0.405821 0.990821
O O2 0.209455 0.216826 0.101032
O O3 0.157712 0.546288 0.107546
O O4 0.008885 0.362401 0.076867
O O5 0.999889 0.549828 0.966856
O O6 0.890337 0.860820 0.237445
O O7 0.991417 0.882460 0.422634
O O8 0.888695 0.003102 0.074798
O O9 0.710874 0.855875 0.104491
O O10 0.731448 0.029577 0.235240
#
# Coordination Sequence:
#
# PCOD9549397 Si02
#       6
#     4   8   8   8   4   8
#     4  11  22  40  70 105 140 196 246 307 362 444
#     4  11  22  43  69 106 138 188 243 304 360 439
#     4  11  25  47  73 103 151 195 244 303 378 438
#     4  11  25  50  70 111 149 201 247 310 371 446
#     4  11  28  48  70 107 152 194 246 301 378 448
#     4  10  24  47  74 104 149 188 251 303 367 442
#
# _framework density 24.945789999999999
#
# number of rings (size 3 to 8) (size 9 to 14) (size 15 to 20)
#    0.000    1.200    4.000    0.600    2.800    4.800 
#   14.400    0.000    0.000    0.000    0.000    0.000 
#    0.000    0.000    0.000    0.000    0.000    0.000 
#
# Total GULP energy -223101.222615 kJ/mol
# GULP energy per Si atom -5577.530565 kJ/mol
# Density = 2.488901 g / cm^3
# Si number density = 24.945790 Si / 1000 Ang^3
#
#
#
# Elastic Constant Matrix: (Units=GPa)
#
#
# Indices 1 2 3 4 5 6 
#
# 1 79.3093 14.8768 12.4265 0.0000 0.0000 0.0000
# 2 14.8768 79.3103 12.4265 0.0000 0.0000 0.0000
# 3 12.4265 12.4265 72.7322 0.0000 0.0000 0.0000
# 4 0.0000 0.0000 0.0000 -10.5026 0.0000 0.0000
# 5 0.0000 0.0000 0.0000 0.0000 -10.5023 0.0000
# 6 0.0000 0.0000 0.0000 0.0000 0.0000 26.5267
#
#
#
# Elastic Compliance Matrix: (Units=1/GPa)
#
#
# Indices 1 2 3 4 5 6 
#
# 1 0.013319 -0.002201 -0.001900 0.000000 0.000000 0.000000
# 2 -0.002201 0.013319 -0.001900 0.000000 0.000000 0.000000
# 3 -0.001900 -0.001900 0.014398 0.000000 0.000000 0.000000
# 4 0.000000 0.000000 0.000000 -0.095215 0.000000 0.000000
# 5 0.000000 0.000000 0.000000 0.000000 -0.095217 0.000000
# 6 0.000000 0.000000 0.000000 0.000000 0.000000 0.037698
#
#
# Mechanical properties :
#
#
# Convention : Reuss Voigt Hill
#
# Bulk Modulus (GPa) = 34.43924 34.53459 34.48691
# Shear Modulus (GPa) = -55.54409 13.87916 -20.83246
#
# Velocity S-wave (km/s) = -4.72380 2.36131 -2.89296
# Velocity P-wave (km/s) = 3.98958 4.61609 1.64189
#
# Compressibility (1/GPa) = 0.02903665
#
# Stress axis : x y z
#
# Youngs Moduli (GPa) = 75.07886 75.07980 69.45318
#
# Poissons Ratio (x) = 0.16523 0.13194
# Poissons Ratio (y) = 0.16523 0.13193
# Poissons Ratio (z) = 0.14262 0.14262
#
# Static dielectric constant tensor:
#      x y z
#    x 4.143350 0.000000 0.000000 
#    y 0.000000 4.143590 0.000000 
#    z 0.000000 0.000000 3.349120 
# 
# From -- ./inp_files/2679.got.cif
#   From: 2010.05.17/outbox.cif.g08.bks.cpg/sg92_2_cif.got.tgz:2679.got - 2010.06.03 19:35:17.
