data_PCOD9549491
_publ_section_title
;
Structure prediction by ZEFSAII (Michael W. Deem and Ramdas Pophale) SiO2 
 PCOD9549491
Probable space group: P 41 21 2
;
_chemical_formula_sum "Si O2"
_cell_formula_units_Z 40
_cell_length_a 8.355350
_cell_length_b 8.355350
_cell_length_c 24.653430
_cell_angle_alpha 90.000000
_cell_angle_beta 90.000000
_cell_angle_gamma 90.000000
_cell_volume 1721.102140
_symmetry_space_group_name_H-M "P 41 21 2"
_symmetry_group_IT_number 92
_symmetry_cell_setting 'tetragonal'
loop_
_space_group_symop_operation_xyz
x,y,z
1/2-y,1/2+x,1/4+z
-x,-y,1/2+z
1/2+y,1/2-x,3/4+z
1/2+x,1/2-y,3/4-z
1/2-x,1/2+y,1/4-z
y,x,-z
-y,-x,1/2-z
loop_
_atom_site_type_symbol
_atom_site_label
_atom_site_fract_x
_atom_site_fract_y
_atom_site_fract_z
Si Si1 0.313751 0.165730 0.300727
Si Si2 0.993568 0.792834 0.043225
Si Si3 0.244871 0.289056 0.942474
Si Si4 0.533442 0.401210 0.889207
Si Si5 0.747337 0.537429 0.090397
O O1 0.358472 0.225945 0.241351
O O2 0.444999 0.217043 0.345546
O O3 0.144836 0.241685 0.319839
O O4 0.306115 0.973991 0.303995
O O5 0.877405 0.648914 0.061721
O O6 0.045488 0.898834 0.094694
O O7 0.900469 0.900469 0.000000
O O8 0.434565 0.296957 0.931884
O O9 0.162848 0.196738 0.893670
O O10 0.208333 0.208333 0.000000
O O11 0.597264 0.563793 0.916257
#
# Coordination Sequence:
#
# PCOD9549491 Si02
#       5
#     8   8   8   8   8
#     4  11  25  44  74 103 146 187 243 298 364 431
#     4  12  24  45  71 104 136 193 240 291 365 428
#     4  11  27  47  71 108 148 192 246 302 369 432
#     4  11  26  48  70 105 149 189 242 300 358 435
#     4  11  23  47  70 104 142 182 243 297 356 433
#
# _framework density 23.240919999999999
#
# number of rings (size 3 to 8) (size 9 to 14) (size 15 to 20)
#    0.000    0.800    6.000    0.600    5.600    6.400 
#    0.000    0.000    0.000    0.000    0.000    0.000 
#    0.000    0.000    0.000    0.000    0.000    0.000 
#
# Total GULP energy -223978.019097 kJ/mol
# GULP energy per Si atom -5599.450477 kJ/mol
# Density = 2.318802 g / cm^3
# Si number density = 23.240920 Si / 1000 Ang^3
#
#
#
# Elastic Constant Matrix: (Units=GPa)
#
#
# Indices 1 2 3 4 5 6 
#
# 1 59.9150 56.5884 10.1821 0.0000 0.0000 0.0000
# 2 56.5884 59.9150 10.1821 0.0000 0.0000 0.0000
# 3 10.1821 10.1821 50.4668 0.0000 0.0000 0.0000
# 4 0.0000 0.0000 0.0000 41.9225 0.0000 0.0000
# 5 0.0000 0.0000 0.0000 0.0000 41.9225 0.0000
# 6 0.0000 0.0000 0.0000 0.0000 0.0000 42.8484
#
#
#
# Elastic Compliance Matrix: (Units=1/GPa)
#
#
# Indices 1 2 3 4 5 6 
#
# 1 0.154752 -0.145855 -0.001795 0.000000 0.000000 0.000000
# 2 -0.145855 0.154752 -0.001795 0.000000 0.000000 0.000000
# 3 -0.001795 -0.001795 0.020539 0.000000 0.000000 0.000000
# 4 0.000000 0.000000 0.000000 0.023854 0.000000 0.000000
# 5 0.000000 0.000000 0.000000 0.000000 0.023854 0.000000
# 6 0.000000 0.000000 0.000000 0.000000 0.000000 0.023338
#
#
# Mechanical properties :
#
#
# Convention : Reuss Voigt Hill
#
# Bulk Modulus (GPa) = 32.09920 36.02245 34.06082
# Shear Modulus (GPa) = 7.03866 31.56163 19.30015
#
# Velocity S-wave (km/s) = 1.74217 3.68913 2.88486
# Velocity P-wave (km/s) = 4.22946 5.80340 5.07779
#
# Compressibility (1/GPa) = 0.03115343
#
# Stress axis : x y z
#
# Youngs Moduli (GPa) = 6.46196 6.46196 48.68705
#
# Poissons Ratio (x) = 0.94251 0.08740
# Poissons Ratio (y) = 0.94251 0.08740
# Poissons Ratio (z) = 0.01160 0.01160
#
# Static dielectric constant tensor:
#      x y z
#    x 1.877010 0.000000 0.000000 
#    y 0.000000 1.877010 0.000000 
#    z 0.000000 0.000000 1.868310 
# 
# From -- ./inp_files/3812.got.cif
#   From: 2010.05.17/outbox.cif.g08.bks.cpg/sg92_2_cif.got.tgz:3812.got - 2010.06.03 19:35:17.
