data_PCOD9549133
_publ_section_title
;
Structure prediction by ZEFSAII (Michael W. Deem and Ramdas Pophale) SiO2 
 PCOD9549133
Probable space group: P 41 21 2
;
_chemical_formula_sum "Si O2"
_cell_formula_units_Z 40
_cell_length_a 9.013438
_cell_length_b 9.013438
_cell_length_c 21.250911
_cell_angle_alpha 90.000000
_cell_angle_beta 90.000000
_cell_angle_gamma 90.000000
_cell_volume 1726.467884
_symmetry_space_group_name_H-M "P 41 21 2"
_symmetry_group_IT_number 92
_symmetry_cell_setting 'tetragonal'
loop_
_space_group_symop_operation_xyz
x,y,z
1/2-y,1/2+x,1/4+z
-x,-y,1/2+z
1/2+y,1/2-x,3/4+z
1/2+x,1/2-y,3/4-z
1/2-x,1/2+y,1/4-z
y,x,-z
-y,-x,1/2-z
loop_
_atom_site_type_symbol
_atom_site_label
_atom_site_fract_x
_atom_site_fract_y
_atom_site_fract_z
Si Si1 0.452540 0.547461 0.750000
Si Si2 0.709786 0.360693 0.914476
Si Si3 0.609157 0.609157 0.000000
Si Si4 0.576441 0.982708 0.641818
Si Si5 0.744232 0.061333 0.447259
Si Si6 0.261633 0.178303 0.394877
O O1 0.418411 0.371423 0.748332
O O2 0.386264 0.628910 0.687922
O O3 0.644520 0.447717 0.973574
O O4 0.629325 0.205556 0.909528
O O5 0.889474 0.374201 0.908022
O O6 0.668751 0.453729 0.851962
O O7 0.648662 0.719212 0.943577
O O8 0.521098 0.085369 0.700854
O O9 0.443855 0.876631 0.620151
O O10 0.712107 0.213662 0.410745
#
# Coordination Sequence:
#
# PCOD9549133 Si02
#       6
#     4   8   4   8   8   8
#     4  11  22  37  68  92 132 173 215 280 330 386
#     4   9  22  42  64  92 133 168 206 271 328 392
#     4   9  20  43  66  90 124 171 221 254 332 384
#     4  10  22  40  60  92 131 162 206 267 321 381
#     4   9  22  40  60  95 123 171 219 262 322 399
#     4  10  21  39  65  94 123 168 219 269 316 392
#
# _framework density 23.168688
#
# number of rings (size 3 to 8) (size 9 to 14) (size 15 to 20)
#    1.200    1.200    0.000    1.200    5.600    2.400 
#    0.000    0.000    0.000    0.000    0.000    0.000 
#    0.000    0.000    0.000    0.000    0.000    0.000 
#
# Total GULP energy -223094.107938 kJ/mol
# GULP energy per Si atom -5577.352698 kJ/mol
# Density = 2.311595 g / cm^3
# Si number density = 23.168688 Si / 1000 Ang^3
#
#
#
# Elastic Constant Matrix: (Units=GPa)
#
#
# Indices 1 2 3 4 5 6 
#
# 1 130.8606 71.5683 27.9874 0.0000 0.0000 0.0000
# 2 71.5683 130.8600 27.9871 0.0000 0.0000 0.0000
# 3 27.9874 27.9871 37.3468 0.0000 0.0000 0.0000
# 4 0.0000 0.0000 0.0000 18.2531 0.0000 0.0000
# 5 0.0000 0.0000 0.0000 0.0000 18.2532 0.0000
# 6 0.0000 0.0000 0.0000 0.0000 0.0000 49.1919
#
#
#
# Elastic Compliance Matrix: (Units=1/GPa)
#
#
# Indices 1 2 3 4 5 6 
#
# 1 0.011548 -0.005317 -0.004670 0.000000 0.000000 0.000000
# 2 -0.005317 0.011548 -0.004670 0.000000 0.000000 0.000000
# 3 -0.004670 -0.004670 0.033775 0.000000 0.000000 0.000000
# 4 0.000000 0.000000 0.000000 0.054785 0.000000 0.000000
# 5 0.000000 0.000000 0.000000 0.000000 0.054785 0.000000
# 6 0.000000 0.000000 0.000000 0.000000 0.000000 0.020329
#
#
# Mechanical properties :
#
#
# Convention : Reuss Voigt Hill
#
# Bulk Modulus (GPa) = 36.28612 61.57256 48.92934
# Shear Modulus (GPa) = 22.19564 28.57461 25.38512
#
# Velocity S-wave (km/s) = 3.09852 3.51569 3.31367
# Velocity P-wave (km/s) = 5.33824 6.56609 5.98374
#
# Compressibility (1/GPa) = 0.02755875
#
# Stress axis : x y z
#
# Youngs Moduli (GPa) = 86.59177 86.59164 29.60794
#
# Poissons Ratio (x) = 0.46043 0.13826
# Poissons Ratio (y) = 0.46043 0.13826
# Poissons Ratio (z) = 0.40436 0.40434
#
# Static dielectric constant tensor:
#      x y z
#    x 1.874150 0.000000 0.000000 
#    y 0.000000 1.874150 0.000000 
#    z 0.000000 0.000000 1.930970 
# 
# From -- ./inp_files/4196.got.cif
#   From: 2010.05.17/outbox.cif.g08.bks.cpg/sg92_3_cif.got.tgz:4196.got - 2010.06.03 19:35:17.
