data_PCOD9549606
_publ_section_title
;
Structure prediction by ZEFSAII (Michael W. Deem and Ramdas Pophale) SiO2 
 PCOD9549606
Probable space group: P 42 2 2
;
_chemical_formula_sum "Si O2"
_cell_formula_units_Z 48
_cell_length_a 19.559345
_cell_length_b 19.559345
_cell_length_c 9.046482
_cell_angle_alpha 90.000000
_cell_angle_beta 90.000000
_cell_angle_gamma 90.000000
_cell_volume 3460.894316
_symmetry_space_group_name_H-M "P 42 2 2"
_symmetry_group_IT_number 93
_symmetry_cell_setting 'tetragonal'
loop_
_space_group_symop_operation_xyz
x,y,z
-y,x,1/2+z
-x,-y,z
y,-x,1/2+z
x,-y,-z
-x,y,-z
y,x,1/2-z
-y,-x,1/2-z
loop_
_atom_site_type_symbol
_atom_site_label
_atom_site_fract_x
_atom_site_fract_y
_atom_site_fract_z
Si Si1 0.913328 0.634790 0.168954
Si Si2 0.496077 0.916789 0.170371
Si Si3 0.986542 0.116463 0.673773
Si Si4 0.213900 0.884036 0.180449
Si Si5 0.643284 0.921530 0.671233
Si Si6 0.870227 0.228081 0.670972
O O1 0.892926 0.561713 0.236692
O O2 0.885319 0.697187 0.265988
O O3 0.995942 0.638741 0.171807
O O4 0.895159 0.642056 0.996814
O O5 0.424110 0.896793 0.242693
O O6 0.500000 0.000000 0.171774
O O7 0.500000 0.895128 0.000000
O O8 0.949808 0.050193 0.750000
O O9 0.932145 0.176284 0.707344
O O10 0.000000 0.100636 0.500000
O O11 0.056861 0.156761 0.714073
O O12 0.184282 0.815719 0.250000
O O13 0.285908 0.903609 0.250914
O O14 0.224708 0.871579 0.006421
O O15 0.804121 0.195880 0.750000
#
# Coordination Sequence:
#
# PCOD9549606 Si02
#       6
#     8   8   8   8   8   8
#     4  10  18  30  47  64  87 110 135 174 214 257
#     4   9  17  28  45  67  86 109 134 166 209 255
#     4   9  19  35  50  62  77 103 138 185 230 272
#     4  11  21  33  47  63  83 110 143 180 223 268
#     4  10  19  30  45  66  87 108 137 173 214 260
#     4  10  19  33  48  64  83 109 142 176 221 266
#
# _framework density 13.869248000000001
#
# number of rings (size 3 to 8) (size 9 to 14) (size 15 to 20)
#    0.000    2.167    1.667    2.500    0.000    3.667 
#    0.000    2.500    0.000    0.000    0.000    0.000 
#    0.000    0.000    0.000    0.000    0.000    0.833 
#
# Total GULP energy -267274.386102 kJ/mol
# GULP energy per Si atom -5568.216377 kJ/mol
# Density = 1.383768 g / cm^3
# Si number density = 13.869248 Si / 1000 Ang^3
#
#
#
# Elastic Constant Matrix: (Units=GPa)
#
#
# Indices 1 2 3 4 5 6 
#
# 1 33.0020 87.2428 48.7069 0.0000 0.0000 0.0000
# 2 87.2428 33.0118 48.7056 0.0000 0.0000 0.0000
# 3 48.7069 48.7056 86.9803 0.0000 0.0000 0.0000
# 4 0.0000 0.0000 0.0000 21.1369 0.0000 0.0000
# 5 0.0000 0.0000 0.0000 0.0000 21.1360 0.0000
# 6 0.0000 0.0000 0.0000 0.0000 0.0000 10.0132
#
#
#
# Elastic Compliance Matrix: (Units=1/GPa)
#
#
# Indices 1 2 3 4 5 6 
#
# 1 -0.001610 0.016829 -0.008522 0.000000 0.000000 0.000000
# 2 0.016829 -0.001607 -0.008524 0.000000 0.000000 0.000000
# 3 -0.008522 -0.008524 0.021042 0.000000 0.000000 0.000000
# 4 0.000000 0.000000 0.000000 0.047311 0.000000 0.000000
# 5 0.000000 0.000000 0.000000 0.000000 0.047313 0.000000
# 6 0.000000 0.000000 0.000000 0.000000 0.000000 0.099868
#
#
# Mechanical properties :
#
#
# Convention : Reuss Voigt Hill
#
# Bulk Modulus (GPa) = 57.50105 58.03387 57.76746
# Shear Modulus (GPa) = 22.87851 8.34648 15.61249
#
# Velocity S-wave (km/s) = 4.06591 2.45582 3.35877
# Velocity P-wave (km/s) = 7.97443 7.06936 7.53550
#
# Compressibility (1/GPa) = 0.01739099
#
# Stress axis : x y z
#
# Youngs Moduli (GPa) = -620.96348 -622.17987 47.52406
#
# Poissons Ratio (x) = 10.47074 0.40499
# Poissons Ratio (y) = 10.45027 0.40509
# Poissons Ratio (z) = -5.29178 -5.30341
#
# Static dielectric constant tensor:
#      x y z
#    x 1.443720 0.000000 0.000000 
#    y 0.000000 1.443720 0.000000 
#    z 0.000000 0.000000 2.259030 
# 
# From -- ./inp_files/2071.got.cif
#   From: 2010.05.17/outbox.cif.g08.bks.cpg/sg93_2_cif.got.tgz:2071.got - 2010.06.03 19:38:44.
