data_PCOD9549013
_publ_section_title
;
Structure prediction by ZEFSAII (Michael W. Deem and Ramdas Pophale) SiO2 
 PCOD9549013
Probable space group: P 41 21 2
;
_chemical_formula_sum "Si O2"
_cell_formula_units_Z 44
_cell_length_a 20.504985
_cell_length_b 20.504985
_cell_length_c 5.227487
_cell_angle_alpha 90.000000
_cell_angle_beta 90.000000
_cell_angle_gamma 90.000000
_cell_volume 2197.919962
_symmetry_space_group_name_H-M "P 41 21 2"
_symmetry_group_IT_number 92
_symmetry_cell_setting 'tetragonal'
loop_
_space_group_symop_operation_xyz
x,y,z
1/2-y,1/2+x,1/4+z
-x,-y,1/2+z
1/2+y,1/2-x,3/4+z
1/2+x,1/2-y,3/4-z
1/2-x,1/2+y,1/4-z
y,x,-z
-y,-x,1/2-z
loop_
_atom_site_type_symbol
_atom_site_label
_atom_site_fract_x
_atom_site_fract_y
_atom_site_fract_z
Si Si1 0.416706 0.527081 0.496405
Si Si2 0.199227 0.977346 0.546186
Si Si3 0.878969 0.766113 0.016017
Si Si4 0.618248 0.618248 0.500000
Si Si5 0.211937 0.677655 0.269171
Si Si6 0.142272 0.765163 0.634784
O O1 0.465729 0.465729 0.500000
O O2 0.431955 0.568046 0.750000
O O3 0.342768 0.504733 0.469711
O O4 0.431867 0.568134 0.250000
O O5 0.139895 0.949347 0.371762
O O6 0.240849 0.915403 0.652350
O O7 0.226856 0.043672 0.427870
O O8 0.851561 0.716195 0.233688
O O9 0.830915 0.830915 0.000000
O O10 0.872847 0.738025 0.729735
O O11 0.670118 0.627716 0.723697
O O12 0.262612 0.737389 0.250000
O O13 0.150160 0.709224 0.420109
O O14 0.213222 0.786779 0.750000
#
# Coordination Sequence:
#
# PCOD9549013 Si02
#       6
#     8   8   8   4   8   8
#     4  10  22  35  49  69 105 159 208 245 280 334
#     4  11  24  36  54  86 117 159 206 258 305 351
#     4  10  23  38  58  80 118 162 206 246 299 367
#     4  10  22  34  60  82 118 152 202 260 308 356
#     4  10  20  39  60  81 106 154 208 255 306 361
#     4  10  20  36  60  86 110 151 209 267 314 354
#
# _framework density 20.018927999999999
#
# number of rings (size 3 to 8) (size 9 to 14) (size 15 to 20)
#    0.000    1.818    0.909    3.818   11.455    2.182 
#    0.000    0.000    0.000    0.000    0.000    0.000 
#    0.000    0.000    6.182    0.000    1.091    0.727 
#
# Total GULP energy -244954.527393 kJ/mol
# GULP energy per Si atom -5567.148350 kJ/mol
# Density = 1.997336 g / cm^3
# Si number density = 20.018928 Si / 1000 Ang^3
#
#
#
# Elastic Constant Matrix: (Units=GPa)
#
#
# Indices 1 2 3 4 5 6 
#
# 1 63.2642 32.8327 22.0511 0.0000 0.0000 0.0000
# 2 32.8327 63.2639 22.0522 0.0000 0.0000 0.0000
# 3 22.0511 22.0522 108.3771 0.0000 0.0000 0.0000
# 4 0.0000 0.0000 0.0000 22.1055 0.0000 0.0000
# 5 0.0000 0.0000 0.0000 0.0000 22.1025 0.0000
# 6 0.0000 0.0000 0.0000 0.0000 0.0000 23.4858
#
#
#
# Elastic Compliance Matrix: (Units=1/GPa)
#
#
# Indices 1 2 3 4 5 6 
#
# 1 0.022169 -0.010691 -0.002335 0.000000 0.000000 0.000000
# 2 -0.010691 0.022170 -0.002336 0.000000 0.000000 0.000000
# 3 -0.002335 -0.002336 0.010177 0.000000 0.000000 0.000000
# 4 0.000000 0.000000 0.000000 0.045238 0.000000 0.000000
# 5 0.000000 0.000000 0.000000 0.000000 0.045244 0.000000
# 6 0.000000 0.000000 0.000000 0.000000 0.000000 0.042579
#
#
# Mechanical properties :
#
#
# Convention : Reuss Voigt Hill
#
# Bulk Modulus (GPa) = 42.03149 43.19747 42.61448
# Shear Modulus (GPa) = 22.10126 24.07006 23.08566
#
# Velocity S-wave (km/s) = 3.32628 3.47128 3.39955
# Velocity P-wave (km/s) = 5.98278 6.13934 6.06157
#
# Compressibility (1/GPa) = 0.02379169
#
# Stress axis : x y z
#
# Youngs Moduli (GPa) = 45.10747 45.10692 98.25653
#
# Poissons Ratio (x) = 0.48226 0.22946
# Poissons Ratio (y) = 0.48226 0.22949
# Poissons Ratio (z) = 0.10534 0.10535
#
# Static dielectric constant tensor:
#      x y z
#    x 1.829170 0.000000 0.000000 
#    y 0.000000 1.829160 0.000000 
#    z 0.000000 0.000000 1.802910 
# 
# From -- ./inp_files/584.got.cif
#   From: 2010.05.17/outbox.cif.g08.bks.cpg/sg92_1_cif.got.tgz:584.got - 2010.06.03 19:35:17.
