data_PCOD9549256
_publ_section_title
;
Structure prediction by ZEFSAII (Michael W. Deem and Ramdas Pophale) SiO2 
 PCOD9549256
Probable space group: P 41 21 2
;
_chemical_formula_sum "Si O2"
_cell_formula_units_Z 40
_cell_length_a 8.772175
_cell_length_b 8.772175
_cell_length_c 23.325959
_cell_angle_alpha 90.000000
_cell_angle_beta 90.000000
_cell_angle_gamma 90.000000
_cell_volume 1794.957136
_symmetry_space_group_name_H-M "P 41 21 2"
_symmetry_group_IT_number 92
_symmetry_cell_setting 'tetragonal'
loop_
_space_group_symop_operation_xyz
x,y,z
1/2-y,1/2+x,1/4+z
-x,-y,1/2+z
1/2+y,1/2-x,3/4+z
1/2+x,1/2-y,3/4-z
1/2-x,1/2+y,1/4-z
y,x,-z
-y,-x,1/2-z
loop_
_atom_site_type_symbol
_atom_site_label
_atom_site_fract_x
_atom_site_fract_y
_atom_site_fract_z
Si Si1 0.632320 0.353466 0.420039
Si Si2 0.793394 0.793394 0.000000
Si Si3 0.398002 0.285000 0.613064
Si Si4 0.695315 0.103404 0.639099
Si Si5 0.564069 0.769916 0.669831
Si Si6 0.887528 0.112473 0.750000
O O1 0.695819 0.185128 0.415261
O O2 0.467404 0.376578 0.390010
O O3 0.753212 0.442494 0.381339
O O4 0.628900 0.436402 0.480809
O O5 0.678352 0.766543 0.052912
O O6 0.962610 0.756421 0.023695
O O7 0.566437 0.221471 0.619823
O O8 0.820322 0.128862 0.589299
O O9 0.783882 0.153365 0.696490
O O10 0.637930 0.934635 0.656331
#
# Coordination Sequence:
#
# PCOD9549256 Si02
#       6
#     8   4   8   8   8   4
#     4  10  22  42  63  91 131 172 219 269 334 410
#     4  10  23  42  67  96 132 180 222 264 344 426
#     4  11  22  42  68  96 133 176 227 283 334 408
#     4  11  23  43  67  96 135 174 226 288 339 402
#     4  10  23  43  64  95 133 173 224 278 335 410
#     4  10  23  42  63  92 132 174 210 272 352 398
#
# _framework density 22.284652000000001
#
# number of rings (size 3 to 8) (size 9 to 14) (size 15 to 20)
#    0.000    1.600    0.000    5.400    0.000    6.400 
#    0.000   28.000    0.000    0.000    0.000    0.000 
#    0.000    0.000    0.000    0.000    0.000    0.000 
#
# Total GULP energy -223069.143516 kJ/mol
# GULP energy per Si atom -5576.728588 kJ/mol
# Density = 2.223393 g / cm^3
# Si number density = 22.284652 Si / 1000 Ang^3
#
#
#
# Elastic Constant Matrix: (Units=GPa)
#
#
# Indices 1 2 3 4 5 6 
#
# 1 101.6393 36.5769 28.0566 0.0000 0.0000 0.0000
# 2 36.5769 101.6387 28.0566 0.0000 0.0000 0.0000
# 3 28.0566 28.0566 75.8876 0.0000 0.0000 0.0000
# 4 0.0000 0.0000 0.0000 34.3764 0.0000 0.0000
# 5 0.0000 0.0000 0.0000 0.0000 34.3766 0.0000
# 6 0.0000 0.0000 0.0000 0.0000 0.0000 41.5585
#
#
#
# Elastic Compliance Matrix: (Units=1/GPa)
#
#
# Indices 1 2 3 4 5 6 
#
# 1 0.011941 -0.003429 -0.003147 0.000000 0.000000 0.000000
# 2 -0.003429 0.011941 -0.003147 0.000000 0.000000 0.000000
# 3 -0.003147 -0.003147 0.015505 0.000000 0.000000 0.000000
# 4 0.000000 0.000000 0.000000 0.029090 0.000000 0.000000
# 5 0.000000 0.000000 0.000000 0.000000 0.029090 0.000000
# 6 0.000000 0.000000 0.000000 0.000000 0.000000 0.024062
#
#
# Mechanical properties :
#
#
# Convention : Reuss Voigt Hill
#
# Bulk Modulus (GPa) = 50.14789 51.61618 50.88204
# Shear Modulus (GPa) = 33.84727 34.49398 34.17063
#
# Velocity S-wave (km/s) = 3.90148 3.93858 3.92008
# Velocity P-wave (km/s) = 6.54581 6.62538 6.58572
#
# Compressibility (1/GPa) = 0.01994102
#
# Stress axis : x y z
#
# Youngs Moduli (GPa) = 83.74275 83.74223 64.49712
#
# Poissons Ratio (x) = 0.28712 0.20299
# Poissons Ratio (y) = 0.28712 0.20299
# Poissons Ratio (z) = 0.26356 0.26356
#
# Static dielectric constant tensor:
#      x y z
#    x 1.857670 0.000000 0.000000 
#    y 0.000000 1.857670 0.000000 
#    z 0.000000 0.000000 1.833110 
# 
# From -- ./inp_files/3841.got.cif
#   From: 2010.05.17/outbox.cif.g08.bks.cpg/sg92_2_cif.got.tgz:3841.got - 2010.06.03 19:35:17.
