data_PCOD9549538
_publ_section_title
;
Structure prediction by ZEFSAII (Michael W. Deem and Ramdas Pophale) SiO2 
 PCOD9549538
Probable space group: P 41 21 2
;
_chemical_formula_sum "Si O2"
_cell_formula_units_Z 32
_cell_length_a 11.418174
_cell_length_b 11.418174
_cell_length_c 11.220584
_cell_angle_alpha 90.000000
_cell_angle_beta 90.000000
_cell_angle_gamma 90.000000
_cell_volume 1462.880245
_symmetry_space_group_name_H-M "P 41 21 2"
_symmetry_group_IT_number 92
_symmetry_cell_setting 'tetragonal'
loop_
_space_group_symop_operation_xyz
x,y,z
1/2-y,1/2+x,1/4+z
-x,-y,1/2+z
1/2+y,1/2-x,3/4+z
1/2+x,1/2-y,3/4-z
1/2-x,1/2+y,1/4-z
y,x,-z
-y,-x,1/2-z
loop_
_atom_site_type_symbol
_atom_site_label
_atom_site_fract_x
_atom_site_fract_y
_atom_site_fract_z
Si Si1 0.204488 0.298687 0.876866
Si Si2 0.941967 0.127476 0.446586
Si Si3 0.547506 0.013146 0.584695
Si Si4 0.783665 0.950200 0.295770
O O1 0.286409 0.379976 0.792340
O O2 0.166947 0.180519 0.807599
O O3 0.081324 0.351085 0.918959
O O4 0.271969 0.271969 0.000000
O O5 0.998314 0.199683 0.336483
O O6 0.846164 0.040398 0.386163
O O7 0.043576 0.043576 0.500000
O O8 0.495294 0.977742 0.711763
O O9 0.572453 0.149859 0.581216
#
# Coordination Sequence:
#
# PCOD9549538 Si02
#       4
#     8   8   8   8
#     4  12  27  45  79 112 151 203 259 315 392 468
#     4  11  28  49  77 112 156 202 250 320 392 468
#     4  12  26  46  76 111 150 199 260 320 380 463
#     4  11  26  50  74 106 157 197 253 317 391 457
#
# _framework density 21.874654
#
# number of rings (size 3 to 8) (size 9 to 14) (size 15 to 20)
#    0.000    0.500    2.500    3.750   10.500    0.000 
#    9.000    0.000    0.000    0.000    0.000    0.000 
#    0.000    0.000    0.000    0.000    0.000    0.000 
#
# Total GULP energy -178509.199355 kJ/mol
# GULP energy per Si atom -5578.412480 kJ/mol
# Density = 2.182487 g / cm^3
# Si number density = 21.874654 Si / 1000 Ang^3
#
#
#
# Elastic Constant Matrix: (Units=GPa)
#
#
# Indices 1 2 3 4 5 6 
#
# 1 138.8704 41.2207 66.0843 0.0000 0.0000 0.0000
# 2 41.2207 138.8704 66.0843 0.0000 0.0000 0.0000
# 3 66.0843 66.0843 181.4755 0.0000 0.0000 0.0000
# 4 0.0000 0.0000 0.0000 25.8401 0.0000 0.0000
# 5 0.0000 0.0000 0.0000 0.0000 25.8401 0.0000
# 6 0.0000 0.0000 0.0000 0.0000 0.0000 23.6479
#
#
#
# Elastic Compliance Matrix: (Units=1/GPa)
#
#
# Indices 1 2 3 4 5 6 
#
# 1 0.008909 -0.001331 -0.002760 0.000000 0.000000 0.000000
# 2 -0.001331 0.008909 -0.002760 0.000000 0.000000 0.000000
# 3 -0.002760 -0.002760 0.007520 0.000000 0.000000 0.000000
# 4 0.000000 0.000000 0.000000 0.038700 0.000000 0.000000
# 5 0.000000 0.000000 0.000000 0.000000 0.038700 0.000000
# 6 0.000000 0.000000 0.000000 0.000000 0.000000 0.042287
#
#
# Mechanical properties :
#
#
# Convention : Reuss Voigt Hill
#
# Bulk Modulus (GPa) = 85.92545 89.55496 87.74021
# Shear Modulus (GPa) = 30.74938 34.12076 32.43507
#
# Velocity S-wave (km/s) = 3.75334 3.95375 3.85485
# Velocity P-wave (km/s) = 7.62559 7.86587 7.74666
#
# Compressibility (1/GPa) = 0.01163800
#
# Stress axis : x y z
#
# Youngs Moduli (GPa) = 112.24207 112.24207 132.97634
#
# Poissons Ratio (x) = 0.14944 0.36695
# Poissons Ratio (y) = 0.14944 0.36695
# Poissons Ratio (z) = 0.30973 0.30973
#
# Static dielectric constant tensor:
#      x y z
#    x 1.721840 0.000000 0.000000 
#    y 0.000000 1.721840 0.000000 
#    z 0.000000 0.000000 2.044130 
# 
# From -- ./inp_files/1926.got.cif
#   From: 2010.05.17/outbox.cif.g08.bks.cpg/sg92_1_cif.got.tgz:1926.got - 2010.06.03 19:35:17.
