data_PCOD9549910
_publ_section_title
;
Structure prediction by ZEFSAII (Michael W. Deem and Ramdas Pophale) SiO2 
 PCOD9549910
Probable space group: P 42 2 2
;
_chemical_formula_sum "Si O2"
_cell_formula_units_Z 34
_cell_length_a 9.000000
_cell_length_b 9.000000
_cell_length_c 21.000000
_cell_angle_alpha 90.000000
_cell_angle_beta 90.000000
_cell_angle_gamma 90.000000
_cell_volume 1701.000000
_symmetry_space_group_name_H-M "P 42 2 2"
_symmetry_group_IT_number 93
_symmetry_cell_setting 'tetragonal'
loop_
_space_group_symop_operation_xyz
x,y,z
-y,x,1/2+z
-x,-y,z
y,-x,1/2+z
x,-y,-z
-x,y,-z
y,x,1/2-z
-y,-x,1/2-z
loop_
_atom_site_type_symbol
_atom_site_label
_atom_site_fract_x
_atom_site_fract_y
_atom_site_fract_z
Si Si1 0.827615 0.961745 0.425869
Si Si2 0.165001 0.453503 0.691050
Si Si3 0.500000 0.500000 0.500000
Si Si4 0.319733 0.337727 0.108650
Si Si5 0.179439 0.638253 0.160592
O O1 0.716894 0.047990 0.378002
O O2 0.795980 0.000000 0.500000
O O3 0.791983 0.790537 0.412761
O O4 0.000000 0.000000 0.413288
O O5 0.277991 0.583001 0.668222
O O6 0.238271 0.308951 0.659631
O O7 0.153731 0.410307 0.765911
O O8 0.000000 0.500000 0.670005
O O9 0.608432 0.412547 0.547804
O O10 0.232583 0.486794 0.128093
#
# Coordination Sequence:
#
# PCOD9549910 Si02
#       5
#     8   8   2   8   8
#     4  11  25  44  68  99 137 180 227 285 353 423
#     4  11  23  41  66  97 136 174 229 284 343 409
#     4  12  24  40  66 104 128 176 236 274 360 408
#     4  12  23  42  67  95 135 175 226 285 339 420
#     4  11  23  43  67 100 133 177 228 279 346 414
#
# _framework density 19.988242
#
# number of rings (size 3 to 8) (size 9 to 14) (size 15 to 20)
#    0.000    0.706    2.353    5.647    0.000    2.824 
#    0.000    7.059    0.000    0.000    0.000    0.000 
#    0.000    0.000    0.000    0.000    0.000    0.000 
#
# Total GULP energy -189854.890968 kJ/mol
# GULP energy per Si atom -5583.967381 kJ/mol
# Density = 1.994275 g / cm^3
# Si number density = 19.988242 Si / 1000 Ang^3
#
#
#
# Elastic Constant Matrix: (Units=GPa)
#
#
# Indices 1 2 3 4 5 6 
#
# 1 127.1625 59.9867 46.5220 0.0000 0.0000 0.0000
# 2 59.9867 127.1625 46.5220 0.0000 0.0000 0.0000
# 3 46.5220 46.5220 104.1479 0.0000 0.0000 0.0000
# 4 0.0000 0.0000 0.0000 16.2305 0.0000 0.0000
# 5 0.0000 0.0000 0.0000 0.0000 16.2305 0.0000
# 6 0.0000 0.0000 0.0000 0.0000 0.0000 51.7396
#
#
#
# Elastic Compliance Matrix: (Units=1/GPa)
#
#
# Indices 1 2 3 4 5 6 
#
# 1 0.010878 -0.004009 -0.003068 0.000000 0.000000 0.000000
# 2 -0.004009 0.010878 -0.003068 0.000000 0.000000 0.000000
# 3 -0.003068 -0.003068 0.012343 0.000000 0.000000 0.000000
# 4 0.000000 0.000000 0.000000 0.061612 0.000000 0.000000
# 5 0.000000 0.000000 0.000000 0.000000 0.061612 0.000000
# 6 0.000000 0.000000 0.000000 0.000000 0.000000 0.019328
#
#
# Mechanical properties :
#
#
# Convention : Reuss Voigt Hill
#
# Bulk Modulus (GPa) = 72.42461 73.83713 73.13087
# Shear Modulus (GPa) = 24.80864 30.53629 27.67246
#
# Velocity S-wave (km/s) = 3.52683 3.91284 3.72484
# Velocity P-wave (km/s) = 7.27303 7.57854 7.42736
#
# Compressibility (1/GPa) = 0.01380746
#
# Stress axis : x y z
#
# Youngs Moduli (GPa) = 91.93269 91.93269 81.01888
#
# Poissons Ratio (x) = 0.36854 0.24858
# Poissons Ratio (y) = 0.36854 0.24858
# Poissons Ratio (z) = 0.28207 0.28207
#
# Static dielectric constant tensor:
#      x y z
#    x 1.715960 0.000000 0.000000 
#    y 0.000000 1.715960 0.000000 
#    z 0.000000 0.000000 1.712140 
# 
# From -- ./inp_files/6017.got.cif
#   From: 2010.05.17/outbox.ucp.g08.bks.cvg/sg93_4_cif.got.tgz:6017.got - 2010.06.11 10:36:56.
