data_PCOD9549152
_publ_section_title
;
Structure prediction by ZEFSAII (Michael W. Deem and Ramdas Pophale) SiO2 
 PCOD9549152
Probable space group: P 41 21 2
;
_chemical_formula_sum "Si O2"
_cell_formula_units_Z 24
_cell_length_a 9.926627
_cell_length_b 9.926627
_cell_length_c 9.902067
_cell_angle_alpha 90.000000
_cell_angle_beta 90.000000
_cell_angle_gamma 90.000000
_cell_volume 975.729121
_symmetry_space_group_name_H-M "P 41 21 2"
_symmetry_group_IT_number 92
_symmetry_cell_setting 'tetragonal'
loop_
_space_group_symop_operation_xyz
x,y,z
1/2-y,1/2+x,1/4+z
-x,-y,1/2+z
1/2+y,1/2-x,3/4+z
1/2+x,1/2-y,3/4-z
1/2-x,1/2+y,1/4-z
y,x,-z
-y,-x,1/2-z
loop_
_atom_site_type_symbol
_atom_site_label
_atom_site_fract_x
_atom_site_fract_y
_atom_site_fract_z
Si Si1 0.610799 0.610799 0.500000
Si Si2 0.025350 0.767473 0.997362
Si Si3 0.613032 0.013975 0.634625
Si Si4 0.217973 0.782028 0.750000
O O1 0.626523 0.510215 0.372466
O O2 0.586976 0.748687 0.418388
O O3 0.114638 0.811564 0.870988
O O4 0.108640 0.639298 0.058528
O O5 0.877356 0.710764 0.966604
O O6 0.586013 0.998053 0.477416
#
# Coordination Sequence:
#
# PCOD9549152 Si02
#       4
#     4   8   8   4
#     4  10  22  41  67  98 142 188 248 303 363 442
#     4  11  25  46  74 107 151 193 252 308 377 451
#     4  10  21  41  66  97 142 185 240 302 374 442
#     4  12  26  51  75 116 152 202 252 315 377 456
#
# _framework density 24.596990999999999
#
# number of rings (size 3 to 8) (size 9 to 14) (size 15 to 20)
#    0.000    1.333    6.667    0.000    4.667    1.333 
#    6.000    1.667    0.000    0.000    0.000    0.000 
#    0.000    0.000    0.000    0.000    0.000    0.000 
#
# Total GULP energy -133948.553735 kJ/mol
# GULP energy per Si atom -5581.189739 kJ/mol
# Density = 2.454101 g / cm^3
# Si number density = 24.596991 Si / 1000 Ang^3
#
#
#
# Elastic Constant Matrix: (Units=GPa)
#
#
# Indices 1 2 3 4 5 6 
#
# 1 117.3494 5.9731 37.0294 0.0000 0.0000 0.0000
# 2 5.9731 117.3476 37.0291 0.0000 0.0000 0.0000
# 3 37.0294 37.0291 126.2912 0.0000 0.0000 0.0000
# 4 0.0000 0.0000 0.0000 41.7570 0.0000 0.0000
# 5 0.0000 0.0000 0.0000 0.0000 41.7570 0.0000
# 6 0.0000 0.0000 0.0000 0.0000 0.0000 52.1202
#
#
#
# Elastic Compliance Matrix: (Units=1/GPa)
#
#
# Indices 1 2 3 4 5 6 
#
# 1 0.009410 0.000432 -0.002886 0.000000 0.000000 0.000000
# 2 0.000432 0.009410 -0.002886 0.000000 0.000000 0.000000
# 3 -0.002886 -0.002886 0.009610 0.000000 0.000000 0.000000
# 4 0.000000 0.000000 0.000000 0.023948 0.000000 0.000000
# 5 0.000000 0.000000 0.000000 0.000000 0.023948 0.000000
# 6 0.000000 0.000000 0.000000 0.000000 0.000000 0.019186
#
#
# Mechanical properties :
#
#
# Convention : Reuss Voigt Hill
#
# Bulk Modulus (GPa) = 56.33377 57.89459 57.11418
# Shear Modulus (GPa) = 44.59903 45.85728 45.22816
#
# Velocity S-wave (km/s) = 4.26278 4.32249 4.29274
# Velocity P-wave (km/s) = 6.86883 6.96421 6.91668
#
# Compressibility (1/GPa) = 0.01775134
#
# Stress axis : x y z
#
# Youngs Moduli (GPa) = 106.26819 106.26645 104.05396
#
# Poissons Ratio (x) = -0.04586 0.30026
# Poissons Ratio (y) = -0.04586 0.30027
# Poissons Ratio (z) = 0.30665 0.30665
#
# Static dielectric constant tensor:
#      x y z
#    x 1.980830 0.000000 0.000000 
#    y 0.000000 1.980830 0.000000 
#    z 0.000000 0.000000 1.991890 
# 
# From -- ./inp_files/1037.got.cif
#   From: 2010.05.17/outbox.cif.g08.bks.cpg/sg92_1_cif.got.tgz:1037.got - 2010.06.03 19:35:17.
