data_PCOD9549068
_publ_section_title
;
Structure prediction by ZEFSAII (Michael W. Deem and Ramdas Pophale) SiO2 
 PCOD9549068
Probable space group: P 41 21 2
;
_chemical_formula_sum "Si O2"
_cell_formula_units_Z 60
_cell_length_a 13.142175
_cell_length_b 13.142175
_cell_length_c 17.919778
_cell_angle_alpha 90.000000
_cell_angle_beta 90.000000
_cell_angle_gamma 90.000000
_cell_volume 3095.046063
_symmetry_space_group_name_H-M "P 41 21 2"
_symmetry_group_IT_number 92
_symmetry_cell_setting 'tetragonal'
loop_
_space_group_symop_operation_xyz
x,y,z
1/2-y,1/2+x,1/4+z
-x,-y,1/2+z
1/2+y,1/2-x,3/4+z
1/2+x,1/2-y,3/4-z
1/2-x,1/2+y,1/4-z
y,x,-z
-y,-x,1/2-z
loop_
_atom_site_type_symbol
_atom_site_label
_atom_site_fract_x
_atom_site_fract_y
_atom_site_fract_z
Si Si1 0.208656 0.579105 0.942747
Si Si2 0.666971 0.698476 0.770234
Si Si3 0.700896 0.091874 0.593323
Si Si4 0.861458 0.958986 0.940804
Si Si5 0.172659 0.172659 0.000000
Si Si6 0.489708 0.399274 0.646847
Si Si7 0.997774 0.867788 0.302401
Si Si8 0.099011 0.382099 0.992943
O O1 0.286333 0.565793 0.875326
O O2 0.131129 0.485608 0.951919
O O3 0.163399 0.690621 0.944826
O O4 0.279688 0.564947 0.014105
O O5 0.758757 0.681476 0.711018
O O6 0.562693 0.678307 0.726268
O O7 0.663116 0.610935 0.834094
O O8 0.631083 0.111015 0.668015
O O9 0.807389 0.044994 0.626622
O O10 0.646624 0.013022 0.536587
O O11 0.980886 0.973278 0.918818
O O12 0.867949 0.867949 0.000000
O O13 0.284309 0.163730 0.034571
O O14 0.079485 0.154620 0.056307
O O15 0.540713 0.419402 0.567600
O O16 0.087642 0.912359 0.250000
#
# Coordination Sequence:
#
# PCOD9549068 Si02
#       8
#     8   8   8   8   4   8   8   8
#     4  11  26  36  62  98 134 174 220 271 343 410
#     4  11  22  40  65  92 129 182 223 274 334 400
#     4  11  23  41  64  97 138 175 215 279 351 410
#     4  10  20  40  66  86 122 169 226 271 316 402
#     4  12  20  38  68 102 126 158 216 286 354 380
#     4  11  18  38  67  96 123 166 222 278 332 393
#     4  11  20  37  64 102 130 157 223 288 334 395
#     4  11  26  38  64 103 138 169 215 281 354 411
#
# _framework density 19.385819000000001
#
# number of rings (size 3 to 8) (size 9 to 14) (size 15 to 20)
#    0.000    1.067    7.333    0.000   11.200    0.000 
#    0.000    3.333    0.000    0.000    0.000    0.000 
#    0.000    0.000    0.000    0.000    0.000    0.000 
#
# Total GULP energy -334029.575954 kJ/mol
# GULP energy per Si atom -5567.159599 kJ/mol
# Density = 1.934170 g / cm^3
# Si number density = 19.385819 Si / 1000 Ang^3
#
#
#
# Elastic Constant Matrix: (Units=GPa)
#
#
# Indices 1 2 3 4 5 6 
#
# 1 105.5319 31.4415 22.9938 0.0000 0.0000 0.0000
# 2 31.4415 105.5320 22.9939 0.0000 0.0000 0.0000
# 3 22.9938 22.9939 30.5597 0.0000 0.0000 0.0000
# 4 0.0000 0.0000 0.0000 19.6669 0.0000 0.0000
# 5 0.0000 0.0000 0.0000 0.0000 19.6666 0.0000
# 6 0.0000 0.0000 0.0000 0.0000 0.0000 26.3829
#
#
#
# Elastic Compliance Matrix: (Units=1/GPa)
#
#
# Indices 1 2 3 4 5 6 
#
# 1 0.011633 -0.001864 -0.007350 0.000000 0.000000 0.000000
# 2 -0.001864 0.011633 -0.007350 0.000000 0.000000 0.000000
# 3 -0.007350 -0.007350 0.043783 0.000000 0.000000 0.000000
# 4 0.000000 0.000000 0.000000 0.050847 0.000000 0.000000
# 5 0.000000 0.000000 0.000000 0.000000 0.050848 0.000000
# 6 0.000000 0.000000 0.000000 0.000000 0.000000 0.037903
#
#
# Mechanical properties :
#
#
# Convention : Reuss Voigt Hill
#
# Bulk Modulus (GPa) = 29.48084 44.05355 36.76719
# Shear Modulus (GPa) = 19.91382 24.08956 22.00169
#
# Velocity S-wave (km/s) = 3.20853 3.52893 3.37254
# Velocity P-wave (km/s) = 5.38207 6.27522 5.84573
#
# Compressibility (1/GPa) = 0.03392034
#
# Stress axis : x y z
#
# Youngs Moduli (GPa) = 85.96470 85.96449 22.83969
#
# Poissons Ratio (x) = 0.16027 0.16787
# Poissons Ratio (y) = 0.16027 0.16787
# Poissons Ratio (z) = 0.63183 0.63184
#
# Static dielectric constant tensor:
#      x y z
#    x 1.717280 0.000000 0.000000 
#    y 0.000000 1.717280 0.000000 
#    z 0.000000 0.000000 1.847820 
# 
# From -- ./inp_files/3622.got.cif
#   From: 2010.05.17/outbox.cif.g08.bks.cpg/sg92_2_cif.got.tgz:3622.got - 2010.06.03 19:35:17.
