data_PCOD9549036
_publ_section_title
;
Structure prediction by ZEFSAII (Michael W. Deem and Ramdas Pophale) SiO2 
 PCOD9549036
Probable space group: P 41 21 2
;
_chemical_formula_sum "Si O2"
_cell_formula_units_Z 44
_cell_length_a 8.620681
_cell_length_b 8.620681
_cell_length_c 28.154548
_cell_angle_alpha 90.000000
_cell_angle_beta 90.000000
_cell_angle_gamma 90.000000
_cell_volume 2092.337356
_symmetry_space_group_name_H-M "P 41 21 2"
_symmetry_group_IT_number 92
_symmetry_cell_setting 'tetragonal'
loop_
_space_group_symop_operation_xyz
x,y,z
1/2-y,1/2+x,1/4+z
-x,-y,1/2+z
1/2+y,1/2-x,3/4+z
1/2+x,1/2-y,3/4-z
1/2-x,1/2+y,1/4-z
y,x,-z
-y,-x,1/2-z
loop_
_atom_site_type_symbol
_atom_site_label
_atom_site_fract_x
_atom_site_fract_y
_atom_site_fract_z
Si Si1 0.780313 0.780313 0.000000
Si Si2 0.986885 0.527193 0.765440
Si Si3 0.816736 0.679198 0.335966
Si Si4 0.086372 0.100749 0.401054
Si Si5 0.548959 0.901238 0.336561
Si Si6 0.720454 0.132728 0.404415
O O1 0.826471 0.604730 0.012445
O O2 0.824373 0.878911 0.046902
O O3 0.949940 0.473169 0.712606
O O4 0.833080 0.578308 0.793625
O O5 0.079132 0.395496 0.794618
O O6 0.678193 0.559619 0.347330
O O7 0.715729 0.827655 0.323365
O O8 0.928757 0.696256 0.381455
O O9 0.174681 0.193550 0.359375
O O10 0.900968 0.099831 0.394767
O O11 0.601041 0.041870 0.369971
#
# Coordination Sequence:
#
# PCOD9549036 Si02
#       6
#     4   8   8   8   8   8
#     4  10  20  38  60  90 124 164 210 276 326 390
#     4  10  23  38  65  92 127 167 218 266 336 387
#     4  10  24  41  62  95 124 173 212 265 337 389
#     4  11  22  39  64  92 126 163 221 267 328 394
#     4  11  22  43  63  88 138 165 217 276 325 397
#     4  11  23  39  64  95 124 171 215 270 327 388
#
# _framework density 21.029115000000001
#
# number of rings (size 3 to 8) (size 9 to 14) (size 15 to 20)
#    0.000    1.455    1.818    4.364    5.091    0.000 
#    0.000    2.727    0.000    0.000    0.000    0.000 
#    0.000    0.000    0.000    0.000    0.000    0.000 
#
# Total GULP energy -245527.644721 kJ/mol
# GULP energy per Si atom -5580.173744 kJ/mol
# Density = 2.098125 g / cm^3
# Si number density = 21.029115 Si / 1000 Ang^3
#
#
#
# Elastic Constant Matrix: (Units=GPa)
#
#
# Indices 1 2 3 4 5 6 
#
# 1 63.6807 -9.3148 21.3503 0.0000 0.0000 0.0000
# 2 -9.3148 63.6807 21.3503 0.0000 0.0000 0.0000
# 3 21.3503 21.3503 110.2822 0.0000 0.0000 0.0000
# 4 0.0000 0.0000 0.0000 19.2817 0.0000 0.0000
# 5 0.0000 0.0000 0.0000 0.0000 19.2817 0.0000
# 6 0.0000 0.0000 0.0000 0.0000 0.0000 24.1801
#
#
#
# Elastic Compliance Matrix: (Units=1/GPa)
#
#
# Indices 1 2 3 4 5 6 
#
# 1 0.017696 0.003996 -0.004200 0.000000 0.000000 0.000000
# 2 0.003996 0.017696 -0.004200 0.000000 0.000000 0.000000
# 3 -0.004200 -0.004200 0.010694 0.000000 0.000000 0.000000
# 4 0.000000 0.000000 0.000000 0.051863 0.000000 0.000000
# 5 0.000000 0.000000 0.000000 0.000000 0.051863 0.000000
# 6 0.000000 0.000000 0.000000 0.000000 0.000000 0.041356
#
#
# Mechanical properties :
#
#
# Convention : Reuss Voigt Hill
#
# Bulk Modulus (GPa) = 26.82398 33.82393 30.32395
# Shear Modulus (GPa) = 23.54058 26.16590 24.85324
#
# Velocity S-wave (km/s) = 3.34941 3.53125 3.44153
# Velocity P-wave (km/s) = 5.26701 5.72237 5.49941
#
# Compressibility (1/GPa) = 0.03728008
#
# Stress axis : x y z
#
# Youngs Moduli (GPa) = 56.51027 56.51027 93.51311
#
# Poissons Ratio (x) = -0.22584 0.39271
# Poissons Ratio (y) = -0.22584 0.39271
# Poissons Ratio (z) = 0.23732 0.23732
#
# Static dielectric constant tensor:
#      x y z
#    x 1.758530 0.000000 0.000000 
#    y 0.000000 1.758530 0.000000 
#    z 0.000000 0.000000 1.763800 
# 
# From -- ./inp_files/4397.got.cif
#   From: 2010.05.17/outbox.cif.g08.bks.cpg/sg92_3_cif.got.tgz:4397.got - 2010.06.03 19:35:17.
