data_PCOD9549417
_publ_section_title
;
Structure prediction by ZEFSAII (Michael W. Deem and Ramdas Pophale) SiO2 
 PCOD9549417
Probable space group: P 41 21 2
;
_chemical_formula_sum "Si O2"
_cell_formula_units_Z 32
_cell_length_a 7.927033
_cell_length_b 7.927033
_cell_length_c 18.784785
_cell_angle_alpha 90.000000
_cell_angle_beta 90.000000
_cell_angle_gamma 90.000000
_cell_volume 1180.395543
_symmetry_space_group_name_H-M "P 41 21 2"
_symmetry_group_IT_number 92
_symmetry_cell_setting 'tetragonal'
loop_
_space_group_symop_operation_xyz
x,y,z
1/2-y,1/2+x,1/4+z
-x,-y,1/2+z
1/2+y,1/2-x,3/4+z
1/2+x,1/2-y,3/4-z
1/2-x,1/2+y,1/4-z
y,x,-z
-y,-x,1/2-z
loop_
_atom_site_type_symbol
_atom_site_label
_atom_site_fract_x
_atom_site_fract_y
_atom_site_fract_z
Si Si1 0.989988 0.604875 0.635770
Si Si2 0.744744 0.834622 0.861111
Si Si3 0.965926 0.122685 0.930586
Si Si4 0.270386 0.518676 0.032254
O O1 0.814807 0.603636 0.680833
O O2 0.912893 0.543011 0.559112
O O3 0.141709 0.740570 0.634287
O O4 0.104944 0.443377 0.654912
O O5 0.816601 0.856735 0.781589
O O6 0.830407 0.975287 0.912377
O O7 0.069757 0.142246 0.856897
O O8 0.065306 0.065306 0.000000
O O9 0.348543 0.348543 0.000000
#
# Coordination Sequence:
#
# PCOD9549417 Si02
#       4
#     8   8   8   8
#     4  10  25  47  82 123 170 224 295 360 441 535
#     4  11  23  50  80 126 171 221 296 370 439 528
#     4   9  22  48  86 116 175 233 292 365 452 528
#     4   8  20  49  77 116 164 230 296 353 426 540
#
# _framework density 27.109556000000001
#
# number of rings (size 3 to 8) (size 9 to 14) (size 15 to 20)
#    1.500    1.000    0.000    0.000    0.000    7.000 
#    9.000    6.250   16.500    0.000    0.000    0.000 
#    0.000    0.000    0.000    0.000    0.000    0.000 
#
# Total GULP energy -178285.315911 kJ/mol
# GULP energy per Si atom -5571.416122 kJ/mol
# Density = 2.704785 g / cm^3
# Si number density = 27.109556 Si / 1000 Ang^3
#
#
#
# Elastic Constant Matrix: (Units=GPa)
#
#
# Indices 1 2 3 4 5 6 
#
# 1 175.4672 36.4409 36.4560 0.0000 0.0000 0.0000
# 2 36.4409 175.4672 36.4560 0.0000 0.0000 0.0000
# 3 36.4560 36.4560 134.6224 0.0000 0.0000 0.0000
# 4 0.0000 0.0000 0.0000 31.9806 0.0000 0.0000
# 5 0.0000 0.0000 0.0000 0.0000 31.9806 0.0000
# 6 0.0000 0.0000 0.0000 0.0000 0.0000 -31.9860
#
#
#
# Elastic Compliance Matrix: (Units=1/GPa)
#
#
# Indices 1 2 3 4 5 6 
#
# 1 0.006198 -0.000994 -0.001409 0.000000 0.000000 0.000000
# 2 -0.000994 0.006198 -0.001409 0.000000 0.000000 0.000000
# 3 -0.001409 -0.001409 0.008191 0.000000 0.000000 0.000000
# 4 0.000000 0.000000 0.000000 0.031269 0.000000 0.000000
# 5 0.000000 0.000000 0.000000 0.000000 0.031269 0.000000
# 6 0.000000 0.000000 0.000000 0.000000 0.000000 -0.031264
#
#
# Mechanical properties :
#
#
# Convention : Reuss Voigt Hill
#
# Bulk Modulus (GPa) = 77.14665 78.25141 77.69903
# Shear Modulus (GPa) = 78.35868 31.47530 54.91699
#
# Velocity S-wave (km/s) = 5.38212 3.41110 4.50571
# Velocity P-wave (km/s) = 8.19403 6.66646 7.46940
#
# Compressibility (1/GPa) = 0.01296233
#
# Stress axis : x y z
#
# Youngs Moduli (GPa) = 161.33214 161.33214 122.07891
#
# Poissons Ratio (x) = 0.16044 0.17204
# Poissons Ratio (y) = 0.16044 0.17204
# Poissons Ratio (z) = 0.22735 0.22735
#
# Static dielectric constant tensor:
#      x y z
#    x 2.245020 0.000000 0.000000 
#    y 0.000000 2.245020 0.000000 
#    z 0.000000 0.000000 2.380800 
# 
# From -- ./inp_files/3383.got.cif
#   From: 2010.05.17/outbox.cif.g08.bks.cpg/sg92_2_cif.got.tgz:3383.got - 2010.06.03 19:35:17.
