data_PCOD9549424
_publ_section_title
;
Structure prediction by ZEFSAII (Michael W. Deem and Ramdas Pophale) SiO2 
 PCOD9549424
Probable space group: P 41 21 2
;
_chemical_formula_sum "Si O2"
_cell_formula_units_Z 36
_cell_length_a 9.691626
_cell_length_b 9.691626
_cell_length_c 17.796599
_cell_angle_alpha 90.000000
_cell_angle_beta 90.000000
_cell_angle_gamma 90.000000
_cell_volume 1671.592091
_symmetry_space_group_name_H-M "P 41 21 2"
_symmetry_group_IT_number 92
_symmetry_cell_setting 'tetragonal'
loop_
_space_group_symop_operation_xyz
x,y,z
1/2-y,1/2+x,1/4+z
-x,-y,1/2+z
1/2+y,1/2-x,3/4+z
1/2+x,1/2-y,3/4-z
1/2-x,1/2+y,1/4-z
y,x,-z
-y,-x,1/2-z
loop_
_atom_site_type_symbol
_atom_site_label
_atom_site_fract_x
_atom_site_fract_y
_atom_site_fract_z
Si Si1 0.416853 0.416853 0.500000
Si Si2 0.689305 0.310696 0.750000
Si Si3 0.602889 0.397112 0.250000
Si Si4 0.401765 0.492747 0.133856
Si Si5 0.598046 0.895869 0.045668
Si Si6 0.599004 0.045671 0.687439
O O1 0.484742 0.494118 0.570123
O O2 0.440659 0.253307 0.510333
O O3 0.611719 0.362214 0.676388
O O4 0.642635 0.154571 0.752669
O O5 0.464445 0.396139 0.199089
O O6 0.607519 0.263622 0.303513
O O7 0.248999 0.468244 0.102060
O O8 0.510082 0.915780 0.121626
O O9 0.567967 0.018391 0.986241
#
# Coordination Sequence:
#
# PCOD9549424 Si02
#       6
#     4   4   4   8   8   8
#     4  11  23  45  69 100 136 186 229 293 349 413
#     4  11  23  43  65 102 134 180 229 283 345 415
#     4  10  26  46  66 104 136 186 230 290 350 422
#     4  11  24  43  70  96 141 179 230 283 349 420
#     4  11  25  43  71  99 141 180 239 287 353 416
#     4  12  24  44  69 103 136 186 233 291 349 426
#
# _framework density 21.536355
#
# number of rings (size 3 to 8) (size 9 to 14) (size 15 to 20)
#    0.000    0.889    4.444    2.000    3.111    1.778 
#    0.000    0.000    0.000    0.000    0.000    0.000 
#    0.000    0.000    0.000    0.000    0.000    0.000 
#
# Total GULP energy -200506.750572 kJ/mol
# GULP energy per Si atom -5569.631960 kJ/mol
# Density = 2.148734 g / cm^3
# Si number density = 21.536355 Si / 1000 Ang^3
#
#
#
# Elastic Constant Matrix: (Units=GPa)
#
#
# Indices 1 2 3 4 5 6 
#
# 1 76.9497 27.4633 23.1328 0.0000 0.0000 0.0000
# 2 27.4633 76.9506 23.1338 0.0000 0.0000 0.0000
# 3 23.1328 23.1338 79.8651 0.0000 0.0000 0.0000
# 4 0.0000 0.0000 0.0000 29.0828 0.0000 0.0000
# 5 0.0000 0.0000 0.0000 0.0000 29.0827 0.0000
# 6 0.0000 0.0000 0.0000 0.0000 0.0000 24.1870
#
#
#
# Elastic Compliance Matrix: (Units=1/GPa)
#
#
# Indices 1 2 3 4 5 6 
#
# 1 0.015597 -0.004610 -0.003182 0.000000 0.000000 0.000000
# 2 -0.004610 0.015597 -0.003183 0.000000 0.000000 0.000000
# 3 -0.003182 -0.003183 0.014365 0.000000 0.000000 0.000000
# 4 0.000000 0.000000 0.000000 0.034385 0.000000 0.000000
# 5 0.000000 0.000000 0.000000 0.000000 0.034385 0.000000
# 6 0.000000 0.000000 0.000000 0.000000 0.000000 0.041345
#
#
# Mechanical properties :
#
#
# Convention : Reuss Voigt Hill
#
# Bulk Modulus (GPa) = 42.35579 42.35839 42.35709
# Shear Modulus (GPa) = 26.95510 27.13953 27.04731
#
# Velocity S-wave (km/s) = 3.54165 3.55374 3.54770
# Velocity P-wave (km/s) = 6.03607 6.04564 6.04086
#
# Compressibility (1/GPa) = 0.02360952
#
# Stress axis : x y z
#
# Youngs Moduli (GPa) = 64.11286 64.11315 69.61450
#
# Poissons Ratio (x) = 0.29556 0.22155
# Poissons Ratio (y) = 0.29555 0.22156
# Poissons Ratio (z) = 0.20404 0.20405
#
# Static dielectric constant tensor:
#      x y z
#    x 1.819210 0.000000 0.000000 
#    y 0.000000 1.819210 0.000000 
#    z 0.000000 0.000000 1.887460 
# 
# From -- ./inp_files/3486.got.cif
#   From: 2010.05.17/outbox.cif.g08.bks.cpg/sg92_2_cif.got.tgz:3486.got - 2010.06.03 19:35:17.
