data_PCOD9549265
_publ_section_title
;
Structure prediction by ZEFSAII (Michael W. Deem and Ramdas Pophale) SiO2 
 PCOD9549265
Probable space group: P 41 21 2
;
_chemical_formula_sum "Si O2"
_cell_formula_units_Z 48
_cell_length_a 19.921176
_cell_length_b 19.921176
_cell_length_c 5.308498
_cell_angle_alpha 90.000000
_cell_angle_beta 90.000000
_cell_angle_gamma 90.000000
_cell_volume 2106.694701
_symmetry_space_group_name_H-M "P 41 21 2"
_symmetry_group_IT_number 92
_symmetry_cell_setting 'tetragonal'
loop_
_space_group_symop_operation_xyz
x,y,z
1/2-y,1/2+x,1/4+z
-x,-y,1/2+z
1/2+y,1/2-x,3/4+z
1/2+x,1/2-y,3/4-z
1/2-x,1/2+y,1/4-z
y,x,-z
-y,-x,1/2-z
loop_
_atom_site_type_symbol
_atom_site_label
_atom_site_fract_x
_atom_site_fract_y
_atom_site_fract_z
Si Si1 0.255220 0.964743 0.385165
Si Si2 0.313510 0.207282 0.116994
Si Si3 0.677252 0.548603 0.839138
Si Si4 0.689472 0.689472 0.000000
Si Si5 0.971410 0.028591 0.250000
Si Si6 0.096534 0.475941 0.500474
Si Si7 0.437983 0.848560 0.416938
O O1 0.278912 0.890897 0.292210
O O2 0.222041 0.958870 0.659020
O O3 0.313469 0.020479 0.392913
O O4 0.203900 0.984549 0.164736
O O5 0.316179 0.234814 0.403501
O O6 0.305685 0.127795 0.094319
O O7 0.255660 0.255660 0.000000
O O8 0.604842 0.521218 0.908519
O O9 0.673273 0.630187 0.802488
O O10 0.014233 0.014233 0.500000
O O11 0.061333 0.544712 0.570075
O O12 0.091891 0.420156 0.728640
O O13 0.151077 0.505431 0.302761
#
# Coordination Sequence:
#
# PCOD9549265 Si02
#       7
#     8   8   8   4   4   8   8
#     4  11  24  45  68 106 139 195 243 309 368 445
#     4  11  23  45  69 103 138 191 247 306 370 453
#     4  10  22  42  70 101 141 180 247 304 366 445
#     4   9  20  38  70  94 128 178 242 302 356 423
#     4  11  22  40  74 112 140 186 240 314 388 459
#     4  12  22  43  62  98 141 193 240 305 366 448
#     4  12  28  41  71 105 148 195 253 313 383 456
#
# _framework density 22.784507999999999
#
# number of rings (size 3 to 8) (size 9 to 14) (size 15 to 20)
#    0.000    1.000    3.333    3.000    7.000    1.333 
#    0.000    2.500    0.000    0.000    0.000    0.000 
#    0.000    0.000    0.000    0.000    0.000    0.000 
#
# Total GULP energy -267289.869602 kJ/mol
# GULP energy per Si atom -5568.538950 kJ/mol
# Density = 2.273265 g / cm^3
# Si number density = 22.784508 Si / 1000 Ang^3
#
#
#
# Elastic Constant Matrix: (Units=GPa)
#
#
# Indices 1 2 3 4 5 6 
#
# 1 88.6560 67.5161 28.4110 0.0000 0.0000 0.0000
# 2 67.5161 88.6496 28.4099 0.0000 0.0000 0.0000
# 3 28.4110 28.4099 98.3916 0.0000 0.0000 0.0000
# 4 0.0000 0.0000 0.0000 37.5885 0.0000 0.0000
# 5 0.0000 0.0000 0.0000 0.0000 37.5884 0.0000
# 6 0.0000 0.0000 0.0000 0.0000 0.0000 38.6087
#
#
#
# Elastic Compliance Matrix: (Units=1/GPa)
#
#
# Indices 1 2 3 4 5 6 
#
# 1 0.027232 -0.020078 -0.002066 0.000000 0.000000 0.000000
# 2 -0.020078 0.027234 -0.002066 0.000000 0.000000 0.000000
# 3 -0.002066 -0.002066 0.011357 0.000000 0.000000 0.000000
# 4 0.000000 0.000000 0.000000 0.026604 0.000000 0.000000
# 5 0.000000 0.000000 0.000000 0.000000 0.026604 0.000000
# 6 0.000000 0.000000 0.000000 0.000000 0.000000 0.025901
#
#
# Mechanical properties :
#
#
# Convention : Reuss Voigt Hill
#
# Bulk Modulus (GPa) = 57.46265 58.26348 57.86306
# Shear Modulus (GPa) = 25.10641 32.84781 28.97711
#
# Velocity S-wave (km/s) = 3.32310 3.80106 3.57009
# Velocity P-wave (km/s) = 6.32446 6.70008 6.51498
#
# Compressibility (1/GPa) = 0.01740261
#
# Stress axis : x y z
#
# Youngs Moduli (GPa) = 36.72142 36.71878 88.05465
#
# Poissons Ratio (x) = 0.73724 0.18192
# Poissons Ratio (y) = 0.73729 0.18192
# Poissons Ratio (z) = 0.07587 0.07586
#
# Static dielectric constant tensor:
#      x y z
#    x 1.893310 0.000000 0.000000 
#    y 0.000000 1.893310 0.000000 
#    z 0.000000 0.000000 2.032660 
# 
# From -- ./inp_files/663.got.cif
#   From: 2010.05.17/outbox.cif.g08.bks.cpg/sg92_1_cif.got.tgz:663.got - 2010.06.03 19:35:17.
