data_PCOD9549171
_publ_section_title
;
Structure prediction by ZEFSAII (Michael W. Deem and Ramdas Pophale) SiO2 
 PCOD9549171
Probable space group: P 41 21 2
;
_chemical_formula_sum "Si O2"
_cell_formula_units_Z 36
_cell_length_a 13.179378
_cell_length_b 13.179378
_cell_length_c 10.624198
_cell_angle_alpha 90.000000
_cell_angle_beta 90.000000
_cell_angle_gamma 90.000000
_cell_volume 1845.380743
_symmetry_space_group_name_H-M "P 41 21 2"
_symmetry_group_IT_number 92
_symmetry_cell_setting 'tetragonal'
loop_
_space_group_symop_operation_xyz
x,y,z
1/2-y,1/2+x,1/4+z
-x,-y,1/2+z
1/2+y,1/2-x,3/4+z
1/2+x,1/2-y,3/4-z
1/2-x,1/2+y,1/4-z
y,x,-z
-y,-x,1/2-z
loop_
_atom_site_type_symbol
_atom_site_label
_atom_site_fract_x
_atom_site_fract_y
_atom_site_fract_z
Si Si1 0.967458 0.733961 0.713026
Si Si2 0.887386 0.260546 0.974797
Si Si3 0.646355 0.409341 0.391246
Si Si4 0.379659 0.379659 0.000000
Si Si5 0.716197 0.169423 0.135694
O O1 0.875314 0.654471 0.720422
O O2 0.917040 0.838433 0.762619
O O3 0.019898 0.744177 0.575214
O O4 0.056774 0.703564 0.811330
O O5 0.898151 0.220162 0.833595
O O6 0.799198 0.185970 0.028116
O O7 0.618424 0.381576 0.250000
O O8 0.617266 0.524026 0.410511
O O9 0.766075 0.382215 0.403497
O O10 0.768465 0.231536 0.250000
#
# Coordination Sequence:
#
# PCOD9549171 Si02
#       5
#     8   8   8   4   8
#     4  10  21  42  67  90 125 179 217 277 334 402
#     4  10  23  40  60  95 132 164 221 276 332 397
#     4  10  22  37  62  95 123 169 223 269 325 397
#     4  12  26  36  58  96 132 170 210 282 338 398
#     4   8  17  38  65  87 117 161 219 266 314 395
#
# _framework density 19.50817
#
# number of rings (size 3 to 8) (size 9 to 14) (size 15 to 20)
#    0.000    2.222    0.000    2.667    7.778    3.556 
#    4.000    0.000    0.000    0.000    0.000    0.000 
#    0.000    0.000    0.000    0.000    0.000    0.000 
#
# Total GULP energy -200583.781919 kJ/mol
# GULP energy per Si atom -5571.771720 kJ/mol
# Density = 1.946377 g / cm^3
# Si number density = 19.508170 Si / 1000 Ang^3
#
#
#
# Elastic Constant Matrix: (Units=GPa)
#
#
# Indices 1 2 3 4 5 6 
#
# 1 88.4611 67.0070 27.5113 0.0000 0.0000 0.0000
# 2 67.0070 88.4605 27.5127 0.0000 0.0000 0.0000
# 3 27.5113 27.5127 77.1553 0.0000 0.0000 0.0000
# 4 0.0000 0.0000 0.0000 -11.7105 0.0000 0.0000
# 5 0.0000 0.0000 0.0000 0.0000 -11.6888 0.0000
# 6 0.0000 0.0000 0.0000 0.0000 0.0000 12.2965
#
#
#
# Elastic Compliance Matrix: (Units=1/GPa)
#
#
# Indices 1 2 3 4 5 6 
#
# 1 0.026986 -0.019625 -0.002624 0.000000 0.000000 0.000000
# 2 -0.019625 0.026987 -0.002625 0.000000 0.000000 0.000000
# 3 -0.002624 -0.002625 0.014833 0.000000 0.000000 0.000000
# 4 0.000000 0.000000 0.000000 -0.085394 0.000000 0.000000
# 5 0.000000 0.000000 0.000000 0.000000 -0.085552 0.000000
# 6 0.000000 0.000000 0.000000 0.000000 0.000000 0.081324
#
#
# Mechanical properties :
#
#
# Convention : Reuss Voigt Hill
#
# Bulk Modulus (GPa) = 52.47747 55.34878 53.91313
# Shear Modulus (GPa) = 141.69811 6.58250 74.14031
#
# Velocity S-wave (km/s) = 8.53188 1.83890 6.17149
# Velocity P-wave (km/s) = 11.13624 5.73955 8.85885
#
# Compressibility (1/GPa) = 0.01905580
#
# Stress axis : x y z
#
# Youngs Moduli (GPa) = 37.05590 37.05513 67.41810
#
# Poissons Ratio (x) = 0.72722 0.17693
# Poissons Ratio (y) = 0.72723 0.17700
# Poissons Ratio (z) = 0.09725 0.09728
#
# Static dielectric constant tensor:
#      x y z
#    x 1.700130 0.000000 0.000000 
#    y 0.000000 1.700120 0.000000 
#    z 0.000000 0.000000 1.641120 
# 
# From -- ./inp_files/2023.got.cif
#   From: 2010.05.17/outbox.cif.g08.bks.cpg/sg92_2_cif.got.tgz:2023.got - 2010.06.03 19:35:17.
