data_PCOD9549347
_publ_section_title
;
Structure prediction by ZEFSAII (Michael W. Deem and Ramdas Pophale) SiO2 
 PCOD9549347
Probable space group: P 41 21 2
;
_chemical_formula_sum "Si O2"
_cell_formula_units_Z 44
_cell_length_a 9.657711
_cell_length_b 9.657711
_cell_length_c 17.935667
_cell_angle_alpha 90.000000
_cell_angle_beta 90.000000
_cell_angle_gamma 90.000000
_cell_volume 1672.884444
_symmetry_space_group_name_H-M "P 41 21 2"
_symmetry_group_IT_number 92
_symmetry_cell_setting 'tetragonal'
loop_
_space_group_symop_operation_xyz
x,y,z
1/2-y,1/2+x,1/4+z
-x,-y,1/2+z
1/2+y,1/2-x,3/4+z
1/2+x,1/2-y,3/4-z
1/2-x,1/2+y,1/4-z
y,x,-z
-y,-x,1/2-z
loop_
_atom_site_type_symbol
_atom_site_label
_atom_site_fract_x
_atom_site_fract_y
_atom_site_fract_z
Si Si1 0.159074 0.325668 0.564271
Si Si2 0.998519 0.085593 0.921596
Si Si3 0.080846 0.143969 0.319763
Si Si4 0.263636 0.736365 0.250000
Si Si5 0.331219 0.834004 0.047368
Si Si6 0.947657 0.449989 0.806823
O O1 0.245500 0.245500 0.500000
O O2 0.246230 0.459973 0.588603
O O3 0.149461 0.217476 0.630298
O O4 0.011974 0.399812 0.544084
O O5 0.137766 0.179456 0.931833
O O6 0.862246 0.179986 0.922124
O O7 0.999863 0.999863 0.000000
O O8 0.004478 0.010670 0.651657
O O9 0.126783 0.189579 0.237367
O O10 0.308866 0.893092 0.233103
O O11 0.432213 0.905804 0.107187
O O12 0.341583 0.937436 0.976599
#
# Coordination Sequence:
#
# PCOD9549347 Si02
#       6
#     8   8   8   4   8   8
#     4  11  27  45  78 116 165 219 289 367 441 532
#     4   9  19  42  70 100 155 204 261 354 434 509
#     4  11  24  43  76 110 158 216 290 351 443 521
#     4   8  20  44  80 100 158 220 266 354 450 498
#     4  10  23  44  74 107 159 211 278 350 443 515
#     4  10  23  48  77 112 163 220 278 362 440 529
#
# _framework density 26.301874999999999
#
# number of rings (size 3 to 8) (size 9 to 14) (size 15 to 20)
#    0.545    1.455    0.000    1.636   12.727    0.000 
#    6.545    1.818    0.000    0.000    0.000    0.000 
#    0.000    0.000    0.000    0.000    0.000    0.000 
#
# Total GULP energy -245732.218338 kJ/mol
# GULP energy per Si atom -5584.823144 kJ/mol
# Density = 2.624201 g / cm^3
# Si number density = 26.301875 Si / 1000 Ang^3
#
#
#
# Elastic Constant Matrix: (Units=GPa)
#
#
# Indices 1 2 3 4 5 6 
#
# 1 129.3681 73.6162 48.8085 0.0000 0.0000 0.0000
# 2 73.6162 129.3688 48.8088 0.0000 0.0000 0.0000
# 3 48.8085 48.8088 92.7633 0.0000 0.0000 0.0000
# 4 0.0000 0.0000 0.0000 -5.3987 0.0000 0.0000
# 5 0.0000 0.0000 0.0000 0.0000 -5.3982 0.0000
# 6 0.0000 0.0000 0.0000 0.0000 0.0000 56.7326
#
#
#
# Elastic Compliance Matrix: (Units=1/GPa)
#
#
# Indices 1 2 3 4 5 6 
#
# 1 0.012266 -0.005671 -0.003470 0.000000 0.000000 0.000000
# 2 -0.005671 0.012266 -0.003470 0.000000 0.000000 0.000000
# 3 -0.003470 -0.003470 0.014432 0.000000 0.000000 0.000000
# 4 0.000000 0.000000 0.000000 -0.185231 0.000000 0.000000
# 5 0.000000 0.000000 0.000000 0.000000 -0.185245 0.000000
# 6 0.000000 0.000000 0.000000 0.000000 0.000000 0.017627
#
#
# Mechanical properties :
#
#
# Convention : Reuss Voigt Hill
#
# Bulk Modulus (GPa) = 72.77112 77.10748 74.93930
# Shear Modulus (GPa) = -17.60047 21.20491 1.80222
#
# Velocity S-wave (km/s) = -2.58964 2.84247 0.82867
# Velocity P-wave (km/s) = 4.33429 6.33663 5.42858
#
# Compressibility (1/GPa) = 0.01374171
#
# Stress axis : x y z
#
# Youngs Moduli (GPa) = 81.52647 81.52684 69.29072
#
# Poissons Ratio (x) = 0.46230 0.24045
# Poissons Ratio (y) = 0.46230 0.24046
# Poissons Ratio (z) = 0.28291 0.28292
#
# Static dielectric constant tensor:
#      x y z
#    x 2.136840 0.000000 0.000000 
#    y 0.000000 2.136830 0.000000 
#    z 0.000000 0.000000 2.104650 
# 
# From -- ./inp_files/3039.got.cif
#   From: 2010.05.17/outbox.cif.g08.bks.cpg/sg92_2_cif.got.tgz:3039.got - 2010.06.03 19:35:17.
