data_PCOD9549653
_publ_section_title
;
Structure prediction by ZEFSAII (Michael W. Deem and Ramdas Pophale) SiO2 
 PCOD9549653
Probable space group: P 42 2 2
;
_chemical_formula_sum "Si O2"
_cell_formula_units_Z 60
_cell_length_a 12.164267
_cell_length_b 12.164267
_cell_length_c 21.797858
_cell_angle_alpha 90.000000
_cell_angle_beta 90.000000
_cell_angle_gamma 90.000000
_cell_volume 3225.415787
_symmetry_space_group_name_H-M "P 42 2 2"
_symmetry_group_IT_number 93
_symmetry_cell_setting 'tetragonal'
loop_
_space_group_symop_operation_xyz
x,y,z
-y,x,1/2+z
-x,-y,z
y,-x,1/2+z
x,-y,-z
-x,y,-z
y,x,1/2-z
-y,-x,1/2-z
loop_
_atom_site_type_symbol
_atom_site_label
_atom_site_fract_x
_atom_site_fract_y
_atom_site_fract_z
Si Si1 0.382125 0.987692 0.427892
Si Si2 0.971230 0.112568 0.184034
Si Si3 0.712123 0.500000 0.500000
Si Si4 0.765773 0.795774 0.601128
Si Si5 0.228276 0.170513 0.368921
Si Si6 0.371914 0.404229 0.621461
Si Si7 0.386016 0.634297 0.677117
Si Si8 0.701223 0.874494 0.020240
O O1 0.300078 0.082090 0.406373
O O2 0.500000 0.000000 0.397145
O O3 0.390564 0.000000 0.500000
O O4 0.340732 0.865955 0.415810
O O5 0.922154 0.077847 0.250000
O O6 0.875169 0.171018 0.147079
O O7 0.088359 0.175731 0.182122
O O8 0.000000 0.000000 0.149613
O O9 0.635779 0.562704 0.549505
O O10 0.795088 0.405864 0.525742
O O11 0.722870 0.684652 0.631447
O O12 0.829127 0.769400 0.538359
O O13 0.309958 0.263842 0.342960
O O14 0.143509 0.228891 0.416857
O O15 0.341582 0.518511 0.652768
O O16 0.489958 0.363303 0.647639
O O17 0.380958 0.619043 0.750000
O O18 0.673928 0.000000 0.000000
#
# Coordination Sequence:
#
# PCOD9549653 Si02
#       8
#     8   8   4   8   8   8   8   8
#     4  10  19  34  56  87 125 156 196 250 317 385
#     4  10  23  40  62  88 116 165 218 265 312 363
#     4  10  21  39  60  92 128 162 206 256 316 396
#     4  10  21  38  60  91 122 162 200 260 320 381
#     4  11  22  40  61  89 125 160 213 262 323 379
#     4  10  21  40  62  93 128 162 210 251 325 385
#     4  11  24  40  62  91 125 172 212 258 311 379
#     4  11  21  37  60  89 124 160 201 259 321 381
#
# _framework density 18.602250999999999
#
# number of rings (size 3 to 8) (size 9 to 14) (size 15 to 20)
#    0.000    1.600    2.667    2.600    1.867    2.133 
#    0.000    2.000    0.000    0.000    0.000    0.000 
#    0.000    0.000    0.000    0.000    0.000    0.000 
#
# Total GULP energy -334079.797174 kJ/mol
# GULP energy per Si atom -5567.996620 kJ/mol
# Density = 1.855991 g / cm^3
# Si number density = 18.602251 Si / 1000 Ang^3
#
#
#
# Elastic Constant Matrix: (Units=GPa)
#
#
# Indices 1 2 3 4 5 6 
#
# 1 93.6572 37.8042 39.2327 0.0000 0.0000 0.0000
# 2 37.8042 93.6571 39.2326 0.0000 0.0000 0.0000
# 3 39.2327 39.2326 84.7473 0.0000 0.0000 0.0000
# 4 0.0000 0.0000 0.0000 17.7144 0.0000 0.0000
# 5 0.0000 0.0000 0.0000 0.0000 17.7148 0.0000
# 6 0.0000 0.0000 0.0000 0.0000 0.0000 38.1999
#
#
#
# Elastic Compliance Matrix: (Units=1/GPa)
#
#
# Indices 1 2 3 4 5 6 
#
# 1 0.014208 -0.003696 -0.004866 0.000000 0.000000 0.000000
# 2 -0.003696 0.014208 -0.004866 0.000000 0.000000 0.000000
# 3 -0.004866 -0.004866 0.016305 0.000000 0.000000 0.000000
# 4 0.000000 0.000000 0.000000 0.056451 0.000000 0.000000
# 5 0.000000 0.000000 0.000000 0.000000 0.056450 0.000000
# 6 0.000000 0.000000 0.000000 0.000000 0.000000 0.026178
#
#
# Mechanical properties :
#
#
# Convention : Reuss Voigt Hill
#
# Bulk Modulus (GPa) = 55.98038 56.06674 56.02356
# Shear Modulus (GPa) = 23.08282 25.11195 24.09739
#
# Velocity S-wave (km/s) = 3.52641 3.67814 3.60307
# Velocity P-wave (km/s) = 6.83662 6.94575 6.89140
#
# Compressibility (1/GPa) = 0.01786340
#
# Stress axis : x y z
#
# Youngs Moduli (GPa) = 70.38461 70.38454 61.33054
#
# Poissons Ratio (x) = 0.26018 0.29843
# Poissons Ratio (y) = 0.26018 0.29843
# Poissons Ratio (z) = 0.34249 0.34249
#
# Static dielectric constant tensor:
#      x y z
#    x 1.664940 0.000000 0.000000 
#    y 0.000000 1.664940 0.000000 
#    z 0.000000 0.000000 1.680170 
# 
# From -- ./inp_files/6331.got.cif
#   From: 2010.05.17/outbox.cif.g08.bks.cpg/sg93_4_cif.got.tgz:6331.got - 2010.06.03 19:38:44.
