data_PCOD9549057
_publ_section_title
;
Structure prediction by ZEFSAII (Michael W. Deem and Ramdas Pophale) SiO2 
 PCOD9549057
Probable space group: P 41 21 2
;
_chemical_formula_sum "Si O2"
_cell_formula_units_Z 40
_cell_length_a 17.472146
_cell_length_b 17.472146
_cell_length_c 5.228635
_cell_angle_alpha 90.000000
_cell_angle_beta 90.000000
_cell_angle_gamma 90.000000
_cell_volume 1596.176181
_symmetry_space_group_name_H-M "P 41 21 2"
_symmetry_group_IT_number 92
_symmetry_cell_setting 'tetragonal'
loop_
_space_group_symop_operation_xyz
x,y,z
1/2-y,1/2+x,1/4+z
-x,-y,1/2+z
1/2+y,1/2-x,3/4+z
1/2+x,1/2-y,3/4-z
1/2-x,1/2+y,1/4-z
y,x,-z
-y,-x,1/2-z
loop_
_atom_site_type_symbol
_atom_site_label
_atom_site_fract_x
_atom_site_fract_y
_atom_site_fract_z
Si Si1 0.370267 0.174647 0.068771
Si Si2 0.614651 0.508314 0.652584
Si Si3 0.253080 0.938257 0.807133
Si Si4 0.201731 0.129908 0.250089
Si Si5 0.896936 0.470639 0.945279
O O1 0.401066 0.230319 0.285903
O O2 0.287795 0.149547 0.173112
O O3 0.411771 0.092529 0.025533
O O4 0.384071 0.215954 0.792708
O O5 0.577254 0.577254 0.500000
O O6 0.545256 0.454745 0.750000
O O7 0.667308 0.538793 0.881145
O O8 0.673799 0.457859 0.480217
O O9 0.306759 0.014705 0.796504
O O10 0.175215 0.175215 0.500000
O O11 0.156810 0.156810 0.000000
O O12 0.931415 0.554800 0.915472
#
# Coordination Sequence:
#
# PCOD9549057 Si02
#       5
#     8   8   8   8   8
#     4  11  24  43  69 108 144 188 233 303 372 445
#     4  11  26  50  75 108 143 201 259 319 368 443
#     4  11  25  43  73 107 147 186 244 300 365 442
#     4  11  24  45  71 100 140 186 237 302 375 442
#     4  10  20  39  65 103 145 190 233 291 362 442
#
# _framework density 25.059892000000001
#
# number of rings (size 3 to 8) (size 9 to 14) (size 15 to 20)
#    0.000    1.200    2.000    3.000    0.000   12.000 
#    0.000    0.000    0.000    0.000    0.000    0.000 
#    0.000    0.000    0.000    0.000    0.000    0.000 
#
# Total GULP energy -223658.810726 kJ/mol
# GULP energy per Si atom -5591.470268 kJ/mol
# Density = 2.500285 g / cm^3
# Si number density = 25.059892 Si / 1000 Ang^3
#
#
#
# Elastic Constant Matrix: (Units=GPa)
#
#
# Indices 1 2 3 4 5 6 
#
# 1 97.5888 19.6023 8.6345 0.0000 0.0000 0.0000
# 2 19.6023 97.5890 8.6353 0.0000 0.0000 0.0000
# 3 8.6345 8.6353 110.5132 0.0000 0.0000 0.0000
# 4 0.0000 0.0000 0.0000 26.9901 0.0000 0.0000
# 5 0.0000 0.0000 0.0000 0.0000 26.9903 0.0000
# 6 0.0000 0.0000 0.0000 0.0000 0.0000 24.0108
#
#
#
# Elastic Compliance Matrix: (Units=1/GPa)
#
#
# Indices 1 2 3 4 5 6 
#
# 1 0.010728 -0.002095 -0.000674 0.000000 0.000000 0.000000
# 2 -0.002095 0.010728 -0.000675 0.000000 0.000000 0.000000
# 3 -0.000674 -0.000675 0.009154 0.000000 0.000000 0.000000
# 4 0.000000 0.000000 0.000000 0.037051 0.000000 0.000000
# 5 0.000000 0.000000 0.000000 0.000000 0.037050 0.000000
# 6 0.000000 0.000000 0.000000 0.000000 0.000000 0.041648
#
#
# Mechanical properties :
#
#
# Convention : Reuss Voigt Hill
#
# Bulk Modulus (GPa) = 42.15667 42.15947 42.15807
# Shear Modulus (GPa) = 31.02634 33.51950 32.27292
#
# Velocity S-wave (km/s) = 3.52246 3.66126 3.59253
# Velocity P-wave (km/s) = 5.77949 5.89348 5.83676
#
# Compressibility (1/GPa) = 0.02372104
#
# Stress axis : x y z
#
# Youngs Moduli (GPa) = 93.21761 93.21762 109.24073
#
# Poissons Ratio (x) = 0.19530 0.07368
# Poissons Ratio (y) = 0.19530 0.07369
# Poissons Ratio (z) = 0.06287 0.06288
#
# Static dielectric constant tensor:
#      x y z
#    x 2.086160 0.000000 0.000000 
#    y 0.000000 2.086160 0.000000 
#    z 0.000000 0.000000 1.975190 
# 
# From -- ./inp_files/440.got.cif
#   From: 2010.05.17/outbox.cif.g08.bks.cpg/sg92_1_cif.got.tgz:440.got - 2010.06.03 19:35:17.
