data_PCOD9549341
_publ_section_title
;
Structure prediction by ZEFSAII (Michael W. Deem and Ramdas Pophale) SiO2 
 PCOD9549341
Probable space group: P 41 21 2
;
_chemical_formula_sum "Si O2"
_cell_formula_units_Z 32
_cell_length_a 9.528569
_cell_length_b 9.528569
_cell_length_c 13.563949
_cell_angle_alpha 90.000000
_cell_angle_beta 90.000000
_cell_angle_gamma 90.000000
_cell_volume 1231.520129
_symmetry_space_group_name_H-M "P 41 21 2"
_symmetry_group_IT_number 92
_symmetry_cell_setting 'tetragonal'
loop_
_space_group_symop_operation_xyz
x,y,z
1/2-y,1/2+x,1/4+z
-x,-y,1/2+z
1/2+y,1/2-x,3/4+z
1/2+x,1/2-y,3/4-z
1/2-x,1/2+y,1/4-z
y,x,-z
-y,-x,1/2-z
loop_
_atom_site_type_symbol
_atom_site_label
_atom_site_fract_x
_atom_site_fract_y
_atom_site_fract_z
Si Si1 0.978027 0.530339 0.544548
Si Si2 0.770507 0.684949 0.893900
Si Si3 0.239673 0.012399 0.348364
Si Si4 0.457718 0.324923 0.781480
O O1 0.818135 0.512596 0.504736
O O2 0.015536 0.369296 0.573054
O O3 0.064498 0.612527 0.632729
O O4 0.021076 0.657730 0.464599
O O5 0.654430 0.640555 0.814380
O O6 0.827559 0.833814 0.856142
O O7 0.703995 0.703995 0.000000
O O8 0.125256 0.900044 0.381584
O O9 0.602966 0.397035 0.750000
#
# Coordination Sequence:
#
# PCOD9549341 Si02
#       4
#     8   8   8   8
#     4  10  24  41  68 107 141 186 240 306 366 431
#     4  10  23  43  73 104 140 192 247 297 361 456
#     4  12  21  46  73 102 145 197 242 303 372 447
#     4  10  25  44  70 112 144 187 252 302 373 452
#
# _framework density 25.98415
#
# number of rings (size 3 to 8) (size 9 to 14) (size 15 to 20)
#    1.500    0.000    2.500    2.250    3.500    2.000 
#    0.000    0.000    0.000    0.000    0.000    0.000 
#    0.000    0.000    0.000    0.000    0.000    0.000 
#
# Total GULP energy -178135.641348 kJ/mol
# GULP energy per Si atom -5566.738792 kJ/mol
# Density = 2.592501 g / cm^3
# Si number density = 25.984150 Si / 1000 Ang^3
#
#
#
# Elastic Constant Matrix: (Units=GPa)
#
#
# Indices 1 2 3 4 5 6 
#
# 1 151.5748 84.3777 36.8635 0.0000 0.0000 0.0000
# 2 84.3777 151.5755 36.8634 0.0000 0.0000 0.0000
# 3 36.8635 36.8634 74.9363 0.0000 0.0000 0.0000
# 4 0.0000 0.0000 0.0000 20.8766 0.0000 0.0000
# 5 0.0000 0.0000 0.0000 0.0000 20.8757 0.0000
# 6 0.0000 0.0000 0.0000 0.0000 0.0000 74.2485
#
#
#
# Elastic Compliance Matrix: (Units=1/GPa)
#
#
# Indices 1 2 3 4 5 6 
#
# 1 0.009945 -0.004937 -0.002464 0.000000 0.000000 0.000000
# 2 -0.004937 0.009945 -0.002464 0.000000 0.000000 0.000000
# 3 -0.002464 -0.002464 0.015768 0.000000 0.000000 0.000000
# 4 0.000000 0.000000 0.000000 0.047900 0.000000 0.000000
# 5 0.000000 0.000000 0.000000 0.000000 0.047903 0.000000
# 6 0.000000 0.000000 0.000000 0.000000 0.000000 0.013468
#
#
# Mechanical properties :
#
#
# Convention : Reuss Voigt Hill
#
# Bulk Modulus (GPa) = 62.77429 77.14400 69.95914
# Shear Modulus (GPa) = 29.41745 37.86561 33.64153
#
# Velocity S-wave (km/s) = 3.36837 3.82155 3.60209
# Velocity P-wave (km/s) = 6.27208 7.01610 6.65449
#
# Compressibility (1/GPa) = 0.01593009
#
# Stress axis : x y z
#
# Youngs Moduli (GPa) = 100.55563 100.55618 63.41781
#
# Poissons Ratio (x) = 0.49643 0.15623
# Poissons Ratio (y) = 0.49642 0.15623
# Poissons Ratio (z) = 0.24773 0.24772
#
# Static dielectric constant tensor:
#      x y z
#    x 2.122690 0.000000 0.000000 
#    y 0.000000 2.122680 0.000000 
#    z 0.000000 0.000000 3.037100 
# 
# From -- ./inp_files/2508.got.cif
#   From: 2010.05.17/outbox.cif.g08.bks.cpg/sg92_2_cif.got.tgz:2508.got - 2010.06.03 19:35:17.
