data_PCOD9549460
_publ_section_title
;
Structure prediction by ZEFSAII (Michael W. Deem and Ramdas Pophale) SiO2 
 PCOD9549460
Probable space group: P 41 21 2
;
_chemical_formula_sum "Si O2"
_cell_formula_units_Z 40
_cell_length_a 10.808223
_cell_length_b 10.808223
_cell_length_c 15.332221
_cell_angle_alpha 90.000000
_cell_angle_beta 90.000000
_cell_angle_gamma 90.000000
_cell_volume 1791.074554
_symmetry_space_group_name_H-M "P 41 21 2"
_symmetry_group_IT_number 92
_symmetry_cell_setting 'tetragonal'
loop_
_space_group_symop_operation_xyz
x,y,z
1/2-y,1/2+x,1/4+z
-x,-y,1/2+z
1/2+y,1/2-x,3/4+z
1/2+x,1/2-y,3/4-z
1/2-x,1/2+y,1/4-z
y,x,-z
-y,-x,1/2-z
loop_
_atom_site_type_symbol
_atom_site_label
_atom_site_fract_x
_atom_site_fract_y
_atom_site_fract_z
Si Si1 0.000265 0.337645 0.064892
Si Si2 0.258542 0.264669 0.761575
Si Si3 0.594702 0.880158 0.876139
Si Si4 0.111911 0.732663 0.191723
Si Si5 0.500138 0.306571 0.510043
O O1 0.900634 0.275535 0.000188
O O2 0.950799 0.463437 0.111905
O O3 0.013872 0.239375 0.141633
O O4 0.120495 0.369915 0.009681
O O5 0.214391 0.380908 0.703779
O O6 0.228387 0.292996 0.861169
O O7 0.194895 0.139620 0.725284
O O8 0.698552 0.983414 0.856872
O O9 0.588890 0.791484 0.960285
O O10 0.146292 0.853709 0.250000
O O11 0.436876 0.436876 0.500000
#
# Coordination Sequence:
#
# PCOD9549460 Si02
#       5
#     8   8   8   8   8
#     4  11  23  46  72  97 140 189 230 292 358 431
#     4  11  24  42  70 102 134 184 236 288 350 430
#     4  11  24  42  73  99 136 184 238 283 353 432
#     4  12  25  42  69 101 136 179 238 294 354 420
#     4  11  22  44  69 101 143 182 229 286 354 424
#
# _framework density 22.332964
#
# number of rings (size 3 to 8) (size 9 to 14) (size 15 to 20)
#    0.000    0.800    4.000    4.800    2.800    0.800 
#    0.000    0.000    0.000    0.000    0.000    0.000 
#    0.000    0.000    0.000    0.000    0.000    0.000 
#
# Total GULP energy -223055.777745 kJ/mol
# GULP energy per Si atom -5576.394444 kJ/mol
# Density = 2.228213 g / cm^3
# Si number density = 22.332964 Si / 1000 Ang^3
#
#
#
# Elastic Constant Matrix: (Units=GPa)
#
#
# Indices 1 2 3 4 5 6 
#
# 1 150.4173 -31.5949 32.5632 0.0000 0.0000 0.0000
# 2 -31.5949 150.4152 32.5729 0.0000 0.0000 0.0000
# 3 32.5632 32.5729 94.0757 0.0000 0.0000 0.0000
# 4 0.0000 0.0000 0.0000 -3.5750 0.0000 0.0000
# 5 0.0000 0.0000 0.0000 0.0000 -3.5773 0.0000
# 6 0.0000 0.0000 0.0000 0.0000 0.0000 27.6282
#
#
#
# Elastic Compliance Matrix: (Units=1/GPa)
#
#
# Indices 1 2 3 4 5 6 
#
# 1 0.007940 0.002447 -0.003596 0.000000 0.000000 0.000000
# 2 0.002447 0.007941 -0.003596 0.000000 0.000000 0.000000
# 3 -0.003596 -0.003596 0.013120 0.000000 0.000000 0.000000
# 4 0.000000 0.000000 0.000000 -0.279720 0.000000 0.000000
# 5 0.000000 0.000000 0.000000 0.000000 -0.279541 0.000000
# 6 0.000000 0.000000 0.000000 0.000000 0.000000 0.036195
#
#
# Mechanical properties :
#
#
# Convention : Reuss Voigt Hill
#
# Bulk Modulus (GPa) = 51.25534 51.33229 51.29381
# Shear Modulus (GPa) = -10.45870 28.18632 8.86381
#
# Velocity S-wave (km/s) = -2.16639 3.55645 1.99438
# Velocity P-wave (km/s) = 4.09178 6.31659 5.32175
#
# Compressibility (1/GPa) = 0.01951016
#
# Stress axis : x y z
#
# Youngs Moduli (GPa) = 125.93736 125.92945 76.22238
#
# Poissons Ratio (x) = -0.30809 0.27406
# Poissons Ratio (y) = -0.30811 0.27412
# Poissons Ratio (z) = 0.45282 0.45288
#
# Static dielectric constant tensor:
#      x y z
#    x 1.879750 0.000000 0.000000 
#    y 0.000000 1.879750 0.000000 
#    z 0.000000 0.000000 1.814900 
# 
# From -- ./inp_files/2636.got.cif
#   From: 2010.05.17/outbox.cif.g08.bks.cpg/sg92_2_cif.got.tgz:2636.got - 2010.06.03 19:35:17.
