data_PCOD9549571
_publ_section_title
;
Structure prediction by ZEFSAII (Michael W. Deem and Ramdas Pophale) SiO2 
 PCOD9549571
Probable space group: P 41 21 2
;
_chemical_formula_sum "Si O2"
_cell_formula_units_Z 28
_cell_length_a 8.113088
_cell_length_b 8.113088
_cell_length_c 16.323019
_cell_angle_alpha 90.000000
_cell_angle_beta 90.000000
_cell_angle_gamma 90.000000
_cell_volume 1074.416971
_symmetry_space_group_name_H-M "P 41 21 2"
_symmetry_group_IT_number 92
_symmetry_cell_setting 'tetragonal'
loop_
_space_group_symop_operation_xyz
x,y,z
1/2-y,1/2+x,1/4+z
-x,-y,1/2+z
1/2+y,1/2-x,3/4+z
1/2+x,1/2-y,3/4-z
1/2-x,1/2+y,1/4-z
y,x,-z
-y,-x,1/2-z
loop_
_atom_site_type_symbol
_atom_site_label
_atom_site_fract_x
_atom_site_fract_y
_atom_site_fract_z
Si Si1 0.014531 0.985470 0.750000
Si Si2 0.135529 0.779554 0.138464
Si Si3 0.979560 0.267671 0.139373
Si Si4 0.904566 0.324761 0.452675
O O1 0.924853 0.041295 0.666691
O O2 0.991989 0.792997 0.733938
O O3 0.334460 0.776156 0.147901
O O4 0.001879 0.689527 0.197231
O O5 0.086226 0.725281 0.047797
O O6 0.879940 0.433893 0.155257
O O7 0.840558 0.165508 0.090092
#
# Coordination Sequence:
#
# PCOD9549571 Si02
#       4
#     4   8   8   8
#     4  12  26  52  78 120 162 214 286 344 426 514
#     4  12  28  54  86 125 167 222 287 358 431 519
#     4  12  28  52  86 120 175 223 283 357 426 523
#     4  12  29  54  84 126 171 226 283 355 440 507
#
# _framework density 26.060645999999998
#
# number of rings (size 3 to 8) (size 9 to 14) (size 15 to 20)
#    0.000    0.000    2.857    5.143    4.000    5.714 
#    0.000    0.000    0.000    0.000    0.000    0.000 
#    0.000    0.000    0.000    0.000    0.000    0.000 
#
# Total GULP energy -155975.312293 kJ/mol
# GULP energy per Si atom -5570.546868 kJ/mol
# Density = 2.600133 g / cm^3
# Si number density = 26.060646 Si / 1000 Ang^3
#
#
#
# Elastic Constant Matrix: (Units=GPa)
#
#
# Indices 1 2 3 4 5 6 
#
# 1 106.5800 80.4892 59.0344 0.0000 0.0000 0.0000
# 2 80.4892 106.5792 59.0336 0.0000 0.0000 0.0000
# 3 59.0344 59.0336 149.0935 0.0000 0.0000 0.0000
# 4 0.0000 0.0000 0.0000 41.7466 0.0000 0.0000
# 5 0.0000 0.0000 0.0000 0.0000 41.7470 0.0000
# 6 0.0000 0.0000 0.0000 0.0000 0.0000 34.2989
#
#
#
# Elastic Compliance Matrix: (Units=1/GPa)
#
#
# Indices 1 2 3 4 5 6 
#
# 1 0.022727 -0.015601 -0.002822 0.000000 0.000000 0.000000
# 2 -0.015601 0.022727 -0.002822 0.000000 0.000000 0.000000
# 3 -0.002822 -0.002822 0.008942 0.000000 0.000000 0.000000
# 4 0.000000 0.000000 0.000000 0.023954 0.000000 0.000000
# 5 0.000000 0.000000 0.000000 0.000000 0.023954 0.000000
# 6 0.000000 0.000000 0.000000 0.000000 0.000000 0.029155
#
#
# Mechanical properties :
#
#
# Convention : Reuss Voigt Hill
#
# Bulk Modulus (GPa) = 83.97856 84.37415 84.17636
# Shear Modulus (GPa) = 28.10280 34.47153 31.28717
#
# Velocity S-wave (km/s) = 3.28740 3.64090 3.46866
# Velocity P-wave (km/s) = 6.83400 7.07963 6.95790
#
# Compressibility (1/GPa) = 0.01190780
#
# Stress axis : x y z
#
# Youngs Moduli (GPa) = 43.99966 43.99961 111.83437
#
# Poissons Ratio (x) = 0.68643 0.31558
# Poissons Ratio (y) = 0.68643 0.31556
# Poissons Ratio (z) = 0.12416 0.12415
#
# Static dielectric constant tensor:
#      x y z
#    x 2.677000 0.000000 0.000000 
#    y 0.000000 2.677020 0.000000 
#    z 0.000000 0.000000 2.496570 
# 
# From -- ./inp_files/2942.got.cif
#   From: 2010.05.17/outbox.cif.g08.bks.cpg/sg92_2_cif.got.tgz:2942.got - 2010.06.03 19:35:17.
