data_PCOD9549426
_publ_section_title
;
Structure prediction by ZEFSAII (Michael W. Deem and Ramdas Pophale) SiO2 
 PCOD9549426
Probable space group: P 41 21 2
;
_chemical_formula_sum "Si O2"
_cell_formula_units_Z 36
_cell_length_a 11.240371
_cell_length_b 11.240371
_cell_length_c 13.962865
_cell_angle_alpha 90.000000
_cell_angle_beta 90.000000
_cell_angle_gamma 90.000000
_cell_volume 1764.151307
_symmetry_space_group_name_H-M "P 41 21 2"
_symmetry_group_IT_number 92
_symmetry_cell_setting 'tetragonal'
loop_
_space_group_symop_operation_xyz
x,y,z
1/2-y,1/2+x,1/4+z
-x,-y,1/2+z
1/2+y,1/2-x,3/4+z
1/2+x,1/2-y,3/4-z
1/2-x,1/2+y,1/4-z
y,x,-z
-y,-x,1/2-z
loop_
_atom_site_type_symbol
_atom_site_label
_atom_site_fract_x
_atom_site_fract_y
_atom_site_fract_z
Si Si1 0.231627 0.033124 0.490404
Si Si2 0.360727 0.406192 0.110890
Si Si3 0.638379 0.020505 0.184552
Si Si4 0.584368 0.146521 0.635166
Si Si5 0.885508 0.885508 0.500000
O O1 0.119361 0.119361 0.500000
O O2 0.342183 0.106898 0.448637
O O3 0.198868 0.923028 0.421878
O O4 0.275046 0.993441 0.594993
O O5 0.218158 0.402060 0.120502
O O6 0.405617 0.525570 0.161993
O O7 0.395023 0.395023 0.000000
O O8 0.513687 0.950914 0.165775
O O9 0.689245 0.961779 0.281246
O O10 0.753834 0.907608 0.460122
#
# Coordination Sequence:
#
# PCOD9549426 Si02
#       5
#     8   8   8   8   4
#     4  11  27  47  70 106 135 190 228 292 349 425
#     4  12  28  44  71 103 145 183 238 292 352 418
#     4  10  26  46  74  97 146 180 242 278 362 421
#     4  11  24  45  70 107 136 191 229 295 345 423
#     4  12  26  44  72 104 150 180 242 290 356 416
#
# _framework density 20.406410999999999
#
# number of rings (size 3 to 8) (size 9 to 14) (size 15 to 20)
#    0.000    0.889    4.444    0.000   15.556    0.000 
#    0.000    0.000    0.000    0.000    0.000    0.000 
#    0.000    0.000    0.000    0.000    0.000    0.000 
#
# Total GULP energy -201302.927323 kJ/mol
# GULP energy per Si atom -5591.747981 kJ/mol
# Density = 2.035997 g / cm^3
# Si number density = 20.406411 Si / 1000 Ang^3
#
#
#
# Elastic Constant Matrix: (Units=GPa)
#
#
# Indices 1 2 3 4 5 6 
#
# 1 46.4630 55.9706 45.0054 0.0000 0.0000 0.0000
# 2 55.9706 46.4630 45.0054 0.0000 0.0000 0.0000
# 3 45.0054 45.0054 130.9198 0.0000 0.0000 0.0000
# 4 0.0000 0.0000 0.0000 26.1081 0.0000 0.0000
# 5 0.0000 0.0000 0.0000 0.0000 26.1081 0.0000
# 6 0.0000 0.0000 0.0000 0.0000 0.0000 16.4043
#
#
#
# Elastic Compliance Matrix: (Units=1/GPa)
#
#
# Indices 1 2 3 4 5 6 
#
# 1 -0.045596 0.059583 -0.004808 0.000000 0.000000 0.000000
# 2 0.059583 -0.045596 -0.004808 0.000000 0.000000 0.000000
# 3 -0.004808 -0.004808 0.010944 0.000000 0.000000 0.000000
# 4 0.000000 0.000000 0.000000 0.038302 0.000000 0.000000
# 5 0.000000 0.000000 0.000000 0.000000 0.038302 0.000000
# 6 0.000000 0.000000 0.000000 0.000000 0.000000 0.060960
#
#
# Mechanical properties :
#
#
# Convention : Reuss Voigt Hill
#
# Bulk Modulus (GPa) = 50.79802 57.31206 54.05504
# Shear Modulus (GPa) = -138.67969 18.91507 -59.88231
#
# Velocity S-wave (km/s) = -8.25266 3.04784 -5.42297
# Velocity P-wave (km/s) = 8.11550 6.36648 3.55874
#
# Compressibility (1/GPa) = 0.01968581
#
# Stress axis : x y z
#
# Youngs Moduli (GPa) = -21.93186 -21.93186 91.37255
#
# Poissons Ratio (x) = 1.30678 0.43936
# Poissons Ratio (y) = 1.30678 0.43936
# Poissons Ratio (z) = -0.10546 -0.10546
#
# Static dielectric constant tensor:
#      x y z
#    x 1.710010 0.000000 0.000000 
#    y 0.000000 1.710010 0.000000 
#    z 0.000000 0.000000 1.732540 
# 
# From -- ./inp_files/2559.got.cif
#   From: 2010.05.17/outbox.cif.g08.bks.cpg/sg92_2_cif.got.tgz:2559.got - 2010.06.03 19:35:17.
