data_PCOD9549482
_publ_section_title
;
Structure prediction by ZEFSAII (Michael W. Deem and Ramdas Pophale) SiO2 
 PCOD9549482
Probable space group: P 41 21 2
;
_chemical_formula_sum "Si O2"
_cell_formula_units_Z 48
_cell_length_a 7.598277
_cell_length_b 7.598277
_cell_length_c 34.732899
_cell_angle_alpha 90.000000
_cell_angle_beta 90.000000
_cell_angle_gamma 90.000000
_cell_volume 2005.262709
_symmetry_space_group_name_H-M "P 41 21 2"
_symmetry_group_IT_number 92
_symmetry_cell_setting 'tetragonal'
loop_
_space_group_symop_operation_xyz
x,y,z
1/2-y,1/2+x,1/4+z
-x,-y,1/2+z
1/2+y,1/2-x,3/4+z
1/2+x,1/2-y,3/4-z
1/2-x,1/2+y,1/4-z
y,x,-z
-y,-x,1/2-z
loop_
_atom_site_type_symbol
_atom_site_label
_atom_site_fract_x
_atom_site_fract_y
_atom_site_fract_z
Si Si1 0.437601 0.623830 0.792905
Si Si2 0.598736 0.678864 0.457748
Si Si3 0.863224 0.763477 0.664264
Si Si4 0.308738 0.600080 0.169515
Si Si5 0.274404 0.155859 0.329784
Si Si6 0.609309 0.767570 0.915113
O O1 0.450554 0.549447 0.750000
O O2 0.496304 0.491425 0.826626
O O3 0.572256 0.784133 0.800676
O O4 0.232233 0.656570 0.801415
O O5 0.599781 0.599781 0.500000
O O6 0.405144 0.724554 0.443163
O O7 0.748156 0.824186 0.451861
O O8 0.691280 0.530726 0.431213
O O9 0.829364 0.560259 0.674173
O O10 0.794834 0.807135 0.621669
O O11 0.066410 0.820455 0.664053
O O12 0.347746 0.155382 0.373100
O O13 0.099323 0.278051 0.328212
#
# Coordination Sequence:
#
# PCOD9549482 Si02
#       6
#     8   8   8   8   8   8
#     4  12  27  45  67 108 140 184 238 294 362 421
#     4  11  26  46  66 101 145 186 229 293 365 419
#     4  11  24  43  72 104 134 185 239 291 350 426
#     4  12  24  44  72 100 142 180 235 292 351 427
#     4  11  23  45  75  99 140 185 237 291 348 429
#     4  11  23  45  74 100 137 188 240 287 350 425
#
# _framework density 23.937011999999999
#
# number of rings (size 3 to 8) (size 9 to 14) (size 15 to 20)
#    0.000    0.667    5.000    2.500    2.333    4.000 
#    3.000    0.000    0.000    0.000    0.000    0.000 
#    0.000    0.000    0.000    0.000    0.000    0.000 
#
# Total GULP energy -268385.587415 kJ/mol
# GULP energy per Si atom -5591.366404 kJ/mol
# Density = 2.388253 g / cm^3
# Si number density = 23.937012 Si / 1000 Ang^3
#
#
#
# Elastic Constant Matrix: (Units=GPa)
#
#
# Indices 1 2 3 4 5 6 
#
# 1 72.8242 -10.2910 4.7328 0.0000 0.0000 0.0000
# 2 -10.2910 72.8244 4.7328 0.0000 0.0000 0.0000
# 3 4.7328 4.7328 56.7126 0.0000 0.0000 0.0000
# 4 0.0000 0.0000 0.0000 22.0503 0.0000 0.0000
# 5 0.0000 0.0000 0.0000 0.0000 22.0504 0.0000
# 6 0.0000 0.0000 0.0000 0.0000 0.0000 28.4752
#
#
#
# Elastic Compliance Matrix: (Units=1/GPa)
#
#
# Indices 1 2 3 4 5 6 
#
# 1 0.014114 0.002082 -0.001352 0.000000 0.000000 0.000000
# 2 0.002082 0.014114 -0.001352 0.000000 0.000000 0.000000
# 3 -0.001352 -0.001352 0.017858 0.000000 0.000000 0.000000
# 4 0.000000 0.000000 0.000000 0.045351 0.000000 0.000000
# 5 0.000000 0.000000 0.000000 0.000000 0.045351 0.000000
# 6 0.000000 0.000000 0.000000 0.000000 0.000000 0.035118
#
#
# Mechanical properties :
#
#
# Convention : Reuss Voigt Hill
#
# Bulk Modulus (GPa) = 22.29947 22.30115 22.30031
# Shear Modulus (GPa) = 26.58225 28.06097 27.32161
#
# Velocity S-wave (km/s) = 3.33604 3.42758 3.38212
# Velocity P-wave (km/s) = 4.91681 5.00012 4.95864
#
# Compressibility (1/GPa) = 0.04484411
#
# Stress axis : x y z
#
# Youngs Moduli (GPa) = 70.85269 70.85290 55.99617
#
# Poissons Ratio (x) = -0.14754 0.07568
# Poissons Ratio (y) = -0.14754 0.07568
# Poissons Ratio (z) = 0.09576 0.09576
#
# Static dielectric constant tensor:
#      x y z
#    x 2.076750 0.000000 0.000000 
#    y 0.000000 2.076750 0.000000 
#    z 0.000000 0.000000 1.874800 
# 
# From -- ./inp_files/4487.got.cif
#   From: 2010.05.17/outbox.cif.g08.bks.cpg/sg92_3_cif.got.tgz:4487.got - 2010.06.03 19:35:17.
