data_PCOD9549545
_publ_section_title
;
Structure prediction by ZEFSAII (Michael W. Deem and Ramdas Pophale) SiO2 
 PCOD9549545
Probable space group: P 41 21 2
;
_chemical_formula_sum "Si O2"
_cell_formula_units_Z 40
_cell_length_a 17.700050
_cell_length_b 17.700050
_cell_length_c 5.160493
_cell_angle_alpha 90.000000
_cell_angle_beta 90.000000
_cell_angle_gamma 90.000000
_cell_volume 1616.739986
_symmetry_space_group_name_H-M "P 41 21 2"
_symmetry_group_IT_number 92
_symmetry_cell_setting 'tetragonal'
loop_
_space_group_symop_operation_xyz
x,y,z
1/2-y,1/2+x,1/4+z
-x,-y,1/2+z
1/2+y,1/2-x,3/4+z
1/2+x,1/2-y,3/4-z
1/2-x,1/2+y,1/4-z
y,x,-z
-y,-x,1/2-z
loop_
_atom_site_type_symbol
_atom_site_label
_atom_site_fract_x
_atom_site_fract_y
_atom_site_fract_z
Si Si1 0.462412 0.752770 0.539395
Si Si2 0.034924 0.798627 0.716798
Si Si3 0.461711 0.106997 0.949918
Si Si4 0.808477 0.808477 0.000000
Si Si5 0.531442 0.531442 0.000000
Si Si6 0.166772 0.731679 0.427491
O O1 0.482075 0.746853 0.235551
O O2 0.480331 0.839900 0.623675
O O3 0.384329 0.710718 0.594747
O O4 0.518973 0.709058 0.730911
O O5 0.022966 0.884702 0.641681
O O6 0.117509 0.769546 0.652453
O O7 0.527289 0.078530 0.755979
O O8 0.391191 0.166609 0.924332
O O9 0.805829 0.740085 0.798456
O O10 0.520517 0.479483 0.250000
O O11 0.201569 0.798432 0.250000
#
# Coordination Sequence:
#
# PCOD9549545 Si02
#       6
#     8   8   8   4   4   8
#     4  11  29  49  78 114 160 206 269 334 408 483
#     4  11  28  50  75 111 156 207 264 333 406 482
#     4  11  28  49  81 118 166 216 275 340 419 498
#     4  12  29  46  86 108 164 208 280 339 410 486
#     4  12  27  44  76 108 154 204 262 325 402 484
#     4  11  28  50  80 116 155 215 276 342 409 492
#
# _framework density 24.741146000000001
#
# number of rings (size 3 to 8) (size 9 to 14) (size 15 to 20)
#    0.000    0.800    0.000    3.000   30.800    0.000 
#    0.000    0.000    0.000    0.000    0.000    0.000 
#    0.000    0.000    0.000    0.000    0.000    0.000 
#
# Total GULP energy -222920.017155 kJ/mol
# GULP energy per Si atom -5573.000429 kJ/mol
# Density = 2.468483 g / cm^3
# Si number density = 24.741146 Si / 1000 Ang^3
#
#
#
# Elastic Constant Matrix: (Units=GPa)
#
#
# Indices 1 2 3 4 5 6 
#
# 1 125.0866 84.4835 31.9112 0.0000 0.0000 0.0000
# 2 84.4835 125.0857 31.9130 0.0000 0.0000 0.0000
# 3 31.9112 31.9130 47.4360 0.0000 0.0000 0.0000
# 4 0.0000 0.0000 0.0000 29.3530 0.0000 0.0000
# 5 0.0000 0.0000 0.0000 0.0000 29.3530 0.0000
# 6 0.0000 0.0000 0.0000 0.0000 0.0000 46.6498
#
#
#
# Elastic Compliance Matrix: (Units=1/GPa)
#
#
# Indices 1 2 3 4 5 6 
#
# 1 0.015315 -0.009314 -0.004037 0.000000 0.000000 0.000000
# 2 -0.009314 0.015315 -0.004038 0.000000 0.000000 0.000000
# 3 -0.004037 -0.004038 0.026513 0.000000 0.000000 0.000000
# 4 0.000000 0.000000 0.000000 0.034068 0.000000 0.000000
# 5 0.000000 0.000000 0.000000 0.000000 0.034068 0.000000
# 6 0.000000 0.000000 0.000000 0.000000 0.000000 0.021436
#
#
# Mechanical properties :
#
#
# Convention : Reuss Voigt Hill
#
# Bulk Modulus (GPa) = 44.70975 66.02485 55.36730
# Shear Modulus (GPa) = 26.46233 31.02455 28.74344
#
# Velocity S-wave (km/s) = 3.27397 3.54498 3.41217
# Velocity P-wave (km/s) = 5.69228 6.59546 6.16044
#
# Compressibility (1/GPa) = 0.02236648
#
# Stress axis : x y z
#
# Youngs Moduli (GPa) = 65.29614 65.29410 37.71724
#
# Poissons Ratio (x) = 0.60814 0.15225
# Poissons Ratio (y) = 0.60816 0.15230
# Poissons Ratio (z) = 0.26358 0.26365
#
# Static dielectric constant tensor:
#      x y z
#    x 2.012190 0.000000 0.000000 
#    y 0.000000 2.012190 0.000000 
#    z 0.000000 0.000000 2.031180 
# 
# From -- ./inp_files/469.got.cif
#   From: 2010.05.17/outbox.cif.g08.bks.cpg/sg92_1_cif.got.tgz:469.got - 2010.06.03 19:35:17.
