data_PCOD9549132
_publ_section_title
;
Structure prediction by ZEFSAII (Michael W. Deem and Ramdas Pophale) SiO2 
 PCOD9549132
Probable space group: P 41 21 2
;
_chemical_formula_sum "Si O2"
_cell_formula_units_Z 56
_cell_length_a 17.394978
_cell_length_b 17.394978
_cell_length_c 9.119438
_cell_angle_alpha 90.000000
_cell_angle_beta 90.000000
_cell_angle_gamma 90.000000
_cell_volume 2759.407515
_symmetry_space_group_name_H-M "P 41 21 2"
_symmetry_group_IT_number 92
_symmetry_cell_setting 'tetragonal'
loop_
_space_group_symop_operation_xyz
x,y,z
1/2-y,1/2+x,1/4+z
-x,-y,1/2+z
1/2+y,1/2-x,3/4+z
1/2+x,1/2-y,3/4-z
1/2-x,1/2+y,1/4-z
y,x,-z
-y,-x,1/2-z
loop_
_atom_site_type_symbol
_atom_site_label
_atom_site_fract_x
_atom_site_fract_y
_atom_site_fract_z
Si Si1 0.677156 0.677156 0.000000
Si Si2 0.710625 0.259626 0.020628
Si Si3 0.659512 0.917263 0.623085
Si Si4 0.630384 0.369617 0.250000
Si Si5 0.012004 0.674296 0.111042
Si Si6 0.606638 0.180496 0.543810
Si Si7 0.931806 0.432981 0.161246
Si Si8 0.987485 0.208643 0.371624
O O1 0.712353 0.727264 0.865861
O O2 0.585478 0.687998 0.977146
O O3 0.651119 0.305161 0.127873
O O4 0.656916 0.209180 0.917501
O O5 0.761456 0.322934 0.938468
O O6 0.572982 0.893338 0.660723
O O7 0.685563 0.988603 0.721710
O O8 0.658503 0.927289 0.450353
O O9 0.643632 0.452623 0.176539
O O10 0.939088 0.638929 0.027485
O O11 0.038378 0.748164 0.021201
O O12 0.631673 0.106870 0.445008
O O13 0.540118 0.229932 0.464559
O O14 0.002222 0.435975 0.278606
#
# Coordination Sequence:
#
# PCOD9549132 Si02
#       8
#     4   8   8   4   8   8   8   8
#     4  11  22  36  72  96 124 154 218 275 320 380
#     4  10  21  39  65  94 119 167 209 262 315 379
#     4  12  23  41  61  93 130 168 211 257 319 378
#     4   9  18  38  68  88 120 162 214 247 318 388
#     4  11  23  37  60  90 124 170 205 253 309 376
#     4  10  26  38  63  89 129 163 211 261 315 381
#     4  11  25  38  55  83 127 167 208 243 300 374
#     4  10  21  41  63  94 118 165 209 268 318 375
#
# _framework density 20.294212000000002
#
# number of rings (size 3 to 8) (size 9 to 14) (size 15 to 20)
#    0.000    1.429    4.286    0.429   10.000    0.000 
#    0.000    0.000    6.286    0.000    0.000    0.000 
#    0.000    0.000    0.000    0.000    0.000    0.000 
#
# Total GULP energy -311762.183614 kJ/mol
# GULP energy per Si atom -5567.181850 kJ/mol
# Density = 2.024802 g / cm^3
# Si number density = 20.294212 Si / 1000 Ang^3
#
#
#
# Elastic Constant Matrix: (Units=GPa)
#
#
# Indices 1 2 3 4 5 6 
#
# 1 60.2318 12.2886 7.6053 0.0000 0.0000 0.0000
# 2 12.2886 60.2322 7.6055 0.0000 0.0000 0.0000
# 3 7.6053 7.6055 101.9515 0.0000 0.0000 0.0000
# 4 0.0000 0.0000 0.0000 21.8766 0.0000 0.0000
# 5 0.0000 0.0000 0.0000 0.0000 21.8763 0.0000
# 6 0.0000 0.0000 0.0000 0.0000 0.0000 24.7189
#
#
#
# Elastic Compliance Matrix: (Units=1/GPa)
#
#
# Indices 1 2 3 4 5 6 
#
# 1 0.017433 -0.003425 -0.001045 0.000000 0.000000 0.000000
# 2 -0.003425 0.017433 -0.001045 0.000000 0.000000 0.000000
# 3 -0.001045 -0.001045 0.009964 0.000000 0.000000 0.000000
# 4 0.000000 0.000000 0.000000 0.045711 0.000000 0.000000
# 5 0.000000 0.000000 0.000000 0.000000 0.045711 0.000000
# 6 0.000000 0.000000 0.000000 0.000000 0.000000 0.040455
#
#
# Mechanical properties :
#
#
# Convention : Reuss Voigt Hill
#
# Bulk Modulus (GPa) = 29.58472 30.82381 30.20427
# Shear Modulus (GPa) = 25.12503 26.68878 25.90690
#
# Velocity S-wave (km/s) = 3.52240 3.63036 3.57678
# Velocity P-wave (km/s) = 5.58145 5.72661 5.65450
#
# Compressibility (1/GPa) = 0.03380123
#
# Stress axis : x y z
#
# Youngs Moduli (GPa) = 57.36180 57.36211 100.35630
#
# Poissons Ratio (x) = 0.19645 0.10487
# Poissons Ratio (y) = 0.19645 0.10487
# Poissons Ratio (z) = 0.05994 0.05994
#
# Static dielectric constant tensor:
#      x y z
#    x 1.779000 0.000000 0.000000 
#    y 0.000000 1.778990 0.000000 
#    z 0.000000 0.000000 1.752390 
# 
# From -- ./inp_files/1638.got.cif
#   From: 2010.05.17/outbox.cif.g08.bks.cpg/sg92_1_cif.got.tgz:1638.got - 2010.06.03 19:35:17.
