data_PCOD9549221
_publ_section_title
;
Structure prediction by ZEFSAII (Michael W. Deem and Ramdas Pophale) SiO2 
 PCOD9549221
Probable space group: P 41 21 2
;
_chemical_formula_sum "Si O2"
_cell_formula_units_Z 48
_cell_length_a 11.354860
_cell_length_b 11.354860
_cell_length_c 19.119146
_cell_angle_alpha 90.000000
_cell_angle_beta 90.000000
_cell_angle_gamma 90.000000
_cell_volume 2465.085900
_symmetry_space_group_name_H-M "P 41 21 2"
_symmetry_group_IT_number 92
_symmetry_cell_setting 'tetragonal'
loop_
_space_group_symop_operation_xyz
x,y,z
1/2-y,1/2+x,1/4+z
-x,-y,1/2+z
1/2+y,1/2-x,3/4+z
1/2+x,1/2-y,3/4-z
1/2-x,1/2+y,1/4-z
y,x,-z
-y,-x,1/2-z
loop_
_atom_site_type_symbol
_atom_site_label
_atom_site_fract_x
_atom_site_fract_y
_atom_site_fract_z
Si Si1 0.242005 0.757996 0.750000
Si Si2 0.526554 0.191433 0.749864
Si Si3 0.897084 0.867396 0.114118
Si Si4 0.629366 0.724196 0.568766
Si Si5 0.827185 0.985963 0.249838
Si Si6 0.526079 0.473922 0.750000
Si Si7 0.365600 0.822452 0.101218
O O1 0.289852 0.686335 0.815493
O O2 0.255614 0.898943 0.756894
O O3 0.644570 0.159740 0.792802
O O4 0.508224 0.332963 0.751205
O O5 0.553329 0.156172 0.669408
O O6 0.419325 0.130243 0.790123
O O7 0.002142 0.791513 0.147873
O O8 0.819422 0.922092 0.176063
O O9 0.960469 0.967483 0.066638
O O10 0.644442 0.644442 0.500000
O O11 0.732387 0.685996 0.621464
O O12 0.956064 0.043937 0.250000
O O13 0.799389 0.903114 0.314684
#
# Coordination Sequence:
#
# PCOD9549221 Si02
#       7
#     4   8   8   8   8   4   8
#     4   9  26  44  59 102 126 170 237 250 344 403
#     4  11  23  39  65  98 136 169 222 279 333 398
#     4  11  22  42  68  93 132 175 212 287 315 409
#     4  10  22  39  64 102 128 164 232 266 335 395
#     4  10  24  42  66  90 132 173 225 256 333 407
#     4  11  20  38  69  94 130 166 219 268 334 385
#     4  11  23  40  67  97 133 179 222 279 332 399
#
# _framework density 19.471935999999999
#
# number of rings (size 3 to 8) (size 9 to 14) (size 15 to 20)
#    0.500    1.000    4.167    1.500    2.333    4.000 
#    0.000    0.000    0.000    0.000    0.000    0.000 
#    0.000    0.000    0.000    0.000    0.000    0.000 
#
# Total GULP energy -267855.615029 kJ/mol
# GULP energy per Si atom -5580.325313 kJ/mol
# Density = 1.942762 g / cm^3
# Si number density = 19.471936 Si / 1000 Ang^3
#
#
#
# Elastic Constant Matrix: (Units=GPa)
#
#
# Indices 1 2 3 4 5 6 
#
# 1 42.3883 63.4813 37.4630 0.0000 0.0000 0.0000
# 2 63.4813 42.3838 37.4601 0.0000 0.0000 0.0000
# 3 37.4630 37.4601 115.9629 0.0000 0.0000 0.0000
# 4 0.0000 0.0000 0.0000 20.5529 0.0000 0.0000
# 5 0.0000 0.0000 0.0000 0.0000 20.5526 0.0000
# 6 0.0000 0.0000 0.0000 0.0000 0.0000 29.7223
#
#
#
# Elastic Compliance Matrix: (Units=1/GPa)
#
#
# Indices 1 2 3 4 5 6 
#
# 1 -0.017579 0.029825 -0.003955 0.000000 0.000000 0.000000
# 2 0.029825 -0.017580 -0.003956 0.000000 0.000000 0.000000
# 3 -0.003955 -0.003956 0.011179 0.000000 0.000000 0.000000
# 4 0.000000 0.000000 0.000000 0.048655 0.000000 0.000000
# 5 0.000000 0.000000 0.000000 0.000000 0.048656 0.000000
# 6 0.000000 0.000000 0.000000 0.000000 0.000000 0.033645
#
#
# Mechanical properties :
#
#
# Convention : Reuss Voigt Hill
#
# Bulk Modulus (GPa) = 50.38627 53.06040 51.72334
# Shear Modulus (GPa) = 71.66849 18.32092 44.99470
#
# Velocity S-wave (km/s) = 6.07338 3.07072 4.81224
# Velocity P-wave (km/s) = 8.66682 6.31516 7.58271
#
# Compressibility (1/GPa) = 0.01984668
#
# Stress axis : x y z
#
# Youngs Moduli (GPa) = -56.88750 -56.88261 89.45105
#
# Poissons Ratio (x) = 1.69651 0.35382
# Poissons Ratio (y) = 1.69665 0.35389
# Poissons Ratio (z) = -0.22502 -0.22504
#
# Static dielectric constant tensor:
#      x y z
#    x 1.677080 0.000000 0.000000 
#    y 0.000000 1.677080 0.000000 
#    z 0.000000 0.000000 1.729810 
# 
# From -- ./inp_files/3197.got.cif
#   From: 2010.05.17/outbox.cif.g08.bks.cpg/sg92_2_cif.got.tgz:3197.got - 2010.06.03 19:35:17.
