data_PCOD9549317
_publ_section_title
;
Structure prediction by ZEFSAII (Michael W. Deem and Ramdas Pophale) SiO2 
 PCOD9549317
Probable space group: P 41 21 2
;
_chemical_formula_sum "Si O2"
_cell_formula_units_Z 32
_cell_length_a 7.834385
_cell_length_b 7.834385
_cell_length_c 23.528365
_cell_angle_alpha 90.000000
_cell_angle_beta 90.000000
_cell_angle_gamma 90.000000
_cell_volume 1444.114301
_symmetry_space_group_name_H-M "P 41 21 2"
_symmetry_group_IT_number 92
_symmetry_cell_setting 'tetragonal'
loop_
_space_group_symop_operation_xyz
x,y,z
1/2-y,1/2+x,1/4+z
-x,-y,1/2+z
1/2+y,1/2-x,3/4+z
1/2+x,1/2-y,3/4-z
1/2-x,1/2+y,1/4-z
y,x,-z
-y,-x,1/2-z
loop_
_atom_site_type_symbol
_atom_site_label
_atom_site_fract_x
_atom_site_fract_y
_atom_site_fract_z
Si Si1 0.868184 0.156106 0.010991
Si Si2 0.766480 0.341989 0.187376
Si Si3 0.053924 0.347577 0.102340
Si Si4 0.757079 0.598542 0.358968
O O1 0.946318 0.309417 0.045830
O O2 0.733189 0.043576 0.046895
O O3 0.790390 0.193077 0.950207
O O4 0.024712 0.024712 0.000000
O O5 0.744223 0.255778 0.250000
O O6 0.930108 0.277919 0.152701
O O7 0.591533 0.321950 0.149730
O O8 0.066321 0.545513 0.112949
O O9 0.250045 0.286188 0.097156
#
# Coordination Sequence:
#
# PCOD9549317 Si02
#       4
#     8   8   8   8
#     4   9  21  41  59  89 130 161 215 274 317 394
#     4   9  21  42  65  92 132 169 219 280 332 400
#     4  12  22  41  69  90 136 174 216 279 337 398
#     4  10  23  38  66  99 124 176 223 262 345 402
#
# _framework density 22.158912999999998
#
# number of rings (size 3 to 8) (size 9 to 14) (size 15 to 20)
#    0.000    2.500    0.000    4.500    7.000    0.000 
#    4.500    1.250    0.000    0.000    0.000    0.000 
#    0.000    0.000    0.000    0.000    0.000    0.000 
#
# Total GULP energy -178241.572045 kJ/mol
# GULP energy per Si atom -5570.049126 kJ/mol
# Density = 2.210848 g / cm^3
# Si number density = 22.158913 Si / 1000 Ang^3
#
#
#
# Elastic Constant Matrix: (Units=GPa)
#
#
# Indices 1 2 3 4 5 6 
#
# 1 104.2269 -56.2845 1.7519 0.0000 0.0000 0.0000
# 2 -56.2845 104.2258 1.7522 0.0000 0.0000 0.0000
# 3 1.7519 1.7522 32.2578 0.0000 0.0000 0.0000
# 4 0.0000 0.0000 0.0000 29.6056 0.0000 0.0000
# 5 0.0000 0.0000 0.0000 0.0000 29.6056 0.0000
# 6 0.0000 0.0000 0.0000 0.0000 0.0000 20.9395
#
#
#
# Elastic Compliance Matrix: (Units=1/GPa)
#
#
# Indices 1 2 3 4 5 6 
#
# 1 0.013586 0.007356 -0.001137 0.000000 0.000000 0.000000
# 2 0.007356 0.013586 -0.001137 0.000000 0.000000 0.000000
# 3 -0.001137 -0.001137 0.031124 0.000000 0.000000 0.000000
# 4 0.000000 0.000000 0.000000 0.033777 0.000000 0.000000
# 5 0.000000 0.000000 0.000000 0.000000 0.033777 0.000000
# 6 0.000000 0.000000 0.000000 0.000000 0.000000 0.047757
#
#
# Mechanical properties :
#
#
# Convention : Reuss Voigt Hill
#
# Bulk Modulus (GPa) = 14.60760 15.01664 14.81212
# Shear Modulus (GPa) = 26.84355 35.59618 31.21987
#
# Velocity S-wave (km/s) = 3.48431 4.01235 3.75761
# Velocity P-wave (km/s) = 4.77428 5.31571 5.05225
#
# Compressibility (1/GPa) = 0.06845752
#
# Stress axis : x y z
#
# Youngs Moduli (GPa) = 73.60597 73.60515 32.12978
#
# Poissons Ratio (x) = -0.54143 0.03654
# Poissons Ratio (y) = -0.54143 0.03655
# Poissons Ratio (z) = 0.08372 0.08372
#
# Static dielectric constant tensor:
#      x y z
#    x 1.866180 0.000000 0.000000 
#    y 0.000000 1.866180 0.000000 
#    z 0.000000 0.000000 1.875860 
# 
# From -- ./inp_files/3702.got.cif
#   From: 2010.05.17/outbox.cif.g08.bks.cpg/sg92_2_cif.got.tgz:3702.got - 2010.06.03 19:35:17.
