data_PCOD9549779
_publ_section_title
;
Structure prediction by ZEFSAII (Michael W. Deem and Ramdas Pophale) SiO2 
 PCOD9549779
Probable space group: P 42 2 2
;
_chemical_formula_sum "Si O2"
_cell_formula_units_Z 28
_cell_length_a 17.836227
_cell_length_b 17.836227
_cell_length_c 5.056826
_cell_angle_alpha 90.000000
_cell_angle_beta 90.000000
_cell_angle_gamma 90.000000
_cell_volume 1608.733080
_symmetry_space_group_name_H-M "P 42 2 2"
_symmetry_group_IT_number 93
_symmetry_cell_setting 'tetragonal'
loop_
_space_group_symop_operation_xyz
x,y,z
-y,x,1/2+z
-x,-y,z
y,-x,1/2+z
x,-y,-z
-x,y,-z
y,x,1/2-z
-y,-x,1/2-z
loop_
_atom_site_type_symbol
_atom_site_label
_atom_site_fract_x
_atom_site_fract_y
_atom_site_fract_z
Si Si1 0.420511 0.690077 0.861692
Si Si2 0.088381 0.586398 0.445662
Si Si3 0.173412 0.635519 0.932442
Si Si4 0.282333 0.282333 0.750000
O O1 0.388102 0.611899 0.750000
O O2 0.416578 0.754251 0.636707
O O3 0.500000 0.684310 0.000000
O O4 0.357209 0.715768 0.071689
O O5 0.110590 0.500000 0.500000
O O6 0.129240 0.639251 0.658288
O O7 0.000000 0.591980 0.500000
O O8 0.116848 0.604142 0.152343
O O9 0.212004 0.709380 0.055473
#
# Coordination Sequence:
#
# PCOD9549779 Si02
#       4
#     8   8   8   4
#     4  10  22  37  56  78 101 139 190 241 294 339
#     4  11  23  35  54  83 110 140 176 223 289 342
#     4  11  21  36  55  77 108 138 181 231 270 335
#     4  10  22  36  55  82 100 142 194 227 282 346
#
# _framework density 17.405000999999999
#
# number of rings (size 3 to 8) (size 9 to 14) (size 15 to 20)
#    0.000    1.429    2.857    2.571    4.000    5.714 
#    0.000    2.143    0.000    1.714    0.000    0.000 
#    0.000    0.000    0.000    0.000    0.000   20.000 
#
# Total GULP energy -156287.256173 kJ/mol
# GULP energy per Si atom -5581.687720 kJ/mol
# Density = 1.736539 g / cm^3
# Si number density = 17.405001 Si / 1000 Ang^3
#
#
#
# Elastic Constant Matrix: (Units=GPa)
#
#
# Indices 1 2 3 4 5 6 
#
# 1 62.0931 23.3640 24.4360 0.0000 0.0000 0.0000
# 2 23.3640 62.0948 24.4366 0.0000 0.0000 0.0000
# 3 24.4360 24.4366 100.1816 0.0000 0.0000 0.0000
# 4 0.0000 0.0000 0.0000 30.9135 0.0000 0.0000
# 5 0.0000 0.0000 0.0000 0.0000 30.9131 0.0000
# 6 0.0000 0.0000 0.0000 0.0000 0.0000 5.7580
#
#
#
# Elastic Compliance Matrix: (Units=1/GPa)
#
#
# Indices 1 2 3 4 5 6 
#
# 1 0.019709 -0.006111 -0.003317 0.000000 0.000000 0.000000
# 2 -0.006111 0.019709 -0.003317 0.000000 0.000000 0.000000
# 3 -0.003317 -0.003317 0.011600 0.000000 0.000000 0.000000
# 4 0.000000 0.000000 0.000000 0.032348 0.000000 0.000000
# 5 0.000000 0.000000 0.000000 0.000000 0.032349 0.000000
# 6 0.000000 0.000000 0.000000 0.000000 0.000000 0.173672
#
#
# Mechanical properties :
#
#
# Convention : Reuss Voigt Hill
#
# Bulk Modulus (GPa) = 39.17061 40.98254 40.07657
# Shear Modulus (GPa) = 15.46140 23.65910 19.56025
#
# Velocity S-wave (km/s) = 2.98372 3.69091 3.35599
# Velocity P-wave (km/s) = 5.86723 6.46229 6.17194
#
# Compressibility (1/GPa) = 0.02552935
#
# Stress axis : x y z
#
# Youngs Moduli (GPa) = 50.73705 50.73834 86.20670
#
# Poissons Ratio (x) = 0.31004 0.28594
# Poissons Ratio (y) = 0.31003 0.28595
# Poissons Ratio (z) = 0.16829 0.16830
#
# Static dielectric constant tensor:
#      x y z
#    x 1.614780 0.000000 0.000000 
#    y 0.000000 1.614770 0.000000 
#    z 0.000000 0.000000 1.668070 
# 
# From -- ./inp_files/342.got.cif
#   From: 2010.05.17/outbox.cif.g08.bks.cpg/sg93_1_cif.got.tgz:342.got - 2010.06.03 19:38:44.
