data_PCOD9549719
_publ_section_title
;
Structure prediction by ZEFSAII (Michael W. Deem and Ramdas Pophale) SiO2 
 PCOD9549719
Probable space group: P 42 2 2
;
_chemical_formula_sum "Si O2"
_cell_formula_units_Z 38
_cell_length_a 8.977102
_cell_length_b 8.977102
_cell_length_c 24.121852
_cell_angle_alpha 90.000000
_cell_angle_beta 90.000000
_cell_angle_gamma 90.000000
_cell_volume 1943.940501
_symmetry_space_group_name_H-M "P 42 2 2"
_symmetry_group_IT_number 93
_symmetry_cell_setting 'tetragonal'
loop_
_space_group_symop_operation_xyz
x,y,z
-y,x,1/2+z
-x,-y,z
y,-x,1/2+z
x,-y,-z
-x,y,-z
y,x,1/2-z
-y,-x,1/2-z
loop_
_atom_site_type_symbol
_atom_site_label
_atom_site_fract_x
_atom_site_fract_y
_atom_site_fract_z
Si Si1 0.452055 0.674652 0.800195
Si Si2 0.984867 0.671049 0.065861
Si Si3 0.681250 0.845010 0.096928
Si Si4 0.139677 0.110002 0.859216
Si Si5 0.243935 0.243935 0.750000
Si Si6 0.000000 0.500000 0.500000
O O1 0.500000 0.500000 0.808975
O O2 0.331875 0.668126 0.750000
O O3 0.405123 0.746755 0.857743
O O4 0.589591 0.764164 0.773985
O O5 0.829597 0.750216 0.082173
O O6 0.000000 0.500000 0.085124
O O7 0.114168 0.771069 0.092473
O O8 0.000000 0.672904 0.000000
O O9 0.724762 0.000357 0.127125
O O10 0.596689 0.894855 0.041093
O O11 0.145877 0.199415 0.802175
O O12 0.000000 0.000000 0.857668
#
# Coordination Sequence:
#
# PCOD9549719 Si02
#       6
#     8   8   8   8   4   2
#     4   9  22  40  61  92 125 172 218 266 333 395
#     4  10  23  41  64  92 124 169 221 272 331 395
#     4  11  23  42  65  93 132 169 219 272 335 409
#     4  10  22  39  62  91 124 166 215 269 324 392
#     4  10  20  38  60  88 130 162 210 262 322 390
#     4  12  24  40  64 100 128 172 214 270 346 396
#
# _framework density 19.547923000000001
#
# number of rings (size 3 to 8) (size 9 to 14) (size 15 to 20)
#    0.000    2.105    0.000    2.842    5.895    6.316 
#    3.789    0.000    0.000    0.000    0.000    0.000 
#    0.000    0.000    0.000    0.000    0.000    0.000 
#
# Total GULP energy -211938.690650 kJ/mol
# GULP energy per Si atom -5577.333964 kJ/mol
# Density = 1.950343 g / cm^3
# Si number density = 19.547923 Si / 1000 Ang^3
#
#
#
# Elastic Constant Matrix: (Units=GPa)
#
#
# Indices 1 2 3 4 5 6 
#
# 1 78.7451 42.9493 49.1789 0.0000 0.0000 0.0000
# 2 42.9493 78.7448 49.1789 0.0000 0.0000 0.0000
# 3 49.1789 49.1789 133.1740 0.0000 0.0000 0.0000
# 4 0.0000 0.0000 0.0000 34.5223 0.0000 0.0000
# 5 0.0000 0.0000 0.0000 0.0000 34.5224 0.0000
# 6 0.0000 0.0000 0.0000 0.0000 0.0000 21.3543
#
#
#
# Elastic Compliance Matrix: (Units=1/GPa)
#
#
# Indices 1 2 3 4 5 6 
#
# 1 0.019825 -0.008111 -0.004326 0.000000 0.000000 0.000000
# 2 -0.008111 0.019825 -0.004326 0.000000 0.000000 0.000000
# 3 -0.004326 -0.004326 0.010704 0.000000 0.000000 0.000000
# 4 0.000000 0.000000 0.000000 0.028967 0.000000 0.000000
# 5 0.000000 0.000000 0.000000 0.000000 0.028967 0.000000
# 6 0.000000 0.000000 0.000000 0.000000 0.000000 0.046829
#
#
# Mechanical properties :
#
#
# Convention : Reuss Voigt Hill
#
# Bulk Modulus (GPa) = 59.42391 63.69755 61.56073
# Shear Modulus (GPa) = 25.73996 28.03692 26.88844
#
# Velocity S-wave (km/s) = 3.63266 3.79128 3.71282
# Velocity P-wave (km/s) = 6.93253 7.19869 7.06686
#
# Compressibility (1/GPa) = 0.01682824
#
# Stress axis : x y z
#
# Youngs Moduli (GPa) = 50.44179 50.44157 93.42583
#
# Poissons Ratio (x) = 0.40916 0.40412
# Poissons Ratio (y) = 0.40916 0.40412
# Poissons Ratio (z) = 0.21819 0.21819
#
# Static dielectric constant tensor:
#      x y z
#    x 1.716610 0.000000 0.000000 
#    y 0.000000 1.716610 0.000000 
#    z 0.000000 0.000000 1.687730 
# 
# From -- ./inp_files/6756.got.cif
#   From: 2010.05.17/outbox.cif.g08.bks.cpg/sg93_4_cif.got.tgz:6756.got - 2010.06.03 19:38:44.
