data_PCOD9549752
_publ_section_title
;
Structure prediction by ZEFSAII (Michael W. Deem and Ramdas Pophale) SiO2 
 PCOD9549752
Probable space group: P 42 2 2
;
_chemical_formula_sum "Si O2"
_cell_formula_units_Z 34
_cell_length_a 10.808848
_cell_length_b 10.808848
_cell_length_c 12.279827
_cell_angle_alpha 90.000000
_cell_angle_beta 90.000000
_cell_angle_gamma 90.000000
_cell_volume 1434.666864
_symmetry_space_group_name_H-M "P 42 2 2"
_symmetry_group_IT_number 93
_symmetry_cell_setting 'tetragonal'
loop_
_space_group_symop_operation_xyz
x,y,z
-y,x,1/2+z
-x,-y,z
y,-x,1/2+z
x,-y,-z
-x,y,-z
y,x,1/2-z
-y,-x,1/2-z
loop_
_atom_site_type_symbol
_atom_site_label
_atom_site_fract_x
_atom_site_fract_y
_atom_site_fract_z
Si Si1 0.513601 0.140380 0.342653
Si Si2 0.754954 0.823402 0.410882
Si Si3 0.500000 0.500000 0.750000
Si Si4 0.757692 0.454528 0.623853
Si Si5 0.106468 0.785519 0.141566
O O1 0.395584 0.200601 0.400823
O O2 0.512280 0.151728 0.212645
O O3 0.652876 0.176257 0.367862
O O4 0.500000 0.000000 0.377585
O O5 0.794656 0.690381 0.368449
O O6 0.830115 0.851503 0.522640
O O7 0.769918 0.957425 0.353544
O O8 0.622139 0.489052 0.673973
O O9 0.766138 0.500000 0.500000
O O10 0.147040 0.852961 0.250000
#
# Coordination Sequence:
#
# PCOD9549752 Si02
#       5
#     8   8   2   8   8
#     4  10  21  38  62  92 130 180 227 287 349 418
#     4  10  21  40  62  97 143 183 226 297 366 411
#     4  12  26  40  60  98 134 180 224 280 362 424
#     4  12  25  39  63  96 136 182 225 287 356 433
#     4  10  21  37  67 101 131 181 244 292 347 433
#
# _framework density 23.698881
#
# number of rings (size 3 to 8) (size 9 to 14) (size 15 to 20)
#    0.000    1.412    2.353    2.471    4.941    5.176 
#    0.000    0.000    0.000   12.706    0.000   52.706 
#    0.000    0.000    0.000    0.000    0.000    0.000 
#
# Total GULP energy -189337.863713 kJ/mol
# GULP energy per Si atom -5568.760697 kJ/mol
# Density = 2.364494 g / cm^3
# Si number density = 23.698881 Si / 1000 Ang^3
#
#
#
# Elastic Constant Matrix: (Units=GPa)
#
#
# Indices 1 2 3 4 5 6 
#
# 1 32.5658 13.7709 31.4278 0.0000 0.0000 0.0000
# 2 13.7709 32.5665 31.4277 0.0000 0.0000 0.0000
# 3 31.4278 31.4277 173.0653 0.0000 0.0000 0.0000
# 4 0.0000 0.0000 0.0000 6.3162 0.0000 0.0000
# 5 0.0000 0.0000 0.0000 0.0000 6.3181 0.0000
# 6 0.0000 0.0000 0.0000 0.0000 0.0000 12.0674
#
#
#
# Elastic Compliance Matrix: (Units=1/GPa)
#
#
# Indices 1 2 3 4 5 6 
#
# 1 0.040920 -0.012285 -0.005200 0.000000 0.000000 0.000000
# 2 -0.012285 0.040919 -0.005200 0.000000 0.000000 0.000000
# 3 -0.005200 -0.005200 0.007667 0.000000 0.000000 0.000000
# 4 0.000000 0.000000 0.000000 0.158324 0.000000 0.000000
# 5 0.000000 0.000000 0.000000 0.000000 0.158275 0.000000
# 6 0.000000 0.000000 0.000000 0.000000 0.000000 0.082868
#
#
# Mechanical properties :
#
#
# Convention : Reuss Voigt Hill
#
# Bulk Modulus (GPa) = 22.65706 43.49449 33.07577
# Shear Modulus (GPa) = 9.10656 15.71174 12.40915
#
# Velocity S-wave (km/s) = 1.96238 2.57762 2.29075
# Velocity P-wave (km/s) = 3.83611 5.22031 4.58080
#
# Compressibility (1/GPa) = 0.04413636
#
# Stress axis : x y z
#
# Youngs Moduli (GPa) = 24.43771 24.43843 130.43390
#
# Poissons Ratio (x) = 0.30023 0.67826
# Poissons Ratio (y) = 0.30022 0.67823
# Poissons Ratio (z) = 0.12708 0.12707
#
# Static dielectric constant tensor:
#      x y z
#    x 1.942080 0.000000 0.000000 
#    y 0.000000 1.942080 0.000000 
#    z 0.000000 0.000000 1.949080 
# 
# From -- ./inp_files/3134.got.cif
#   From: 2010.05.17/outbox.cif.g08.bks.cpg/sg93_2_cif.got.tgz:3134.got - 2010.06.03 19:38:44.
