data_PCOD9549283
_publ_section_title
;
Structure prediction by ZEFSAII (Michael W. Deem and Ramdas Pophale) SiO2 
 PCOD9549283
Probable space group: P 41 21 2
;
_chemical_formula_sum "Si O2"
_cell_formula_units_Z 56
_cell_length_a 15.659298
_cell_length_b 15.659298
_cell_length_c 10.784221
_cell_angle_alpha 90.000000
_cell_angle_beta 90.000000
_cell_angle_gamma 90.000000
_cell_volume 2644.437804
_symmetry_space_group_name_H-M "P 41 21 2"
_symmetry_group_IT_number 92
_symmetry_cell_setting 'tetragonal'
loop_
_space_group_symop_operation_xyz
x,y,z
1/2-y,1/2+x,1/4+z
-x,-y,1/2+z
1/2+y,1/2-x,3/4+z
1/2+x,1/2-y,3/4-z
1/2-x,1/2+y,1/4-z
y,x,-z
-y,-x,1/2-z
loop_
_atom_site_type_symbol
_atom_site_label
_atom_site_fract_x
_atom_site_fract_y
_atom_site_fract_z
Si Si1 0.176755 0.881838 0.959562
Si Si2 0.453286 0.697845 0.069203
Si Si3 0.044115 0.562090 0.904409
Si Si4 0.507553 0.396885 0.905937
Si Si5 0.529707 0.739372 0.833681
Si Si6 0.722795 0.009445 0.798523
Si Si7 0.195280 0.314719 0.082729
O O1 0.119148 0.809360 0.897896
O O2 0.215846 0.950906 0.866529
O O3 0.247294 0.841109 0.049198
O O4 0.113896 0.939950 0.044946
O O5 0.425748 0.604209 0.114594
O O6 0.390297 0.769101 0.122171
O O7 0.458973 0.695682 0.920197
O O8 0.032697 0.510628 0.775137
O O9 0.027734 0.661356 0.880276
O O10 0.142729 0.552997 0.946073
O O11 0.462406 0.462406 0.000000
O O12 0.514053 0.300995 0.960536
O O13 0.515756 0.739779 0.686468
O O14 0.686126 0.100233 0.750322
O O15 0.248636 0.248636 0.000000
#
# Coordination Sequence:
#
# PCOD9549283 Si02
#       7
#     8   8   8   8   8   8   8
#     4  11  22  43  68  96 140 185 222 287 349 412
#     4  12  28  38  69 107 141 173 233 294 353 412
#     4  10  25  43  71  99 138 186 246 295 350 428
#     4  11  21  42  70 103 136 184 238 286 344 425
#     4  11  23  45  62  97 142 183 217 286 364 408
#     4  10  22  43  74  95 133 189 233 286 352 415
#     4  11  23  45  72  99 132 182 238 288 334 426
#
# _framework density 21.176523
#
# number of rings (size 3 to 8) (size 9 to 14) (size 15 to 20)
#    0.000    1.143    2.857    3.429    4.000    7.429 
#    0.000    0.000    0.000    0.000    0.000    0.000 
#    0.000    0.000    0.000    0.000    0.000    0.000 
#
# Total GULP energy -312919.608417 kJ/mol
# GULP energy per Si atom -5587.850150 kJ/mol
# Density = 2.112832 g / cm^3
# Si number density = 21.176523 Si / 1000 Ang^3
#
#
#
# Elastic Constant Matrix: (Units=GPa)
#
#
# Indices 1 2 3 4 5 6 
#
# 1 49.9683 31.2985 40.4972 0.0000 0.0000 0.0000
# 2 31.2985 49.9683 40.4972 0.0000 0.0000 0.0000
# 3 40.4972 40.4972 100.0323 0.0000 0.0000 0.0000
# 4 0.0000 0.0000 0.0000 26.1337 0.0000 0.0000
# 5 0.0000 0.0000 0.0000 0.0000 26.1337 0.0000
# 6 0.0000 0.0000 0.0000 0.0000 0.0000 41.3392
#
#
#
# Elastic Compliance Matrix: (Units=1/GPa)
#
#
# Indices 1 2 3 4 5 6 
#
# 1 0.037095 -0.016467 -0.008351 0.000000 0.000000 0.000000
# 2 -0.016467 0.037095 -0.008351 0.000000 0.000000 0.000000
# 3 -0.008351 -0.008351 0.016759 0.000000 0.000000 0.000000
# 4 0.000000 0.000000 0.000000 0.038265 0.000000 0.000000
# 5 0.000000 0.000000 0.000000 0.000000 0.038265 0.000000
# 6 0.000000 0.000000 0.000000 0.000000 0.000000 0.024190
#
#
# Mechanical properties :
#
#
# Convention : Reuss Voigt Hill
#
# Bulk Modulus (GPa) = 40.63310 47.17274 43.90292
# Shear Modulus (GPa) = 18.78207 24.56641 21.67424
#
# Velocity S-wave (km/s) = 2.98137 3.40969 3.20269
# Velocity P-wave (km/s) = 5.57502 6.15025 5.86969
#
# Compressibility (1/GPa) = 0.02461048
#
# Stress axis : x y z
#
# Youngs Moduli (GPa) = 26.95752 26.95752 59.67095
#
# Poissons Ratio (x) = 0.44391 0.49832
# Poissons Ratio (y) = 0.44391 0.49832
# Poissons Ratio (z) = 0.22513 0.22513
#
# Static dielectric constant tensor:
#      x y z
#    x 1.739220 0.000000 0.000000 
#    y 0.000000 1.739220 0.000000 
#    z 0.000000 0.000000 1.673690 
# 
# From -- ./inp_files/2262.got.cif
#   From: 2010.05.17/outbox.cif.g08.bks.cpg/sg92_2_cif.got.tgz:2262.got - 2010.06.03 19:35:17.
