data_PCOD9549676
_publ_section_title
;
Structure prediction by ZEFSAII (Michael W. Deem and Ramdas Pophale) SiO2 
 PCOD9549676
Probable space group: P 42 2 2
;
_chemical_formula_sum "Si O2"
_cell_formula_units_Z 48
_cell_length_a 12.064489
_cell_length_b 12.064489
_cell_length_c 15.016493
_cell_angle_alpha 90.000000
_cell_angle_beta 90.000000
_cell_angle_gamma 90.000000
_cell_volume 2185.679010
_symmetry_space_group_name_H-M "P 42 2 2"
_symmetry_group_IT_number 93
_symmetry_cell_setting 'tetragonal'
loop_
_space_group_symop_operation_xyz
x,y,z
-y,x,1/2+z
-x,-y,z
y,-x,1/2+z
x,-y,-z
-x,y,-z
y,x,1/2-z
-y,-x,1/2-z
loop_
_atom_site_type_symbol
_atom_site_label
_atom_site_fract_x
_atom_site_fract_y
_atom_site_fract_z
Si Si1 0.497154 0.218001 0.903974
Si Si2 0.397144 0.337604 0.353398
Si Si3 0.920985 0.747387 0.775903
Si Si4 0.049245 0.323634 0.400048
Si Si5 0.303515 0.644121 0.155278
Si Si6 0.154122 0.222478 0.150050
O O1 0.567579 0.331001 0.904670
O O2 0.576344 0.126967 0.857904
O O3 0.372074 0.255279 0.886637
O O4 0.500000 0.167627 0.000000
O O5 0.375277 0.375277 0.250000
O O6 0.522950 0.321453 0.383168
O O7 0.334914 0.221142 0.367534
O O8 0.863693 0.863693 0.750000
O O9 0.822496 0.675683 0.821164
O O10 0.964309 0.697705 0.681683
O O11 0.022780 0.762461 0.844114
O O12 0.128436 0.214763 0.407984
O O13 0.000000 0.339399 0.500000
O O14 0.364687 0.635314 0.250000
O O15 0.185507 0.185507 0.250000
#
# Coordination Sequence:
#
# PCOD9549676 Si02
#       6
#     8   8   8   8   8   8
#     4  11  25  42  66 100 137 172 227 296 361 412
#     4  10  19  37  62  91 128 176 230 272 336 422
#     4  10  23  42  64  96 140 173 232 280 342 425
#     4  10  23  43  71 100 133 176 231 299 360 409
#     4  11  23  37  62  98 136 182 225 273 345 435
#     4   8  18  39  62  91 127 174 228 279 337 411
#
# _framework density 21.961137999999998
#
# number of rings (size 3 to 8) (size 9 to 14) (size 15 to 20)
#    0.000    2.000    1.667    1.500    4.667    5.333 
#    3.000    1.667    0.000    0.000    0.000    2.333 
#    0.000    0.000    0.000    0.000    0.000    0.000 
#
# Total GULP energy -267317.523503 kJ/mol
# GULP energy per Si atom -5569.115073 kJ/mol
# Density = 2.191115 g / cm^3
# Si number density = 21.961138 Si / 1000 Ang^3
#
#
#
# Elastic Constant Matrix: (Units=GPa)
#
#
# Indices 1 2 3 4 5 6 
#
# 1 271.8753 -16.8384 25.8746 0.0000 0.0000 0.0000
# 2 -16.8384 271.8734 25.8741 0.0000 0.0000 0.0000
# 3 25.8746 25.8741 46.7703 0.0000 0.0000 0.0000
# 4 0.0000 0.0000 0.0000 -11.0721 0.0000 0.0000
# 5 0.0000 0.0000 0.0000 0.0000 -11.0601 0.0000
# 6 0.0000 0.0000 0.0000 0.0000 0.0000 23.6516
#
#
#
# Elastic Compliance Matrix: (Units=1/GPa)
#
#
# Indices 1 2 3 4 5 6 
#
# 1 0.003940 0.000477 -0.002443 0.000000 0.000000 0.000000
# 2 0.000477 0.003940 -0.002443 0.000000 0.000000 0.000000
# 3 -0.002443 -0.002443 0.024085 0.000000 0.000000 0.000000
# 4 0.000000 0.000000 0.000000 -0.090317 0.000000 0.000000
# 5 0.000000 0.000000 0.000000 0.000000 -0.090415 0.000000
# 6 0.000000 0.000000 0.000000 0.000000 0.000000 0.042280
#
#
# Mechanical properties :
#
#
# Convention : Reuss Voigt Hill
#
# Bulk Modulus (GPa) = 43.20701 73.37108 58.28905
# Shear Modulus (GPa) = -55.58589 37.34445 -9.12072
#
# Velocity S-wave (km/s) = -5.03646 4.12816 -2.04013
# Velocity P-wave (km/s) = 3.75557 7.49695 4.58803
#
# Compressibility (1/GPa) = 0.02314439
#
# Stress axis : x y z
#
# Youngs Moduli (GPa) = 253.79274 253.79138 41.52016
#
# Poissons Ratio (x) = -0.12095 0.10145
# Poissons Ratio (y) = -0.12095 0.10145
# Poissons Ratio (z) = 0.62014 0.62013
#
# Static dielectric constant tensor:
#      x y z
#    x 2.402580 0.000000 0.000000 
#    y 0.000000 2.402410 0.000000 
#    z 0.000000 0.000000 1.842550 
# 
# From -- ./inp_files/5438.got.cif
#   From: 2010.05.17/outbox.cif.g08.bks.cpg/sg93_3_cif.got.tgz:5438.got - 2010.06.03 19:38:44.
