data_PCOD9549085
_publ_section_title
;
Structure prediction by ZEFSAII (Michael W. Deem and Ramdas Pophale) SiO2 
 PCOD9549085
Probable space group: P 41 21 2
;
_chemical_formula_sum "Si O2"
_cell_formula_units_Z 48
_cell_length_a 8.523110
_cell_length_b 8.523110
_cell_length_c 27.669459
_cell_angle_alpha 90.000000
_cell_angle_beta 90.000000
_cell_angle_gamma 90.000000
_cell_volume 2010.003691
_symmetry_space_group_name_H-M "P 41 21 2"
_symmetry_group_IT_number 92
_symmetry_cell_setting 'tetragonal'
loop_
_space_group_symop_operation_xyz
x,y,z
1/2-y,1/2+x,1/4+z
-x,-y,1/2+z
1/2+y,1/2-x,3/4+z
1/2+x,1/2-y,3/4-z
1/2-x,1/2+y,1/4-z
y,x,-z
-y,-x,1/2-z
loop_
_atom_site_type_symbol
_atom_site_label
_atom_site_fract_x
_atom_site_fract_y
_atom_site_fract_z
Si Si1 0.579816 0.168828 0.017354
Si Si2 0.299054 0.558162 0.384192
Si Si3 0.061668 0.376573 0.905690
Si Si4 0.184192 0.523772 0.814197
Si Si5 0.844862 0.008474 0.077166
Si Si6 0.992668 0.828374 0.813622
O O1 0.626277 0.343758 0.032167
O O2 0.413471 0.121381 0.040398
O O3 0.701052 0.049074 0.043512
O O4 0.607147 0.125360 0.962058
O O5 0.122591 0.596806 0.398139
O O6 0.387780 0.708894 0.363827
O O7 0.330448 0.434398 0.340555
O O8 0.390529 0.475593 0.428428
O O9 0.153601 0.498037 0.870910
O O10 0.369559 0.546680 0.806658
O O11 0.092227 0.678684 0.797088
O O12 0.793760 0.945444 0.130184
#
# Coordination Sequence:
#
# PCOD9549085 Si02
#       6
#     8   8   8   8   8   8
#     4  12  24  40  69  95 134 169 225 276 336 411
#     4  10  23  38  73  86 130 181 218 273 341 404
#     4  12  21  44  61  96 130 174 218 278 340 388
#     4  12  24  39  68  98 128 176 223 274 343 402
#     4  10  20  42  64  95 125 173 221 274 330 402
#     4  10  21  43  64  95 128 175 217 277 331 400
#
# _framework density 23.880551000000001
#
# number of rings (size 3 to 8) (size 9 to 14) (size 15 to 20)
#    1.000    0.000    3.333    4.500    0.000    2.667 
#    0.000    6.667    0.000    0.000    0.000    0.000 
#    0.000    0.000    0.000    0.000    0.000    0.000 
#
# Total GULP energy -268403.402538 kJ/mol
# GULP energy per Si atom -5591.737553 kJ/mol
# Density = 2.382620 g / cm^3
# Si number density = 23.880551 Si / 1000 Ang^3
#
#
#
# Elastic Constant Matrix: (Units=GPa)
#
#
# Indices 1 2 3 4 5 6 
#
# 1 74.1110 12.8496 -11.4276 0.0000 0.0000 0.0000
# 2 12.8496 74.1110 -11.4276 0.0000 0.0000 0.0000
# 3 -11.4276 -11.4276 56.7353 0.0000 0.0000 0.0000
# 4 0.0000 0.0000 0.0000 23.5967 0.0000 0.0000
# 5 0.0000 0.0000 0.0000 0.0000 23.5967 0.0000
# 6 0.0000 0.0000 0.0000 0.0000 0.0000 39.4817
#
#
#
# Elastic Compliance Matrix: (Units=1/GPa)
#
#
# Indices 1 2 3 4 5 6 
#
# 1 0.014233 -0.002091 0.002446 0.000000 0.000000 0.000000
# 2 -0.002091 0.014233 0.002446 0.000000 0.000000 0.000000
# 3 0.002446 0.002446 0.018611 0.000000 0.000000 0.000000
# 4 0.000000 0.000000 0.000000 0.042379 0.000000 0.000000
# 5 0.000000 0.000000 0.000000 0.000000 0.042379 0.000000
# 6 0.000000 0.000000 0.000000 0.000000 0.000000 0.025328
#
#
# Mechanical properties :
#
#
# Convention : Reuss Voigt Hill
#
# Bulk Modulus (GPa) = 18.98320 20.54956 19.76638
# Shear Modulus (GPa) = 29.56474 31.66587 30.61531
#
# Velocity S-wave (km/s) = 3.52238 3.64539 3.58441
# Velocity P-wave (km/s) = 4.95069 5.13248 5.04240
#
# Compressibility (1/GPa) = 0.05267817
#
# Stress axis : x y z
#
# Youngs Moduli (GPa) = 70.25990 70.25990 53.73185
#
# Poissons Ratio (x) = 0.14689 -0.13141
# Poissons Ratio (y) = 0.14689 -0.13141
# Poissons Ratio (z) = -0.17183 -0.17183
#
# Static dielectric constant tensor:
#      x y z
#    x 1.901060 0.000000 0.000000 
#    y 0.000000 1.901060 0.000000 
#    z 0.000000 0.000000 1.935200 
# 
# From -- ./inp_files/4521.got.cif
#   From: 2010.05.17/outbox.cif.g08.bks.cpg/sg92_3_cif.got.tgz:4521.got - 2010.06.03 19:35:17.
