data_PCOD9549607
_publ_section_title
;
Structure prediction by ZEFSAII (Michael W. Deem and Ramdas Pophale) SiO2 
 PCOD9549607
Probable space group: P 42 2 2
;
_chemical_formula_sum "Si O2"
_cell_formula_units_Z 56
_cell_length_a 20.532190
_cell_length_b 20.532190
_cell_length_c 9.639288
_cell_angle_alpha 90.000000
_cell_angle_beta 90.000000
_cell_angle_gamma 90.000000
_cell_volume 4063.642606
_symmetry_space_group_name_H-M "P 42 2 2"
_symmetry_group_IT_number 93
_symmetry_cell_setting 'tetragonal'
loop_
_space_group_symop_operation_xyz
x,y,z
-y,x,1/2+z
-x,-y,z
y,-x,1/2+z
x,-y,-z
-x,y,-z
y,x,1/2-z
-y,-x,1/2-z
loop_
_atom_site_type_symbol
_atom_site_label
_atom_site_fract_x
_atom_site_fract_y
_atom_site_fract_z
Si Si1 0.260891 0.363505 0.276103
Si Si2 0.421275 0.000688 0.159449
Si Si3 0.263453 0.638459 0.206682
Si Si4 0.336278 0.425242 0.041473
Si Si5 0.872652 0.578007 0.834990
Si Si6 0.683462 0.574211 0.530278
Si Si7 0.129144 0.422546 0.165882
O O1 0.292380 0.292380 0.250000
O O2 0.268493 0.381664 0.436742
O O3 0.190254 0.380321 0.217809
O O4 0.310210 0.412645 0.195343
O O5 0.404158 0.936738 0.248101
O O6 0.500000 0.000000 0.153079
O O7 0.404335 0.065650 0.244873
O O8 0.397415 0.000000 0.000000
O O9 0.290416 0.709585 0.250000
O O10 0.286839 0.616637 0.054599
O O11 0.187880 0.621673 0.213842
O O12 0.302472 0.591500 0.311634
O O13 0.335188 0.500000 0.000000
O O14 0.404216 0.389225 0.012877
O O15 0.857602 0.500487 0.812523
O O16 0.882053 0.585746 0.000903
O O17 0.696273 0.500000 0.500000
#
# Coordination Sequence:
#
# PCOD9549607 Si02
#       7
#     8   8   8   8   8   8   8
#     4  10  20  31  44  62  82 106 140 180 217 259
#     4   9  19  31  43  67  91 105 129 168 213 262
#     4  10  20  31  44  62  82 106 140 180 217 259
#     4  10  18  31  44  55  75 103 139 179 220 266
#     4  10  18  30  48  63  82 112 142 172 212 261
#     4  10  20  29  40  59  79 101 135 179 226 266
#     4  10  18  30  48  63  82 112 142 172 212 261
#
# _framework density 13.78074
#
# number of rings (size 3 to 8) (size 9 to 14) (size 15 to 20)
#    0.000    2.143    1.429    3.000    2.000    2.000 
#    0.000    0.000    0.000    5.143    0.000    0.000 
#    0.000    0.000    0.000    0.000    0.000    0.714 
#
# Total GULP energy -312051.402124 kJ/mol
# GULP energy per Si atom -5572.346467 kJ/mol
# Density = 1.374937 g / cm^3
# Si number density = 13.780740 Si / 1000 Ang^3
#
#
#
# Elastic Constant Matrix: (Units=GPa)
#
#
# Indices 1 2 3 4 5 6 
#
# 1 79.4668 37.4890 28.5996 0.0000 0.0000 0.0000
# 2 37.4890 79.4661 28.5998 0.0000 0.0000 0.0000
# 3 28.5996 28.5998 54.3850 0.0000 0.0000 0.0000
# 4 0.0000 0.0000 0.0000 16.6552 0.0000 0.0000
# 5 0.0000 0.0000 0.0000 0.0000 16.6555 0.0000
# 6 0.0000 0.0000 0.0000 0.0000 0.0000 12.4644
#
#
#
# Elastic Compliance Matrix: (Units=1/GPa)
#
#
# Indices 1 2 3 4 5 6 
#
# 1 0.017666 -0.006156 -0.006053 0.000000 0.000000 0.000000
# 2 -0.006156 0.017667 -0.006053 0.000000 0.000000 0.000000
# 3 -0.006053 -0.006053 0.024754 0.000000 0.000000 0.000000
# 4 0.000000 0.000000 0.000000 0.060041 0.000000 0.000000
# 5 0.000000 0.000000 0.000000 0.000000 0.060040 0.000000
# 6 0.000000 0.000000 0.000000 0.000000 0.000000 0.080229
#
#
# Mechanical properties :
#
#
# Convention : Reuss Voigt Hill
#
# Bulk Modulus (GPa) = 42.44030 44.74386 43.59208
# Shear Modulus (GPa) = 16.40550 17.06364 16.73457
#
# Velocity S-wave (km/s) = 3.45406 3.52266 3.48853
# Velocity P-wave (km/s) = 6.83893 7.00602 6.92298
#
# Compressibility (1/GPa) = 0.02356251
#
# Stress axis : x y z
#
# Youngs Moduli (GPa) = 56.60472 56.60391 40.39771
#
# Poissons Ratio (x) = 0.34844 0.24453
# Poissons Ratio (y) = 0.34845 0.24454
# Poissons Ratio (z) = 0.34263 0.34264
#
# Static dielectric constant tensor:
#      x y z
#    x 1.445580 0.000000 0.000000 
#    y 0.000000 1.445580 0.000000 
#    z 0.000000 0.000000 1.472060 
# 
# From -- ./inp_files/2233.got.cif
#   From: 2010.05.17/outbox.cif.g08.bks.cpg/sg93_2_cif.got.tgz:2233.got - 2010.06.03 19:38:44.
