data_PCOD9549721
_publ_section_title
;
Structure prediction by ZEFSAII (Michael W. Deem and Ramdas Pophale) SiO2 
 PCOD9549721
Probable space group: P 42 2 2
;
_chemical_formula_sum "Si O2"
_cell_formula_units_Z 48
_cell_length_a 8.535611
_cell_length_b 8.535611
_cell_length_c 31.241040
_cell_angle_alpha 90.000000
_cell_angle_beta 90.000000
_cell_angle_gamma 90.000000
_cell_volume 2276.117678
_symmetry_space_group_name_H-M "P 42 2 2"
_symmetry_group_IT_number 93
_symmetry_cell_setting 'tetragonal'
loop_
_space_group_symop_operation_xyz
x,y,z
-y,x,1/2+z
-x,-y,z
y,-x,1/2+z
x,-y,-z
-x,y,-z
y,x,1/2-z
-y,-x,1/2-z
loop_
_atom_site_type_symbol
_atom_site_label
_atom_site_fract_x
_atom_site_fract_y
_atom_site_fract_z
Si Si1 0.100983 0.655833 0.907726
Si Si2 0.251377 0.942308 0.218697
Si Si3 0.534068 0.782055 0.253490
Si Si4 0.810059 0.853530 0.874074
Si Si5 0.818534 0.054232 0.955013
Si Si6 0.317179 0.468279 0.845591
O O1 0.173871 0.760343 0.945743
O O2 0.237591 0.596021 0.876685
O O3 0.000000 0.500000 0.919860
O O4 0.980133 0.775393 0.883968
O O5 0.118026 0.881975 0.250000
O O6 0.389762 0.812183 0.222212
O O7 0.195546 0.950311 0.170129
O O8 0.336875 0.091576 0.238950
O O9 0.617844 0.617844 0.250000
O O10 0.477743 0.789111 0.302462
O O11 0.703352 0.701026 0.867118
O O12 0.756748 0.960830 0.913582
O O13 0.000000 0.000000 0.956866
O O14 0.746066 0.000000 0.000000
O O15 0.500000 0.500000 0.838224
#
# Coordination Sequence:
#
# PCOD9549721 Si02
#       6
#     8   8   8   8   8   8
#     4   9  20  38  65  92 121 160 201 258 314 388
#     4  11  22  39  56  82 123 162 202 257 303 376
#     4  11  25  37  55  86 116 164 212 256 305 371
#     4  10  20  38  62  87 121 162 202 259 325 368
#     4   9  19  39  66  97 125 153 206 269 326 381
#     4  11  22  38  60  86 122 166 215 256 311 383
#
# _framework density 21.088539000000001
#
# number of rings (size 3 to 8) (size 9 to 14) (size 15 to 20)
#    0.000    1.833    1.667    2.000    7.000    0.333 
#    3.000   14.167    0.000    3.000    0.000    0.000 
#    0.000    0.000    0.000    0.000    0.000    0.000 
#
# Total GULP energy -267986.463350 kJ/mol
# GULP energy per Si atom -5583.051320 kJ/mol
# Density = 2.104054 g / cm^3
# Si number density = 21.088539 Si / 1000 Ang^3
#
#
#
# Elastic Constant Matrix: (Units=GPa)
#
#
# Indices 1 2 3 4 5 6 
#
# 1 80.2939 55.0502 52.1619 0.0000 0.0000 0.0000
# 2 55.0502 80.2928 52.1621 0.0000 0.0000 0.0000
# 3 52.1619 52.1621 173.1298 0.0000 0.0000 0.0000
# 4 0.0000 0.0000 0.0000 18.1618 0.0000 0.0000
# 5 0.0000 0.0000 0.0000 0.0000 18.1617 0.0000
# 6 0.0000 0.0000 0.0000 0.0000 0.0000 39.8118
#
#
#
# Elastic Compliance Matrix: (Units=1/GPa)
#
#
# Indices 1 2 3 4 5 6 
#
# 1 0.024619 -0.014996 -0.002899 0.000000 0.000000 0.000000
# 2 -0.014996 0.024619 -0.002900 0.000000 0.000000 0.000000
# 3 -0.002899 -0.002900 0.007523 0.000000 0.000000 0.000000
# 4 0.000000 0.000000 0.000000 0.055060 0.000000 0.000000
# 5 0.000000 0.000000 0.000000 0.000000 0.055061 0.000000
# 6 0.000000 0.000000 0.000000 0.000000 0.000000 0.025118
#
#
# Mechanical properties :
#
#
# Convention : Reuss Voigt Hill
#
# Bulk Modulus (GPa) = 65.90923 72.49613 69.20268
# Shear Modulus (GPa) = 20.95141 26.84988 23.90065
#
# Velocity S-wave (km/s) = 3.15540 3.57206 3.37018
# Velocity P-wave (km/s) = 6.67808 7.17388 6.93041
#
# Compressibility (1/GPa) = 0.01517238
#
# Stress axis : x y z
#
# Youngs Moduli (GPa) = 40.61920 40.61845 132.92285
#
# Poissons Ratio (x) = 0.60910 0.38539
# Poissons Ratio (y) = 0.60911 0.38542
# Poissons Ratio (z) = 0.11777 0.11778
#
# Static dielectric constant tensor:
#      x y z
#    x 1.839390 0.000000 0.000000 
#    y 0.000000 1.839390 0.000000 
#    z 0.000000 0.000000 1.795860 
# 
# From -- ./inp_files/7740.got.cif
#   From: 2010.05.17/outbox.cif.g08.bks.cpg/sg93_4_cif.got.tgz:7740.got - 2010.06.03 19:38:44.
