data_PCOD9549861
_publ_section_title
;
Structure prediction by ZEFSAII (Michael W. Deem and Ramdas Pophale) SiO2 
 PCOD9549861
Probable space group: P 42 2 2
;
_chemical_formula_sum "Si O2"
_cell_formula_units_Z 32
_cell_length_a 14.341304
_cell_length_b 14.341304
_cell_length_c 8.096415
_cell_angle_alpha 90.000000
_cell_angle_beta 90.000000
_cell_angle_gamma 90.000000
_cell_volume 1665.213966
_symmetry_space_group_name_H-M "P 42 2 2"
_symmetry_group_IT_number 93
_symmetry_cell_setting 'tetragonal'
loop_
_space_group_symop_operation_xyz
x,y,z
-y,x,1/2+z
-x,-y,z
y,-x,1/2+z
x,-y,-z
-x,y,-z
y,x,1/2-z
-y,-x,1/2-z
loop_
_atom_site_type_symbol
_atom_site_label
_atom_site_fract_x
_atom_site_fract_y
_atom_site_fract_z
Si Si1 0.314252 0.459793 0.819089
Si Si2 0.606797 0.983680 0.303843
Si Si3 0.778491 0.638093 0.330864
Si Si4 0.172821 0.684947 0.294056
O O1 0.401233 0.401233 0.750000
O O2 0.280645 0.544629 0.704403
O O3 0.227008 0.387826 0.825851
O O4 0.333617 0.500000 0.000000
O O5 0.630726 0.879118 0.254278
O O6 0.500000 0.000000 0.249549
O O7 0.611559 0.000000 0.500000
O O8 0.670751 0.063106 0.222717
O O9 0.721651 0.721651 0.250000
O O10 0.794126 0.655671 0.523826
O O11 0.214104 0.785896 0.250000
#
# Coordination Sequence:
#
# PCOD9549861 Si02
#       4
#     8   8   8   8
#     4  11  23  41  60  83 120 163 209 252 303 356
#     4  11  22  39  66  90 121 160 204 252 304 356
#     4  12  24  40  62  90 124 161 204 250 305 362
#     4  11  23  40  63  92 121 157 206 255 303 361
#
# _framework density 19.216750999999999
#
# number of rings (size 3 to 8) (size 9 to 14) (size 15 to 20)
#    0.000    0.750    2.500    7.500    0.000    1.500 
#    0.000    5.000    0.000    0.750    0.000    5.250 
#    0.000    0.000    0.000    0.000    0.000    0.000 
#
# Total GULP energy -179151.567205 kJ/mol
# GULP energy per Si atom -5598.486475 kJ/mol
# Density = 1.917301 g / cm^3
# Si number density = 19.216751 Si / 1000 Ang^3
#
#
#
# Elastic Constant Matrix: (Units=GPa)
#
#
# Indices 1 2 3 4 5 6 
#
# 1 138.6292 86.5137 37.5870 0.0000 0.0000 0.0000
# 2 86.5137 138.6280 37.5871 0.0000 0.0000 0.0000
# 3 37.5870 37.5871 79.4442 0.0000 0.0000 0.0000
# 4 0.0000 0.0000 0.0000 29.2562 0.0000 0.0000
# 5 0.0000 0.0000 0.0000 0.0000 29.2566 0.0000
# 6 0.0000 0.0000 0.0000 0.0000 0.0000 23.5282
#
#
#
# Elastic Compliance Matrix: (Units=1/GPa)
#
#
# Indices 1 2 3 4 5 6 
#
# 1 0.012232 -0.006957 -0.002496 0.000000 0.000000 0.000000
# 2 -0.006957 0.012232 -0.002496 0.000000 0.000000 0.000000
# 3 -0.002496 -0.002496 0.014949 0.000000 0.000000 0.000000
# 4 0.000000 0.000000 0.000000 0.034181 0.000000 0.000000
# 5 0.000000 0.000000 0.000000 0.000000 0.034180 0.000000
# 6 0.000000 0.000000 0.000000 0.000000 0.000000 0.042502
#
#
# Mechanical properties :
#
#
# Convention : Reuss Voigt Hill
#
# Bulk Modulus (GPa) = 64.44929 75.56410 70.00670
# Shear Modulus (GPa) = 27.87940 29.40911 28.64425
#
# Velocity S-wave (km/s) = 3.81305 3.91626 3.86500
# Velocity P-wave (km/s) = 7.27988 7.73672 7.51178
#
# Compressibility (1/GPa) = 0.01551607
#
# Stress axis : x y z
#
# Youngs Moduli (GPa) = 81.75552 81.75473 66.89399
#
# Poissons Ratio (x) = 0.56874 0.16695
# Poissons Ratio (y) = 0.56875 0.16695
# Poissons Ratio (z) = 0.20404 0.20404
#
# Static dielectric constant tensor:
#      x y z
#    x 1.662410 0.000000 0.000000 
#    y 0.000000 1.662410 0.000000 
#    z 0.000000 0.000000 1.706190 
# 
# From -- ./inp_files/1551.got.cif
#   From: 2010.05.17/outbox.cif.g08.bks.cpg/sg93_1_cif.got.tgz:1551.got - 2010.06.03 19:38:44.
