data_PCOD9549433
_publ_section_title
;
Structure prediction by ZEFSAII (Michael W. Deem and Ramdas Pophale) SiO2 
 PCOD9549433
Probable space group: P 41 21 2
;
_chemical_formula_sum "Si O2"
_cell_formula_units_Z 56
_cell_length_a 20.386193
_cell_length_b 20.386193
_cell_length_c 8.234218
_cell_angle_alpha 90.000000
_cell_angle_beta 90.000000
_cell_angle_gamma 90.000000
_cell_volume 3422.115187
_symmetry_space_group_name_H-M "P 41 21 2"
_symmetry_group_IT_number 92
_symmetry_cell_setting 'tetragonal'
loop_
_space_group_symop_operation_xyz
x,y,z
1/2-y,1/2+x,1/4+z
-x,-y,1/2+z
1/2+y,1/2-x,3/4+z
1/2+x,1/2-y,3/4-z
1/2-x,1/2+y,1/4-z
y,x,-z
-y,-x,1/2-z
loop_
_atom_site_type_symbol
_atom_site_label
_atom_site_fract_x
_atom_site_fract_y
_atom_site_fract_z
Si Si1 0.771182 0.281029 0.421587
Si Si2 0.078370 0.478269 0.470519
Si Si3 0.133495 0.771648 0.192213
Si Si4 0.605866 0.164306 0.260825
Si Si5 0.833166 0.711042 0.651594
Si Si6 0.025005 0.675895 0.153812
Si Si7 0.429539 0.858738 0.300399
O O1 0.755113 0.244887 0.250000
O O2 0.829038 0.247255 0.525032
O O3 0.794166 0.353080 0.369911
O O4 0.706800 0.274639 0.536718
O O5 0.049265 0.516712 0.620508
O O6 0.118310 0.413076 0.513932
O O7 0.115345 0.527991 0.351639
O O8 0.156192 0.843809 0.250000
O O9 0.164456 0.724245 0.331393
O O10 0.059840 0.746296 0.173732
O O11 0.633078 0.182741 0.437061
O O12 0.528430 0.176667 0.239665
O O13 0.887690 0.703997 0.511810
O O14 0.083438 0.621665 0.149480
O O15 0.980170 0.656794 0.307793
#
# Coordination Sequence:
#
# PCOD9549433 Si02
#       7
#     8   8   8   8   8   8   8
#     4   9  19  34  52  68  89 125 175 224 259 287
#     4  12  22  30  41  62  99 139 171 202 245 300
#     4   9  18  35  51  66  90 129 172 211 251 287
#     4  11  21  30  44  69  97 129 170 207 252 304
#     4   9  18  34  50  66  90 129 174 219 251 287
#     4  11  22  30  47  70 102 137 168 205 246 296
#     4  11  20  33  44  68 102 139 175 206 246 304
#
# _framework density 16.364149000000001
#
# number of rings (size 3 to 8) (size 9 to 14) (size 15 to 20)
#    0.000    1.714    2.857    3.429    4.000    0.000 
#    0.000    0.000    0.000    0.000    0.000    0.000 
#    0.000    6.857    0.000    0.000    0.000    1.286 
#
# Total GULP energy -312081.375625 kJ/mol
# GULP energy per Si atom -5572.881708 kJ/mol
# Density = 1.632690 g / cm^3
# Si number density = 16.364149 Si / 1000 Ang^3
#
#
#
# Elastic Constant Matrix: (Units=GPa)
#
#
# Indices 1 2 3 4 5 6 
#
# 1 52.3812 44.3570 22.3931 0.0000 0.0000 0.0000
# 2 44.3570 52.3802 22.3925 0.0000 0.0000 0.0000
# 3 22.3931 22.3925 74.4534 0.0000 0.0000 0.0000
# 4 0.0000 0.0000 0.0000 19.0866 0.0000 0.0000
# 5 0.0000 0.0000 0.0000 0.0000 19.0872 0.0000
# 6 0.0000 0.0000 0.0000 0.0000 0.0000 36.6256
#
#
#
# Elastic Compliance Matrix: (Units=1/GPa)
#
#
# Indices 1 2 3 4 5 6 
#
# 1 0.068320 -0.056311 -0.003612 0.000000 0.000000 0.000000
# 2 -0.056311 0.068320 -0.003612 0.000000 0.000000 0.000000
# 3 -0.003612 -0.003612 0.015604 0.000000 0.000000 0.000000
# 4 0.000000 0.000000 0.000000 0.052393 0.000000 0.000000
# 5 0.000000 0.000000 0.000000 0.000000 0.052391 0.000000
# 6 0.000000 0.000000 0.000000 0.000000 0.000000 0.027303
#
#
# Mechanical properties :
#
#
# Convention : Reuss Voigt Hill
#
# Bulk Modulus (GPa) = 39.72220 39.72222 39.72221
# Shear Modulus (GPa) = 11.91067 20.96470 16.43768
#
# Velocity S-wave (km/s) = 2.70080 3.58318 3.17281
# Velocity P-wave (km/s) = 5.83544 6.43782 6.14402
#
# Compressibility (1/GPa) = 0.02517484
#
# Stress axis : x y z
#
# Youngs Moduli (GPa) = 14.63710 14.63690 64.08647
#
# Poissons Ratio (x) = 0.82421 0.23150
# Poissons Ratio (y) = 0.82422 0.23146
# Poissons Ratio (z) = 0.05287 0.05286
#
# Static dielectric constant tensor:
#      x y z
#    x 1.573720 0.000000 0.000000 
#    y 0.000000 1.573720 0.000000 
#    z 0.000000 0.000000 1.626680 
# 
# From -- ./inp_files/1707.got.cif
#   From: 2010.05.17/outbox.cif.g08.bks.cpg/sg92_1_cif.got.tgz:1707.got - 2010.06.03 19:35:17.
