data_PCOD9549678
_publ_section_title
;
Structure prediction by ZEFSAII (Michael W. Deem and Ramdas Pophale) SiO2 
 PCOD9549678
Probable space group: P 42 2 2
;
_chemical_formula_sum "Si O2"
_cell_formula_units_Z 16
_cell_length_a 8.621697
_cell_length_b 8.621697
_cell_length_c 9.254748
_cell_angle_alpha 90.000000
_cell_angle_beta 90.000000
_cell_angle_gamma 90.000000
_cell_volume 687.939283
_symmetry_space_group_name_H-M "P 42 2 2"
_symmetry_group_IT_number 93
_symmetry_cell_setting 'tetragonal'
loop_
_space_group_symop_operation_xyz
x,y,z
-y,x,1/2+z
-x,-y,z
y,-x,1/2+z
x,-y,-z
-x,y,-z
y,x,1/2-z
-y,-x,1/2-z
loop_
_atom_site_type_symbol
_atom_site_label
_atom_site_fract_x
_atom_site_fract_y
_atom_site_fract_z
Si Si1 0.049247 0.260856 0.654625
Si Si2 0.706858 0.706858 0.250000
Si Si3 0.276403 0.500000 0.500000
O O1 0.140781 0.140781 0.750000
O O2 0.165802 0.396740 0.604021
O O3 0.000000 0.191432 0.500000
O O4 0.893278 0.311820 0.737663
O O5 0.641868 0.620908 0.392003
#
# Coordination Sequence:
#
# PCOD9549678 Si02
#       3
#     8   4   4
#     4  10  21  39  65  97 131 169 218 271 325 386
#     4  10  19  38  65  94 130 170 212 266 324 384
#     4  10  23  42  65  98 135 170 215 268 327 388
#
# _framework density 23.257867000000001
#
# number of rings (size 3 to 8) (size 9 to 14) (size 15 to 20)
#    0.000    2.000    0.000    7.500    0.000   14.000 
#    0.000   13.750    0.000   48.000    0.000    0.000 
#    0.000    0.000    0.000    0.000    0.000    0.000 
#
# Total GULP energy -89333.616716 kJ/mol
# GULP energy per Si atom -5583.351045 kJ/mol
# Density = 2.320493 g / cm^3
# Si number density = 23.257867 Si / 1000 Ang^3
#
#
#
# Elastic Constant Matrix: (Units=GPa)
#
#
# Indices 1 2 3 4 5 6 
#
# 1 95.8136 32.0565 91.3360 0.0000 0.0000 0.0000
# 2 32.0565 95.8136 91.3360 0.0000 0.0000 0.0000
# 3 91.3360 91.3360 181.8987 0.0000 0.0000 0.0000
# 4 0.0000 0.0000 0.0000 59.7265 0.0000 0.0000
# 5 0.0000 0.0000 0.0000 0.0000 59.7265 0.0000
# 6 0.0000 0.0000 0.0000 0.0000 0.0000 30.3723
#
#
#
# Elastic Compliance Matrix: (Units=1/GPa)
#
#
# Indices 1 2 3 4 5 6 
#
# 1 0.021675 0.005991 -0.013892 0.000000 0.000000 0.000000
# 2 0.005991 0.021675 -0.013892 0.000000 0.000000 0.000000
# 3 -0.013892 -0.013892 0.019448 0.000000 0.000000 0.000000
# 4 0.000000 0.000000 0.000000 0.016743 0.000000 0.000000
# 5 0.000000 0.000000 0.000000 0.000000 0.016743 0.000000
# 6 0.000000 0.000000 0.000000 0.000000 0.000000 0.032925
#
#
# Mechanical properties :
#
#
# Convention : Reuss Voigt Hill
#
# Bulk Modulus (GPa) = 52.04796 89.22032 70.63414
# Shear Modulus (GPa) = 27.90194 40.55157 34.22676
#
# Velocity S-wave (km/s) = 3.46739 4.18013 3.84033
# Velocity P-wave (km/s) = 6.20142 7.85765 7.07814
#
# Compressibility (1/GPa) = 0.01921305
#
# Stress axis : x y z
#
# Youngs Moduli (GPa) = 46.13587 46.13587 51.41847
#
# Poissons Ratio (x) = -0.27638 0.71429
# Poissons Ratio (y) = -0.27638 0.71429
# Poissons Ratio (z) = 0.64090 0.64090
#
# Static dielectric constant tensor:
#      x y z
#    x 1.917000 0.000000 0.000000 
#    y 0.000000 1.917000 0.000000 
#    z 0.000000 0.000000 1.853320 
# 
# From -- ./inp_files/921.got.cif
#   From: 2010.05.17/outbox.cif.g08.bks.cpg/sg93_1_cif.got.tgz:921.got - 2010.06.03 19:38:44.
