data_PCOD9549984
_publ_section_title
;
Structure prediction by ZEFSAII (Michael W. Deem and Ramdas Pophale) SiO2 
 PCOD9549984
Probable space group: P 42 21 2
;
_chemical_formula_sum "Si O2"
_cell_formula_units_Z 64
_cell_length_a 23.244032
_cell_length_b 23.244032
_cell_length_c 5.569533
_cell_angle_alpha 90.000000
_cell_angle_beta 90.000000
_cell_angle_gamma 90.000000
_cell_volume 3009.135268
_symmetry_space_group_name_H-M "P 42 21 2"
_symmetry_group_IT_number 94
_symmetry_cell_setting 'tetragonal'
loop_
_space_group_symop_operation_xyz
x,y,z
1/2-y,1/2+x,1/2+z
-x,-y,z
1/2+y,1/2-x,1/2+z
1/2+x,1/2-y,1/2-z
1/2-x,1/2+y,1/2-z
y,x,-z
-y,-x,-z
loop_
_atom_site_type_symbol
_atom_site_label
_atom_site_fract_x
_atom_site_fract_y
_atom_site_fract_z
Si Si1 0.671399 0.019610 0.673573
Si Si2 0.053474 0.791547 0.800025
Si Si3 0.311925 0.473430 0.798902
Si Si4 0.846994 0.648705 0.713695
Si Si5 0.759899 0.322015 0.839644
Si Si6 0.397076 0.652983 0.252097
Si Si7 0.660755 0.745529 0.958537
Si Si8 0.187782 0.533834 0.334707
O O1 0.642376 0.081748 0.724566
O O2 0.741743 0.024336 0.675217
O O3 0.659058 0.989837 0.415177
O O4 0.658489 0.985434 0.917654
O O5 0.107350 0.751902 0.723346
O O6 0.046442 0.830470 0.563916
O O7 0.996386 0.751068 0.828229
O O8 0.062708 0.821050 0.056247
O O9 0.339627 0.534955 0.754545
O O10 0.847669 0.682905 0.463918
O O11 0.897285 0.685086 0.842073
O O12 0.780878 0.651527 0.799829
O O13 0.717248 0.370673 0.747791
O O14 0.786436 0.279386 0.651249
O O15 0.718589 0.281412 0.000000
O O16 0.376945 0.623056 0.500000
O O17 0.375989 0.624012 0.000000
O O18 0.680755 0.680755 0.000000
#
# Coordination Sequence:
#
# PCOD9549984 Si02
#       8
#     8   8   8   8   8   8   8   8
#     4  10  22  40  57  87 111 160 216 258 310 372
#     4  10  21  38  58  85 117 165 219 252 307 378
#     4  10  19  38  59  80 118 165 208 257 297 366
#     4  12  24  39  63  88 122 165 219 260 319 388
#     4  11  23  34  52  85 129 169 202 246 318 391
#     4  11  24  38  58  90 132 168 212 261 320 395
#     4  12  24  38  58  91 134 170 205 265 326 402
#     4  10  22  37  62  83 111 156 213 268 310 363
#
# _framework density 21.268568999999999
#
# number of rings (size 3 to 8) (size 9 to 14) (size 15 to 20)
#    0.000    1.250    3.750    4.125    7.000    0.000 
#    0.000    0.000    0.000    2.250    0.000    0.000 
#    0.000    7.500    0.000    0.000    0.000    0.000 
#
# Total GULP energy -356400.262073 kJ/mol
# GULP energy per Si atom -5568.754095 kJ/mol
# Density = 2.122016 g / cm^3
# Si number density = 21.268569 Si / 1000 Ang^3
#
#
#
# Elastic Constant Matrix: (Units=GPa)
#
#
# Indices 1 2 3 4 5 6 
#
# 1 36.7179 14.8773 10.6010 0.0000 0.0000 0.0000
# 2 14.8773 36.7177 10.6014 0.0000 0.0000 0.0000
# 3 10.6010 10.6014 141.1738 0.0000 0.0000 0.0000
# 4 0.0000 0.0000 0.0000 23.0507 0.0000 0.0000
# 5 0.0000 0.0000 0.0000 0.0000 23.0511 0.0000
# 6 0.0000 0.0000 0.0000 0.0000 0.0000 7.6667
#
#
#
# Elastic Compliance Matrix: (Units=1/GPa)
#
#
# Indices 1 2 3 4 5 6 
#
# 1 0.032893 -0.012894 -0.001502 0.000000 0.000000 0.000000
# 2 -0.012894 0.032893 -0.001502 0.000000 0.000000 0.000000
# 3 -0.001502 -0.001502 0.007309 0.000000 0.000000 0.000000
# 4 0.000000 0.000000 0.000000 0.043383 0.000000 0.000000
# 5 0.000000 0.000000 0.000000 0.000000 0.043382 0.000000
# 6 0.000000 0.000000 0.000000 0.000000 0.000000 0.130434
#
#
# Mechanical properties :
#
#
# Convention : Reuss Voigt Hill
#
# Bulk Modulus (GPa) = 24.21336 31.86322 28.03829
# Shear Modulus (GPa) = 14.88743 22.65568 18.77155
#
# Velocity S-wave (km/s) = 2.64857 3.26731 2.97407
# Velocity P-wave (km/s) = 4.55659 5.40811 5.00051
#
# Compressibility (1/GPa) = 0.04129952
#
# Stress axis : x y z
#
# Youngs Moduli (GPa) = 30.40197 30.40182 136.81733
#
# Poissons Ratio (x) = 0.39200 0.20546
# Poissons Ratio (y) = 0.39200 0.20548
# Poissons Ratio (z) = 0.04565 0.04566
#
# Static dielectric constant tensor:
#      x y z
#    x 2.178760 0.000000 0.000000 
#    y 0.000000 2.178620 0.000000 
#    z 0.000000 0.000000 2.073530 
# 
# From -- ./inp_files/673.got.cif
#   From: 2010.05.17/outbox.cif.g08.bks.cpg/sg94_1_cif.got.tgz:673.got - 2010.06.03 19:43:16.
