data_PCOD9549978
_publ_section_title
;
Structure prediction by ZEFSAII (Michael W. Deem and Ramdas Pophale) SiO2 
 PCOD9549978
Probable space group: P 42 21 2
;
_chemical_formula_sum "Si O2"
_cell_formula_units_Z 42
_cell_length_a 15.472138
_cell_length_b 15.472138
_cell_length_c 7.881204
_cell_angle_alpha 90.000000
_cell_angle_beta 90.000000
_cell_angle_gamma 90.000000
_cell_volume 1886.658210
_symmetry_space_group_name_H-M "P 42 21 2"
_symmetry_group_IT_number 94
_symmetry_cell_setting 'tetragonal'
loop_
_space_group_symop_operation_xyz
x,y,z
1/2-y,1/2+x,1/2+z
-x,-y,z
1/2+y,1/2-x,1/2+z
1/2+x,1/2-y,1/2-z
1/2-x,1/2+y,1/2-z
y,x,-z
-y,-x,-z
loop_
_atom_site_type_symbol
_atom_site_label
_atom_site_fract_x
_atom_site_fract_y
_atom_site_fract_z
Si Si1 0.639799 0.937996 0.041198
Si Si2 0.500000 0.500000 0.500000
Si Si3 0.861297 0.245298 0.355920
Si Si4 0.689617 0.509911 0.354145
Si Si5 0.142061 0.003570 0.514491
Si Si6 0.000000 0.500000 0.209161
Si Si7 0.199078 0.800923 0.000000
O O1 0.620923 0.837742 0.064356
O O2 0.742363 0.949561 0.051420
O O3 0.588972 0.985194 0.192359
O O4 0.589624 0.981584 0.886776
O O5 0.587964 0.496800 0.391972
O O6 0.807979 0.192022 0.500000
O O7 0.954892 0.195769 0.335737
O O8 0.808731 0.254155 0.176782
O O9 0.700119 0.502794 0.153116
O O10 0.710505 0.605288 0.417434
O O11 0.061603 0.938398 0.500000
O O12 0.098787 0.098787 0.500000
#
# Coordination Sequence:
#
# PCOD9549978 Si02
#       7
#     8   2   8   8   8   4   4
#     4  11  24  45  70 100 135 191 244 306 370 428
#     4  10  24  36  62 108 148 186 222 290 356 452
#     4  11  23  42  67 100 142 184 233 304 361 433
#     4  11  22  39  65  99 139 183 233 285 359 433
#     4  10  19  37  62  95 134 184 228 281 361 431
#     4  10  24  46  72  96 132 186 260 308 352 430
#     4  11  22  41  68  98 136 181 230 285 358 428
#
# _framework density 22.261583999999999
#
# number of rings (size 3 to 8) (size 9 to 14) (size 15 to 20)
#    0.000    1.333    3.810    3.429    4.000    0.000 
#    1.714    0.000    0.000    0.000    0.000    0.000 
#    0.000    0.000    0.000    0.000    0.000    0.000 
#
# Total GULP energy -233867.268700 kJ/mol
# GULP energy per Si atom -5568.268302 kJ/mol
# Density = 2.221092 g / cm^3
# Si number density = 22.261584 Si / 1000 Ang^3
#
#
#
# Elastic Constant Matrix: (Units=GPa)
#
#
# Indices 1 2 3 4 5 6 
#
# 1 67.4348 25.7832 5.5562 0.0000 0.0000 0.0000
# 2 25.7832 67.4340 5.5534 0.0000 0.0000 0.0000
# 3 5.5562 5.5534 83.4794 0.0000 0.0000 0.0000
# 4 0.0000 0.0000 0.0000 -53.7534 0.0000 0.0000
# 5 0.0000 0.0000 0.0000 0.0000 -53.7450 0.0000
# 6 0.0000 0.0000 0.0000 0.0000 0.0000 29.5583
#
#
#
# Elastic Compliance Matrix: (Units=1/GPa)
#
#
# Indices 1 2 3 4 5 6 
#
# 1 0.017411 -0.006598 -0.000720 0.000000 0.000000 0.000000
# 2 -0.006598 0.017411 -0.000719 0.000000 0.000000 0.000000
# 3 -0.000720 -0.000719 0.012075 0.000000 0.000000 0.000000
# 4 0.000000 0.000000 0.000000 -0.018603 0.000000 0.000000
# 5 0.000000 0.000000 0.000000 0.000000 -0.018606 0.000000
# 6 0.000000 0.000000 0.000000 0.000000 0.000000 0.033831
#
#
# Mechanical properties :
#
#
# Convention : Reuss Voigt Hill
#
# Bulk Modulus (GPa) = 32.44298 32.45932 32.45115
# Shear Modulus (GPa) = 71.56474 -3.49101 34.03687
#
# Velocity S-wave (km/s) = 5.67600 -1.25363 3.91442
# Velocity P-wave (km/s) = 7.58691 3.53795 5.91938
#
# Compressibility (1/GPa) = 0.03082331
#
# Stress axis : x y z
#
# Youngs Moduli (GPa) = 57.43472 57.43428 82.81737
#
# Poissons Ratio (x) = 0.37894 0.05962
# Poissons Ratio (y) = 0.37894 0.05956
# Poissons Ratio (z) = 0.04135 0.04130
#
# Static dielectric constant tensor:
#      x y z
#    x 2.154080 0.000000 0.000000 
#    y 0.000000 2.154090 0.000000 
#    z 0.000000 0.000000 1.927750 
# 
# From -- ./inp_files/1586.got.cif
#   From: 2010.05.17/outbox.cif.g08.bks.cpg/sg94_1_cif.got.tgz:1586.got - 2010.06.03 19:43:16.
