data_PCOD9549785
_publ_section_title
;
Structure prediction by ZEFSAII (Michael W. Deem and Ramdas Pophale) SiO2 
 PCOD9549785
Probable space group: P 42 2 2
;
_chemical_formula_sum "Si O2"
_cell_formula_units_Z 40
_cell_length_a 11.295995
_cell_length_b 11.295995
_cell_length_c 14.231560
_cell_angle_alpha 90.000000
_cell_angle_beta 90.000000
_cell_angle_gamma 90.000000
_cell_volume 1815.939983
_symmetry_space_group_name_H-M "P 42 2 2"
_symmetry_group_IT_number 93
_symmetry_cell_setting 'tetragonal'
loop_
_space_group_symop_operation_xyz
x,y,z
-y,x,1/2+z
-x,-y,z
y,-x,1/2+z
x,-y,-z
-x,y,-z
y,x,1/2-z
-y,-x,1/2-z
loop_
_atom_site_type_symbol
_atom_site_label
_atom_site_fract_x
_atom_site_fract_y
_atom_site_fract_z
Si Si1 0.680989 0.184400 0.325186
Si Si2 0.552085 0.621517 0.104409
Si Si3 0.771085 0.933523 0.305494
Si Si4 0.125274 0.466147 0.298694
Si Si5 0.372013 0.189867 0.467094
O O1 0.718429 0.281572 0.250000
O O2 0.554923 0.134023 0.290043
O O3 0.681471 0.226516 0.431912
O O4 0.768983 0.073744 0.316327
O O5 0.500000 0.500000 0.146996
O O6 0.527070 0.748449 0.150510
O O7 0.692748 0.604507 0.093671
O O8 0.500000 0.627400 0.000000
O O9 0.884259 0.884259 0.250000
O O10 0.666290 0.891854 0.236104
O O11 0.722218 0.885270 0.406620
O O12 0.000000 0.500000 0.348825
O O13 0.500000 0.137296 0.500000
#
# Coordination Sequence:
#
# PCOD9549785 Si02
#       5
#     8   8   8   8   8
#     4  11  25  42  65  96 132 172 223 277 332 392
#     4  11  22  37  60  99 137 174 216 268 339 399
#     4  11  23  43  68  95 127 173 226 274 328 390
#     4  10  22  40  62  92 132 180 219 263 334 406
#     4  12  22  40  67  99 135 170 218 269 328 407
#
# _framework density 22.027159999999999
#
# number of rings (size 3 to 8) (size 9 to 14) (size 15 to 20)
#    0.000    1.000    6.000    1.800    0.000    1.600 
#    0.000    3.000    0.000    2.400    0.000    0.000 
#    0.000    0.000    0.000    0.000    0.000    0.000 
#
# Total GULP energy -223264.222421 kJ/mol
# GULP energy per Si atom -5581.605561 kJ/mol
# Density = 2.197703 g / cm^3
# Si number density = 22.027160 Si / 1000 Ang^3
#
#
#
# Elastic Constant Matrix: (Units=GPa)
#
#
# Indices 1 2 3 4 5 6 
#
# 1 105.5816 16.0336 27.4751 0.0000 0.0000 0.0000
# 2 16.0336 105.5814 27.4738 0.0000 0.0000 0.0000
# 3 27.4751 27.4738 100.7440 0.0000 0.0000 0.0000
# 4 0.0000 0.0000 0.0000 19.6257 0.0000 0.0000
# 5 0.0000 0.0000 0.0000 0.0000 19.6256 0.0000
# 6 0.0000 0.0000 0.0000 0.0000 0.0000 29.5118
#
#
#
# Elastic Compliance Matrix: (Units=1/GPa)
#
#
# Indices 1 2 3 4 5 6 
#
# 1 0.010273 -0.000894 -0.002558 0.000000 0.000000 0.000000
# 2 -0.000894 0.010273 -0.002558 0.000000 0.000000 0.000000
# 3 -0.002558 -0.002558 0.011321 0.000000 0.000000 0.000000
# 4 0.000000 0.000000 0.000000 0.050954 0.000000 0.000000
# 5 0.000000 0.000000 0.000000 0.000000 0.050954 0.000000
# 6 0.000000 0.000000 0.000000 0.000000 0.000000 0.033885
#
#
# Mechanical properties :
#
#
# Convention : Reuss Voigt Hill
#
# Bulk Modulus (GPa) = 50.38480 50.43025 50.40752
# Shear Modulus (GPa) = 26.83929 29.81424 28.32676
#
# Velocity S-wave (km/s) = 3.49444 3.68302 3.58996
# Velocity P-wave (km/s) = 6.26139 6.40550 6.33386
#
# Compressibility (1/GPa) = 0.01984726
#
# Stress axis : x y z
#
# Youngs Moduli (GPa) = 97.34486 97.34534 88.33035
#
# Poissons Ratio (x) = 0.08707 0.22592
# Poissons Ratio (y) = 0.08707 0.22591
# Poissons Ratio (z) = 0.24898 0.24896
#
# Static dielectric constant tensor:
#      x y z
#    x 1.868430 0.000000 0.000000 
#    y 0.000000 1.868430 0.000000 
#    z 0.000000 0.000000 1.818710 
# 
# From -- ./inp_files/4363.got.cif
#   From: 2010.05.17/outbox.cif.g08.bks.cpg/sg93_3_cif.got.tgz:4363.got - 2010.06.03 19:38:44.
