data_PCOD9549071
_publ_section_title
;
Structure prediction by ZEFSAII (Michael W. Deem and Ramdas Pophale) SiO2 
 PCOD9549071
Probable space group: P 41 21 2
;
_chemical_formula_sum "Si O2"
_cell_formula_units_Z 40
_cell_length_a 14.112063
_cell_length_b 14.112063
_cell_length_c 7.599558
_cell_angle_alpha 90.000000
_cell_angle_beta 90.000000
_cell_angle_gamma 90.000000
_cell_volume 1513.454424
_symmetry_space_group_name_H-M "P 41 21 2"
_symmetry_group_IT_number 92
_symmetry_cell_setting 'tetragonal'
loop_
_space_group_symop_operation_xyz
x,y,z
1/2-y,1/2+x,1/4+z
-x,-y,1/2+z
1/2+y,1/2-x,3/4+z
1/2+x,1/2-y,3/4-z
1/2-x,1/2+y,1/4-z
y,x,-z
-y,-x,1/2-z
loop_
_atom_site_type_symbol
_atom_site_label
_atom_site_fract_x
_atom_site_fract_y
_atom_site_fract_z
Si Si1 0.900757 0.548582 0.144275
Si Si2 0.191349 0.000647 0.601013
Si Si3 0.818345 0.730860 0.761216
Si Si4 0.159440 0.929094 0.979047
Si Si5 0.086331 0.284919 0.896275
O O1 0.929758 0.444403 0.206723
O O2 0.788986 0.557214 0.156531
O O3 0.941483 0.623463 0.284579
O O4 0.150610 0.987693 0.797588
O O5 0.117727 0.942463 0.480978
O O6 0.230018 0.107832 0.592581
O O7 0.738355 0.653135 0.802692
O O8 0.884058 0.693640 0.598314
O O9 0.762883 0.821635 0.687850
O O10 0.208626 0.002070 0.109992
#
# Coordination Sequence:
#
# PCOD9549071 Si02
#       5
#     8   8   8   8   8
#     4  12  26  40  62 100 132 170 218 274 334 398
#     4  10  22  39  66  92 130 172 218 268 335 392
#     4  10  20  40  68  92 129 171 217 277 326 394
#     4  10  20  40  68  92 129 171 217 277 326 394
#     4  10  22  39  66  92 130 172 218 268 335 392
#
# _framework density 26.429603
#
# number of rings (size 3 to 8) (size 9 to 14) (size 15 to 20)
#    0.000    1.600    2.000    2.400    8.400    0.000 
#    0.000    0.000   35.200    0.000    0.000    0.000 
#    0.000    0.000    0.000    0.000    0.000    0.000 
#
# Total GULP energy -223876.545425 kJ/mol
# GULP energy per Si atom -5596.913636 kJ/mol
# Density = 2.636945 g / cm^3
# Si number density = 26.429603 Si / 1000 Ang^3
#
#
#
# Elastic Constant Matrix: (Units=GPa)
#
#
# Indices 1 2 3 4 5 6 
#
# 1 117.5959 -10.0031 6.1880 0.0000 0.0000 0.0000
# 2 -10.0031 117.5959 6.1880 0.0000 0.0000 0.0000
# 3 6.1880 6.1880 52.7274 0.0000 0.0000 0.0000
# 4 0.0000 0.0000 0.0000 37.5478 0.0000 0.0000
# 5 0.0000 0.0000 0.0000 0.0000 37.5478 0.0000
# 6 0.0000 0.0000 0.0000 0.0000 0.0000 44.8619
#
#
#
# Elastic Compliance Matrix: (Units=1/GPa)
#
#
# Indices 1 2 3 4 5 6 
#
# 1 0.008629 0.000792 -0.001106 0.000000 0.000000 0.000000
# 2 0.000792 0.008629 -0.001106 0.000000 0.000000 0.000000
# 3 -0.001106 -0.001106 0.019225 0.000000 0.000000 0.000000
# 4 0.000000 0.000000 0.000000 0.026633 0.000000 0.000000
# 5 0.000000 0.000000 0.000000 0.000000 0.026633 0.000000
# 6 0.000000 0.000000 0.000000 0.000000 0.000000 0.022291
#
#
# Mechanical properties :
#
#
# Convention : Reuss Voigt Hill
#
# Bulk Modulus (GPa) = 29.72190 32.51832 31.12011
# Shear Modulus (GPa) = 39.65330 43.02794 41.34062
#
# Velocity S-wave (km/s) = 3.87762 4.03925 3.95926
# Velocity P-wave (km/s) = 5.59625 5.83820 5.71850
#
# Compressibility (1/GPa) = 0.03364523
#
# Stress axis : x y z
#
# Youngs Moduli (GPa) = 115.88473 115.88473 52.01564
#
# Poissons Ratio (x) = -0.09181 0.05751
# Poissons Ratio (y) = -0.09181 0.05751
# Poissons Ratio (z) = 0.12813 0.12813
#
# Static dielectric constant tensor:
#      x y z
#    x 2.065460 0.000000 0.000000 
#    y 0.000000 2.065460 0.000000 
#    z 0.000000 0.000000 2.092780 
# 
# From -- ./inp_files/1289.got.cif
#   From: 2010.05.17/outbox.cif.g08.bks.cpg/sg92_1_cif.got.tgz:1289.got - 2010.06.03 19:35:17.
