data_PCOD9549371
_publ_section_title
;
Structure prediction by ZEFSAII (Michael W. Deem and Ramdas Pophale) SiO2 
 PCOD9549371
Probable space group: P 41 21 2
;
_chemical_formula_sum "Si O2"
_cell_formula_units_Z 44
_cell_length_a 7.407591
_cell_length_b 7.407591
_cell_length_c 30.692432
_cell_angle_alpha 90.000000
_cell_angle_beta 90.000000
_cell_angle_gamma 90.000000
_cell_volume 1684.167541
_symmetry_space_group_name_H-M "P 41 21 2"
_symmetry_group_IT_number 92
_symmetry_cell_setting 'tetragonal'
loop_
_space_group_symop_operation_xyz
x,y,z
1/2-y,1/2+x,1/4+z
-x,-y,1/2+z
1/2+y,1/2-x,3/4+z
1/2+x,1/2-y,3/4-z
1/2-x,1/2+y,1/4-z
y,x,-z
-y,-x,1/2-z
loop_
_atom_site_type_symbol
_atom_site_label
_atom_site_fract_x
_atom_site_fract_y
_atom_site_fract_z
Si Si1 0.736422 0.736422 0.500000
Si Si2 0.251760 0.245349 0.180742
Si Si3 0.147841 0.750322 0.520401
Si Si4 0.545689 0.285859 0.335319
Si Si5 0.132190 0.392061 0.912651
Si Si6 0.356941 0.433227 0.568848
O O1 0.721493 0.643587 0.451471
O O2 0.945401 0.689775 0.509320
O O3 0.332095 0.243301 0.229286
O O4 0.228650 0.457410 0.171966
O O5 0.348077 0.178828 0.137329
O O6 0.056452 0.150475 0.186642
O O7 0.110175 0.910804 0.554056
O O8 0.262969 0.579216 0.537414
O O9 0.751332 0.264704 0.320816
O O10 0.530464 0.355922 0.384260
O O11 0.448395 0.091301 0.334863
#
# Coordination Sequence:
#
# PCOD9549371 Si02
#       6
#     4   8   8   8   8   8
#     4  10  24  48  70  98 144 186 246 310 374 456
#     4  10  24  45  68 104 149 191 246 313 379 455
#     4  11  24  47  72 109 147 199 250 310 385 455
#     4  11  24  44  73 111 142 201 253 308 388 452
#     4  10  24  42  68 102 140 191 239 310 382 447
#     4  11  23  45  72 105 152 192 253 316 374 460
#
# _framework density 26.125665000000001
#
# number of rings (size 3 to 8) (size 9 to 14) (size 15 to 20)
#    0.000    1.455    1.818    1.636    5.091    4.364 
#   19.636    0.000    0.000    0.000    0.000    0.000 
#    0.000    0.000    0.000    0.000    0.000    0.000 
#
# Total GULP energy -246207.725619 kJ/mol
# GULP energy per Si atom -5595.630128 kJ/mol
# Density = 2.606620 g / cm^3
# Si number density = 26.125665 Si / 1000 Ang^3
#
#
#
# Elastic Constant Matrix: (Units=GPa)
#
#
# Indices 1 2 3 4 5 6 
#
# 1 122.7717 19.9265 49.6281 0.0000 0.0000 0.0000
# 2 19.9265 122.7717 49.6281 0.0000 0.0000 0.0000
# 3 49.6281 49.6281 170.2966 0.0000 0.0000 0.0000
# 4 0.0000 0.0000 0.0000 20.0822 0.0000 0.0000
# 5 0.0000 0.0000 0.0000 0.0000 20.0822 0.0000
# 6 0.0000 0.0000 0.0000 0.0000 0.0000 39.3997
#
#
#
# Elastic Compliance Matrix: (Units=1/GPa)
#
#
# Indices 1 2 3 4 5 6 
#
# 1 0.009256 -0.000467 -0.002561 0.000000 0.000000 0.000000
# 2 -0.000467 0.009256 -0.002561 0.000000 0.000000 0.000000
# 3 -0.002561 -0.002561 0.007365 0.000000 0.000000 0.000000
# 4 0.000000 0.000000 0.000000 0.049795 0.000000 0.000000
# 5 0.000000 0.000000 0.000000 0.000000 0.049795 0.000000
# 6 0.000000 0.000000 0.000000 0.000000 0.000000 0.025381
#
#
# Mechanical properties :
#
#
# Convention : Reuss Voigt Hill
#
# Bulk Modulus (GPa) = 68.03564 72.68951 70.36258
# Shear Modulus (GPa) = 29.95299 35.68998 32.82148
#
# Velocity S-wave (km/s) = 3.38967 3.70007 3.54827
# Velocity P-wave (km/s) = 6.43568 6.79246 6.61648
#
# Compressibility (1/GPa) = 0.01469818
#
# Stress axis : x y z
#
# Youngs Moduli (GPa) = 108.03332 108.03332 135.77688
#
# Poissons Ratio (x) = 0.05045 0.34778
# Poissons Ratio (y) = 0.05045 0.34778
# Poissons Ratio (z) = 0.27672 0.27672
#
# Static dielectric constant tensor:
#      x y z
#    x 2.060180 0.000000 0.000000 
#    y 0.000000 2.060180 0.000000 
#    z 0.000000 0.000000 2.159720 
# 
# From -- ./inp_files/4437.got.cif
#   From: 2010.05.17/outbox.cif.g08.bks.cpg/sg92_3_cif.got.tgz:4437.got - 2010.06.03 19:35:17.
