data_PCOD9549880
_publ_section_title
;
Structure prediction by ZEFSAII (Michael W. Deem and Ramdas Pophale) SiO2 
 PCOD9549880
Probable space group: P 42 2 2
;
_chemical_formula_sum "Si O2"
_cell_formula_units_Z 28
_cell_length_a 8.957109
_cell_length_b 8.957109
_cell_length_c 12.777558
_cell_angle_alpha 90.000000
_cell_angle_beta 90.000000
_cell_angle_gamma 90.000000
_cell_volume 1025.140944
_symmetry_space_group_name_H-M "P 42 2 2"
_symmetry_group_IT_number 93
_symmetry_cell_setting 'tetragonal'
loop_
_space_group_symop_operation_xyz
x,y,z
-y,x,1/2+z
-x,-y,z
y,-x,1/2+z
x,-y,-z
-x,y,-z
y,x,1/2-z
-y,-x,1/2-z
loop_
_atom_site_type_symbol
_atom_site_label
_atom_site_fract_x
_atom_site_fract_y
_atom_site_fract_z
Si Si1 0.398126 0.703840 0.397787
Si Si2 0.815766 0.815766 0.250000
Si Si3 0.520323 0.820338 0.174016
Si Si4 0.169573 0.061031 0.604495
O O1 0.500000 0.725737 0.500000
O O2 0.474757 0.784402 0.296329
O O3 0.333455 0.539073 0.379577
O O4 0.227015 0.773508 0.395866
O O5 0.697918 0.798330 0.159163
O O6 0.979491 0.781840 0.209007
O O7 0.500000 0.000000 0.149263
O O8 0.245537 0.000000 0.500000
O O9 0.000000 0.000000 0.600722
#
# Coordination Sequence:
#
# PCOD9549880 Si02
#       4
#     8   4   8   8
#     4  11  25  46  76 115 169 217 273 342 420 505
#     4  12  23  43  78 106 158 204 271 337 404 484
#     4  11  24  45  75 116 158 218 269 337 418 494
#     4  11  24  42  72 115 155 210 271 336 410 489
#
# _framework density 27.313316
#
# number of rings (size 3 to 8) (size 9 to 14) (size 15 to 20)
#    0.000    0.857    2.857    3.857    4.000    2.286 
#    0.000   11.429    0.000   10.286    0.000    0.000 
#    0.000    0.000    0.000    0.000    0.000    0.000 
#
# Total GULP energy -155884.193937 kJ/mol
# GULP energy per Si atom -5567.292641 kJ/mol
# Density = 2.725115 g / cm^3
# Si number density = 27.313316 Si / 1000 Ang^3
#
#
#
# Elastic Constant Matrix: (Units=GPa)
#
#
# Indices 1 2 3 4 5 6 
#
# 1 108.5876 37.9714 23.7826 0.0000 0.0000 0.0000
# 2 37.9714 108.5876 23.7826 0.0000 0.0000 0.0000
# 3 23.7826 23.7826 121.6723 0.0000 0.0000 0.0000
# 4 0.0000 0.0000 0.0000 15.6672 0.0000 0.0000
# 5 0.0000 0.0000 0.0000 0.0000 15.6672 0.0000
# 6 0.0000 0.0000 0.0000 0.0000 0.0000 43.7595
#
#
#
# Elastic Compliance Matrix: (Units=1/GPa)
#
#
# Indices 1 2 3 4 5 6 
#
# 1 0.010723 -0.003438 -0.001424 0.000000 0.000000 0.000000
# 2 -0.003438 0.010723 -0.001424 0.000000 0.000000 0.000000
# 3 -0.001424 -0.001424 0.008775 0.000000 0.000000 0.000000
# 4 0.000000 0.000000 0.000000 0.063828 0.000000 0.000000
# 5 0.000000 0.000000 0.000000 0.000000 0.063828 0.000000
# 6 0.000000 0.000000 0.000000 0.000000 0.000000 0.022852
#
#
# Mechanical properties :
#
#
# Convention : Reuss Voigt Hill
#
# Bulk Modulus (GPa) = 56.65695 56.65787 56.65741
# Shear Modulus (GPa) = 25.10234 31.90617 28.50425
#
# Velocity S-wave (km/s) = 3.03487 3.42154 3.23399
# Velocity P-wave (km/s) = 5.75056 6.03307 5.89351
#
# Compressibility (1/GPa) = 0.01765009
#
# Stress axis : x y z
#
# Youngs Moduli (GPa) = 93.25571 93.25571 113.95375
#
# Poissons Ratio (x) = 0.32060 0.16227
# Poissons Ratio (y) = 0.32060 0.16227
# Poissons Ratio (z) = 0.13280 0.13280
#
# Static dielectric constant tensor:
#      x y z
#    x 3.221190 0.000000 0.000000 
#    y 0.000000 3.221190 0.000000 
#    z 0.000000 0.000000 2.213010 
# 
# From -- ./inp_files/5028.got.cif
#   From: 2010.05.17/outbox.cif.g08.bks.cpg/sg93_3_cif.got.tgz:5028.got - 2010.06.03 19:38:44.
