data_PCOD9549780
_publ_section_title
;
Structure prediction by ZEFSAII (Michael W. Deem and Ramdas Pophale) SiO2 
 PCOD9549780
Probable space group: P 42 2 2
;
_chemical_formula_sum "Si O2"
_cell_formula_units_Z 32
_cell_length_a 13.231964
_cell_length_b 13.231964
_cell_length_c 9.981678
_cell_angle_alpha 90.000000
_cell_angle_beta 90.000000
_cell_angle_gamma 90.000000
_cell_volume 1747.640808
_symmetry_space_group_name_H-M "P 42 2 2"
_symmetry_group_IT_number 93
_symmetry_cell_setting 'tetragonal'
loop_
_space_group_symop_operation_xyz
x,y,z
-y,x,1/2+z
-x,-y,z
y,-x,1/2+z
x,-y,-z
-x,y,-z
y,x,1/2-z
-y,-x,1/2-z
loop_
_atom_site_type_symbol
_atom_site_label
_atom_site_fract_x
_atom_site_fract_y
_atom_site_fract_z
Si Si1 0.895073 0.437066 0.792860
Si Si2 0.296380 0.115101 0.032261
Si Si3 0.887394 0.740323 0.994701
Si Si4 0.792863 0.365108 0.255528
O O1 0.886906 0.368859 0.660389
O O2 0.890108 0.361674 0.917454
O O3 0.807784 0.521066 0.792629
O O4 0.000000 0.500000 0.792819
O O5 0.197446 0.184144 0.049668
O O6 0.354396 0.161240 0.903711
O O7 0.267570 0.000000 0.000000
O O8 0.856497 0.707255 0.844811
O O9 0.000000 0.784265 0.000000
O O10 0.680663 0.319338 0.250000
#
# Coordination Sequence:
#
# PCOD9549780 Si02
#       4
#     8   8   8   8
#     4  12  21  36  63  86 117 155 208 253 298 349
#     4  11  22  37  57  88 121 159 200 246 301 364
#     4  11  22  37  57  88 121 159 200 246 301 364
#     4  10  22  36  56  86 121 149 194 254 305 350
#
# _framework density 18.310397999999999
#
# number of rings (size 3 to 8) (size 9 to 14) (size 15 to 20)
#    0.000    1.000    5.000    2.250    0.000    0.500 
#    0.000    0.000    0.000   10.500    0.000   14.000 
#    0.000    0.000    0.000    0.000    0.000    0.000 
#
# Total GULP energy -178816.576435 kJ/mol
# GULP energy per Si atom -5588.018014 kJ/mol
# Density = 1.826872 g / cm^3
# Si number density = 18.310398 Si / 1000 Ang^3
#
#
#
# Elastic Constant Matrix: (Units=GPa)
#
#
# Indices 1 2 3 4 5 6 
#
# 1 87.5872 45.9200 11.4453 0.0000 0.0000 0.0000
# 2 45.9200 87.5870 11.4447 0.0000 0.0000 0.0000
# 3 11.4453 11.4447 84.9557 0.0000 0.0000 0.0000
# 4 0.0000 0.0000 0.0000 27.0648 0.0000 0.0000
# 5 0.0000 0.0000 0.0000 0.0000 27.0652 0.0000
# 6 0.0000 0.0000 0.0000 0.0000 0.0000 33.9048
#
#
#
# Elastic Compliance Matrix: (Units=1/GPa)
#
#
# Indices 1 2 3 4 5 6 
#
# 1 0.015834 -0.008166 -0.001033 0.000000 0.000000 0.000000
# 2 -0.008166 0.015834 -0.001033 0.000000 0.000000 0.000000
# 3 -0.001033 -0.001033 0.012049 0.000000 0.000000 0.000000
# 4 0.000000 0.000000 0.000000 0.036948 0.000000 0.000000
# 5 0.000000 0.000000 0.000000 0.000000 0.036948 0.000000
# 6 0.000000 0.000000 0.000000 0.000000 0.000000 0.029494
#
#
# Mechanical properties :
#
#
# Convention : Reuss Voigt Hill
#
# Bulk Modulus (GPa) = 43.00684 44.19445 43.60065
# Shear Modulus (GPa) = 28.51901 30.36160 29.44031
#
# Velocity S-wave (km/s) = 3.95084 4.07647 4.01415
# Velocity P-wave (km/s) = 6.65964 6.80775 6.73410
#
# Compressibility (1/GPa) = 0.02325211
#
# Stress axis : x y z
#
# Youngs Moduli (GPa) = 63.15706 63.15708 82.99347
#
# Poissons Ratio (x) = 0.51575 0.08573
# Poissons Ratio (y) = 0.51575 0.08572
# Poissons Ratio (z) = 0.06524 0.06523
#
# Static dielectric constant tensor:
#      x y z
#    x 1.628340 0.000000 0.000000 
#    y 0.000000 1.628340 0.000000 
#    z 0.000000 0.000000 1.643850 
# 
# From -- ./inp_files/1545.got.cif
#   From: 2010.05.17/outbox.cif.g08.bks.cpg/sg93_1_cif.got.tgz:1545.got - 2010.06.03 19:38:44.
