data_PCOD9549315
_publ_section_title
;
Structure prediction by ZEFSAII (Michael W. Deem and Ramdas Pophale) SiO2 
 PCOD9549315
Probable space group: P 41 21 2
;
_chemical_formula_sum "Si O2"
_cell_formula_units_Z 48
_cell_length_a 13.115355
_cell_length_b 13.115355
_cell_length_c 16.119657
_cell_angle_alpha 90.000000
_cell_angle_beta 90.000000
_cell_angle_gamma 90.000000
_cell_volume 2772.783093
_symmetry_space_group_name_H-M "P 41 21 2"
_symmetry_group_IT_number 92
_symmetry_cell_setting 'tetragonal'
loop_
_space_group_symop_operation_xyz
x,y,z
1/2-y,1/2+x,1/4+z
-x,-y,1/2+z
1/2+y,1/2-x,3/4+z
1/2+x,1/2-y,3/4-z
1/2-x,1/2+y,1/4-z
y,x,-z
-y,-x,1/2-z
loop_
_atom_site_type_symbol
_atom_site_label
_atom_site_fract_x
_atom_site_fract_y
_atom_site_fract_z
Si Si1 0.358398 0.839767 0.561313
Si Si2 0.148430 0.033497 0.925833
Si Si3 0.713468 0.371975 0.992782
Si Si4 0.136771 0.456995 0.250823
Si Si5 0.938873 0.539833 0.344980
Si Si6 0.167710 0.916453 0.667324
O O1 0.337629 0.724275 0.536264
O O2 0.380846 0.901837 0.477507
O O3 0.457650 0.862577 0.616144
O O4 0.261019 0.879959 0.611450
O O5 0.169279 0.109565 0.849160
O O6 0.258662 0.995295 0.958283
O O7 0.091749 0.935555 0.886259
O O8 0.086161 0.086161 0.000000
O O9 0.835623 0.358206 0.987483
O O10 0.689498 0.471725 0.047178
O O11 0.114567 0.517449 0.165699
O O12 0.038561 0.482454 0.308072
O O13 0.152591 0.847410 0.750000
#
# Coordination Sequence:
#
# PCOD9549315 Si02
#       6
#     8   8   8   8   8   8
#     4  11  22  39  62  90 123 153 203 252 308 345
#     4  11  23  40  63  84 124 167 201 243 312 369
#     4  11  22  39  61  89 120 157 206 249 298 365
#     4  11  19  38  62  85 119 160 202 245 301 364
#     4  10  23  36  61  92 119 153 202 256 296 362
#     4  10  23  38  61  91 117 159 204 246 299 365
#
# _framework density 17.311126000000002
#
# number of rings (size 3 to 8) (size 9 to 14) (size 15 to 20)
#    0.000    1.333    5.000    1.000    0.000    2.667 
#    0.000    0.000    0.000    0.000    0.000    0.000 
#    0.000    0.000    0.000    0.000    0.000    0.000 
#
# Total GULP energy -268035.474616 kJ/mol
# GULP energy per Si atom -5584.072388 kJ/mol
# Density = 1.727173 g / cm^3
# Si number density = 17.311126 Si / 1000 Ang^3
#
#
#
# Elastic Constant Matrix: (Units=GPa)
#
#
# Indices 1 2 3 4 5 6 
#
# 1 83.3176 67.3265 56.0857 0.0000 0.0000 0.0000
# 2 67.3265 83.3178 56.0854 0.0000 0.0000 0.0000
# 3 56.0857 56.0854 115.8034 0.0000 0.0000 0.0000
# 4 0.0000 0.0000 0.0000 28.6281 0.0000 0.0000
# 5 0.0000 0.0000 0.0000 0.0000 28.6285 0.0000
# 6 0.0000 0.0000 0.0000 0.0000 0.0000 27.0750
#
#
#
# Elastic Compliance Matrix: (Units=1/GPa)
#
#
# Indices 1 2 3 4 5 6 
#
# 1 0.036459 -0.026076 -0.005028 0.000000 0.000000 0.000000
# 2 -0.026076 0.036458 -0.005028 0.000000 0.000000 0.000000
# 3 -0.005028 -0.005028 0.013506 0.000000 0.000000 0.000000
# 4 0.000000 0.000000 0.000000 0.034931 0.000000 0.000000
# 5 0.000000 0.000000 0.000000 0.000000 0.034930 0.000000
# 6 0.000000 0.000000 0.000000 0.000000 0.000000 0.036934
#
#
# Mechanical properties :
#
#
# Convention : Reuss Voigt Hill
#
# Bulk Modulus (GPa) = 70.63528 71.27044 70.95286
# Shear Modulus (GPa) = 18.50463 23.72906 21.11685
#
# Velocity S-wave (km/s) = 3.27302 3.70637 3.49641
# Velocity P-wave (km/s) = 7.42802 7.71854 7.57468
#
# Compressibility (1/GPa) = 0.01415723
#
# Stress axis : x y z
#
# Youngs Moduli (GPa) = 27.42844 27.42865 74.04151
#
# Poissons Ratio (x) = 0.71523 0.37232
# Poissons Ratio (y) = 0.71523 0.37229
# Poissons Ratio (z) = 0.13792 0.13792
#
# Static dielectric constant tensor:
#      x y z
#    x 1.562230 0.000000 0.000000 
#    y 0.000000 1.562230 0.000000 
#    z 0.000000 0.000000 1.583650 
# 
# From -- ./inp_files/3125.got.cif
#   From: 2010.05.17/outbox.cif.g08.bks.cpg/sg92_2_cif.got.tgz:3125.got - 2010.06.03 19:35:17.
