data_PCOD9549783
_publ_section_title
;
Structure prediction by ZEFSAII (Michael W. Deem and Ramdas Pophale) SiO2 
 PCOD9549783
Probable space group: P 42 2 2
;
_chemical_formula_sum "Si O2"
_cell_formula_units_Z 38
_cell_length_a 8.853180
_cell_length_b 8.853180
_cell_length_c 22.868763
_cell_angle_alpha 90.000000
_cell_angle_beta 90.000000
_cell_angle_gamma 90.000000
_cell_volume 1792.426113
_symmetry_space_group_name_H-M "P 42 2 2"
_symmetry_group_IT_number 93
_symmetry_cell_setting 'tetragonal'
loop_
_space_group_symop_operation_xyz
x,y,z
-y,x,1/2+z
-x,-y,z
y,-x,1/2+z
x,-y,-z
-x,y,-z
y,x,1/2-z
-y,-x,1/2-z
loop_
_atom_site_type_symbol
_atom_site_label
_atom_site_fract_x
_atom_site_fract_y
_atom_site_fract_z
Si Si1 0.091478 0.665522 0.231805
Si Si2 0.000000 0.500000 0.000000
Si Si3 0.460820 0.174542 0.934013
Si Si4 0.394666 0.369131 0.347149
Si Si5 0.795849 0.204152 0.750000
Si Si6 0.659252 0.177267 0.399969
O O1 0.260485 0.739516 0.250000
O O2 0.092483 0.683070 0.161495
O O3 0.000000 0.500000 0.243039
O O4 0.970404 0.770761 0.263234
O O5 0.915945 0.388025 0.044111
O O6 0.555407 0.268999 0.887251
O O7 0.288022 0.205474 0.917045
O O8 0.500000 0.000000 0.930008
O O9 0.500000 0.226681 0.000000
O O10 0.500000 0.500000 0.319261
O O11 0.313258 0.259927 0.301931
O O12 0.511752 0.278591 0.386613
#
# Coordination Sequence:
#
# PCOD9549783 Si02
#       6
#     8   2   8   8   4   8
#     4  12  28  46  69 104 144 189 240 297 369 443
#     4  12  20  40  70  94 136 180 228 308 346 448
#     4  10  23  41  66 100 135 179 233 295 357 429
#     4  10  22  38  65 100 133 177 233 296 352 431
#     4  12  24  42  66 100 137 182 229 290 363 430
#     4  11  23  42  69  99 136 182 239 292 367 432
#
# _framework density 21.200316999999998
#
# number of rings (size 3 to 8) (size 9 to 14) (size 15 to 20)
#    0.000    1.053    3.158    1.895    8.842    2.947 
#    0.000    0.000    0.000    1.263    0.000    0.000 
#    0.000    0.000    0.000    0.000    0.000    0.000 
#
# Total GULP energy -211680.233819 kJ/mol
# GULP energy per Si atom -5570.532469 kJ/mol
# Density = 2.115206 g / cm^3
# Si number density = 21.200317 Si / 1000 Ang^3
#
#
#
# Elastic Constant Matrix: (Units=GPa)
#
#
# Indices 1 2 3 4 5 6 
#
# 1 102.5765 26.8400 28.8761 0.0000 0.0000 0.0000
# 2 26.8400 102.5788 28.8771 0.0000 0.0000 0.0000
# 3 28.8761 28.8771 83.6322 0.0000 0.0000 0.0000
# 4 0.0000 0.0000 0.0000 -66.5056 0.0000 0.0000
# 5 0.0000 0.0000 0.0000 0.0000 -66.5623 0.0000
# 6 0.0000 0.0000 0.0000 0.0000 0.0000 35.1437
#
#
#
# Elastic Compliance Matrix: (Units=1/GPa)
#
#
# Indices 1 2 3 4 5 6 
#
# 1 0.011169 -0.002035 -0.003154 0.000000 0.000000 0.000000
# 2 -0.002035 0.011169 -0.003154 0.000000 0.000000 0.000000
# 3 -0.003154 -0.003154 0.014135 0.000000 0.000000 0.000000
# 4 0.000000 0.000000 0.000000 -0.015036 0.000000 0.000000
# 5 0.000000 0.000000 0.000000 0.000000 -0.015024 0.000000
# 6 0.000000 0.000000 0.000000 0.000000 0.000000 0.028455
#
#
# Mechanical properties :
#
#
# Convention : Reuss Voigt Hill
#
# Bulk Modulus (GPa) = 50.53532 50.88600 50.71066
# Shear Modulus (GPa) = 85.98669 -5.97188 40.00740
#
# Velocity S-wave (km/s) = 6.37552 -1.68018 4.34880
# Velocity P-wave (km/s) = 8.83658 4.50451 7.01340
#
# Compressibility (1/GPa) = 0.01978814
#
# Stress axis : x y z
#
# Youngs Moduli (GPa) = 89.53338 89.53495 70.74590
#
# Poissons Ratio (x) = 0.18216 0.22312
# Poissons Ratio (y) = 0.18216 0.22313
# Poissons Ratio (z) = 0.28238 0.28239
#
# Static dielectric constant tensor:
#      x y z
#    x 2.042340 0.000000 0.000000 
#    y 0.000000 2.042490 0.000000 
#    z 0.000000 0.000000 1.574010 
# 
# From -- ./inp_files/6769.got.cif
#   From: 2010.05.17/outbox.cif.g08.bks.cpg/sg93_4_cif.got.tgz:6769.got - 2010.06.03 19:38:44.
