data_PCOD9549392
_publ_section_title
;
Structure prediction by ZEFSAII (Michael W. Deem and Ramdas Pophale) SiO2 
 PCOD9549392
Probable space group: P 41 21 2
;
_chemical_formula_sum "Si O2"
_cell_formula_units_Z 24
_cell_length_a 11.471798
_cell_length_b 11.471798
_cell_length_c 6.772380
_cell_angle_alpha 90.000000
_cell_angle_beta 90.000000
_cell_angle_gamma 90.000000
_cell_volume 891.259764
_symmetry_space_group_name_H-M "P 41 21 2"
_symmetry_group_IT_number 92
_symmetry_cell_setting 'tetragonal'
loop_
_space_group_symop_operation_xyz
x,y,z
1/2-y,1/2+x,1/4+z
-x,-y,1/2+z
1/2+y,1/2-x,3/4+z
1/2+x,1/2-y,3/4-z
1/2-x,1/2+y,1/4-z
y,x,-z
-y,-x,1/2-z
loop_
_atom_site_type_symbol
_atom_site_label
_atom_site_fract_x
_atom_site_fract_y
_atom_site_fract_z
Si Si1 0.540217 0.289654 0.769608
Si Si2 0.335412 0.004083 0.624935
Si Si3 0.789946 0.231738 0.485750
O O1 0.574569 0.425432 0.750000
O O2 0.566431 0.228499 0.556667
O O3 0.403015 0.267182 0.805104
O O4 0.644041 0.240396 0.908820
O O5 0.422427 0.915246 0.733108
O O6 0.238480 0.931339 0.512185
O O7 0.760711 0.239290 0.250000
#
# Coordination Sequence:
#
# PCOD9549392 Si02
#       3
#     8   8   8
#     4  11  23  46  74 109 154 205 265 331 409 485
#     4  11  23  44  72 108 154 211 269 329 403 492
#     4  10  24  46  75 115 160 208 267 336 407 487
#
# _framework density 26.928176000000001
#
# number of rings (size 3 to 8) (size 9 to 14) (size 15 to 20)
#    0.000    1.333    0.000    6.000    0.000    2.667 
#    0.000   33.333    0.000    0.000    0.000    0.000 
#    0.000    0.000    0.000    0.000    0.000    0.000 
#
# Total GULP energy -133905.653147 kJ/mol
# GULP energy per Si atom -5579.402214 kJ/mol
# Density = 2.686689 g / cm^3
# Si number density = 26.928176 Si / 1000 Ang^3
#
#
#
# Elastic Constant Matrix: (Units=GPa)
#
#
# Indices 1 2 3 4 5 6 
#
# 1 73.9819 168.2833 62.8254 0.0000 0.0000 0.0000
# 2 168.2833 73.9794 62.8248 0.0000 0.0000 0.0000
# 3 62.8254 62.8248 163.5521 0.0000 0.0000 0.0000
# 4 0.0000 0.0000 0.0000 12.0580 0.0000 0.0000
# 5 0.0000 0.0000 0.0000 0.0000 12.0586 0.0000
# 6 0.0000 0.0000 0.0000 0.0000 0.0000 65.1683
#
#
#
# Elastic Compliance Matrix: (Units=1/GPa)
#
#
# Indices 1 2 3 4 5 6 
#
# 1 -0.002725 0.007879 -0.001980 0.000000 0.000000 0.000000
# 2 0.007879 -0.002725 -0.001980 0.000000 0.000000 0.000000
# 3 -0.001980 -0.001980 0.007635 0.000000 0.000000 0.000000
# 4 0.000000 0.000000 0.000000 0.082933 0.000000 0.000000
# 5 0.000000 0.000000 0.000000 0.000000 0.082928 0.000000
# 6 0.000000 0.000000 0.000000 0.000000 0.000000 0.015345
#
#
# Mechanical properties :
#
#
# Convention : Reuss Voigt Hill
#
# Bulk Modulus (GPa) = 99.75480 99.93114 99.84297
# Shear Modulus (GPa) = 27.94938 19.02897 23.48917
#
# Velocity S-wave (km/s) = 3.22518 2.66118 2.95666
# Velocity P-wave (km/s) = 7.14102 6.82886 6.98669
#
# Compressibility (1/GPa) = 0.01002458
#
# Stress axis : x y z
#
# Youngs Moduli (GPa) = -367.01554 -367.00036 130.96788
#
# Poissons Ratio (x) = 2.89175 0.25933
# Poissons Ratio (y) = 2.89187 0.25932
# Poissons Ratio (z) = -0.72672 -0.72668
#
# Static dielectric constant tensor:
#      x y z
#    x 2.390590 0.000000 0.000000 
#    y 0.000000 2.390590 0.000000 
#    z 0.000000 0.000000 2.267600 
# 
# From -- ./inp_files/981.got.cif
#   From: 2010.05.17/outbox.cif.g08.bks.cpg/sg92_1_cif.got.tgz:981.got - 2010.06.03 19:35:17.
