data_PCOD9549222
_publ_section_title
;
Structure prediction by ZEFSAII (Michael W. Deem and Ramdas Pophale) SiO2 
 PCOD9549222
Probable space group: P 41 21 2
;
_chemical_formula_sum "Si O2"
_cell_formula_units_Z 60
_cell_length_a 14.178056
_cell_length_b 14.178056
_cell_length_c 15.919725
_cell_angle_alpha 90.000000
_cell_angle_beta 90.000000
_cell_angle_gamma 90.000000
_cell_volume 3200.139690
_symmetry_space_group_name_H-M "P 41 21 2"
_symmetry_group_IT_number 92
_symmetry_cell_setting 'tetragonal'
loop_
_space_group_symop_operation_xyz
x,y,z
1/2-y,1/2+x,1/4+z
-x,-y,1/2+z
1/2+y,1/2-x,3/4+z
1/2+x,1/2-y,3/4-z
1/2-x,1/2+y,1/4-z
y,x,-z
-y,-x,1/2-z
loop_
_atom_site_type_symbol
_atom_site_label
_atom_site_fract_x
_atom_site_fract_y
_atom_site_fract_z
Si Si1 0.806663 0.080539 0.593376
Si Si2 0.149367 0.575784 0.191641
Si Si3 0.307278 0.582882 0.814104
Si Si4 0.095954 0.835860 0.944303
Si Si5 0.974998 0.464504 0.530494
Si Si6 0.722129 0.722129 0.500000
Si Si7 0.488364 0.508580 0.900790
Si Si8 0.360545 0.895184 0.630816
O O1 0.820738 0.143946 0.509937
O O2 0.791949 0.146379 0.674936
O O3 0.904927 0.025441 0.611334
O O4 0.724535 0.006155 0.576067
O O5 0.083161 0.577386 0.108940
O O6 0.201441 0.673889 0.212588
O O7 0.073501 0.551035 0.264441
O O8 0.333515 0.666486 0.750000
O O9 0.306783 0.490967 0.754918
O O10 0.391807 0.564434 0.879047
O O11 0.210736 0.601632 0.860331
O O12 0.108152 0.751421 0.878628
O O13 0.068324 0.931800 0.896626
O O14 0.942887 0.402845 0.451977
O O15 0.086766 0.451604 0.545160
O O16 0.502853 0.502853 0.000000
#
# Coordination Sequence:
#
# PCOD9549222 Si02
#       8
#     8   8   8   8   8   4   8   8
#     4  11  23  43  64  96 134 166 221 270 325 396
#     4  11  24  42  61  99 131 170 213 278 332 387
#     4   9  20  38  60  88 121 161 216 254 308 379
#     4  10  22  41  60  95 127 169 208 263 326 381
#     4  10  23  39  65  90 127 167 215 266 323 383
#     4  12  24  40  72  98 126 180 226 268 342 408
#     4  10  22  39  64  91 125 168 212 267 319 389
#     4  11  20  40  66  87 121 167 211 262 312 383
#
# _framework density 18.749182000000001
#
# number of rings (size 3 to 8) (size 9 to 14) (size 15 to 20)
#    0.000    1.600    3.333    2.000    9.333    0.533 
#    4.800    2.667    0.000    0.000    0.000    0.000 
#    0.000    0.000    0.000    0.000    0.000    0.000 
#
# Total GULP energy -334698.825383 kJ/mol
# GULP energy per Si atom -5578.313756 kJ/mol
# Density = 1.870651 g / cm^3
# Si number density = 18.749182 Si / 1000 Ang^3
#
#
#
# Elastic Constant Matrix: (Units=GPa)
#
#
# Indices 1 2 3 4 5 6 
#
# 1 71.4646 55.7228 34.2129 0.0000 0.0000 0.0000
# 2 55.7228 71.4628 34.2125 0.0000 0.0000 0.0000
# 3 34.2129 34.2125 83.6618 0.0000 0.0000 0.0000
# 4 0.0000 0.0000 0.0000 28.3711 0.0000 0.0000
# 5 0.0000 0.0000 0.0000 0.0000 28.3712 0.0000
# 6 0.0000 0.0000 0.0000 0.0000 0.0000 23.3223
#
#
#
# Elastic Compliance Matrix: (Units=1/GPa)
#
#
# Indices 1 2 3 4 5 6 
#
# 1 0.036804 -0.026724 -0.004122 0.000000 0.000000 0.000000
# 2 -0.026724 0.036805 -0.004122 0.000000 0.000000 0.000000
# 3 -0.004122 -0.004122 0.015324 0.000000 0.000000 0.000000
# 4 0.000000 0.000000 0.000000 0.035247 0.000000 0.000000
# 5 0.000000 0.000000 0.000000 0.000000 0.035247 0.000000
# 6 0.000000 0.000000 0.000000 0.000000 0.000000 0.042877
#
#
# Mechanical properties :
#
#
# Convention : Reuss Voigt Hill
#
# Bulk Modulus (GPa) = 52.64284 52.76506 52.70395
# Shear Modulus (GPa) = 17.94855 22.84233 20.39544
#
# Velocity S-wave (km/s) = 3.09738 3.49422 3.30177
# Velocity P-wave (km/s) = 6.39766 6.66957 6.53503
#
# Compressibility (1/GPa) = 0.01899594
#
# Stress axis : x y z
#
# Youngs Moduli (GPa) = 27.17098 27.17027 65.25568
#
# Poissons Ratio (x) = 0.72611 0.26899
# Poissons Ratio (y) = 0.72612 0.26900
# Poissons Ratio (z) = 0.11200 0.11200
#
# Static dielectric constant tensor:
#      x y z
#    x 1.661190 0.000000 0.000000 
#    y 0.000000 1.661190 0.000000 
#    z 0.000000 0.000000 1.659220 
# 
# From -- ./inp_files/2814.got.cif
#   From: 2010.05.17/outbox.cif.g08.bks.cpg/sg92_2_cif.got.tgz:2814.got - 2010.06.03 19:35:17.
