data_PCOD9549078
_publ_section_title
;
Structure prediction by ZEFSAII (Michael W. Deem and Ramdas Pophale) SiO2 
 PCOD9549078
Probable space group: P 41 21 2
;
_chemical_formula_sum "Si O2"
_cell_formula_units_Z 60
_cell_length_a 11.326515
_cell_length_b 11.326515
_cell_length_c 20.569156
_cell_angle_alpha 90.000000
_cell_angle_beta 90.000000
_cell_angle_gamma 90.000000
_cell_volume 2638.815831
_symmetry_space_group_name_H-M "P 41 21 2"
_symmetry_group_IT_number 92
_symmetry_cell_setting 'tetragonal'
loop_
_space_group_symop_operation_xyz
x,y,z
1/2-y,1/2+x,1/4+z
-x,-y,1/2+z
1/2+y,1/2-x,3/4+z
1/2+x,1/2-y,3/4-z
1/2-x,1/2+y,1/4-z
y,x,-z
-y,-x,1/2-z
loop_
_atom_site_type_symbol
_atom_site_label
_atom_site_fract_x
_atom_site_fract_y
_atom_site_fract_z
Si Si1 0.374744 0.137241 0.445398
Si Si2 0.652138 0.556911 0.136966
Si Si3 0.576934 0.310702 0.904492
Si Si4 0.451654 0.073375 0.933763
Si Si5 0.494877 0.761845 0.074567
Si Si6 0.512091 0.601412 0.570547
Si Si7 0.382457 0.617544 0.750000
Si Si8 0.346566 0.184003 0.044502
O O1 0.407532 0.216860 0.383385
O O2 0.431748 0.195322 0.511600
O O3 0.235332 0.125145 0.455908
O O4 0.440141 0.014541 0.435577
O O5 0.575268 0.671324 0.116994
O O6 0.614109 0.448020 0.089713
O O7 0.630519 0.501384 0.207600
O O8 0.503644 0.205519 0.936726
O O9 0.678378 0.382538 0.942675
O O10 0.475250 0.401938 0.882530
O O11 0.644373 0.245267 0.847818
O O12 0.367612 0.046381 0.872372
O O13 0.381458 0.071121 0.001663
O O14 0.549114 0.549114 0.500000
O O15 0.545910 0.737917 0.573175
O O16 0.274709 0.274709 0.000000
#
# Coordination Sequence:
#
# PCOD9549078 Si02
#       8
#     8   8   8   8   8   8   4   8
#     4  12  26  49  72 100 150 189 241 305 368 447
#     4  11  25  46  77  98 137 190 239 299 361 436
#     4  11  21  38  69 100 135 186 234 284 364 417
#     4  12  25  42  68 109 141 188 238 300 356 435
#     4  11  23  47  73 104 147 194 240 297 378 434
#     4  10  20  41  69  99 133 181 231 275 358 428
#     4  12  28  52  72 114 138 188 260 302 362 454
#     4  11  21  39  61  98 147 169 224 297 335 418
#
# _framework density 22.737470999999999
#
# number of rings (size 3 to 8) (size 9 to 14) (size 15 to 20)
#    0.000    0.800    5.333    3.200    1.867    2.133 
#    2.400    0.000    0.000    0.000    0.000    0.000 
#    0.000    0.000    0.000    0.000    0.000    0.000 
#
# Total GULP energy -335086.030753 kJ/mol
# GULP energy per Si atom -5584.767179 kJ/mol
# Density = 2.268572 g / cm^3
# Si number density = 22.737471 Si / 1000 Ang^3
#
#
#
# Elastic Constant Matrix: (Units=GPa)
#
#
# Indices 1 2 3 4 5 6 
#
# 1 89.8729 -6.7313 6.3929 0.0000 0.0000 0.0000
# 2 -6.7313 89.8878 6.3980 0.0000 0.0000 0.0000
# 3 6.3929 6.3980 42.6792 0.0000 0.0000 0.0000
# 4 0.0000 0.0000 0.0000 25.8400 0.0000 0.0000
# 5 0.0000 0.0000 0.0000 0.0000 25.8403 0.0000
# 6 0.0000 0.0000 0.0000 0.0000 0.0000 36.7830
#
#
#
# Elastic Compliance Matrix: (Units=1/GPa)
#
#
# Indices 1 2 3 4 5 6 
#
# 1 0.011331 0.000980 -0.001844 0.000000 0.000000 0.000000
# 2 0.000980 0.011330 -0.001845 0.000000 0.000000 0.000000
# 3 -0.001844 -0.001845 0.023983 0.000000 0.000000 0.000000
# 4 0.000000 0.000000 0.000000 0.038700 0.000000 0.000000
# 5 0.000000 0.000000 0.000000 0.000000 0.038699 0.000000
# 6 0.000000 0.000000 0.000000 0.000000 0.000000 0.027186
#
#
# Mechanical properties :
#
#
# Convention : Reuss Voigt Hill
#
# Bulk Modulus (GPa) = 24.25689 26.06213 25.15951
# Shear Modulus (GPa) = 29.34426 32.11800 30.73113
#
# Velocity S-wave (km/s) = 3.59635 3.76248 3.68035
# Velocity P-wave (km/s) = 5.28548 5.51018 5.39900
#
# Compressibility (1/GPa) = 0.04122540
#
# Stress axis : x y z
#
# Youngs Moduli (GPa) = 88.25035 88.26364 41.69534
#
# Poissons Ratio (x) = -0.08648 0.07690
# Poissons Ratio (y) = -0.08647 0.07694
# Poissons Ratio (z) = 0.16275 0.16286
#
# Static dielectric constant tensor:
#      x y z
#    x 1.916460 0.000000 0.000000 
#    y 0.000000 1.916460 0.000000 
#    z 0.000000 0.000000 2.004470 
# 
# From -- ./inp_files/3612.got.cif
#   From: 2010.05.17/outbox.cif.g08.bks.cpg/sg92_2_cif.got.tgz:3612.got - 2010.06.03 19:35:17.
