data_PCOD9549835
_publ_section_title
;
Structure prediction by ZEFSAII (Michael W. Deem and Ramdas Pophale) SiO2 
 PCOD9549835
Probable space group: P 42 2 2
;
_chemical_formula_sum "Si O2"
_cell_formula_units_Z 40
_cell_length_a 11.413625
_cell_length_b 11.413625
_cell_length_c 13.587939
_cell_angle_alpha 90.000000
_cell_angle_beta 90.000000
_cell_angle_gamma 90.000000
_cell_volume 1770.112168
_symmetry_space_group_name_H-M "P 42 2 2"
_symmetry_group_IT_number 93
_symmetry_cell_setting 'tetragonal'
loop_
_space_group_symop_operation_xyz
x,y,z
-y,x,1/2+z
-x,-y,z
y,-x,1/2+z
x,-y,-z
-x,y,-z
y,x,1/2-z
-y,-x,1/2-z
loop_
_atom_site_type_symbol
_atom_site_label
_atom_site_fract_x
_atom_site_fract_y
_atom_site_fract_z
Si Si1 0.195187 0.603641 0.735112
Si Si2 0.815560 0.094214 0.416488
Si Si3 0.984715 0.794676 0.291920
Si Si4 0.793094 0.423835 0.093017
Si Si5 0.370639 0.460678 0.613080
O O1 0.296211 0.703789 0.750000
O O2 0.089545 0.678328 0.689849
O O3 0.160280 0.521538 0.828956
O O4 0.259137 0.517381 0.662174
O O5 0.690007 0.142992 0.452545
O O6 0.931013 0.167443 0.381791
O O7 0.850352 0.000000 0.500000
O O8 0.772449 0.054638 0.308153
O O9 0.898707 0.898707 0.250000
O O10 0.675933 0.368143 0.135448
O O11 0.754881 0.500000 0.000000
O O12 0.500000 0.500000 0.646852
O O13 0.365325 0.500000 0.500000
#
# Coordination Sequence:
#
# PCOD9549835 Si02
#       5
#     8   8   8   8   8
#     4  11  22  39  71 102 141 188 232 297 364 428
#     4  11  25  46  71  99 138 193 244 300 366 425
#     4  10  25  47  68 102 138 180 252 301 354 440
#     4  12  24  40  68 106 143 188 241 296 361 442
#     4  11  21  40  64  99 143 184 233 282 356 450
#
# _framework density 22.597439000000001
#
# number of rings (size 3 to 8) (size 9 to 14) (size 15 to 20)
#    0.000    1.000    4.000    3.000    5.600    6.000 
#    0.000    0.000    0.000    1.200    0.000    0.000 
#    0.000    0.000    0.000    0.000    0.000    0.000 
#
# Total GULP energy -222818.587959 kJ/mol
# GULP energy per Si atom -5570.464699 kJ/mol
# Density = 2.254601 g / cm^3
# Si number density = 22.597439 Si / 1000 Ang^3
#
#
#
# Elastic Constant Matrix: (Units=GPa)
#
#
# Indices 1 2 3 4 5 6 
#
# 1 92.1105 74.2554 32.0875 0.0000 0.0000 0.0000
# 2 74.2554 92.1111 32.0879 0.0000 0.0000 0.0000
# 3 32.0875 32.0879 108.3498 0.0000 0.0000 0.0000
# 4 0.0000 0.0000 0.0000 83.7791 0.0000 0.0000
# 5 0.0000 0.0000 0.0000 0.0000 83.7785 0.0000
# 6 0.0000 0.0000 0.0000 0.0000 0.0000 44.4874
#
#
#
# Elastic Compliance Matrix: (Units=1/GPa)
#
#
# Indices 1 2 3 4 5 6 
#
# 1 0.031396 -0.024610 -0.002010 0.000000 0.000000 0.000000
# 2 -0.024610 0.031396 -0.002010 0.000000 0.000000 0.000000
# 3 -0.002010 -0.002010 0.010420 0.000000 0.000000 0.000000
# 4 0.000000 0.000000 0.000000 0.011936 0.000000 0.000000
# 5 0.000000 0.000000 0.000000 0.000000 0.011936 0.000000
# 6 0.000000 0.000000 0.000000 0.000000 0.000000 0.022478
#
#
# Mechanical properties :
#
#
# Convention : Reuss Voigt Hill
#
# Bulk Modulus (GPa) = 62.68378 63.27032 62.97705
# Shear Modulus (GPa) = 27.45177 52.68505 40.06841
#
# Velocity S-wave (km/s) = 3.48920 4.83376 4.21543
# Velocity P-wave (km/s) = 6.63568 7.69502 7.18490
#
# Compressibility (1/GPa) = 0.01595309
#
# Stress axis : x y z
#
# Youngs Moduli (GPa) = 31.85138 31.85152 95.97203
#
# Poissons Ratio (x) = 0.78386 0.19287
# Poissons Ratio (y) = 0.78385 0.19288
# Poissons Ratio (z) = 0.06401 0.06401
#
# Static dielectric constant tensor:
#      x y z
#    x 1.177520 0.000000 0.000000 
#    y 0.000000 1.177490 0.000000 
#    z 0.000000 0.000000 1.828070 
# 
# From -- ./inp_files/4330.got.cif
#   From: 2010.05.17/outbox.cif.g08.bks.cpg/sg93_3_cif.got.tgz:4330.got - 2010.06.03 19:38:44.
