data_PCOD9549299
_publ_section_title
;
Structure prediction by ZEFSAII (Michael W. Deem and Ramdas Pophale) SiO2 
 PCOD9549299
Probable space group: P 41 21 2
;
_chemical_formula_sum "Si O2"
_cell_formula_units_Z 48
_cell_length_a 11.344874
_cell_length_b 11.344874
_cell_length_c 17.174928
_cell_angle_alpha 90.000000
_cell_angle_beta 90.000000
_cell_angle_gamma 90.000000
_cell_volume 2210.519136
_symmetry_space_group_name_H-M "P 41 21 2"
_symmetry_group_IT_number 92
_symmetry_cell_setting 'tetragonal'
loop_
_space_group_symop_operation_xyz
x,y,z
1/2-y,1/2+x,1/4+z
-x,-y,1/2+z
1/2+y,1/2-x,3/4+z
1/2+x,1/2-y,3/4-z
1/2-x,1/2+y,1/4-z
y,x,-z
-y,-x,1/2-z
loop_
_atom_site_type_symbol
_atom_site_label
_atom_site_fract_x
_atom_site_fract_y
_atom_site_fract_z
Si Si1 0.422764 0.107796 0.939975
Si Si2 0.882105 0.480430 0.395696
Si Si3 0.056551 0.763473 0.844525
Si Si4 0.070487 0.124456 0.586311
Si Si5 0.990389 0.124157 0.827999
Si Si6 0.225998 0.987474 0.831662
O O1 0.446126 0.242745 0.914661
O O2 0.319411 0.039292 0.893614
O O3 0.539632 0.036592 0.920419
O O4 0.427266 0.110741 0.033345
O O5 0.926844 0.345401 0.402742
O O6 0.750452 0.462354 0.367974
O O7 0.935326 0.829486 0.861888
O O8 0.047260 0.724024 0.753967
O O9 0.155691 0.866591 0.854582
O O10 0.118742 0.118742 0.500000
O O11 0.951585 0.049800 0.597662
O O12 0.930597 0.069404 0.750000
O O13 0.128214 0.091171 0.820558
#
# Coordination Sequence:
#
# PCOD9549299 Si02
#       6
#     8   8   8   8   8   8
#     4  12  27  42  70 110 150 188 245 320 393 446
#     4  12  26  43  67 109 151 186 246 322 384 435
#     4  10  22  45  72  99 143 195 261 305 354 461
#     4  11  24  44  72 101 141 197 244 299 380 452
#     4  11  22  49  70 101 151 196 245 310 379 455
#     4  10  22  45  76 101 137 206 258 301 376 459
#
# _framework density 21.714354
#
# number of rings (size 3 to 8) (size 9 to 14) (size 15 to 20)
#    0.000    1.000    5.000    2.000    7.000    2.667 
#    6.000    0.833    0.000    0.000    0.000    0.000 
#    0.000    0.000    0.000    0.000    0.000    0.000 
#
# Total GULP energy -267849.061177 kJ/mol
# GULP energy per Si atom -5580.188775 kJ/mol
# Density = 2.166493 g / cm^3
# Si number density = 21.714354 Si / 1000 Ang^3
#
#
#
# Elastic Constant Matrix: (Units=GPa)
#
#
# Indices 1 2 3 4 5 6 
#
# 1 115.6085 -22.8738 44.3925 0.0000 0.0000 0.0000
# 2 -22.8738 115.6102 44.3925 0.0000 0.0000 0.0000
# 3 44.3925 44.3925 95.5940 0.0000 0.0000 0.0000
# 4 0.0000 0.0000 0.0000 46.3839 0.0000 0.0000
# 5 0.0000 0.0000 0.0000 0.0000 46.3834 0.0000
# 6 0.0000 0.0000 0.0000 0.0000 0.0000 12.7084
#
#
#
# Elastic Compliance Matrix: (Units=1/GPa)
#
#
# Indices 1 2 3 4 5 6 
#
# 1 0.013318 0.006097 -0.009016 0.000000 0.000000 0.000000
# 2 0.006097 0.013318 -0.009016 0.000000 0.000000 0.000000
# 3 -0.009016 -0.009016 0.018835 0.000000 0.000000 0.000000
# 4 0.000000 0.000000 0.000000 0.021559 0.000000 0.000000
# 5 0.000000 0.000000 0.000000 0.000000 0.021559 0.000000
# 6 0.000000 0.000000 0.000000 0.000000 0.000000 0.078688
#
#
# Mechanical properties :
#
#
# Convention : Reuss Voigt Hill
#
# Bulk Modulus (GPa) = 46.29442 50.95947 48.62694
# Shear Modulus (GPa) = 25.20805 38.48860 31.84832
#
# Velocity S-wave (km/s) = 3.41088 4.21467 3.83390
# Velocity P-wave (km/s) = 6.07274 6.87049 6.48390
#
# Compressibility (1/GPa) = 0.02160088
#
# Stress axis : x y z
#
# Youngs Moduli (GPa) = 75.08378 75.08514 53.09259
#
# Poissons Ratio (x) = -0.45781 0.47870
# Poissons Ratio (y) = -0.45780 0.47870
# Poissons Ratio (z) = 0.67698 0.67699
#
# Static dielectric constant tensor:
#      x y z
#    x 1.829620 0.000000 0.000000 
#    y 0.000000 1.829620 0.000000 
#    z 0.000000 0.000000 1.861300 
# 
# From -- ./inp_files/3147.got.cif
#   From: 2010.05.17/outbox.cif.g08.bks.cpg/sg92_2_cif.got.tgz:3147.got - 2010.06.03 19:35:17.
