data_PCOD9549230
_publ_section_title
;
Structure prediction by ZEFSAII (Michael W. Deem and Ramdas Pophale) SiO2 
 PCOD9549230
Probable space group: P 41 21 2
;
_chemical_formula_sum "Si O2"
_cell_formula_units_Z 40
_cell_length_a 8.658651
_cell_length_b 8.658651
_cell_length_c 22.139115
_cell_angle_alpha 90.000000
_cell_angle_beta 90.000000
_cell_angle_gamma 90.000000
_cell_volume 1659.818980
_symmetry_space_group_name_H-M "P 41 21 2"
_symmetry_group_IT_number 92
_symmetry_cell_setting 'tetragonal'
loop_
_space_group_symop_operation_xyz
x,y,z
1/2-y,1/2+x,1/4+z
-x,-y,1/2+z
1/2+y,1/2-x,3/4+z
1/2+x,1/2-y,3/4-z
1/2-x,1/2+y,1/4-z
y,x,-z
-y,-x,1/2-z
loop_
_atom_site_type_symbol
_atom_site_label
_atom_site_fract_x
_atom_site_fract_y
_atom_site_fract_z
Si Si1 0.183987 0.050284 0.270007
Si Si2 0.413741 0.464436 0.634236
Si Si3 0.963531 0.416334 0.639357
Si Si4 0.739162 0.330123 0.896562
Si Si5 0.232780 0.703950 0.814520
O O1 0.117138 0.882863 0.250000
O O2 0.354950 0.042579 0.299020
O O3 0.171485 0.168506 0.214323
O O4 0.065196 0.095686 0.322914
O O5 0.579965 0.389992 0.643332
O O6 0.321052 0.308308 0.618426
O O7 0.352891 0.589720 0.681242
O O8 0.896211 0.587957 0.643206
O O9 0.841500 0.278949 0.627580
O O10 0.073695 0.392079 0.581442
O O11 0.217662 0.782339 0.750000
#
# Coordination Sequence:
#
# PCOD9549230 Si02
#       5
#     8   8   8   8   8
#     4   9  20  40  64  93 130 171 221 279 340 409
#     4  10  22  40  62  93 131 174 228 283 341 413
#     4  11  24  42  66  97 133 176 226 280 347 420
#     4  11  22  43  68  95 136 178 224 286 349 416
#     4  11  23  41  64  96 134 175 227 284 342 408
#
# _framework density 24.099011999999998
#
# number of rings (size 3 to 8) (size 9 to 14) (size 15 to 20)
#    0.000    1.600    0.000    6.600    0.000    6.400 
#    0.000   14.000    0.000    0.000    0.000    0.000 
#    0.000    0.000    0.000    0.000    0.000    0.000 
#
# Total GULP energy -223168.904458 kJ/mol
# GULP energy per Si atom -5579.222611 kJ/mol
# Density = 2.404416 g / cm^3
# Si number density = 24.099012 Si / 1000 Ang^3
#
#
#
# Elastic Constant Matrix: (Units=GPa)
#
#
# Indices 1 2 3 4 5 6 
#
# 1 108.3034 31.1745 24.5637 0.0000 0.0000 0.0000
# 2 31.1745 108.3045 24.5640 0.0000 0.0000 0.0000
# 3 24.5637 24.5640 73.1303 0.0000 0.0000 0.0000
# 4 0.0000 0.0000 0.0000 28.9335 0.0000 0.0000
# 5 0.0000 0.0000 0.0000 0.0000 28.9333 0.0000
# 6 0.0000 0.0000 0.0000 0.0000 0.0000 48.7363
#
#
#
# Elastic Compliance Matrix: (Units=1/GPa)
#
#
# Indices 1 2 3 4 5 6 
#
# 1 0.010548 -0.002417 -0.002731 0.000000 0.000000 0.000000
# 2 -0.002417 0.010548 -0.002731 0.000000 0.000000 0.000000
# 3 -0.002731 -0.002731 0.015509 0.000000 0.000000 0.000000
# 4 0.000000 0.000000 0.000000 0.034562 0.000000 0.000000
# 5 0.000000 0.000000 0.000000 0.000000 0.034562 0.000000
# 6 0.000000 0.000000 0.000000 0.000000 0.000000 0.020519
#
#
# Mechanical properties :
#
#
# Convention : Reuss Voigt Hill
#
# Bulk Modulus (GPa) = 47.96860 50.03803 49.00331
# Shear Modulus (GPa) = 33.56679 35.28302 34.42490
#
# Velocity S-wave (km/s) = 3.73617 3.83049 3.78362
# Velocity P-wave (km/s) = 6.20966 6.35391 6.28220
#
# Compressibility (1/GPa) = 0.02084697
#
# Stress axis : x y z
#
# Youngs Moduli (GPa) = 94.80056 94.80141 64.47829
#
# Poissons Ratio (x) = 0.22912 0.17611
# Poissons Ratio (y) = 0.22911 0.17611
# Poissons Ratio (z) = 0.25893 0.25894
#
# Static dielectric constant tensor:
#      x y z
#    x 2.029960 0.000000 0.000000 
#    y 0.000000 2.029960 0.000000 
#    z 0.000000 0.000000 1.941770 
# 
# From -- ./inp_files/3777.got.cif
#   From: 2010.05.17/outbox.cif.g08.bks.cpg/sg92_2_cif.got.tgz:3777.got - 2010.06.03 19:35:17.
