data_PCOD9549634
_publ_section_title
;
Structure prediction by ZEFSAII (Michael W. Deem and Ramdas Pophale) SiO2 
 PCOD9549634
Probable space group: P 42 2 2
;
_chemical_formula_sum "Si O2"
_cell_formula_units_Z 32
_cell_length_a 8.599337
_cell_length_b 8.599337
_cell_length_c 20.659812
_cell_angle_alpha 90.000000
_cell_angle_beta 90.000000
_cell_angle_gamma 90.000000
_cell_volume 1527.764108
_symmetry_space_group_name_H-M "P 42 2 2"
_symmetry_group_IT_number 93
_symmetry_cell_setting 'tetragonal'
loop_
_space_group_symop_operation_xyz
x,y,z
-y,x,1/2+z
-x,-y,z
y,-x,1/2+z
x,-y,-z
-x,y,-z
y,x,1/2-z
-y,-x,1/2-z
loop_
_atom_site_type_symbol
_atom_site_label
_atom_site_fract_x
_atom_site_fract_y
_atom_site_fract_z
Si Si1 0.000000 0.000000 0.000000
Si Si2 0.000000 0.500000 0.697904
Si Si3 0.000000 0.500000 0.000000
Si Si4 0.759122 0.099549 0.595818
Si Si5 0.219678 0.224246 0.673777
Si Si6 0.257727 0.574932 0.799799
O O1 0.111025 0.900184 0.953544
O O2 0.897556 0.630833 0.660247
O O3 0.886938 0.418948 0.750180
O O4 0.908670 0.611065 0.048465
O O5 0.709776 0.227596 0.647878
O O6 0.790350 0.933899 0.632193
O O7 0.190100 0.190100 0.750000
O O8 0.402950 0.269045 0.670099
O O9 0.392123 0.607878 0.750000
#
# Coordination Sequence:
#
# PCOD9549634 Si02
#       6
#     2   4   2   8   8   8
#     4  10  28  30  58  92 124 166 224 280 330 386
#     4  10  21  36  56  96 124 165 194 268 338 404
#     4  10  18  38  68  82 126 180 224 262 312 414
#     4  11  20  40  57  95 125 170 222 280 332 408
#     4  10  19  37  61  90 127 164 208 269 346 404
#     4  11  21  36  64  93 128 164 211 270 346 406
#
# _framework density 20.945640999999998
#
# number of rings (size 3 to 8) (size 9 to 14) (size 15 to 20)
#    0.000    1.500    7.500    0.000    3.500    4.500 
#    0.000    0.000    0.000    0.750    0.000    7.000 
#    0.000    0.000    0.000    0.000    0.000    0.000 
#
# Total GULP energy -178232.182854 kJ/mol
# GULP energy per Si atom -5569.755714 kJ/mol
# Density = 2.089797 g / cm^3
# Si number density = 20.945641 Si / 1000 Ang^3
#
#
#
# Elastic Constant Matrix: (Units=GPa)
#
#
# Indices 1 2 3 4 5 6 
#
# 1 98.0056 50.6241 47.9402 0.0000 0.0000 0.0000
# 2 50.6241 98.0085 47.9405 0.0000 0.0000 0.0000
# 3 47.9402 47.9405 103.6428 0.0000 0.0000 0.0000
# 4 0.0000 0.0000 0.0000 -0.7014 0.0000 0.0000
# 5 0.0000 0.0000 0.0000 0.0000 -0.7019 0.0000
# 6 0.0000 0.0000 0.0000 0.0000 0.0000 30.8352
#
#
#
# Elastic Compliance Matrix: (Units=1/GPa)
#
#
# Indices 1 2 3 4 5 6 
#
# 1 0.015347 -0.005758 -0.004436 0.000000 0.000000 0.000000
# 2 -0.005758 0.015347 -0.004436 0.000000 0.000000 0.000000
# 3 -0.004436 -0.004436 0.013752 0.000000 0.000000 0.000000
# 4 0.000000 0.000000 0.000000 -1.425636 0.000000 0.000000
# 5 0.000000 0.000000 0.000000 0.000000 -1.424774 0.000000
# 6 0.000000 0.000000 0.000000 0.000000 0.000000 0.032430
#
#
# Mechanical properties :
#
#
# Convention : Reuss Voigt Hill
#
# Bulk Modulus (GPa) = 65.84003 65.85183 65.84593
# Shear Modulus (GPa) = -1.82534 16.09653 7.13559
#
# Velocity S-wave (km/s) = -0.93454 2.77517 1.84773
# Velocity P-wave (km/s) = 5.50795 6.46347 6.00475
#
# Compressibility (1/GPa) = 0.01518833
#
# Stress axis : x y z
#
# Youngs Moduli (GPa) = 65.15804 65.16024 72.71691
#
# Poissons Ratio (x) = 0.37517 0.32255
# Poissons Ratio (y) = 0.37515 0.32254
# Poissons Ratio (z) = 0.28902 0.28902
#
# Static dielectric constant tensor:
#      x y z
#    x 1.953500 0.000000 0.000000 
#    y 0.000000 1.953530 0.000000 
#    z 0.000000 0.000000 1.740840 
# 
# From -- ./inp_files/6636.got.cif
#   From: 2010.05.17/outbox.cif.g08.bks.cpg/sg93_4_cif.got.tgz:6636.got - 2010.06.03 19:38:44.
