data_PCOD9549143
_publ_section_title
;
Structure prediction by ZEFSAII (Michael W. Deem and Ramdas Pophale) SiO2 
 PCOD9549143
Probable space group: P 41 21 2
;
_chemical_formula_sum "Si O2"
_cell_formula_units_Z 60
_cell_length_a 12.236976
_cell_length_b 12.236976
_cell_length_c 20.149948
_cell_angle_alpha 90.000000
_cell_angle_beta 90.000000
_cell_angle_gamma 90.000000
_cell_volume 3017.325383
_symmetry_space_group_name_H-M "P 41 21 2"
_symmetry_group_IT_number 92
_symmetry_cell_setting 'tetragonal'
loop_
_space_group_symop_operation_xyz
x,y,z
1/2-y,1/2+x,1/4+z
-x,-y,1/2+z
1/2+y,1/2-x,3/4+z
1/2+x,1/2-y,3/4-z
1/2-x,1/2+y,1/4-z
y,x,-z
-y,-x,1/2-z
loop_
_atom_site_type_symbol
_atom_site_label
_atom_site_fract_x
_atom_site_fract_y
_atom_site_fract_z
Si Si1 0.536404 0.958219 0.880717
Si Si2 0.824846 0.327202 0.632482
Si Si3 0.645742 0.018525 0.274018
Si Si4 0.613843 0.547375 0.427474
Si Si5 0.764334 0.235667 0.250000
Si Si6 0.144391 0.021191 0.056646
Si Si7 0.194035 0.726855 0.484429
Si Si8 0.241597 0.167066 0.358956
O O1 0.432616 0.945260 0.833702
O O2 0.636591 0.883131 0.855861
O O3 0.581796 0.081418 0.875813
O O4 0.512153 0.925328 0.956333
O O5 0.876161 0.221951 0.669388
O O6 0.723409 0.381042 0.670029
O O7 0.789037 0.282713 0.560660
O O8 0.737773 0.108952 0.261299
O O9 0.690929 0.898710 0.287754
O O10 0.564322 0.564322 0.500000
O O11 0.529109 0.583032 0.370489
O O12 0.656931 0.425256 0.414381
O O13 0.699810 0.275446 0.185099
O O14 0.218426 0.922840 0.028113
O O15 0.063403 0.063403 0.000000
O O16 0.230727 0.733044 0.560350
#
# Coordination Sequence:
#
# PCOD9549143 Si02
#       8
#     8   8   8   8   4   8   8   8
#     4  10  21  40  68  92 121 172 218 260 322 401
#     4  10  21  41  64  94 127 167 216 272 333 406
#     4  11  22  41  65  95 126 167 218 265 325 386
#     4  10  22  41  65  93 125 170 217 268 339 402
#     4  10  24  42  62  94 128 172 222 266 322 394
#     4  11  24  42  64 100 131 168 215 278 342 393
#     4  11  23  42  66  96 132 170 215 277 334 393
#     4  10  22  42  64  90 128 172 215 264 324 399
#
# _framework density 19.885161
#
# number of rings (size 3 to 8) (size 9 to 14) (size 15 to 20)
#    0.000    1.600    1.333    2.800    0.933    4.267 
#    8.400    0.000    0.000    0.000    0.000    0.000 
#    0.000    0.000    0.000    0.000    0.000    0.000 
#
# Total GULP energy -335486.255356 kJ/mol
# GULP energy per Si atom -5591.437589 kJ/mol
# Density = 1.983990 g / cm^3
# Si number density = 19.885161 Si / 1000 Ang^3
#
#
#
# Elastic Constant Matrix: (Units=GPa)
#
#
# Indices 1 2 3 4 5 6 
#
# 1 62.1704 34.6414 43.7210 0.0000 0.0000 0.0000
# 2 34.6414 62.1699 43.7208 0.0000 0.0000 0.0000
# 3 43.7210 43.7208 125.3222 0.0000 0.0000 0.0000
# 4 0.0000 0.0000 0.0000 24.1129 0.0000 0.0000
# 5 0.0000 0.0000 0.0000 0.0000 24.1130 0.0000
# 6 0.0000 0.0000 0.0000 0.0000 0.0000 22.2860
#
#
#
# Elastic Compliance Matrix: (Units=1/GPa)
#
#
# Indices 1 2 3 4 5 6 
#
# 1 0.025704 -0.010622 -0.005261 0.000000 0.000000 0.000000
# 2 -0.010622 0.025704 -0.005261 0.000000 0.000000 0.000000
# 3 -0.005261 -0.005261 0.011651 0.000000 0.000000 0.000000
# 4 0.000000 0.000000 0.000000 0.041472 0.000000 0.000000
# 5 0.000000 0.000000 0.000000 0.000000 0.041471 0.000000
# 6 0.000000 0.000000 0.000000 0.000000 0.000000 0.044871
#
#
# Mechanical properties :
#
#
# Convention : Reuss Voigt Hill
#
# Bulk Modulus (GPa) = 48.15145 54.86989 51.51067
# Shear Modulus (GPa) = 20.82598 22.60765 21.71682
#
# Velocity S-wave (km/s) = 3.23973 3.37547 3.30830
# Velocity P-wave (km/s) = 6.18561 6.54561 6.36816
#
# Compressibility (1/GPa) = 0.02076781
#
# Stress axis : x y z
#
# Youngs Moduli (GPa) = 38.90516 38.90490 85.83276
#
# Poissons Ratio (x) = 0.41325 0.45161
# Poissons Ratio (y) = 0.41325 0.45161
# Poissons Ratio (z) = 0.20470 0.20470
#
# Static dielectric constant tensor:
#      x y z
#    x 1.679430 0.000000 0.000000 
#    y 0.000000 1.679440 0.000000 
#    z 0.000000 0.000000 1.673460 
# 
# From -- ./inp_files/3616.got.cif
#   From: 2010.05.17/outbox.cif.g08.bks.cpg/sg92_2_cif.got.tgz:3616.got - 2010.06.03 19:35:17.
