data_PCOD9549124
_publ_section_title
;
Structure prediction by ZEFSAII (Michael W. Deem and Ramdas Pophale) SiO2 
 PCOD9549124
Probable space group: P 41 21 2
;
_chemical_formula_sum "Si O2"
_cell_formula_units_Z 44
_cell_length_a 8.486673
_cell_length_b 8.486673
_cell_length_c 25.858403
_cell_angle_alpha 90.000000
_cell_angle_beta 90.000000
_cell_angle_gamma 90.000000
_cell_volume 1862.415756
_symmetry_space_group_name_H-M "P 41 21 2"
_symmetry_group_IT_number 92
_symmetry_cell_setting 'tetragonal'
loop_
_space_group_symop_operation_xyz
x,y,z
1/2-y,1/2+x,1/4+z
-x,-y,1/2+z
1/2+y,1/2-x,3/4+z
1/2+x,1/2-y,3/4-z
1/2-x,1/2+y,1/4-z
y,x,-z
-y,-x,1/2-z
loop_
_atom_site_type_symbol
_atom_site_label
_atom_site_fract_x
_atom_site_fract_y
_atom_site_fract_z
Si Si1 0.358026 0.748140 0.307961
Si Si2 0.674070 0.325931 0.250000
Si Si3 0.540866 0.318251 0.031936
Si Si4 0.248454 0.924486 0.659798
Si Si5 0.692090 0.041183 0.407548
Si Si6 0.810651 0.165705 0.511427
O O1 0.309245 0.690756 0.250000
O O2 0.309883 0.930503 0.310002
O O3 0.254346 0.637176 0.345432
O O4 0.544254 0.704514 0.308931
O O5 0.682873 0.512734 0.239582
O O6 0.799444 0.290556 0.295146
O O7 0.635103 0.434433 0.070127
O O8 0.656783 0.248044 0.988257
O O9 0.425957 0.425957 0.000000
O O10 0.402863 0.019318 0.640300
O O11 0.152262 0.821603 0.619150
O O12 0.698763 0.086971 0.468103
#
# Coordination Sequence:
#
# PCOD9549124 Si02
#       6
#     8   4   8   8   8   8
#     4   9  19  39  63  89 124 164 209 257 318 383
#     4  12  22  38  64  98 118 176 222 270 312 394
#     4  10  22  38  61  93 129 164 211 264 318 384
#     4  11  24  39  63  94 133 165 218 269 318 392
#     4  10  21  42  62  93 129 171 214 269 321 383
#     4  10  21  38  66  91 122 168 218 261 315 385
#
# _framework density 23.625228
#
# number of rings (size 3 to 8) (size 9 to 14) (size 15 to 20)
#    0.000    1.818    3.636    1.091   10.182    0.000 
#    0.000    7.273    0.000    0.000    0.000    0.000 
#    0.000    0.000    0.000    0.000    0.000    0.000 
#
# Total GULP energy -245296.540110 kJ/mol
# GULP energy per Si atom -5574.921366 kJ/mol
# Density = 2.357146 g / cm^3
# Si number density = 23.625228 Si / 1000 Ang^3
#
#
#
# Elastic Constant Matrix: (Units=GPa)
#
#
# Indices 1 2 3 4 5 6 
#
# 1 112.8035 109.9113 22.2836 0.0000 0.0000 0.0000
# 2 109.9113 112.8036 22.2836 0.0000 0.0000 0.0000
# 3 22.2836 22.2836 29.4277 0.0000 0.0000 0.0000
# 4 0.0000 0.0000 0.0000 -34.7177 0.0000 0.0000
# 5 0.0000 0.0000 0.0000 0.0000 -34.7186 0.0000
# 6 0.0000 0.0000 0.0000 0.0000 0.0000 47.1085
#
#
#
# Elastic Compliance Matrix: (Units=1/GPa)
#
#
# Indices 1 2 3 4 5 6 
#
# 1 0.175519 -0.170227 -0.004007 0.000000 0.000000 0.000000
# 2 -0.170227 0.175519 -0.004007 0.000000 0.000000 0.000000
# 3 -0.004007 -0.004007 0.040050 0.000000 0.000000 0.000000
# 4 0.000000 0.000000 0.000000 -0.028804 0.000000 0.000000
# 5 0.000000 0.000000 0.000000 0.000000 -0.028803 0.000000
# 6 0.000000 0.000000 0.000000 0.000000 0.000000 0.021228
#
#
# Mechanical properties :
#
#
# Convention : Reuss Voigt Hill
#
# Bulk Modulus (GPa) = 28.89722 62.66575 45.78149
# Shear Modulus (GPa) = 6.91824 2.23821 4.57823
#
# Velocity S-wave (km/s) = 1.71309 0.97439 1.39358
# Velocity P-wave (km/s) = 4.02131 5.27716 4.69145
#
# Compressibility (1/GPa) = 0.03460540
#
# Stress axis : x y z
#
# Youngs Moduli (GPa) = 5.69738 5.69739 24.96851
#
# Poissons Ratio (x) = 0.96985 0.10006
# Poissons Ratio (y) = 0.96985 0.10005
# Poissons Ratio (z) = 0.02283 0.02283
#
# Static dielectric constant tensor:
#      x y z
#    x 1.997410 0.000000 0.000000 
#    y 0.000000 1.997410 0.000000 
#    z 0.000000 0.000000 1.873120 
# 
# From -- ./inp_files/4390.got.cif
#   From: 2010.05.17/outbox.cif.g08.bks.cpg/sg92_3_cif.got.tgz:4390.got - 2010.06.03 19:35:17.
