data_PCOD9549292
_publ_section_title
;
Structure prediction by ZEFSAII (Michael W. Deem and Ramdas Pophale) SiO2 
 PCOD9549292
Probable space group: P 41 21 2
;
_chemical_formula_sum "Si O2"
_cell_formula_units_Z 28
_cell_length_a 9.725023
_cell_length_b 9.725023
_cell_length_c 10.139611
_cell_angle_alpha 90.000000
_cell_angle_beta 90.000000
_cell_angle_gamma 90.000000
_cell_volume 958.964584
_symmetry_space_group_name_H-M "P 41 21 2"
_symmetry_group_IT_number 92
_symmetry_cell_setting 'tetragonal'
loop_
_space_group_symop_operation_xyz
x,y,z
1/2-y,1/2+x,1/4+z
-x,-y,1/2+z
1/2+y,1/2-x,3/4+z
1/2+x,1/2-y,3/4-z
1/2-x,1/2+y,1/4-z
y,x,-z
-y,-x,1/2-z
loop_
_atom_site_type_symbol
_atom_site_label
_atom_site_fract_x
_atom_site_fract_y
_atom_site_fract_z
Si Si1 0.703246 0.392232 0.426982
Si Si2 0.836577 0.082664 0.068625
Si Si3 0.850373 0.850373 0.500000
Si Si4 0.385459 0.940609 0.143897
O O1 0.544238 0.351725 0.419372
O O2 0.715986 0.509475 0.315580
O O3 0.674258 0.212139 0.655402
O O4 0.760608 0.456215 0.562763
O O5 0.730970 0.197553 0.110831
O O6 0.983993 0.145436 0.038251
O O7 0.501676 0.946502 0.258566
#
# Coordination Sequence:
#
# PCOD9549292 Si02
#       4
#     8   8   4   8
#     4  10  22  44  70 107 158 204 277 324 412 488
#     4  10  24  46  69 112 160 212 268 348 415 491
#     4  10  28  48  80 116 160 212 280 340 418 482
#     4  12  28  50  84 119 167 217 276 341 415 496
#
# _framework density 29.198160999999999
#
# number of rings (size 3 to 8) (size 9 to 14) (size 15 to 20)
#    0.000    1.714    2.857    0.000   12.000    0.000 
#   10.286    0.000    0.000    0.000    0.000    0.000 
#    0.000    0.000    0.000    0.000    0.000    0.000 
#
# Total GULP energy -157011.027467 kJ/mol
# GULP energy per Si atom -5607.536695 kJ/mol
# Density = 2.913171 g / cm^3
# Si number density = 29.198161 Si / 1000 Ang^3
#
#
#
# Elastic Constant Matrix: (Units=GPa)
#
#
# Indices 1 2 3 4 5 6 
#
# 1 249.1399 122.6633 47.9349 0.0000 0.0000 0.0000
# 2 122.6633 249.1399 47.9349 0.0000 0.0000 0.0000
# 3 47.9349 47.9349 156.1771 0.0000 0.0000 0.0000
# 4 0.0000 0.0000 0.0000 48.3536 0.0000 0.0000
# 5 0.0000 0.0000 0.0000 0.0000 48.3536 0.0000
# 6 0.0000 0.0000 0.0000 0.0000 0.0000 84.8581
#
#
#
# Elastic Compliance Matrix: (Units=1/GPa)
#
#
# Indices 1 2 3 4 5 6 
#
# 1 0.005414 -0.002493 -0.000896 0.000000 0.000000 0.000000
# 2 -0.002493 0.005414 -0.000896 0.000000 0.000000 0.000000
# 3 -0.000896 -0.000896 0.006953 0.000000 0.000000 0.000000
# 4 0.000000 0.000000 0.000000 0.020681 0.000000 0.000000
# 5 0.000000 0.000000 0.000000 0.000000 0.020681 0.000000
# 6 0.000000 0.000000 0.000000 0.000000 0.000000 0.011784
#
#
# Mechanical properties :
#
#
# Convention : Reuss Voigt Hill
#
# Bulk Modulus (GPa) = 108.58998 121.28035 114.93517
# Shear Modulus (GPa) = 60.55595 65.37466 62.96530
#
# Velocity S-wave (km/s) = 4.55902 4.73694 4.64883
# Velocity P-wave (km/s) = 8.06129 8.45844 8.26225
#
# Compressibility (1/GPa) = 0.00920895
#
# Stress axis : x y z
#
# Youngs Moduli (GPa) = 184.71745 184.71745 143.81702
#
# Poissons Ratio (x) = 0.46049 0.12893
# Poissons Ratio (y) = 0.46049 0.12893
# Poissons Ratio (z) = 0.16559 0.16559
#
# Static dielectric constant tensor:
#      x y z
#    x 2.025260 0.000000 0.000000 
#    y 0.000000 2.025260 0.000000 
#    z 0.000000 0.000000 2.030870 
# 
# From -- ./inp_files/1884.got.cif
#   From: 2010.05.17/outbox.cif.g08.bks.cpg/sg92_1_cif.got.tgz:1884.got - 2010.06.03 19:35:17.
