data_PCOD9549228
_publ_section_title
;
Structure prediction by ZEFSAII (Michael W. Deem and Ramdas Pophale) SiO2 
 PCOD9549228
Probable space group: P 41 21 2
;
_chemical_formula_sum "Si O2"
_cell_formula_units_Z 40
_cell_length_a 13.853746
_cell_length_b 13.853746
_cell_length_c 9.738962
_cell_angle_alpha 90.000000
_cell_angle_beta 90.000000
_cell_angle_gamma 90.000000
_cell_volume 1869.162731
_symmetry_space_group_name_H-M "P 41 21 2"
_symmetry_group_IT_number 92
_symmetry_cell_setting 'tetragonal'
loop_
_space_group_symop_operation_xyz
x,y,z
1/2-y,1/2+x,1/4+z
-x,-y,1/2+z
1/2+y,1/2-x,3/4+z
1/2+x,1/2-y,3/4-z
1/2-x,1/2+y,1/4-z
y,x,-z
-y,-x,1/2-z
loop_
_atom_site_type_symbol
_atom_site_label
_atom_site_fract_x
_atom_site_fract_y
_atom_site_fract_z
Si Si1 0.130108 0.739820 0.085048
Si Si2 0.773136 0.598614 0.644474
Si Si3 0.574314 0.966501 0.693527
Si Si4 0.516608 0.357764 0.343423
Si Si5 0.146790 0.024884 0.905346
O O1 0.086586 0.763872 0.236548
O O2 0.230721 0.796602 0.069158
O O3 0.143259 0.625500 0.075684
O O4 0.049568 0.776452 0.978333
O O5 0.882265 0.564123 0.623375
O O6 0.728516 0.529756 0.759155
O O7 0.482097 0.942113 0.602961
O O8 0.605252 0.394749 0.250000
O O9 0.547272 0.330176 0.497516
O O10 0.442902 0.449132 0.351098
O O11 0.113154 0.113154 0.000000
#
# Coordination Sequence:
#
# PCOD9549228 Si02
#       5
#     8   8   8   8   8
#     4   9  18  35  59  80 114 156 198 251 306 359
#     4   9  18  35  56  83 111 151 204 254 297 365
#     4  10  22  40  62  83 119 162 204 253 313 372
#     4   9  16  27  50  79 120 151 187 237 308 361
#     4   9  16  27  46  83 115 151 188 242 298 363
#
# _framework density 21.399954999999999
#
# number of rings (size 3 to 8) (size 9 to 14) (size 15 to 20)
#    0.000    2.800    0.000    1.200    0.000    6.400 
#    7.200    0.000    8.800    0.000    0.000    0.000 
#    0.000    0.000    0.000    0.000    0.000    0.000 
#
# Total GULP energy -222720.898980 kJ/mol
# GULP energy per Si atom -5568.022474 kJ/mol
# Density = 2.135125 g / cm^3
# Si number density = 21.399955 Si / 1000 Ang^3
#
#
#
# Elastic Constant Matrix: (Units=GPa)
#
#
# Indices 1 2 3 4 5 6 
#
# 1 43.1706 23.9527 12.9437 0.0000 0.0000 0.0000
# 2 23.9527 43.1709 12.9440 0.0000 0.0000 0.0000
# 3 12.9437 12.9440 96.4855 0.0000 0.0000 0.0000
# 4 0.0000 0.0000 0.0000 18.7649 0.0000 0.0000
# 5 0.0000 0.0000 0.0000 0.0000 18.7646 0.0000
# 6 0.0000 0.0000 0.0000 0.0000 0.0000 15.8333
#
#
#
# Elastic Compliance Matrix: (Units=1/GPa)
#
#
# Indices 1 2 3 4 5 6 
#
# 1 0.033873 -0.018162 -0.002108 0.000000 0.000000 0.000000
# 2 -0.018162 0.033873 -0.002108 0.000000 0.000000 0.000000
# 3 -0.002108 -0.002108 0.010930 0.000000 0.000000 0.000000
# 4 0.000000 0.000000 0.000000 0.053291 0.000000 0.000000
# 5 0.000000 0.000000 0.000000 0.000000 0.053292 0.000000
# 6 0.000000 0.000000 0.000000 0.000000 0.000000 0.063158
#
#
# Mechanical properties :
#
#
# Convention : Reuss Voigt Hill
#
# Bulk Modulus (GPa) = 29.48053 31.38977 30.43515
# Shear Modulus (GPa) = 16.42160 19.53833 17.97997
#
# Velocity S-wave (km/s) = 2.77314 3.02488 2.90174
# Velocity P-wave (km/s) = 4.90506 5.18651 5.04775
#
# Compressibility (1/GPa) = 0.03392070
#
# Stress axis : x y z
#
# Youngs Moduli (GPa) = 29.52234 29.52247 91.49344
#
# Poissons Ratio (x) = 0.53618 0.19283
# Poissons Ratio (y) = 0.53618 0.19284
# Poissons Ratio (z) = 0.06222 0.06223
#
# Static dielectric constant tensor:
#      x y z
#    x 1.782460 0.000000 0.000000 
#    y 0.000000 1.782460 0.000000 
#    z 0.000000 0.000000 1.776150 
# 
# From -- ./inp_files/1282.got.cif
#   From: 2010.05.17/outbox.cif.g08.bks.cpg/sg92_1_cif.got.tgz:1282.got - 2010.06.03 19:35:17.
