data_PCOD9549469
_publ_section_title
;
Structure prediction by ZEFSAII (Michael W. Deem and Ramdas Pophale) SiO2 
 PCOD9549469
Probable space group: P 41 21 2
;
_chemical_formula_sum "Si O2"
_cell_formula_units_Z 48
_cell_length_a 12.437171
_cell_length_b 12.437171
_cell_length_c 12.590351
_cell_angle_alpha 90.000000
_cell_angle_beta 90.000000
_cell_angle_gamma 90.000000
_cell_volume 1947.516065
_symmetry_space_group_name_H-M "P 41 21 2"
_symmetry_group_IT_number 92
_symmetry_cell_setting 'tetragonal'
loop_
_space_group_symop_operation_xyz
x,y,z
1/2-y,1/2+x,1/4+z
-x,-y,1/2+z
1/2+y,1/2-x,3/4+z
1/2+x,1/2-y,3/4-z
1/2-x,1/2+y,1/4-z
y,x,-z
-y,-x,1/2-z
loop_
_atom_site_type_symbol
_atom_site_label
_atom_site_fract_x
_atom_site_fract_y
_atom_site_fract_z
Si Si1 0.225510 0.465285 0.375734
Si Si2 0.956201 0.016666 0.125247
Si Si3 0.059687 0.281964 0.362427
Si Si4 0.838940 0.546381 0.332785
Si Si5 0.649193 0.633141 0.628350
Si Si6 0.058673 0.638959 0.313142
O O1 0.353735 0.456316 0.356875
O O2 0.206078 0.494069 0.501790
O O3 0.165997 0.565782 0.316198
O O4 0.168762 0.350691 0.352713
O O5 0.983803 0.016198 0.250000
O O6 0.845482 0.949960 0.116120
O O7 0.939967 0.051029 0.919440
O O8 0.012636 0.328200 0.472363
O O9 0.752639 0.642938 0.324136
O O10 0.811902 0.508303 0.452884
O O11 0.963401 0.565702 0.352411
O O12 0.646837 0.646837 0.500000
O O13 0.762518 0.577034 0.641868
#
# Coordination Sequence:
#
# PCOD9549469 Si02
#       6
#     8   8   8   8   8   8
#     4  11  23  43  71 101 135 177 226 281 343 406
#     4   9  22  46  66  96 138 176 222 282 343 404
#     4  11  23  43  66 100 136 176 228 277 342 407
#     4  11  23  41  65 100 136 180 225 283 336 407
#     4   9  22  44  65  96 132 180 226 277 344 405
#     4  11  23  41  70 100 135 177 231 281 341 409
#
# _framework density 24.646782000000002
#
# number of rings (size 3 to 8) (size 9 to 14) (size 15 to 20)
#    0.000    1.667    0.000    4.000    2.333    3.333 
#   21.000    0.000    0.000    0.000    0.000    0.000 
#    0.000    0.000    0.000    0.000    0.000    0.000 
#
# Total GULP energy -267591.043743 kJ/mol
# GULP energy per Si atom -5574.813411 kJ/mol
# Density = 2.459068 g / cm^3
# Si number density = 24.646782 Si / 1000 Ang^3
#
#
#
# Elastic Constant Matrix: (Units=GPa)
#
#
# Indices 1 2 3 4 5 6 
#
# 1 75.1660 37.2145 21.7454 0.0000 0.0000 0.0000
# 2 37.2145 75.1661 21.7453 0.0000 0.0000 0.0000
# 3 21.7454 21.7453 127.2159 0.0000 0.0000 0.0000
# 4 0.0000 0.0000 0.0000 41.7484 0.0000 0.0000
# 5 0.0000 0.0000 0.0000 0.0000 41.7483 0.0000
# 6 0.0000 0.0000 0.0000 0.0000 0.0000 19.2440
#
#
#
# Elastic Compliance Matrix: (Units=1/GPa)
#
#
# Indices 1 2 3 4 5 6 
#
# 1 0.017939 -0.008410 -0.001629 0.000000 0.000000 0.000000
# 2 -0.008410 0.017939 -0.001629 0.000000 0.000000 0.000000
# 3 -0.001629 -0.001629 0.008417 0.000000 0.000000 0.000000
# 4 0.000000 0.000000 0.000000 0.023953 0.000000 0.000000
# 5 0.000000 0.000000 0.000000 0.000000 0.023953 0.000000
# 6 0.000000 0.000000 0.000000 0.000000 0.000000 0.051964
#
#
# Mechanical properties :
#
#
# Convention : Reuss Voigt Hill
#
# Bulk Modulus (GPa) = 47.71049 48.77315 48.24182
# Shear Modulus (GPa) = 28.65524 33.67099 31.16311
#
# Velocity S-wave (km/s) = 3.41344 3.70014 3.55968
# Velocity P-wave (km/s) = 5.91060 6.17143 6.04242
#
# Compressibility (1/GPa) = 0.02095975
#
# Stress axis : x y z
#
# Youngs Moduli (GPa) = 55.74435 55.74445 118.80054
#
# Poissons Ratio (x) = 0.46883 0.19350
# Poissons Ratio (y) = 0.46883 0.19350
# Poissons Ratio (z) = 0.09079 0.09079
#
# Static dielectric constant tensor:
#      x y z
#    x 2.021430 0.000000 0.000000 
#    y 0.000000 2.021430 0.000000 
#    z 0.000000 0.000000 2.096970 
# 
# From -- ./inp_files/2164.got.cif
#   From: 2010.05.17/outbox.cif.g08.bks.cpg/sg92_2_cif.got.tgz:2164.got - 2010.06.03 19:35:17.
