data_PCOD9549398
_publ_section_title
;
Structure prediction by ZEFSAII (Michael W. Deem and Ramdas Pophale) SiO2 
 PCOD9549398
Probable space group: P 41 21 2
;
_chemical_formula_sum "Si O2"
_cell_formula_units_Z 24
_cell_length_a 7.793209
_cell_length_b 7.793209
_cell_length_c 16.336508
_cell_angle_alpha 90.000000
_cell_angle_beta 90.000000
_cell_angle_gamma 90.000000
_cell_volume 992.183217
_symmetry_space_group_name_H-M "P 41 21 2"
_symmetry_group_IT_number 92
_symmetry_cell_setting 'tetragonal'
loop_
_space_group_symop_operation_xyz
x,y,z
1/2-y,1/2+x,1/4+z
-x,-y,1/2+z
1/2+y,1/2-x,3/4+z
1/2+x,1/2-y,3/4-z
1/2-x,1/2+y,1/4-z
y,x,-z
-y,-x,1/2-z
loop_
_atom_site_type_symbol
_atom_site_label
_atom_site_fract_x
_atom_site_fract_y
_atom_site_fract_z
Si Si1 0.009387 0.284540 0.153572
Si Si2 0.666442 0.136003 0.879911
Si Si3 0.320005 0.707692 0.549662
O O1 0.165228 0.189359 0.105180
O O2 0.062051 0.483051 0.144084
O O3 0.041113 0.232306 0.247327
O O4 0.824822 0.255498 0.115912
O O5 0.801154 0.007476 0.838914
O O6 0.647873 0.817105 0.728162
#
# Coordination Sequence:
#
# PCOD9549398 Si02
#       3
#     8   8   8
#     4  10  24  47  76 104 149 189 248 298 370 432
#     4  10  24  47  76 104 149 189 248 298 370 432
#     4  10  24  48  76 102 150 192 246 302 366 436
#
# _framework density 24.189080000000001
#
# number of rings (size 3 to 8) (size 9 to 14) (size 15 to 20)
#    2.000    0.000    0.000    2.000    0.000    8.000 
#   12.000    3.333    0.000    0.000    0.000    0.000 
#    0.000    0.000    0.000    0.000    0.000    0.000 
#
# Total GULP energy -134146.072215 kJ/mol
# GULP energy per Si atom -5589.419676 kJ/mol
# Density = 2.413402 g / cm^3
# Si number density = 24.189080 Si / 1000 Ang^3
#
#
#
# Elastic Constant Matrix: (Units=GPa)
#
#
# Indices 1 2 3 4 5 6 
#
# 1 -6.6422 112.3309 35.2866 0.0000 0.0000 0.0000
# 2 112.3309 -6.6422 35.2866 0.0000 0.0000 0.0000
# 3 35.2866 35.2866 107.0518 0.0000 0.0000 0.0000
# 4 0.0000 0.0000 0.0000 28.5526 0.0000 0.0000
# 5 0.0000 0.0000 0.0000 0.0000 28.5526 0.0000
# 6 0.0000 0.0000 0.0000 0.0000 0.0000 18.3264
#
#
#
# Elastic Compliance Matrix: (Units=1/GPa)
#
#
# Indices 1 2 3 4 5 6 
#
# 1 0.001863 0.010269 -0.003999 0.000000 0.000000 0.000000
# 2 0.010269 0.001863 -0.003999 0.000000 0.000000 0.000000
# 3 -0.003999 -0.003999 0.011978 0.000000 0.000000 0.000000
# 4 0.000000 0.000000 0.000000 0.035023 0.000000 0.000000
# 5 0.000000 0.000000 0.000000 0.000000 0.035023 0.000000
# 6 0.000000 0.000000 0.000000 0.000000 0.000000 0.054566
#
#
# Mechanical properties :
#
#
# Convention : Reuss Voigt Hill
#
# Bulk Modulus (GPa) = 49.39313 51.06397 50.22855
# Shear Modulus (GPa) = 35.08183 9.14387 22.11285
#
# Velocity S-wave (km/s) = 3.81243 1.94637 3.02680
# Velocity P-wave (km/s) = 6.31217 5.11931 5.74677
#
# Compressibility (1/GPa) = 0.02024573
#
# Stress axis : x y z
#
# Youngs Moduli (GPa) = 536.65361 536.65361 83.48929
#
# Poissons Ratio (x) = -5.51071 0.33387
# Poissons Ratio (y) = -5.51071 0.33387
# Poissons Ratio (z) = 2.14607 2.14607
#
# Static dielectric constant tensor:
#      x y z
#    x 1.993240 0.000000 0.000000 
#    y 0.000000 1.993240 0.000000 
#    z 0.000000 0.000000 1.907330 
# 
# From -- ./inp_files/2875.got.cif
#   From: 2010.05.17/outbox.cif.g08.bks.cpg/sg92_2_cif.got.tgz:2875.got - 2010.06.03 19:35:17.
