data_PCOD9549176
_publ_section_title
;
Structure prediction by ZEFSAII (Michael W. Deem and Ramdas Pophale) SiO2 
 PCOD9549176
Probable space group: P 41 21 2
;
_chemical_formula_sum "Si O2"
_cell_formula_units_Z 16
_cell_length_a 8.718755
_cell_length_b 8.718755
_cell_length_c 7.832472
_cell_angle_alpha 90.000000
_cell_angle_beta 90.000000
_cell_angle_gamma 90.000000
_cell_volume 595.398586
_symmetry_space_group_name_H-M "P 41 21 2"
_symmetry_group_IT_number 92
_symmetry_cell_setting 'tetragonal'
loop_
_space_group_symop_operation_xyz
x,y,z
1/2-y,1/2+x,1/4+z
-x,-y,1/2+z
1/2+y,1/2-x,3/4+z
1/2+x,1/2-y,3/4-z
1/2-x,1/2+y,1/4-z
y,x,-z
-y,-x,1/2-z
loop_
_atom_site_type_symbol
_atom_site_label
_atom_site_fract_x
_atom_site_fract_y
_atom_site_fract_z
Si Si1 0.458461 0.201790 0.732859
Si Si2 0.349352 0.860629 0.530624
O O1 0.567857 0.139329 0.583054
O O2 0.574094 0.247936 0.884697
O O3 0.325022 0.317065 0.683255
O O4 0.473605 0.840735 0.682947
#
# Coordination Sequence:
#
# PCOD9549176 Si02
#       2
#     8   8
#     4  10  21  43  65  90 130 165 207 265 313 372
#     4  10  21  43  65  90 130 165 207 265 313 372
#
# _framework density 26.872751000000001
#
# number of rings (size 3 to 8) (size 9 to 14) (size 15 to 20)
#    0.000    2.000    0.000    6.000    0.000    0.000 
#    0.000  100.000    0.000    0.000    0.000    0.000 
#    0.000    0.000    0.000    0.000    0.000    0.000 
#
# Total GULP energy -89174.012964 kJ/mol
# GULP energy per Si atom -5573.375810 kJ/mol
# Density = 2.681159 g / cm^3
# Si number density = 26.872751 Si / 1000 Ang^3
#
#
#
# Elastic Constant Matrix: (Units=GPa)
#
#
# Indices 1 2 3 4 5 6 
#
# 1 60.0035 18.3309 7.4941 0.0000 0.0000 0.0000
# 2 18.3309 60.0035 7.4941 0.0000 0.0000 0.0000
# 3 7.4941 7.4941 111.5897 0.0000 0.0000 0.0000
# 4 0.0000 0.0000 0.0000 23.3738 0.0000 0.0000
# 5 0.0000 0.0000 0.0000 0.0000 23.3738 0.0000
# 6 0.0000 0.0000 0.0000 0.0000 0.0000 82.1537
#
#
#
# Elastic Compliance Matrix: (Units=1/GPa)
#
#
# Indices 1 2 3 4 5 6 
#
# 1 0.018464 -0.005532 -0.000868 0.000000 0.000000 0.000000
# 2 -0.005532 0.018464 -0.000868 0.000000 0.000000 0.000000
# 3 -0.000868 -0.000868 0.009078 0.000000 0.000000 0.000000
# 4 0.000000 0.000000 0.000000 0.042783 0.000000 0.000000
# 5 0.000000 0.000000 0.000000 0.000000 0.042783 0.000000
# 6 0.000000 0.000000 0.000000 0.000000 0.000000 0.012172
#
#
# Mechanical properties :
#
#
# Convention : Reuss Voigt Hill
#
# Bulk Modulus (GPa) = 31.77826 33.13720 32.45773
# Shear Modulus (GPa) = 29.62564 38.99876 34.31220
#
# Velocity S-wave (km/s) = 3.32391 3.81364 3.57717
# Velocity P-wave (km/s) = 5.15580 5.63469 5.40056
#
# Compressibility (1/GPa) = 0.03146806
#
# Stress axis : x y z
#
# Youngs Moduli (GPa) = 54.15869 54.15869 110.15585
#
# Poissons Ratio (x) = 0.29962 0.09567
# Poissons Ratio (y) = 0.29962 0.09567
# Poissons Ratio (z) = 0.04704 0.04704
#
# Static dielectric constant tensor:
#      x y z
#    x 2.239970 0.000000 0.000000 
#    y 0.000000 2.239970 0.000000 
#    z 0.000000 0.000000 2.236030 
# 
# From -- ./inp_files/911.got.cif
#   From: 2010.05.17/outbox.cif.g08.bks.cpg/sg92_1_cif.got.tgz:911.got - 2010.06.03 19:35:17.
