data_PCOD9549833
_publ_section_title
;
Structure prediction by ZEFSAII (Michael W. Deem and Ramdas Pophale) SiO2 
 PCOD9549833
Probable space group: P 42 2 2
;
_chemical_formula_sum "Si O2"
_cell_formula_units_Z 58
_cell_length_a 17.198047
_cell_length_b 17.198047
_cell_length_c 9.463639
_cell_angle_alpha 90.000000
_cell_angle_beta 90.000000
_cell_angle_gamma 90.000000
_cell_volume 2799.087200
_symmetry_space_group_name_H-M "P 42 2 2"
_symmetry_group_IT_number 93
_symmetry_cell_setting 'tetragonal'
loop_
_space_group_symop_operation_xyz
x,y,z
-y,x,1/2+z
-x,-y,z
y,-x,1/2+z
x,-y,-z
-x,y,-z
y,x,1/2-z
-y,-x,1/2-z
loop_
_atom_site_type_symbol
_atom_site_label
_atom_site_fract_x
_atom_site_fract_y
_atom_site_fract_z
Si Si1 0.192720 0.677617 0.784938
Si Si2 0.621183 0.884070 0.846037
Si Si3 0.799026 0.089736 0.162494
Si Si4 0.583407 0.200587 0.435167
Si Si5 0.800517 0.914949 0.172398
Si Si6 0.746038 0.587602 0.462904
Si Si7 0.422866 0.617052 0.407228
Si Si8 0.000000 0.500000 0.500000
O O1 0.256220 0.743781 0.750000
O O2 0.112499 0.714436 0.726152
O O3 0.228143 0.605916 0.695979
O O4 0.190391 0.650570 0.946674
O O5 0.706472 0.916534 0.820070
O O6 0.592517 0.854341 0.696760
O O7 0.635222 0.806842 0.942128
O O8 0.559031 0.943396 0.913795
O O9 0.843774 0.156227 0.250000
O O10 0.824692 0.003102 0.203196
O O11 0.808438 0.100000 0.994507
O O12 0.500000 0.183829 0.500000
O O13 0.581083 0.290181 0.385122
O O14 0.859683 0.859683 0.250000
O O15 0.764595 0.500000 0.500000
O O16 0.655878 0.599383 0.503632
O O17 0.500000 0.598590 0.500000
O O18 0.420668 0.579333 0.250000
#
# Coordination Sequence:
#
# PCOD9549833 Si02
#       8
#     8   8   8   8   8   8   8   2
#     4  11  23  41  69 102 143 187 236 299 364 435
#     4  12  26  45  78 104 146 192 246 300 362 445
#     4  11  26  44  73 109 143 187 247 300 361 446
#     4  11  25  43  69 107 143 186 243 303 365 434
#     4  10  24  47  71 102 145 189 231 296 372 438
#     4  12  24  41  72  98 137 195 243 294 368 435
#     4  11  25  45  71 104 148 189 251 311 376 438
#     4  12  28  52  74 112 150 202 246 304 376 452
#
# _framework density 20.721039000000001
#
# number of rings (size 3 to 8) (size 9 to 14) (size 15 to 20)
#    0.000    0.828    4.828    1.655    7.724    1.103 
#    0.000    3.793    0.000    0.000    0.000    0.000 
#    0.000    0.000    0.000    0.000    0.000    0.000 
#
# Total GULP energy -323979.406296 kJ/mol
# GULP energy per Si atom -5585.851833 kJ/mol
# Density = 2.067388 g / cm^3
# Si number density = 20.721039 Si / 1000 Ang^3
#
#
#
# Elastic Constant Matrix: (Units=GPa)
#
#
# Indices 1 2 3 4 5 6 
#
# 1 111.8111 34.3574 50.4759 0.0000 0.0000 0.0000
# 2 34.3574 111.8148 50.4777 0.0000 0.0000 0.0000
# 3 50.4759 50.4777 114.3934 0.0000 0.0000 0.0000
# 4 0.0000 0.0000 0.0000 20.9558 0.0000 0.0000
# 5 0.0000 0.0000 0.0000 0.0000 20.9536 0.0000
# 6 0.0000 0.0000 0.0000 0.0000 0.0000 18.6687
#
#
#
# Elastic Compliance Matrix: (Units=1/GPa)
#
#
# Indices 1 2 3 4 5 6 
#
# 1 0.011376 -0.001535 -0.004342 0.000000 0.000000 0.000000
# 2 -0.001535 0.011375 -0.004342 0.000000 0.000000 0.000000
# 3 -0.004342 -0.004342 0.012574 0.000000 0.000000 0.000000
# 4 0.000000 0.000000 0.000000 0.047720 0.000000 0.000000
# 5 0.000000 0.000000 0.000000 0.000000 0.047724 0.000000
# 6 0.000000 0.000000 0.000000 0.000000 0.000000 0.053566
#
#
# Mechanical properties :
#
#
# Convention : Reuss Voigt Hill
#
# Bulk Modulus (GPa) = 67.17776 67.62681 67.40229
# Shear Modulus (GPa) = 23.83966 25.62951 24.73459
#
# Velocity S-wave (km/s) = 3.39559 3.52075 3.45874
# Velocity P-wave (km/s) = 6.91837 7.01678 6.96775
#
# Compressibility (1/GPa) = 0.01488588
#
# Stress axis : x y z
#
# Youngs Moduli (GPa) = 87.90783 87.90988 79.53125
#
# Poissons Ratio (x) = 0.13496 0.34532
# Poissons Ratio (y) = 0.13496 0.34533
# Poissons Ratio (z) = 0.38170 0.38171
#
# Static dielectric constant tensor:
#      x y z
#    x 1.800190 0.000000 0.000000 
#    y 0.000000 1.800190 0.000000 
#    z 0.000000 0.000000 1.696010 
# 
# From -- ./inp_files/2156.got.cif
#   From: 2010.05.17/outbox.cif.g08.bks.cpg/sg93_2_cif.got.tgz:2156.got - 2010.06.03 19:38:44.
