data_PCOD9549184
_publ_section_title
;
Structure prediction by ZEFSAII (Michael W. Deem and Ramdas Pophale) SiO2 
 PCOD9549184
Probable space group: P 41 21 2
;
_chemical_formula_sum "Si O2"
_cell_formula_units_Z 48
_cell_length_a 11.095906
_cell_length_b 11.095906
_cell_length_c 16.791403
_cell_angle_alpha 90.000000
_cell_angle_beta 90.000000
_cell_angle_gamma 90.000000
_cell_volume 2067.342928
_symmetry_space_group_name_H-M "P 41 21 2"
_symmetry_group_IT_number 92
_symmetry_cell_setting 'tetragonal'
loop_
_space_group_symop_operation_xyz
x,y,z
1/2-y,1/2+x,1/4+z
-x,-y,1/2+z
1/2+y,1/2-x,3/4+z
1/2+x,1/2-y,3/4-z
1/2-x,1/2+y,1/4-z
y,x,-z
-y,-x,1/2-z
loop_
_atom_site_type_symbol
_atom_site_label
_atom_site_fract_x
_atom_site_fract_y
_atom_site_fract_z
Si Si1 0.367842 0.232457 0.199267
Si Si2 0.590117 0.409884 0.750000
Si Si3 0.317090 0.317090 0.500000
Si Si4 0.025037 0.881425 0.901250
Si Si5 0.526845 0.101651 0.070550
Si Si6 0.387140 0.820467 0.862127
Si Si7 0.190689 0.433024 0.226543
O O1 0.435879 0.314339 0.266144
O O2 0.452239 0.194527 0.125158
O O3 0.253581 0.320711 0.179050
O O4 0.344556 0.104414 0.246157
O O5 0.518968 0.460514 0.673364
O O6 0.724516 0.450151 0.734822
O O7 0.353521 0.394255 0.575653
O O8 0.340354 0.181473 0.529692
O O9 0.896636 0.823921 0.880775
O O10 0.626690 0.021673 0.116324
O O11 0.434731 0.991953 0.048828
O O12 0.319323 0.877331 0.935602
#
# Coordination Sequence:
#
# PCOD9549184 Si02
#       7
#     8   4   4   8   8   8   8
#     4  10  23  42  66  97 135 181 234 287 354 419
#     4  10  21  44  58  92 141 182 220 284 353 414
#     4  12  21  40  66 106 129 166 238 288 357 420
#     4  10  23  38  65  95 133 174 219 300 353 411
#     4  11  23  43  67  98 138 182 234 289 351 439
#     4  11  22  40  68 100 131 169 229 286 356 413
#     4  11  23  42  66  98 135 185 227 285 354 427
#
# _framework density 23.218209000000002
#
# number of rings (size 3 to 8) (size 9 to 14) (size 15 to 20)
#    0.000    1.333    5.000    1.500    7.000    4.000 
#    3.000    0.000    0.000    0.000    0.000    0.000 
#    0.000    0.000    0.000    0.000    0.000    0.000 
#
# Total GULP energy -267554.852056 kJ/mol
# GULP energy per Si atom -5574.059418 kJ/mol
# Density = 2.316536 g / cm^3
# Si number density = 23.218209 Si / 1000 Ang^3
#
#
#
# Elastic Constant Matrix: (Units=GPa)
#
#
# Indices 1 2 3 4 5 6 
#
# 1 67.0976 18.7479 9.4197 0.0000 0.0000 0.0000
# 2 18.7479 67.0971 9.4198 0.0000 0.0000 0.0000
# 3 9.4197 9.4198 47.1138 0.0000 0.0000 0.0000
# 4 0.0000 0.0000 0.0000 20.2209 0.0000 0.0000
# 5 0.0000 0.0000 0.0000 0.0000 20.2207 0.0000
# 6 0.0000 0.0000 0.0000 0.0000 0.0000 38.5938
#
#
#
# Elastic Compliance Matrix: (Units=1/GPa)
#
#
# Indices 1 2 3 4 5 6 
#
# 1 0.016433 -0.004250 -0.002436 0.000000 0.000000 0.000000
# 2 -0.004250 0.016433 -0.002436 0.000000 0.000000 0.000000
# 3 -0.002436 -0.002436 0.022199 0.000000 0.000000 0.000000
# 4 0.000000 0.000000 0.000000 0.049454 0.000000 0.000000
# 5 0.000000 0.000000 0.000000 0.000000 0.049454 0.000000
# 6 0.000000 0.000000 0.000000 0.000000 0.000000 0.025911
#
#
# Mechanical properties :
#
#
# Convention : Reuss Voigt Hill
#
# Bulk Modulus (GPa) = 27.15731 28.49815 27.82773
# Shear Modulus (GPa) = 23.76408 25.38848 24.57628
#
# Velocity S-wave (km/s) = 3.20271 3.31036 3.25698
# Velocity P-wave (km/s) = 5.03968 5.18768 5.11421
#
# Compressibility (1/GPa) = 0.03682250
#
# Stress axis : x y z
#
# Youngs Moduli (GPa) = 60.85299 60.85249 45.04653
#
# Poissons Ratio (x) = 0.25860 0.10973
# Poissons Ratio (y) = 0.25860 0.10973
# Poissons Ratio (z) = 0.14823 0.14823
#
# Static dielectric constant tensor:
#      x y z
#    x 1.982690 0.000000 0.000000 
#    y 0.000000 1.982690 0.000000 
#    z 0.000000 0.000000 1.925940 
# 
# From -- ./inp_files/3195.got.cif
#   From: 2010.05.17/outbox.cif.g08.bks.cpg/sg92_2_cif.got.tgz:3195.got - 2010.06.03 19:35:17.
