data_PCOD9549575
_publ_section_title
;
Structure prediction by ZEFSAII (Michael W. Deem and Ramdas Pophale) SiO2 
 PCOD9549575
Probable space group: P 41 21 2
;
_chemical_formula_sum "Si O2"
_cell_formula_units_Z 32
_cell_length_a 9.111373
_cell_length_b 9.111373
_cell_length_c 15.746806
_cell_angle_alpha 90.000000
_cell_angle_beta 90.000000
_cell_angle_gamma 90.000000
_cell_volume 1307.254451
_symmetry_space_group_name_H-M "P 41 21 2"
_symmetry_group_IT_number 92
_symmetry_cell_setting 'tetragonal'
loop_
_space_group_symop_operation_xyz
x,y,z
1/2-y,1/2+x,1/4+z
-x,-y,1/2+z
1/2+y,1/2-x,3/4+z
1/2+x,1/2-y,3/4-z
1/2-x,1/2+y,1/4-z
y,x,-z
-y,-x,1/2-z
loop_
_atom_site_type_symbol
_atom_site_label
_atom_site_fract_x
_atom_site_fract_y
_atom_site_fract_z
Si Si1 0.690424 0.781358 0.092657
Si Si2 0.431791 0.575117 0.150070
Si Si3 0.746320 0.136979 0.859270
Si Si4 0.599430 0.885228 0.790703
O O1 0.568271 0.657179 0.108299
O O2 0.807429 0.738900 0.164491
O O3 0.635385 0.949369 0.094189
O O4 0.757059 0.757059 0.000000
O O5 0.457617 0.542383 0.250000
O O6 0.389352 0.420024 0.107800
O O7 0.302757 0.693390 0.143106
O O8 0.650824 0.052725 0.788502
O O9 0.685402 0.077428 0.949320
#
# Coordination Sequence:
#
# PCOD9549575 Si02
#       4
#     8   8   8   8
#     4  12  27  47  77 107 148 200 251 308 379 450
#     4  12  29  50  77 112 154 197 254 314 382 454
#     4  12  29  49  77 111 154 196 255 315 383 456
#     4  12  27  48  77 108 148 199 253 306 377 453
#
# _framework density 24.478781999999999
#
# number of rings (size 3 to 8) (size 9 to 14) (size 15 to 20)
#    0.000    0.000    5.000    3.000   14.000    0.000 
#    0.000    0.000    0.000    0.000    0.000    0.000 
#    0.000    0.000    0.000    0.000    0.000    0.000 
#
# Total GULP energy -179337.923790 kJ/mol
# GULP energy per Si atom -5604.310118 kJ/mol
# Density = 2.442307 g / cm^3
# Si number density = 24.478782 Si / 1000 Ang^3
#
#
#
# Elastic Constant Matrix: (Units=GPa)
#
#
# Indices 1 2 3 4 5 6 
#
# 1 95.3166 3.6315 12.9765 0.0000 0.0000 0.0000
# 2 3.6315 95.3166 12.9765 0.0000 0.0000 0.0000
# 3 12.9765 12.9765 78.8374 0.0000 0.0000 0.0000
# 4 0.0000 0.0000 0.0000 32.6890 0.0000 0.0000
# 5 0.0000 0.0000 0.0000 0.0000 32.6891 0.0000
# 6 0.0000 0.0000 0.0000 0.0000 0.0000 34.5875
#
#
#
# Elastic Compliance Matrix: (Units=1/GPa)
#
#
# Indices 1 2 3 4 5 6 
#
# 1 0.010735 -0.000172 -0.001739 0.000000 0.000000 0.000000
# 2 -0.000172 0.010735 -0.001739 0.000000 0.000000 0.000000
# 3 -0.001739 -0.001739 0.013257 0.000000 0.000000 0.000000
# 4 0.000000 0.000000 0.000000 0.030591 0.000000 0.000000
# 5 0.000000 0.000000 0.000000 0.000000 0.030591 0.000000
# 6 0.000000 0.000000 0.000000 0.000000 0.000000 0.028912
#
#
# Mechanical properties :
#
#
# Convention : Reuss Voigt Hill
#
# Bulk Modulus (GPa) = 36.46026 36.51551 36.48789
# Shear Modulus (GPa) = 35.39527 35.98551 35.69039
#
# Velocity S-wave (km/s) = 3.80670 3.83831 3.82254
# Velocity P-wave (km/s) = 5.85220 5.88159 5.86691
#
# Compressibility (1/GPa) = 0.02742712
#
# Stress axis : x y z
#
# Youngs Moduli (GPa) = 93.15663 93.15669 75.43381
#
# Poissons Ratio (x) = 0.01605 0.13114
# Poissons Ratio (y) = 0.01605 0.13114
# Poissons Ratio (z) = 0.16196 0.16196
#
# Static dielectric constant tensor:
#      x y z
#    x 1.932450 0.000000 0.000000 
#    y 0.000000 1.932450 0.000000 
#    z 0.000000 0.000000 1.937800 
# 
# From -- ./inp_files/3353.got.cif
#   From: 2010.05.17/outbox.cif.g08.bks.cpg/sg92_2_cif.got.tgz:3353.got - 2010.06.03 19:35:17.
