data_PCOD9549185
_publ_section_title
;
Structure prediction by ZEFSAII (Michael W. Deem and Ramdas Pophale) SiO2 
 PCOD9549185
Probable space group: P 41 21 2
;
_chemical_formula_sum "Si O2"
_cell_formula_units_Z 40
_cell_length_a 16.044154
_cell_length_b 16.044154
_cell_length_c 5.874660
_cell_angle_alpha 90.000000
_cell_angle_beta 90.000000
_cell_angle_gamma 90.000000
_cell_volume 1512.224885
_symmetry_space_group_name_H-M "P 41 21 2"
_symmetry_group_IT_number 92
_symmetry_cell_setting 'tetragonal'
loop_
_space_group_symop_operation_xyz
x,y,z
1/2-y,1/2+x,1/4+z
-x,-y,1/2+z
1/2+y,1/2-x,3/4+z
1/2+x,1/2-y,3/4-z
1/2-x,1/2+y,1/4-z
y,x,-z
-y,-x,1/2-z
loop_
_atom_site_type_symbol
_atom_site_label
_atom_site_fract_x
_atom_site_fract_y
_atom_site_fract_z
Si Si1 0.135161 0.305600 0.865341
Si Si2 0.031752 0.968249 0.750000
Si Si3 0.883562 0.217989 0.867694
Si Si4 0.020578 0.222928 0.176851
Si Si5 0.607842 0.033250 0.127531
Si Si6 0.751332 0.751332 0.000000
O O1 0.087299 0.391783 0.802233
O O2 0.161478 0.255043 0.638710
O O3 0.222982 0.346088 0.930679
O O4 0.110860 0.251010 0.086661
O O5 0.006109 0.869341 0.750430
O O6 0.998514 0.998514 0.500000
O O7 0.871451 0.128550 0.750000
O O8 0.977383 0.234650 0.928249
O O9 0.830722 0.240478 0.091978
O O10 0.983605 0.294772 0.336142
O O11 0.557601 0.069580 0.339073
#
# Coordination Sequence:
#
# PCOD9549185 Si02
#       6
#     8   4   8   8   8   4
#     4  11  24  43  75 118 160 219 270 352 418 526
#     4  12  35  64  86 124 170 236 309 374 432 502
#     4  10  22  43  72 108 146 200 266 336 417 506
#     4  12  26  50  81 116 160 229 276 359 433 512
#     4  12  25  45  77 123 173 207 265 340 440 541
#     4  10  21  44  66 108 156 198 277 334 412 502
#
# _framework density 26.451089
#
# number of rings (size 3 to 8) (size 9 to 14) (size 15 to 20)
#    0.000    0.800    2.000    4.200    4.200    4.000 
#    3.600    0.000    2.200    0.000    0.000    0.000 
#    0.000    0.000    0.000    0.000    0.000    0.000 
#
# Total GULP energy -223085.776935 kJ/mol
# GULP energy per Si atom -5577.144423 kJ/mol
# Density = 2.639089 g / cm^3
# Si number density = 26.451089 Si / 1000 Ang^3
#
#
#
# Elastic Constant Matrix: (Units=GPa)
#
#
# Indices 1 2 3 4 5 6 
#
# 1 115.9910 39.3557 40.6205 0.0000 0.0000 0.0000
# 2 39.3557 115.9909 40.6204 0.0000 0.0000 0.0000
# 3 40.6205 40.6204 90.5640 0.0000 0.0000 0.0000
# 4 0.0000 0.0000 0.0000 52.5485 0.0000 0.0000
# 5 0.0000 0.0000 0.0000 0.0000 52.5484 0.0000
# 6 0.0000 0.0000 0.0000 0.0000 0.0000 36.1689
#
#
#
# Elastic Compliance Matrix: (Units=1/GPa)
#
#
# Indices 1 2 3 4 5 6 
#
# 1 0.010729 -0.002319 -0.003772 0.000000 0.000000 0.000000
# 2 -0.002319 0.010729 -0.003772 0.000000 0.000000 0.000000
# 3 -0.003772 -0.003772 0.014426 0.000000 0.000000 0.000000
# 4 0.000000 0.000000 0.000000 0.019030 0.000000 0.000000
# 5 0.000000 0.000000 0.000000 0.000000 0.019030 0.000000
# 6 0.000000 0.000000 0.000000 0.000000 0.000000 0.027648
#
#
# Mechanical properties :
#
#
# Convention : Reuss Voigt Hill
#
# Bulk Modulus (GPa) = 61.89202 62.63766 62.26484
# Shear Modulus (GPa) = 39.46160 41.71645 40.58902
#
# Velocity S-wave (km/s) = 3.86666 3.97560 3.92151
# Velocity P-wave (km/s) = 6.58667 6.69372 6.64041
#
# Compressibility (1/GPa) = 0.01615717
#
# Stress axis : x y z
#
# Youngs Moduli (GPa) = 93.20226 93.20236 69.32088
#
# Poissons Ratio (x) = 0.21618 0.26148
# Poissons Ratio (y) = 0.21618 0.26148
# Poissons Ratio (z) = 0.35157 0.35156
#
# Static dielectric constant tensor:
#      x y z
#    x 2.265900 0.000000 0.000000 
#    y 0.000000 2.265910 0.000000 
#    z 0.000000 0.000000 2.143180 
# 
# From -- ./inp_files/456.got.cif
#   From: 2010.05.17/outbox.cif.g08.bks.cpg/sg92_1_cif.got.tgz:456.got - 2010.06.03 19:35:17.
