data_PCOD9549123
_publ_section_title
;
Structure prediction by ZEFSAII (Michael W. Deem and Ramdas Pophale) SiO2 
 PCOD9549123
Probable space group: P 41 21 2
;
_chemical_formula_sum "Si O2"
_cell_formula_units_Z 48
_cell_length_a 11.026128
_cell_length_b 11.026128
_cell_length_c 17.241247
_cell_angle_alpha 90.000000
_cell_angle_beta 90.000000
_cell_angle_gamma 90.000000
_cell_volume 2096.113202
_symmetry_space_group_name_H-M "P 41 21 2"
_symmetry_group_IT_number 92
_symmetry_cell_setting 'tetragonal'
loop_
_space_group_symop_operation_xyz
x,y,z
1/2-y,1/2+x,1/4+z
-x,-y,1/2+z
1/2+y,1/2-x,3/4+z
1/2+x,1/2-y,3/4-z
1/2-x,1/2+y,1/4-z
y,x,-z
-y,-x,1/2-z
loop_
_atom_site_type_symbol
_atom_site_label
_atom_site_fract_x
_atom_site_fract_y
_atom_site_fract_z
Si Si1 0.141634 0.141634 0.500000
Si Si2 0.943588 0.923396 0.372411
Si Si3 0.363377 0.787390 0.484398
Si Si4 0.600572 0.847139 0.038170
Si Si5 0.861909 0.102565 0.502473
Si Si6 0.572546 0.572546 0.000000
Si Si7 0.514507 0.079983 0.126761
O O1 0.255418 0.155345 0.557911
O O2 0.999439 0.148599 0.518922
O O3 0.886763 0.839172 0.307042
O O4 0.032862 0.834450 0.418725
O O5 0.866948 0.999022 0.436413
O O6 0.006054 0.031939 0.323828
O O7 0.223610 0.789468 0.512758
O O8 0.445896 0.831533 0.556378
O O9 0.386361 0.886676 0.415790
O O10 0.561541 0.708518 0.032228
O O11 0.592132 0.894775 0.949600
O O12 0.529800 0.943293 0.091746
#
# Coordination Sequence:
#
# PCOD9549123 Si02
#       7
#     4   8   8   8   8   4   8
#     4   9  16  36  68  91 124 174 216 277 344 396
#     4  10  25  43  65 105 129 181 233 283 356 415
#     4  11  23  44  73  98 141 190 230 299 354 433
#     4  10  21  38  65 101 136 172 228 290 341 426
#     4  10  22  46  67  95 138 176 231 288 352 409
#     4  11  24  40  62 103 128 176 236 281 340 420
#     4  10  21  41  66 104 129 181 229 278 363 414
#
# _framework density 22.899525000000001
#
# number of rings (size 3 to 8) (size 9 to 14) (size 15 to 20)
#    0.000    2.000    3.333    1.000    4.667    1.333 
#   24.000    0.000    0.000    0.000    0.000    0.000 
#    0.000    0.000    0.000    0.000    0.000    0.000 
#
# Total GULP energy -267418.910370 kJ/mol
# GULP energy per Si atom -5571.227299 kJ/mol
# Density = 2.284741 g / cm^3
# Si number density = 22.899525 Si / 1000 Ang^3
#
#
#
# Elastic Constant Matrix: (Units=GPa)
#
#
# Indices 1 2 3 4 5 6 
#
# 1 78.4531 19.8943 41.2041 0.0000 0.0000 0.0000
# 2 19.8943 78.4531 41.2041 0.0000 0.0000 0.0000
# 3 41.2041 41.2041 124.8677 0.0000 0.0000 0.0000
# 4 0.0000 0.0000 0.0000 28.9537 0.0000 0.0000
# 5 0.0000 0.0000 0.0000 0.0000 28.9537 0.0000
# 6 0.0000 0.0000 0.0000 0.0000 0.0000 33.6491
#
#
#
# Elastic Compliance Matrix: (Units=1/GPa)
#
#
# Indices 1 2 3 4 5 6 
#
# 1 0.015565 -0.001511 -0.004638 0.000000 0.000000 0.000000
# 2 -0.001511 0.015565 -0.004638 0.000000 0.000000 0.000000
# 3 -0.004638 -0.004638 0.011069 0.000000 0.000000 0.000000
# 4 0.000000 0.000000 0.000000 0.034538 0.000000 0.000000
# 5 0.000000 0.000000 0.000000 0.000000 0.034538 0.000000
# 6 0.000000 0.000000 0.000000 0.000000 0.000000 0.029718
#
#
# Mechanical properties :
#
#
# Convention : Reuss Voigt Hill
#
# Bulk Modulus (GPa) = 48.48059 54.04212 51.26135
# Shear Modulus (GPa) = 29.50848 30.27608 29.89228
#
# Velocity S-wave (km/s) = 3.59361 3.64005 3.61691
# Velocity P-wave (km/s) = 6.19965 6.42787 6.31479
#
# Compressibility (1/GPa) = 0.02062681
#
# Stress axis : x y z
#
# Youngs Moduli (GPa) = 64.24501 64.24501 90.34158
#
# Poissons Ratio (x) = 0.09710 0.41896
# Poissons Ratio (y) = 0.09710 0.41896
# Poissons Ratio (z) = 0.29794 0.29794
#
# Static dielectric constant tensor:
#      x y z
#    x 1.941740 0.000000 0.000000 
#    y 0.000000 1.941740 0.000000 
#    z 0.000000 0.000000 1.923830 
# 
# From -- ./inp_files/3174.got.cif
#   From: 2010.05.17/outbox.cif.g08.bks.cpg/sg92_2_cif.got.tgz:3174.got - 2010.06.03 19:35:17.
