data_PCOD9549986
_publ_section_title
;
Structure prediction by ZEFSAII (Michael W. Deem and Ramdas Pophale) SiO2 
 PCOD9549986
Probable space group: P 42 21 2
;
_chemical_formula_sum "Si O2"
_cell_formula_units_Z 44
_cell_length_a 8.683331
_cell_length_b 8.683331
_cell_length_c 28.678704
_cell_angle_alpha 90.000000
_cell_angle_beta 90.000000
_cell_angle_gamma 90.000000
_cell_volume 2162.381086
_symmetry_space_group_name_H-M "P 42 21 2"
_symmetry_group_IT_number 94
_symmetry_cell_setting 'tetragonal'
loop_
_space_group_symop_operation_xyz
x,y,z
1/2-y,1/2+x,1/2+z
-x,-y,z
1/2+y,1/2-x,1/2+z
1/2+x,1/2-y,1/2-z
1/2-x,1/2+y,1/2-z
y,x,-z
-y,-x,-z
loop_
_atom_site_type_symbol
_atom_site_label
_atom_site_fract_x
_atom_site_fract_y
_atom_site_fract_z
Si Si1 0.154593 0.587324 0.197672
Si Si2 0.065108 0.831866 0.769969
Si Si3 0.935490 0.758234 0.863176
Si Si4 0.500000 0.000000 0.070486
Si Si5 0.445958 0.253647 0.388521
Si Si6 0.250033 0.005028 0.993712
O O1 0.288116 0.482003 0.217984
O O2 0.170976 0.753793 0.221688
O O3 0.137531 0.627679 0.143387
O O4 0.000000 0.500000 0.212078
O O5 0.982225 0.727506 0.809605
O O6 0.000000 0.000000 0.780761
O O7 0.901943 0.605811 0.893420
O O8 0.090167 0.841683 0.884740
O O9 0.803902 0.888234 0.867103
O O10 0.628793 0.047124 0.032617
O O11 0.478910 0.199693 0.440641
O O12 0.108852 0.891148 0.000000
O O13 0.177061 0.177061 0.000000
#
# Coordination Sequence:
#
# PCOD9549986 Si02
#       6
#     8   8   8   4   8   8
#     4  11  24  40  64  96 127 176 212 269 338 395
#     4  11  22  42  64  93 133 166 220 274 326 406
#     4  10  19  38  62  94 124 170 217 281 317 399
#     4  12  22  32  62 102 120 168 226 272 338 374
#     4  10  19  41  61  87 135 168 217 269 333 393
#     4  11  20  38  65  94 129 171 223 272 323 398
#
# _framework density 20.347937999999999
#
# number of rings (size 3 to 8) (size 9 to 14) (size 15 to 20)
#    0.000    1.273    7.273    2.182    2.545    0.000 
#    0.000    0.000    0.000    0.545    0.000    0.000 
#    0.000    0.000    0.000    0.000    0.000    0.000 
#
# Total GULP energy -245095.773122 kJ/mol
# GULP energy per Si atom -5570.358480 kJ/mol
# Density = 2.030163 g / cm^3
# Si number density = 20.347938 Si / 1000 Ang^3
#
#
#
# Elastic Constant Matrix: (Units=GPa)
#
#
# Indices 1 2 3 4 5 6 
#
# 1 50.4750 -0.8490 32.2334 0.0000 0.0000 0.0000
# 2 -0.8490 50.4750 32.2334 0.0000 0.0000 0.0000
# 3 32.2334 32.2334 152.2058 0.0000 0.0000 0.0000
# 4 0.0000 0.0000 0.0000 31.8641 0.0000 0.0000
# 5 0.0000 0.0000 0.0000 0.0000 31.8641 0.0000
# 6 0.0000 0.0000 0.0000 0.0000 0.0000 21.0627
#
#
#
# Elastic Compliance Matrix: (Units=1/GPa)
#
#
# Indices 1 2 3 4 5 6 
#
# 1 0.023641 0.004157 -0.005887 0.000000 0.000000 0.000000
# 2 0.004157 0.023641 -0.005887 0.000000 0.000000 0.000000
# 3 -0.005887 -0.005887 0.009063 0.000000 0.000000 0.000000
# 4 0.000000 0.000000 0.000000 0.031383 0.000000 0.000000
# 5 0.000000 0.000000 0.000000 0.000000 0.031383 0.000000
# 6 0.000000 0.000000 0.000000 0.000000 0.000000 0.047477
#
#
# Mechanical properties :
#
#
# Convention : Reuss Voigt Hill
#
# Bulk Modulus (GPa) = 24.32380 42.26571 33.29476
# Shear Modulus (GPa) = 25.57187 29.59405 27.58296
#
# Velocity S-wave (km/s) = 3.54889 3.81780 3.68579
# Velocity P-wave (km/s) = 5.36402 6.34434 5.87466
#
# Compressibility (1/GPa) = 0.04111200
#
# Stress axis : x y z
#
# Youngs Moduli (GPa) = 42.29919 42.29919 110.33296
#
# Poissons Ratio (x) = -0.17584 0.64953
# Poissons Ratio (y) = -0.17584 0.64953
# Poissons Ratio (z) = 0.24901 0.24901
#
# Static dielectric constant tensor:
#      x y z
#    x 1.796120 0.000000 0.000000 
#    y 0.000000 1.796120 0.000000 
#    z 0.000000 0.000000 1.782890 
# 
# From -- ./inp_files/5484.got.cif
#   From: 2010.05.17/outbox.cif.g08.bks.cpg/sg94_3_cif.got.tgz:5484.got - 2010.06.03 19:43:16.
