data_PCOD9549828
_publ_section_title
;
Structure prediction by ZEFSAII (Michael W. Deem and Ramdas Pophale) SiO2 
 PCOD9549828
Probable space group: P 42 2 2
;
_chemical_formula_sum "Si O2"
_cell_formula_units_Z 20
_cell_length_a 5.182702
_cell_length_b 5.182702
_cell_length_c 29.250976
_cell_angle_alpha 90.000000
_cell_angle_beta 90.000000
_cell_angle_gamma 90.000000
_cell_volume 785.692916
_symmetry_space_group_name_H-M "P 42 2 2"
_symmetry_group_IT_number 93
_symmetry_cell_setting 'tetragonal'
loop_
_space_group_symop_operation_xyz
x,y,z
-y,x,1/2+z
-x,-y,z
y,-x,1/2+z
x,-y,-z
-x,y,-z
y,x,1/2-z
-y,-x,1/2-z
loop_
_atom_site_type_symbol
_atom_site_label
_atom_site_fract_x
_atom_site_fract_y
_atom_site_fract_z
Si Si1 0.315491 0.743836 0.679675
Si Si2 0.000000 0.000000 0.750000
Si Si3 0.000000 0.000000 0.000000
Si Si4 0.674068 0.252650 0.576689
O O1 0.500000 0.500000 0.689043
O O2 0.074617 0.778264 0.713504
O O3 0.212636 0.722311 0.627666
O O4 0.500000 0.000000 0.684158
O O5 0.809760 0.145233 0.965411
O O6 0.500000 0.500000 0.567997
O O7 0.500000 0.000000 0.579652
#
# Coordination Sequence:
#
# PCOD9549828 Si02
#       4
#     8   2   2   8
#     4  10  24  44  67  99 146 190 240 311 383 453
#     4  12  24  36  70 100 136 184 256 298 372 456
#     4  12  24  42  76 102 136 198 252 310 380 458
#     4  10  24  45  66 101 145 188 242 308 377 453
#
# _framework density 25.455234999999998
#
# number of rings (size 3 to 8) (size 9 to 14) (size 15 to 20)
#    0.000    1.600    0.000    2.400    5.600    6.400 
#    0.000   12.000    0.000    0.000    0.000    0.000 
#    0.000    0.000    0.000    0.000    0.000    0.000 
#
# Total GULP energy -111886.499330 kJ/mol
# GULP energy per Si atom -5594.324966 kJ/mol
# Density = 2.539730 g / cm^3
# Si number density = 25.455235 Si / 1000 Ang^3
#
#
#
# Elastic Constant Matrix: (Units=GPa)
#
#
# Indices 1 2 3 4 5 6 
#
# 1 157.2677 69.8038 93.6502 0.0000 0.0000 0.0000
# 2 69.8038 157.2677 93.6502 0.0000 0.0000 0.0000
# 3 93.6502 93.6502 278.9054 0.0000 0.0000 0.0000
# 4 0.0000 0.0000 0.0000 -96.5335 0.0000 0.0000
# 5 0.0000 0.0000 0.0000 0.0000 -96.5335 0.0000
# 6 0.0000 0.0000 0.0000 0.0000 0.0000 36.3362
#
#
#
# Elastic Compliance Matrix: (Units=1/GPa)
#
#
# Indices 1 2 3 4 5 6 
#
# 1 0.008762 -0.002671 -0.002045 0.000000 0.000000 0.000000
# 2 -0.002671 0.008762 -0.002045 0.000000 0.000000 0.000000
# 3 -0.002045 -0.002045 0.004959 0.000000 0.000000 0.000000
# 4 0.000000 0.000000 0.000000 -0.010359 0.000000 0.000000
# 5 0.000000 0.000000 0.000000 0.000000 -0.010359 0.000000
# 6 0.000000 0.000000 0.000000 0.000000 0.000000 0.027521
#
#
# Mechanical properties :
#
#
# Convention : Reuss Voigt Hill
#
# Bulk Modulus (GPa) = 111.60812 123.07212 117.34012
# Shear Modulus (GPa) = 109.18129 -8.92373 50.12878
#
# Velocity S-wave (km/s) = 6.55626 -1.87437 4.44248
# Velocity P-wave (km/s) = 10.06245 6.61582 8.51534
#
# Compressibility (1/GPa) = 0.00895992
#
# Stress axis : x y z
#
# Youngs Moduli (GPa) = 114.12813 114.12813 201.65793
#
# Poissons Ratio (x) = 0.30486 0.41243
# Poissons Ratio (y) = 0.30486 0.41243
# Poissons Ratio (z) = 0.23341 0.23341
#
# Static dielectric constant tensor:
#      x y z
#    x 2.014020 0.000000 0.000000 
#    y 0.000000 2.014020 0.000000 
#    z 0.000000 0.000000 2.035680 
# 
# From -- ./inp_files/7082.got.cif
#   From: 2010.05.17/outbox.cif.g08.bks.cpg/sg93_4_cif.got.tgz:7082.got - 2010.06.03 19:38:44.
