data_PCOD9549449
_publ_section_title
;
Structure prediction by ZEFSAII (Michael W. Deem and Ramdas Pophale) SiO2 
 PCOD9549449
Probable space group: P 41 21 2
;
_chemical_formula_sum "Si O2"
_cell_formula_units_Z 32
_cell_length_a 9.015042
_cell_length_b 9.015042
_cell_length_c 15.003392
_cell_angle_alpha 90.000000
_cell_angle_beta 90.000000
_cell_angle_gamma 90.000000
_cell_volume 1219.340405
_symmetry_space_group_name_H-M "P 41 21 2"
_symmetry_group_IT_number 92
_symmetry_cell_setting 'tetragonal'
loop_
_space_group_symop_operation_xyz
x,y,z
1/2-y,1/2+x,1/4+z
-x,-y,1/2+z
1/2+y,1/2-x,3/4+z
1/2+x,1/2-y,3/4-z
1/2-x,1/2+y,1/4-z
y,x,-z
-y,-x,1/2-z
loop_
_atom_site_type_symbol
_atom_site_label
_atom_site_fract_x
_atom_site_fract_y
_atom_site_fract_z
Si Si1 0.292996 0.044217 0.912174
Si Si2 0.690474 0.983102 0.069654
Si Si3 0.799109 0.935051 0.869966
Si Si4 0.209003 0.990989 0.116569
O O1 0.441245 0.144743 0.918537
O O2 0.154835 0.139721 0.874800
O O3 0.351370 0.922733 0.843861
O O4 0.245974 0.983217 0.009687
O O5 0.825379 0.940227 0.135279
O O6 0.629580 0.149181 0.078381
O O7 0.750119 0.958266 0.971750
O O8 0.869397 0.092854 0.848907
#
# Coordination Sequence:
#
# PCOD9549449 Si02
#       4
#     8   8   8   8
#     4  11  23  43  67  99 135 181 232 286 348 413
#     4  11  22  39  66  98 138 181 229 281 344 410
#     4  11  23  42  67 101 140 180 227 286 342 413
#     4  11  24  44  68  97 137 177 230 287 346 415
#
# _framework density 26.2437
#
# number of rings (size 3 to 8) (size 9 to 14) (size 15 to 20)
#    0.000    1.000    0.000    9.000    0.000    2.000 
#    0.000   15.000    0.000    0.000    0.000    0.000 
#    0.000    0.000    0.000    0.000    0.000    0.000 
#
# Total GULP energy -179106.684167 kJ/mol
# GULP energy per Si atom -5597.083880 kJ/mol
# Density = 2.618397 g / cm^3
# Si number density = 26.243700 Si / 1000 Ang^3
#
#
#
# Elastic Constant Matrix: (Units=GPa)
#
#
# Indices 1 2 3 4 5 6 
#
# 1 98.7158 40.5486 37.9994 0.0000 0.0000 0.0000
# 2 40.5486 98.7158 37.9994 0.0000 0.0000 0.0000
# 3 37.9994 37.9994 91.2758 0.0000 0.0000 0.0000
# 4 0.0000 0.0000 0.0000 30.2385 0.0000 0.0000
# 5 0.0000 0.0000 0.0000 0.0000 30.2385 0.0000
# 6 0.0000 0.0000 0.0000 0.0000 0.0000 68.5089
#
#
#
# Elastic Compliance Matrix: (Units=1/GPa)
#
#
# Indices 1 2 3 4 5 6 
#
# 1 0.013242 -0.003950 -0.003868 0.000000 0.000000 0.000000
# 2 -0.003950 0.013242 -0.003868 0.000000 0.000000 0.000000
# 3 -0.003868 -0.003868 0.014177 0.000000 0.000000 0.000000
# 4 0.000000 0.000000 0.000000 0.033070 0.000000 0.000000
# 5 0.000000 0.000000 0.000000 0.000000 0.033070 0.000000
# 6 0.000000 0.000000 0.000000 0.000000 0.000000 0.014597
#
#
# Mechanical properties :
#
#
# Convention : Reuss Voigt Hill
#
# Bulk Modulus (GPa) = 57.84748 57.97805 57.91276
# Shear Modulus (GPa) = 33.21535 37.27450 35.24493
#
# Velocity S-wave (km/s) = 3.56146 3.77280 3.66865
# Velocity P-wave (km/s) = 6.24518 6.41240 6.32934
#
# Compressibility (1/GPa) = 0.01728684
#
# Stress axis : x y z
#
# Youngs Moduli (GPa) = 75.51915 75.51915 70.53889
#
# Poissons Ratio (x) = 0.29831 0.27286
# Poissons Ratio (y) = 0.29831 0.27286
# Poissons Ratio (z) = 0.29212 0.29212
#
# Static dielectric constant tensor:
#      x y z
#    x 2.108440 0.000000 0.000000 
#    y 0.000000 2.108440 0.000000 
#    z 0.000000 0.000000 2.465260 
# 
# From -- ./inp_files/3369.got.cif
#   From: 2010.05.17/outbox.cif.g08.bks.cpg/sg92_2_cif.got.tgz:3369.got - 2010.06.03 19:35:17.
