data_PCOD9549982
_publ_section_title
;
Structure prediction by ZEFSAII (Michael W. Deem and Ramdas Pophale) SiO2 
 PCOD9549982
Probable space group: P 42 21 2
;
_chemical_formula_sum "Si O2"
_cell_formula_units_Z 40
_cell_length_a 11.383740
_cell_length_b 11.383740
_cell_length_c 14.093182
_cell_angle_alpha 90.000000
_cell_angle_beta 90.000000
_cell_angle_gamma 90.000000
_cell_volume 1826.328922
_symmetry_space_group_name_H-M "P 42 21 2"
_symmetry_group_IT_number 94
_symmetry_cell_setting 'tetragonal'
loop_
_space_group_symop_operation_xyz
x,y,z
1/2-y,1/2+x,1/2+z
-x,-y,z
1/2+y,1/2-x,1/2+z
1/2+x,1/2-y,1/2-z
1/2-x,1/2+y,1/2-z
y,x,-z
-y,-x,-z
loop_
_atom_site_type_symbol
_atom_site_label
_atom_site_fract_x
_atom_site_fract_y
_atom_site_fract_z
Si Si1 0.993697 0.837037 0.058272
Si Si2 0.474178 0.297422 0.838960
Si Si3 0.837261 0.363192 0.018034
Si Si4 0.344585 0.508702 0.776268
Si Si5 0.409801 0.099928 0.695785
O O1 0.052365 0.707282 0.063724
O O2 0.997878 0.879358 0.166241
O O3 0.089346 0.910655 0.000000
O O4 0.873148 0.873148 0.000000
O O5 0.524663 0.213799 0.923171
O O6 0.362272 0.387711 0.836036
O O7 0.577341 0.391284 0.824324
O O8 0.452044 0.217767 0.746771
O O9 0.728144 0.271857 0.000000
O O10 0.890355 0.392952 0.916147
O O11 0.215604 0.558718 0.769385
O O12 0.500000 0.000000 0.720805
#
# Coordination Sequence:
#
# PCOD9549982 Si02
#       5
#     8   8   8   8   8
#     4  10  19  37  68 101 135 181 238 293 356 438
#     4  11  24  46  73 100 142 193 240 303 369 442
#     4  11  22  43  68 101 147 189 235 301 366 442
#     4  11  24  44  72 103 138 192 245 297 374 444
#     4  12  27  43  71 106 145 184 241 303 367 437
#
# _framework density 21.901861
#
# number of rings (size 3 to 8) (size 9 to 14) (size 15 to 20)
#    0.000    1.000    2.000    7.200    2.800    3.200 
#    0.000    0.000    0.000    0.000    0.000    0.000 
#    0.000    0.000    0.000    0.000    0.000    0.000 
#
# Total GULP energy -222793.600770 kJ/mol
# GULP energy per Si atom -5569.840019 kJ/mol
# Density = 2.185201 g / cm^3
# Si number density = 21.901861 Si / 1000 Ang^3
#
#
#
# Elastic Constant Matrix: (Units=GPa)
#
#
# Indices 1 2 3 4 5 6 
#
# 1 2.1477 68.8928 15.4124 0.0000 0.0000 0.0000
# 2 68.8928 2.1523 15.4096 0.0000 0.0000 0.0000
# 3 15.4124 15.4096 70.1257 0.0000 0.0000 0.0000
# 4 0.0000 0.0000 0.0000 41.6672 0.0000 0.0000
# 5 0.0000 0.0000 0.0000 0.0000 41.6834 0.0000
# 6 0.0000 0.0000 0.0000 0.0000 0.0000 -17.9546
#
#
#
# Elastic Compliance Matrix: (Units=1/GPa)
#
#
# Indices 1 2 3 4 5 6 
#
# 1 0.000288 0.015271 -0.003419 0.000000 0.000000 0.000000
# 2 0.015271 0.000289 -0.003420 0.000000 0.000000 0.000000
# 3 -0.003419 -0.003420 0.015763 0.000000 0.000000 0.000000
# 4 0.000000 0.000000 0.000000 0.024000 0.000000 0.000000
# 5 0.000000 0.000000 0.000000 0.000000 0.023990 0.000000
# 6 0.000000 0.000000 0.000000 0.000000 0.000000 -0.055696
#
#
# Mechanical properties :
#
#
# Convention : Reuss Voigt Hill
#
# Bulk Modulus (GPa) = 30.11643 30.42837 30.27240
# Shear Modulus (GPa) = 1762.38750 11.39327 886.89038
#
# Velocity S-wave (km/s) = 28.39756 2.28326 20.14491
# Velocity P-wave (km/s) = 33.00014 4.56883 23.55720
#
# Compressibility (1/GPa) = 0.03320447
#
# Stress axis : x y z
#
# Youngs Moduli (GPa) = 3476.47379 3460.12300 63.43955
#
# Poissons Ratio (x) = -52.84028 0.21690
# Poissons Ratio (y) = -53.08997 0.21695
# Poissons Ratio (z) = 11.88594 11.83314
#
# Static dielectric constant tensor:
#      x y z
#    x 1.005670 0.000000 0.000000 
#    y 0.000000 1.003520 0.000000 
#    z 0.000000 0.000000 1.750810 
# 
# From -- ./inp_files/3430.got.cif
#   From: 2010.05.17/outbox.cif.g08.bks.cpg/sg94_2_cif.got.tgz:3430.got - 2010.06.03 19:43:16.
