data_PCOD9549063
_publ_section_title
;
Structure prediction by ZEFSAII (Michael W. Deem and Ramdas Pophale) SiO2 
 PCOD9549063
Probable space group: P 41 21 2
;
_chemical_formula_sum "Si O2"
_cell_formula_units_Z 44
_cell_length_a 18.602485
_cell_length_b 18.602485
_cell_length_c 7.077539
_cell_angle_alpha 90.000000
_cell_angle_beta 90.000000
_cell_angle_gamma 90.000000
_cell_volume 2449.199698
_symmetry_space_group_name_H-M "P 41 21 2"
_symmetry_group_IT_number 92
_symmetry_cell_setting 'tetragonal'
loop_
_space_group_symop_operation_xyz
x,y,z
1/2-y,1/2+x,1/4+z
-x,-y,1/2+z
1/2+y,1/2-x,3/4+z
1/2+x,1/2-y,3/4-z
1/2-x,1/2+y,1/4-z
y,x,-z
-y,-x,1/2-z
loop_
_atom_site_type_symbol
_atom_site_label
_atom_site_fract_x
_atom_site_fract_y
_atom_site_fract_z
Si Si1 0.047774 0.414945 0.180984
Si Si2 0.205673 0.476338 0.662699
Si Si3 0.757577 0.653440 0.896853
Si Si4 0.203540 0.203540 0.000000
Si Si5 0.693276 0.137052 0.754240
Si Si6 0.279172 0.625424 0.627217
O O1 0.073550 0.489765 0.267632
O O2 0.011515 0.370132 0.351259
O O3 0.115496 0.373765 0.092496
O O4 0.203866 0.427421 0.849661
O O5 0.259356 0.543653 0.669256
O O6 0.248184 0.360068 0.172401
O O7 0.802530 0.716856 0.405910
O O8 0.774913 0.578744 0.996238
O O9 0.690542 0.690542 0.000000
O O10 0.823968 0.709569 0.920143
O O11 0.143257 0.201961 0.159684
O O12 0.344048 0.655953 0.750000
#
# Coordination Sequence:
#
# PCOD9549063 Si02
#       6
#     8   8   8   4   8   8
#     4  12  23  37  51  86 128 168 198 237 305 380
#     4  12  21  37  58  87 118 158 206 248 307 374
#     4  10  21  40  58  85 118 153 212 256 296 360
#     4  10  20  40  58  84 116 156 210 256 298 356
#     4  11  22  36  61  84 117 165 206 252 309 356
#     4  10  21  36  57  85 117 154 198 259 306 359
#
# _framework density 17.965052
#
# number of rings (size 3 to 8) (size 9 to 14) (size 15 to 20)
#    0.000    1.091    5.455    4.364    0.000    4.364 
#    0.000    0.000    0.000    0.000    9.455    0.000 
#    0.000    0.000    0.000    0.000    0.000    0.000 
#
# Total GULP energy -245657.440645 kJ/mol
# GULP energy per Si atom -5583.123651 kJ/mol
# Density = 1.792416 g / cm^3
# Si number density = 17.965052 Si / 1000 Ang^3
#
#
#
# Elastic Constant Matrix: (Units=GPa)
#
#
# Indices 1 2 3 4 5 6 
#
# 1 47.7564 20.0243 13.7879 0.0000 0.0000 0.0000
# 2 20.0243 47.7563 13.7911 0.0000 0.0000 0.0000
# 3 13.7879 13.7911 74.4606 0.0000 0.0000 0.0000
# 4 0.0000 0.0000 0.0000 29.0718 0.0000 0.0000
# 5 0.0000 0.0000 0.0000 0.0000 29.0717 0.0000
# 6 0.0000 0.0000 0.0000 0.0000 0.0000 29.2915
#
#
#
# Elastic Compliance Matrix: (Units=1/GPa)
#
#
# Indices 1 2 3 4 5 6 
#
# 1 0.026007 -0.010052 -0.002954 0.000000 0.000000 0.000000
# 2 -0.010052 0.026008 -0.002956 0.000000 0.000000 0.000000
# 3 -0.002954 -0.002956 0.014524 0.000000 0.000000 0.000000
# 4 0.000000 0.000000 0.000000 0.034398 0.000000 0.000000
# 5 0.000000 0.000000 0.000000 0.000000 0.034398 0.000000
# 6 0.000000 0.000000 0.000000 0.000000 0.000000 0.034140
#
#
# Mechanical properties :
#
#
# Convention : Reuss Voigt Hill
#
# Bulk Modulus (GPa) = 28.88804 29.46442 29.17623
# Shear Modulus (GPa) = 23.48120 25.64500 24.56310
#
# Velocity S-wave (km/s) = 3.61924 3.78232 3.70167
# Velocity P-wave (km/s) = 5.79484 5.95912 5.87756
#
# Compressibility (1/GPa) = 0.03461640
#
# Stress axis : x y z
#
# Youngs Moduli (GPa) = 38.45089 38.44981 68.84980
#
# Poissons Ratio (x) = 0.38649 0.20338
# Poissons Ratio (y) = 0.38650 0.20350
# Poissons Ratio (z) = 0.11359 0.11365
#
# Static dielectric constant tensor:
#      x y z
#    x 1.613280 0.000000 0.000000 
#    y 0.000000 1.613280 0.000000 
#    z 0.000000 0.000000 1.663610 
# 
# From -- ./inp_files/596.got.cif
#   From: 2010.05.17/outbox.cif.g08.bks.cpg/sg92_1_cif.got.tgz:596.got - 2010.06.03 19:35:17.
