data_PCOD9549557
_publ_section_title
;
Structure prediction by ZEFSAII (Michael W. Deem and Ramdas Pophale) SiO2 
 PCOD9549557
Probable space group: P 41 21 2
;
_chemical_formula_sum "Si O2"
_cell_formula_units_Z 40
_cell_length_a 13.774530
_cell_length_b 13.774530
_cell_length_c 10.143953
_cell_angle_alpha 90.000000
_cell_angle_beta 90.000000
_cell_angle_gamma 90.000000
_cell_volume 1924.690075
_symmetry_space_group_name_H-M "P 41 21 2"
_symmetry_group_IT_number 92
_symmetry_cell_setting 'tetragonal'
loop_
_space_group_symop_operation_xyz
x,y,z
1/2-y,1/2+x,1/4+z
-x,-y,1/2+z
1/2+y,1/2-x,3/4+z
1/2+x,1/2-y,3/4-z
1/2-x,1/2+y,1/4-z
y,x,-z
-y,-x,1/2-z
loop_
_atom_site_type_symbol
_atom_site_label
_atom_site_fract_x
_atom_site_fract_y
_atom_site_fract_z
Si Si1 0.061621 0.947423 0.400642
Si Si2 0.838647 0.673968 0.485407
Si Si3 0.442808 0.226458 0.782491
Si Si4 0.639527 0.804146 0.993914
Si Si5 0.729662 0.016935 0.980437
O O1 0.034071 0.965930 0.250000
O O2 0.084351 0.834136 0.419220
O O3 0.158945 0.003183 0.441681
O O4 0.977561 0.977561 0.500000
O O5 0.759739 0.759739 0.500000
O O6 0.844835 0.618753 0.625170
O O7 0.807890 0.593441 0.378535
O O8 0.943101 0.714146 0.446420
O O9 0.415828 0.211628 0.631256
O O10 0.733076 0.733076 0.000000
O O11 0.571030 0.776384 0.870993
O O12 0.671711 0.916177 0.980446
#
# Coordination Sequence:
#
# PCOD9549557 Si02
#       5
#     8   8   8   8   8
#     4  12  26  48  74 106 142 189 248 295 352 419
#     4  12  24  47  71 100 142 187 243 300 359 433
#     4  12  25  46  72 101 143 190 238 294 364 429
#     4  12  26  45  69 104 146 185 239 302 361 429
#     4  12  25  46  72 101 147 188 234 304 364 423
#
# _framework density 20.782567
#
# number of rings (size 3 to 8) (size 9 to 14) (size 15 to 20)
#    0.000    0.000    6.000    3.600    2.800    4.800 
#    7.200    0.000    0.000    0.000    0.000    0.000 
#    0.000    0.000    0.000    0.000    0.000    0.000 
#
# Total GULP energy -223940.738507 kJ/mol
# GULP energy per Si atom -5598.518463 kJ/mol
# Density = 2.073526 g / cm^3
# Si number density = 20.782567 Si / 1000 Ang^3
#
#
#
# Elastic Constant Matrix: (Units=GPa)
#
#
# Indices 1 2 3 4 5 6 
#
# 1 50.9499 57.3925 23.2254 0.0000 0.0000 0.0000
# 2 57.3925 50.9514 23.2269 0.0000 0.0000 0.0000
# 3 23.2254 23.2269 155.6920 0.0000 0.0000 0.0000
# 4 0.0000 0.0000 0.0000 22.0460 0.0000 0.0000
# 5 0.0000 0.0000 0.0000 0.0000 22.0463 0.0000
# 6 0.0000 0.0000 0.0000 0.0000 0.0000 28.3197
#
#
#
# Elastic Compliance Matrix: (Units=1/GPa)
#
#
# Indices 1 2 3 4 5 6 
#
# 1 -0.072688 0.082548 -0.001472 0.000000 0.000000 0.000000
# 2 0.082548 -0.072687 -0.001470 0.000000 0.000000 0.000000
# 3 -0.001472 -0.001470 0.006862 0.000000 0.000000 0.000000
# 4 0.000000 0.000000 0.000000 0.045360 0.000000 0.000000
# 5 0.000000 0.000000 0.000000 0.000000 0.045359 0.000000
# 6 0.000000 0.000000 0.000000 0.000000 0.000000 0.035311
#
#
# Mechanical properties :
#
#
# Convention : Reuss Voigt Hill
#
# Bulk Modulus (GPa) = 48.31140 51.69811 50.00475
# Shear Modulus (GPa) = -30.34047 24.73231 -2.80408
#
# Velocity S-wave (km/s) = -3.82501 3.45345 -1.16283
# Velocity P-wave (km/s) = 1.94653 6.38995 4.72337
#
# Compressibility (1/GPa) = 0.02069905
#
# Stress axis : x y z
#
# Youngs Moduli (GPa) = -13.75735 -13.75765 145.73375
#
# Poissons Ratio (x) = 1.13567 0.21447
# Poissons Ratio (y) = 1.13565 0.21428
# Poissons Ratio (z) = -0.02025 -0.02023
#
# Static dielectric constant tensor:
#      x y z
#    x 1.752220 0.000000 0.000000 
#    y 0.000000 1.752220 0.000000 
#    z 0.000000 0.000000 1.723350 
# 
# From -- ./inp_files/1333.got.cif
#   From: 2010.05.17/outbox.cif.g08.bks.cpg/sg92_1_cif.got.tgz:1333.got - 2010.06.03 19:35:17.
