data_PCOD9549878
_publ_section_title
;
Structure prediction by ZEFSAII (Michael W. Deem and Ramdas Pophale) SiO2 
 PCOD9549878
Probable space group: P 42 2 2
;
_chemical_formula_sum "Si O2"
_cell_formula_units_Z 20
_cell_length_a 8.600085
_cell_length_b 8.600085
_cell_length_c 12.302301
_cell_angle_alpha 90.000000
_cell_angle_beta 90.000000
_cell_angle_gamma 90.000000
_cell_volume 909.896168
_symmetry_space_group_name_H-M "P 42 2 2"
_symmetry_group_IT_number 93
_symmetry_cell_setting 'tetragonal'
loop_
_space_group_symop_operation_xyz
x,y,z
-y,x,1/2+z
-x,-y,z
y,-x,1/2+z
x,-y,-z
-x,y,-z
y,x,1/2-z
-y,-x,1/2-z
loop_
_atom_site_type_symbol
_atom_site_label
_atom_site_fract_x
_atom_site_fract_y
_atom_site_fract_z
Si Si1 0.586744 0.759674 0.332657
Si Si2 0.500000 0.000000 0.168014
Si Si3 0.334737 0.281849 0.954204
O O1 0.620644 0.620644 0.250000
O O2 0.410783 0.740639 0.376245
O O3 0.704734 0.764838 0.434630
O O4 0.604131 0.902581 0.251325
O O5 0.610469 0.119107 0.100020
O O6 0.500000 0.341049 0.000000
#
# Coordination Sequence:
#
# PCOD9549878 Si02
#       3
#     8   4   8
#     4  11  24  40  69 103 139 175 228 289 342 400
#     4  12  25  39  68 110 138 183 220 293 354 404
#     4  11  24  39  66 105 138 172 231 290 334 411
#
# _framework density 21.980533000000001
#
# number of rings (size 3 to 8) (size 9 to 14) (size 15 to 20)
#    0.000    0.800    4.000    4.200    5.600    3.200 
#    0.000    0.000    0.000    4.800   20.800    0.000 
#    0.000    0.000    0.000    0.000    0.000    0.000 
#
# Total GULP energy -111360.309161 kJ/mol
# GULP energy per Si atom -5568.015458 kJ/mol
# Density = 2.193050 g / cm^3
# Si number density = 21.980533 Si / 1000 Ang^3
#
#
#
# Elastic Constant Matrix: (Units=GPa)
#
#
# Indices 1 2 3 4 5 6 
#
# 1 98.8916 38.7863 80.1705 0.0000 0.0000 0.0000
# 2 38.7863 98.8916 80.1705 0.0000 0.0000 0.0000
# 3 80.1705 80.1705 209.0320 0.0000 0.0000 0.0000
# 4 0.0000 0.0000 0.0000 37.4630 0.0000 0.0000
# 5 0.0000 0.0000 0.0000 0.0000 37.4630 0.0000
# 6 0.0000 0.0000 0.0000 0.0000 0.0000 11.6964
#
#
#
# Elastic Compliance Matrix: (Units=1/GPa)
#
#
# Indices 1 2 3 4 5 6 
#
# 1 0.014882 -0.001755 -0.005034 0.000000 0.000000 0.000000
# 2 -0.001755 0.014882 -0.005034 0.000000 0.000000 0.000000
# 3 -0.005034 -0.005034 0.008646 0.000000 0.000000 0.000000
# 4 0.000000 0.000000 0.000000 0.026693 0.000000 0.000000
# 5 0.000000 0.000000 0.000000 0.000000 0.026693 0.000000
# 6 0.000000 0.000000 0.000000 0.000000 0.000000 0.085497
#
#
# Mechanical properties :
#
#
# Convention : Reuss Voigt Hill
#
# Bulk Modulus (GPa) = 67.74640 89.45219 78.59929
# Shear Modulus (GPa) = 24.28819 31.17033 27.72926
#
# Velocity S-wave (km/s) = 3.32774 3.76984 3.55567
# Velocity P-wave (km/s) = 6.75671 7.72873 7.25901
#
# Compressibility (1/GPa) = 0.01476093
#
# Stress axis : x y z
#
# Youngs Moduli (GPa) = 67.19538 67.19538 115.66461
#
# Poissons Ratio (x) = 0.11796 0.58231
# Poissons Ratio (y) = 0.11796 0.58231
# Poissons Ratio (z) = 0.33829 0.33829
#
# Static dielectric constant tensor:
#      x y z
#    x 1.975320 0.000000 0.000000 
#    y 0.000000 1.975320 0.000000 
#    z 0.000000 0.000000 1.907540 
# 
# From -- ./inp_files/2458.got.cif
#   From: 2010.05.17/outbox.cif.g08.bks.cpg/sg93_2_cif.got.tgz:2458.got - 2010.06.03 19:38:44.
