data_PCOD9549902
_publ_section_title
;
Structure prediction by ZEFSAII (Michael W. Deem and Ramdas Pophale) SiO2 
 PCOD9549902
Probable space group: P 42 2 2
;
_chemical_formula_sum "Si O2"
_cell_formula_units_Z 26
_cell_length_a 7.788856
_cell_length_b 7.788856
_cell_length_c 19.664193
_cell_angle_alpha 90.000000
_cell_angle_beta 90.000000
_cell_angle_gamma 90.000000
_cell_volume 1192.953395
_symmetry_space_group_name_H-M "P 42 2 2"
_symmetry_group_IT_number 93
_symmetry_cell_setting 'tetragonal'
loop_
_space_group_symop_operation_xyz
x,y,z
-y,x,1/2+z
-x,-y,z
y,-x,1/2+z
x,-y,-z
-x,y,-z
y,x,1/2-z
-y,-x,1/2-z
loop_
_atom_site_type_symbol
_atom_site_label
_atom_site_fract_x
_atom_site_fract_y
_atom_site_fract_z
Si Si1 0.788772 0.508989 0.922121
Si Si2 0.164379 0.174591 0.371664
Si Si3 0.785795 0.807472 0.824904
Si Si4 0.000000 0.000000 0.000000
O O1 0.731439 0.343537 0.879269
O O2 0.732755 0.680940 0.884771
O O3 0.000000 0.500000 0.921468
O O4 0.734133 0.500000 0.000000
O O5 0.002104 0.269888 0.339990
O O6 0.187173 0.995616 0.330656
O O7 0.112111 0.113892 0.448457
O O8 0.743673 0.743673 0.750000
#
# Coordination Sequence:
#
# PCOD9549902 Si02
#       4
#     8   8   8   2
#     4   9  15  23  37  58  86 125 165 204 251 303
#     4   9  14  22  35  53  83 125 161 196 252 304
#     4   9  16  24  35  55  89 126 156 200 252 298
#     4   8  12  20  36  56  84 126 166 206 254 298
#
# _framework density 21.794650000000001
#
# number of rings (size 3 to 8) (size 9 to 14) (size 15 to 20)
#    0.000    3.385    0.000    7.385    0.000    0.000 
#    0.000    0.000    0.000    0.000    0.000    0.000 
#    0.000   49.231    0.000 1500.923    0.000    0.000 
#
# Total GULP energy -145031.838845 kJ/mol
# GULP energy per Si atom -5578.147648 kJ/mol
# Density = 2.174504 g / cm^3
# Si number density = 21.794650 Si / 1000 Ang^3
#
#
#
# Elastic Constant Matrix: (Units=GPa)
#
#
# Indices 1 2 3 4 5 6 
#
# 1 73.0678 -2.9534 11.4873 0.0000 0.0000 0.0000
# 2 -2.9534 73.0678 11.4873 0.0000 0.0000 0.0000
# 3 11.4873 11.4873 121.8821 0.0000 0.0000 0.0000
# 4 0.0000 0.0000 0.0000 -1.6074 0.0000 0.0000
# 5 0.0000 0.0000 0.0000 0.0000 -1.6074 0.0000
# 6 0.0000 0.0000 0.0000 0.0000 0.0000 -5.6715
#
#
#
# Elastic Compliance Matrix: (Units=1/GPa)
#
#
# Indices 1 2 3 4 5 6 
#
# 1 0.013936 0.000781 -0.001387 0.000000 0.000000 0.000000
# 2 0.000781 0.013936 -0.001387 0.000000 0.000000 0.000000
# 3 -0.001387 -0.001387 0.008466 0.000000 0.000000 0.000000
# 4 0.000000 0.000000 0.000000 -0.622132 0.000000 0.000000
# 5 0.000000 0.000000 0.000000 0.000000 -0.622132 0.000000
# 6 0.000000 0.000000 0.000000 0.000000 0.000000 -0.176322
#
#
# Mechanical properties :
#
#
# Convention : Reuss Voigt Hill
#
# Bulk Modulus (GPa) = 30.91026 34.22888 32.56957
# Shear Modulus (GPa) = -3.65102 14.75586 5.55242
#
# Velocity S-wave (km/s) = -1.29570 2.60482 1.59785
# Velocity P-wave (km/s) = 3.46047 4.97856 4.28724
#
# Compressibility (1/GPa) = 0.03235171
#
# Stress axis : x y z
#
# Youngs Moduli (GPa) = 71.75882 71.75882 118.11805
#
# Poissons Ratio (x) = -0.05607 0.16384
# Poissons Ratio (y) = -0.05607 0.16384
# Poissons Ratio (z) = 0.09953 0.09953
#
# Static dielectric constant tensor:
#      x y z
#    x 1.878380 0.000000 0.000000 
#    y 0.000000 1.878380 0.000000 
#    z 0.000000 0.000000 1.772710 
# 
# From -- ./inp_files/5652.got.cif
#   From: 2010.05.17/outbox.cif.g08.bks.cpg/sg93_3_cif.got.tgz:5652.got - 2010.06.03 19:38:44.
