data_PCOD9549597
_publ_section_title
;
Structure prediction by ZEFSAII (Michael W. Deem and Ramdas Pophale) SiO2 
 PCOD9549597
Probable space group: P 42 2 2
;
_chemical_formula_sum "Si O2"
_cell_formula_units_Z 48
_cell_length_a 15.238045
_cell_length_b 15.238045
_cell_length_c 11.537774
_cell_angle_alpha 90.000000
_cell_angle_beta 90.000000
_cell_angle_gamma 90.000000
_cell_volume 2679.048225
_symmetry_space_group_name_H-M "P 42 2 2"
_symmetry_group_IT_number 93
_symmetry_cell_setting 'tetragonal'
loop_
_space_group_symop_operation_xyz
x,y,z
-y,x,1/2+z
-x,-y,z
y,-x,1/2+z
x,-y,-z
-x,y,-z
y,x,1/2-z
-y,-x,1/2-z
loop_
_atom_site_type_symbol
_atom_site_label
_atom_site_fract_x
_atom_site_fract_y
_atom_site_fract_z
Si Si1 0.914834 0.389079 0.202435
Si Si2 0.719784 0.468961 0.665214
Si Si3 0.325386 0.196687 0.497078
Si Si4 0.241649 0.664277 0.358490
Si Si5 0.406331 0.116490 0.277402
Si Si6 0.651913 0.436304 0.917446
O O1 0.882366 0.339769 0.086725
O O2 0.853936 0.353658 0.305551
O O3 0.893693 0.492246 0.178585
O O4 0.015802 0.379223 0.237888
O O5 0.725777 0.565845 0.611655
O O6 0.814626 0.420878 0.672800
O O7 0.688760 0.478314 0.799725
O O8 0.647258 0.404786 0.615705
O O9 0.248188 0.260606 0.543279
O O10 0.337367 0.159118 0.367791
O O11 0.404607 0.266998 0.496762
O O12 0.298963 0.701038 0.250000
O O13 0.599158 0.500000 0.000000
#
# Coordination Sequence:
#
# PCOD9549597 Si02
#       6
#     8   8   8   8   8   8
#     4   9  16  27  46  67  88 118 158 204 257 302
#     4   9  19  32  44  63  91 127 170 204 241 283
#     4  10  17  26  42  66  92 120 154 197 245 289
#     4   9  17  29  41  59  91 125 155 196 244 288
#     4   9  16  28  46  66  88 118 162 210 247 292
#     4  10  18  31  46  61  89 130 168 202 234 273
#
# _framework density 17.916809000000001
#
# number of rings (size 3 to 8) (size 9 to 14) (size 15 to 20)
#    0.000    2.667    0.000    5.000    0.000    2.000 
#    0.000   13.333    0.000    1.000    0.000    4.667 
#    0.000    0.000    0.000  220.500    0.000   16.000 
#
# Total GULP energy -267246.775411 kJ/mol
# GULP energy per Si atom -5567.641154 kJ/mol
# Density = 1.787603 g / cm^3
# Si number density = 17.916809 Si / 1000 Ang^3
#
#
#
# Elastic Constant Matrix: (Units=GPa)
#
#
# Indices 1 2 3 4 5 6 
#
# 1 90.1494 36.5041 18.7466 0.0000 0.0000 0.0000
# 2 36.5041 90.1502 18.7467 0.0000 0.0000 0.0000
# 3 18.7466 18.7467 39.4068 0.0000 0.0000 0.0000
# 4 0.0000 0.0000 0.0000 19.7684 0.0000 0.0000
# 5 0.0000 0.0000 0.0000 0.0000 19.7684 0.0000
# 6 0.0000 0.0000 0.0000 0.0000 0.0000 10.9321
#
#
#
# Elastic Compliance Matrix: (Units=1/GPa)
#
#
# Indices 1 2 3 4 5 6 
#
# 1 0.013915 -0.004726 -0.004372 0.000000 0.000000 0.000000
# 2 -0.004726 0.013915 -0.004372 0.000000 0.000000 0.000000
# 3 -0.004372 -0.004372 0.029536 0.000000 0.000000 0.000000
# 4 0.000000 0.000000 0.000000 0.050586 0.000000 0.000000
# 5 0.000000 0.000000 0.000000 0.000000 0.050586 0.000000
# 6 0.000000 0.000000 0.000000 0.000000 0.000000 0.091474
#
#
# Mechanical properties :
#
#
# Convention : Reuss Voigt Hill
#
# Bulk Modulus (GPa) = 32.86420 40.85570 36.85995
# Shear Modulus (GPa) = 17.41599 19.80772 18.61186
#
# Velocity S-wave (km/s) = 3.12115 3.32857 3.22653
# Velocity P-wave (km/s) = 5.60100 6.13392 5.87351
#
# Compressibility (1/GPa) = 0.03042824
#
# Stress axis : x y z
#
# Youngs Moduli (GPa) = 71.86331 71.86390 33.85721
#
# Poissons Ratio (x) = 0.33960 0.14801
# Poissons Ratio (y) = 0.33959 0.14802
# Poissons Ratio (z) = 0.31417 0.31417
#
# Static dielectric constant tensor:
#      x y z
#    x 1.633000 0.000000 0.000000 
#    y 0.000000 1.633000 0.000000 
#    z 0.000000 0.000000 1.698780 
# 
# From -- ./inp_files/3420.got.cif
#   From: 2010.05.17/outbox.cif.g08.bks.cpg/sg93_2_cif.got.tgz:3420.got - 2010.06.03 19:38:44.
