data_PCOD9549874
_publ_section_title
;
Structure prediction by ZEFSAII (Michael W. Deem and Ramdas Pophale) SiO2 
 PCOD9549874
Probable space group: P 42 2 2
;
_chemical_formula_sum "Si O2"
_cell_formula_units_Z 20
_cell_length_a 10.864249
_cell_length_b 10.864249
_cell_length_c 7.442610
_cell_angle_alpha 90.000000
_cell_angle_beta 90.000000
_cell_angle_gamma 90.000000
_cell_volume 878.465446
_symmetry_space_group_name_H-M "P 42 2 2"
_symmetry_group_IT_number 93
_symmetry_cell_setting 'tetragonal'
loop_
_space_group_symop_operation_xyz
x,y,z
-y,x,1/2+z
-x,-y,z
y,-x,1/2+z
x,-y,-z
-x,y,-z
y,x,1/2-z
-y,-x,1/2-z
loop_
_atom_site_type_symbol
_atom_site_label
_atom_site_fract_x
_atom_site_fract_y
_atom_site_fract_z
Si Si1 0.735145 0.264856 0.250000
Si Si2 0.484034 0.854340 0.785927
Si Si3 0.228955 0.868780 0.591241
O O1 0.771259 0.405279 0.209858
O O2 0.806200 0.221314 0.428253
O O3 0.353454 0.826996 0.694891
O O4 0.500000 0.000000 0.750767
O O5 0.500000 0.836978 0.000000
O O6 0.129560 0.870441 0.750000
O O7 0.248635 0.000000 0.500000
#
# Coordination Sequence:
#
# PCOD9549874 Si02
#       3
#     4   8   8
#     4  12  24  42  76 110 144 198 262 314 380 468
#     4  11  23  44  76 104 144 199 255 314 387 453
#     4  12  26  47  75 108 151 204 255 317 388 467
#
# _framework density 22.766973
#
# number of rings (size 3 to 8) (size 9 to 14) (size 15 to 20)
#    0.000    0.400    8.000    1.200    0.000    1.600 
#    0.000    4.000    0.000    0.000    0.000    0.000 
#    0.000    0.000    0.000    0.000    0.000    0.000 
#
# Total GULP energy -111747.409383 kJ/mol
# GULP energy per Si atom -5587.370469 kJ/mol
# Density = 2.271515 g / cm^3
# Si number density = 22.766973 Si / 1000 Ang^3
#
#
#
# Elastic Constant Matrix: (Units=GPa)
#
#
# Indices 1 2 3 4 5 6 
#
# 1 57.7266 52.4763 34.9805 0.0000 0.0000 0.0000
# 2 52.4763 57.7244 34.9791 0.0000 0.0000 0.0000
# 3 34.9805 34.9791 170.8792 0.0000 0.0000 0.0000
# 4 0.0000 0.0000 0.0000 29.2337 0.0000 0.0000
# 5 0.0000 0.0000 0.0000 0.0000 29.2339 0.0000
# 6 0.0000 0.0000 0.0000 0.0000 0.0000 33.6948
#
#
#
# Elastic Compliance Matrix: (Units=1/GPa)
#
#
# Indices 1 2 3 4 5 6 
#
# 1 0.100465 -0.090037 -0.002135 0.000000 0.000000 0.000000
# 2 -0.090037 0.100469 -0.002134 0.000000 0.000000 0.000000
# 3 -0.002135 -0.002134 0.006726 0.000000 0.000000 0.000000
# 4 0.000000 0.000000 0.000000 0.034207 0.000000 0.000000
# 5 0.000000 0.000000 0.000000 0.000000 0.034207 0.000000
# 6 0.000000 0.000000 0.000000 0.000000 0.000000 0.029678
#
#
# Mechanical properties :
#
#
# Convention : Reuss Voigt Hill
#
# Bulk Modulus (GPa) = 52.50599 59.02244 55.76421
# Shear Modulus (GPa) = 9.98571 29.35877 19.67224
#
# Velocity S-wave (km/s) = 2.09656 3.59490 2.94269
# Velocity P-wave (km/s) = 5.38267 6.57358 6.00771
#
# Compressibility (1/GPa) = 0.01904545
#
# Stress axis : x y z
#
# Youngs Moduli (GPa) = 9.95368 9.95336 148.67287
#
# Poissons Ratio (x) = 0.89617 0.31749
# Poissons Ratio (y) = 0.89620 0.31734
# Poissons Ratio (z) = 0.02126 0.02125
#
# Static dielectric constant tensor:
#      x y z
#    x 1.920390 0.000000 0.000000 
#    y 0.000000 1.920390 0.000000 
#    z 0.000000 0.000000 1.913020 
# 
# From -- ./inp_files/1146.got.cif
#   From: 2010.05.17/outbox.cif.g08.bks.cpg/sg93_1_cif.got.tgz:1146.got - 2010.06.03 19:38:44.
