data_PCOD9549604
_publ_section_title
;
Structure prediction by ZEFSAII (Michael W. Deem and Ramdas Pophale) SiO2 
 PCOD9549604
Probable space group: P 42 2 2
;
_chemical_formula_sum "Si O2"
_cell_formula_units_Z 40
_cell_length_a 12.673779
_cell_length_b 12.673779
_cell_length_c 14.883709
_cell_angle_alpha 90.000000
_cell_angle_beta 90.000000
_cell_angle_gamma 90.000000
_cell_volume 2390.690908
_symmetry_space_group_name_H-M "P 42 2 2"
_symmetry_group_IT_number 93
_symmetry_cell_setting 'tetragonal'
loop_
_space_group_symop_operation_xyz
x,y,z
-y,x,1/2+z
-x,-y,z
y,-x,1/2+z
x,-y,-z
-x,y,-z
y,x,1/2-z
-y,-x,1/2-z
loop_
_atom_site_type_symbol
_atom_site_label
_atom_site_fract_x
_atom_site_fract_y
_atom_site_fract_z
Si Si1 0.705320 0.153904 0.302197
Si Si2 0.589168 0.587054 0.105687
Si Si3 0.610874 0.938354 0.339032
Si Si4 0.249540 0.491329 0.258581
Si Si5 0.374033 0.209286 0.500163
O O1 0.808569 0.191432 0.250000
O O2 0.610042 0.209670 0.247761
O O3 0.683773 0.189262 0.405810
O O4 0.687000 0.029057 0.303968
O O5 0.500000 0.500000 0.088476
O O6 0.667789 0.532521 0.178214
O O7 0.536587 0.688042 0.152190
O O8 0.667850 0.627789 0.028448
O O9 0.580215 0.851580 0.264680
O O10 0.659424 0.872931 0.422398
O O11 0.500000 0.000000 0.362797
O O12 0.500000 0.187532 0.500000
#
# Coordination Sequence:
#
# PCOD9549604 Si02
#       5
#     8   8   8   8   8
#     4  11  20  31  46  73 102 130 171 226 264 300
#     4  10  18  29  43  68 105 138 167 199 247 312
#     4   9  17  30  52  69  96 132 175 221 251 303
#     4   9  17  29  44  67  97 136 168 201 253 310
#     4  11  19  31  48  73  99 137 179 205 257 315
#
# _framework density 16.731565
#
# number of rings (size 3 to 8) (size 9 to 14) (size 15 to 20)
#    0.000    2.000    6.000    3.000    0.000    0.400 
#    0.000    0.000    0.000    1.200    0.000   15.400 
#    0.000   12.800    0.000    0.000    0.000    0.000 
#
# Total GULP energy -222899.819743 kJ/mol
# GULP energy per Si atom -5572.495494 kJ/mol
# Density = 1.669348 g / cm^3
# Si number density = 16.731565 Si / 1000 Ang^3
#
#
#
# Elastic Constant Matrix: (Units=GPa)
#
#
# Indices 1 2 3 4 5 6 
#
# 1 98.1918 45.3441 45.0017 0.0000 0.0000 0.0000
# 2 45.3441 98.1935 45.0023 0.0000 0.0000 0.0000
# 3 45.0017 45.0023 60.7122 0.0000 0.0000 0.0000
# 4 0.0000 0.0000 0.0000 17.2423 0.0000 0.0000
# 5 0.0000 0.0000 0.0000 0.0000 17.2418 0.0000
# 6 0.0000 0.0000 0.0000 0.0000 0.0000 22.9780
#
#
#
# Elastic Compliance Matrix: (Units=1/GPa)
#
#
# Indices 1 2 3 4 5 6 
#
# 1 0.015970 -0.002953 -0.009649 0.000000 0.000000 0.000000
# 2 -0.002953 0.015969 -0.009649 0.000000 0.000000 0.000000
# 3 -0.009649 -0.009649 0.030775 0.000000 0.000000 0.000000
# 4 0.000000 0.000000 0.000000 0.057997 0.000000 0.000000
# 5 0.000000 0.000000 0.000000 0.000000 0.057999 0.000000
# 6 0.000000 0.000000 0.000000 0.000000 0.000000 0.043520
#
#
# Mechanical properties :
#
#
# Convention : Reuss Voigt Hill
#
# Bulk Modulus (GPa) = 54.90170 58.64375 56.77272
# Shear Modulus (GPa) = 18.32841 19.60904 18.96872
#
# Velocity S-wave (km/s) = 3.31333 3.42713 3.37071
# Velocity P-wave (km/s) = 6.89362 7.12644 7.01100
#
# Compressibility (1/GPa) = 0.01821437
#
# Stress axis : x y z
#
# Youngs Moduli (GPa) = 62.61894 62.61970 32.49388
#
# Poissons Ratio (x) = 0.18488 0.31352
# Poissons Ratio (y) = 0.18488 0.31352
# Poissons Ratio (z) = 0.60419 0.60420
#
# Static dielectric constant tensor:
#      x y z
#    x 1.580880 0.000000 0.000000 
#    y 0.000000 1.580880 0.000000 
#    z 0.000000 0.000000 1.623790 
# 
# From -- ./inp_files/4365.got.cif
#   From: 2010.05.17/outbox.cif.g08.bks.cpg/sg93_3_cif.got.tgz:4365.got - 2010.06.03 19:38:44.
