data_PCOD9549168
_publ_section_title
;
Structure prediction by ZEFSAII (Michael W. Deem and Ramdas Pophale) SiO2 
 PCOD9549168
Probable space group: P 41 21 2
;
_chemical_formula_sum "Si O2"
_cell_formula_units_Z 32
_cell_length_a 15.390016
_cell_length_b 15.390016
_cell_length_c 5.000996
_cell_angle_alpha 90.000000
_cell_angle_beta 90.000000
_cell_angle_gamma 90.000000
_cell_volume 1184.498868
_symmetry_space_group_name_H-M "P 41 21 2"
_symmetry_group_IT_number 92
_symmetry_cell_setting 'tetragonal'
loop_
_space_group_symop_operation_xyz
x,y,z
1/2-y,1/2+x,1/4+z
-x,-y,1/2+z
1/2+y,1/2-x,3/4+z
1/2+x,1/2-y,3/4-z
1/2-x,1/2+y,1/4-z
y,x,-z
-y,-x,1/2-z
loop_
_atom_site_type_symbol
_atom_site_label
_atom_site_fract_x
_atom_site_fract_y
_atom_site_fract_z
Si Si1 0.429429 0.112201 0.685291
Si Si2 0.251633 0.114517 0.498134
Si Si3 0.974974 0.119482 0.580721
Si Si4 0.510099 0.707558 0.208598
O O1 0.527701 0.095193 0.600104
O O2 0.354282 0.112569 0.458469
O O3 0.432810 0.208982 0.801763
O O4 0.207903 0.207903 0.500000
O O5 0.200495 0.048597 0.292659
O O6 0.230564 0.080016 0.799049
O O7 0.049428 0.049428 0.500000
O O8 0.946105 0.181870 0.342542
O O9 0.952301 0.114052 0.909822
#
# Coordination Sequence:
#
# PCOD9549168 Si02
#       4
#     8   8   8   8
#     4  10  22  40  70  98 132 177 219 277 331 407
#     4   9  22  42  62  98 134 171 222 275 333 390
#     4  10  21  42  64  93 129 169 222 268 328 394
#     4   9  22  41  63  98 125 170 216 268 330 391
#
# _framework density 27.015647999999999
#
# number of rings (size 3 to 8) (size 9 to 14) (size 15 to 20)
#    1.500    1.000    0.000    0.750    3.500    3.000 
#    9.000    0.000    0.000    0.000    0.000    0.000 
#    0.000    0.000    0.000    0.000    0.000    0.000 
#
# Total GULP energy -178272.805058 kJ/mol
# GULP energy per Si atom -5571.025158 kJ/mol
# Density = 2.695416 g / cm^3
# Si number density = 27.015648 Si / 1000 Ang^3
#
#
#
# Elastic Constant Matrix: (Units=GPa)
#
#
# Indices 1 2 3 4 5 6 
#
# 1 161.8295 57.9692 42.2655 0.0000 0.0000 0.0000
# 2 57.9692 161.8295 42.2655 0.0000 0.0000 0.0000
# 3 42.2655 42.2655 154.5800 0.0000 0.0000 0.0000
# 4 0.0000 0.0000 0.0000 35.5221 0.0000 0.0000
# 5 0.0000 0.0000 0.0000 0.0000 35.5221 0.0000
# 6 0.0000 0.0000 0.0000 0.0000 0.0000 48.2726
#
#
#
# Elastic Compliance Matrix: (Units=1/GPa)
#
#
# Indices 1 2 3 4 5 6 
#
# 1 0.007356 -0.002272 -0.001390 0.000000 0.000000 0.000000
# 2 -0.002272 0.007356 -0.001390 0.000000 0.000000 0.000000
# 3 -0.001390 -0.001390 0.007229 0.000000 0.000000 0.000000
# 4 0.000000 0.000000 0.000000 0.028151 0.000000 0.000000
# 5 0.000000 0.000000 0.000000 0.000000 0.028151 0.000000
# 6 0.000000 0.000000 0.000000 0.000000 0.000000 0.020716
#
#
# Mechanical properties :
#
#
# Convention : Reuss Voigt Hill
#
# Bulk Modulus (GPa) = 84.47905 84.80436 84.64171
# Shear Modulus (GPa) = 44.24350 46.24595 45.24473
#
# Velocity S-wave (km/s) = 4.05124 4.14190 4.09682
# Velocity P-wave (km/s) = 7.29532 7.37108 7.33330
#
# Compressibility (1/GPa) = 0.01183725
#
# Stress axis : x y z
#
# Youngs Moduli (GPa) = 135.93824 135.93824 138.32538
#
# Poissons Ratio (x) = 0.30886 0.19229
# Poissons Ratio (y) = 0.30886 0.19229
# Poissons Ratio (z) = 0.18897 0.18897
#
# Static dielectric constant tensor:
#      x y z
#    x 2.172190 0.000000 0.000000 
#    y 0.000000 2.172190 0.000000 
#    z 0.000000 0.000000 2.389450 
# 
# From -- ./inp_files/328.got.cif
#   From: 2010.05.17/outbox.cif.g08.bks.cpg/sg92_1_cif.got.tgz:328.got - 2010.06.03 19:35:17.
