data_PCOD9549693
_publ_section_title
;
Structure prediction by ZEFSAII (Michael W. Deem and Ramdas Pophale) SiO2 
 PCOD9549693
Probable space group: P 42 2 2
;
_chemical_formula_sum "Si O2"
_cell_formula_units_Z 26
_cell_length_a 11.618509
_cell_length_b 11.618509
_cell_length_c 8.884357
_cell_angle_alpha 90.000000
_cell_angle_beta 90.000000
_cell_angle_gamma 90.000000
_cell_volume 1199.297143
_symmetry_space_group_name_H-M "P 42 2 2"
_symmetry_group_IT_number 93
_symmetry_cell_setting 'tetragonal'
loop_
_space_group_symop_operation_xyz
x,y,z
-y,x,1/2+z
-x,-y,z
y,-x,1/2+z
x,-y,-z
-x,y,-z
y,x,1/2-z
-y,-x,1/2-z
loop_
_atom_site_type_symbol
_atom_site_label
_atom_site_fract_x
_atom_site_fract_y
_atom_site_fract_z
Si Si1 0.820060 0.500000 0.000000
Si Si2 0.000000 0.708421 0.500000
Si Si3 0.240967 0.260040 0.570429
Si Si4 0.500000 0.500000 0.250000
Si Si5 0.500000 0.693407 0.000000
Si Si6 0.500000 0.000000 0.234011
O O1 0.763249 0.371877 0.009457
O O2 0.892589 0.502163 0.152667
O O3 0.117659 0.785137 0.490380
O O4 0.998737 0.619058 0.358931
O O5 0.244494 0.244494 0.750000
O O6 0.228132 0.391650 0.521443
O O7 0.502754 0.610514 0.144185
#
# Coordination Sequence:
#
# PCOD9549693 Si02
#       6
#     4   4   8   2   4   4
#     4  11  24  43  72 104 144 187 260 309 372 443
#     4  11  24  42  70 103 150 195 250 296 391 443
#     4  12  25  43  67 106 150 194 242 314 372 452
#     4  10  20  34  52  94 144 182 230 304 380 430
#     4  11  22  33  56  90 140 186 234 290 370 434
#     4  10  22  44  70 102 136 196 260 304 358 464
#
# _framework density 21.679362999999999
#
# number of rings (size 3 to 8) (size 9 to 14) (size 15 to 20)
#    0.000    0.923    4.615    3.692    0.000    1.231 
#    0.000    0.000    0.000    3.692    0.000    0.000 
#    0.000    0.000    0.000    0.000    0.000    0.000 
#
# Total GULP energy -144950.165473 kJ/mol
# GULP energy per Si atom -5575.006364 kJ/mol
# Density = 2.163002 g / cm^3
# Si number density = 21.679363 Si / 1000 Ang^3
#
#
#
# Elastic Constant Matrix: (Units=GPa)
#
#
# Indices 1 2 3 4 5 6 
#
# 1 197.0314 -37.9731 30.8120 0.0000 0.0000 0.0000
# 2 -37.9731 197.0314 30.8120 0.0000 0.0000 0.0000
# 3 30.8120 30.8120 108.4906 0.0000 0.0000 0.0000
# 4 0.0000 0.0000 0.0000 -103.9110 0.0000 0.0000
# 5 0.0000 0.0000 0.0000 0.0000 -103.9110 0.0000
# 6 0.0000 0.0000 0.0000 0.0000 0.0000 5.6160
#
#
#
# Elastic Compliance Matrix: (Units=1/GPa)
#
#
# Indices 1 2 3 4 5 6 
#
# 1 0.005660 0.001405 -0.002006 0.000000 0.000000 0.000000
# 2 0.001405 0.005660 -0.002006 0.000000 0.000000 0.000000
# 3 -0.002006 -0.002006 0.010357 0.000000 0.000000 0.000000
# 4 0.000000 0.000000 0.000000 -0.009624 0.000000 0.000000
# 5 0.000000 0.000000 0.000000 0.000000 -0.009624 0.000000
# 6 0.000000 0.000000 0.000000 0.000000 0.000000 0.178062
#
#
# Mechanical properties :
#
#
# Convention : Reuss Voigt Hill
#
# Bulk Modulus (GPa) = 60.75193 61.09502 60.92347
# Shear Modulus (GPa) = 26.15139 -8.51436 8.81851
#
# Velocity S-wave (km/s) = 3.47692 -1.98392 2.01904
# Velocity P-wave (km/s) = 6.64849 4.79525 5.79642
#
# Compressibility (1/GPa) = 0.01646038
#
# Stress axis : x y z
#
# Youngs Moduli (GPa) = 176.68552 176.68552 96.55309
#
# Poissons Ratio (x) = -0.24816 0.19372
# Poissons Ratio (y) = -0.24816 0.19372
# Poissons Ratio (z) = 0.35449 0.35449
#
# Static dielectric constant tensor:
#      x y z
#    x 1.936690 0.000000 0.000000 
#    y 0.000000 1.936690 0.000000 
#    z 0.000000 0.000000 1.759910 
# 
# From -- ./inp_files/1399.got.cif
#   From: 2010.05.17/outbox.cif.g08.bks.cpg/sg93_1_cif.got.tgz:1399.got - 2010.06.03 19:38:44.
