data_PCOD9549381
_publ_section_title
;
Structure prediction by ZEFSAII (Michael W. Deem and Ramdas Pophale) SiO2 
 PCOD9549381
Probable space group: P 41 21 2
;
_chemical_formula_sum "Si O2"
_cell_formula_units_Z 44
_cell_length_a 11.585822
_cell_length_b 11.585822
_cell_length_c 13.807731
_cell_angle_alpha 90.000000
_cell_angle_beta 90.000000
_cell_angle_gamma 90.000000
_cell_volume 1853.429287
_symmetry_space_group_name_H-M "P 41 21 2"
_symmetry_group_IT_number 92
_symmetry_cell_setting 'tetragonal'
loop_
_space_group_symop_operation_xyz
x,y,z
1/2-y,1/2+x,1/4+z
-x,-y,1/2+z
1/2+y,1/2-x,3/4+z
1/2+x,1/2-y,3/4-z
1/2-x,1/2+y,1/4-z
y,x,-z
-y,-x,1/2-z
loop_
_atom_site_type_symbol
_atom_site_label
_atom_site_fract_x
_atom_site_fract_y
_atom_site_fract_z
Si Si1 0.259066 0.222028 0.288448
Si Si2 0.090922 0.394216 0.253159
Si Si3 0.787092 0.022093 0.742601
Si Si4 0.758036 0.758036 0.000000
Si Si5 0.846984 0.489326 0.201770
Si Si6 0.600273 0.218744 0.786654
O O1 0.182720 0.298993 0.215576
O O2 0.272542 0.286625 0.392319
O O3 0.388061 0.189634 0.258862
O O4 0.199494 0.097859 0.299738
O O5 0.026570 0.323893 0.337986
O O6 0.176114 0.498036 0.283632
O O7 0.983798 0.461768 0.206001
O O8 0.903685 0.096316 0.750000
O O9 0.689958 0.110504 0.784013
O O10 0.747451 0.970690 0.636391
O O11 0.890765 0.722484 0.005085
O O12 0.671057 0.328944 0.750000
#
# Coordination Sequence:
#
# PCOD9549381 Si02
#       6
#     8   8   8   4   8   8
#     4  11  25  44  73 101 143 188 249 302 380 454
#     4  11  24  42  71  98 139 191 239 301 372 453
#     4  11  27  48  76 112 149 203 259 322 387 468
#     4  10  24  44  66 106 130 188 236 300 372 440
#     4  11  22  45  68  98 137 185 238 295 365 443
#     4  11  26  48  77 111 152 199 265 318 384 466
#
# _framework density 23.739778000000001
#
# number of rings (size 3 to 8) (size 9 to 14) (size 15 to 20)
#    0.000    1.091    3.636    1.091   10.182    0.000 
#   11.455    0.000    0.000    0.000    0.000    0.000 
#    0.000    0.000    0.000    0.000    0.000    0.000 
#
# Total GULP energy -245013.386105 kJ/mol
# GULP energy per Si atom -5568.486048 kJ/mol
# Density = 2.368574 g / cm^3
# Si number density = 23.739778 Si / 1000 Ang^3
#
#
#
# Elastic Constant Matrix: (Units=GPa)
#
#
# Indices 1 2 3 4 5 6 
#
# 1 144.1346 91.6688 19.8845 0.0000 0.0000 0.0000
# 2 91.6688 144.1349 19.8844 0.0000 0.0000 0.0000
# 3 19.8845 19.8844 91.0337 0.0000 0.0000 0.0000
# 4 0.0000 0.0000 0.0000 26.1158 0.0000 0.0000
# 5 0.0000 0.0000 0.0000 0.0000 26.1158 0.0000
# 6 0.0000 0.0000 0.0000 0.0000 0.0000 51.5008
#
#
#
# Elastic Compliance Matrix: (Units=1/GPa)
#
#
# Indices 1 2 3 4 5 6 
#
# 1 0.011732 -0.007328 -0.000962 0.000000 0.000000 0.000000
# 2 -0.007328 0.011731 -0.000962 0.000000 0.000000 0.000000
# 3 -0.000962 -0.000962 0.011405 0.000000 0.000000 0.000000
# 4 0.000000 0.000000 0.000000 0.038291 0.000000 0.000000
# 5 0.000000 0.000000 0.000000 0.000000 0.038291 0.000000
# 6 0.000000 0.000000 0.000000 0.000000 0.000000 0.019417
#
#
# Mechanical properties :
#
#
# Convention : Reuss Voigt Hill
#
# Bulk Modulus (GPa) = 61.10928 71.35320 66.23124
# Shear Modulus (GPa) = 32.29431 37.27083 34.78257
#
# Velocity S-wave (km/s) = 3.69229 3.96659 3.83189
# Velocity P-wave (km/s) = 6.63133 7.14843 6.89473
#
# Compressibility (1/GPa) = 0.01636413
#
# Stress axis : x y z
#
# Youngs Moduli (GPa) = 85.24038 85.24065 87.68016
#
# Poissons Ratio (x) = 0.62469 0.08433
# Poissons Ratio (y) = 0.62468 0.08432
# Poissons Ratio (z) = 0.08198 0.08198
#
# Static dielectric constant tensor:
#      x y z
#    x 1.919970 0.000000 0.000000 
#    y 0.000000 1.919970 0.000000 
#    z 0.000000 0.000000 2.062100 
# 
# From -- ./inp_files/3051.got.cif
#   From: 2010.05.17/outbox.cif.g08.bks.cpg/sg92_2_cif.got.tgz:3051.got - 2010.06.03 19:35:17.
