data_PCOD9549190
_publ_section_title
;
Structure prediction by ZEFSAII (Michael W. Deem and Ramdas Pophale) SiO2 
 PCOD9549190
Probable space group: P 41 21 2
;
_chemical_formula_sum "Si O2"
_cell_formula_units_Z 40
_cell_length_a 7.626532
_cell_length_b 7.626532
_cell_length_c 26.753240
_cell_angle_alpha 90.000000
_cell_angle_beta 90.000000
_cell_angle_gamma 90.000000
_cell_volume 1556.075193
_symmetry_space_group_name_H-M "P 41 21 2"
_symmetry_group_IT_number 92
_symmetry_cell_setting 'tetragonal'
loop_
_space_group_symop_operation_xyz
x,y,z
1/2-y,1/2+x,1/4+z
-x,-y,1/2+z
1/2+y,1/2-x,3/4+z
1/2+x,1/2-y,3/4-z
1/2-x,1/2+y,1/4-z
y,x,-z
-y,-x,1/2-z
loop_
_atom_site_type_symbol
_atom_site_label
_atom_site_fract_x
_atom_site_fract_y
_atom_site_fract_z
Si Si1 0.990327 0.916877 0.441253
Si Si2 0.626316 0.765335 0.449900
Si Si3 0.767664 0.881837 0.316162
Si Si4 0.189634 0.808592 0.619954
Si Si5 0.530858 0.171340 0.455811
O O1 0.967537 0.967537 0.500000
O O2 0.821302 0.793221 0.428729
O O3 0.158147 0.796507 0.434193
O O4 0.969183 0.092598 0.408894
O O5 0.658381 0.658381 0.500000
O O6 0.469755 0.665605 0.422819
O O7 0.565168 0.964076 0.461547
O O8 0.748610 0.967333 0.261146
O O9 0.701298 0.027882 0.354787
O O10 0.259754 0.692760 0.574626
O O11 0.299506 0.872843 0.667129
#
# Coordination Sequence:
#
# PCOD9549190 Si02
#       5
#     8   8   8   8   8
#     4  10  22  49  68 103 147 188 245 307 369 437
#     4  10  21  44  73 101 142 193 236 299 367 437
#     4  12  24  46  78 101 148 197 246 312 379 449
#     4  11  26  43  70 109 146 193 257 304 381 461
#     4  11  25  48  65 110 150 186 250 319 367 459
#
# _framework density 25.705698999999999
#
# number of rings (size 3 to 8) (size 9 to 14) (size 15 to 20)
#    0.000    1.200    6.000    1.800    8.400    1.600 
#    3.600    0.000    0.000    0.000    0.000    0.000 
#    0.000    0.000    0.000    0.000    0.000    0.000 
#
# Total GULP energy -223795.924453 kJ/mol
# GULP energy per Si atom -5594.898111 kJ/mol
# Density = 2.564719 g / cm^3
# Si number density = 25.705699 Si / 1000 Ang^3
#
#
#
# Elastic Constant Matrix: (Units=GPa)
#
#
# Indices 1 2 3 4 5 6 
#
# 1 65.3133 2.2567 12.5260 0.0000 0.0000 0.0000
# 2 2.2567 65.3133 12.5260 0.0000 0.0000 0.0000
# 3 12.5260 12.5260 150.2256 0.0000 0.0000 0.0000
# 4 0.0000 0.0000 0.0000 40.1214 0.0000 0.0000
# 5 0.0000 0.0000 0.0000 0.0000 40.1214 0.0000
# 6 0.0000 0.0000 0.0000 0.0000 0.0000 44.3584
#
#
#
# Elastic Compliance Matrix: (Units=1/GPa)
#
#
# Indices 1 2 3 4 5 6 
#
# 1 0.015565 -0.000294 -0.001273 0.000000 0.000000 0.000000
# 2 -0.000294 0.015565 -0.001273 0.000000 0.000000 0.000000
# 3 -0.001273 -0.001273 0.006869 0.000000 0.000000 0.000000
# 4 0.000000 0.000000 0.000000 0.024924 0.000000 0.000000
# 5 0.000000 0.000000 0.000000 0.000000 0.024924 0.000000
# 6 0.000000 0.000000 0.000000 0.000000 0.000000 0.022544
#
#
# Mechanical properties :
#
#
# Convention : Reuss Voigt Hill
#
# Bulk Modulus (GPa) = 30.94186 37.27442 34.10814
# Shear Modulus (GPa) = 39.41812 41.82315 40.62064
#
# Velocity S-wave (km/s) = 3.92016 4.03798 3.97951
# Velocity P-wave (km/s) = 5.70555 6.02265 5.86625
#
# Compressibility (1/GPa) = 0.03231868
#
# Stress axis : x y z
#
# Youngs Moduli (GPa) = 64.24602 64.24602 145.58151
#
# Poissons Ratio (x) = 0.01886 0.18538
# Poissons Ratio (y) = 0.01886 0.18538
# Poissons Ratio (z) = 0.08181 0.08181
#
# Static dielectric constant tensor:
#      x y z
#    x 2.032540 0.000000 0.000000 
#    y 0.000000 2.032540 0.000000 
#    z 0.000000 0.000000 2.015060 
# 
# From -- ./inp_files/4176.got.cif
#   From: 2010.05.17/outbox.cif.g08.bks.cpg/sg92_3_cif.got.tgz:4176.got - 2010.06.03 19:35:17.
