data_PCOD9549939
_publ_section_title
;
Structure prediction by ZEFSAII (Michael W. Deem and Ramdas Pophale) SiO2 
 PCOD9549939
Probable space group: P 42 21 2
;
_chemical_formula_sum "Si O2"
_cell_formula_units_Z 56
_cell_length_a 12.038274
_cell_length_b 12.038274
_cell_length_c 18.963128
_cell_angle_alpha 90.000000
_cell_angle_beta 90.000000
_cell_angle_gamma 90.000000
_cell_volume 2748.137285
_symmetry_space_group_name_H-M "P 42 21 2"
_symmetry_group_IT_number 94
_symmetry_cell_setting 'tetragonal'
loop_
_space_group_symop_operation_xyz
x,y,z
1/2-y,1/2+x,1/2+z
-x,-y,z
1/2+y,1/2-x,1/2+z
1/2+x,1/2-y,1/2-z
1/2-x,1/2+y,1/2-z
y,x,-z
-y,-x,-z
loop_
_atom_site_type_symbol
_atom_site_label
_atom_site_fract_x
_atom_site_fract_y
_atom_site_fract_z
Si Si1 0.795617 0.081655 0.289914
Si Si2 0.383729 0.448466 0.420043
Si Si3 0.734706 0.326909 0.420281
Si Si4 0.885341 0.863742 0.316038
Si Si5 0.347110 0.238506 0.324204
Si Si6 0.587082 0.189741 0.305759
Si Si7 0.088001 0.849091 0.421903
O O1 0.832356 0.194435 0.250110
O O2 0.663027 0.084713 0.284808
O O3 0.826630 0.085608 0.371966
O O4 0.867497 0.975146 0.268928
O O5 0.500000 0.500000 0.393333
O O6 0.411299 0.411299 0.500000
O O7 0.289646 0.542721 0.410785
O O8 0.352653 0.339405 0.378331
O O9 0.695950 0.304051 0.500000
O O10 0.656354 0.258777 0.365364
O O11 0.859478 0.275800 0.417996
O O12 0.760516 0.834291 0.338675
O O13 0.920862 0.767613 0.262701
O O14 0.971357 0.864715 0.381175
O O15 0.461411 0.171596 0.328601
O O16 0.101718 0.898283 0.500000
#
# Coordination Sequence:
#
# PCOD9549939 Si02
#       7
#     8   8   8   8   8   8   8
#     4  10  22  37  60  85 114 163 206 258 314 378
#     4  11  19  33  60  92 115 151 202 252 313 380
#     4  10  18  34  61  92 119 156 209 261 319 373
#     4  11  23  39  57  90 122 162 215 256 320 382
#     4  11  22  37  60  87 125 155 200 269 317 384
#     4  10  20  36  59  88 120 154 205 267 322 378
#     4  10  22  39  62  87 122 166 217 258 302 383
#
# _framework density 20.37744
#
# number of rings (size 3 to 8) (size 9 to 14) (size 15 to 20)
#    0.000    1.571    4.286    1.286    0.000    1.714 
#    2.571    0.714    0.000    0.000    0.000    0.000 
#    0.000    0.000    0.000    0.000    0.000    0.000 
#
# Total GULP energy -312086.863663 kJ/mol
# GULP energy per Si atom -5572.979708 kJ/mol
# Density = 2.033106 g / cm^3
# Si number density = 20.377440 Si / 1000 Ang^3
#
#
#
# Elastic Constant Matrix: (Units=GPa)
#
#
# Indices 1 2 3 4 5 6 
#
# 1 111.8220 52.6372 20.5532 0.0000 0.0000 0.0000
# 2 52.6372 111.8220 20.5533 0.0000 0.0000 0.0000
# 3 20.5532 20.5533 103.8610 0.0000 0.0000 0.0000
# 4 0.0000 0.0000 0.0000 22.4686 0.0000 0.0000
# 5 0.0000 0.0000 0.0000 0.0000 22.4688 0.0000
# 6 0.0000 0.0000 0.0000 0.0000 0.0000 24.5459
#
#
#
# Elastic Compliance Matrix: (Units=1/GPa)
#
#
# Indices 1 2 3 4 5 6 
#
# 1 0.011647 -0.005250 -0.001266 0.000000 0.000000 0.000000
# 2 -0.005250 0.011647 -0.001266 0.000000 0.000000 0.000000
# 3 -0.001266 -0.001266 0.010129 0.000000 0.000000 0.000000
# 4 0.000000 0.000000 0.000000 0.044507 0.000000 0.000000
# 5 0.000000 0.000000 0.000000 0.000000 0.044506 0.000000
# 6 0.000000 0.000000 0.000000 0.000000 0.000000 0.040740
#
#
# Mechanical properties :
#
#
# Convention : Reuss Voigt Hill
#
# Bulk Modulus (GPa) = 55.99242 57.22137 56.60690
# Shear Modulus (GPa) = 27.07222 29.48075 28.27649
#
# Velocity S-wave (km/s) = 3.64887 3.80772 3.72914
# Velocity P-wave (km/s) = 6.72976 6.89009 6.81040
#
# Compressibility (1/GPa) = 0.01785956
#
# Stress axis : x y z
#
# Youngs Moduli (GPa) = 85.86204 85.86206 98.72369
#
# Poissons Ratio (x) = 0.45074 0.12497
# Poissons Ratio (y) = 0.45074 0.12497
# Poissons Ratio (z) = 0.10869 0.10869
#
# Static dielectric constant tensor:
#      x y z
#    x 1.834280 0.000000 0.000000 
#    y 0.000000 1.834280 0.000000 
#    z 0.000000 0.000000 1.753220 
# 
# From -- ./inp_files/4750.got.cif
#   From: 2010.05.17/outbox.cif.g08.bks.cpg/sg94_3_cif.got.tgz:4750.got - 2010.06.03 19:43:16.
