data_PCOD9549869
_publ_section_title
;
Structure prediction by ZEFSAII (Michael W. Deem and Ramdas Pophale) SiO2 
 PCOD9549869
Probable space group: P 42 2 2
;
_chemical_formula_sum "Si O2"
_cell_formula_units_Z 56
_cell_length_a 17.736251
_cell_length_b 17.736251
_cell_length_c 12.235127
_cell_angle_alpha 90.000000
_cell_angle_beta 90.000000
_cell_angle_gamma 90.000000
_cell_volume 3848.860176
_symmetry_space_group_name_H-M "P 42 2 2"
_symmetry_group_IT_number 93
_symmetry_cell_setting 'tetragonal'
loop_
_space_group_symop_operation_xyz
x,y,z
-y,x,1/2+z
-x,-y,z
y,-x,1/2+z
x,-y,-z
-x,y,-z
y,x,1/2-z
-y,-x,1/2-z
loop_
_atom_site_type_symbol
_atom_site_label
_atom_site_fract_x
_atom_site_fract_y
_atom_site_fract_z
Si Si1 0.911568 0.585930 0.636068
Si Si2 0.003437 0.761007 0.874443
Si Si3 0.954600 0.923026 0.871261
Si Si4 0.145221 0.731221 0.276900
Si Si5 0.854876 0.736878 0.281224
Si Si6 0.198137 0.915337 0.003121
Si Si7 0.588969 0.088356 0.873399
O O1 0.857502 0.641096 0.704173
O O2 0.903695 0.594263 0.504801
O O3 0.898704 0.497696 0.659754
O O4 0.000313 0.605187 0.656697
O O5 0.007138 0.851374 0.879719
O O6 0.924858 0.746142 0.807701
O O7 0.079250 0.738675 0.810467
O O8 0.000000 0.732367 0.000000
O O9 0.919705 0.919705 0.750000
O O10 0.887885 0.918675 0.957925
O O11 0.000000 0.000000 0.878469
O O12 0.221011 0.778990 0.250000
O O13 0.124999 0.760606 0.397804
O O14 0.775901 0.775901 0.250000
O O15 0.881931 0.786861 0.384904
O O16 0.856814 0.650574 0.321181
O O17 0.228458 0.000000 0.000000
#
# Coordination Sequence:
#
# PCOD9549869 Si02
#       7
#     8   8   8   8   8   8   8
#     4   9  17  32  57  80  95 122 166 222 268 298
#     4  12  24  35  41  62  93 131 171 204 249 303
#     4  11  23  33  41  55  85 129 173 211 244 285
#     4  12  21  34  51  71 100 131 161 212 262 298
#     4  12  24  33  51  71  98 131 163 215 260 297
#     4  12  20  34  47  63  90 129 173 216 251 281
#     4   9  17  33  56  79  97 119 168 224 266 298
#
# _framework density 14.549763
#
# number of rings (size 3 to 8) (size 9 to 14) (size 15 to 20)
#    0.000    1.000    7.143    1.714    6.000    0.000 
#    0.000    0.000    0.000    1.714    0.000    0.000 
#    0.000    0.571    0.000    3.143    0.000    0.000 
#
# Total GULP energy -312215.246895 kJ/mol
# GULP energy per Si atom -5575.272266 kJ/mol
# Density = 1.451665 g / cm^3
# Si number density = 14.549763 Si / 1000 Ang^3
#
#
#
# Elastic Constant Matrix: (Units=GPa)
#
#
# Indices 1 2 3 4 5 6 
#
# 1 87.0147 35.5530 21.5542 0.0000 0.0000 0.0000
# 2 35.5530 87.0147 21.5542 0.0000 0.0000 0.0000
# 3 21.5542 21.5542 76.9773 0.0000 0.0000 0.0000
# 4 0.0000 0.0000 0.0000 18.9127 0.0000 0.0000
# 5 0.0000 0.0000 0.0000 0.0000 18.9120 0.0000
# 6 0.0000 0.0000 0.0000 0.0000 0.0000 13.2974
#
#
#
# Elastic Compliance Matrix: (Units=1/GPa)
#
#
# Indices 1 2 3 4 5 6 
#
# 1 0.014241 -0.005191 -0.002534 0.000000 0.000000 0.000000
# 2 -0.005191 0.014241 -0.002534 0.000000 0.000000 0.000000
# 3 -0.002534 -0.002534 0.014410 0.000000 0.000000 0.000000
# 4 0.000000 0.000000 0.000000 0.052874 0.000000 0.000000
# 5 0.000000 0.000000 0.000000 0.000000 0.052876 0.000000
# 6 0.000000 0.000000 0.000000 0.000000 0.000000 0.075203
#
#
# Mechanical properties :
#
#
# Convention : Reuss Voigt Hill
#
# Bulk Modulus (GPa) = 44.69529 45.36992 45.03261
# Shear Modulus (GPa) = 19.85532 21.71412 20.78472
#
# Velocity S-wave (km/s) = 3.69812 3.86735 3.78369
# Velocity P-wave (km/s) = 7.00146 7.15487 7.07858
#
# Compressibility (1/GPa) = 0.02237372
#
# Stress axis : x y z
#
# Youngs Moduli (GPa) = 70.21995 70.21992 69.39651
#
# Poissons Ratio (x) = 0.36451 0.17586
# Poissons Ratio (y) = 0.36451 0.17586
# Poissons Ratio (z) = 0.17794 0.17794
#
# Static dielectric constant tensor:
#      x y z
#    x 1.504640 0.000000 0.000000 
#    y 0.000000 1.504640 0.000000 
#    z 0.000000 0.000000 1.260770 
# 
# From -- ./inp_files/3554.got.cif
#   From: 2010.05.17/outbox.cif.g08.bks.cpg/sg93_2_cif.got.tgz:3554.got - 2010.06.03 19:38:44.
