data_PCOD9549831
_publ_section_title
;
Structure prediction by ZEFSAII (Michael W. Deem and Ramdas Pophale) SiO2 
 PCOD9549831
Probable space group: P 42 2 2
;
_chemical_formula_sum "Si O2"
_cell_formula_units_Z 22
_cell_length_a 8.785427
_cell_length_b 8.785427
_cell_length_c 12.128902
_cell_angle_alpha 90.000000
_cell_angle_beta 90.000000
_cell_angle_gamma 90.000000
_cell_volume 936.153868
_symmetry_space_group_name_H-M "P 42 2 2"
_symmetry_group_IT_number 93
_symmetry_cell_setting 'tetragonal'
loop_
_space_group_symop_operation_xyz
x,y,z
-y,x,1/2+z
-x,-y,z
y,-x,1/2+z
x,-y,-z
-x,y,-z
y,x,1/2-z
-y,-x,1/2-z
loop_
_atom_site_type_symbol
_atom_site_label
_atom_site_fract_x
_atom_site_fract_y
_atom_site_fract_z
Si Si1 0.000000 0.000000 0.500000
Si Si2 0.500000 0.000000 0.817111
Si Si3 0.500000 0.744135 0.500000
Si Si4 0.251808 0.500000 0.500000
Si Si5 0.098616 0.727169 0.162318
O O1 0.124548 0.930130 0.413625
O O2 0.466050 0.140348 0.898467
O O3 0.351019 0.971297 0.740665
O O4 0.363799 0.634098 0.539059
O O5 0.588993 0.844428 0.587706
O O6 0.224327 0.775674 0.250000
#
# Coordination Sequence:
#
# PCOD9549831 Si02
#       5
#     2   4   4   4   8
#     4  12  30  50  72 112 156 214 274 334 376 488
#     4  11  24  49  76 118 154 217 266 333 402 482
#     4  11  24  47  74 116 156 206 264 332 396 492
#     4  10  24  46  78 108 166 202 268 328 406 490
#     4  12  26  48  78 112 157 211 266 328 406 463
#
# _framework density 23.500409999999999
#
# number of rings (size 3 to 8) (size 9 to 14) (size 15 to 20)
#    0.000    0.727    3.636    2.727    5.091    1.455 
#    6.545    0.000    0.000    0.000    0.000    0.000 
#    0.000    0.000    0.000    0.000    0.000    0.000 
#
# Total GULP energy -122606.463609 kJ/mol
# GULP energy per Si atom -5573.021073 kJ/mol
# Density = 2.344692 g / cm^3
# Si number density = 23.500410 Si / 1000 Ang^3
#
#
#
# Elastic Constant Matrix: (Units=GPa)
#
#
# Indices 1 2 3 4 5 6 
#
# 1 137.1174 71.8106 90.1443 0.0000 0.0000 0.0000
# 2 71.8106 137.1183 90.1447 0.0000 0.0000 0.0000
# 3 90.1443 90.1447 166.7920 0.0000 0.0000 0.0000
# 4 0.0000 0.0000 0.0000 14.1528 0.0000 0.0000
# 5 0.0000 0.0000 0.0000 0.0000 14.1472 0.0000
# 6 0.0000 0.0000 0.0000 0.0000 0.0000 23.9750
#
#
#
# Elastic Compliance Matrix: (Units=1/GPa)
#
#
# Indices 1 2 3 4 5 6 
#
# 1 0.012141 -0.003171 -0.004848 0.000000 0.000000 0.000000
# 2 -0.003171 0.012141 -0.004848 0.000000 0.000000 0.000000
# 3 -0.004848 -0.004848 0.011235 0.000000 0.000000 0.000000
# 4 0.000000 0.000000 0.000000 0.070657 0.000000 0.000000
# 5 0.000000 0.000000 0.000000 0.000000 0.070685 0.000000
# 6 0.000000 0.000000 0.000000 0.000000 0.000000 0.041710
#
#
# Mechanical properties :
#
#
# Convention : Reuss Voigt Hill
#
# Bulk Modulus (GPa) = 102.21007 105.02522 103.61764
# Shear Modulus (GPa) = 20.19676 23.05020 21.62348
#
# Velocity S-wave (km/s) = 2.93477 3.13524 3.03666
# Velocity P-wave (km/s) = 7.42099 7.60882 7.51549
#
# Compressibility (1/GPa) = 0.00978377
#
# Stress axis : x y z
#
# Youngs Moduli (GPa) = 82.36628 82.36672 89.00430
#
# Poissons Ratio (x) = 0.26122 0.43146
# Poissons Ratio (y) = 0.26122 0.43146
# Poissons Ratio (z) = 0.39928 0.39928
#
# Static dielectric constant tensor:
#      x y z
#    x 1.937610 0.000000 0.000000 
#    y 0.000000 1.937610 0.000000 
#    z 0.000000 0.000000 1.933780 
# 
# From -- ./inp_files/3882.got.cif
#   From: 2010.05.17/outbox.cif.g08.bks.cpg/sg93_2_cif.got.tgz:3882.got - 2010.06.03 19:38:44.
