data_PCOD9549110
_publ_section_title
;
Structure prediction by ZEFSAII (Michael W. Deem and Ramdas Pophale) SiO2 
 PCOD9549110
Probable space group: P 41 21 2
;
_chemical_formula_sum "Si O2"
_cell_formula_units_Z 44
_cell_length_a 14.514722
_cell_length_b 14.514722
_cell_length_c 10.254969
_cell_angle_alpha 90.000000
_cell_angle_beta 90.000000
_cell_angle_gamma 90.000000
_cell_volume 2160.487691
_symmetry_space_group_name_H-M "P 41 21 2"
_symmetry_group_IT_number 92
_symmetry_cell_setting 'tetragonal'
loop_
_space_group_symop_operation_xyz
x,y,z
1/2-y,1/2+x,1/4+z
-x,-y,1/2+z
1/2+y,1/2-x,3/4+z
1/2+x,1/2-y,3/4-z
1/2-x,1/2+y,1/4-z
y,x,-z
-y,-x,1/2-z
loop_
_atom_site_type_symbol
_atom_site_label
_atom_site_fract_x
_atom_site_fract_y
_atom_site_fract_z
Si Si1 0.004818 0.178934 0.834284
Si Si2 0.007846 0.007846 0.500000
Si Si3 0.316048 0.216272 0.612330
Si Si4 0.327417 0.222578 0.906351
Si Si5 0.477237 0.784144 0.150532
Si Si6 0.414709 0.655456 0.927753
O O1 0.911838 0.223391 0.779269
O O2 0.083317 0.162392 0.728133
O O3 0.990265 0.080474 0.905752
O O4 0.025394 0.248988 0.951680
O O5 0.098854 0.015071 0.589389
O O6 0.287899 0.287899 0.500000
O O7 0.308578 0.257820 0.759351
O O8 0.421872 0.181982 0.608710
O O9 0.241677 0.133821 0.607925
O O10 0.345846 0.113872 0.887003
O O11 0.240612 0.240612 0.000000
O O12 0.459973 0.696449 0.057433
#
# Coordination Sequence:
#
# PCOD9549110 Si02
#       6
#     8   4   8   8   8   8
#     4  11  22  36  63  95 123 161 206 263 320 369
#     4  12  22  32  58  98 128 152 200 262 320 376
#     4  10  22  38  60  90 125 167 207 253 318 370
#     4  10  21  39  61  92 127 167 212 257 309 376
#     4  10  21  37  62  86 121 172 206 248 308 382
#     4  11  21  38  57  93 129 154 205 262 314 373
#
# _framework density 20.365773999999998
#
# number of rings (size 3 to 8) (size 9 to 14) (size 15 to 20)
#    0.000    1.455    2.727    3.818    5.091    0.000 
#    0.000    0.000    0.000   19.636    0.000    0.000 
#    0.000    0.000    0.000    0.000    0.000    0.000 
#
# Total GULP energy -245399.511315 kJ/mol
# GULP energy per Si atom -5577.261621 kJ/mol
# Density = 2.031942 g / cm^3
# Si number density = 20.365774 Si / 1000 Ang^3
#
#
#
# Elastic Constant Matrix: (Units=GPa)
#
#
# Indices 1 2 3 4 5 6 
#
# 1 95.2453 61.7203 9.8515 0.0000 0.0000 0.0000
# 2 61.7203 95.2453 9.8515 0.0000 0.0000 0.0000
# 3 9.8515 9.8515 55.5269 0.0000 0.0000 0.0000
# 4 0.0000 0.0000 0.0000 20.2670 0.0000 0.0000
# 5 0.0000 0.0000 0.0000 0.0000 20.2670 0.0000
# 6 0.0000 0.0000 0.0000 0.0000 0.0000 29.4269
#
#
#
# Elastic Compliance Matrix: (Units=1/GPa)
#
#
# Indices 1 2 3 4 5 6 
#
# 1 0.018172 -0.011656 -0.001156 0.000000 0.000000 0.000000
# 2 -0.011656 0.018172 -0.001156 0.000000 0.000000 0.000000
# 3 -0.001156 -0.001156 0.018420 0.000000 0.000000 0.000000
# 4 0.000000 0.000000 0.000000 0.049341 0.000000 0.000000
# 5 0.000000 0.000000 0.000000 0.000000 0.049341 0.000000
# 6 0.000000 0.000000 0.000000 0.000000 0.000000 0.033983
#
#
# Mechanical properties :
#
#
# Convention : Reuss Voigt Hill
#
# Bulk Modulus (GPa) = 37.27561 45.42933 41.35247
# Shear Modulus (GPa) = 22.29073 24.96509 23.62791
#
# Velocity S-wave (km/s) = 3.31194 3.50499 3.40983
# Velocity P-wave (km/s) = 5.74178 6.22375 5.98762
#
# Compressibility (1/GPa) = 0.02682720
#
# Stress axis : x y z
#
# Youngs Moduli (GPa) = 55.02902 55.02902 54.29027
#
# Poissons Ratio (x) = 0.64143 0.06276
# Poissons Ratio (y) = 0.64143 0.06276
# Poissons Ratio (z) = 0.06362 0.06362
#
# Static dielectric constant tensor:
#      x y z
#    x 1.764280 0.000000 0.000000 
#    y 0.000000 1.764280 0.000000 
#    z 0.000000 0.000000 1.754410 
# 
# From -- ./inp_files/2109.got.cif
#   From: 2010.05.17/outbox.cif.g08.bks.cpg/sg92_2_cif.got.tgz:2109.got - 2010.06.03 19:35:17.
