data_PCOD9549182
_publ_section_title
;
Structure prediction by ZEFSAII (Michael W. Deem and Ramdas Pophale) SiO2 
 PCOD9549182
Probable space group: P 41 21 2
;
_chemical_formula_sum "Si O2"
_cell_formula_units_Z 60
_cell_length_a 17.367289
_cell_length_b 17.367289
_cell_length_c 9.181112
_cell_angle_alpha 90.000000
_cell_angle_beta 90.000000
_cell_angle_gamma 90.000000
_cell_volume 2769.232040
_symmetry_space_group_name_H-M "P 41 21 2"
_symmetry_group_IT_number 92
_symmetry_cell_setting 'tetragonal'
loop_
_space_group_symop_operation_xyz
x,y,z
1/2-y,1/2+x,1/4+z
-x,-y,1/2+z
1/2+y,1/2-x,3/4+z
1/2+x,1/2-y,3/4-z
1/2-x,1/2+y,1/4-z
y,x,-z
-y,-x,1/2-z
loop_
_atom_site_type_symbol
_atom_site_label
_atom_site_fract_x
_atom_site_fract_y
_atom_site_fract_z
Si Si1 0.588196 0.991516 0.643967
Si Si2 0.825793 0.021843 0.980268
Si Si3 0.810364 0.211967 0.423646
Si Si4 0.215564 0.127567 0.624544
Si Si5 0.495313 0.504688 0.250000
Si Si6 0.357875 0.180873 0.818861
Si Si7 0.642297 0.439058 0.555743
Si Si8 0.639857 0.207502 0.881757
O O1 0.543854 0.028934 0.778494
O O2 0.637959 0.060741 0.571270
O O3 0.645654 0.922463 0.686814
O O4 0.914543 0.015433 0.033559
O O5 0.828368 0.002684 0.808991
O O6 0.792115 0.101462 0.031521
O O7 0.775601 0.953531 0.045790
O O8 0.799012 0.200988 0.250000
O O9 0.767273 0.142295 0.507777
O O10 0.781267 0.292026 0.500064
O O11 0.187333 0.187333 0.500000
O O12 0.293676 0.144615 0.710608
O O13 0.140032 0.119727 0.724588
O O14 0.432677 0.526374 0.129082
O O15 0.323902 0.175838 0.981937
O O16 0.714505 0.408388 0.649570
#
# Coordination Sequence:
#
# PCOD9549182 Si02
#       8
#     8   8   8   8   4   8   8   8
#     4  10  26  48  72 105 140 184 240 302 369 429
#     4  11  27  42  67 107 149 186 239 296 361 431
#     4  12  29  45  73 107 142 191 247 303 362 438
#     4  10  21  43  68 101 142 187 235 288 358 438
#     4  12  24  40  68 106 146 188 242 286 366 440
#     4  11  24  46  73 105 142 180 249 298 359 440
#     4  11  23  41  72  97 140 198 226 292 360 433
#     4  11  26  47  73 105 136 189 242 299 361 436
#
# _framework density 21.666656
#
# number of rings (size 3 to 8) (size 9 to 14) (size 15 to 20)
#    0.000    1.067    3.333    2.000    9.333    5.333 
#    0.000    0.000    0.000    0.000    0.000    0.000 
#    0.000    0.000    0.000    0.000    0.000    0.000 
#
# Total GULP energy -335270.320179 kJ/mol
# GULP energy per Si atom -5587.838670 kJ/mol
# Density = 2.161734 g / cm^3
# Si number density = 21.666656 Si / 1000 Ang^3
#
#
#
# Elastic Constant Matrix: (Units=GPa)
#
#
# Indices 1 2 3 4 5 6 
#
# 1 50.7580 8.7839 10.2888 0.0000 0.0000 0.0000
# 2 8.7839 50.7535 10.2877 0.0000 0.0000 0.0000
# 3 10.2888 10.2877 66.8459 0.0000 0.0000 0.0000
# 4 0.0000 0.0000 0.0000 26.9945 0.0000 0.0000
# 5 0.0000 0.0000 0.0000 0.0000 26.9947 0.0000
# 6 0.0000 0.0000 0.0000 0.0000 0.0000 41.7247
#
#
#
# Elastic Compliance Matrix: (Units=1/GPa)
#
#
# Indices 1 2 3 4 5 6 
#
# 1 0.020781 -0.003043 -0.002730 0.000000 0.000000 0.000000
# 2 -0.003043 0.020783 -0.002730 0.000000 0.000000 0.000000
# 3 -0.002730 -0.002730 0.015800 0.000000 0.000000 0.000000
# 4 0.000000 0.000000 0.000000 0.037045 0.000000 0.000000
# 5 0.000000 0.000000 0.000000 0.000000 0.037044 0.000000
# 6 0.000000 0.000000 0.000000 0.000000 0.000000 0.023967
#
#
# Mechanical properties :
#
#
# Convention : Reuss Voigt Hill
#
# Bulk Modulus (GPa) = 24.77857 25.23091 25.00474
# Shear Modulus (GPa) = 26.89908 28.40925 27.65416
#
# Velocity S-wave (km/s) = 3.52731 3.62497 3.57648
# Velocity P-wave (km/s) = 5.29625 5.40286 5.34982
#
# Compressibility (1/GPa) = 0.04035746
#
# Stress axis : x y z
#
# Youngs Moduli (GPa) = 48.11997 48.11591 63.29038
#
# Poissons Ratio (x) = 0.14643 0.17280
# Poissons Ratio (y) = 0.14644 0.17279
# Poissons Ratio (z) = 0.13138 0.13136
#
# Static dielectric constant tensor:
#      x y z
#    x 1.804670 0.000000 0.000000 
#    y 0.000000 1.804670 0.000000 
#    z 0.000000 0.000000 1.814540 
# 
# From -- ./inp_files/1652.got.cif
#   From: 2010.05.17/outbox.cif.g08.bks.cpg/sg92_1_cif.got.tgz:1652.got - 2010.06.03 19:35:17.
