data_PCOD9549801
_publ_section_title
;
Structure prediction by ZEFSAII (Michael W. Deem and Ramdas Pophale) SiO2 
 PCOD9549801
Probable space group: P 42 2 2
;
_chemical_formula_sum "Si O2"
_cell_formula_units_Z 56
_cell_length_a 11.392493
_cell_length_b 11.392493
_cell_length_c 25.410941
_cell_angle_alpha 90.000000
_cell_angle_beta 90.000000
_cell_angle_gamma 90.000000
_cell_volume 3298.057998
_symmetry_space_group_name_H-M "P 42 2 2"
_symmetry_group_IT_number 93
_symmetry_cell_setting 'tetragonal'
loop_
_space_group_symop_operation_xyz
x,y,z
-y,x,1/2+z
-x,-y,z
y,-x,1/2+z
x,-y,-z
-x,y,-z
y,x,1/2-z
-y,-x,1/2-z
loop_
_atom_site_type_symbol
_atom_site_label
_atom_site_fract_x
_atom_site_fract_y
_atom_site_fract_z
Si Si1 0.734612 0.222447 0.657946
Si Si2 0.368778 0.012391 0.280772
Si Si3 0.632918 0.144436 0.559244
Si Si4 0.133417 0.646647 0.063205
Si Si5 0.355287 0.355287 0.750000
Si Si6 0.366670 0.633331 0.750000
Si Si7 0.236239 0.801138 0.333730
Si Si8 0.971752 0.162677 0.702961
O O1 0.698435 0.233461 0.597859
O O2 0.709025 0.326603 0.699065
O O3 0.866016 0.170402 0.661777
O O4 0.649825 0.121764 0.681184
O O5 0.323390 0.898995 0.310850
O O6 0.500000 0.000000 0.264322
O O7 0.287362 0.027213 0.230992
O O8 0.493294 0.153399 0.570544
O O9 0.663041 0.164699 0.498149
O O10 0.665953 0.007333 0.569425
O O11 0.201374 0.728568 0.104876
O O12 0.342817 0.495106 0.760281
O O13 0.312288 0.273958 0.799104
O O14 0.103524 0.847509 0.320320
O O15 0.921623 0.078378 0.750000
#
# Coordination Sequence:
#
# PCOD9549801 Si02
#       8
#     8   8   8   8   4   4   8   8
#     4  11  20  33  54  75 107 143 175 215 268 325
#     4  11  19  32  53  75 100 138 181 210 256 319
#     4   9  17  33  52  77 101 133 179 230 277 311
#     4   9  18  31  53  77 102 131 180 234 269 318
#     4  11  24  34  53  80 110 138 171 232 276 309
#     4  11  22  38  52  79 110 136 178 223 274 324
#     4  12  21  34  53  78 110 143 178 219 270 324
#     4  10  23  35  47  77 114 151 177 213 264 325
#
# _framework density 16.979690000000002
#
# number of rings (size 3 to 8) (size 9 to 14) (size 15 to 20)
#    0.000    1.571    5.000    3.429    0.000    4.000 
#    0.000    0.714    0.000    2.571    0.000    4.000 
#    0.000    3.429    0.000    0.000    0.000    0.000 
#
# Total GULP energy -311875.806431 kJ/mol
# GULP energy per Si atom -5569.210829 kJ/mol
# Density = 1.694104 g / cm^3
# Si number density = 16.979690 Si / 1000 Ang^3
#
#
#
# Elastic Constant Matrix: (Units=GPa)
#
#
# Indices 1 2 3 4 5 6 
#
# 1 103.7650 -7.5157 31.4047 0.0000 0.0000 0.0000
# 2 -7.5157 103.7628 31.4052 0.0000 0.0000 0.0000
# 3 31.4047 31.4052 113.0007 0.0000 0.0000 0.0000
# 4 0.0000 0.0000 0.0000 50.6496 0.0000 0.0000
# 5 0.0000 0.0000 0.0000 0.0000 50.6446 0.0000
# 6 0.0000 0.0000 0.0000 0.0000 0.0000 15.1900
#
#
#
# Elastic Compliance Matrix: (Units=1/GPa)
#
#
# Indices 1 2 3 4 5 6 
#
# 1 0.010839 0.001853 -0.003527 0.000000 0.000000 0.000000
# 2 0.001853 0.010839 -0.003527 0.000000 0.000000 0.000000
# 3 -0.003527 -0.003527 0.010810 0.000000 0.000000 0.000000
# 4 0.000000 0.000000 0.000000 0.019743 0.000000 0.000000
# 5 0.000000 0.000000 0.000000 0.000000 0.019745 0.000000
# 6 0.000000 0.000000 0.000000 0.000000 0.000000 0.065833
#
#
# Mechanical properties :
#
#
# Convention : Reuss Voigt Hill
#
# Bulk Modulus (GPa) = 45.28090 47.90188 46.59139
# Shear Modulus (GPa) = 32.13890 40.97913 36.55901
#
# Velocity S-wave (km/s) = 4.35533 4.91799 4.64519
# Velocity P-wave (km/s) = 7.21232 7.77954 7.50129
#
# Compressibility (1/GPa) = 0.02208437
#
# Stress axis : x y z
#
# Youngs Moduli (GPa) = 92.26070 92.25827 92.50637
#
# Poissons Ratio (x) = -0.17092 0.32629
# Poissons Ratio (y) = -0.17092 0.32630
# Poissons Ratio (z) = 0.32542 0.32542
#
# Static dielectric constant tensor:
#      x y z
#    x 1.613780 0.000000 0.000000 
#    y 0.000000 1.613780 0.000000 
#    z 0.000000 0.000000 1.594700 
# 
# From -- ./inp_files/6941.got.cif
#   From: 2010.05.17/outbox.cif.g08.bks.cpg/sg93_4_cif.got.tgz:6941.got - 2010.06.03 19:38:44.
