data_PCOD9549841
_publ_section_title
;
Structure prediction by ZEFSAII (Michael W. Deem and Ramdas Pophale) SiO2 
 PCOD9549841
Probable space group: P 42 2 2
;
_chemical_formula_sum "Si O2"
_cell_formula_units_Z 22
_cell_length_a 5.197025
_cell_length_b 5.197025
_cell_length_c 32.048207
_cell_angle_alpha 90.000000
_cell_angle_beta 90.000000
_cell_angle_gamma 90.000000
_cell_volume 865.592229
_symmetry_space_group_name_H-M "P 42 2 2"
_symmetry_group_IT_number 93
_symmetry_cell_setting 'tetragonal'
loop_
_space_group_symop_operation_xyz
x,y,z
-y,x,1/2+z
-x,-y,z
y,-x,1/2+z
x,-y,-z
-x,y,-z
y,x,1/2-z
-y,-x,1/2-z
loop_
_atom_site_type_symbol
_atom_site_label
_atom_site_fract_x
_atom_site_fract_y
_atom_site_fract_z
Si Si1 0.326421 0.757244 0.297010
Si Si2 0.000000 0.500000 0.500000
Si Si3 0.000000 0.500000 0.362011
Si Si4 0.177446 0.751511 0.928302
O O1 0.500000 0.500000 0.297659
O O2 0.219497 0.780504 0.250000
O O3 0.109433 0.714831 0.331186
O O4 0.500000 0.000000 0.306714
O O5 0.815370 0.673124 0.471097
O O6 0.777349 0.612693 0.391663
O O7 0.000000 0.500000 0.928951
O O8 0.000000 0.000000 0.921558
#
# Coordination Sequence:
#
# PCOD9549841 Si02
#       4
#     8   2   4   8
#     4  11  26  49  79 116 164 223 293 358 425 501
#     4  10  26  54  84 120 164 214 282 350 422 522
#     4  11  28  47  80 118 172 216 286 352 433 502
#     4  11  28  50  82 121 165 219 275 349 430 514
#
# _framework density 25.416121
#
# number of rings (size 3 to 8) (size 9 to 14) (size 15 to 20)
#    0.000    1.091    1.818    0.545   10.182    8.727 
#    0.000    5.455    0.000    0.000    0.000    0.000 
#    0.000    0.000    0.000    0.000    0.000    0.000 
#
# Total GULP energy -123577.140661 kJ/mol
# GULP energy per Si atom -5617.142757 kJ/mol
# Density = 2.535827 g / cm^3
# Si number density = 25.416121 Si / 1000 Ang^3
#
#
#
# Elastic Constant Matrix: (Units=GPa)
#
#
# Indices 1 2 3 4 5 6 
#
# 1 178.0867 92.6978 79.9836 0.0000 0.0000 0.0000
# 2 92.6978 178.0862 79.9835 0.0000 0.0000 0.0000
# 3 79.9836 79.9835 219.8721 0.0000 0.0000 0.0000
# 4 0.0000 0.0000 0.0000 8.0801 0.0000 0.0000
# 5 0.0000 0.0000 0.0000 0.0000 8.0802 0.0000
# 6 0.0000 0.0000 0.0000 0.0000 0.0000 78.1300
#
#
#
# Elastic Compliance Matrix: (Units=1/GPa)
#
#
# Indices 1 2 3 4 5 6 
#
# 1 0.008207 -0.003504 -0.001711 0.000000 0.000000 0.000000
# 2 -0.003504 0.008208 -0.001711 0.000000 0.000000 0.000000
# 3 -0.001711 -0.001711 0.005793 0.000000 0.000000 0.000000
# 4 0.000000 0.000000 0.000000 0.123761 0.000000 0.000000
# 5 0.000000 0.000000 0.000000 0.000000 0.123759 0.000000
# 6 0.000000 0.000000 0.000000 0.000000 0.000000 0.012799
#
#
# Mechanical properties :
#
#
# Convention : Reuss Voigt Hill
#
# Bulk Modulus (GPa) = 119.67193 120.15277 119.91235
# Shear Modulus (GPa) = 16.71319 40.41672 28.56496
#
# Velocity S-wave (km/s) = 2.56712 3.99206 3.35609
# Velocity P-wave (km/s) = 7.48158 8.28405 7.89302
#
# Compressibility (1/GPa) = 0.00835618
#
# Stress axis : x y z
#
# Youngs Moduli (GPa) = 121.83997 121.83967 172.62145
#
# Poissons Ratio (x) = 0.42689 0.29538
# Poissons Ratio (y) = 0.42689 0.29538
# Poissons Ratio (z) = 0.20848 0.20848
#
# Static dielectric constant tensor:
#      x y z
#    x 2.031780 0.000000 0.000000 
#    y 0.000000 2.031780 0.000000 
#    z 0.000000 0.000000 1.996270 
# 
# From -- ./inp_files/7526.got.cif
#   From: 2010.05.17/outbox.cif.g08.bks.cpg/sg93_4_cif.got.tgz:7526.got - 2010.06.03 19:38:44.
