data_PCOD9549234
_publ_section_title
;
Structure prediction by ZEFSAII (Michael W. Deem and Ramdas Pophale) SiO2 
 PCOD9549234
Probable space group: P 41 21 2
;
_chemical_formula_sum "Si O2"
_cell_formula_units_Z 44
_cell_length_a 11.048311
_cell_length_b 11.048311
_cell_length_c 17.121147
_cell_angle_alpha 90.000000
_cell_angle_beta 90.000000
_cell_angle_gamma 90.000000
_cell_volume 2089.895821
_symmetry_space_group_name_H-M "P 41 21 2"
_symmetry_group_IT_number 92
_symmetry_cell_setting 'tetragonal'
loop_
_space_group_symop_operation_xyz
x,y,z
1/2-y,1/2+x,1/4+z
-x,-y,1/2+z
1/2+y,1/2-x,3/4+z
1/2+x,1/2-y,3/4-z
1/2-x,1/2+y,1/4-z
y,x,-z
-y,-x,1/2-z
loop_
_atom_site_type_symbol
_atom_site_label
_atom_site_fract_x
_atom_site_fract_y
_atom_site_fract_z
Si Si1 0.007123 0.575605 0.132297
Si Si2 0.157457 0.157457 0.000000
Si Si3 0.914101 0.085900 0.250000
Si Si4 0.563481 0.539335 0.629970
Si Si5 0.636351 0.112612 0.270946
Si Si6 0.930099 0.302108 0.784203
Si Si7 0.621930 0.378070 0.250000
O O1 0.906632 0.608449 0.068863
O O2 0.966629 0.457560 0.180831
O O3 0.123994 0.529231 0.084569
O O4 0.026087 0.683066 0.194504
O O5 0.070228 0.122237 0.929181
O O6 0.295678 0.141148 0.971239
O O7 0.774135 0.070250 0.273451
O O8 0.957982 0.007265 0.176947
O O9 0.673025 0.585273 0.575926
O O10 0.497041 0.619811 0.695589
O O11 0.625199 0.252267 0.297135
#
# Coordination Sequence:
#
# PCOD9549234 Si02
#       7
#     8   4   4   8   8   8   4
#     4  10  22  40  64  91 123 170 214 261 319 379
#     4  11  23  41  61  96 132 168 217 265 323 381
#     4  11  23  41  63  90 124 166 205 267 323 373
#     4  11  24  40  64  95 130 168 212 265 321 385
#     4  10  22  42  63  90 126 165 214 266 317 383
#     4  11  22  40  63  94 128 168 213 266 315 387
#     4  10  24  40  62  94 126 166 210 266 312 386
#
# _framework density 21.05368
#
# number of rings (size 3 to 8) (size 9 to 14) (size 15 to 20)
#    0.000    1.455    1.818    2.727    5.091    0.000 
#    0.000    0.000    0.000    0.000    0.000    0.000 
#    0.000    0.000    0.000    0.000    0.000    0.000 
#
# Total GULP energy -245685.967727 kJ/mol
# GULP energy per Si atom -5583.771994 kJ/mol
# Density = 2.100576 g / cm^3
# Si number density = 21.053680 Si / 1000 Ang^3
#
#
#
# Elastic Constant Matrix: (Units=GPa)
#
#
# Indices 1 2 3 4 5 6 
#
# 1 51.6932 1.7346 7.6446 0.0000 0.0000 0.0000
# 2 1.7346 51.6937 7.6452 0.0000 0.0000 0.0000
# 3 7.6446 7.6452 81.0897 0.0000 0.0000 0.0000
# 4 0.0000 0.0000 0.0000 32.4795 0.0000 0.0000
# 5 0.0000 0.0000 0.0000 0.0000 32.4794 0.0000
# 6 0.0000 0.0000 0.0000 0.0000 0.0000 32.7925
#
#
#
# Elastic Compliance Matrix: (Units=1/GPa)
#
#
# Indices 1 2 3 4 5 6 
#
# 1 0.019626 -0.000390 -0.001813 0.000000 0.000000 0.000000
# 2 -0.000390 0.019626 -0.001814 0.000000 0.000000 0.000000
# 3 -0.001813 -0.001814 0.012674 0.000000 0.000000 0.000000
# 4 0.000000 0.000000 0.000000 0.030789 0.000000 0.000000
# 5 0.000000 0.000000 0.000000 0.000000 0.030789 0.000000
# 6 0.000000 0.000000 0.000000 0.000000 0.000000 0.030495
#
#
# Mechanical properties :
#
#
# Convention : Reuss Voigt Hill
#
# Bulk Modulus (GPa) = 22.78347 24.28060 23.53204
# Shear Modulus (GPa) = 30.00058 30.71378 30.35718
#
# Velocity S-wave (km/s) = 3.77896 3.82361 3.80135
# Velocity P-wave (km/s) = 5.46679 5.57235 5.51982
#
# Compressibility (1/GPa) = 0.04389146
#
# Stress axis : x y z
#
# Youngs Moduli (GPa) = 50.95240 50.95278 78.90196
#
# Poissons Ratio (x) = 0.01989 0.14308
# Poissons Ratio (y) = 0.01989 0.14309
# Poissons Ratio (z) = 0.09240 0.09241
#
# Static dielectric constant tensor:
#      x y z
#    x 1.753840 0.000000 0.000000 
#    y 0.000000 1.753830 0.000000 
#    z 0.000000 0.000000 1.768510 
# 
# From -- ./inp_files/3075.got.cif
#   From: 2010.05.17/outbox.cif.g08.bks.cpg/sg92_2_cif.got.tgz:3075.got - 2010.06.03 19:35:17.
