data_PCOD9549561
_publ_section_title
;
Structure prediction by ZEFSAII (Michael W. Deem and Ramdas Pophale) SiO2 
 PCOD9549561
Probable space group: P 41 21 2
;
_chemical_formula_sum "Si O2"
_cell_formula_units_Z 36
_cell_length_a 7.903606
_cell_length_b 7.903606
_cell_length_c 23.648076
_cell_angle_alpha 90.000000
_cell_angle_beta 90.000000
_cell_angle_gamma 90.000000
_cell_volume 1477.224075
_symmetry_space_group_name_H-M "P 41 21 2"
_symmetry_group_IT_number 92
_symmetry_cell_setting 'tetragonal'
loop_
_space_group_symop_operation_xyz
x,y,z
1/2-y,1/2+x,1/4+z
-x,-y,1/2+z
1/2+y,1/2-x,3/4+z
1/2+x,1/2-y,3/4-z
1/2-x,1/2+y,1/4-z
y,x,-z
-y,-x,1/2-z
loop_
_atom_site_type_symbol
_atom_site_label
_atom_site_fract_x
_atom_site_fract_y
_atom_site_fract_z
Si Si1 0.631380 0.668457 0.123227
Si Si2 0.933968 0.066033 0.250000
Si Si3 0.319310 0.148380 0.270345
Si Si4 0.497202 0.922306 0.347895
Si Si5 0.847472 0.061193 0.919130
O O1 0.659511 0.630552 0.056596
O O2 0.772054 0.716424 0.168547
O O3 0.515560 0.836185 0.121155
O O4 0.571054 0.487700 0.148775
O O5 0.902842 0.862676 0.256118
O O6 0.419198 0.285069 0.233290
O O7 0.441063 0.992122 0.286204
O O8 0.331864 0.936724 0.386808
O O9 0.551834 0.731262 0.344305
#
# Coordination Sequence:
#
# PCOD9549561 Si02
#       5
#     8   4   8   8   8
#     4  12  27  53  80 119 160 217 278 337 424 498
#     4  12  24  54  76 110 176 218 268 354 416 496
#     4  12  28  48  79 119 163 220 276 352 420 510
#     4  12  26  47  80 114 158 219 272 336 421 506
#     4  12  26  51  77 118 163 210 277 347 414 496
#
# _framework density 24.370035999999999
#
# number of rings (size 3 to 8) (size 9 to 14) (size 15 to 20)
#    0.000    0.000    6.667    2.000    3.111    1.778 
#    0.000    0.000    0.000    0.000    0.000    0.000 
#    0.000    0.000    0.000    0.000    0.000    0.000 
#
# Total GULP energy -201236.352284 kJ/mol
# GULP energy per Si atom -5589.898675 kJ/mol
# Density = 2.431457 g / cm^3
# Si number density = 24.370036 Si / 1000 Ang^3
#
#
#
# Elastic Constant Matrix: (Units=GPa)
#
#
# Indices 1 2 3 4 5 6 
#
# 1 92.7779 -5.5196 31.7382 0.0000 0.0000 0.0000
# 2 -5.5196 92.7776 31.7383 0.0000 0.0000 0.0000
# 3 31.7382 31.7383 140.2214 0.0000 0.0000 0.0000
# 4 0.0000 0.0000 0.0000 43.1869 0.0000 0.0000
# 5 0.0000 0.0000 0.0000 0.0000 43.1870 0.0000
# 6 0.0000 0.0000 0.0000 0.0000 0.0000-6637.1582
#
#
#
# Elastic Compliance Matrix: (Units=1/GPa)
#
#
# Indices 1 2 3 4 5 6 
#
# 1 0.011946 0.001773 -0.003105 0.000000 0.000000 0.000000
# 2 0.001773 0.011946 -0.003105 0.000000 0.000000 0.000000
# 3 -0.003105 -0.003105 0.008537 0.000000 0.000000 0.000000
# 4 0.000000 0.000000 0.000000 0.023155 0.000000 0.000000
# 5 0.000000 0.000000 0.000000 0.000000 0.023155 0.000000
# 6 0.000000 0.000000 0.000000 0.000000 0.000000 -0.000151
#
#
# Mechanical properties :
#
#
# Convention : Reuss Voigt Hill
#
# Bulk Modulus (GPa) = 42.45449 49.07674 45.76562
# Shear Modulus (GPa) = 52.45714 -1292.30220 -619.92253
#
# Velocity S-wave (km/s) = 4.64457 -23.05286 -15.96657
# Velocity P-wave (km/s) = 6.79862 26.23733 17.91893
#
# Compressibility (1/GPa) = 0.02355464
#
# Stress axis : x y z
#
# Youngs Moduli (GPa) = 83.70882 83.70851 117.13321
#
# Poissons Ratio (x) = -0.14841 0.36373
# Poissons Ratio (y) = -0.14841 0.36373
# Poissons Ratio (z) = 0.25994 0.25994
#
# Static dielectric constant tensor:
#      x y z
#    x 1.985450 0.000000 0.000000 
#    y 0.000000 1.985460 0.000000 
#    z 0.000000 0.000000 1.994260 
# 
# From -- ./inp_files/3456.got.cif
#   From: 2010.05.17/outbox.cif.g08.bks.cpg/sg92_2_cif.got.tgz:3456.got - 2010.06.03 19:35:17.
