data_PCOD9549096
_publ_section_title
;
Structure prediction by ZEFSAII (Michael W. Deem and Ramdas Pophale) SiO2 
 PCOD9549096
Probable space group: P 41 21 2
;
_chemical_formula_sum "Si O2"
_cell_formula_units_Z 36
_cell_length_a 8.391990
_cell_length_b 8.391990
_cell_length_c 18.157091
_cell_angle_alpha 90.000000
_cell_angle_beta 90.000000
_cell_angle_gamma 90.000000
_cell_volume 1278.722142
_symmetry_space_group_name_H-M "P 41 21 2"
_symmetry_group_IT_number 92
_symmetry_cell_setting 'tetragonal'
loop_
_space_group_symop_operation_xyz
x,y,z
1/2-y,1/2+x,1/4+z
-x,-y,1/2+z
1/2+y,1/2-x,3/4+z
1/2+x,1/2-y,3/4-z
1/2-x,1/2+y,1/4-z
y,x,-z
-y,-x,1/2-z
loop_
_atom_site_type_symbol
_atom_site_label
_atom_site_fract_x
_atom_site_fract_y
_atom_site_fract_z
Si Si1 0.024840 0.054843 0.121874
Si Si2 0.741748 0.695899 0.211031
Si Si3 0.484408 0.080425 0.402351
Si Si4 0.683588 0.762483 0.382743
Si Si5 0.810686 0.189315 0.250000
O O1 0.175197 0.148988 0.087701
O O2 0.891503 0.065369 0.060723
O O3 0.942258 0.154631 0.187332
O O4 0.097559 0.895990 0.155167
O O5 0.892887 0.609708 0.174201
O O6 0.723362 0.734751 0.296275
O O7 0.697440 0.863435 0.169452
O O8 0.354603 0.142989 0.462157
O O9 0.562804 0.906837 0.402505
#
# Coordination Sequence:
#
# PCOD9549096 Si02
#       5
#     8   8   8   8   4
#     4  10  23  42  68  97 138 173 227 284 353 401
#     4  10  22  44  67  99 133 180 227 280 339 421
#     4  10  23  43  73  93 138 181 230 284 340 411
#     4  11  23  44  65 106 133 177 227 291 346 410
#     4  10  20  48  64  94 134 186 228 282 332 442
#
# _framework density 28.153105
#
# number of rings (size 3 to 8) (size 9 to 14) (size 15 to 20)
#    0.000    1.778    2.222    0.667    0.000    7.111 
#    8.000    4.444    0.000    0.000    0.000    0.000 
#    0.000    0.000    0.000    0.000    0.000    0.000 
#
# Total GULP energy -201316.517001 kJ/mol
# GULP energy per Si atom -5592.125472 kJ/mol
# Density = 2.808903 g / cm^3
# Si number density = 28.153105 Si / 1000 Ang^3
#
#
#
# Elastic Constant Matrix: (Units=GPa)
#
#
# Indices 1 2 3 4 5 6 
#
# 1 56.9244 44.9206 1.7962 0.0000 0.0000 0.0000
# 2 44.9206 56.9246 1.7961 0.0000 0.0000 0.0000
# 3 1.7962 1.7961 125.4801 0.0000 0.0000 0.0000
# 4 0.0000 0.0000 0.0000 43.1745 0.0000 0.0000
# 5 0.0000 0.0000 0.0000 0.0000 43.1744 0.0000
# 6 0.0000 0.0000 0.0000 0.0000 0.0000 75.5737
#
#
#
# Elastic Compliance Matrix: (Units=1/GPa)
#
#
# Indices 1 2 3 4 5 6 
#
# 1 0.046565 -0.036741 -0.000141 0.000000 0.000000 0.000000
# 2 -0.036741 0.046565 -0.000141 0.000000 0.000000 0.000000
# 3 -0.000141 -0.000141 0.007973 0.000000 0.000000 0.000000
# 4 0.000000 0.000000 0.000000 0.023162 0.000000 0.000000
# 5 0.000000 0.000000 0.000000 0.000000 0.023162 0.000000
# 6 0.000000 0.000000 0.000000 0.000000 0.000000 0.013232
#
#
# Mechanical properties :
#
#
# Convention : Reuss Voigt Hill
#
# Bulk Modulus (GPa) = 36.95693 37.37277 37.16485
# Shear Modulus (GPa) = 20.51508 45.10561 32.81035
#
# Velocity S-wave (km/s) = 2.70237 4.00703 3.41754
# Velocity P-wave (km/s) = 4.78463 5.89170 5.36678
#
# Compressibility (1/GPa) = 0.02705852
#
# Stress axis : x y z
#
# Youngs Moduli (GPa) = 21.47539 21.47543 125.41679
#
# Poissons Ratio (x) = 0.78903 0.01764
# Poissons Ratio (y) = 0.78903 0.01763
# Poissons Ratio (z) = 0.00302 0.00302
#
# Static dielectric constant tensor:
#      x y z
#    x 2.288800 0.000000 0.000000 
#    y 0.000000 2.288800 0.000000 
#    z 0.000000 0.000000 2.258610 
# 
# From -- ./inp_files/3466.got.cif
#   From: 2010.05.17/outbox.cif.g08.bks.cpg/sg92_2_cif.got.tgz:3466.got - 2010.06.03 19:35:17.
