data_PCOD9549819
_publ_section_title
;
Structure prediction by ZEFSAII (Michael W. Deem and Ramdas Pophale) SiO2 
 PCOD9549819
Probable space group: P 42 2 2
;
_chemical_formula_sum "Si O2"
_cell_formula_units_Z 18
_cell_length_a 5.389120
_cell_length_b 5.389120
_cell_length_c 25.627436
_cell_angle_alpha 90.000000
_cell_angle_beta 90.000000
_cell_angle_gamma 90.000000
_cell_volume 744.287741
_symmetry_space_group_name_H-M "P 42 2 2"
_symmetry_group_IT_number 93
_symmetry_cell_setting 'tetragonal'
loop_
_space_group_symop_operation_xyz
x,y,z
-y,x,1/2+z
-x,-y,z
y,-x,1/2+z
x,-y,-z
-x,y,-z
y,x,1/2-z
-y,-x,1/2-z
loop_
_atom_site_type_symbol
_atom_site_label
_atom_site_fract_x
_atom_site_fract_y
_atom_site_fract_z
Si Si1 0.653737 0.240212 0.921222
Si Si2 0.000000 0.000000 0.000000
Si Si3 0.659029 0.245630 0.693073
O O1 0.500000 0.500000 0.925136
O O2 0.727998 0.194278 0.860736
O O3 0.500000 0.000000 0.937346
O O4 0.879514 0.200449 0.959896
O O5 0.500000 0.500000 0.695424
O O6 0.782151 0.217850 0.750000
O O7 0.500000 0.000000 0.685966
#
# Coordination Sequence:
#
# PCOD9549819 Si02
#       3
#     8   2   8
#     4  11  28  51  75 113 153 203 266 326 397 474
#     4  12  30  50  82 108 160 222 266 344 390 486
#     4  10  23  48  79 114 155 199 254 324 400 478
#
# _framework density 24.184197999999999
#
# number of rings (size 3 to 8) (size 9 to 14) (size 15 to 20)
#    0.000    1.333    0.000    2.000   12.444    5.333 
#    0.000    0.000    0.000    0.000    0.000    0.000 
#    0.000    0.000    0.000    0.000    0.000    0.000 
#
# Total GULP energy -100428.541880 kJ/mol
# GULP energy per Si atom -5579.363438 kJ/mol
# Density = 2.412915 g / cm^3
# Si number density = 24.184198 Si / 1000 Ang^3
#
#
#
# Elastic Constant Matrix: (Units=GPa)
#
#
# Indices 1 2 3 4 5 6 
#
# 1 93.8777 18.2077 19.4813 0.0000 0.0000 0.0000
# 2 18.2077 93.8783 19.4815 0.0000 0.0000 0.0000
# 3 19.4813 19.4815 235.2504 0.0000 0.0000 0.0000
# 4 0.0000 0.0000 0.0000 50.4676 0.0000 0.0000
# 5 0.0000 0.0000 0.0000 0.0000 50.4674 0.0000
# 6 0.0000 0.0000 0.0000 0.0000 0.0000 18.8753
#
#
#
# Elastic Compliance Matrix: (Units=1/GPa)
#
#
# Indices 1 2 3 4 5 6 
#
# 1 0.011201 -0.002015 -0.000761 0.000000 0.000000 0.000000
# 2 -0.002015 0.011201 -0.000761 0.000000 0.000000 0.000000
# 3 -0.000761 -0.000761 0.004377 0.000000 0.000000 0.000000
# 4 0.000000 0.000000 0.000000 0.019815 0.000000 0.000000
# 5 0.000000 0.000000 0.000000 0.000000 0.019815 0.000000
# 6 0.000000 0.000000 0.000000 0.000000 0.000000 0.052979
#
#
# Mechanical properties :
#
#
# Convention : Reuss Voigt Hill
#
# Bulk Modulus (GPa) = 50.74526 59.70526 55.22526
# Shear Modulus (GPa) = 37.58620 48.35112 42.96866
#
# Velocity S-wave (km/s) = 3.94656 4.47619 4.21969
# Velocity P-wave (km/s) = 6.46495 7.17331 6.82832
#
# Compressibility (1/GPa) = 0.01970628
#
# Stress axis : x y z
#
# Youngs Moduli (GPa) = 89.27981 89.28038 228.47832
#
# Poissons Ratio (x) = 0.17986 0.17381
# Poissons Ratio (y) = 0.17986 0.17381
# Poissons Ratio (z) = 0.06792 0.06792
#
# Static dielectric constant tensor:
#      x y z
#    x 1.498540 0.000000 0.000000 
#    y 0.000000 1.498540 0.000000 
#    z 0.000000 0.000000 2.710990 
# 
# From -- ./inp_files/6401.got.cif
#   From: 2010.05.17/outbox.cif.g08.bks.cpg/sg93_4_cif.got.tgz:6401.got - 2010.06.03 19:38:44.
