data_PCOD9549701
_publ_section_title
;
Structure prediction by ZEFSAII (Michael W. Deem and Ramdas Pophale) SiO2 
 PCOD9549701
Probable space group: P 42 2 2
;
_chemical_formula_sum "Si O2"
_cell_formula_units_Z 40
_cell_length_a 12.988106
_cell_length_b 12.988106
_cell_length_c 10.547948
_cell_angle_alpha 90.000000
_cell_angle_beta 90.000000
_cell_angle_gamma 90.000000
_cell_volume 1779.342815
_symmetry_space_group_name_H-M "P 42 2 2"
_symmetry_group_IT_number 93
_symmetry_cell_setting 'tetragonal'
loop_
_space_group_symop_operation_xyz
x,y,z
-y,x,1/2+z
-x,-y,z
y,-x,1/2+z
x,-y,-z
-x,y,-z
y,x,1/2-z
-y,-x,1/2-z
loop_
_atom_site_type_symbol
_atom_site_label
_atom_site_fract_x
_atom_site_fract_y
_atom_site_fract_z
Si Si1 0.253533 0.960069 0.858851
Si Si2 0.879741 0.421607 0.808861
Si Si3 0.208987 0.255006 0.024836
Si Si4 0.564557 0.702779 0.112619
Si Si5 0.500000 0.500000 0.250000
Si Si6 0.500000 0.000000 0.500000
Si Si7 0.161638 0.838363 0.250000
O O1 0.365147 0.949586 0.794889
O O2 0.206374 0.847134 0.886101
O O3 0.185438 0.042257 0.782134
O O4 0.268525 0.000000 0.000000
O O5 0.873375 0.334216 0.918615
O O6 0.773573 0.435438 0.736489
O O7 0.915773 0.520507 0.886534
O O8 0.320517 0.304435 0.056060
O O9 0.193886 0.223087 0.878490
O O10 0.511318 0.597883 0.157517
O O11 0.500000 0.753197 0.000000
#
# Coordination Sequence:
#
# PCOD9549701 Si02
#       7
#     8   8   8   8   2   2   4
#     4   9  19  37  65  95 127 167 214 266 332 407
#     4  11  23  44  61  90 131 176 210 284 344 406
#     4  10  21  43  64  90 136 177 207 278 360 388
#     4  11  24  41  67  94 127 175 223 283 348 403
#     4  12  22  46  64 102 130 172 236 282 350 426
#     4  12  28  36  66  94 122 172 240 270 336 422
#     4  10  20  35  69 103 127 168 232 266 326 427
#
# _framework density 22.480211000000001
#
# number of rings (size 3 to 8) (size 9 to 14) (size 15 to 20)
#    0.000    1.600    2.000    3.300    0.000    8.800 
#    0.000    2.000    0.000    9.600    0.000    0.000 
#    0.000    0.000    0.000    0.000    0.000    0.000 
#
# Total GULP energy -222682.793513 kJ/mol
# GULP energy per Si atom -5567.069838 kJ/mol
# Density = 2.242905 g / cm^3
# Si number density = 22.480211 Si / 1000 Ang^3
#
#
#
# Elastic Constant Matrix: (Units=GPa)
#
#
# Indices 1 2 3 4 5 6 
#
# 1 64.8405 36.1762 43.3305 0.0000 0.0000 0.0000
# 2 36.1762 64.8410 43.3307 0.0000 0.0000 0.0000
# 3 43.3305 43.3307 163.5344 0.0000 0.0000 0.0000
# 4 0.0000 0.0000 0.0000 38.5973 0.0000 0.0000
# 5 0.0000 0.0000 0.0000 0.0000 38.5969 0.0000
# 6 0.0000 0.0000 0.0000 0.0000 0.0000 23.3887
#
#
#
# Elastic Compliance Matrix: (Units=1/GPa)
#
#
# Indices 1 2 3 4 5 6 
#
# 1 0.023849 -0.011037 -0.003395 0.000000 0.000000 0.000000
# 2 -0.011037 0.023849 -0.003395 0.000000 0.000000 0.000000
# 3 -0.003395 -0.003395 0.007914 0.000000 0.000000 0.000000
# 4 0.000000 0.000000 0.000000 0.025909 0.000000 0.000000
# 5 0.000000 0.000000 0.000000 0.000000 0.025909 0.000000
# 6 0.000000 0.000000 0.000000 0.000000 0.000000 0.042756
#
#
# Mechanical properties :
#
#
# Convention : Reuss Voigt Hill
#
# Bulk Modulus (GPa) = 50.10400 59.87674 54.99037
# Shear Modulus (GPa) = 25.97531 31.47515 28.72523
#
# Velocity S-wave (km/s) = 3.40291 3.74589 3.57851
# Velocity P-wave (km/s) = 6.14623 6.73810 6.44896
#
# Compressibility (1/GPa) = 0.01995849
#
# Stress axis : x y z
#
# Youngs Moduli (GPa) = 41.93053 41.93086 126.36161
#
# Poissons Ratio (x) = 0.46281 0.42894
# Poissons Ratio (y) = 0.46280 0.42894
# Poissons Ratio (z) = 0.14234 0.14234
#
# Static dielectric constant tensor:
#      x y z
#    x 1.917490 0.000000 0.000000 
#    y 0.000000 1.917490 0.000000 
#    z 0.000000 0.000000 1.803350 
# 
# From -- ./inp_files/1924.got.cif
#   From: 2010.05.17/outbox.cif.g08.bks.cpg/sg93_1_cif.got.tgz:1924.got - 2010.06.03 19:38:44.
