data_PCOD9549440
_publ_section_title
;
Structure prediction by ZEFSAII (Michael W. Deem and Ramdas Pophale) SiO2 
 PCOD9549440
Probable space group: P 41 21 2
;
_chemical_formula_sum "Si O2"
_cell_formula_units_Z 56
_cell_length_a 15.472167
_cell_length_b 15.472167
_cell_length_c 11.430816
_cell_angle_alpha 90.000000
_cell_angle_beta 90.000000
_cell_angle_gamma 90.000000
_cell_volume 2736.399628
_symmetry_space_group_name_H-M "P 41 21 2"
_symmetry_group_IT_number 92
_symmetry_cell_setting 'tetragonal'
loop_
_space_group_symop_operation_xyz
x,y,z
1/2-y,1/2+x,1/4+z
-x,-y,1/2+z
1/2+y,1/2-x,3/4+z
1/2+x,1/2-y,3/4-z
1/2-x,1/2+y,1/4-z
y,x,-z
-y,-x,1/2-z
loop_
_atom_site_type_symbol
_atom_site_label
_atom_site_fract_x
_atom_site_fract_y
_atom_site_fract_z
Si Si1 0.955729 0.536582 0.774991
Si Si2 0.305936 0.264272 0.363768
Si Si3 0.844263 0.015943 0.722026
Si Si4 0.215507 0.097736 0.426552
Si Si5 0.937636 0.252047 0.002642
Si Si6 0.495509 0.778011 0.883599
Si Si7 0.376230 0.512389 0.445482
O O1 0.988215 0.485086 0.891990
O O2 0.850992 0.538328 0.778509
O O3 0.990315 0.633907 0.795539
O O4 0.292478 0.292478 0.500000
O O5 0.254253 0.175589 0.352334
O O6 0.265408 0.337195 0.282052
O O7 0.407049 0.246241 0.346719
O O8 0.900507 0.099494 0.750000
O O9 0.771238 0.037972 0.629227
O O10 0.809714 0.979424 0.843409
O O11 0.909686 0.942214 0.673645
O O12 0.134624 0.134624 0.500000
O O13 0.284685 0.065802 0.521376
O O14 0.983116 0.179668 0.084508
O O15 0.464036 0.696915 0.960255
O O16 0.434871 0.434871 0.500000
#
# Coordination Sequence:
#
# PCOD9549440 Si02
#       7
#     8   8   8   8   8   8   8
#     4  12  27  46  73  98 137 190 250 295 351 423
#     4  11  21  39  67  96 127 174 232 282 342 418
#     4  11  26  41  65 105 142 180 222 289 359 420
#     4  11  23  38  64  99 133 175 228 284 339 420
#     4  12  23  44  67  96 140 183 230 283 360 425
#     4  12  20  40  70  98 129 173 232 290 341 413
#     4  11  21  39  70 101 133 176 221 279 348 428
#
# _framework density 20.464846000000001
#
# number of rings (size 3 to 8) (size 9 to 14) (size 15 to 20)
#    0.000    0.571    5.714    3.857    0.000    2.286 
#    0.000    1.429    0.000    0.000    0.000    0.000 
#    0.000    0.000    0.000    0.000    0.000    0.000 
#
# Total GULP energy -312977.151402 kJ/mol
# GULP energy per Si atom -5588.877704 kJ/mol
# Density = 2.041827 g / cm^3
# Si number density = 20.464846 Si / 1000 Ang^3
#
#
#
# Elastic Constant Matrix: (Units=GPa)
#
#
# Indices 1 2 3 4 5 6 
#
# 1 49.0020 18.2258 33.2388 0.0000 0.0000 0.0000
# 2 18.2258 49.0044 33.2403 0.0000 0.0000 0.0000
# 3 33.2388 33.2403 89.7051 0.0000 0.0000 0.0000
# 4 0.0000 0.0000 0.0000 18.2757 0.0000 0.0000
# 5 0.0000 0.0000 0.0000 0.0000 18.2731 0.0000
# 6 0.0000 0.0000 0.0000 0.0000 0.0000 35.7908
#
#
#
# Elastic Compliance Matrix: (Units=1/GPa)
#
#
# Indices 1 2 3 4 5 6 
#
# 1 0.027984 -0.004507 -0.008699 0.000000 0.000000 0.000000
# 2 -0.004507 0.027983 -0.008699 0.000000 0.000000 0.000000
# 3 -0.008699 -0.008699 0.017594 0.000000 0.000000 0.000000
# 4 0.000000 0.000000 0.000000 0.054717 0.000000 0.000000
# 5 0.000000 0.000000 0.000000 0.000000 0.054725 0.000000
# 6 0.000000 0.000000 0.000000 0.000000 0.000000 0.027940
#
#
# Mechanical properties :
#
#
# Convention : Reuss Voigt Hill
#
# Bulk Modulus (GPa) = 33.61202 39.68013 36.64607
# Shear Modulus (GPa) = 18.89121 21.33503 20.11312
#
# Velocity S-wave (km/s) = 3.04156 3.23231 3.13839
# Velocity P-wave (km/s) = 5.36607 5.77598 5.57480
#
# Compressibility (1/GPa) = 0.02975126
#
# Stress axis : x y z
#
# Youngs Moduli (GPa) = 35.73408 35.73537 56.83629
#
# Poissons Ratio (x) = 0.16107 0.49442
# Poissons Ratio (y) = 0.16107 0.49443
# Poissons Ratio (z) = 0.31085 0.31087
#
# Static dielectric constant tensor:
#      x y z
#    x 1.735920 0.000000 0.000000 
#    y 0.000000 1.735920 0.000000 
#    z 0.000000 0.000000 1.789990 
# 
# From -- ./inp_files/2268.got.cif
#   From: 2010.05.17/outbox.cif.g08.bks.cpg/sg92_2_cif.got.tgz:2268.got - 2010.06.03 19:35:17.
