data_PCOD9549697
_publ_section_title
;
Structure prediction by ZEFSAII (Michael W. Deem and Ramdas Pophale) SiO2 
 PCOD9549697
Probable space group: P 42 2 2
;
_chemical_formula_sum "Si O2"
_cell_formula_units_Z 64
_cell_length_a 12.139107
_cell_length_b 12.139107
_cell_length_c 22.822017
_cell_angle_alpha 90.000000
_cell_angle_beta 90.000000
_cell_angle_gamma 90.000000
_cell_volume 3363.004927
_symmetry_space_group_name_H-M "P 42 2 2"
_symmetry_group_IT_number 93
_symmetry_cell_setting 'tetragonal'
loop_
_space_group_symop_operation_xyz
x,y,z
-y,x,1/2+z
-x,-y,z
y,-x,1/2+z
x,-y,-z
-x,y,-z
y,x,1/2-z
-y,-x,1/2-z
loop_
_atom_site_type_symbol
_atom_site_label
_atom_site_fract_x
_atom_site_fract_y
_atom_site_fract_z
Si Si1 0.764045 0.315343 0.094168
Si Si2 0.228063 0.001706 0.764267
Si Si3 0.223128 0.647012 0.292698
Si Si4 0.556939 0.881173 0.264901
Si Si5 0.217273 0.573942 0.889274
Si Si6 0.631856 0.372791 0.513652
Si Si7 0.065858 0.099324 0.148281
Si Si8 0.707568 0.019159 0.568555
O O1 0.691776 0.253227 0.143075
O O2 0.757302 0.445282 0.105554
O O3 0.895422 0.292531 0.095743
O O4 0.708080 0.303175 0.030530
O O5 0.326902 0.916125 0.759783
O O6 0.153338 0.993584 0.705769
O O7 0.165830 0.963699 0.821947
O O8 0.280364 0.120851 0.770039
O O9 0.324726 0.675275 0.250000
O O10 0.181281 0.523428 0.280203
O O11 0.586147 0.807163 0.320889
O O12 0.500000 0.000000 0.282532
O O13 0.316795 0.638212 0.921843
O O14 0.100783 0.604168 0.921020
O O15 0.663607 0.500000 0.500000
O O16 0.500000 0.367735 0.500000
O O17 0.083147 0.195177 0.102117
O O18 0.000000 0.000000 0.119064
O O19 0.723040 0.000000 0.500000
#
# Coordination Sequence:
#
# PCOD9549697 Si02
#       8
#     8   8   8   8   8   8   8   8
#     4  11  21  35  58  88 118 152 197 248 310 368
#     4  10  20  37  57  81 116 159 200 242 306 369
#     4  11  20  34  56  86 120 154 196 243 301 371
#     4  10  20  35  57  89 122 156 202 261 312 372
#     4  11  20  36  58  86 122 151 197 258 314 366
#     4   9  20  38  57  79 111 156 197 241 296 369
#     4  11  22  37  57  82 115 157 200 244 313 380
#     4  12  23  36  58  91 120 156 201 261 321 363
#
# _framework density 19.030601000000001
#
# number of rings (size 3 to 8) (size 9 to 14) (size 15 to 20)
#    0.000    1.375    3.750    4.125    0.000    0.750 
#    2.250    0.000    0.000    0.000    0.000    0.000 
#    0.000    0.000    0.000    0.000    0.000    0.000 
#
# Total GULP energy -356611.643905 kJ/mol
# GULP energy per Si atom -5572.056936 kJ/mol
# Density = 1.898729 g / cm^3
# Si number density = 19.030601 Si / 1000 Ang^3
#
#
#
# Elastic Constant Matrix: (Units=GPa)
#
#
# Indices 1 2 3 4 5 6 
#
# 1 54.3525 16.5711 7.9136 0.0000 0.0000 0.0000
# 2 16.5711 54.3523 7.9133 0.0000 0.0000 0.0000
# 3 7.9136 7.9133 57.8683 0.0000 0.0000 0.0000
# 4 0.0000 0.0000 0.0000 18.2284 0.0000 0.0000
# 5 0.0000 0.0000 0.0000 0.0000 18.2283 0.0000
# 6 0.0000 0.0000 0.0000 0.0000 0.0000 -12.8122
#
#
#
# Elastic Compliance Matrix: (Units=1/GPa)
#
#
# Indices 1 2 3 4 5 6 
#
# 1 0.020506 -0.005962 -0.001989 0.000000 0.000000 0.000000
# 2 -0.005962 0.020506 -0.001989 0.000000 0.000000 0.000000
# 3 -0.001989 -0.001989 0.017825 0.000000 0.000000 0.000000
# 4 0.000000 0.000000 0.000000 0.054859 0.000000 0.000000
# 5 0.000000 0.000000 0.000000 0.000000 0.054860 0.000000
# 6 0.000000 0.000000 0.000000 0.000000 0.000000 -0.078050
#
#
# Mechanical properties :
#
#
# Convention : Reuss Voigt Hill
#
# Bulk Modulus (GPa) = 25.66979 25.70769 25.68874
# Shear Modulus (GPa) = 40.52836 13.67389 27.10113
#
# Velocity S-wave (km/s) = 4.61981 2.68343 3.77779
# Velocity P-wave (km/s) = 6.47880 4.81030 5.70587
#
# Compressibility (1/GPa) = 0.03895631
#
# Stress axis : x y z
#
# Youngs Moduli (GPa) = 48.76668 48.76656 56.10241
#
# Poissons Ratio (x) = 0.29076 0.11158
# Poissons Ratio (y) = 0.29076 0.11157
# Poissons Ratio (z) = 0.09699 0.09698
#
# Static dielectric constant tensor:
#      x y z
#    x 1.682070 0.000000 0.000000 
#    y 0.000000 1.682070 0.000000 
#    z 0.000000 0.000000 1.711310 
# 
# From -- ./inp_files/6958.got.cif
#   From: 2010.05.17/outbox.cif.g08.bks.cpg/sg93_4_cif.got.tgz:6958.got - 2010.06.03 19:38:44.
