data_PCOD9549259
_publ_section_title
;
Structure prediction by ZEFSAII (Michael W. Deem and Ramdas Pophale) SiO2 
 PCOD9549259
Probable space group: P 41 21 2
;
_chemical_formula_sum "Si O2"
_cell_formula_units_Z 52
_cell_length_a 19.476341
_cell_length_b 19.476341
_cell_length_c 5.434809
_cell_angle_alpha 90.000000
_cell_angle_beta 90.000000
_cell_angle_gamma 90.000000
_cell_volume 2061.574461
_symmetry_space_group_name_H-M "P 41 21 2"
_symmetry_group_IT_number 92
_symmetry_cell_setting 'tetragonal'
loop_
_space_group_symop_operation_xyz
x,y,z
1/2-y,1/2+x,1/4+z
-x,-y,1/2+z
1/2+y,1/2-x,3/4+z
1/2+x,1/2-y,3/4-z
1/2-x,1/2+y,1/4-z
y,x,-z
-y,-x,1/2-z
loop_
_atom_site_type_symbol
_atom_site_label
_atom_site_fract_x
_atom_site_fract_y
_atom_site_fract_z
Si Si1 0.943451 0.943451 0.000000
Si Si2 0.730511 0.099179 0.890486
Si Si3 0.171552 0.072050 0.073557
Si Si4 0.367401 0.175045 0.633202
Si Si5 0.999883 0.599819 0.549267
Si Si6 0.854943 0.049477 0.162093
Si Si7 0.552217 0.185383 0.101248
O O1 0.934556 0.889540 0.223644
O O2 0.925996 0.020339 0.059088
O O3 0.716363 0.143890 0.132327
O O4 0.803992 0.063770 0.936613
O O5 0.713852 0.140518 0.641947
O O6 0.685484 0.029249 0.898869
O O7 0.244908 0.069720 0.206030
O O8 0.150364 0.150364 0.000000
O O9 0.169121 0.010287 0.860852
O O10 0.450583 0.162651 0.635936
O O11 0.325500 0.104431 0.578373
O O12 0.954968 0.558275 0.736608
O O13 0.945370 0.622101 0.340009
O O14 0.875190 0.124811 0.250000
#
# Coordination Sequence:
#
# PCOD9549259 Si02
#       7
#     4   8   8   8   8   8   8
#     4  10  22  42  66 114 138 186 242 310 382 464
#     4  11  24  44  67 105 144 185 239 300 362 444
#     4  10  23  44  69 107 145 189 257 315 380 454
#     4  11  24  41  68 102 139 190 245 285 363 438
#     4  11  21  36  62 103 145 177 225 291 358 432
#     4  11  24  41  72 104 152 193 239 313 398 469
#     4  11  21  42  69  99 140 192 237 300 365 441
#
# _framework density 25.223443
#
# number of rings (size 3 to 8) (size 9 to 14) (size 15 to 20)
#    0.000    1.231    1.538    5.538    3.231    2.462 
#    0.000    0.000    1.692    3.692    0.000    0.000 
#    0.000    0.000    0.000    0.000    0.000    0.000 
#
# Total GULP energy -289519.716703 kJ/mol
# GULP energy per Si atom -5567.686860 kJ/mol
# Density = 2.516603 g / cm^3
# Si number density = 25.223443 Si / 1000 Ang^3
#
#
#
# Elastic Constant Matrix: (Units=GPa)
#
#
# Indices 1 2 3 4 5 6 
#
# 1 47.2685 26.4079 15.9997 0.0000 0.0000 0.0000
# 2 26.4079 47.2691 16.0008 0.0000 0.0000 0.0000
# 3 15.9997 16.0008 124.0831 0.0000 0.0000 0.0000
# 4 0.0000 0.0000 0.0000 41.4720 0.0000 0.0000
# 5 0.0000 0.0000 0.0000 0.0000 41.4722 0.0000
# 6 0.0000 0.0000 0.0000 0.0000 0.0000 122.5569
#
#
#
# Elastic Compliance Matrix: (Units=1/GPa)
#
#
# Indices 1 2 3 4 5 6 
#
# 1 0.031157 -0.016779 -0.001854 0.000000 0.000000 0.000000
# 2 -0.016779 0.031157 -0.001854 0.000000 0.000000 0.000000
# 3 -0.001854 -0.001854 0.008537 0.000000 0.000000 0.000000
# 4 0.000000 0.000000 0.000000 0.024113 0.000000 0.000000
# 5 0.000000 0.000000 0.000000 0.000000 0.024113 0.000000
# 6 0.000000 0.000000 0.000000 0.000000 0.000000 0.008159
#
#
# Mechanical properties :
#
#
# Convention : Reuss Voigt Hill
#
# Bulk Modulus (GPa) = 33.47020 37.27084 35.37052
# Shear Modulus (GPa) = 28.06303 51.78105 39.92204
#
# Velocity S-wave (km/s) = 3.33915 4.53580 3.98268
# Velocity P-wave (km/s) = 5.30706 6.49921 5.93315
#
# Compressibility (1/GPa) = 0.02987733
#
# Stress axis : x y z
#
# Youngs Moduli (GPa) = 32.09507 32.09525 117.13365
#
# Poissons Ratio (x) = 0.53853 0.21714
# Poissons Ratio (y) = 0.53853 0.21719
# Poissons Ratio (z) = 0.05950 0.05951
#
# Static dielectric constant tensor:
#      x y z
#    x 2.057520 0.000000 0.000000 
#    y 0.000000 2.057530 0.000000 
#    z 0.000000 0.000000 2.282520 
# 
# From -- ./inp_files/736.got.cif
#   From: 2010.05.17/outbox.cif.g08.bks.cpg/sg92_1_cif.got.tgz:736.got - 2010.06.03 19:35:17.
