data_PCOD9549859
_publ_section_title
;
Structure prediction by ZEFSAII (Michael W. Deem and Ramdas Pophale) SiO2 
 PCOD9549859
Probable space group: P 42 2 2
;
_chemical_formula_sum "Si O2"
_cell_formula_units_Z 64
_cell_length_a 12.070825
_cell_length_b 12.070825
_cell_length_c 23.430085
_cell_angle_alpha 90.000000
_cell_angle_beta 90.000000
_cell_angle_gamma 90.000000
_cell_volume 3413.876228
_symmetry_space_group_name_H-M "P 42 2 2"
_symmetry_group_IT_number 93
_symmetry_cell_setting 'tetragonal'
loop_
_space_group_symop_operation_xyz
x,y,z
-y,x,1/2+z
-x,-y,z
y,-x,1/2+z
x,-y,-z
-x,y,-z
y,x,1/2-z
-y,-x,1/2-z
loop_
_atom_site_type_symbol
_atom_site_label
_atom_site_fract_x
_atom_site_fract_y
_atom_site_fract_z
Si Si1 0.765505 0.320060 0.092410
Si Si2 0.279271 0.965358 0.772758
Si Si3 0.212070 0.660499 0.295958
Si Si4 0.576956 0.760378 0.259102
Si Si5 0.211651 0.582720 0.894357
Si Si6 0.633101 0.373760 0.512069
Si Si7 0.064716 0.114710 0.168201
Si Si8 0.738841 0.013404 0.567801
O O1 0.694108 0.270228 0.144520
O O2 0.780883 0.452412 0.093617
O O3 0.889892 0.275845 0.092381
O O4 0.702864 0.302143 0.032754
O O5 0.371154 0.872080 0.765982
O O6 0.210150 0.976796 0.712680
O O7 0.189327 0.913664 0.815043
O O8 0.329467 0.079371 0.795709
O O9 0.249154 0.750847 0.250000
O O10 0.251316 0.543548 0.269295
O O11 0.653749 0.653749 0.250000
O O12 0.584448 0.780677 0.326660
O O13 0.315667 0.641469 0.926114
O O14 0.098611 0.638407 0.917769
O O15 0.667423 0.500000 0.500000
O O16 0.500000 0.371806 0.500000
O O17 0.059028 0.158275 0.103960
O O18 0.000000 0.000000 0.176464
O O19 0.750943 0.000000 0.500000
#
# Coordination Sequence:
#
# PCOD9549859 Si02
#       8
#     8   8   8   8   8   8   8   8
#     4  11  23  39  58  93 128 167 214 266 334 392
#     4  11  21  43  66  90 123 170 223 260 332 404
#     4  12  25  40  61  96 132 168 211 270 336 402
#     4  12  25  42  64  96 130 174 217 273 335 402
#     4  11  22  40  62  88 129 172 216 269 330 404
#     4   9  20  38  59  82 118 173 221 261 317 398
#     4  11  22  39  65  90 122 165 212 273 330 400
#     4  12  23  38  64  96 129 166 221 285 341 389
#
# _framework density 18.747018000000001
#
# number of rings (size 3 to 8) (size 9 to 14) (size 15 to 20)
#    0.000    0.875    5.000    3.750    1.750    2.000 
#    0.000    0.000    0.000    0.000    0.000    0.000 
#    0.000    0.000    0.000    0.000    0.000    0.000 
#
# Total GULP energy -357060.334369 kJ/mol
# GULP energy per Si atom -5579.067725 kJ/mol
# Density = 1.870435 g / cm^3
# Si number density = 18.747018 Si / 1000 Ang^3
#
#
#
# Elastic Constant Matrix: (Units=GPa)
#
#
# Indices 1 2 3 4 5 6 
#
# 1 70.2374 37.3178 36.9723 0.0000 0.0000 0.0000
# 2 37.3178 70.2363 36.9695 0.0000 0.0000 0.0000
# 3 36.9723 36.9695 117.2854 0.0000 0.0000 0.0000
# 4 0.0000 0.0000 0.0000 32.9029 0.0000 0.0000
# 5 0.0000 0.0000 0.0000 0.0000 32.9005 0.0000
# 6 0.0000 0.0000 0.0000 0.0000 0.0000 64.1406
#
#
#
# Elastic Compliance Matrix: (Units=1/GPa)
#
#
# Indices 1 2 3 4 5 6 
#
# 1 0.021124 -0.009254 -0.003742 0.000000 0.000000 0.000000
# 2 -0.009254 0.021124 -0.003741 0.000000 0.000000 0.000000
# 3 -0.003742 -0.003741 0.010885 0.000000 0.000000 0.000000
# 4 0.000000 0.000000 0.000000 0.030392 0.000000 0.000000
# 5 0.000000 0.000000 0.000000 0.000000 0.030395 0.000000
# 6 0.000000 0.000000 0.000000 0.000000 0.000000 0.015591
#
#
# Mechanical properties :
#
#
# Convention : Reuss Voigt Hill
#
# Bulk Modulus (GPa) = 50.86906 53.36428 52.11667
# Shear Modulus (GPa) = 29.49200 35.75542 32.62371
#
# Velocity S-wave (km/s) = 3.97061 4.37196 4.17611
# Velocity P-wave (km/s) = 6.94366 7.34933 7.14937
#
# Compressibility (1/GPa) = 0.01965831
#
# Stress axis : x y z
#
# Youngs Moduli (GPa) = 47.33987 47.34040 91.86854
#
# Poissons Ratio (x) = 0.43808 0.34378
# Poissons Ratio (y) = 0.43807 0.34370
# Poissons Ratio (z) = 0.17715 0.17711
#
# Static dielectric constant tensor:
#      x y z
#    x 1.627900 0.000000 0.000000 
#    y 0.000000 1.627900 0.000000 
#    z 0.000000 0.000000 1.675000 
# 
# From -- ./inp_files/6957.got.cif
#   From: 2010.05.17/outbox.cif.g08.bks.cpg/sg93_4_cif.got.tgz:6957.got - 2010.06.03 19:38:44.
