data_PCOD9549329
_publ_section_title
;
Structure prediction by ZEFSAII (Michael W. Deem and Ramdas Pophale) SiO2 
 PCOD9549329
Probable space group: P 41 21 2
;
_chemical_formula_sum "Si O2"
_cell_formula_units_Z 24
_cell_length_a 12.991037
_cell_length_b 12.991037
_cell_length_c 5.160231
_cell_angle_alpha 90.000000
_cell_angle_beta 90.000000
_cell_angle_gamma 90.000000
_cell_volume 870.876924
_symmetry_space_group_name_H-M "P 41 21 2"
_symmetry_group_IT_number 92
_symmetry_cell_setting 'tetragonal'
loop_
_space_group_symop_operation_xyz
x,y,z
1/2-y,1/2+x,1/4+z
-x,-y,1/2+z
1/2+y,1/2-x,3/4+z
1/2+x,1/2-y,3/4-z
1/2-x,1/2+y,1/4-z
y,x,-z
-y,-x,1/2-z
loop_
_atom_site_type_symbol
_atom_site_label
_atom_site_fract_x
_atom_site_fract_y
_atom_site_fract_z
Si Si1 0.008662 0.144721 0.865624
Si Si2 0.233716 0.330034 0.264368
Si Si3 0.856227 0.520850 0.410866
O O1 0.009017 0.236413 0.655729
O O2 0.114607 0.114607 0.000000
O O3 0.957128 0.042873 0.750000
O O4 0.928425 0.192497 0.069600
O O5 0.251038 0.251038 0.500000
O O6 0.136455 0.393839 0.148242
O O7 0.279230 0.279230 0.000000
O O8 0.914919 0.583777 0.195454
#
# Coordination Sequence:
#
# PCOD9549329 Si02
#       3
#     8   8   8
#     4   9  19  38  70  98 134 175 239 304 366 430
#     4   9  20  40  69  96 133 176 236 297 354 424
#     4  10  23  42  63  96 145 192 233 293 363 441
#
# _framework density 27.558429
#
# number of rings (size 3 to 8) (size 9 to 14) (size 15 to 20)
#    2.000    0.667    0.000    1.000    0.000    5.333 
#    0.000    0.000    0.000    0.000    0.000    0.000 
#    0.000    0.000    0.000    0.000    0.000    0.000 
#
# Total GULP energy -133697.665665 kJ/mol
# GULP energy per Si atom -5570.736069 kJ/mol
# Density = 2.749571 g / cm^3
# Si number density = 27.558429 Si / 1000 Ang^3
#
#
#
# Elastic Constant Matrix: (Units=GPa)
#
#
# Indices 1 2 3 4 5 6 
#
# 1 110.0694 37.5260 12.9881 0.0000 0.0000 0.0000
# 2 37.5260 110.0717 12.9865 0.0000 0.0000 0.0000
# 3 12.9881 12.9865 109.3603 0.0000 0.0000 0.0000
# 4 0.0000 0.0000 0.0000 21.0705 0.0000 0.0000
# 5 0.0000 0.0000 0.0000 0.0000 21.0700 0.0000
# 6 0.0000 0.0000 0.0000 0.0000 0.0000 50.9324
#
#
#
# Elastic Compliance Matrix: (Units=1/GPa)
#
#
# Indices 1 2 3 4 5 6 
#
# 1 0.010352 -0.003432 -0.000822 0.000000 0.000000 0.000000
# 2 -0.003432 0.010352 -0.000822 0.000000 0.000000 0.000000
# 3 -0.000822 -0.000822 0.009339 0.000000 0.000000 0.000000
# 4 0.000000 0.000000 0.000000 0.047460 0.000000 0.000000
# 5 0.000000 0.000000 0.000000 0.000000 0.047461 0.000000
# 6 0.000000 0.000000 0.000000 0.000000 0.000000 0.019634
#
#
# Mechanical properties :
#
#
# Convention : Reuss Voigt Hill
#
# Bulk Modulus (GPa) = 50.27186 50.72250 50.49718
# Shear Modulus (GPa) = 30.98265 36.34798 33.66531
#
# Velocity S-wave (km/s) = 3.35663 3.63566 3.49893
# Velocity P-wave (km/s) = 5.77097 6.00579 5.88955
#
# Compressibility (1/GPa) = 0.01989185
#
# Stress axis : x y z
#
# Youngs Moduli (GPa) = 96.59634 96.59871 107.07476
#
# Poissons Ratio (x) = 0.33156 0.08800
# Poissons Ratio (y) = 0.33156 0.08798
# Poissons Ratio (z) = 0.07939 0.07937
#
# Static dielectric constant tensor:
#      x y z
#    x 2.164170 0.000000 0.000000 
#    y 0.000000 2.164170 0.000000 
#    z 0.000000 0.000000 2.266320 
# 
# From -- ./inp_files/131.got.cif
#   From: 2010.05.17/outbox.cif.g08.bks.cpg/sg92_1_cif.got.tgz:131.got - 2010.06.03 19:35:17.
