data_PCOD9549150
_publ_section_title
;
Structure prediction by ZEFSAII (Michael W. Deem and Ramdas Pophale) SiO2 
 PCOD9549150
Probable space group: P 41 21 2
;
_chemical_formula_sum "Si O2"
_cell_formula_units_Z 40
_cell_length_a 8.335038
_cell_length_b 8.335038
_cell_length_c 25.142360
_cell_angle_alpha 90.000000
_cell_angle_beta 90.000000
_cell_angle_gamma 90.000000
_cell_volume 1746.711618
_symmetry_space_group_name_H-M "P 41 21 2"
_symmetry_group_IT_number 92
_symmetry_cell_setting 'tetragonal'
loop_
_space_group_symop_operation_xyz
x,y,z
1/2-y,1/2+x,1/4+z
-x,-y,1/2+z
1/2+y,1/2-x,3/4+z
1/2+x,1/2-y,3/4-z
1/2-x,1/2+y,1/4-z
y,x,-z
-y,-x,1/2-z
loop_
_atom_site_type_symbol
_atom_site_label
_atom_site_fract_x
_atom_site_fract_y
_atom_site_fract_z
Si Si1 0.230236 0.230236 0.500000
Si Si2 0.934771 0.930411 0.910845
Si Si3 0.345334 0.254293 0.791686
Si Si4 0.293503 0.077461 0.900357
Si Si5 0.289121 0.710880 0.250000
Si Si6 0.740019 0.928185 0.193394
O O1 0.089758 0.205862 0.455901
O O2 0.394519 0.237018 0.467232
O O3 0.895925 0.866601 0.852840
O O4 0.820967 0.070569 0.933436
O O5 0.113644 0.003731 0.906563
O O6 0.324839 0.136653 0.841340
O O7 0.526906 0.257703 0.768491
O O8 0.240857 0.194463 0.742423
O O9 0.406458 0.932097 0.915847
O O10 0.309040 0.218581 0.944910
#
# Coordination Sequence:
#
# PCOD9549150 Si02
#       6
#     4   8   8   8   4   8
#     4  12  25  40  67 100 134 174 215 270 333 396
#     4  11  23  42  65  96 134 169 217 280 331 388
#     4  10  21  41  65  91 129 171 212 268 327 383
#     4  10  21  42  67  91 129 173 218 271 328 392
#     4   8  19  38  59  88 124 160 207 264 319 374
#     4  11  22  40  65  95 129 172 223 268 329 406
#
# _framework density 22.900175000000001
#
# number of rings (size 3 to 8) (size 9 to 14) (size 15 to 20)
#    0.000    1.600    0.000    7.200    0.000    3.200 
#    0.000   19.000    0.000    0.000    0.000    0.000 
#    0.000    0.000    0.000    0.000    0.000    0.000 
#
# Total GULP energy -223386.108513 kJ/mol
# GULP energy per Si atom -5584.652713 kJ/mol
# Density = 2.284805 g / cm^3
# Si number density = 22.900175 Si / 1000 Ang^3
#
#
#
# Elastic Constant Matrix: (Units=GPa)
#
#
# Indices 1 2 3 4 5 6 
#
# 1 21.9936 66.8568 64.1244 0.0000 0.0000 0.0000
# 2 66.8568 21.9930 64.1241 0.0000 0.0000 0.0000
# 3 64.1244 64.1241 247.8798 0.0000 0.0000 0.0000
# 4 0.0000 0.0000 0.0000 35.9707 0.0000 0.0000
# 5 0.0000 0.0000 0.0000 0.0000 35.9708 0.0000
# 6 0.0000 0.0000 0.0000 0.0000 0.0000 0.8535
#
#
#
# Elastic Compliance Matrix: (Units=1/GPa)
#
#
# Indices 1 2 3 4 5 6 
#
# 1 -0.002164 0.020126 -0.004647 0.000000 0.000000 0.000000
# 2 0.020126 -0.002164 -0.004647 0.000000 0.000000 0.000000
# 3 -0.004647 -0.004647 0.006438 0.000000 0.000000 0.000000
# 4 0.000000 0.000000 0.000000 0.027800 0.000000 0.000000
# 5 0.000000 0.000000 0.000000 0.000000 0.027800 0.000000
# 6 0.000000 0.000000 0.000000 0.000000 0.000000 1.171644
#
#
# Mechanical properties :
#
#
# Convention : Reuss Voigt Hill
#
# Bulk Modulus (GPa) = 42.05965 75.78634 58.92299
# Shear Modulus (GPa) = 4.11315 21.00974 12.56144
#
# Velocity S-wave (km/s) = 1.34165 3.03223 2.34461
# Velocity P-wave (km/s) = 4.56141 6.73983 5.75464
#
# Compressibility (1/GPa) = 0.02377575
#
# Stress axis : x y z
#
# Youngs Moduli (GPa) = -462.13584 -462.09019 155.32123
#
# Poissons Ratio (x) = 9.29997 0.72172
# Poissons Ratio (y) = 9.30089 0.72171
# Poissons Ratio (z) = -2.14736 -2.14713
#
# Static dielectric constant tensor:
#      x y z
#    x 1.906740 0.000000 0.000000 
#    y 0.000000 1.906740 0.000000 
#    z 0.000000 0.000000 1.864930 
# 
# From -- ./inp_files/3830.got.cif
#   From: 2010.05.17/outbox.cif.g08.bks.cpg/sg92_2_cif.got.tgz:3830.got - 2010.06.03 19:35:17.
