data_PCOD9549807
_publ_section_title
;
Structure prediction by ZEFSAII (Michael W. Deem and Ramdas Pophale) SiO2 
 PCOD9549807
Probable space group: P 42 2 2
;
_chemical_formula_sum "Si O2"
_cell_formula_units_Z 38
_cell_length_a 14.642596
_cell_length_b 14.642596
_cell_length_c 9.432484
_cell_angle_alpha 90.000000
_cell_angle_beta 90.000000
_cell_angle_gamma 90.000000
_cell_volume 2022.377558
_symmetry_space_group_name_H-M "P 42 2 2"
_symmetry_group_IT_number 93
_symmetry_cell_setting 'tetragonal'
loop_
_space_group_symop_operation_xyz
x,y,z
-y,x,1/2+z
-x,-y,z
y,-x,1/2+z
x,-y,-z
-x,y,-z
y,x,1/2-z
-y,-x,1/2-z
loop_
_atom_site_type_symbol
_atom_site_label
_atom_site_fract_x
_atom_site_fract_y
_atom_site_fract_z
Si Si1 0.246624 0.340972 0.116760
Si Si2 0.500000 0.643042 0.500000
Si Si3 0.000000 0.761554 0.000000
Si Si4 0.500000 0.500000 0.750000
Si Si5 0.313164 0.000000 0.000000
Si Si6 0.190876 0.173573 0.917281
Si Si7 0.048164 0.401611 0.209340
O O1 0.306266 0.306266 0.250000
O O2 0.155211 0.393272 0.169829
O O3 0.298032 0.410252 0.015407
O O4 0.225954 0.253236 0.021010
O O5 0.502690 0.584103 0.642707
O O6 0.084817 0.826327 0.036595
O O7 0.991667 0.687609 0.127622
O O8 0.248009 0.917251 0.050087
O O9 0.377739 0.033195 0.127069
O O10 0.196285 0.196285 0.750000
O O11 0.000000 0.500000 0.175278
#
# Coordination Sequence:
#
# PCOD9549807 Si02
#       7
#     8   4   4   2   4   8   8
#     4  11  24  44  68  97 135 177 222 274 343 406
#     4  11  24  44  67  96 130 174 221 280 332 409
#     4  10  23  41  66  92 130 174 222 266 332 396
#     4  10  24  46  64  90 132 166 224 274 328 394
#     4  12  23  43  66  94 140 170 226 277 333 404
#     4  11  24  43  65  96 132 175 219 277 331 397
#     4  11  24  42  64  97 134 174 220 279 333 401
#
# _framework density 18.789766
#
# number of rings (size 3 to 8) (size 9 to 14) (size 15 to 20)
#    0.000    1.053    5.263    0.632    7.368    0.421 
#    0.000    1.053    0.000    0.000    0.000    0.000 
#    0.000    0.000    0.000    0.000    0.000    0.000 
#
# Total GULP energy -211920.024723 kJ/mol
# GULP energy per Si atom -5576.842756 kJ/mol
# Density = 1.874700 g / cm^3
# Si number density = 18.789766 Si / 1000 Ang^3
#
#
#
# Elastic Constant Matrix: (Units=GPa)
#
#
# Indices 1 2 3 4 5 6 
#
# 1 87.6001 52.1277 29.6219 0.0000 0.0000 0.0000
# 2 52.1277 87.6001 29.6219 0.0000 0.0000 0.0000
# 3 29.6219 29.6219 124.9320 0.0000 0.0000 0.0000
# 4 0.0000 0.0000 0.0000 12.2639 0.0000 0.0000
# 5 0.0000 0.0000 0.0000 0.0000 12.2639 0.0000
# 6 0.0000 0.0000 0.0000 0.0000 0.0000 -40.8928
#
#
#
# Elastic Compliance Matrix: (Units=1/GPa)
#
#
# Indices 1 2 3 4 5 6 
#
# 1 0.018074 -0.010117 -0.001887 0.000000 0.000000 0.000000
# 2 -0.010117 0.018074 -0.001887 0.000000 0.000000 0.000000
# 3 -0.001887 -0.001887 0.008899 0.000000 0.000000 0.000000
# 4 0.000000 0.000000 0.000000 0.081540 0.000000 0.000000
# 5 0.000000 0.000000 0.000000 0.000000 0.081540 0.000000
# 6 0.000000 0.000000 0.000000 0.000000 0.000000 -0.024454
#
#
# Mechanical properties :
#
#
# Convention : Reuss Voigt Hill
#
# Bulk Modulus (GPa) = 57.91708 58.09726 58.00717
# Shear Modulus (GPa) = 23.01933 9.31103 16.16518
#
# Velocity S-wave (km/s) = 3.50394 2.22848 2.93630
# Velocity P-wave (km/s) = 6.87465 6.13256 6.51418
#
# Compressibility (1/GPa) = 0.01726606
#
# Stress axis : x y z
#
# Youngs Moduli (GPa) = 55.32864 55.32864 112.37241
#
# Poissons Ratio (x) = 0.55977 0.21200
# Poissons Ratio (y) = 0.55977 0.21200
# Poissons Ratio (z) = 0.10438 0.10438
#
# Static dielectric constant tensor:
#      x y z
#    x 2.481890 0.000000 0.000000 
#    y 0.000000 2.481890 0.000000 
#    z 0.000000 0.000000 1.654090 
# 
# From -- ./inp_files/1789.got.cif
#   From: 2010.05.17/outbox.cif.g08.bks.cpg/sg93_1_cif.got.tgz:1789.got - 2010.06.03 19:38:44.
