data_PCOD9549862
_publ_section_title
;
Structure prediction by ZEFSAII (Michael W. Deem and Ramdas Pophale) SiO2 
 PCOD9549862
Probable space group: P 42 2 2
;
_chemical_formula_sum "Si O2"
_cell_formula_units_Z 48
_cell_length_a 9.090381
_cell_length_b 9.090381
_cell_length_c 28.432274
_cell_angle_alpha 90.000000
_cell_angle_beta 90.000000
_cell_angle_gamma 90.000000
_cell_volume 2349.501722
_symmetry_space_group_name_H-M "P 42 2 2"
_symmetry_group_IT_number 93
_symmetry_cell_setting 'tetragonal'
loop_
_space_group_symop_operation_xyz
x,y,z
-y,x,1/2+z
-x,-y,z
y,-x,1/2+z
x,-y,-z
-x,y,-z
y,x,1/2-z
-y,-x,1/2-z
loop_
_atom_site_type_symbol
_atom_site_label
_atom_site_fract_x
_atom_site_fract_y
_atom_site_fract_z
Si Si1 0.157153 0.689966 0.205737
Si Si2 0.193760 0.660970 0.795823
Si Si3 0.692673 0.735952 0.889543
Si Si4 0.656693 0.795493 0.110884
Si Si5 0.173676 0.969974 0.054463
Si Si6 0.530992 0.325804 0.550792
O O1 0.226875 0.773126 0.250000
O O2 0.202418 0.517005 0.205974
O O3 0.225107 0.761691 0.159019
O O4 0.980280 0.697919 0.204713
O O5 0.271490 0.728511 0.750000
O O6 0.271746 0.732144 0.841589
O O7 0.521213 0.784067 0.886176
O O8 0.709383 0.565318 0.903458
O O9 0.778012 0.806151 0.933414
O O10 0.728078 0.947220 0.094069
O O11 0.700729 0.695361 0.066397
O O12 0.000000 0.000000 0.061118
O O13 0.210570 0.000000 0.000000
O O14 0.500000 0.500000 0.546162
O O15 0.500000 0.257468 0.500000
#
# Coordination Sequence:
#
# PCOD9549862 Si02
#       6
#     8   8   8   8   8   8
#     4  11  25  44  67  95 129 169 216 270 333 400
#     4  11  25  44  67  95 129 169 216 270 333 400
#     4  11  22  40  67  96 131 170 218 273 325 388
#     4  11  22  40  67  96 131 170 218 273 325 388
#     4  11  25  43  63  93 137 183 223 267 324 393
#     4   9  18  34  61  97 131 163 207 261 318 373
#
# _framework density 20.429863999999998
#
# number of rings (size 3 to 8) (size 9 to 14) (size 15 to 20)
#    0.000    1.333    1.667    3.500    2.333    4.667 
#    0.000    0.000    0.000    4.000    0.000    0.000 
#    0.000    0.000    0.000    0.000    0.000    0.000 
#
# Total GULP energy -267701.593398 kJ/mol
# GULP energy per Si atom -5577.116529 kJ/mol
# Density = 2.038337 g / cm^3
# Si number density = 20.429864 Si / 1000 Ang^3
#
#
#
# Elastic Constant Matrix: (Units=GPa)
#
#
# Indices 1 2 3 4 5 6 
#
# 1 69.2071 30.7730 36.2930 0.0000 0.0000 0.0000
# 2 30.7730 69.2077 36.2928 0.0000 0.0000 0.0000
# 3 36.2930 36.2928 157.6388 0.0000 0.0000 0.0000
# 4 0.0000 0.0000 0.0000 -41.0453 0.0000 0.0000
# 5 0.0000 0.0000 0.0000 0.0000 -41.0474 0.0000
# 6 0.0000 0.0000 0.0000 0.0000 0.0000 22.8488
#
#
#
# Elastic Compliance Matrix: (Units=1/GPa)
#
#
# Indices 1 2 3 4 5 6 
#
# 1 0.019014 -0.007005 -0.002765 0.000000 0.000000 0.000000
# 2 -0.007005 0.019014 -0.002765 0.000000 0.000000 0.000000
# 3 -0.002765 -0.002765 0.007617 0.000000 0.000000 0.000000
# 4 0.000000 0.000000 0.000000 -0.024363 0.000000 0.000000
# 5 0.000000 0.000000 0.000000 0.000000 -0.024362 0.000000
# 6 0.000000 0.000000 0.000000 0.000000 0.000000 0.043766
#
#
# Mechanical properties :
#
#
# Convention : Reuss Voigt Hill
#
# Bulk Modulus (GPa) = 48.60090 55.86348 52.23219
# Shear Modulus (GPa) = 68.85907 0.99754 34.92830
#
# Velocity S-wave (km/s) = 5.81191 0.69952 4.13930
# Velocity P-wave (km/s) = 8.29931 5.29678 6.96184
#
# Compressibility (1/GPa) = 0.02057575
#
# Stress axis : x y z
#
# Youngs Moduli (GPa) = 52.59311 52.59366 131.29013
#
# Poissons Ratio (x) = 0.36839 0.36301
# Poissons Ratio (y) = 0.36839 0.36300
# Poissons Ratio (z) = 0.14542 0.14541
#
# Static dielectric constant tensor:
#      x y z
#    x 1.757710 0.000000 0.000000 
#    y 0.000000 1.757710 0.000000 
#    z 0.000000 0.000000 1.700560 
# 
# From -- ./inp_files/7805.got.cif
#   From: 2010.05.17/outbox.cif.g08.bks.cpg/sg93_4_cif.got.tgz:7805.got - 2010.06.03 19:38:44.
