data_PCOD9549961
_publ_section_title
;
Structure prediction by ZEFSAII (Michael W. Deem and Ramdas Pophale) SiO2 
 PCOD9549961
Probable space group: P 42 21 2
;
_chemical_formula_sum "Si O2"
_cell_formula_units_Z 28
_cell_length_a 7.619685
_cell_length_b 7.619685
_cell_length_c 22.686324
_cell_angle_alpha 90.000000
_cell_angle_beta 90.000000
_cell_angle_gamma 90.000000
_cell_volume 1317.158886
_symmetry_space_group_name_H-M "P 42 21 2"
_symmetry_group_IT_number 94
_symmetry_cell_setting 'tetragonal'
loop_
_space_group_symop_operation_xyz
x,y,z
1/2-y,1/2+x,1/2+z
-x,-y,z
1/2+y,1/2-x,1/2+z
1/2+x,1/2-y,1/2-z
1/2-x,1/2+y,1/2-z
y,x,-z
-y,-x,-z
loop_
_atom_site_type_symbol
_atom_site_label
_atom_site_fract_x
_atom_site_fract_y
_atom_site_fract_z
Si Si1 0.089055 0.760718 0.822554
Si Si2 0.000000 0.000000 0.613450
Si Si3 0.731762 0.611699 0.792904
Si Si4 0.850196 0.655825 0.447965
O O1 0.183952 0.575011 0.808971
O O2 0.177350 0.884544 0.774744
O O3 0.101693 0.772703 0.892653
O O4 0.887140 0.744484 0.805659
O O5 0.834693 0.947886 0.573635
O O6 0.073547 0.857385 0.660820
O O7 0.722628 0.722628 0.500000
O O8 0.000000 0.500000 0.457819
#
# Coordination Sequence:
#
# PCOD9549961 Si02
#       4
#     8   4   8   8
#     4  10  19  37  59  94 134 163 232 278 361 434
#     4  10  19  40  66  88 129 176 234 286 370 424
#     4  10  19  34  63  92 124 169 208 293 357 422
#     4  11  22  42  66  93 134 189 241 294 352 450
#
# _framework density 21.257877000000001
#
# number of rings (size 3 to 8) (size 9 to 14) (size 15 to 20)
#    0.000    1.714    5.714    3.857    0.000    0.000 
#   10.286    0.000    0.000    3.429    0.000    0.000 
#    0.000    0.000    0.000    0.000    0.000    0.000 
#
# Total GULP energy -155900.495785 kJ/mol
# GULP energy per Si atom -5567.874849 kJ/mol
# Density = 2.120949 g / cm^3
# Si number density = 21.257877 Si / 1000 Ang^3
#
#
#
# Elastic Constant Matrix: (Units=GPa)
#
#
# Indices 1 2 3 4 5 6 
#
# 1 104.2958 34.8122 69.5565 0.0000 0.0000 0.0000
# 2 34.8122 104.2958 69.5565 0.0000 0.0000 0.0000
# 3 69.5565 69.5565 191.4981 0.0000 0.0000 0.0000
# 4 0.0000 0.0000 0.0000 49.3630 0.0000 0.0000
# 5 0.0000 0.0000 0.0000 0.0000 49.3630 0.0000
# 6 0.0000 0.0000 0.0000 0.0000 0.0000 17.9070
#
#
#
# Elastic Compliance Matrix: (Units=1/GPa)
#
#
# Indices 1 2 3 4 5 6 
#
# 1 0.012841 -0.001551 -0.004101 0.000000 0.000000 0.000000
# 2 -0.001551 0.012841 -0.004101 0.000000 0.000000 0.000000
# 3 -0.004101 -0.004101 0.008201 0.000000 0.000000 0.000000
# 4 0.000000 0.000000 0.000000 0.020258 0.000000 0.000000
# 5 0.000000 0.000000 0.000000 0.000000 0.020258 0.000000
# 6 0.000000 0.000000 0.000000 0.000000 0.000000 0.055844
#
#
# Mechanical properties :
#
#
# Convention : Reuss Voigt Hill
#
# Bulk Modulus (GPa) = 69.55402 83.10446 76.32924
# Shear Modulus (GPa) = 32.35417 38.40424 35.37920
#
# Velocity S-wave (km/s) = 3.90549 4.25501 4.08399
# Velocity P-wave (km/s) = 7.28885 7.95729 7.63040
#
# Compressibility (1/GPa) = 0.01437731
#
# Stress axis : x y z
#
# Youngs Moduli (GPa) = 77.87783 77.87783 121.93916
#
# Poissons Ratio (x) = 0.12081 0.50002
# Poissons Ratio (y) = 0.12081 0.50002
# Poissons Ratio (z) = 0.31934 0.31934
#
# Static dielectric constant tensor:
#      x y z
#    x 1.803130 0.000000 0.000000 
#    y 0.000000 1.803130 0.000000 
#    z 0.000000 0.000000 1.809380 
# 
# From -- ./inp_files/4313.got.cif
#   From: 2010.05.17/outbox.cif.g08.bks.cpg/sg94_3_cif.got.tgz:4313.got - 2010.06.03 19:43:16.
