data_PCOD9549121
_publ_section_title
;
Structure prediction by ZEFSAII (Michael W. Deem and Ramdas Pophale) SiO2 
 PCOD9549121
Probable space group: P 41 21 2
;
_chemical_formula_sum "Si O2"
_cell_formula_units_Z 40
_cell_length_a 14.055440
_cell_length_b 14.055440
_cell_length_c 8.356058
_cell_angle_alpha 90.000000
_cell_angle_beta 90.000000
_cell_angle_gamma 90.000000
_cell_volume 1650.784327
_symmetry_space_group_name_H-M "P 41 21 2"
_symmetry_group_IT_number 92
_symmetry_cell_setting 'tetragonal'
loop_
_space_group_symop_operation_xyz
x,y,z
1/2-y,1/2+x,1/4+z
-x,-y,1/2+z
1/2+y,1/2-x,3/4+z
1/2+x,1/2-y,3/4-z
1/2-x,1/2+y,1/4-z
y,x,-z
-y,-x,1/2-z
loop_
_atom_site_type_symbol
_atom_site_label
_atom_site_fract_x
_atom_site_fract_y
_atom_site_fract_z
Si Si1 0.272335 0.461438 0.587782
Si Si2 0.725684 0.399082 0.632059
Si Si3 0.430186 0.931145 0.245527
Si Si4 0.608952 0.547640 0.766994
Si Si5 0.318343 0.101190 0.432907
O O1 0.338957 0.477883 0.434808
O O2 0.341135 0.413234 0.720820
O O3 0.228726 0.556112 0.662076
O O4 0.188315 0.389291 0.541862
O O5 0.658237 0.341764 0.750000
O O6 0.828799 0.391305 0.713428
O O7 0.681827 0.506082 0.636092
O O8 0.740162 0.368871 0.449585
O O9 0.536985 0.929544 0.314055
O O10 0.375261 0.013482 0.345530
O O11 0.510656 0.489345 0.750000
#
# Coordination Sequence:
#
# PCOD9549121 Si02
#       5
#     8   8   8   8   8
#     4  11  25  50  78 112 155 203 266 320 392 471
#     4  10  23  43  68 106 152 205 259 310 389 461
#     4  10  21  38  63  99 147 188 234 308 392 441
#     4  10  26  52  72 106 151 212 261 312 395 449
#     4  11  23  44  71 116 149 192 254 323 392 463
#
# _framework density 24.230906000000001
#
# number of rings (size 3 to 8) (size 9 to 14) (size 15 to 20)
#    0.000    1.600    4.000    0.000    2.800   10.400 
#   21.600    0.000    0.000    0.000    0.000    0.000 
#    0.000    0.000    0.000    0.000    0.000    0.000 
#
# Total GULP energy -223832.410253 kJ/mol
# GULP energy per Si atom -5595.810256 kJ/mol
# Density = 2.417576 g / cm^3
# Si number density = 24.230906 Si / 1000 Ang^3
#
#
#
# Elastic Constant Matrix: (Units=GPa)
#
#
# Indices 1 2 3 4 5 6 
#
# 1 117.4173 53.3243 27.5979 0.0000 0.0000 0.0000
# 2 53.3243 117.4144 27.5972 0.0000 0.0000 0.0000
# 3 27.5979 27.5972 69.2841 0.0000 0.0000 0.0000
# 4 0.0000 0.0000 0.0000 37.2178 0.0000 0.0000
# 5 0.0000 0.0000 0.0000 0.0000 37.2190 0.0000
# 6 0.0000 0.0000 0.0000 0.0000 0.0000 44.7566
#
#
#
# Elastic Compliance Matrix: (Units=1/GPa)
#
#
# Indices 1 2 3 4 5 6 
#
# 1 0.011162 -0.004440 -0.002678 0.000000 0.000000 0.000000
# 2 -0.004440 0.011163 -0.002678 0.000000 0.000000 0.000000
# 3 -0.002678 -0.002678 0.016567 0.000000 0.000000 0.000000
# 4 0.000000 0.000000 0.000000 0.026869 0.000000 0.000000
# 5 0.000000 0.000000 0.000000 0.000000 0.026868 0.000000
# 6 0.000000 0.000000 0.000000 0.000000 0.000000 0.022343
#
#
# Mechanical properties :
#
#
# Convention : Reuss Voigt Hill
#
# Bulk Modulus (GPa) = 51.81189 57.90605 54.85897
# Shear Modulus (GPa) = 35.46194 36.87845 36.17020
#
# Velocity S-wave (km/s) = 3.82972 3.90546 3.86778
# Velocity P-wave (km/s) = 6.40193 6.65480 6.52959
#
# Compressibility (1/GPa) = 0.01930059
#
# Stress axis : x y z
#
# Youngs Moduli (GPa) = 89.58599 89.58405 60.36262
#
# Poissons Ratio (x) = 0.39776 0.16164
# Poissons Ratio (y) = 0.39777 0.16163
# Poissons Ratio (z) = 0.23989 0.23988
#
# Static dielectric constant tensor:
#      x y z
#    x 1.949720 0.000000 0.000000 
#    y 0.000000 1.949730 0.000000 
#    z 0.000000 0.000000 1.975010 
# 
# From -- ./inp_files/1342.got.cif
#   From: 2010.05.17/outbox.cif.g08.bks.cpg/sg92_1_cif.got.tgz:1342.got - 2010.06.03 19:35:17.
