data_PCOD9549138
_publ_section_title
;
Structure prediction by ZEFSAII (Michael W. Deem and Ramdas Pophale) SiO2 
 PCOD9549138
Probable space group: P 41 21 2
;
_chemical_formula_sum "Si O2"
_cell_formula_units_Z 40
_cell_length_a 7.991944
_cell_length_b 7.991944
_cell_length_c 27.256894
_cell_angle_alpha 90.000000
_cell_angle_beta 90.000000
_cell_angle_gamma 90.000000
_cell_volume 1740.929680
_symmetry_space_group_name_H-M "P 41 21 2"
_symmetry_group_IT_number 92
_symmetry_cell_setting 'tetragonal'
loop_
_space_group_symop_operation_xyz
x,y,z
1/2-y,1/2+x,1/4+z
-x,-y,1/2+z
1/2+y,1/2-x,3/4+z
1/2+x,1/2-y,3/4-z
1/2-x,1/2+y,1/4-z
y,x,-z
-y,-x,1/2-z
loop_
_atom_site_type_symbol
_atom_site_label
_atom_site_fract_x
_atom_site_fract_y
_atom_site_fract_z
Si Si1 0.235048 0.010272 0.273560
Si Si2 0.402007 0.501492 0.603330
Si Si3 0.892827 0.510063 0.669360
Si Si4 0.646846 0.229435 0.922097
Si Si5 0.325258 0.752046 0.806561
O O1 0.313739 0.105325 0.227951
O O2 0.165148 0.117774 0.318523
O O3 0.352833 0.866005 0.295123
O O4 0.071660 0.928341 0.250000
O O5 0.591330 0.432001 0.595423
O O6 0.283220 0.355972 0.581866
O O7 0.363630 0.560583 0.658384
O O8 0.758182 0.656247 0.668845
O O9 0.901529 0.432985 0.615143
O O10 0.065668 0.587276 0.688919
O O11 0.302886 0.697114 0.750000
#
# Coordination Sequence:
#
# PCOD9549138 Si02
#       5
#     8   8   8   8   8
#     4  10  21  40  64  91 128 169 213 272 333 394
#     4  10  21  41  66  97 132 173 220 269 328 397
#     4  11  23  40  65  91 125 169 213 272 332 401
#     4  10  22  40  62  92 127 165 218 269 329 404
#     4  11  24  43  66  97 136 178 225 276 336 402
#
# _framework density 22.976226
#
# number of rings (size 3 to 8) (size 9 to 14) (size 15 to 20)
#    0.000    1.600    0.000    6.600    0.000    6.400 
#    0.000    9.000    0.000    0.000    0.000    0.000 
#    0.000    0.000    0.000    0.000    0.000    0.000 
#
# Total GULP energy -223411.969176 kJ/mol
# GULP energy per Si atom -5585.299229 kJ/mol
# Density = 2.292393 g / cm^3
# Si number density = 22.976226 Si / 1000 Ang^3
#
#
#
# Elastic Constant Matrix: (Units=GPa)
#
#
# Indices 1 2 3 4 5 6 
#
# 1 54.5028 -3.8446 36.9218 0.0000 0.0000 0.0000
# 2 -3.8446 54.5016 36.9218 0.0000 0.0000 0.0000
# 3 36.9218 36.9218 147.4750 0.0000 0.0000 0.0000
# 4 0.0000 0.0000 0.0000 30.2697 0.0000 0.0000
# 5 0.0000 0.0000 0.0000 0.0000 30.2694 0.0000
# 6 0.0000 0.0000 0.0000 0.0000 0.0000 7.1583
#
#
#
# Elastic Compliance Matrix: (Units=1/GPa)
#
#
# Indices 1 2 3 4 5 6 
#
# 1 0.024112 0.006973 -0.007782 0.000000 0.000000 0.000000
# 2 0.006973 0.024112 -0.007782 0.000000 0.000000 0.000000
# 3 -0.007782 -0.007782 0.010678 0.000000 0.000000 0.000000
# 4 0.000000 0.000000 0.000000 0.033036 0.000000 0.000000
# 5 0.000000 0.000000 0.000000 0.000000 0.033037 0.000000
# 6 0.000000 0.000000 0.000000 0.000000 0.000000 0.139697
#
#
# Mechanical properties :
#
#
# Convention : Reuss Voigt Hill
#
# Bulk Modulus (GPa) = 23.97068 44.05303 34.01185
# Shear Modulus (GPa) = 16.90555 25.97152 21.43854
#
# Velocity S-wave (km/s) = 2.71548 3.36574 3.05794
# Velocity P-wave (km/s) = 4.50413 5.85826 5.22525
#
# Compressibility (1/GPa) = 0.04171763
#
# Stress axis : x y z
#
# Youngs Moduli (GPa) = 41.47394 41.47290 93.65406
#
# Poissons Ratio (x) = -0.28919 0.72884
# Poissons Ratio (y) = -0.28919 0.72886
# Poissons Ratio (z) = 0.32276 0.32276
#
# Static dielectric constant tensor:
#      x y z
#    x 1.907190 0.000000 0.000000 
#    y 0.000000 1.907190 0.000000 
#    z 0.000000 0.000000 1.870700 
# 
# From -- ./inp_files/3776.got.cif
#   From: 2010.05.17/outbox.cif.g08.bks.cpg/sg92_2_cif.got.tgz:3776.got - 2010.06.03 19:35:17.
