data_PCOD9549415
_publ_section_title
;
Structure prediction by ZEFSAII (Michael W. Deem and Ramdas Pophale) SiO2 
 PCOD9549415
Probable space group: P 41 21 2
;
_chemical_formula_sum "Si O2"
_cell_formula_units_Z 32
_cell_length_a 7.573979
_cell_length_b 7.573979
_cell_length_c 24.345140
_cell_angle_alpha 90.000000
_cell_angle_beta 90.000000
_cell_angle_gamma 90.000000
_cell_volume 1396.562800
_symmetry_space_group_name_H-M "P 41 21 2"
_symmetry_group_IT_number 92
_symmetry_cell_setting 'tetragonal'
loop_
_space_group_symop_operation_xyz
x,y,z
1/2-y,1/2+x,1/4+z
-x,-y,1/2+z
1/2+y,1/2-x,3/4+z
1/2+x,1/2-y,3/4-z
1/2-x,1/2+y,1/4-z
y,x,-z
-y,-x,1/2-z
loop_
_atom_site_type_symbol
_atom_site_label
_atom_site_fract_x
_atom_site_fract_y
_atom_site_fract_z
Si Si1 0.115437 0.997204 0.361271
Si Si2 0.303397 0.524238 0.459700
Si Si3 0.340908 0.986988 0.582502
Si Si4 0.620805 0.637492 0.266486
O O1 0.309803 0.047088 0.340446
O O2 0.981716 0.902608 0.319157
O O3 0.013882 0.181090 0.375076
O O4 0.137806 0.898403 0.418967
O O5 0.373602 0.373602 0.500000
O O6 0.189740 0.666379 0.493363
O O7 0.163354 0.455334 0.415529
O O8 0.247909 0.977220 0.522689
O O9 0.423844 0.576157 0.250000
#
# Coordination Sequence:
#
# PCOD9549415 Si02
#       4
#     8   8   8   8
#     4  11  23  43  69 106 137 191 243 300 373 446
#     4  12  24  44  72 103 142 191 249 305 375 447
#     4  11  23  44  72  99 141 189 243 303 368 445
#     4  10  25  46  65 102 148 187 241 306 377 441
#
# _framework density 22.913402000000001
#
# number of rings (size 3 to 8) (size 9 to 14) (size 15 to 20)
#    0.000    1.000    5.000    2.250    3.500    0.000 
#    4.500    0.000    0.000    0.000    0.000    0.000 
#    0.000    0.000    0.000    0.000    0.000    0.000 
#
# Total GULP energy -178712.461528 kJ/mol
# GULP energy per Si atom -5584.764423 kJ/mol
# Density = 2.286125 g / cm^3
# Si number density = 22.913402 Si / 1000 Ang^3
#
#
#
# Elastic Constant Matrix: (Units=GPa)
#
#
# Indices 1 2 3 4 5 6 
#
# 1 117.5205 48.7388 13.9763 0.0000 0.0000 0.0000
# 2 48.7388 117.5195 13.9765 0.0000 0.0000 0.0000
# 3 13.9763 13.9765 54.1949 0.0000 0.0000 0.0000
# 4 0.0000 0.0000 0.0000 21.9596 0.0000 0.0000
# 5 0.0000 0.0000 0.0000 0.0000 21.9597 0.0000
# 6 0.0000 0.0000 0.0000 0.0000 0.0000 38.0971
#
#
#
# Elastic Compliance Matrix: (Units=1/GPa)
#
#
# Indices 1 2 3 4 5 6 
#
# 1 0.010413 -0.004126 -0.001621 0.000000 0.000000 0.000000
# 2 -0.004126 0.010413 -0.001621 0.000000 0.000000 0.000000
# 3 -0.001621 -0.001621 0.019288 0.000000 0.000000 0.000000
# 4 0.000000 0.000000 0.000000 0.045538 0.000000 0.000000
# 5 0.000000 0.000000 0.000000 0.000000 0.045538 0.000000
# 6 0.000000 0.000000 0.000000 0.000000 0.000000 0.026249
#
#
# Mechanical properties :
#
#
# Convention : Reuss Voigt Hill
#
# Bulk Modulus (GPa) = 39.40562 49.17980 44.29271
# Shear Modulus (GPa) = 27.68002 30.57282 29.12642
#
# Velocity S-wave (km/s) = 3.47944 3.65674 3.56919
# Velocity P-wave (km/s) = 5.77728 6.27207 6.02975
#
# Compressibility (1/GPa) = 0.02537709
#
# Stress axis : x y z
#
# Youngs Moduli (GPa) = 96.03334 96.03246 51.84506
#
# Poissons Ratio (x) = 0.39621 0.08406
# Poissons Ratio (y) = 0.39621 0.08407
# Poissons Ratio (z) = 0.15571 0.15572
#
# Static dielectric constant tensor:
#      x y z
#    x 1.884800 0.000000 0.000000 
#    y 0.000000 1.884800 0.000000 
#    z 0.000000 0.000000 1.928720 
# 
# From -- ./inp_files/3715.got.cif
#   From: 2010.05.17/outbox.cif.g08.bks.cpg/sg92_2_cif.got.tgz:3715.got - 2010.06.03 19:35:17.
