data_PCOD9549791
_publ_section_title
;
Structure prediction by ZEFSAII (Michael W. Deem and Ramdas Pophale) SiO2 
 PCOD9549791
Probable space group: P 42 2 2
;
_chemical_formula_sum "Si O2"
_cell_formula_units_Z 34
_cell_length_a 9.213322
_cell_length_b 9.213322
_cell_length_c 18.633778
_cell_angle_alpha 90.000000
_cell_angle_beta 90.000000
_cell_angle_gamma 90.000000
_cell_volume 1581.733878
_symmetry_space_group_name_H-M "P 42 2 2"
_symmetry_group_IT_number 93
_symmetry_cell_setting 'tetragonal'
loop_
_space_group_symop_operation_xyz
x,y,z
-y,x,1/2+z
-x,-y,z
y,-x,1/2+z
x,-y,-z
-x,y,-z
y,x,1/2-z
-y,-x,1/2-z
loop_
_atom_site_type_symbol
_atom_site_label
_atom_site_fract_x
_atom_site_fract_y
_atom_site_fract_z
Si Si1 0.038070 0.337592 0.916242
Si Si2 0.189275 0.851099 0.835077
Si Si3 0.000000 0.500000 0.500000
Si Si4 0.450299 0.652299 0.828180
Si Si5 0.690812 0.840306 0.881882
O O1 0.947591 0.213855 0.875768
O O2 0.000000 0.500000 0.888994
O O3 0.202287 0.287843 0.905295
O O4 0.000000 0.334341 0.000000
O O5 0.166397 0.833604 0.750000
O O6 0.319774 0.745325 0.861157
O O7 0.228851 0.017106 0.851835
O O8 0.899940 0.401198 0.449065
O O9 0.500000 0.500000 0.863687
O O10 0.394344 0.605657 0.750000
O O11 0.581966 0.766045 0.825399
#
# Coordination Sequence:
#
# PCOD9549791 Si02
#       5
#     8   8   2   8   8
#     4  11  26  46  69 102 143 186 233 295 358 424
#     4  11  24  43  70 106 139 182 236 289 356 421
#     4  12  24  44  72 100 132 184 242 280 356 420
#     4  10  22  41  66  98 138 177 226 284 351 415
#     4  12  24  44  70  98 137 185 235 290 346 436
#
# _framework density 21.4954
#
# number of rings (size 3 to 8) (size 9 to 14) (size 15 to 20)
#    0.000    0.941    2.353    3.529    0.000   10.353 
#    0.000    0.000    0.000    0.000    0.000    0.000 
#    0.000    0.000    0.000    0.000    0.000    0.000 
#
# Total GULP energy -190003.910259 kJ/mol
# GULP energy per Si atom -5588.350302 kJ/mol
# Density = 2.144648 g / cm^3
# Si number density = 21.495400 Si / 1000 Ang^3
#
#
#
# Elastic Constant Matrix: (Units=GPa)
#
#
# Indices 1 2 3 4 5 6 
#
# 1 136.7159 66.5788 35.5772 0.0000 0.0000 0.0000
# 2 66.5788 136.7167 35.5768 0.0000 0.0000 0.0000
# 3 35.5772 35.5768 72.8469 0.0000 0.0000 0.0000
# 4 0.0000 0.0000 0.0000 -93.1477 0.0000 0.0000
# 5 0.0000 0.0000 0.0000 0.0000 -93.1092 0.0000
# 6 0.0000 0.0000 0.0000 0.0000 0.0000 58.1452
#
#
#
# Elastic Compliance Matrix: (Units=1/GPa)
#
#
# Indices 1 2 3 4 5 6 
#
# 1 0.010095 -0.004162 -0.002898 0.000000 0.000000 0.000000
# 2 -0.004162 0.010095 -0.002898 0.000000 0.000000 0.000000
# 3 -0.002898 -0.002898 0.016558 0.000000 0.000000 0.000000
# 4 0.000000 0.000000 0.000000 -0.010736 0.000000 0.000000
# 5 0.000000 0.000000 0.000000 0.000000 -0.010740 0.000000
# 6 0.000000 0.000000 0.000000 0.000000 0.000000 0.017198
#
#
# Mechanical properties :
#
#
# Convention : Reuss Voigt Hill
#
# Bulk Modulus (GPa) = 59.40545 69.08277 64.24411
# Shear Modulus (GPa) = 86.21081 -11.71922 37.24580
#
# Velocity S-wave (km/s) = 6.33985 -2.33748 4.16713
# Velocity P-wave (km/s) = 9.01598 4.99230 7.28735
#
# Compressibility (1/GPa) = 0.01683347
#
# Stress axis : x y z
#
# Youngs Moduli (GPa) = 99.05428 99.05527 60.39490
#
# Poissons Ratio (x) = 0.41230 0.17501
# Poissons Ratio (y) = 0.41229 0.17500
# Poissons Ratio (z) = 0.28703 0.28702
#
# Static dielectric constant tensor:
#      x y z
#    x 1.840560 0.000000 0.000000 
#    y 0.000000 1.840550 0.000000 
#    z 0.000000 0.000000 1.752590 
# 
# From -- ./inp_files/6075.got.cif
#   From: 2010.05.17/outbox.cif.g08.bks.cpg/sg93_4_cif.got.tgz:6075.got - 2010.06.03 19:38:44.
