data_PCOD9549365
_publ_section_title
;
Structure prediction by ZEFSAII (Michael W. Deem and Ramdas Pophale) SiO2 
 PCOD9549365
Probable space group: P 41 21 2
;
_chemical_formula_sum "Si O2"
_cell_formula_units_Z 36
_cell_length_a 11.702010
_cell_length_b 11.702010
_cell_length_c 12.103725
_cell_angle_alpha 90.000000
_cell_angle_beta 90.000000
_cell_angle_gamma 90.000000
_cell_volume 1657.448251
_symmetry_space_group_name_H-M "P 41 21 2"
_symmetry_group_IT_number 92
_symmetry_cell_setting 'tetragonal'
loop_
_space_group_symop_operation_xyz
x,y,z
1/2-y,1/2+x,1/4+z
-x,-y,1/2+z
1/2+y,1/2-x,3/4+z
1/2+x,1/2-y,3/4-z
1/2-x,1/2+y,1/4-z
y,x,-z
-y,-x,1/2-z
loop_
_atom_site_type_symbol
_atom_site_label
_atom_site_fract_x
_atom_site_fract_y
_atom_site_fract_z
Si Si1 0.328216 0.020800 0.223483
Si Si2 0.227051 0.596027 0.259828
Si Si3 0.016979 0.747918 0.037688
Si Si4 0.756208 0.756208 0.000000
Si Si5 0.380188 0.418583 0.376630
O O1 0.404741 0.906499 0.210406
O O2 0.250294 0.993717 0.329404
O O3 0.261672 0.038765 0.110108
O O4 0.404090 0.136374 0.238303
O O5 0.275703 0.724298 0.250000
O O6 0.307955 0.528220 0.342972
O O7 0.050099 0.864944 0.975346
O O8 0.888063 0.727099 0.000599
O O9 0.705305 0.687504 0.897568
O O10 0.434297 0.434297 0.500000
#
# Coordination Sequence:
#
# PCOD9549365 Si02
#       5
#     8   8   8   4   8
#     4  10  25  44  73  98 143 178 244 287 355 427
#     4  11  27  45  70 107 137 193 232 297 357 420
#     4  11  22  45  66 105 134 191 229 298 358 419
#     4  10  24  40  72  96 136 184 230 286 360 424
#     4  10  25  43  64 100 140 180 235 286 356 423
#
# _framework density 21.720134999999999
#
# number of rings (size 3 to 8) (size 9 to 14) (size 15 to 20)
#    0.667    0.889    2.222    0.000   14.000    3.556 
#    0.000    0.000    0.000    0.000    0.000    0.000 
#    0.000    0.000    0.000    0.000    0.000    0.000 
#
# Total GULP energy -200631.074805 kJ/mol
# GULP energy per Si atom -5573.085411 kJ/mol
# Density = 2.167070 g / cm^3
# Si number density = 21.720135 Si / 1000 Ang^3
#
#
#
# Elastic Constant Matrix: (Units=GPa)
#
#
# Indices 1 2 3 4 5 6 
#
# 1 -54.4450 111.0918 20.1814 0.0000 0.0000 0.0000
# 2 111.0918 -54.4633 20.1707 0.0000 0.0000 0.0000
# 3 20.1814 20.1707 132.1134 0.0000 0.0000 0.0000
# 4 0.0000 0.0000 0.0000 26.9173 0.0000 0.0000
# 5 0.0000 0.0000 0.0000 0.0000 26.9174 0.0000
# 6 0.0000 0.0000 0.0000 0.0000 0.0000 35.7398
#
#
#
# Elastic Compliance Matrix: (Units=1/GPa)
#
#
# Indices 1 2 3 4 5 6 
#
# 1 0.006886 0.012926 -0.003025 0.000000 0.000000 0.000000
# 2 0.012926 0.006885 -0.003026 0.000000 0.000000 0.000000
# 3 -0.003025 -0.003026 0.008493 0.000000 0.000000 0.000000
# 4 0.000000 0.000000 0.000000 0.037151 0.000000 0.000000
# 5 0.000000 0.000000 0.000000 0.000000 0.037151 0.000000
# 6 0.000000 0.000000 0.000000 0.000000 0.000000 0.027980
#
#
# Mechanical properties :
#
#
# Convention : Reuss Voigt Hill
#
# Bulk Modulus (GPa) = 27.76665 36.23254 31.99960
# Shear Modulus (GPa) = 40.71630 9.36563 25.04097
#
# Velocity S-wave (km/s) = 4.33435 2.07878 3.39911
# Velocity P-wave (km/s) = 6.15308 4.74126 5.49272
#
# Compressibility (1/GPa) = 0.03601443
#
# Stress axis : x y z
#
# Youngs Moduli (GPa) = 145.21258 145.25059 117.73871
#
# Poissons Ratio (x) = -1.87753 0.35622
# Poissons Ratio (y) = -1.87704 0.35624
# Poissons Ratio (z) = 0.43934 0.43949
#
# Static dielectric constant tensor:
#      x y z
#    x 1.812380 0.000000 0.000000 
#    y 0.000000 1.812380 0.000000 
#    z 0.000000 0.000000 1.860250 
# 
# From -- ./inp_files/1980.got.cif
#   From: 2010.05.17/outbox.cif.g08.bks.cpg/sg92_1_cif.got.tgz:1980.got - 2010.06.03 19:35:17.
