data_PCOD9549967
_publ_section_title
;
Structure prediction by ZEFSAII (Michael W. Deem and Ramdas Pophale) SiO2 
 PCOD9549967
Probable space group: P 42 21 2
;
_chemical_formula_sum "Si O2"
_cell_formula_units_Z 48
_cell_length_a 18.419760
_cell_length_b 18.419760
_cell_length_c 7.250783
_cell_angle_alpha 90.000000
_cell_angle_beta 90.000000
_cell_angle_gamma 90.000000
_cell_volume 2460.100461
_symmetry_space_group_name_H-M "P 42 21 2"
_symmetry_group_IT_number 94
_symmetry_cell_setting 'tetragonal'
loop_
_space_group_symop_operation_xyz
x,y,z
1/2-y,1/2+x,1/2+z
-x,-y,z
1/2+y,1/2-x,1/2+z
1/2+x,1/2-y,1/2-z
1/2-x,1/2+y,1/2-z
y,x,-z
-y,-x,-z
loop_
_atom_site_type_symbol
_atom_site_label
_atom_site_fract_x
_atom_site_fract_y
_atom_site_fract_z
Si Si1 0.801165 0.391703 0.180657
Si Si2 0.842770 0.398330 0.610004
Si Si3 0.693685 0.610433 0.363770
Si Si4 0.267209 0.950776 0.452102
Si Si5 0.443054 0.191872 0.359547
Si Si6 0.249039 0.224057 0.781059
O O1 0.820883 0.404588 0.395339
O O2 0.777276 0.464553 0.083057
O O3 0.876171 0.360980 0.099016
O O4 0.742508 0.327124 0.187829
O O5 0.908604 0.340331 0.621271
O O6 0.851012 0.481608 0.667321
O O7 0.777083 0.358495 0.717282
O O8 0.626708 0.626708 0.500000
O O9 0.696651 0.574770 0.161706
O O10 0.748720 0.559890 0.480315
O O11 0.727934 0.689313 0.316069
O O12 0.266702 0.929898 0.666358
O O13 0.244684 0.244684 0.000000
#
# Coordination Sequence:
#
# PCOD9549967 Si02
#       6
#     8   8   8   8   8   8
#     4  10  19  36  54  81 113 150 194 235 284 338
#     4   9  20  36  52  81 117 151 188 235 284 347
#     4  11  21  35  57  80 109 148 193 233 285 337
#     4  10  23  35  54  82 117 148 193 233 281 348
#     4  11  22  35  54  82 116 151 191 232 285 342
#     4   9  19  35  58  82 112 149 196 249 281 334
#
# _framework density 19.511399999999998
#
# number of rings (size 3 to 8) (size 9 to 14) (size 15 to 20)
#    0.000    2.000    3.333    1.000    4.667    0.667 
#    0.000    3.333    0.000    0.000    0.000    2.333 
#    0.000    2.667    0.000    0.000    0.000    0.000 
#
# Total GULP energy -267634.381377 kJ/mol
# GULP energy per Si atom -5575.716279 kJ/mol
# Density = 1.946699 g / cm^3
# Si number density = 19.511400 Si / 1000 Ang^3
#
#
#
# Elastic Constant Matrix: (Units=GPa)
#
#
# Indices 1 2 3 4 5 6 
#
# 1 48.3327 30.8832 5.6803 0.0000 0.0000 0.0000
# 2 30.8832 48.3327 5.6803 0.0000 0.0000 0.0000
# 3 5.6803 5.6803 68.2715 0.0000 0.0000 0.0000
# 4 0.0000 0.0000 0.0000 24.1271 0.0000 0.0000
# 5 0.0000 0.0000 0.0000 0.0000 24.1271 0.0000
# 6 0.0000 0.0000 0.0000 0.0000 0.0000 18.6609
#
#
#
# Elastic Compliance Matrix: (Units=1/GPa)
#
#
# Indices 1 2 3 4 5 6 
#
# 1 0.035042 -0.022266 -0.001063 0.000000 0.000000 0.000000
# 2 -0.022266 0.035042 -0.001063 0.000000 0.000000 0.000000
# 3 -0.001063 -0.001063 0.014824 0.000000 0.000000 0.000000
# 4 0.000000 0.000000 0.000000 0.041447 0.000000 0.000000
# 5 0.000000 0.000000 0.000000 0.000000 0.041447 0.000000
# 6 0.000000 0.000000 0.000000 0.000000 0.000000 0.053588
#
#
# Mechanical properties :
#
#
# Convention : Reuss Voigt Hill
#
# Bulk Modulus (GPa) = 27.68190 27.71380 27.69785
# Shear Modulus (GPa) = 17.71689 21.56255 19.63972
#
# Velocity S-wave (km/s) = 3.01662 3.32795 3.17610
# Velocity P-wave (km/s) = 5.13339 5.38533 5.26087
#
# Compressibility (1/GPa) = 0.03612468
#
# Stress axis : x y z
#
# Youngs Moduli (GPa) = 28.53704 28.53704 67.45689
#
# Poissons Ratio (x) = 0.63541 0.07171
# Poissons Ratio (y) = 0.63541 0.07171
# Poissons Ratio (z) = 0.03033 0.03033
#
# Static dielectric constant tensor:
#      x y z
#    x 1.688790 0.000000 0.000000 
#    y 0.000000 1.688790 0.000000 
#    z 0.000000 0.000000 1.788920 
# 
# From -- ./inp_files/1617.got.cif
#   From: 2010.05.17/outbox.cif.g08.bks.cpg/sg94_1_cif.got.tgz:1617.got - 2010.06.03 19:43:16.
