data_PCOD9549278
_publ_section_title
;
Structure prediction by ZEFSAII (Michael W. Deem and Ramdas Pophale) SiO2 
 PCOD9549278
Probable space group: P 41 21 2
;
_chemical_formula_sum "Si O2"
_cell_formula_units_Z 48
_cell_length_a 11.717263
_cell_length_b 11.717263
_cell_length_c 18.263809
_cell_angle_alpha 90.000000
_cell_angle_beta 90.000000
_cell_angle_gamma 90.000000
_cell_volume 2507.515999
_symmetry_space_group_name_H-M "P 41 21 2"
_symmetry_group_IT_number 92
_symmetry_cell_setting 'tetragonal'
loop_
_space_group_symop_operation_xyz
x,y,z
1/2-y,1/2+x,1/4+z
-x,-y,1/2+z
1/2+y,1/2-x,3/4+z
1/2+x,1/2-y,3/4-z
1/2-x,1/2+y,1/4-z
y,x,-z
-y,-x,1/2-z
loop_
_atom_site_type_symbol
_atom_site_label
_atom_site_fract_x
_atom_site_fract_y
_atom_site_fract_z
Si Si1 0.233547 0.467019 0.428042
Si Si2 0.438107 0.487548 0.830832
Si Si3 0.410383 0.970763 0.555574
Si Si4 0.848388 0.831351 0.413600
Si Si5 0.823391 0.578578 0.354583
Si Si6 0.940661 0.192089 0.343342
O O1 0.272848 0.572463 0.377577
O O2 0.264694 0.479099 0.513775
O O3 0.311878 0.358305 0.406031
O O4 0.099233 0.446819 0.424323
O O5 0.461842 0.538159 0.750000
O O6 0.522529 0.380034 0.839693
O O7 0.308555 0.453742 0.843584
O O8 0.479418 0.586275 0.885283
O O9 0.387363 0.956356 0.469901
O O10 0.504801 0.881533 0.581863
O O11 0.293344 0.947777 0.598909
O O12 0.819895 0.819895 0.500000
O O13 0.835444 0.711372 0.373427
#
# Coordination Sequence:
#
# PCOD9549278 Si02
#       6
#     8   8   8   8   8   8
#     4  10  24  44  68  95 136 176 221 283 342 401
#     4  10  22  46  73  96 131 177 231 278 340 402
#     4  12  26  42  67 105 132 175 226 286 347 400
#     4  10  26  47  68  97 136 190 226 275 348 416
#     4  12  28  42  70 102 139 176 232 285 340 413
#     4  10  22  43  69  98 128 174 225 281 340 399
#
# _framework density 19.142448999999999
#
# number of rings (size 3 to 8) (size 9 to 14) (size 15 to 20)
#    0.000    1.333    3.333    0.000    9.333    0.000 
#    3.000    0.000    0.000    0.000    0.000    0.000 
#    0.000    0.000    0.000    0.000    0.000    0.000 
#
# Total GULP energy -268285.798118 kJ/mol
# GULP energy per Si atom -5589.287461 kJ/mol
# Density = 1.909888 g / cm^3
# Si number density = 19.142449 Si / 1000 Ang^3
#
#
#
# Elastic Constant Matrix: (Units=GPa)
#
#
# Indices 1 2 3 4 5 6 
#
# 1 89.4818 80.4384 15.4208 0.0000 0.0000 0.0000
# 2 80.4384 89.4824 15.4209 0.0000 0.0000 0.0000
# 3 15.4208 15.4209 16.8665 0.0000 0.0000 0.0000
# 4 0.0000 0.0000 0.0000 26.6052 0.0000 0.0000
# 5 0.0000 0.0000 0.0000 0.0000 26.6049 0.0000
# 6 0.0000 0.0000 0.0000 0.0000 0.0000 9.2742
#
#
#
# Elastic Compliance Matrix: (Units=1/GPa)
#
#
# Indices 1 2 3 4 5 6 
#
# 1 0.058815 -0.051759 -0.006451 0.000000 0.000000 0.000000
# 2 -0.051759 0.058815 -0.006452 0.000000 0.000000 0.000000
# 3 -0.006451 -0.006452 0.071086 0.000000 0.000000 0.000000
# 4 0.000000 0.000000 0.000000 0.037587 0.000000 0.000000
# 5 0.000000 0.000000 0.000000 0.000000 0.037587 0.000000
# 6 0.000000 0.000000 0.000000 0.000000 0.000000 0.107826
#
#
# Mechanical properties :
#
#
# Convention : Reuss Voigt Hill
#
# Bulk Modulus (GPa) = 16.83704 46.48787 31.66246
# Shear Modulus (GPa) = 9.59996 18.13357 13.86676
#
# Velocity S-wave (km/s) = 2.24185 3.08116 2.69439
# Velocity P-wave (km/s) = 3.93903 6.08243 5.12406
#
# Compressibility (1/GPa) = 0.05939287
#
# Stress axis : x y z
#
# Youngs Moduli (GPa) = 17.00247 17.00254 14.06748
#
# Poissons Ratio (x) = 0.88003 0.09075
# Poissons Ratio (y) = 0.88003 0.09076
# Poissons Ratio (z) = 0.10968 0.10970
#
# Static dielectric constant tensor:
#      x y z
#    x 1.638960 0.000000 0.000000 
#    y 0.000000 1.638960 0.000000 
#    z 0.000000 0.000000 1.667420 
# 
# From -- ./inp_files/3145.got.cif
#   From: 2010.05.17/outbox.cif.g08.bks.cpg/sg92_2_cif.got.tgz:3145.got - 2010.06.03 19:35:17.
