data_PCOD9549039
_publ_section_title
;
Structure prediction by ZEFSAII (Michael W. Deem and Ramdas Pophale) SiO2 
 PCOD9549039
Probable space group: P 41 21 2
;
_chemical_formula_sum "Si O2"
_cell_formula_units_Z 60
_cell_length_a 16.490372
_cell_length_b 16.490372
_cell_length_c 9.073265
_cell_angle_alpha 90.000000
_cell_angle_beta 90.000000
_cell_angle_gamma 90.000000
_cell_volume 2467.314443
_symmetry_space_group_name_H-M "P 41 21 2"
_symmetry_group_IT_number 92
_symmetry_cell_setting 'tetragonal'
loop_
_space_group_symop_operation_xyz
x,y,z
1/2-y,1/2+x,1/4+z
-x,-y,1/2+z
1/2+y,1/2-x,3/4+z
1/2+x,1/2-y,3/4-z
1/2-x,1/2+y,1/4-z
y,x,-z
-y,-x,1/2-z
loop_
_atom_site_type_symbol
_atom_site_label
_atom_site_fract_x
_atom_site_fract_y
_atom_site_fract_z
Si Si1 0.884595 0.748170 0.241890
Si Si2 0.820796 0.001897 0.520704
Si Si3 0.402762 0.706203 0.971264
Si Si4 0.096422 0.903579 0.250000
Si Si5 0.276123 0.868905 0.344438
Si Si6 0.182432 0.518957 0.731431
Si Si7 0.133037 0.705881 0.500078
Si Si8 0.967545 0.434590 0.038096
O O1 0.863199 0.838130 0.183993
O O2 0.804009 0.712271 0.321260
O O3 0.912226 0.692162 0.107069
O O4 0.955425 0.760092 0.363428
O O5 0.897095 0.024499 0.628938
O O6 0.793705 0.093707 0.471817
O O7 0.818456 0.942041 0.379501
O O8 0.474491 0.734816 0.863879
O O9 0.345213 0.787966 0.953710
O O10 0.183561 0.899446 0.334447
O O11 0.324339 0.937494 0.427577
O O12 0.299530 0.859201 0.175524
O O13 0.105751 0.521434 0.623541
O O14 0.055410 0.657084 0.562259
O O15 0.047180 0.462868 0.117533
#
# Coordination Sequence:
#
# PCOD9549039 Si02
#       8
#     8   8   8   4   8   8   8   8
#     4  12  22  39  71  97 125 177 226 284 336 413
#     4  11  22  39  69  95 133 170 226 279 333 399
#     4  11  24  42  66 101 135 174 229 282 344 408
#     4  10  22  44  66 100 128 176 224 284 324 416
#     4  11  22  39  70  94 128 172 229 273 341 405
#     4  11  24  42  59  96 138 169 217 286 349 403
#     4  10  20  38  61  94 128 170 220 283 326 403
#     4  11  25  37  57  88 137 182 223 267 345 428
#
# _framework density 24.317938999999999
#
# number of rings (size 3 to 8) (size 9 to 14) (size 15 to 20)
#    0.000    1.067    4.000    4.800    1.867    1.067 
#    0.000    2.000    5.867    0.000    0.000    0.000 
#    0.000    0.000    0.000    0.000    0.000    0.000 
#
# Total GULP energy -334156.587679 kJ/mol
# GULP energy per Si atom -5569.276461 kJ/mol
# Density = 2.426259 g / cm^3
# Si number density = 24.317939 Si / 1000 Ang^3
#
#
#
# Elastic Constant Matrix: (Units=GPa)
#
#
# Indices 1 2 3 4 5 6 
#
# 1 47.0100 0.5708 8.2470 0.0000 0.0000 0.0000
# 2 0.5708 47.0094 8.2471 0.0000 0.0000 0.0000
# 3 8.2470 8.2471 67.5996 0.0000 0.0000 0.0000
# 4 0.0000 0.0000 0.0000 37.7934 0.0000 0.0000
# 5 0.0000 0.0000 0.0000 0.0000 37.7934 0.0000
# 6 0.0000 0.0000 0.0000 0.0000 0.0000 19.0709
#
#
#
# Elastic Compliance Matrix: (Units=1/GPa)
#
#
# Indices 1 2 3 4 5 6 
#
# 1 0.021739 0.000206 -0.002677 0.000000 0.000000 0.000000
# 2 0.000206 0.021740 -0.002677 0.000000 0.000000 0.000000
# 3 -0.002677 -0.002677 0.015446 0.000000 0.000000 0.000000
# 4 0.000000 0.000000 0.000000 0.026460 0.000000 0.000000
# 5 0.000000 0.000000 0.000000 0.000000 0.026460 0.000000
# 6 0.000000 0.000000 0.000000 0.000000 0.000000 0.052436
#
#
# Mechanical properties :
#
#
# Convention : Reuss Voigt Hill
#
# Bulk Modulus (GPa) = 20.56456 21.74988 21.15722
# Shear Modulus (GPa) = 26.20724 28.56848 27.38786
#
# Velocity S-wave (km/s) = 3.28638 3.43124 3.35959
# Velocity P-wave (km/s) = 4.78281 4.96601 4.87527
#
# Compressibility (1/GPa) = 0.04862734
#
# Stress axis : x y z
#
# Youngs Moduli (GPa) = 45.99974 45.99913 64.74072
#
# Poissons Ratio (x) = -0.00946 0.17333
# Poissons Ratio (y) = -0.00946 0.17333
# Poissons Ratio (z) = 0.12315 0.12315
#
# Static dielectric constant tensor:
#      x y z
#    x 2.051820 0.000000 0.000000 
#    y 0.000000 2.051820 0.000000 
#    z 0.000000 0.000000 1.947200 
# 
# From -- ./inp_files/1641.got.cif
#   From: 2010.05.17/outbox.cif.g08.bks.cpg/sg92_1_cif.got.tgz:1641.got - 2010.06.03 19:35:17.
