data_PCOD9549811
_publ_section_title
;
Structure prediction by ZEFSAII (Michael W. Deem and Ramdas Pophale) SiO2 
 PCOD9549811
Probable space group: P 42 2 2
;
_chemical_formula_sum "Si O2"
_cell_formula_units_Z 58
_cell_length_a 16.903303
_cell_length_b 16.903303
_cell_length_c 9.323917
_cell_angle_alpha 90.000000
_cell_angle_beta 90.000000
_cell_angle_gamma 90.000000
_cell_volume 2664.044971
_symmetry_space_group_name_H-M "P 42 2 2"
_symmetry_group_IT_number 93
_symmetry_cell_setting 'tetragonal'
loop_
_space_group_symop_operation_xyz
x,y,z
-y,x,1/2+z
-x,-y,z
y,-x,1/2+z
x,-y,-z
-x,y,-z
y,x,1/2-z
-y,-x,1/2-z
loop_
_atom_site_type_symbol
_atom_site_label
_atom_site_fract_x
_atom_site_fract_y
_atom_site_fract_z
Si Si1 0.078514 0.811230 0.682735
Si Si2 0.420259 0.682387 0.172345
Si Si3 0.891997 0.783693 0.644270
Si Si4 0.109914 0.551905 0.737053
Si Si5 0.842895 0.629051 0.795946
Si Si6 0.395579 0.284784 0.154730
Si Si7 0.688082 0.919643 0.426306
Si Si8 0.500000 0.000000 0.000000
O O1 0.106167 0.893834 0.750000
O O2 0.117201 0.799191 0.525891
O O3 0.105253 0.745910 0.799047
O O4 0.984036 0.803452 0.672626
O O5 0.397300 0.602701 0.250000
O O6 0.384188 0.751006 0.270718
O O7 0.514291 0.686378 0.173253
O O8 0.384612 0.700251 0.015044
O O9 0.836115 0.836115 0.750000
O O10 0.876918 0.691678 0.681606
O O11 0.122208 0.540144 0.220608
O O12 0.193051 0.594565 0.700893
O O13 0.065548 0.602562 0.856093
O O14 0.056467 0.552395 0.597040
O O15 0.858609 0.670009 0.947926
O O16 0.332835 0.332835 0.250000
O O17 0.718599 0.000000 0.500000
#
# Coordination Sequence:
#
# PCOD9549811 Si02
#       8
#     8   8   8   8   8   8   8   2
#     4  11  27  45  72 104 138 186 240 293 362 431
#     4  10  23  42  69 101 135 187 238 288 363 420
#     4  11  25  47  74 102 139 185 235 298 365 426
#     4  11  26  41  72 101 140 192 233 290 365 428
#     4  11  23  44  68  99 144 180 233 292 356 431
#     4  10  24  46  68 100 142 181 242 300 346 432
#     4  12  25  44  67 101 143 177 232 287 350 427
#     4  12  24  40  70 104 144 182 240 304 356 448
#
# _framework density 21.771402999999999
#
# number of rings (size 3 to 8) (size 9 to 14) (size 15 to 20)
#    0.000    1.103    1.379    4.138    5.793    2.207 
#    0.000    2.759    0.000    0.000    0.000    0.000 
#    0.000    0.000    0.000    0.000    0.000    0.000 
#
# Total GULP energy -324221.013834 kJ/mol
# GULP energy per Si atom -5590.017480 kJ/mol
# Density = 2.172185 g / cm^3
# Si number density = 21.771403 Si / 1000 Ang^3
#
#
#
# Elastic Constant Matrix: (Units=GPa)
#
#
# Indices 1 2 3 4 5 6 
#
# 1 44.4635 63.8432 42.7276 0.0000 0.0000 0.0000
# 2 63.8432 44.4665 42.7275 0.0000 0.0000 0.0000
# 3 42.7276 42.7275 148.5390 0.0000 0.0000 0.0000
# 4 0.0000 0.0000 0.0000 37.5256 0.0000 0.0000
# 5 0.0000 0.0000 0.0000 0.0000 37.5247 0.0000
# 6 0.0000 0.0000 0.0000 0.0000 0.0000 29.5498
#
#
#
# Elastic Compliance Matrix: (Units=1/GPa)
#
#
# Indices 1 2 3 4 5 6 
#
# 1 -0.019831 0.031774 -0.003435 0.000000 0.000000 0.000000
# 2 0.031774 -0.019829 -0.003436 0.000000 0.000000 0.000000
# 3 -0.003435 -0.003436 0.008709 0.000000 0.000000 0.000000
# 4 0.000000 0.000000 0.000000 0.026648 0.000000 0.000000
# 5 0.000000 0.000000 0.000000 0.000000 0.026649 0.000000
# 6 0.000000 0.000000 0.000000 0.000000 0.000000 0.033841
#
#
# Mechanical properties :
#
#
# Convention : Reuss Voigt Hill
#
# Bulk Modulus (GPa) = 53.04040 59.56284 56.30162
# Shear Modulus (GPa) = 394.76441 26.79807 210.78124
#
# Velocity S-wave (km/s) = 13.48021 3.51220 9.85017
# Velocity P-wave (km/s) = 16.33106 6.62307 12.46131
#
# Compressibility (1/GPa) = 0.01885355
#
# Stress axis : x y z
#
# Youngs Moduli (GPa) = -50.42535 -50.43014 114.82697
#
# Poissons Ratio (x) = 1.60237 0.39447
# Poissons Ratio (y) = 1.60221 0.39453
# Poissons Ratio (z) = -0.17323 -0.17327
#
# Static dielectric constant tensor:
#      x y z
#    x 1.824440 0.000000 0.000000 
#    y 0.000000 1.824450 0.000000 
#    z 0.000000 0.000000 1.820890 
# 
# From -- ./inp_files/2164.got.cif
#   From: 2010.05.17/outbox.cif.g08.bks.cpg/sg93_2_cif.got.tgz:2164.got - 2010.06.03 19:38:44.
