data_PCOD9549142
_publ_section_title
;
Structure prediction by ZEFSAII (Michael W. Deem and Ramdas Pophale) SiO2 
 PCOD9549142
Probable space group: P 41 21 2
;
_chemical_formula_sum "Si O2"
_cell_formula_units_Z 48
_cell_length_a 9.629309
_cell_length_b 9.629309
_cell_length_c 18.180091
_cell_angle_alpha 90.000000
_cell_angle_beta 90.000000
_cell_angle_gamma 90.000000
_cell_volume 1685.723337
_symmetry_space_group_name_H-M "P 41 21 2"
_symmetry_group_IT_number 92
_symmetry_cell_setting 'tetragonal'
loop_
_space_group_symop_operation_xyz
x,y,z
1/2-y,1/2+x,1/4+z
-x,-y,1/2+z
1/2+y,1/2-x,3/4+z
1/2+x,1/2-y,3/4-z
1/2-x,1/2+y,1/4-z
y,x,-z
-y,-x,1/2-z
loop_
_atom_site_type_symbol
_atom_site_label
_atom_site_fract_x
_atom_site_fract_y
_atom_site_fract_z
Si Si1 0.713603 0.080240 0.671000
Si Si2 0.897420 0.690128 0.733963
Si Si3 0.756773 0.172095 0.106281
Si Si4 0.542804 0.476110 0.897949
Si Si5 0.159200 0.159200 0.000000
Si Si6 0.996652 0.627312 0.066505
Si Si7 0.177300 0.177300 0.500000
O O1 0.653425 0.130573 0.593545
O O2 0.646746 0.177685 0.732825
O O3 0.880494 0.086374 0.670222
O O4 0.651479 0.925795 0.678478
O O5 0.768854 0.698034 0.789963
O O6 0.953031 0.843263 0.711903
O O7 0.016549 0.596389 0.770908
O O8 0.762191 0.270659 0.178975
O O9 0.593588 0.133468 0.108088
O O10 0.863018 0.047137 0.125084
O O11 0.589037 0.399138 0.822635
O O12 0.975081 0.774125 0.024866
#
# Coordination Sequence:
#
# PCOD9549142 Si02
#       7
#     8   8   8   8   4   8   4
#     4  11  24  39  69  98 145 181 236 294 373 442
#     4  11  21  39  64  94 128 182 235 287 350 434
#     4  10  21  40  66  93 129 175 235 295 357 418
#     4  11  21  41  63  96 132 177 227 289 357 421
#     4  10  24  41  64 101 134 186 232 294 366 444
#     4  10  21  40  66  95 124 186 238 289 349 435
#     4   8  20  41  64  97 126 174 246 290 352 414
#
# _framework density 28.474423000000002
#
# number of rings (size 3 to 8) (size 9 to 14) (size 15 to 20)
#    1.000    0.667    1.667    4.000    0.000    4.667 
#    0.000    1.667    0.000    5.000    0.000    0.000 
#    0.000    0.000    0.000    0.000    0.000    0.000 
#
# Total GULP energy -268967.055752 kJ/mol
# GULP energy per Si atom -5603.480328 kJ/mol
# Density = 2.840961 g / cm^3
# Si number density = 28.474423 Si / 1000 Ang^3
#
#
#
# Elastic Constant Matrix: (Units=GPa)
#
#
# Indices 1 2 3 4 5 6 
#
# 1 98.8511 37.5293 26.9617 0.0000 0.0000 0.0000
# 2 37.5293 98.8511 26.9617 0.0000 0.0000 0.0000
# 3 26.9617 26.9617 139.5371 0.0000 0.0000 0.0000
# 4 0.0000 0.0000 0.0000 41.3703 0.0000 0.0000
# 5 0.0000 0.0000 0.0000 0.0000 41.3703 0.0000
# 6 0.0000 0.0000 0.0000 0.0000 0.0000 51.4755
#
#
#
# Elastic Compliance Matrix: (Units=1/GPa)
#
#
# Indices 1 2 3 4 5 6 
#
# 1 0.012123 -0.004184 -0.001534 0.000000 0.000000 0.000000
# 2 -0.004184 0.012123 -0.001534 0.000000 0.000000 0.000000
# 3 -0.001534 -0.001534 0.007759 0.000000 0.000000 0.000000
# 4 0.000000 0.000000 0.000000 0.024172 0.000000 0.000000
# 5 0.000000 0.000000 0.000000 0.000000 0.024172 0.000000
# 6 0.000000 0.000000 0.000000 0.000000 0.000000 0.019427
#
#
# Mechanical properties :
#
#
# Convention : Reuss Voigt Hill
#
# Bulk Modulus (GPa) = 57.13855 57.79387 57.46621
# Shear Modulus (GPa) = 41.62699 43.22902 42.42800
#
# Velocity S-wave (km/s) = 3.82764 3.90060 3.86429
# Velocity P-wave (km/s) = 6.29640 6.37393 6.33528
#
# Compressibility (1/GPa) = 0.01750132
#
# Stress axis : x y z
#
# Youngs Moduli (GPa) = 82.48665 82.48665 128.87672
#
# Poissons Ratio (x) = 0.34514 0.19770
# Poissons Ratio (y) = 0.34514 0.19770
# Poissons Ratio (z) = 0.12653 0.12653
#
# Static dielectric constant tensor:
#      x y z
#    x 2.219810 0.000000 0.000000 
#    y 0.000000 2.219810 0.000000 
#    z 0.000000 0.000000 2.176980 
# 
# From -- ./inp_files/3543.got.cif
#   From: 2010.05.17/outbox.cif.g08.bks.cpg/sg92_2_cif.got.tgz:3543.got - 2010.06.03 19:35:17.
