data_PCOD9549943
_publ_section_title
;
Structure prediction by ZEFSAII (Michael W. Deem and Ramdas Pophale) SiO2 
 PCOD9549943
Probable space group: P 42 21 2
;
_chemical_formula_sum "Si O2"
_cell_formula_units_Z 64
_cell_length_a 11.690185
_cell_length_b 11.690185
_cell_length_c 22.256764
_cell_angle_alpha 90.000000
_cell_angle_beta 90.000000
_cell_angle_gamma 90.000000
_cell_volume 3041.618835
_symmetry_space_group_name_H-M "P 42 21 2"
_symmetry_group_IT_number 94
_symmetry_cell_setting 'tetragonal'
loop_
_space_group_symop_operation_xyz
x,y,z
1/2-y,1/2+x,1/2+z
-x,-y,z
1/2+y,1/2-x,1/2+z
1/2+x,1/2-y,1/2-z
1/2-x,1/2+y,1/2-z
y,x,-z
-y,-x,-z
loop_
_atom_site_type_symbol
_atom_site_label
_atom_site_fract_x
_atom_site_fract_y
_atom_site_fract_z
Si Si1 0.949496 0.336378 0.427831
Si Si2 0.468012 0.692345 0.728196
Si Si3 0.399560 0.425422 0.071831
Si Si4 0.543498 0.835756 0.618036
Si Si5 0.064204 0.329410 0.558565
Si Si6 0.398759 0.076387 0.308610
Si Si7 0.020630 0.833530 0.189790
Si Si8 0.621945 0.669411 0.437221
O O1 0.906178 0.209086 0.411595
O O2 0.853438 0.432752 0.423652
O O3 0.049330 0.380834 0.383206
O O4 0.002469 0.349205 0.494683
O O5 0.492126 0.791613 0.679881
O O6 0.447482 0.769564 0.786411
O O7 0.576810 0.607041 0.722018
O O8 0.363638 0.607384 0.711301
O O9 0.500000 0.500000 0.100878
O O10 0.289584 0.504952 0.077493
O O11 0.418198 0.418198 0.000000
O O12 0.621163 0.735492 0.593334
O O13 0.052955 0.398595 0.620075
O O14 0.199227 0.346909 0.546730
O O15 0.433949 0.207260 0.297070
O O16 0.500000 0.000000 0.281093
O O17 0.029684 0.844582 0.116519
O O18 0.604179 0.604179 0.500000
#
# Coordination Sequence:
#
# PCOD9549943 Si02
#       8
#     8   8   8   8   8   8   8   8
#     4  10  20  34  58  93 127 168 208 263 321 384
#     4  10  23  48  66  94 128 168 226 275 328 387
#     4   9  18  33  55  86 126 166 205 252 306 386
#     4  10  21  35  63  87 123 169 210 267 317 385
#     4  10  21  38  59  91 133 165 214 263 331 395
#     4  11  26  41  69  96 124 176 217 272 335 397
#     4   9  23  46  70  94 133 168 217 285 325 388
#     4  10  18  36  67  96 120 170 211 261 330 394
#
# _framework density 21.041428
#
# number of rings (size 3 to 8) (size 9 to 14) (size 15 to 20)
#    0.000    2.125    1.250    0.750    7.000    1.000 
#    2.250    7.500    0.000    0.000    0.000    0.000 
#    0.000    0.000    0.000    0.000    0.000    0.000 
#
# Total GULP energy -356384.598679 kJ/mol
# GULP energy per Si atom -5568.509354 kJ/mol
# Density = 2.099354 g / cm^3
# Si number density = 21.041428 Si / 1000 Ang^3
#
#
#
# Elastic Constant Matrix: (Units=GPa)
#
#
# Indices 1 2 3 4 5 6 
#
# 1 46.1934 44.2627 29.1455 0.0000 0.0000 0.0000
# 2 44.2627 46.1934 29.1455 0.0000 0.0000 0.0000
# 3 29.1455 29.1455 67.3442 0.0000 0.0000 0.0000
# 4 0.0000 0.0000 0.0000 14.5778 0.0000 0.0000
# 5 0.0000 0.0000 0.0000 0.0000 14.5778 0.0000
# 6 0.0000 0.0000 0.0000 0.0000 0.0000 25.5198
#
#
#
# Elastic Compliance Matrix: (Units=1/GPa)
#
#
# Indices 1 2 3 4 5 6 
#
# 1 0.266639 -0.251309 -0.006635 0.000000 0.000000 0.000000
# 2 -0.251309 0.266639 -0.006635 0.000000 0.000000 0.000000
# 3 -0.006635 -0.006635 0.020592 0.000000 0.000000 0.000000
# 4 0.000000 0.000000 0.000000 0.068597 0.000000 0.000000
# 5 0.000000 0.000000 0.000000 0.000000 0.068597 0.000000
# 6 0.000000 0.000000 0.000000 0.000000 0.000000 0.039185
#
#
# Mechanical properties :
#
#
# Convention : Reuss Voigt Hill
#
# Bulk Modulus (GPa) = 40.46309 40.53761 40.50035
# Shear Modulus (GPa) = 3.94432 14.74692 9.34562
#
# Velocity S-wave (km/s) = 1.37063 2.65023 2.10978
# Velocity P-wave (km/s) = 4.66656 5.35466 5.02241
#
# Compressibility (1/GPa) = 0.02471388
#
# Stress axis : x y z
#
# Youngs Moduli (GPa) = 3.75038 3.75038 48.56257
#
# Poissons Ratio (x) = 0.94250 0.32221
# Poissons Ratio (y) = 0.94250 0.32221
# Poissons Ratio (z) = 0.02488 0.02488
#
# Static dielectric constant tensor:
#      x y z
#    x 1.805640 0.000000 0.000000 
#    y 0.000000 1.805640 0.000000 
#    z 0.000000 0.000000 1.847640 
# 
# From -- ./inp_files/5171.got.cif
#   From: 2010.05.17/outbox.cif.g08.bks.cpg/sg94_3_cif.got.tgz:5171.got - 2010.06.03 19:43:16.
