data_PCOD9549500
_publ_section_title
;
Structure prediction by ZEFSAII (Michael W. Deem and Ramdas Pophale) SiO2 
 PCOD9549500
Probable space group: P 41 21 2
;
_chemical_formula_sum "Si O2"
_cell_formula_units_Z 48
_cell_length_a 9.171237
_cell_length_b 9.171237
_cell_length_c 27.555143
_cell_angle_alpha 90.000000
_cell_angle_beta 90.000000
_cell_angle_gamma 90.000000
_cell_volume 2317.706838
_symmetry_space_group_name_H-M "P 41 21 2"
_symmetry_group_IT_number 92
_symmetry_cell_setting 'tetragonal'
loop_
_space_group_symop_operation_xyz
x,y,z
1/2-y,1/2+x,1/4+z
-x,-y,1/2+z
1/2+y,1/2-x,3/4+z
1/2+x,1/2-y,3/4-z
1/2-x,1/2+y,1/4-z
y,x,-z
-y,-x,1/2-z
loop_
_atom_site_type_symbol
_atom_site_label
_atom_site_fract_x
_atom_site_fract_y
_atom_site_fract_z
Si Si1 0.269403 0.461693 0.405537
Si Si2 0.070958 0.660512 0.084593
Si Si3 0.246783 0.381531 0.117005
Si Si4 0.311849 0.076561 0.517346
Si Si5 0.416464 0.495228 0.947217
Si Si6 0.693395 0.179650 0.090618
O O1 0.204185 0.600577 0.378876
O O2 0.182115 0.428344 0.455541
O O3 0.441903 0.477410 0.414343
O O4 0.253086 0.324813 0.370424
O O5 0.189812 0.544435 0.104635
O O6 0.142464 0.822619 0.090769
O O7 0.932460 0.645248 0.120072
O O8 0.013023 0.634683 0.030062
O O9 0.345270 0.341711 0.070518
O O10 0.179970 0.179970 0.500000
O O11 0.267414 0.959888 0.558436
O O12 0.302316 0.624162 0.943546
O O13 0.475724 0.475724 0.000000
#
# Coordination Sequence:
#
# PCOD9549500 Si02
#       6
#     8   8   8   8   8   8
#     4  12  24  44  72 102 141 189 231 299 358 417
#     4  11  24  46  69  99 149 187 240 296 357 429
#     4  11  24  45  69  98 143 187 228 288 366 418
#     4  12  25  44  73 108 141 184 246 295 352 437
#     4  11  25  45  68 101 138 186 239 288 351 429
#     4  11  25  43  71 103 143 186 235 300 360 419
#
# _framework density 20.710125000000001
#
# number of rings (size 3 to 8) (size 9 to 14) (size 15 to 20)
#    0.000    0.667    5.000    2.500    2.333    0.000 
#    0.000    0.833    0.000    0.000    0.000    0.000 
#    0.000    0.000    0.000    0.000    0.000    0.000 
#
# Total GULP energy -267862.544987 kJ/mol
# GULP energy per Si atom -5580.469687 kJ/mol
# Density = 2.066299 g / cm^3
# Si number density = 20.710125 Si / 1000 Ang^3
#
#
#
# Elastic Constant Matrix: (Units=GPa)
#
#
# Indices 1 2 3 4 5 6 
#
# 1 103.1615 37.1981 34.6865 0.0000 0.0000 0.0000
# 2 37.1981 103.1615 34.6865 0.0000 0.0000 0.0000
# 3 34.6865 34.6865 56.4277 0.0000 0.0000 0.0000
# 4 0.0000 0.0000 0.0000 27.1238 0.0000 0.0000
# 5 0.0000 0.0000 0.0000 0.0000 27.1238 0.0000
# 6 0.0000 0.0000 0.0000 0.0000 0.0000 33.8222
#
#
#
# Elastic Compliance Matrix: (Units=1/GPa)
#
#
# Indices 1 2 3 4 5 6 
#
# 1 0.012697 -0.002463 -0.006291 0.000000 0.000000 0.000000
# 2 -0.002463 0.012697 -0.006291 0.000000 0.000000 0.000000
# 3 -0.006291 -0.006291 0.025456 0.000000 0.000000 0.000000
# 4 0.000000 0.000000 0.000000 0.036868 0.000000 0.000000
# 5 0.000000 0.000000 0.000000 0.000000 0.036868 0.000000
# 6 0.000000 0.000000 0.000000 0.000000 0.000000 0.029566
#
#
# Mechanical properties :
#
#
# Convention : Reuss Voigt Hill
#
# Bulk Modulus (GPa) = 48.16906 52.87699 50.52303
# Shear Modulus (GPa) = 26.15596 28.02594 27.09095
#
# Velocity S-wave (km/s) = 3.55766 3.68264 3.62069
# Velocity P-wave (km/s) = 6.33918 6.60832 6.47515
#
# Compressibility (1/GPa) = 0.02076021
#
# Stress axis : x y z
#
# Youngs Moduli (GPa) = 78.75969 78.75969 39.28389
#
# Poissons Ratio (x) = 0.19399 0.24713
# Poissons Ratio (y) = 0.19399 0.24713
# Poissons Ratio (z) = 0.49546 0.49546
#
# Static dielectric constant tensor:
#      x y z
#    x 1.772260 0.000000 0.000000 
#    y 0.000000 1.772260 0.000000 
#    z 0.000000 0.000000 1.729140 
# 
# From -- ./inp_files/4471.got.cif
#   From: 2010.05.17/outbox.cif.g08.bks.cpg/sg92_3_cif.got.tgz:4471.got - 2010.06.03 19:35:17.
