data_PCOD9549239
_publ_section_title
;
Structure prediction by ZEFSAII (Michael W. Deem and Ramdas Pophale) SiO2 
 PCOD9549239
Probable space group: P 41 21 2
;
_chemical_formula_sum "Si O2"
_cell_formula_units_Z 40
_cell_length_a 19.212448
_cell_length_b 19.212448
_cell_length_c 5.013207
_cell_angle_alpha 90.000000
_cell_angle_beta 90.000000
_cell_angle_gamma 90.000000
_cell_volume 1850.465734
_symmetry_space_group_name_H-M "P 41 21 2"
_symmetry_group_IT_number 92
_symmetry_cell_setting 'tetragonal'
loop_
_space_group_symop_operation_xyz
x,y,z
1/2-y,1/2+x,1/4+z
-x,-y,1/2+z
1/2+y,1/2-x,3/4+z
1/2+x,1/2-y,3/4-z
1/2-x,1/2+y,1/4-z
y,x,-z
-y,-x,1/2-z
loop_
_atom_site_type_symbol
_atom_site_label
_atom_site_fract_x
_atom_site_fract_y
_atom_site_fract_z
Si Si1 0.142792 0.857209 0.250000
Si Si2 0.391477 0.001111 0.389620
Si Si3 0.189123 0.628772 0.655902
Si Si4 0.375346 0.195935 0.074688
Si Si5 0.074304 0.925697 0.750000
Si Si6 0.421101 0.578900 0.250000
Si Si7 0.352639 0.647362 0.750000
O O1 0.225000 0.869497 0.233980
O O2 0.121320 0.903311 0.502473
O O3 0.445005 0.942872 0.496252
O O4 0.334290 0.951730 0.253550
O O5 0.345927 0.052431 0.573491
O O6 0.177825 0.653908 0.357292
O O7 0.270899 0.633285 0.707389
O O8 0.147575 0.678407 0.870008
O O9 0.997316 0.915926 0.631690
O O10 0.399982 0.627379 0.496496
#
# Coordination Sequence:
#
# PCOD9549239 Si02
#       7
#     4   8   8   8   4   4   4
#     4  12  25  45  74 104 138 188 240 303 367 438
#     4  10  22  40  68 100 144 188 236 290 356 430
#     4  11  24  43  68 102 145 188 238 297 362 433
#     4  11  24  43  68 102 145 188 238 297 362 433
#     4  12  27  47  72 100 140 178 240 303 373 438
#     4  12  27  47  72 100 140 178 240 303 373 438
#     4  12  25  45  74 104 138 188 240 303 367 438
#
# _framework density 21.616181000000001
#
# number of rings (size 3 to 8) (size 9 to 14) (size 15 to 20)
#    0.000    0.800    0.000    7.200    5.600    4.800 
#    0.000    0.000    0.000    0.000    0.000    0.000 
#    0.000    0.000    0.000    0.000    0.000    0.000 
#
# Total GULP energy -223313.955972 kJ/mol
# GULP energy per Si atom -5582.848899 kJ/mol
# Density = 2.156698 g / cm^3
# Si number density = 21.616181 Si / 1000 Ang^3
#
#
#
# Elastic Constant Matrix: (Units=GPa)
#
#
# Indices 1 2 3 4 5 6 
#
# 1 60.0481 132.4692 16.7237 0.0000 0.0000 0.0000
# 2 132.4692 60.0537 16.7246 0.0000 0.0000 0.0000
# 3 16.7237 16.7246 79.8611 0.0000 0.0000 0.0000
# 4 0.0000 0.0000 0.0000 34.9765 0.0000 0.0000
# 5 0.0000 0.0000 0.0000 0.0000 34.9771 0.0000
# 6 0.0000 0.0000 0.0000 0.0000 0.0000 13.3190
#
#
#
# Elastic Compliance Matrix: (Units=1/GPa)
#
#
# Indices 1 2 3 4 5 6 
#
# 1 -0.004209 0.009600 -0.001129 0.000000 0.000000 0.000000
# 2 0.009600 -0.004209 -0.001129 0.000000 0.000000 0.000000
# 3 -0.001129 -0.001129 0.012995 0.000000 0.000000 0.000000
# 4 0.000000 0.000000 0.000000 0.028591 0.000000 0.000000
# 5 0.000000 0.000000 0.000000 0.000000 0.028590 0.000000
# 6 0.000000 0.000000 0.000000 0.000000 0.000000 0.075081
#
#
# Mechanical properties :
#
#
# Convention : Reuss Voigt Hill
#
# Bulk Modulus (GPa) = 51.92114 59.08867 55.50490
# Shear Modulus (GPa) = 38.88815 18.92422 28.90618
#
# Velocity S-wave (km/s) = 4.24610 2.96204 3.66081
# Velocity P-wave (km/s) = 6.93620 6.25244 6.60317
#
# Compressibility (1/GPa) = 0.01925998
#
# Stress axis : x y z
#
# Youngs Moduli (GPa) = -237.56719 -237.58901 76.95546
#
# Poissons Ratio (x) = 2.28074 0.08687
# Poissons Ratio (y) = 2.28053 0.08687
# Poissons Ratio (z) = -0.26818 -0.26819
#
# Static dielectric constant tensor:
#      x y z
#    x 1.774620 0.000000 0.000000 
#    y 0.000000 1.774680 0.000000 
#    z 0.000000 0.000000 1.784200 
# 
# From -- ./inp_files/503.got.cif
#   From: 2010.05.17/outbox.cif.g08.bks.cpg/sg92_1_cif.got.tgz:503.got - 2010.06.03 19:35:17.
