data_PCOD9549797
_publ_section_title
;
Structure prediction by ZEFSAII (Michael W. Deem and Ramdas Pophale) SiO2 
 PCOD9549797
Probable space group: P 42 2 2
;
_chemical_formula_sum "Si O2"
_cell_formula_units_Z 48
_cell_length_a 8.665941
_cell_length_b 8.665941
_cell_length_c 30.922260
_cell_angle_alpha 90.000000
_cell_angle_beta 90.000000
_cell_angle_gamma 90.000000
_cell_volume 2322.216376
_symmetry_space_group_name_H-M "P 42 2 2"
_symmetry_group_IT_number 93
_symmetry_cell_setting 'tetragonal'
loop_
_space_group_symop_operation_xyz
x,y,z
-y,x,1/2+z
-x,-y,z
y,-x,1/2+z
x,-y,-z
-x,y,-z
y,x,1/2-z
-y,-x,1/2-z
loop_
_atom_site_type_symbol
_atom_site_label
_atom_site_fract_x
_atom_site_fract_y
_atom_site_fract_z
Si Si1 0.151413 0.103418 0.096770
Si Si2 0.624474 0.619330 0.934232
Si Si3 0.345768 0.403027 0.800071
Si Si4 0.183360 0.183798 0.004476
Si Si5 0.389970 0.134056 0.865431
Si Si6 0.162865 0.428101 0.133598
O O1 0.211497 0.198802 0.055340
O O2 0.144441 0.242958 0.131035
O O3 0.258859 0.966841 0.112542
O O4 0.000000 0.000000 0.085499
O O5 0.500000 0.500000 0.952057
O O6 0.550213 0.753069 0.903646
O O7 0.723965 0.515109 0.900514
O O8 0.722962 0.708255 0.971310
O O9 0.500000 0.500000 0.810811
O O10 0.358581 0.358581 0.750000
O O11 0.338776 0.246950 0.827673
O O12 0.212994 0.513767 0.818768
O O13 0.000000 0.212506 0.000000
O O14 0.216089 0.000000 0.000000
O O15 0.500000 0.000000 0.848572
O O16 0.000000 0.500000 0.122200
#
# Coordination Sequence:
#
# PCOD9549797 Si02
#       6
#     8   8   8   8   8   8
#     4  12  22  39  67  95 130 177 223 280 340 404
#     4  11  23  43  65  97 134 177 229 284 339 401
#     4  10  22  43  67  93 128 171 219 278 346 418
#     4  11  20  40  67  96 133 183 239 285 344 402
#     4  11  21  38  63  93 126 166 210 266 336 404
#     4  11  23  41  66 100 134 175 230 281 344 416
#
# _framework density 20.669908
#
# number of rings (size 3 to 8) (size 9 to 14) (size 15 to 20)
#    0.000    1.000    3.333    7.000    0.000    1.333 
#    0.000   10.833    0.000    3.500    0.000    0.000 
#    0.000    0.000    0.000    0.000    0.000    0.000 
#
# Total GULP energy -267692.907810 kJ/mol
# GULP energy per Si atom -5576.935579 kJ/mol
# Density = 2.062286 g / cm^3
# Si number density = 20.669908 Si / 1000 Ang^3
#
#
#
# Elastic Constant Matrix: (Units=GPa)
#
#
# Indices 1 2 3 4 5 6 
#
# 1 102.3608 34.5427 39.4789 0.0000 0.0000 0.0000
# 2 34.5427 102.3608 39.4789 0.0000 0.0000 0.0000
# 3 39.4789 39.4789 107.2790 0.0000 0.0000 0.0000
# 4 0.0000 0.0000 0.0000 9.9853 0.0000 0.0000
# 5 0.0000 0.0000 0.0000 0.0000 9.9853 0.0000
# 6 0.0000 0.0000 0.0000 0.0000 0.0000 14.7638
#
#
#
# Elastic Compliance Matrix: (Units=1/GPa)
#
#
# Indices 1 2 3 4 5 6 
#
# 1 0.012009 -0.002736 -0.003412 0.000000 0.000000 0.000000
# 2 -0.002736 0.012009 -0.003412 0.000000 0.000000 0.000000
# 3 -0.003412 -0.003412 0.011833 0.000000 0.000000 0.000000
# 4 0.000000 0.000000 0.000000 0.100147 0.000000 0.000000
# 5 0.000000 0.000000 0.000000 0.000000 0.100147 0.000000
# 6 0.000000 0.000000 0.000000 0.000000 0.000000 0.067733
#
#
# Mechanical properties :
#
#
# Convention : Reuss Voigt Hill
#
# Bulk Modulus (GPa) = 59.77759 59.88909 59.83334
# Shear Modulus (GPa) = 15.21714 20.18021 17.69867
#
# Velocity S-wave (km/s) = 2.71624 3.12798 2.92935
# Velocity P-wave (km/s) = 6.23058 6.48711 6.36014
#
# Compressibility (1/GPa) = 0.01672868
#
# Stress axis : x y z
#
# Youngs Moduli (GPa) = 83.27178 83.27178 84.50990
#
# Poissons Ratio (x) = 0.22787 0.28837
# Poissons Ratio (y) = 0.22787 0.28837
# Poissons Ratio (z) = 0.28415 0.28415
#
# Static dielectric constant tensor:
#      x y z
#    x 1.827590 0.000000 0.000000 
#    y 0.000000 1.827590 0.000000 
#    z 0.000000 0.000000 1.959980 
# 
# From -- ./inp_files/7808.got.cif
#   From: 2010.05.17/outbox.cif.g08.bks.cpg/sg93_4_cif.got.tgz:7808.got - 2010.06.03 19:38:44.
