data_PCOD9549972
_publ_section_title
;
Structure prediction by ZEFSAII (Michael W. Deem and Ramdas Pophale) SiO2 
 PCOD9549972
Probable space group: P 42 21 2
;
_chemical_formula_sum "Si O2"
_cell_formula_units_Z 44
_cell_length_a 14.470678
_cell_length_b 14.470678
_cell_length_c 10.978808
_cell_angle_alpha 90.000000
_cell_angle_beta 90.000000
_cell_angle_gamma 90.000000
_cell_volume 2298.968124
_symmetry_space_group_name_H-M "P 42 21 2"
_symmetry_group_IT_number 94
_symmetry_cell_setting 'tetragonal'
loop_
_space_group_symop_operation_xyz
x,y,z
1/2-y,1/2+x,1/2+z
-x,-y,z
1/2+y,1/2-x,1/2+z
1/2+x,1/2-y,1/2-z
1/2-x,1/2+y,1/2-z
y,x,-z
-y,-x,-z
loop_
_atom_site_type_symbol
_atom_site_label
_atom_site_fract_x
_atom_site_fract_y
_atom_site_fract_z
Si Si1 0.854659 0.697788 0.379942
Si Si2 0.389390 0.610611 0.000000
Si Si3 0.938921 0.371988 0.104567
Si Si4 0.923972 0.163005 0.615501
Si Si5 0.364052 0.324557 0.364902
Si Si6 0.563082 0.879911 0.838489
O O1 0.889871 0.798889 0.413755
O O2 0.875632 0.632269 0.493756
O O3 0.743929 0.706276 0.363130
O O4 0.891939 0.639091 0.267236
O O5 0.382959 0.521102 0.083073
O O6 0.927297 0.266511 0.147320
O O7 0.906257 0.456560 0.191639
O O8 0.042728 0.400642 0.067053
O O9 0.859395 0.140606 0.500000
O O10 0.886906 0.126222 0.745062
O O11 0.934867 0.273579 0.624339
O O12 0.371801 0.371801 0.500000
#
# Coordination Sequence:
#
# PCOD9549972 Si02
#       6
#     8   4   8   8   8   8
#     4  10  19  37  59  84 124 165 204 244 319 378
#     4  12  21  42  62  86 120 174 209 264 308 388
#     4  10  19  36  59  87 123 157 198 254 320 376
#     4  11  24  39  62  94 123 161 220 261 304 373
#     4   9  19  39  62  89 124 173 201 247 313 382
#     4  10  22  34  58  95 118 158 199 259 317 372
#
# _framework density 19.139023000000002
#
# number of rings (size 3 to 8) (size 9 to 14) (size 15 to 20)
#    0.000    1.818    4.545    0.273    2.545    4.364 
#    0.000    5.455    0.000    2.182    0.000    0.000 
#    0.000    0.000    0.000    0.000    0.000    0.000 
#
# Total GULP energy -245067.491550 kJ/mol
# GULP energy per Si atom -5569.715717 kJ/mol
# Density = 1.909546 g / cm^3
# Si number density = 19.139023 Si / 1000 Ang^3
#
#
#
# Elastic Constant Matrix: (Units=GPa)
#
#
# Indices 1 2 3 4 5 6 
#
# 1 99.3201 65.7129 52.2308 0.0000 0.0000 0.0000
# 2 65.7129 99.3161 52.2290 0.0000 0.0000 0.0000
# 3 52.2308 52.2290 100.3080 0.0000 0.0000 0.0000
# 4 0.0000 0.0000 0.0000 16.3429 0.0000 0.0000
# 5 0.0000 0.0000 0.0000 0.0000 16.3427 0.0000
# 6 0.0000 0.0000 0.0000 0.0000 0.0000 29.2910
#
#
#
# Elastic Compliance Matrix: (Units=1/GPa)
#
#
# Indices 1 2 3 4 5 6 
#
# 1 0.019398 -0.010359 -0.004706 0.000000 0.000000 0.000000
# 2 -0.010359 0.019398 -0.004706 0.000000 0.000000 0.000000
# 3 -0.004706 -0.004706 0.014870 0.000000 0.000000 0.000000
# 4 0.000000 0.000000 0.000000 0.061189 0.000000 0.000000
# 5 0.000000 0.000000 0.000000 0.000000 0.061190 0.000000
# 6 0.000000 0.000000 0.000000 0.000000 0.000000 0.034140
#
#
# Mechanical properties :
#
#
# Convention : Reuss Voigt Hill
#
# Bulk Modulus (GPa) = 70.81087 71.03217 70.92152
# Shear Modulus (GPa) = 19.65133 20.98007 20.31570
#
# Velocity S-wave (km/s) = 3.20780 3.31447 3.26157
# Velocity P-wave (km/s) = 7.12730 7.20014 7.16381
#
# Compressibility (1/GPa) = 0.01412213
#
# Stress axis : x y z
#
# Youngs Moduli (GPa) = 51.55291 51.55145 67.24803
#
# Poissons Ratio (x) = 0.53404 0.31649
# Poissons Ratio (y) = 0.53406 0.31648
# Poissons Ratio (z) = 0.24263 0.24261
#
# Static dielectric constant tensor:
#      x y z
#    x 1.687650 0.000000 0.000000 
#    y 0.000000 1.687650 0.000000 
#    z 0.000000 0.000000 1.695770 
# 
# From -- ./inp_files/2555.got.cif
#   From: 2010.05.17/outbox.cif.g08.bks.cpg/sg94_2_cif.got.tgz:2555.got - 2010.06.03 19:43:16.
