data_PCOD9549244
_publ_section_title
;
Structure prediction by ZEFSAII (Michael W. Deem and Ramdas Pophale) SiO2 
 PCOD9549244
Probable space group: P 41 21 2
;
_chemical_formula_sum "Si O2"
_cell_formula_units_Z 52
_cell_length_a 20.137211
_cell_length_b 20.137211
_cell_length_c 5.142940
_cell_angle_alpha 90.000000
_cell_angle_beta 90.000000
_cell_angle_gamma 90.000000
_cell_volume 2085.499543
_symmetry_space_group_name_H-M "P 41 21 2"
_symmetry_group_IT_number 92
_symmetry_cell_setting 'tetragonal'
loop_
_space_group_symop_operation_xyz
x,y,z
1/2-y,1/2+x,1/4+z
-x,-y,1/2+z
1/2+y,1/2-x,3/4+z
1/2+x,1/2-y,3/4-z
1/2-x,1/2+y,1/4-z
y,x,-z
-y,-x,1/2-z
loop_
_atom_site_type_symbol
_atom_site_label
_atom_site_fract_x
_atom_site_fract_y
_atom_site_fract_z
Si Si1 0.029571 0.970430 0.750000
Si Si2 0.962120 0.691202 0.825279
Si Si3 0.045293 0.841358 0.381530
Si Si4 0.554547 0.080573 0.797666
Si Si5 0.698933 0.405255 0.682213
Si Si6 0.588069 0.727616 0.853303
Si Si7 0.344530 0.822731 0.533116
O O1 0.029124 0.904506 0.569218
O O2 0.021850 0.021850 0.500000
O O3 0.982058 0.624393 0.674521
O O4 0.935795 0.753505 0.654046
O O5 0.027759 0.721086 0.958053
O O6 0.897884 0.671657 0.987747
O O7 0.971659 0.820828 0.282891
O O8 0.078040 0.793474 0.597477
O O9 0.084645 0.832341 0.107070
O O10 0.575913 0.005220 0.752178
O O11 0.619248 0.126305 0.836749
O O12 0.632256 0.367744 0.750000
O O13 0.746517 0.352090 0.546684
O O14 0.654322 0.770449 0.829228
#
# Coordination Sequence:
#
# PCOD9549244 Si02
#       7
#     4   8   8   8   8   8   8
#     4  12  26  50  86 116 140 174 228 296 382 448
#     4  10  22  41  63  92 136 181 239 300 358 409
#     4  11  25  48  72 109 145 181 228 301 367 432
#     4  11  25  35  56  92 132 184 249 306 350 399
#     4  10  23  43  68  99 132 177 235 291 348 422
#     4  11  24  42  71  96 145 196 231 286 362 423
#     4  11  23  41  63  91 139 190 241 284 349 425
#
# _framework density 24.934073999999999
#
# number of rings (size 3 to 8) (size 9 to 14) (size 15 to 20)
#    0.000    1.231    1.538    3.231   12.923    0.615 
#    2.769    0.000    0.000    0.000    0.000    0.000 
#    0.000    0.000    0.000    0.000    0.000    0.000 
#
# Total GULP energy -289962.193536 kJ/mol
# GULP energy per Si atom -5576.196030 kJ/mol
# Density = 2.487732 g / cm^3
# Si number density = 24.934074 Si / 1000 Ang^3
#
#
#
# Elastic Constant Matrix: (Units=GPa)
#
#
# Indices 1 2 3 4 5 6 
#
# 1 61.4938 2.3719 11.6867 0.0000 0.0000 0.0000
# 2 2.3719 61.4881 11.6870 0.0000 0.0000 0.0000
# 3 11.6867 11.6870 75.3408 0.0000 0.0000 0.0000
# 4 0.0000 0.0000 0.0000 11.7649 0.0000 0.0000
# 5 0.0000 0.0000 0.0000 0.0000 11.7594 0.0000
# 6 0.0000 0.0000 0.0000 0.0000 0.0000 41.3535
#
#
#
# Elastic Compliance Matrix: (Units=1/GPa)
#
#
# Indices 1 2 3 4 5 6 
#
# 1 0.016757 -0.000157 -0.002575 0.000000 0.000000 0.000000
# 2 -0.000157 0.016759 -0.002575 0.000000 0.000000 0.000000
# 3 -0.002575 -0.002575 0.014072 0.000000 0.000000 0.000000
# 4 0.000000 0.000000 0.000000 0.084999 0.000000 0.000000
# 5 0.000000 0.000000 0.000000 0.000000 0.085039 0.000000
# 6 0.000000 0.000000 0.000000 0.000000 0.000000 0.024182
#
#
# Mechanical properties :
#
#
# Convention : Reuss Voigt Hill
#
# Bulk Modulus (GPa) = 27.04646 27.75712 27.40179
# Shear Modulus (GPa) = 18.88601 24.48068 21.68334
#
# Velocity S-wave (km/s) = 2.75514 3.13679 2.95214
# Velocity P-wave (km/s) = 4.58168 4.92704 4.75749
#
# Compressibility (1/GPa) = 0.03697342
#
# Stress axis : x y z
#
# Youngs Moduli (GPa) = 59.67573 59.66991 71.06344
#
# Poissons Ratio (x) = 0.00937 0.18299
# Poissons Ratio (y) = 0.00937 0.18301
# Poissons Ratio (z) = 0.15366 0.15367
#
# Static dielectric constant tensor:
#      x y z
#    x 2.022260 0.000000 0.000000 
#    y 0.000000 2.022250 0.000000 
#    z 0.000000 0.000000 2.164390 
# 
# From -- ./inp_files/707.got.cif
#   From: 2010.05.17/outbox.cif.g08.bks.cpg/sg92_1_cif.got.tgz:707.got - 2010.06.03 19:35:17.
