data_PCOD9549363
_publ_section_title
;
Structure prediction by ZEFSAII (Michael W. Deem and Ramdas Pophale) SiO2 
 PCOD9549363
Probable space group: P 41 21 2
;
_chemical_formula_sum "Si O2"
_cell_formula_units_Z 40
_cell_length_a 7.928326
_cell_length_b 7.928326
_cell_length_c 27.113875
_cell_angle_alpha 90.000000
_cell_angle_beta 90.000000
_cell_angle_gamma 90.000000
_cell_volume 1704.333530
_symmetry_space_group_name_H-M "P 41 21 2"
_symmetry_group_IT_number 92
_symmetry_cell_setting 'tetragonal'
loop_
_space_group_symop_operation_xyz
x,y,z
1/2-y,1/2+x,1/4+z
-x,-y,1/2+z
1/2+y,1/2-x,3/4+z
1/2+x,1/2-y,3/4-z
1/2-x,1/2+y,1/4-z
y,x,-z
-y,-x,1/2-z
loop_
_atom_site_type_symbol
_atom_site_label
_atom_site_fract_x
_atom_site_fract_y
_atom_site_fract_z
Si Si1 0.398481 0.601520 0.750000
Si Si2 0.673042 0.673042 0.500000
Si Si3 0.013709 0.889481 0.105707
Si Si4 0.392164 0.802689 0.341130
Si Si5 0.970196 0.344982 0.217400
Si Si6 0.352393 0.541135 0.552925
O O1 0.415916 0.490711 0.797895
O O2 0.211203 0.575562 0.728209
O O3 0.757286 0.761114 0.547974
O O4 0.483031 0.665477 0.523933
O O5 0.082246 0.708461 0.120632
O O6 0.849599 0.914736 0.139560
O O7 0.150806 0.027236 0.121680
O O8 0.542928 0.910189 0.316104
O O9 0.050518 0.317102 0.271715
O O10 0.921638 0.153145 0.200455
#
# Coordination Sequence:
#
# PCOD9549363 Si02
#       6
#     4   4   8   8   8   8
#     4  10  24  40  58  90 124 158 204 252 306 368
#     4   8  18  36  58  86 114 154 202 250 300 354
#     4  11  23  39  60  90 124 161 204 252 304 371
#     4  11  22  37  60  87 118 160 203 246 300 361
#     4   9  20  39  61  86 116 153 197 252 310 362
#     4   8  18  40  61  82 117 153 197 257 311 355
#
# _framework density 23.469587000000001
#
# number of rings (size 3 to 8) (size 9 to 14) (size 15 to 20)
#    0.000    2.800    0.000    1.800    0.000   11.200 
#    0.000    6.000    0.000    0.000    0.000    0.000 
#    0.000    0.000    0.000    0.000    0.000    0.000 
#
# Total GULP energy -222709.950950 kJ/mol
# GULP energy per Si atom -5567.748774 kJ/mol
# Density = 2.341617 g / cm^3
# Si number density = 23.469587 Si / 1000 Ang^3
#
#
#
# Elastic Constant Matrix: (Units=GPa)
#
#
# Indices 1 2 3 4 5 6 
#
# 1 73.0704 -15.8717 23.4992 0.0000 0.0000 0.0000
# 2 -15.8717 73.0702 23.4971 0.0000 0.0000 0.0000
# 3 23.4992 23.4971 111.0603 0.0000 0.0000 0.0000
# 4 0.0000 0.0000 0.0000 38.6284 0.0000 0.0000
# 5 0.0000 0.0000 0.0000 0.0000 38.6284 0.0000
# 6 0.0000 0.0000 0.0000 0.0000 0.0000 16.7471
#
#
#
# Elastic Compliance Matrix: (Units=1/GPa)
#
#
# Indices 1 2 3 4 5 6 
#
# 1 0.016203 0.004959 -0.004478 0.000000 0.000000 0.000000
# 2 0.004959 0.016202 -0.004477 0.000000 0.000000 0.000000
# 3 -0.004478 -0.004477 0.010899 0.000000 0.000000 0.000000
# 4 0.000000 0.000000 0.000000 0.025888 0.000000 0.000000
# 5 0.000000 0.000000 0.000000 0.000000 0.025888 0.000000
# 6 0.000000 0.000000 0.000000 0.000000 0.000000 0.059712
#
#
# Mechanical properties :
#
#
# Convention : Reuss Voigt Hill
#
# Bulk Modulus (GPa) = 28.31849 35.49446 31.90647
# Shear Modulus (GPa) = 28.64462 33.87254 31.25858
#
# Velocity S-wave (km/s) = 3.49735 3.80314 3.65345
# Velocity P-wave (km/s) = 5.32925 5.86869 5.60546
#
# Compressibility (1/GPa) = 0.03531262
#
# Stress axis : x y z
#
# Youngs Moduli (GPa) = 61.71855 61.71920 91.75343
#
# Poissons Ratio (x) = -0.30608 0.41083
# Poissons Ratio (y) = -0.30608 0.41081
# Poissons Ratio (z) = 0.27635 0.27633
#
# Static dielectric constant tensor:
#      x y z
#    x 1.936020 0.000000 0.000000 
#    y 0.000000 1.936010 0.000000 
#    z 0.000000 0.000000 1.982590 
# 
# From -- ./inp_files/4371.got.cif
#   From: 2010.05.17/outbox.cif.g08.bks.cpg/sg92_3_cif.got.tgz:4371.got - 2010.06.03 19:35:17.
