data_PCOD9549773
_publ_section_title
;
Structure prediction by ZEFSAII (Michael W. Deem and Ramdas Pophale) SiO2 
 PCOD9549773
Probable space group: P 42 2 2
;
_chemical_formula_sum "Si O2"
_cell_formula_units_Z 52
_cell_length_a 21.489056
_cell_length_b 21.489056
_cell_length_c 5.215169
_cell_angle_alpha 90.000000
_cell_angle_beta 90.000000
_cell_angle_gamma 90.000000
_cell_volume 2408.258278
_symmetry_space_group_name_H-M "P 42 2 2"
_symmetry_group_IT_number 93
_symmetry_cell_setting 'tetragonal'
loop_
_space_group_symop_operation_xyz
x,y,z
-y,x,1/2+z
-x,-y,z
y,-x,1/2+z
x,-y,-z
-x,y,-z
y,x,1/2-z
-y,-x,1/2-z
loop_
_atom_site_type_symbol
_atom_site_label
_atom_site_fract_x
_atom_site_fract_y
_atom_site_fract_z
Si Si1 0.622812 0.959163 0.252193
Si Si2 0.178391 0.178391 0.250000
Si Si3 0.567135 0.339883 0.105194
Si Si4 0.457511 0.160228 0.248425
Si Si5 0.240805 0.240805 0.750000
Si Si6 0.632832 0.234496 0.400704
Si Si7 0.042860 0.233863 0.245252
Si Si8 0.328043 0.671958 0.750000
O O1 0.573280 0.905661 0.196618
O O2 0.693576 0.936434 0.294845
O O3 0.604825 0.000000 0.500000
O O4 0.624489 0.000000 0.000000
O O5 0.213429 0.205463 0.499887
O O6 0.104994 0.193374 0.267445
O O7 0.604115 0.395886 0.250000
O O8 0.579461 0.278154 0.273922
O O9 0.500000 0.356398 0.000000
O O10 0.602704 0.323142 0.846113
O O11 0.500000 0.156863 0.500000
O O12 0.399037 0.199439 0.364703
O O13 0.500000 0.179360 0.000000
O O14 0.207605 0.314119 0.718003
O O15 0.682514 0.284333 0.515454
O O16 0.000000 0.230541 0.500000
O O17 0.000000 0.217852 0.000000
#
# Coordination Sequence:
#
# PCOD9549773 Si02
#       8
#     8   4   8   8   4   8   8   4
#     4  10  22  44  67  89 131 183 232 284 342 404
#     4  12  25  40  74 113 143 190 240 296 346 416
#     4  10  23  43  68  93 124 173 219 274 348 424
#     4  12  29  42  63 100 131 174 230 288 349 423
#     4  12  24  42  70 104 144 178 234 298 364 432
#     4  11  25  41  63  96 134 174 212 285 362 434
#     4  10  22  43  70 101 143 188 235 289 348 412
#     4  10  21  42  65  88 127 168 213 258 354 417
#
# _framework density 21.592369000000001
#
# number of rings (size 3 to 8) (size 9 to 14) (size 15 to 20)
#    0.000    1.231    2.308    3.231    4.308    7.385 
#    0.000    1.154    0.000    2.308    0.000    0.000 
#    0.000    0.000    0.000    0.000    0.000    0.000 
#
# Total GULP energy -289628.189604 kJ/mol
# GULP energy per Si atom -5569.772877 kJ/mol
# Density = 2.154322 g / cm^3
# Si number density = 21.592369 Si / 1000 Ang^3
#
#
#
# Elastic Constant Matrix: (Units=GPa)
#
#
# Indices 1 2 3 4 5 6 
#
# 1 77.4946 65.2636 29.4036 0.0000 0.0000 0.0000
# 2 65.2636 77.4949 29.4022 0.0000 0.0000 0.0000
# 3 29.4036 29.4022 109.3515 0.0000 0.0000 0.0000
# 4 0.0000 0.0000 0.0000 29.9258 0.0000 0.0000
# 5 0.0000 0.0000 0.0000 0.0000 29.9260 0.0000
# 6 0.0000 0.0000 0.0000 0.0000 0.0000 45.8397
#
#
#
# Elastic Compliance Matrix: (Units=1/GPa)
#
#
# Indices 1 2 3 4 5 6 
#
# 1 0.044818 -0.036941 -0.002119 0.000000 0.000000 0.000000
# 2 -0.036941 0.044818 -0.002117 0.000000 0.000000 0.000000
# 3 -0.002119 -0.002117 0.010284 0.000000 0.000000 0.000000
# 4 0.000000 0.000000 0.000000 0.033416 0.000000 0.000000
# 5 0.000000 0.000000 0.000000 0.000000 0.033416 0.000000
# 6 0.000000 0.000000 0.000000 0.000000 0.000000 0.021815
#
#
# Mechanical properties :
#
#
# Convention : Reuss Voigt Hill
#
# Bulk Modulus (GPa) = 56.92761 56.94222 56.93491
# Shear Modulus (GPa) = 18.06515 30.48975 24.27745
#
# Velocity S-wave (km/s) = 2.89562 3.76182 3.35678
# Velocity P-wave (km/s) = 6.13200 6.73031 6.43811
#
# Compressibility (1/GPa) = 0.01756617
#
# Stress axis : x y z
#
# Youngs Moduli (GPa) = 22.31226 22.31262 97.23971
#
# Poissons Ratio (x) = 0.82424 0.20602
# Poissons Ratio (y) = 0.82423 0.20590
# Poissons Ratio (z) = 0.04727 0.04725
#
# Static dielectric constant tensor:
#      x y z
#    x 1.930810 0.000000 0.000000 
#    y 0.000000 1.930800 0.000000 
#    z 0.000000 0.000000 2.720100 
# 
# From -- ./inp_files/746.got.cif
#   From: 2010.05.17/outbox.cif.g08.bks.cpg/sg93_1_cif.got.tgz:746.got - 2010.06.03 19:38:44.
