data_PCOD9549740
_publ_section_title
;
Structure prediction by ZEFSAII (Michael W. Deem and Ramdas Pophale) SiO2 
 PCOD9549740
Probable space group: P 42 2 2
;
_chemical_formula_sum "Si O2"
_cell_formula_units_Z 28
_cell_length_a 12.279428
_cell_length_b 12.279428
_cell_length_c 9.443212
_cell_angle_alpha 90.000000
_cell_angle_beta 90.000000
_cell_angle_gamma 90.000000
_cell_volume 1423.888602
_symmetry_space_group_name_H-M "P 42 2 2"
_symmetry_group_IT_number 93
_symmetry_cell_setting 'tetragonal'
loop_
_space_group_symop_operation_xyz
x,y,z
-y,x,1/2+z
-x,-y,z
y,-x,1/2+z
x,-y,-z
-x,y,-z
y,x,1/2-z
-y,-x,1/2-z
loop_
_atom_site_type_symbol
_atom_site_label
_atom_site_fract_x
_atom_site_fract_y
_atom_site_fract_z
Si Si1 0.737105 0.801340 0.527318
Si Si2 0.000000 0.500000 0.237251
Si Si3 0.500000 0.185649 0.500000
Si Si4 0.272576 0.940033 0.196594
Si Si5 0.138110 0.138110 0.250000
O O1 0.615364 0.753142 0.515038
O O2 0.834467 0.732342 0.596780
O O3 0.728476 0.899200 0.640725
O O4 0.776684 0.842242 0.375886
O O5 0.894677 0.508685 0.135170
O O6 0.996593 0.388367 0.323994
O O7 0.169158 0.020490 0.184769
#
# Coordination Sequence:
#
# PCOD9549740 Si02
#       5
#     8   4   4   8   4
#     4  10  21  35  57  86 118 161 200 244 297 362
#     4   9  16  34  61  80 108 157 207 246 278 367
#     4   9  16  34  60  80 111 164 211 230 288 363
#     4  10  21  36  58  85 121 158 202 243 308 365
#     4  12  20  35  54  90 123 156 188 248 308 361
#
# _framework density 19.664459000000001
#
# number of rings (size 3 to 8) (size 9 to 14) (size 15 to 20)
#    0.000    2.000    2.857    1.714    0.000    2.286 
#    0.000    8.571    0.000    0.000    0.000    6.000 
#    0.000    0.000    0.000    0.000    0.000    0.000 
#
# Total GULP energy -156045.070975 kJ/mol
# GULP energy per Si atom -5573.038249 kJ/mol
# Density = 1.961970 g / cm^3
# Si number density = 19.664459 Si / 1000 Ang^3
#
#
#
# Elastic Constant Matrix: (Units=GPa)
#
#
# Indices 1 2 3 4 5 6 
#
# 1 106.3082 47.9610 11.4721 0.0000 0.0000 0.0000
# 2 47.9610 106.3082 11.4721 0.0000 0.0000 0.0000
# 3 11.4721 11.4721 82.8663 0.0000 0.0000 0.0000
# 4 0.0000 0.0000 0.0000 2.8012 0.0000 0.0000
# 5 0.0000 0.0000 0.0000 0.0000 2.8012 0.0000
# 6 0.0000 0.0000 0.0000 0.0000 0.0000 17.7074
#
#
#
# Elastic Compliance Matrix: (Units=1/GPa)
#
#
# Indices 1 2 3 4 5 6 
#
# 1 0.011879 -0.005260 -0.000916 0.000000 0.000000 0.000000
# 2 -0.005260 0.011879 -0.000916 0.000000 0.000000 0.000000
# 3 -0.000916 -0.000916 0.012321 0.000000 0.000000 0.000000
# 4 0.000000 0.000000 0.000000 0.356988 0.000000 0.000000
# 5 0.000000 0.000000 0.000000 0.000000 0.356988 0.000000
# 6 0.000000 0.000000 0.000000 0.000000 0.000000 0.056474
#
#
# Mechanical properties :
#
#
# Convention : Reuss Voigt Hill
#
# Bulk Modulus (GPa) = 45.67635 48.58813 47.13224
# Shear Modulus (GPa) = 6.03857 19.63381 12.83619
#
# Velocity S-wave (km/s) = 1.75427 3.16324 2.55769
# Velocity P-wave (km/s) = 5.23274 6.17282 5.72212
#
# Compressibility (1/GPa) = 0.02189317
#
# Stress axis : x y z
#
# Youngs Moduli (GPa) = 84.18490 84.18489 81.16010
#
# Poissons Ratio (x) = 0.44283 0.07436
# Poissons Ratio (y) = 0.44283 0.07436
# Poissons Ratio (z) = 0.07714 0.07714
#
# Static dielectric constant tensor:
#      x y z
#    x 1.741770 0.000000 0.000000 
#    y 0.000000 1.741770 0.000000 
#    z 0.000000 0.000000 1.714520 
# 
# From -- ./inp_files/2901.got.cif
#   From: 2010.05.17/outbox.cif.g08.bks.cpg/sg93_2_cif.got.tgz:2901.got - 2010.06.03 19:38:44.
