data_PCOD9549002
_publ_section_title
;
Structure prediction by ZEFSAII (Michael W. Deem and Ramdas Pophale) SiO2 
 PCOD9549002
Probable space group: P 41 21 2
;
_chemical_formula_sum "Si O2"
_cell_formula_units_Z 48
_cell_length_a 7.276496
_cell_length_b 7.276496
_cell_length_c 34.322802
_cell_angle_alpha 90.000000
_cell_angle_beta 90.000000
_cell_angle_gamma 90.000000
_cell_volume 1817.302922
_symmetry_space_group_name_H-M "P 41 21 2"
_symmetry_group_IT_number 92
_symmetry_cell_setting 'tetragonal'
loop_
_space_group_symop_operation_xyz
x,y,z
1/2-y,1/2+x,1/4+z
-x,-y,1/2+z
1/2+y,1/2-x,3/4+z
1/2+x,1/2-y,3/4-z
1/2-x,1/2+y,1/4-z
y,x,-z
-y,-x,1/2-z
loop_
_atom_site_type_symbol
_atom_site_label
_atom_site_fract_x
_atom_site_fract_y
_atom_site_fract_z
Si Si1 0.334599 0.334599 0.500000
Si Si2 0.797075 0.679783 0.581468
Si Si3 0.263845 0.215598 0.164202
Si Si4 0.745489 0.745489 0.500000
Si Si5 0.802392 0.199797 0.421471
Si Si6 0.259939 0.824896 0.002523
Si Si7 0.887488 0.173819 0.334210
O O1 0.552169 0.291108 0.503576
O O2 0.258674 0.288417 0.543779
O O3 0.693757 0.702350 0.622198
O O4 0.869835 0.474126 0.582288
O O5 0.674397 0.694805 0.542758
O O6 0.976326 0.806910 0.580386
O O7 0.312074 0.320605 0.203449
O O8 0.042575 0.173012 0.163575
O O9 0.960689 0.700228 0.504368
O O10 0.866238 0.241112 0.466254
O O11 0.865039 0.254665 0.378093
O O12 0.599200 0.283513 0.423162
#
# Coordination Sequence:
#
# PCOD9549002 Si02
#       7
#     4   8   8   4   8   8   8
#     4   8  16  33  56  77 106 148 192 237 290 359
#     4  10  21  35  55  83 115 148 188 241 300 358
#     4  10  20  36  57  81 110 148 192 239 293 356
#     4  10  20  35  56  83 118 154 192 245 306 365
#     4   9  19  35  52  76 107 139 178 231 287 343
#     4   9  18  35  56  79 112 150 192 243 299 361
#     4   9  18  34  54  74 102 140 182 228 279 343
#
# _framework density 26.412765
#
# number of rings (size 3 to 8) (size 9 to 14) (size 15 to 20)
#    0.000    2.667    0.000    1.000    0.000    5.333 
#    0.000   11.667    0.000    8.000    0.000    0.000 
#    0.000    0.000    0.000    0.000    0.000    0.000 
#
# Total GULP energy -267375.992928 kJ/mol
# GULP energy per Si atom -5570.333186 kJ/mol
# Density = 2.635265 g / cm^3
# Si number density = 26.412765 Si / 1000 Ang^3
#
#
#
# Elastic Constant Matrix: (Units=GPa)
#
#
# Indices 1 2 3 4 5 6 
#
# 1 71.9718 -0.0704 22.4890 0.0000 0.0000 0.0000
# 2 -0.0704 71.9718 22.4890 0.0000 0.0000 0.0000
# 3 22.4890 22.4890 359.2161 0.0000 0.0000 0.0000
# 4 0.0000 0.0000 0.0000 18.9179 0.0000 0.0000
# 5 0.0000 0.0000 0.0000 0.0000 18.9179 0.0000
# 6 0.0000 0.0000 0.0000 0.0000 0.0000 15.8786
#
#
#
# Elastic Compliance Matrix: (Units=1/GPa)
#
#
# Indices 1 2 3 4 5 6 
#
# 1 0.014178 0.000297 -0.000906 0.000000 0.000000 0.000000
# 2 0.000297 0.014178 -0.000906 0.000000 0.000000 0.000000
# 3 -0.000906 -0.000906 0.002897 0.000000 0.000000 0.000000
# 4 0.000000 0.000000 0.000000 0.052860 0.000000 0.000000
# 5 0.000000 0.000000 0.000000 0.000000 0.052860 0.000000
# 6 0.000000 0.000000 0.000000 0.000000 0.000000 0.062978
#
#
# Mechanical properties :
#
#
# Convention : Reuss Voigt Hill
#
# Bulk Modulus (GPa) = 35.43324 65.88610 50.65967
# Shear Modulus (GPa) = 23.54172 41.29302 32.41737
#
# Velocity S-wave (km/s) = 2.98870 3.95824 3.50714
# Velocity P-wave (km/s) = 5.03529 6.77416 5.96839
#
# Compressibility (1/GPa) = 0.02822209
#
# Stress axis : x y z
#
# Youngs Moduli (GPa) = 70.53293 70.53293 345.14810
#
# Poissons Ratio (x) = -0.02095 0.31278
# Poissons Ratio (y) = -0.02095 0.31278
# Poissons Ratio (z) = 0.06392 0.06392
#
# Static dielectric constant tensor:
#      x y z
#    x 2.072790 0.000000 0.000000 
#    y 0.000000 2.072790 0.000000 
#    z 0.000000 0.000000 2.236250 
# 
# From -- ./inp_files/4567.got.cif
#   From: 2010.05.17/outbox.cif.g08.bks.cpg/sg92_3_cif.got.tgz:4567.got - 2010.06.03 19:35:17.
