data_PCOD9549949
_publ_section_title
;
Structure prediction by ZEFSAII (Michael W. Deem and Ramdas Pophale) SiO2 
 PCOD9549949
Probable space group: P 42 21 2
;
_chemical_formula_sum "Si O2"
_cell_formula_units_Z 64
_cell_length_a 19.910834
_cell_length_b 19.910834
_cell_length_c 7.150179
_cell_angle_alpha 90.000000
_cell_angle_beta 90.000000
_cell_angle_gamma 90.000000
_cell_volume 2834.626334
_symmetry_space_group_name_H-M "P 42 21 2"
_symmetry_group_IT_number 94
_symmetry_cell_setting 'tetragonal'
loop_
_space_group_symop_operation_xyz
x,y,z
1/2-y,1/2+x,1/2+z
-x,-y,z
1/2+y,1/2-x,1/2+z
1/2+x,1/2-y,1/2-z
1/2-x,1/2+y,1/2-z
y,x,-z
-y,-x,-z
loop_
_atom_site_type_symbol
_atom_site_label
_atom_site_fract_x
_atom_site_fract_y
_atom_site_fract_z
Si Si1 0.546175 0.577099 0.282564
Si Si2 0.079101 0.804360 0.709731
Si Si3 0.913917 0.757034 0.188893
Si Si4 0.683833 0.179592 0.832435
Si Si5 0.778557 0.704273 0.230882
Si Si6 0.771651 0.057491 0.864900
Si Si7 0.595691 0.394298 0.779049
Si Si8 0.749790 0.944875 0.367493
O O1 0.558853 0.558853 0.500000
O O2 0.616961 0.559210 0.176233
O O3 0.547193 0.658781 0.253190
O O4 0.466980 0.558898 0.245907
O O5 0.151193 0.774997 0.653842
O O6 0.024858 0.750378 0.639564
O O7 0.081804 0.798367 0.934778
O O8 0.849864 0.713857 0.131735
O O9 0.900990 0.836074 0.163222
O O10 0.924987 0.753729 0.414084
O O11 0.985333 0.737966 0.104859
O O12 0.724485 0.241658 0.744946
O O13 0.720290 0.110519 0.778795
O O14 0.605216 0.191923 0.797699
O O15 0.700537 0.184960 0.055751
O O16 0.568016 0.319149 0.751696
O O17 0.608307 0.391694 0.000000
#
# Coordination Sequence:
#
# PCOD9549949 Si02
#       8
#     8   8   8   8   8   8   8   8
#     4   9  17  31  50  71  99 135 168 199 240 286
#     4  10  19  31  49  76 102 127 165 206 242 290
#     4   9  17  32  53  75  97 127 166 205 246 290
#     4   9  15  29  55  75  93 127 170 205 240 290
#     4   9  15  29  55  75  93 127 170 205 240 290
#     4   9  17  32  53  75  97 127 166 205 246 290
#     4   9  17  31  50  71  99 135 168 199 240 286
#     4  10  19  31  49  76 102 127 165 206 242 290
#
# _framework density 22.577932000000001
#
# number of rings (size 3 to 8) (size 9 to 14) (size 15 to 20)
#    0.000    2.750    2.500    0.000    0.000    0.500 
#    0.000   16.250    0.000    2.250    0.000    5.250 
#    0.000    0.000    0.000    0.000    0.000    0.000 
#
# Total GULP energy -356933.007752 kJ/mol
# GULP energy per Si atom -5577.078246 kJ/mol
# Density = 2.252654 g / cm^3
# Si number density = 22.577932 Si / 1000 Ang^3
#
#
#
# Elastic Constant Matrix: (Units=GPa)
#
#
# Indices 1 2 3 4 5 6 
#
# 1 90.7689 42.2492 7.7953 0.0000 0.0000 0.0000
# 2 42.2492 90.7690 7.7954 0.0000 0.0000 0.0000
# 3 7.7953 7.7954 70.4236 0.0000 0.0000 0.0000
# 4 0.0000 0.0000 0.0000 5.6741 0.0000 0.0000
# 5 0.0000 0.0000 0.0000 0.0000 5.6742 0.0000
# 6 0.0000 0.0000 0.0000 0.0000 0.0000 37.2281
#
#
#
# Elastic Compliance Matrix: (Units=1/GPa)
#
#
# Indices 1 2 3 4 5 6 
#
# 1 0.014113 -0.006497 -0.000843 0.000000 0.000000 0.000000
# 2 -0.006497 0.014113 -0.000843 0.000000 0.000000 0.000000
# 3 -0.000843 -0.000843 0.014386 0.000000 0.000000 0.000000
# 4 0.000000 0.000000 0.000000 0.176239 0.000000 0.000000
# 5 0.000000 0.000000 0.000000 0.000000 0.176237 0.000000
# 6 0.000000 0.000000 0.000000 0.000000 0.000000 0.026861
#
#
# Mechanical properties :
#
#
# Convention : Reuss Voigt Hill
#
# Bulk Modulus (GPa) = 38.09928 40.84904 39.47416
# Shear Modulus (GPa) = 11.18403 22.65671 16.92037
#
# Velocity S-wave (km/s) = 2.22807 3.17123 2.74053
# Velocity P-wave (km/s) = 4.85080 5.61611 5.24742
#
# Compressibility (1/GPa) = 0.02624721
#
# Stress axis : x y z
#
# Youngs Moduli (GPa) = 70.85476 70.85479 69.50987
#
# Poissons Ratio (x) = 0.46033 0.05860
# Poissons Ratio (y) = 0.46033 0.05861
# Poissons Ratio (z) = 0.05974 0.05974
#
# Static dielectric constant tensor:
#      x y z
#    x 1.885000 0.000000 0.000000 
#    y 0.000000 1.885000 0.000000 
#    z 0.000000 0.000000 1.946740 
# 
# From -- ./inp_files/1819.got.cif
#   From: 2010.05.17/outbox.cif.g08.bks.cpg/sg94_1_cif.got.tgz:1819.got - 2010.06.03 19:43:16.
