data_PCOD9549600
_publ_section_title
;
Structure prediction by ZEFSAII (Michael W. Deem and Ramdas Pophale) SiO2 
 PCOD9549600
Probable space group: P 42 2 2
;
_chemical_formula_sum "Si O2"
_cell_formula_units_Z 64
_cell_length_a 11.718004
_cell_length_b 11.718004
_cell_length_c 25.348653
_cell_angle_alpha 90.000000
_cell_angle_beta 90.000000
_cell_angle_gamma 90.000000
_cell_volume 3480.664551
_symmetry_space_group_name_H-M "P 42 2 2"
_symmetry_group_IT_number 93
_symmetry_cell_setting 'tetragonal'
loop_
_space_group_symop_operation_xyz
x,y,z
-y,x,1/2+z
-x,-y,z
y,-x,1/2+z
x,-y,-z
-x,y,-z
y,x,1/2-z
-y,-x,1/2-z
loop_
_atom_site_type_symbol
_atom_site_label
_atom_site_fract_x
_atom_site_fract_y
_atom_site_fract_z
Si Si1 0.188288 0.129507 0.008145
Si Si2 0.517468 0.137028 0.829750
Si Si3 0.266272 0.835724 0.399290
Si Si4 0.121325 0.230252 0.301465
Si Si5 0.554389 0.128255 0.948414
Si Si6 0.849464 0.270880 0.298845
Si Si7 0.250655 0.898171 0.604697
Si Si8 0.491124 0.138667 0.438405
O O1 0.311486 0.124993 0.037949
O O2 0.103945 0.189717 0.048259
O O3 0.188850 0.197523 0.953331
O O4 0.153722 0.000000 0.000000
O O5 0.638127 0.161518 0.802800
O O6 0.526642 0.178006 0.890823
O O7 0.406716 0.172251 0.797028
O O8 0.500000 0.000000 0.833684
O O9 0.208303 0.766455 0.353122
O O10 0.398968 0.811023 0.409546
O O11 0.262569 0.968797 0.382127
O O12 0.165071 0.165071 0.250000
O O13 0.175147 0.166619 0.352067
O O14 0.983731 0.238844 0.302434
O O15 0.500000 0.000000 0.947033
O O16 0.500000 0.186711 0.000000
O O17 0.793746 0.206255 0.250000
O O18 0.372881 0.839695 0.592144
O O19 0.500000 0.173754 0.500000
O O20 0.500000 0.000000 0.438913
#
# Coordination Sequence:
#
# PCOD9549600 Si02
#       8
#     8   8   8   8   8   8   8   8
#     4  12  21  31  53  91 122 151 192 239 306 357
#     4   9  20  38  59  84 113 152 205 241 273 353
#     4  11  23  36  58  86 119 164 195 241 302 354
#     4  11  23  40  63  89 119 158 197 246 300 348
#     4  10  17  31  54  81 115 153 195 239 277 338
#     4  11  24  41  61  88 121 155 197 244 300 355
#     4  11  22  37  57  85 121 159 201 243 295 362
#     4   9  18  37  57  78 114 160 209 243 280 350
#
# _framework density 18.387295000000002
#
# number of rings (size 3 to 8) (size 9 to 14) (size 15 to 20)
#    0.000    1.500    3.750    2.625    1.750    4.750 
#    0.000    3.750    0.000    2.625    0.000    1.750 
#    0.000    0.000    0.000    0.000    0.000    0.000 
#
# Total GULP energy -356971.155447 kJ/mol
# GULP energy per Si atom -5577.674304 kJ/mol
# Density = 1.834544 g / cm^3
# Si number density = 18.387295 Si / 1000 Ang^3
#
#
#
# Elastic Constant Matrix: (Units=GPa)
#
#
# Indices 1 2 3 4 5 6 
#
# 1 94.0523 19.8924 34.8584 0.0000 0.0000 0.0000
# 2 19.8924 94.0527 34.8584 0.0000 0.0000 0.0000
# 3 34.8584 34.8584 104.7251 0.0000 0.0000 0.0000
# 4 0.0000 0.0000 0.0000 38.1696 0.0000 0.0000
# 5 0.0000 0.0000 0.0000 0.0000 38.1746 0.0000
# 6 0.0000 0.0000 0.0000 0.0000 0.0000 -7.4061
#
#
#
# Elastic Compliance Matrix: (Units=1/GPa)
#
#
# Indices 1 2 3 4 5 6 
#
# 1 0.012252 -0.001232 -0.003668 0.000000 0.000000 0.000000
# 2 -0.001232 0.012252 -0.003668 0.000000 0.000000 0.000000
# 3 -0.003668 -0.003668 0.011991 0.000000 0.000000 0.000000
# 4 0.000000 0.000000 0.000000 0.026199 0.000000 0.000000
# 5 0.000000 0.000000 0.000000 0.000000 0.026195 0.000000
# 6 0.000000 0.000000 0.000000 0.000000 0.000000 -0.135025
#
#
# Mechanical properties :
#
#
# Convention : Reuss Voigt Hill
#
# Bulk Modulus (GPa) = 51.65577 52.44982 52.05280
# Shear Modulus (GPa) = -221.77995 27.33569 -97.22213
#
# Velocity S-wave (km/s) = -10.99444 3.85991 -7.27938
# Velocity P-wave (km/s) = 11.53326 6.96076 6.50246
#
# Compressibility (1/GPa) = 0.01935892
#
# Stress axis : x y z
#
# Youngs Moduli (GPa) = 81.61602 81.61647 83.39715
#
# Poissons Ratio (x) = 0.10054 0.30592
# Poissons Ratio (y) = 0.10054 0.30592
# Poissons Ratio (z) = 0.29939 0.29939
#
# Static dielectric constant tensor:
#      x y z
#    x 1.643740 0.000000 0.000000 
#    y 0.000000 1.643740 0.000000 
#    z 0.000000 0.000000 1.628240 
# 
# From -- ./inp_files/6984.got.cif
#   From: 2010.05.17/outbox.cif.g08.bks.cpg/sg93_4_cif.got.tgz:6984.got - 2010.06.03 19:38:44.
