data_PCOD9549771
_publ_section_title
;
Structure prediction by ZEFSAII (Michael W. Deem and Ramdas Pophale) SiO2 
 PCOD9549771
Probable space group: P 42 2 2
;
_chemical_formula_sum "Si O2"
_cell_formula_units_Z 48
_cell_length_a 8.262125
_cell_length_b 8.262125
_cell_length_c 31.733902
_cell_angle_alpha 90.000000
_cell_angle_beta 90.000000
_cell_angle_gamma 90.000000
_cell_volume 2166.242134
_symmetry_space_group_name_H-M "P 42 2 2"
_symmetry_group_IT_number 93
_symmetry_cell_setting 'tetragonal'
loop_
_space_group_symop_operation_xyz
x,y,z
-y,x,1/2+z
-x,-y,z
y,-x,1/2+z
x,-y,-z
-x,y,-z
y,x,1/2-z
-y,-x,1/2-z
loop_
_atom_site_type_symbol
_atom_site_label
_atom_site_fract_x
_atom_site_fract_y
_atom_site_fract_z
Si Si1 0.617690 0.632842 0.074215
Si Si2 0.175841 0.170290 0.300063
Si Si3 0.853769 0.620128 0.918570
Si Si4 0.493013 0.804671 0.844173
Si Si5 0.195850 0.186532 0.000111
Si Si6 0.151109 0.191731 0.836455
O O1 0.500000 0.500000 0.053832
O O2 0.734692 0.513908 0.100733
O O3 0.532933 0.748726 0.107719
O O4 0.721166 0.728345 0.039860
O O5 0.164389 0.164389 0.250000
O O6 0.247308 0.338328 0.316847
O O7 0.998108 0.160867 0.322978
O O8 0.262991 0.003407 0.312588
O O9 0.887871 0.761565 0.885013
O O10 0.000000 0.500000 0.931943
O O11 0.773862 0.709001 0.958361
O O12 0.667750 0.745796 0.828078
O O13 0.500000 0.000000 0.843675
O O14 0.000000 0.184639 0.000000
O O15 0.250873 0.000000 0.000000
#
# Coordination Sequence:
#
# PCOD9549771 Si02
#       6
#     8   8   8   8   8   8
#     4  12  25  45  69  99 144 190 240 300 365 427
#     4  10  22  43  75 109 140 185 234 298 365 440
#     4  12  24  43  67 102 139 186 234 301 366 430
#     4  10  23  44  71 100 139 184 238 293 350 435
#     4  11  27  44  70 102 140 190 252 305 363 434
#     4  10  21  41  71  98 137 183 235 280 355 436
#
# _framework density 22.158189
#
# number of rings (size 3 to 8) (size 9 to 14) (size 15 to 20)
#    0.000    1.167    3.333    2.500    4.667    2.667 
#    0.000   11.667    0.000    0.000    0.000    0.000 
#    0.000    0.000    0.000    0.000    0.000    0.000 
#
# Total GULP energy -267555.205234 kJ/mol
# GULP energy per Si atom -5574.066776 kJ/mol
# Density = 2.210776 g / cm^3
# Si number density = 22.158189 Si / 1000 Ang^3
#
#
#
# Elastic Constant Matrix: (Units=GPa)
#
#
# Indices 1 2 3 4 5 6 
#
# 1 121.4739 39.1619 47.5545 0.0000 0.0000 0.0000
# 2 39.1619 121.4739 47.5545 0.0000 0.0000 0.0000
# 3 47.5545 47.5545 124.2911 0.0000 0.0000 0.0000
# 4 0.0000 0.0000 0.0000 -29.1340 0.0000 0.0000
# 5 0.0000 0.0000 0.0000 0.0000 -29.1340 0.0000
# 6 0.0000 0.0000 0.0000 0.0000 0.0000 17.1816
#
#
#
# Elastic Compliance Matrix: (Units=1/GPa)
#
#
# Indices 1 2 3 4 5 6 
#
# 1 0.010099 -0.002050 -0.003079 0.000000 0.000000 0.000000
# 2 -0.002050 0.010099 -0.003079 0.000000 0.000000 0.000000
# 3 -0.003079 -0.003079 0.010402 0.000000 0.000000 0.000000
# 4 0.000000 0.000000 0.000000 -0.034324 0.000000 0.000000
# 5 0.000000 0.000000 0.000000 0.000000 -0.034324 0.000000
# 6 0.000000 0.000000 0.000000 0.000000 0.000000 0.058202
#
#
# Mechanical properties :
#
#
# Convention : Reuss Voigt Hill
#
# Bulk Modulus (GPa) = 70.51477 70.64227 70.57852
# Shear Modulus (GPa) = 121.07149 7.31394 64.19271
#
# Velocity S-wave (km/s) = 7.39988 1.81878 5.38824
# Velocity P-wave (km/s) = 10.24224 6.02998 8.40429
#
# Compressibility (1/GPa) = 0.01418143
#
# Stress axis : x y z
#
# Youngs Moduli (GPa) = 99.02256 99.02256 96.13513
#
# Poissons Ratio (x) = 0.20302 0.29604
# Poissons Ratio (y) = 0.20302 0.29604
# Poissons Ratio (z) = 0.30493 0.30493
#
# Static dielectric constant tensor:
#      x y z
#    x 1.910400 0.000000 0.000000 
#    y 0.000000 1.910400 0.000000 
#    z 0.000000 0.000000 1.769470 
# 
# From -- ./inp_files/7749.got.cif
#   From: 2010.05.17/outbox.cif.g08.bks.cpg/sg93_4_cif.got.tgz:7749.got - 2010.06.03 19:38:44.
