data_PCOD9549157
_publ_section_title
;
Structure prediction by ZEFSAII (Michael W. Deem and Ramdas Pophale) SiO2 
 PCOD9549157
Probable space group: P 41 21 2
;
_chemical_formula_sum "Si O2"
_cell_formula_units_Z 44
_cell_length_a 12.886564
_cell_length_b 12.886564
_cell_length_c 12.840214
_cell_angle_alpha 90.000000
_cell_angle_beta 90.000000
_cell_angle_gamma 90.000000
_cell_volume 2132.291285
_symmetry_space_group_name_H-M "P 41 21 2"
_symmetry_group_IT_number 92
_symmetry_cell_setting 'tetragonal'
loop_
_space_group_symop_operation_xyz
x,y,z
1/2-y,1/2+x,1/4+z
-x,-y,1/2+z
1/2+y,1/2-x,3/4+z
1/2+x,1/2-y,3/4-z
1/2-x,1/2+y,1/4-z
y,x,-z
-y,-x,1/2-z
loop_
_atom_site_type_symbol
_atom_site_label
_atom_site_fract_x
_atom_site_fract_y
_atom_site_fract_z
Si Si1 0.258202 0.913236 0.835703
Si Si2 0.636710 0.047965 0.765600
Si Si3 0.183215 0.949737 0.631626
Si Si4 0.522740 0.477261 0.750000
Si Si5 0.975591 0.635025 0.015545
Si Si6 0.512734 0.241807 0.808567
O O1 0.198908 0.986627 0.751119
O O2 0.175087 0.824326 0.859964
O O3 0.360437 0.881626 0.775179
O O4 0.283782 0.960483 0.947227
O O5 0.611642 0.164900 0.802416
O O6 0.535285 0.976239 0.738630
O O7 0.705452 0.046468 0.662219
O O8 0.678518 0.989123 0.867900
O O9 0.075885 0.982376 0.577047
O O10 0.281036 0.977513 0.562477
O O11 0.523030 0.365738 0.807697
#
# Coordination Sequence:
#
# PCOD9549157 Si02
#       6
#     8   8   8   4   8   8
#     4  10  21  41  67  96 137 177 226 280 344 408
#     4  10  22  40  70 103 129 166 233 286 350 391
#     4  10  23  42  64  99 128 183 227 265 348 418
#     4  10  24  50  58  90 148 178 226 264 344 432
#     4  11  20  41  69 101 136 169 225 296 334 406
#     4  10  22  43  66 100 130 181 221 285 344 404
#
# _framework density 20.635079999999999
#
# number of rings (size 3 to 8) (size 9 to 14) (size 15 to 20)
#    0.000    1.818    1.818    2.182    2.545    1.455 
#   26.182    0.000    0.000    0.000    0.000    0.000 
#    0.000    0.000    0.000    0.000    0.000    0.000 
#
# Total GULP energy -245206.197727 kJ/mol
# GULP energy per Si atom -5572.868130 kJ/mol
# Density = 2.058811 g / cm^3
# Si number density = 20.635080 Si / 1000 Ang^3
#
#
#
# Elastic Constant Matrix: (Units=GPa)
#
#
# Indices 1 2 3 4 5 6 
#
# 1 82.0121 21.1549 31.7352 0.0000 0.0000 0.0000
# 2 21.1549 82.0118 31.7363 0.0000 0.0000 0.0000
# 3 31.7352 31.7363 136.0205 0.0000 0.0000 0.0000
# 4 0.0000 0.0000 0.0000 28.4338 0.0000 0.0000
# 5 0.0000 0.0000 0.0000 0.0000 28.4340 0.0000
# 6 0.0000 0.0000 0.0000 0.0000 0.0000 16.8102
#
#
#
# Elastic Compliance Matrix: (Units=1/GPa)
#
#
# Indices 1 2 3 4 5 6 
#
# 1 0.013875 -0.002557 -0.002640 0.000000 0.000000 0.000000
# 2 -0.002557 0.013875 -0.002641 0.000000 0.000000 0.000000
# 3 -0.002640 -0.002641 0.008584 0.000000 0.000000 0.000000
# 4 0.000000 0.000000 0.000000 0.035169 0.000000 0.000000
# 5 0.000000 0.000000 0.000000 0.000000 0.035169 0.000000
# 6 0.000000 0.000000 0.000000 0.000000 0.000000 0.059488
#
#
# Mechanical properties :
#
#
# Convention : Reuss Voigt Hill
#
# Bulk Modulus (GPa) = 48.40996 52.14413 50.27705
# Shear Modulus (GPa) = 26.49400 29.09682 27.79541
#
# Velocity S-wave (km/s) = 3.58708 3.75916 3.67413
# Velocity P-wave (km/s) = 6.37708 6.64577 6.51281
#
# Compressibility (1/GPa) = 0.02065691
#
# Stress axis : x y z
#
# Youngs Moduli (GPa) = 72.07367 72.07289 116.49570
#
# Poissons Ratio (x) = 0.18430 0.30761
# Poissons Ratio (y) = 0.18430 0.30763
# Poissons Ratio (z) = 0.19031 0.19032
#
# Static dielectric constant tensor:
#      x y z
#    x 1.768590 0.000000 0.000000 
#    y 0.000000 1.768590 0.000000 
#    z 0.000000 0.000000 1.806930 
# 
# From -- ./inp_files/2142.got.cif
#   From: 2010.05.17/outbox.cif.g08.bks.cpg/sg92_2_cif.got.tgz:2142.got - 2010.06.03 19:35:17.
