data_PCOD9549981
_publ_section_title
;
Structure prediction by ZEFSAII (Michael W. Deem and Ramdas Pophale) SiO2 
 PCOD9549981
Probable space group: P 42 21 2
;
_chemical_formula_sum "Si O2"
_cell_formula_units_Z 42
_cell_length_a 14.719210
_cell_length_b 14.719210
_cell_length_c 8.836127
_cell_angle_alpha 90.000000
_cell_angle_beta 90.000000
_cell_angle_gamma 90.000000
_cell_volume 1914.392359
_symmetry_space_group_name_H-M "P 42 21 2"
_symmetry_group_IT_number 94
_symmetry_cell_setting 'tetragonal'
loop_
_space_group_symop_operation_xyz
x,y,z
1/2-y,1/2+x,1/2+z
-x,-y,z
1/2+y,1/2-x,1/2+z
1/2+x,1/2-y,1/2-z
1/2-x,1/2+y,1/2-z
y,x,-z
-y,-x,-z
loop_
_atom_site_type_symbol
_atom_site_label
_atom_site_fract_x
_atom_site_fract_y
_atom_site_fract_z
Si Si1 0.757696 0.469387 0.815874
Si Si2 0.203135 0.330945 0.896517
Si Si3 0.422285 0.559814 0.724800
Si Si4 0.000000 0.000000 0.500000
Si Si5 0.429603 0.755703 0.839181
Si Si6 0.917891 0.568243 0.133788
O O1 0.683684 0.437936 0.688563
O O2 0.859488 0.449833 0.758213
O O3 0.749427 0.577224 0.840050
O O4 0.748273 0.419706 0.979047
O O5 0.119949 0.370490 0.996759
O O6 0.267719 0.267719 0.000000
O O7 0.161330 0.281673 0.750579
O O8 0.500000 0.500000 0.647524
O O9 0.417672 0.506829 0.886518
O O10 0.457616 0.659362 0.765746
O O11 0.505707 0.832964 0.816122
O O12 0.000000 0.500000 0.094071
#
# Coordination Sequence:
#
# PCOD9549981 Si02
#       6
#     8   8   8   2   8   8
#     4  11  22  40  67  92 130 170 221 270 329 388
#     4  11  26  39  66  98 133 172 225 271 335 394
#     4  10  19  37  64  95 123 162 216 276 321 387
#     4   8  16  32  60  88 122 152 208 266 324 372
#     4  11  22  39  65  94 126 169 218 265 327 389
#     4  11  25  42  63  97 138 175 216 273 334 396
#
# _framework density 21.939077999999999
#
# number of rings (size 3 to 8) (size 9 to 14) (size 15 to 20)
#    0.571    0.762    3.810    1.143   12.000    0.000 
#    0.000    0.000    0.000    5.143    0.000    0.000 
#    0.000    0.000    0.000    0.000    0.000    0.000 
#
# Total GULP energy -233956.299953 kJ/mol
# GULP energy per Si atom -5570.388094 kJ/mol
# Density = 2.188914 g / cm^3
# Si number density = 21.939078 Si / 1000 Ang^3
#
#
#
# Elastic Constant Matrix: (Units=GPa)
#
#
# Indices 1 2 3 4 5 6 
#
# 1 119.6911 71.1041 30.5717 0.0000 0.0000 0.0000
# 2 71.1041 119.6911 30.5717 0.0000 0.0000 0.0000
# 3 30.5717 30.5717 63.0905 0.0000 0.0000 0.0000
# 4 0.0000 0.0000 0.0000 -36.1441 0.0000 0.0000
# 5 0.0000 0.0000 0.0000 0.0000 -36.1441 0.0000
# 6 0.0000 0.0000 0.0000 0.0000 0.0000 41.6824
#
#
#
# Elastic Compliance Matrix: (Units=1/GPa)
#
#
# Indices 1 2 3 4 5 6 
#
# 1 0.013393 -0.007188 -0.003007 0.000000 0.000000 0.000000
# 2 -0.007188 0.013393 -0.003007 0.000000 0.000000 0.000000
# 3 -0.003007 -0.003007 0.018764 0.000000 0.000000 0.000000
# 4 0.000000 0.000000 0.000000 -0.027667 0.000000 0.000000
# 5 0.000000 0.000000 0.000000 0.000000 -0.027667 0.000000
# 6 0.000000 0.000000 0.000000 0.000000 0.000000 0.023991
#
#
# Mechanical properties :
#
#
# Convention : Reuss Voigt Hill
#
# Bulk Modulus (GPa) = 52.22729 62.99638 57.61184
# Shear Modulus (GPa) = 106.39875 5.22720 55.81297
#
# Velocity S-wave (km/s) = 6.97156 1.54524 5.04928
# Velocity P-wave (km/s) = 9.41599 5.65334 7.76599
#
# Compressibility (1/GPa) = 0.01914708
#
# Stress axis : x y z
#
# Youngs Moduli (GPa) = 74.66486 74.66486 53.29331
#
# Poissons Ratio (x) = 0.53672 0.16023
# Poissons Ratio (y) = 0.53672 0.16023
# Poissons Ratio (z) = 0.22449 0.22449
#
# Static dielectric constant tensor:
#      x y z
#    x 1.900300 0.000000 0.000000 
#    y 0.000000 1.900300 0.000000 
#    z 0.000000 0.000000 1.870150 
# 
# From -- ./inp_files/1491.got.cif
#   From: 2010.05.17/outbox.cif.g08.bks.cpg/sg94_1_cif.got.tgz:1491.got - 2010.06.03 19:43:16.
