data_PCOD9549158
_publ_section_title
;
Structure prediction by ZEFSAII (Michael W. Deem and Ramdas Pophale) SiO2 
 PCOD9549158
Probable space group: P 41 21 2
;
_chemical_formula_sum "Si O2"
_cell_formula_units_Z 40
_cell_length_a 8.700776
_cell_length_b 8.700776
_cell_length_c 19.878935
_cell_angle_alpha 90.000000
_cell_angle_beta 90.000000
_cell_angle_gamma 90.000000
_cell_volume 1504.905015
_symmetry_space_group_name_H-M "P 41 21 2"
_symmetry_group_IT_number 92
_symmetry_cell_setting 'tetragonal'
loop_
_space_group_symop_operation_xyz
x,y,z
1/2-y,1/2+x,1/4+z
-x,-y,1/2+z
1/2+y,1/2-x,3/4+z
1/2+x,1/2-y,3/4-z
1/2-x,1/2+y,1/4-z
y,x,-z
-y,-x,1/2-z
loop_
_atom_site_type_symbol
_atom_site_label
_atom_site_fract_x
_atom_site_fract_y
_atom_site_fract_z
Si Si1 0.176275 0.971104 0.814295
Si Si2 0.746034 0.941068 0.536640
Si Si3 0.955799 0.476001 0.262432
Si Si4 0.824959 0.677669 0.147352
Si Si5 0.390809 0.373459 0.100947
O O1 0.129047 0.870954 0.750000
O O2 0.347573 0.008408 0.791699
O O3 0.186468 0.852751 0.876723
O O4 0.045347 0.101810 0.817873
O O5 0.902379 0.902379 0.500000
O O6 0.681393 0.787157 0.574867
O O7 0.619464 0.946838 0.477598
O O8 0.796649 0.081398 0.583200
O O9 0.847794 0.585680 0.217165
O O10 0.898394 0.410880 0.332579
O O11 0.924586 0.834954 0.149849
#
# Coordination Sequence:
#
# PCOD9549158 Si02
#       5
#     8   8   8   8   8
#     4  10  21  41  67  98 137 178 225 278 347 399
#     4  11  26  42  66  96 134 178 227 278 344 405
#     4  10  23  43  67  98 139 177 230 283 340 409
#     4  10  23  43  69 101 133 181 225 287 339 415
#     4  11  24  43  66  99 135 176 223 286 339 411
#
# _framework density 26.579750000000001
#
# number of rings (size 3 to 8) (size 9 to 14) (size 15 to 20)
#    0.000    1.600    0.000    3.000    8.400    4.000 
#   14.400    0.000    0.000    0.000    0.000    0.000 
#    0.000    0.000    0.000    0.000    0.000    0.000 
#
# Total GULP energy -222993.079089 kJ/mol
# GULP energy per Si atom -5574.826977 kJ/mol
# Density = 2.651925 g / cm^3
# Si number density = 26.579750 Si / 1000 Ang^3
#
#
#
# Elastic Constant Matrix: (Units=GPa)
#
#
# Indices 1 2 3 4 5 6 
#
# 1 28.4869 24.4004 19.3830 0.0000 0.0000 0.0000
# 2 24.4004 28.4868 19.3829 0.0000 0.0000 0.0000
# 3 19.3830 19.3829 75.2447 0.0000 0.0000 0.0000
# 4 0.0000 0.0000 0.0000 42.8317 0.0000 0.0000
# 5 0.0000 0.0000 0.0000 0.0000 42.8313 0.0000
# 6 0.0000 0.0000 0.0000 0.0000 0.0000 32.1448
#
#
#
# Elastic Compliance Matrix: (Units=1/GPa)
#
#
# Indices 1 2 3 4 5 6 
#
# 1 0.134011 -0.110702 -0.006005 0.000000 0.000000 0.000000
# 2 -0.110702 0.134011 -0.006004 0.000000 0.000000 0.000000
# 3 -0.006005 -0.006004 0.016383 0.000000 0.000000 0.000000
# 4 0.000000 0.000000 0.000000 0.023347 0.000000 0.000000
# 5 0.000000 0.000000 0.000000 0.000000 0.023347 0.000000
# 6 0.000000 0.000000 0.000000 0.000000 0.000000 0.031109
#
#
# Mechanical properties :
#
#
# Convention : Reuss Voigt Hill
#
# Bulk Modulus (GPa) = 25.65135 28.72789 27.18962
# Shear Modulus (GPa) = 8.05639 28.16504 18.11072
#
# Velocity S-wave (km/s) = 1.74287 3.25875 2.61314
# Velocity P-wave (km/s) = 3.70430 4.99909 4.39959
#
# Compressibility (1/GPa) = 0.03898430
#
# Stress axis : x y z
#
# Youngs Moduli (GPa) = 7.46207 7.46207 61.03718
#
# Poissons Ratio (x) = 0.82606 0.36651
# Poissons Ratio (y) = 0.82606 0.36648
# Poissons Ratio (z) = 0.04481 0.04480
#
# Static dielectric constant tensor:
#      x y z
#    x 2.236520 0.000000 0.000000 
#    y 0.000000 2.236510 0.000000 
#    z 0.000000 0.000000 2.106620 
# 
# From -- ./inp_files/3772.got.cif
#   From: 2010.05.17/outbox.cif.g08.bks.cpg/sg92_2_cif.got.tgz:3772.got - 2010.06.03 19:35:17.
