data_PCOD9549991
_publ_section_title
;
Structure prediction by ZEFSAII (Michael W. Deem and Ramdas Pophale) SiO2 
 PCOD9549991
Probable space group: P 42 21 2
;
_chemical_formula_sum "Si O2"
_cell_formula_units_Z 48
_cell_length_a 8.734037
_cell_length_b 8.734037
_cell_length_c 31.736270
_cell_angle_alpha 90.000000
_cell_angle_beta 90.000000
_cell_angle_gamma 90.000000
_cell_volume 2420.950652
_symmetry_space_group_name_H-M "P 42 21 2"
_symmetry_group_IT_number 94
_symmetry_cell_setting 'tetragonal'
loop_
_space_group_symop_operation_xyz
x,y,z
1/2-y,1/2+x,1/2+z
-x,-y,z
1/2+y,1/2-x,1/2+z
1/2+x,1/2-y,1/2-z
1/2-x,1/2+y,1/2-z
y,x,-z
-y,-x,-z
loop_
_atom_site_type_symbol
_atom_site_label
_atom_site_fract_x
_atom_site_fract_y
_atom_site_fract_z
Si Si1 0.262636 0.801596 0.358723
Si Si2 0.742068 0.294264 0.049664
Si Si3 0.966368 0.318448 0.889067
Si Si4 0.500000 0.500000 0.901062
Si Si5 0.157353 0.687419 0.798359
Si Si6 0.500000 0.000000 0.409037
Si Si7 0.654768 0.804495 0.225848
O O1 0.253941 0.630618 0.378224
O O2 0.258965 0.784087 0.308304
O O3 0.402921 0.889993 0.378880
O O4 0.113854 0.897688 0.373181
O O5 0.744405 0.127255 0.071494
O O6 0.599266 0.385753 0.070105
O O7 0.888687 0.395518 0.062609
O O8 0.722236 0.277765 0.000000
O O9 0.857761 0.294216 0.848255
O O10 0.000000 0.500000 0.893106
O O11 0.252588 0.811103 0.772869
O O12 0.222534 0.520091 0.787603
O O13 0.983568 0.687429 0.781063
#
# Coordination Sequence:
#
# PCOD9549991 Si02
#       7
#     8   8   8   4   8   4   8
#     4  10  21  41  65  90 127 169 211 255 321 374
#     4  11  24  40  66  96 129 165 213 266 327 381
#     4  11  20  43  69  86 123 180 211 251 316 408
#     4  10  19  38  66  94 128 172 212 264 307 378
#     4  10  21  38  58  88 120 161 212 248 313 367
#     4  10  26  42  58 100 128 152 210 274 320 380
#     4  10  21  37  58  87 122 159 209 259 298 376
#
# _framework density 19.826924000000002
#
# number of rings (size 3 to 8) (size 9 to 14) (size 15 to 20)
#    0.000    1.667    5.000    0.250    1.167    8.000 
#    0.000    5.000    0.000    0.000    0.000    0.000 
#    0.000    0.000    0.000    0.000    0.000    0.000 
#
# Total GULP energy -268300.368026 kJ/mol
# GULP energy per Si atom -5589.591001 kJ/mol
# Density = 1.978180 g / cm^3
# Si number density = 19.826924 Si / 1000 Ang^3
#
#
#
# Elastic Constant Matrix: (Units=GPa)
#
#
# Indices 1 2 3 4 5 6 
#
# 1 49.8441 19.4392 12.8422 0.0000 0.0000 0.0000
# 2 19.4392 49.8438 12.8420 0.0000 0.0000 0.0000
# 3 12.8422 12.8420 57.7597 0.0000 0.0000 0.0000
# 4 0.0000 0.0000 0.0000 15.3868 0.0000 0.0000
# 5 0.0000 0.0000 0.0000 0.0000 15.3866 0.0000
# 6 0.0000 0.0000 0.0000 0.0000 0.0000 28.9795
#
#
#
# Elastic Compliance Matrix: (Units=1/GPa)
#
#
# Indices 1 2 3 4 5 6 
#
# 1 0.024310 -0.008580 -0.003497 0.000000 0.000000 0.000000
# 2 -0.008580 0.024310 -0.003497 0.000000 0.000000 0.000000
# 3 -0.003497 -0.003497 0.018868 0.000000 0.000000 0.000000
# 4 0.000000 0.000000 0.000000 0.064991 0.000000 0.000000
# 5 0.000000 0.000000 0.000000 0.000000 0.064992 0.000000
# 6 0.000000 0.000000 0.000000 0.000000 0.000000 0.034507
#
#
# Mechanical properties :
#
#
# Convention : Reuss Voigt Hill
#
# Bulk Modulus (GPa) = 27.51870 27.52159 27.52014
# Shear Modulus (GPa) = 18.16599 19.43886 18.80242
#
# Velocity S-wave (km/s) = 3.03021 3.13457 3.08283
# Velocity P-wave (km/s) = 5.11395 5.19729 5.15579
#
# Compressibility (1/GPa) = 0.03633893
#
# Stress axis : x y z
#
# Youngs Moduli (GPa) = 41.13568 41.13554 52.99899
#
# Poissons Ratio (x) = 0.35293 0.18536
# Poissons Ratio (y) = 0.35294 0.18535
# Poissons Ratio (z) = 0.14387 0.14386
#
# Static dielectric constant tensor:
#      x y z
#    x 1.706490 0.000000 0.000000 
#    y 0.000000 1.706490 0.000000 
#    z 0.000000 0.000000 1.657920 
# 
# From -- ./inp_files/5639.got.cif
#   From: 2010.05.17/outbox.cif.g08.bks.cpg/sg94_3_cif.got.tgz:5639.got - 2010.06.03 19:43:16.
