data_PCOD9549924
_publ_section_title
;
Structure prediction by ZEFSAII (Michael W. Deem and Ramdas Pophale) SiO2 
 PCOD9549924
Probable space group: P 42 21 2
;
_chemical_formula_sum "Si O2"
_cell_formula_units_Z 32
_cell_length_a 11.763797
_cell_length_b 11.763797
_cell_length_c 9.525136
_cell_angle_alpha 90.000000
_cell_angle_beta 90.000000
_cell_angle_gamma 90.000000
_cell_volume 1318.154232
_symmetry_space_group_name_H-M "P 42 21 2"
_symmetry_group_IT_number 94
_symmetry_cell_setting 'tetragonal'
loop_
_space_group_symop_operation_xyz
x,y,z
1/2-y,1/2+x,1/2+z
-x,-y,z
1/2+y,1/2-x,1/2+z
1/2+x,1/2-y,1/2-z
1/2-x,1/2+y,1/2-z
y,x,-z
-y,-x,-z
loop_
_atom_site_type_symbol
_atom_site_label
_atom_site_fract_x
_atom_site_fract_y
_atom_site_fract_z
Si Si1 0.103356 0.434167 0.816857
Si Si2 0.689054 0.460318 0.323177
Si Si3 0.053539 0.227839 0.498853
Si Si4 0.534145 0.663792 0.287257
O O1 0.207909 0.422587 0.708313
O O2 0.000000 0.500000 0.748730
O O3 0.072824 0.311759 0.881288
O O4 0.151474 0.521233 0.934110
O O5 0.718473 0.480605 0.158753
O O6 0.621488 0.575843 0.353659
O O7 0.592966 0.362831 0.342295
O O8 0.182486 0.182486 0.500000
O O9 0.987529 0.149065 0.382625
#
# Coordination Sequence:
#
# PCOD9549924 Si02
#       4
#     8   8   8   8
#     4  10  22  31  53  86 118 147 209 251 312 372
#     4  10  17  34  59  79 114 157 204 256 303 375
#     4   8  17  34  55  79 116 156 202 252 308 372
#     4   8  19  33  54  84 113 160 198 247 317 363
#
# _framework density 24.27637
#
# number of rings (size 3 to 8) (size 9 to 14) (size 15 to 20)
#    1.500    1.500    0.000    0.750    3.500    4.000 
#    0.000    0.000    0.000    0.000    0.000    0.000 
#    0.000    0.000    0.000    0.000    0.000    0.000 
#
# Total GULP energy -178163.609368 kJ/mol
# GULP energy per Si atom -5567.612793 kJ/mol
# Density = 2.422112 g / cm^3
# Si number density = 24.276370 Si / 1000 Ang^3
#
#
#
# Elastic Constant Matrix: (Units=GPa)
#
#
# Indices 1 2 3 4 5 6 
#
# 1 136.6372 95.1321 -1.3458 0.0000 0.0000 0.0000
# 2 95.1321 136.6372 -1.3458 0.0000 0.0000 0.0000
# 3 -1.3458 -1.3458 82.9186 0.0000 0.0000 0.0000
# 4 0.0000 0.0000 0.0000 10.1600 0.0000 0.0000
# 5 0.0000 0.0000 0.0000 0.0000 10.1600 0.0000
# 6 0.0000 0.0000 0.0000 0.0000 0.0000 27.6824
#
#
#
# Elastic Compliance Matrix: (Units=1/GPa)
#
#
# Indices 1 2 3 4 5 6 
#
# 1 0.014204 -0.009889 0.000070 0.000000 0.000000 0.000000
# 2 -0.009889 0.014204 0.000070 0.000000 0.000000 0.000000
# 3 0.000070 0.000070 0.012062 0.000000 0.000000 0.000000
# 4 0.000000 0.000000 0.000000 0.098426 0.000000 0.000000
# 5 0.000000 0.000000 0.000000 0.000000 0.098426 0.000000
# 6 0.000000 0.000000 0.000000 0.000000 0.000000 0.036124
#
#
# Mechanical properties :
#
#
# Convention : Reuss Voigt Hill
#
# Bulk Modulus (GPa) = 47.67955 60.11934 53.89944
# Shear Modulus (GPa) = 16.67027 27.18396 21.92711
#
# Velocity S-wave (km/s) = 2.62331 3.34993 3.00864
# Velocity P-wave (km/s) = 5.37202 6.30722 5.85831
#
# Compressibility (1/GPa) = 0.02097335
#
# Stress axis : x y z
#
# Youngs Moduli (GPa) = 70.40057 70.40057 82.90296
#
# Poissons Ratio (x) = 0.69619 -0.00581
# Poissons Ratio (y) = 0.69619 -0.00581
# Poissons Ratio (z) = -0.00493 -0.00493
#
# Static dielectric constant tensor:
#      x y z
#    x 1.975220 0.000000 0.000000 
#    y 0.000000 1.975220 0.000000 
#    z 0.000000 0.000000 2.025330 
# 
# From -- ./inp_files/2303.got.cif
#   From: 2010.05.17/outbox.cif.g08.bks.cpg/sg94_2_cif.got.tgz:2303.got - 2010.06.03 19:43:16.
