data_PCOD9549179
_publ_section_title
;
Structure prediction by ZEFSAII (Michael W. Deem and Ramdas Pophale) SiO2 
 PCOD9549179
Probable space group: P 41 21 2
;
_chemical_formula_sum "Si O2"
_cell_formula_units_Z 48
_cell_length_a 7.886840
_cell_length_b 7.886840
_cell_length_c 27.629168
_cell_angle_alpha 90.000000
_cell_angle_beta 90.000000
_cell_angle_gamma 90.000000
_cell_volume 1718.596282
_symmetry_space_group_name_H-M "P 41 21 2"
_symmetry_group_IT_number 92
_symmetry_cell_setting 'tetragonal'
loop_
_space_group_symop_operation_xyz
x,y,z
1/2-y,1/2+x,1/4+z
-x,-y,1/2+z
1/2+y,1/2-x,3/4+z
1/2+x,1/2-y,3/4-z
1/2-x,1/2+y,1/4-z
y,x,-z
-y,-x,1/2-z
loop_
_atom_site_type_symbol
_atom_site_label
_atom_site_fract_x
_atom_site_fract_y
_atom_site_fract_z
Si Si1 0.762184 0.309977 0.520689
Si Si2 0.209325 0.058844 0.322915
Si Si3 0.222337 0.035018 0.959263
Si Si4 0.956495 0.536740 0.878413
Si Si5 0.334578 0.371979 0.447575
Si Si6 0.843116 0.090103 0.598844
O O1 0.790675 0.451167 0.480293
O O2 0.781359 0.139057 0.489135
O O3 0.571794 0.339709 0.538629
O O4 0.870442 0.259698 0.567116
O O5 0.361659 0.115037 0.357974
O O6 0.142319 0.887685 0.347050
O O7 0.030181 0.163771 0.318982
O O8 0.385380 0.015024 0.924555
O O9 0.065170 0.048771 0.921326
O O10 0.176559 0.176559 0.000000
O O11 0.814132 0.639705 0.908661
O O12 0.961988 0.351262 0.904293
O O13 0.290116 0.290116 0.500000
#
# Coordination Sequence:
#
# PCOD9549179 Si02
#       6
#     8   8   8   8   8   8
#     4   9  22  42  65 100 136 193 247 294 381 445
#     4  11  22  40  68 101 133 192 237 304 367 441
#     4  10  21  43  70  96 143 192 240 311 367 444
#     4  11  22  40  67 106 137 188 253 292 375 457
#     4   9  20  44  69  97 150 190 232 309 370 425
#     4  10  21  43  65  96 146 184 236 309 376 433
#
# _framework density 27.929773999999998
#
# number of rings (size 3 to 8) (size 9 to 14) (size 15 to 20)
#    0.000    2.000    1.667    1.000    2.333    1.333 
#   12.000   10.000    0.000    0.000    0.000    0.000 
#    0.000    0.000    0.000    0.000    0.000    0.000 
#
# Total GULP energy -268344.979181 kJ/mol
# GULP energy per Si atom -5590.520400 kJ/mol
# Density = 2.786620 g / cm^3
# Si number density = 27.929774 Si / 1000 Ang^3
#
#
#
# Elastic Constant Matrix: (Units=GPa)
#
#
# Indices 1 2 3 4 5 6 
#
# 1 135.2618 51.1300 47.7645 0.0000 0.0000 0.0000
# 2 51.1300 135.2618 47.7645 0.0000 0.0000 0.0000
# 3 47.7645 47.7645 130.4756 0.0000 0.0000 0.0000
# 4 0.0000 0.0000 0.0000 44.7259 0.0000 0.0000
# 5 0.0000 0.0000 0.0000 0.0000 44.7259 0.0000
# 6 0.0000 0.0000 0.0000 0.0000 0.0000 35.6913
#
#
#
# Elastic Compliance Matrix: (Units=1/GPa)
#
#
# Indices 1 2 3 4 5 6 
#
# 1 0.009245 -0.002641 -0.002418 0.000000 0.000000 0.000000
# 2 -0.002641 0.009245 -0.002418 0.000000 0.000000 0.000000
# 3 -0.002418 -0.002418 0.009434 0.000000 0.000000 0.000000
# 4 0.000000 0.000000 0.000000 0.022358 0.000000 0.000000
# 5 0.000000 0.000000 0.000000 0.000000 0.022358 0.000000
# 6 0.000000 0.000000 0.000000 0.000000 0.000000 0.028018
#
#
# Mechanical properties :
#
#
# Convention : Reuss Voigt Hill
#
# Bulk Modulus (GPa) = 77.08873 77.14635 77.11754
# Shear Modulus (GPa) = 41.68888 41.98462 41.83675
#
# Velocity S-wave (km/s) = 3.86765 3.88135 3.87450
# Velocity P-wave (km/s) = 6.89970 6.91144 6.90557
#
# Compressibility (1/GPa) = 0.01297206
#
# Stress axis : x y z
#
# Youngs Moduli (GPa) = 108.16524 108.16524 105.99544
#
# Poissons Ratio (x) = 0.28566 0.25626
# Poissons Ratio (y) = 0.28566 0.25626
# Poissons Ratio (z) = 0.26150 0.26150
#
# Static dielectric constant tensor:
#      x y z
#    x 2.165690 0.000000 0.000000 
#    y 0.000000 2.165690 0.000000 
#    z 0.000000 0.000000 2.257710 
# 
# From -- ./inp_files/4504.got.cif
#   From: 2010.05.17/outbox.cif.g08.bks.cpg/sg92_3_cif.got.tgz:4504.got - 2010.06.03 19:35:17.
