data_PCOD9549805
_publ_section_title
;
Structure prediction by ZEFSAII (Michael W. Deem and Ramdas Pophale) SiO2 
 PCOD9549805
Probable space group: P 42 2 2
;
_chemical_formula_sum "Si O2"
_cell_formula_units_Z 44
_cell_length_a 8.735548
_cell_length_b 8.735548
_cell_length_c 28.328751
_cell_angle_alpha 90.000000
_cell_angle_beta 90.000000
_cell_angle_gamma 90.000000
_cell_volume 2161.761291
_symmetry_space_group_name_H-M "P 42 2 2"
_symmetry_group_IT_number 93
_symmetry_cell_setting 'tetragonal'
loop_
_space_group_symop_operation_xyz
x,y,z
-y,x,1/2+z
-x,-y,z
y,-x,1/2+z
x,-y,-z
-x,y,-z
y,x,1/2-z
-y,-x,1/2-z
loop_
_atom_site_type_symbol
_atom_site_label
_atom_site_fract_x
_atom_site_fract_y
_atom_site_fract_z
Si Si1 0.648175 0.391905 0.435530
Si Si2 0.676086 0.808001 0.108752
Si Si3 0.000000 0.500000 0.673527
Si Si4 0.494451 0.749473 0.747261
Si Si5 0.180061 0.824060 0.509888
Si Si6 0.824838 0.496803 0.858596
O O1 0.500000 0.500000 0.446518
O O2 0.769450 0.511833 0.414673
O O3 0.717571 0.293840 0.478905
O O4 0.601174 0.276190 0.393539
O O5 0.644297 0.955075 0.140744
O O6 0.738325 0.666230 0.138771
O O7 0.790743 0.810956 0.065177
O O8 0.858099 0.523280 0.708364
O O9 0.610959 0.610959 0.750000
O O10 0.324827 0.675174 0.750000
O O11 0.532032 0.825313 0.696936
O O12 0.000000 0.802093 0.500000
O O13 0.223686 0.000000 0.500000
O O14 0.000000 0.500000 0.875570
#
# Coordination Sequence:
#
# PCOD9549805 Si02
#       6
#     8   8   4   8   8   8
#     4  10  23  41  64  97 130 172 230 283 336 401
#     4  11  23  38  65  94 126 172 225 279 337 407
#     4  12  22  40  67 100 132 169 222 284 340 406
#     4  11  23  40  65  93 131 173 224 273 337 400
#     4  11  24  43  64  93 135 182 221 280 353 425
#     4  11  22  39  62  93 130 175 221 280 342 410
#
# _framework density 20.353771999999999
#
# number of rings (size 3 to 8) (size 9 to 14) (size 15 to 20)
#    0.000    1.091    2.727    3.818    5.091    5.818 
#    0.000    4.545    0.000    6.000    0.000    0.000 
#    0.000    0.000    0.000    0.000    0.000    0.000 
#
# Total GULP energy -245643.018920 kJ/mol
# GULP energy per Si atom -5582.795885 kJ/mol
# Density = 2.030745 g / cm^3
# Si number density = 20.353772 Si / 1000 Ang^3
#
#
#
# Elastic Constant Matrix: (Units=GPa)
#
#
# Indices 1 2 3 4 5 6 
#
# 1 88.4738 23.1541 41.4656 0.0000 0.0000 0.0000
# 2 23.1541 88.4732 41.4655 0.0000 0.0000 0.0000
# 3 41.4656 41.4655 139.6620 0.0000 0.0000 0.0000
# 4 0.0000 0.0000 0.0000 -0.6898 0.0000 0.0000
# 5 0.0000 0.0000 0.0000 0.0000 -0.6899 0.0000
# 6 0.0000 0.0000 0.0000 0.0000 0.0000 18.2802
#
#
#
# Elastic Compliance Matrix: (Units=1/GPa)
#
#
# Indices 1 2 3 4 5 6 
#
# 1 0.013401 -0.001908 -0.003412 0.000000 0.000000 0.000000
# 2 -0.001908 0.013402 -0.003412 0.000000 0.000000 0.000000
# 3 -0.003412 -0.003412 0.009186 0.000000 0.000000 0.000000
# 4 0.000000 0.000000 0.000000 -1.449733 0.000000 0.000000
# 5 0.000000 0.000000 0.000000 0.000000 -1.449386 0.000000
# 6 0.000000 0.000000 0.000000 0.000000 0.000000 0.054704
#
#
# Mechanical properties :
#
#
# Convention : Reuss Voigt Hill
#
# Bulk Modulus (GPa) = 53.98454 58.75325 56.36890
# Shear Modulus (GPa) = -1.79547 17.41501 7.80977
#
# Velocity S-wave (km/s) = -0.94024 2.92826 1.96095
# Velocity P-wave (km/s) = 5.04004 6.35308 5.73427
#
# Compressibility (1/GPa) = 0.01852382
#
# Stress axis : x y z
#
# Youngs Moduli (GPa) = 74.61904 74.61842 108.85615
#
# Poissons Ratio (x) = 0.14237 0.37146
# Poissons Ratio (y) = 0.14237 0.37146
# Poissons Ratio (z) = 0.25463 0.25463
#
# Static dielectric constant tensor:
#      x y z
#    x 1.748060 0.000000 0.000000 
#    y 0.000000 1.748060 0.000000 
#    z 0.000000 0.000000 1.821800 
# 
# From -- ./inp_files/7681.got.cif
#   From: 2010.05.17/outbox.cif.g08.bks.cpg/sg93_4_cif.got.tgz:7681.got - 2010.06.03 19:38:44.
