data_PCOD9549976
_publ_section_title
;
Structure prediction by ZEFSAII (Michael W. Deem and Ramdas Pophale) SiO2 
 PCOD9549976
Probable space group: P 42 21 2
;
_chemical_formula_sum "Si O2"
_cell_formula_units_Z 60
_cell_length_a 14.080481
_cell_length_b 14.080481
_cell_length_c 14.532006
_cell_angle_alpha 90.000000
_cell_angle_beta 90.000000
_cell_angle_gamma 90.000000
_cell_volume 2881.114713
_symmetry_space_group_name_H-M "P 42 21 2"
_symmetry_group_IT_number 94
_symmetry_cell_setting 'tetragonal'
loop_
_space_group_symop_operation_xyz
x,y,z
1/2-y,1/2+x,1/2+z
-x,-y,z
1/2+y,1/2-x,1/2+z
1/2+x,1/2-y,1/2-z
1/2-x,1/2+y,1/2-z
y,x,-z
-y,-x,-z
loop_
_atom_site_type_symbol
_atom_site_label
_atom_site_fract_x
_atom_site_fract_y
_atom_site_fract_z
Si Si1 0.105116 0.973431 0.702215
Si Si2 0.103961 0.896040 0.500000
Si Si3 0.744492 0.851107 0.927010
Si Si4 0.219077 0.168535 0.721216
Si Si5 0.230728 0.909547 0.213117
Si Si6 0.307458 0.456161 0.490980
Si Si7 0.301037 0.957046 0.410213
Si Si8 0.334924 0.793385 0.939677
O O1 0.093335 0.956801 0.592902
O O2 0.130641 0.872973 0.752294
O O3 0.176711 0.062498 0.711437
O O4 0.000000 0.000000 0.738729
O O5 0.207701 0.921644 0.463260
O O6 0.779283 0.813408 0.829370
O O7 0.631950 0.871251 0.920548
O O8 0.796516 0.946221 0.956797
O O9 0.771854 0.771854 0.000000
O O10 0.327137 0.192348 0.691055
O O11 0.165204 0.246933 0.661497
O O12 0.271797 0.962366 0.302491
O O13 0.215938 0.964317 0.117632
O O14 0.410808 0.410808 0.500000
O O15 0.237216 0.378622 0.538794
O O16 0.327209 0.057707 0.453238
O O17 0.295416 0.704585 0.000000
#
# Coordination Sequence:
#
# PCOD9549976 Si02
#       8
#     8   4   8   8   8   8   8   8
#     4  11  23  37  66 101 135 169 223 283 339 398
#     4  10  19  36  60  98 135 166 212 278 339 388
#     4  11  26  43  66  95 138 179 221 271 338 391
#     4  11  22  41  65  95 131 176 215 275 333 392
#     4  10  22  41  62  96 136 170 226 268 332 399
#     4  11  23  44  66  97 131 178 222 273 315 408
#     4  10  22  40  64  94 135 170 213 281 328 397
#     4  11  22  41  70  98 127 174 225 272 335 394
#
# _framework density 20.825271000000001
#
# number of rings (size 3 to 8) (size 9 to 14) (size 15 to 20)
#    0.000    1.333    3.333    3.400    3.733    0.800 
#    0.000    0.000    0.000    1.600    0.000    0.000 
#    0.000    0.000    0.000    0.000    0.000    0.000 
#
# Total GULP energy -334602.917266 kJ/mol
# GULP energy per Si atom -5576.715288 kJ/mol
# Density = 2.077787 g / cm^3
# Si number density = 20.825271 Si / 1000 Ang^3
#
#
#
# Elastic Constant Matrix: (Units=GPa)
#
#
# Indices 1 2 3 4 5 6 
#
# 1 80.5987 11.7305 14.1215 0.0000 0.0000 0.0000
# 2 11.7305 80.5976 14.1222 0.0000 0.0000 0.0000
# 3 14.1215 14.1222 78.9427 0.0000 0.0000 0.0000
# 4 0.0000 0.0000 0.0000 20.0771 0.0000 0.0000
# 5 0.0000 0.0000 0.0000 0.0000 20.0774 0.0000
# 6 0.0000 0.0000 0.0000 0.0000 0.0000 19.4790
#
#
#
# Elastic Compliance Matrix: (Units=1/GPa)
#
#
# Indices 1 2 3 4 5 6 
#
# 1 0.012989 -0.001531 -0.002050 0.000000 0.000000 0.000000
# 2 -0.001531 0.012989 -0.002050 0.000000 0.000000 0.000000
# 3 -0.002050 -0.002050 0.013401 0.000000 0.000000 0.000000
# 4 0.000000 0.000000 0.000000 0.049808 0.000000 0.000000
# 5 0.000000 0.000000 0.000000 0.000000 0.049807 0.000000
# 6 0.000000 0.000000 0.000000 0.000000 0.000000 0.051337
#
#
# Mechanical properties :
#
#
# Convention : Reuss Voigt Hill
#
# Bulk Modulus (GPa) = 35.56464 35.56526 35.56495
# Shear Modulus (GPa) = 23.70052 25.27102 24.48577
#
# Velocity S-wave (km/s) = 3.37718 3.48728 3.43267
# Velocity P-wave (km/s) = 5.68523 5.77320 5.72938
#
# Compressibility (1/GPa) = 0.02811781
#
# Stress axis : x y z
#
# Youngs Moduli (GPa) = 76.98746 76.98612 74.62273
#
# Poissons Ratio (x) = 0.11789 0.15295
# Poissons Ratio (y) = 0.11790 0.15296
# Poissons Ratio (z) = 0.15779 0.15780
#
# Static dielectric constant tensor:
#      x y z
#    x 1.778390 0.000000 0.000000 
#    y 0.000000 1.778400 0.000000 
#    z 0.000000 0.000000 1.762950 
# 
# From -- ./inp_files/3609.got.cif
#   From: 2010.05.17/outbox.cif.g08.bks.cpg/sg94_2_cif.got.tgz:3609.got - 2010.06.03 19:43:16.
