data_PCOD9549164
_publ_section_title
;
Structure prediction by ZEFSAII (Michael W. Deem and Ramdas Pophale) SiO2 
 PCOD9549164
Probable space group: P 41 21 2
;
_chemical_formula_sum "Si O2"
_cell_formula_units_Z 40
_cell_length_a 8.424586
_cell_length_b 8.424586
_cell_length_c 24.368247
_cell_angle_alpha 90.000000
_cell_angle_beta 90.000000
_cell_angle_gamma 90.000000
_cell_volume 1729.503416
_symmetry_space_group_name_H-M "P 41 21 2"
_symmetry_group_IT_number 92
_symmetry_cell_setting 'tetragonal'
loop_
_space_group_symop_operation_xyz
x,y,z
1/2-y,1/2+x,1/4+z
-x,-y,1/2+z
1/2+y,1/2-x,3/4+z
1/2+x,1/2-y,3/4-z
1/2-x,1/2+y,1/4-z
y,x,-z
-y,-x,1/2-z
loop_
_atom_site_type_symbol
_atom_site_label
_atom_site_fract_x
_atom_site_fract_y
_atom_site_fract_z
Si Si1 0.378825 0.149612 0.304156
Si Si2 0.006894 0.816641 0.043488
Si Si3 0.245262 0.292845 0.941804
Si Si4 0.544934 0.399005 0.893430
Si Si5 0.694313 0.754523 0.092331
O O1 0.371837 0.214939 0.242089
O O2 0.562225 0.161673 0.326036
O O3 0.271676 0.258253 0.344070
O O4 0.326259 0.968882 0.308045
O O5 0.854654 0.710163 0.059639
O O6 0.944355 0.944355 0.000000
O O7 0.052891 0.913755 0.097252
O O8 0.434925 0.307047 0.935981
O O9 0.172434 0.201272 0.890391
O O10 0.210824 0.210824 0.000000
O O11 0.637015 0.548792 0.918325
#
# Coordination Sequence:
#
# PCOD9549164 Si02
#       5
#     8   8   8   8   8
#     4  11  23  44  72 108 137 187 236 300 355 438
#     4  10  21  41  70 101 132 180 239 280 353 425
#     4  12  29  46  69 109 146 189 242 302 377 420
#     4  12  25  49  69 102 148 188 237 300 355 432
#     4  11  21  43  76 101 140 189 241 287 354 431
#
# _framework density 23.128025999999998
#
# number of rings (size 3 to 8) (size 9 to 14) (size 15 to 20)
#    0.000    0.800    6.000    1.800    2.800    4.000 
#    3.600    0.000    0.000    0.000    0.000    0.000 
#    0.000    0.000    0.000    0.000    0.000    0.000 
#
# Total GULP energy -223680.816969 kJ/mol
# GULP energy per Si atom -5592.020424 kJ/mol
# Density = 2.307539 g / cm^3
# Si number density = 23.128026 Si / 1000 Ang^3
#
#
#
# Elastic Constant Matrix: (Units=GPa)
#
#
# Indices 1 2 3 4 5 6 
#
# 1 69.9341 38.7824 13.4198 0.0000 0.0000 0.0000
# 2 38.7824 69.9341 13.4198 0.0000 0.0000 0.0000
# 3 13.4198 13.4198 62.3123 0.0000 0.0000 0.0000
# 4 0.0000 0.0000 0.0000 40.3423 0.0000 0.0000
# 5 0.0000 0.0000 0.0000 0.0000 40.3423 0.0000
# 6 0.0000 0.0000 0.0000 0.0000 0.0000 57.5419
#
#
#
# Elastic Compliance Matrix: (Units=1/GPa)
#
#
# Indices 1 2 3 4 5 6 
#
# 1 0.020908 -0.011193 -0.002092 0.000000 0.000000 0.000000
# 2 -0.011193 0.020908 -0.002092 0.000000 0.000000 0.000000
# 3 -0.002092 -0.002092 0.016949 0.000000 0.000000 0.000000
# 4 0.000000 0.000000 0.000000 0.024788 0.000000 0.000000
# 5 0.000000 0.000000 0.000000 0.000000 0.024788 0.000000
# 6 0.000000 0.000000 0.000000 0.000000 0.000000 0.017379
#
#
# Mechanical properties :
#
#
# Convention : Reuss Voigt Hill
#
# Bulk Modulus (GPa) = 35.70147 37.04717 36.37432
# Shear Modulus (GPa) = 30.15477 36.74921 33.45199
#
# Velocity S-wave (km/s) = 3.61476 3.99048 3.80726
# Velocity P-wave (km/s) = 5.73515 6.10615 5.92355
#
# Compressibility (1/GPa) = 0.02801005
#
# Stress axis : x y z
#
# Youngs Moduli (GPa) = 47.82886 47.82886 58.99928
#
# Poissons Ratio (x) = 0.53535 0.12344
# Poissons Ratio (y) = 0.53535 0.12344
# Poissons Ratio (z) = 0.10007 0.10007
#
# Static dielectric constant tensor:
#      x y z
#    x 1.866470 0.000000 0.000000 
#    y 0.000000 1.866470 0.000000 
#    z 0.000000 0.000000 1.916530 
# 
# From -- ./inp_files/3752.got.cif
#   From: 2010.05.17/outbox.cif.g08.bks.cpg/sg92_2_cif.got.tgz:3752.got - 2010.06.03 19:35:17.
