data_PCOD9549998
_publ_section_title
;
Structure prediction by ZEFSAII (Michael W. Deem and Ramdas Pophale) SiO2 
 PCOD9549998
Probable space group: P 42 21 2
;
_chemical_formula_sum "Si O2"
_cell_formula_units_Z 48
_cell_length_a 8.339439
_cell_length_b 8.339439
_cell_length_c 32.474716
_cell_angle_alpha 90.000000
_cell_angle_beta 90.000000
_cell_angle_gamma 90.000000
_cell_volume 2258.494485
_symmetry_space_group_name_H-M "P 42 21 2"
_symmetry_group_IT_number 94
_symmetry_cell_setting 'tetragonal'
loop_
_space_group_symop_operation_xyz
x,y,z
1/2-y,1/2+x,1/2+z
-x,-y,z
1/2+y,1/2-x,1/2+z
1/2+x,1/2-y,1/2-z
1/2-x,1/2+y,1/2-z
y,x,-z
-y,-x,-z
loop_
_atom_site_type_symbol
_atom_site_label
_atom_site_fract_x
_atom_site_fract_y
_atom_site_fract_z
Si Si1 0.886150 0.775639 0.220448
Si Si2 0.747689 0.625119 0.298826
Si Si3 0.822555 0.442568 0.883233
Si Si4 0.000000 0.500000 0.582187
Si Si5 0.000000 0.000000 0.100574
Si Si6 0.205833 0.708009 0.638523
Si Si7 0.206815 0.770308 0.048493
O O1 0.863951 0.707313 0.265723
O O2 0.817861 0.658148 0.185763
O O3 0.071191 0.803780 0.209235
O O4 0.782030 0.937832 0.212256
O O5 0.819579 0.655308 0.344454
O O6 0.739271 0.606457 0.869173
O O7 0.738854 0.359997 0.922373
O O8 0.000000 0.500000 0.895816
O O9 0.066325 0.641452 0.610311
O O10 0.141282 0.430710 0.555671
O O11 0.091879 0.138415 0.127246
O O12 0.865885 0.071705 0.070255
O O13 0.229523 0.770477 0.000000
#
# Coordination Sequence:
#
# PCOD9549998 Si02
#       7
#     8   8   8   4   4   8   8
#     4  11  23  40  63  95 135 173 225 277 322 405
#     4  11  24  40  64  98 131 175 225 276 337 392
#     4  12  23  42  72  96 132 184 225 279 338 413
#     4  10  26  44  64  98 134 170 214 288 340 412
#     4  10  19  40  68  98 132 182 228 276 323 408
#     4  11  22  42  68  96 134 177 223 271 339 397
#     4  11  24  42  68 100 136 173 229 279 349 409
#
# _framework density 21.253098000000001
#
# number of rings (size 3 to 8) (size 9 to 14) (size 15 to 20)
#    0.000    1.000    3.333    4.250    1.167    3.333 
#    0.000    1.667    0.000    0.000    0.000    0.000 
#    0.000    0.000    0.000    0.000    0.000    0.000 
#
# Total GULP energy -268188.226961 kJ/mol
# GULP energy per Si atom -5587.254728 kJ/mol
# Density = 2.120473 g / cm^3
# Si number density = 21.253098 Si / 1000 Ang^3
#
#
#
# Elastic Constant Matrix: (Units=GPa)
#
#
# Indices 1 2 3 4 5 6 
#
# 1 60.2963 5.1452 25.1114 0.0000 0.0000 0.0000
# 2 5.1452 60.2965 25.1115 0.0000 0.0000 0.0000
# 3 25.1114 25.1115 157.8115 0.0000 0.0000 0.0000
# 4 0.0000 0.0000 0.0000 1.9649 0.0000 0.0000
# 5 0.0000 0.0000 0.0000 0.0000 1.9642 0.0000
# 6 0.0000 0.0000 0.0000 0.0000 0.0000 24.0530
#
#
#
# Elastic Compliance Matrix: (Units=1/GPa)
#
#
# Indices 1 2 3 4 5 6 
#
# 1 0.017769 -0.000363 -0.002770 0.000000 0.000000 0.000000
# 2 -0.000363 0.017769 -0.002770 0.000000 0.000000 0.000000
# 3 -0.002770 -0.002770 0.007218 0.000000 0.000000 0.000000
# 4 0.000000 0.000000 0.000000 0.508932 0.000000 0.000000
# 5 0.000000 0.000000 0.000000 0.000000 0.509126 0.000000
# 6 0.000000 0.000000 0.000000 0.000000 0.000000 0.041575
#
#
# Mechanical properties :
#
#
# Convention : Reuss Voigt Hill
#
# Bulk Modulus (GPa) = 32.30811 43.23783 37.77297
# Shear Modulus (GPa) = 4.44638 20.46550 12.45594
#
# Velocity S-wave (km/s) = 1.44798 3.10650 2.42353
# Velocity P-wave (km/s) = 4.24619 5.76676 5.06387
#
# Compressibility (1/GPa) = 0.03095198
#
# Stress axis : x y z
#
# Youngs Moduli (GPa) = 56.27707 56.27717 138.53981
#
# Poissons Ratio (x) = 0.02041 0.38372
# Poissons Ratio (y) = 0.02041 0.38372
# Poissons Ratio (z) = 0.15587 0.15587
#
# Static dielectric constant tensor:
#      x y z
#    x 1.784650 0.000000 0.000000 
#    y 0.000000 1.784650 0.000000 
#    z 0.000000 0.000000 1.752250 
# 
# From -- ./inp_files/5649.got.cif
#   From: 2010.05.17/outbox.cif.g08.bks.cpg/sg94_3_cif.got.tgz:5649.got - 2010.06.03 19:43:16.
