data_PCOD9549595
_publ_section_title
;
Structure prediction by ZEFSAII (Michael W. Deem and Ramdas Pophale) SiO2 
 PCOD9549595
Probable space group: P 42 2 2
;
_chemical_formula_sum "Si O2"
_cell_formula_units_Z 20
_cell_length_a 8.366907
_cell_length_b 8.366907
_cell_length_c 12.357609
_cell_angle_alpha 90.000000
_cell_angle_beta 90.000000
_cell_angle_gamma 90.000000
_cell_volume 865.096058
_symmetry_space_group_name_H-M "P 42 2 2"
_symmetry_group_IT_number 93
_symmetry_cell_setting 'tetragonal'
loop_
_space_group_symop_operation_xyz
x,y,z
-y,x,1/2+z
-x,-y,z
y,-x,1/2+z
x,-y,-z
-x,y,-z
y,x,1/2-z
-y,-x,1/2-z
loop_
_atom_site_type_symbol
_atom_site_label
_atom_site_fract_x
_atom_site_fract_y
_atom_site_fract_z
Si Si1 0.000000 0.000000 0.500000
Si Si2 0.318910 0.563789 0.642042
Si Si3 0.754642 0.759083 0.573830
Si Si4 0.500000 0.000000 0.500000
O O1 0.101782 0.881850 0.425955
O O2 0.500000 0.500000 0.619364
O O3 0.333798 0.666203 0.750000
O O4 0.229836 0.393339 0.652029
O O5 0.256573 0.669721 0.543457
O O6 0.603068 0.878374 0.573551
#
# Coordination Sequence:
#
# PCOD9549595 Si02
#       4
#     2   8   8   2
#     4  10  24  36  66  86 136 176 190 254 346 400
#     4  10  19  35  65  92 114 155 222 273 292 359
#     4  10  19  38  60  92 122 163 209 251 324 378
#     4  10  16  32  60  82 124 154 192 258 296 384
#
# _framework density 23.118818999999998
#
# number of rings (size 3 to 8) (size 9 to 14) (size 15 to 20)
#    0.000    2.000    4.000    1.200    0.000    3.200 
#    0.000    5.000    0.000    0.000    0.000    0.000 
#    0.000    0.000    0.000    0.000    0.000    0.000 
#
# Total GULP energy -111587.622905 kJ/mol
# GULP energy per Si atom -5579.381145 kJ/mol
# Density = 2.306620 g / cm^3
# Si number density = 23.118819 Si / 1000 Ang^3
#
#
#
# Elastic Constant Matrix: (Units=GPa)
#
#
# Indices 1 2 3 4 5 6 
#
# 1 121.3686 55.7266 10.6917 0.0000 0.0000 0.0000
# 2 55.7266 121.3683 10.6915 0.0000 0.0000 0.0000
# 3 10.6917 10.6915 88.3578 0.0000 0.0000 0.0000
# 4 0.0000 0.0000 0.0000 11.5780 0.0000 0.0000
# 5 0.0000 0.0000 0.0000 0.0000 11.5784 0.0000
# 6 0.0000 0.0000 0.0000 0.0000 0.0000 38.6973
#
#
#
# Elastic Compliance Matrix: (Units=1/GPa)
#
#
# Indices 1 2 3 4 5 6 
#
# 1 0.010482 -0.004752 -0.000693 0.000000 0.000000 0.000000
# 2 -0.004752 0.010482 -0.000693 0.000000 0.000000 0.000000
# 3 -0.000693 -0.000693 0.011485 0.000000 0.000000 0.000000
# 4 0.000000 0.000000 0.000000 0.086370 0.000000 0.000000
# 5 0.000000 0.000000 0.000000 0.000000 0.086367 0.000000
# 6 0.000000 0.000000 0.000000 0.000000 0.000000 0.025842
#
#
# Mechanical properties :
#
#
# Convention : Reuss Voigt Hill
#
# Bulk Modulus (GPa) = 49.57207 53.92381 51.74794
# Shear Modulus (GPa) = 19.99752 29.30308 24.65030
#
# Velocity S-wave (km/s) = 2.94426 3.56406 3.26888
# Velocity P-wave (km/s) = 5.74866 6.34917 6.05636
#
# Compressibility (1/GPa) = 0.02017265
#
# Stress axis : x y z
#
# Youngs Moduli (GPa) = 95.39906 95.39880 87.06686
#
# Poissons Ratio (x) = 0.45332 0.06037
# Poissons Ratio (y) = 0.45333 0.06037
# Poissons Ratio (z) = 0.06615 0.06615
#
# Static dielectric constant tensor:
#      x y z
#    x 1.922420 0.000000 0.000000 
#    y 0.000000 1.922420 0.000000 
#    z 0.000000 0.000000 1.927860 
# 
# From -- ./inp_files/3699.got.cif
#   From: 2010.05.17/outbox.cif.g08.bks.cpg/sg93_2_cif.got.tgz:3699.got - 2010.06.03 19:38:44.
