data_PCOD9549156
_publ_section_title
;
Structure prediction by ZEFSAII (Michael W. Deem and Ramdas Pophale) SiO2 
 PCOD9549156
Probable space group: P 41 21 2
;
_chemical_formula_sum "Si O2"
_cell_formula_units_Z 60
_cell_length_a 16.954569
_cell_length_b 16.954569
_cell_length_c 9.396809
_cell_angle_alpha 90.000000
_cell_angle_beta 90.000000
_cell_angle_gamma 90.000000
_cell_volume 2701.182377
_symmetry_space_group_name_H-M "P 41 21 2"
_symmetry_group_IT_number 92
_symmetry_cell_setting 'tetragonal'
loop_
_space_group_symop_operation_xyz
x,y,z
1/2-y,1/2+x,1/4+z
-x,-y,1/2+z
1/2+y,1/2-x,3/4+z
1/2+x,1/2-y,3/4-z
1/2-x,1/2+y,1/4-z
y,x,-z
-y,-x,1/2-z
loop_
_atom_site_type_symbol
_atom_site_label
_atom_site_fract_x
_atom_site_fract_y
_atom_site_fract_z
Si Si1 0.297184 0.961931 0.799452
Si Si2 0.914172 0.748004 0.494268
Si Si3 0.606980 0.793623 0.488472
Si Si4 0.320438 0.265117 0.703889
Si Si5 0.836290 0.818734 0.256832
Si Si6 0.197027 0.941452 0.520845
Si Si7 0.045326 0.558040 0.364782
Si Si8 0.589656 0.410345 0.250000
O O1 0.293624 0.870966 0.852324
O O2 0.257340 0.971524 0.644968
O O3 0.247691 0.003624 0.924683
O O4 0.378756 0.012259 0.816149
O O5 0.864503 0.667518 0.469379
O O6 0.912083 0.785607 0.339464
O O7 0.861658 0.789981 0.616251
O O8 0.652248 0.743686 0.368604
O O9 0.575180 0.745921 0.623887
O O10 0.547062 0.847811 0.397194
O O11 0.227876 0.242972 0.697650
O O12 0.331396 0.356681 0.670821
O O13 0.865705 0.875402 0.135937
O O14 0.122764 0.999881 0.495153
O O15 0.033418 0.526833 0.208999
#
# Coordination Sequence:
#
# PCOD9549156 Si02
#       8
#     8   8   8   8   8   8   8   4
#     4  11  24  43  68 102 143 182 234 297 353 431
#     4   9  19  42  68  93 131 178 230 289 347 417
#     4  10  22  44  71 100 133 184 244 281 338 443
#     4  11  23  46  72  98 132 195 249 288 342 439
#     4  10  21  41  67  95 130 180 238 290 353 409
#     4  12  26  45  68 106 144 187 241 295 360 423
#     4  11  25  45  69 105 147 181 225 296 375 433
#     4  12  28  42  64 110 150 176 232 316 354 418
#
# _framework density 22.212495000000001
#
# number of rings (size 3 to 8) (size 9 to 14) (size 15 to 20)
#    0.000    1.333    4.000    0.800    5.600    0.000 
#    0.000    4.000    0.000    0.000    0.000    0.000 
#    0.000    0.000    0.000    0.000    0.000    0.000 
#
# Total GULP energy -334375.259912 kJ/mol
# GULP energy per Si atom -5572.920999 kJ/mol
# Density = 2.216194 g / cm^3
# Si number density = 22.212495 Si / 1000 Ang^3
#
#
#
# Elastic Constant Matrix: (Units=GPa)
#
#
# Indices 1 2 3 4 5 6 
#
# 1 -113.5240 178.8625 13.4045 0.0000 0.0000 0.0000
# 2 178.8625 -113.5133 13.4010 0.0000 0.0000 0.0000
# 3 13.4045 13.4010 88.2221 0.0000 0.0000 0.0000
# 4 0.0000 0.0000 0.0000 34.4041 0.0000 0.0000
# 5 0.0000 0.0000 0.0000 0.0000 34.4040 0.0000
# 6 0.0000 0.0000 0.0000 0.0000 0.0000 28.6307
#
#
#
# Elastic Compliance Matrix: (Units=1/GPa)
#
#
# Indices 1 2 3 4 5 6 
#
# 1 0.006450 0.009870 -0.002479 0.000000 0.000000 0.000000
# 2 0.009870 0.006451 -0.002480 0.000000 0.000000 0.000000
# 3 -0.002479 -0.002480 0.012088 0.000000 0.000000 0.000000
# 4 0.000000 0.000000 0.000000 0.029066 0.000000 0.000000
# 5 0.000000 0.000000 0.000000 0.000000 0.029066 0.000000
# 6 0.000000 0.000000 0.000000 0.000000 0.000000 0.034927
#
#
# Mechanical properties :
#
#
# Convention : Reuss Voigt Hill
#
# Bulk Modulus (GPa) = 28.72563 30.28009 29.50286
# Shear Modulus (GPa) = 41.72575 -3.47777 19.12399
#
# Velocity S-wave (km/s) = 4.33885 -1.25263 2.93739
# Velocity P-wave (km/s) = 6.16936 3.40140 4.98149
#
# Compressibility (1/GPa) = 0.03481212
#
# Stress axis : x y z
#
# Youngs Moduli (GPa) = 155.03935 155.02356 82.72399
#
# Poissons Ratio (x) = -1.53016 0.20510
# Poissons Ratio (y) = -1.53032 0.20512
# Poissons Ratio (z) = 0.38440 0.38439
#
# Static dielectric constant tensor:
#      x y z
#    x 1.934280 0.000000 0.000000 
#    y 0.000000 1.934280 0.000000 
#    z 0.000000 0.000000 1.850560 
# 
# From -- ./inp_files/1634.got.cif
#   From: 2010.05.17/outbox.cif.g08.bks.cpg/sg92_1_cif.got.tgz:1634.got - 2010.06.03 19:35:17.
