data_PCOD9549669
_publ_section_title
;
Structure prediction by ZEFSAII (Michael W. Deem and Ramdas Pophale) SiO2 
 PCOD9549669
Probable space group: P 42 2 2
;
_chemical_formula_sum "Si O2"
_cell_formula_units_Z 48
_cell_length_a 14.208276
_cell_length_b 14.208276
_cell_length_c 10.242191
_cell_angle_alpha 90.000000
_cell_angle_beta 90.000000
_cell_angle_gamma 90.000000
_cell_volume 2067.643403
_symmetry_space_group_name_H-M "P 42 2 2"
_symmetry_group_IT_number 93
_symmetry_cell_setting 'tetragonal'
loop_
_space_group_symop_operation_xyz
x,y,z
-y,x,1/2+z
-x,-y,z
y,-x,1/2+z
x,-y,-z
-x,y,-z
y,x,1/2-z
-y,-x,1/2-z
loop_
_atom_site_type_symbol
_atom_site_label
_atom_site_fract_x
_atom_site_fract_y
_atom_site_fract_z
Si Si1 0.843301 0.096491 0.935843
Si Si2 0.135057 0.426211 0.222211
Si Si3 0.978485 0.244756 0.832324
Si Si4 0.806655 0.353650 0.504000
Si Si5 0.631435 0.152612 0.300093
Si Si6 0.602572 0.696656 0.471584
O O1 0.925486 0.172238 0.926546
O O2 0.802491 0.054674 0.801708
O O3 0.752389 0.151594 0.990231
O O4 0.876531 0.000000 0.000000
O O5 0.074169 0.344290 0.157729
O O6 0.138604 0.408741 0.379329
O O7 0.102780 0.530166 0.183784
O O8 0.237284 0.411389 0.155269
O O9 0.086385 0.278082 0.822613
O O10 0.816548 0.376467 0.351344
O O11 0.697110 0.362762 0.542979
O O12 0.628399 0.236564 0.404234
O O13 0.500000 0.652263 0.500000
#
# Coordination Sequence:
#
# PCOD9549669 Si02
#       6
#     8   8   8   8   8   8
#     4  10  19  36  62  94 127 177 233 271 348 417
#     4  10  21  37  61  94 132 177 222 280 361 429
#     4  10  20  35  60  94 132 175 220 292 346 413
#     4  11  20  39  63  93 131 180 221 290 347 417
#     4  11  22  36  61  99 132 169 232 291 351 413
#     4  10  22  39  61  93 128 173 227 281 353 430
#
# _framework density 23.214835999999998
#
# number of rings (size 3 to 8) (size 9 to 14) (size 15 to 20)
#    0.000    1.667    3.333    2.000    0.000    0.667 
#    0.000    4.167    0.000    4.000    8.667    9.333 
#    0.000    0.000    0.000    0.000    0.000    0.000 
#
# Total GULP energy -267733.967025 kJ/mol
# GULP energy per Si atom -5577.790980 kJ/mol
# Density = 2.316200 g / cm^3
# Si number density = 23.214836 Si / 1000 Ang^3
#
#
#
# Elastic Constant Matrix: (Units=GPa)
#
#
# Indices 1 2 3 4 5 6 
#
# 1 88.7296 26.8051 -0.1073 0.0000 0.0000 0.0000
# 2 26.8051 88.7296 -0.1073 0.0000 0.0000 0.0000
# 3 -0.1073 -0.1073 78.8184 0.0000 0.0000 0.0000
# 4 0.0000 0.0000 0.0000 26.1489 0.0000 0.0000
# 5 0.0000 0.0000 0.0000 0.0000 26.1489 0.0000
# 6 0.0000 0.0000 0.0000 0.0000 0.0000 220.1413
#
#
#
# Elastic Compliance Matrix: (Units=1/GPa)
#
#
# Indices 1 2 3 4 5 6 
#
# 1 0.012402 -0.003747 0.000012 0.000000 0.000000 0.000000
# 2 -0.003747 0.012402 0.000012 0.000000 0.000000 0.000000
# 3 0.000012 0.000012 0.012687 0.000000 0.000000 0.000000
# 4 0.000000 0.000000 0.000000 0.038243 0.000000 0.000000
# 5 0.000000 0.000000 0.000000 0.000000 0.038243 0.000000
# 6 0.000000 0.000000 0.000000 0.000000 0.000000 0.004543
#
#
# Mechanical properties :
#
#
# Convention : Reuss Voigt Hill
#
# Bulk Modulus (GPa) = 33.28293 34.38428 33.83360
# Shear Modulus (GPa) = 36.76999 69.80028 53.28514
#
# Velocity S-wave (km/s) = 3.98414 5.48930 4.79613
# Velocity P-wave (km/s) = 5.96092 7.41755 6.72877
#
# Compressibility (1/GPa) = 0.03004543
#
# Stress axis : x y z
#
# Youngs Moduli (GPa) = 80.63173 80.63173 78.81818
#
# Poissons Ratio (x) = 0.30210 -0.00093
# Poissons Ratio (y) = 0.30210 -0.00093
# Poissons Ratio (z) = -0.00095 -0.00095
#
# Static dielectric constant tensor:
#      x y z
#    x 1.863170 0.000000 0.000000 
#    y 0.000000 1.863170 0.000000 
#    z 0.000000 0.000000 1.945960 
# 
# From -- ./inp_files/3400.got.cif
#   From: 2010.05.17/outbox.cif.g08.bks.cpg/sg93_2_cif.got.tgz:3400.got - 2010.06.03 19:38:44.
