data_PCOD9549296
_publ_section_title
;
Structure prediction by ZEFSAII (Michael W. Deem and Ramdas Pophale) SiO2 
 PCOD9549296
Probable space group: P 41 21 2
;
_chemical_formula_sum "Si O2"
_cell_formula_units_Z 24
_cell_length_a 11.433704
_cell_length_b 11.433704
_cell_length_c 7.487878
_cell_angle_alpha 90.000000
_cell_angle_beta 90.000000
_cell_angle_gamma 90.000000
_cell_volume 978.887200
_symmetry_space_group_name_H-M "P 41 21 2"
_symmetry_group_IT_number 92
_symmetry_cell_setting 'tetragonal'
loop_
_space_group_symop_operation_xyz
x,y,z
1/2-y,1/2+x,1/4+z
-x,-y,1/2+z
1/2+y,1/2-x,3/4+z
1/2+x,1/2-y,3/4-z
1/2-x,1/2+y,1/4-z
y,x,-z
-y,-x,1/2-z
loop_
_atom_site_type_symbol
_atom_site_label
_atom_site_fract_x
_atom_site_fract_y
_atom_site_fract_z
Si Si1 0.487398 0.160225 0.519594
Si Si2 0.596329 0.404060 0.034241
Si Si3 0.142271 0.572187 0.044696
O O1 0.162785 0.393601 0.639825
O O2 0.533773 0.289068 0.545779
O O3 0.944997 0.387409 0.703785
O O4 0.914322 0.405669 0.073993
O O5 0.485003 0.485003 0.000000
O O6 0.580177 0.279543 0.939383
O O7 0.888966 0.888966 0.000000
#
# Coordination Sequence:
#
# PCOD9549296 Si02
#       3
#     8   8   8
#     4  10  22  44  75  98 136 186 229 280 354 409
#     4  12  26  47  68 106 144 180 232 292 341 411
#     4  10  22  48  71 100 138 182 235 281 348 413
#
# _framework density 24.517637000000001
#
# number of rings (size 3 to 8) (size 9 to 14) (size 15 to 20)
#    0.000    1.333    6.667    0.000    4.667    0.000 
#   42.000    0.000    0.000    0.000    0.000    0.000 
#    0.000    0.000    0.000    0.000    0.000    0.000 
#
# Total GULP energy -134000.562481 kJ/mol
# GULP energy per Si atom -5583.356770 kJ/mol
# Density = 2.446183 g / cm^3
# Si number density = 24.517637 Si / 1000 Ang^3
#
#
#
# Elastic Constant Matrix: (Units=GPa)
#
#
# Indices 1 2 3 4 5 6 
#
# 1 185.9641 82.6762 20.7383 0.0000 0.0000 0.0000
# 2 82.6762 185.9641 20.7383 0.0000 0.0000 0.0000
# 3 20.7383 20.7383 188.0958 0.0000 0.0000 0.0000
# 4 0.0000 0.0000 0.0000 -78.0124 0.0000 0.0000
# 5 0.0000 0.0000 0.0000 0.0000 -78.0124 0.0000
# 6 0.0000 0.0000 0.0000 0.0000 0.0000 29.7663
#
#
#
# Elastic Compliance Matrix: (Units=1/GPa)
#
#
# Indices 1 2 3 4 5 6 
#
# 1 0.006734 -0.002947 -0.000418 0.000000 0.000000 0.000000
# 2 -0.002947 0.006734 -0.000418 0.000000 0.000000 0.000000
# 3 -0.000418 -0.000418 0.005409 0.000000 0.000000 0.000000
# 4 0.000000 0.000000 0.000000 -0.012818 0.000000 0.000000
# 5 0.000000 0.000000 0.000000 0.000000 -0.012818 0.000000
# 6 0.000000 0.000000 0.000000 0.000000 0.000000 0.033595
#
#
# Mechanical properties :
#
#
# Convention : Reuss Voigt Hill
#
# Bulk Modulus (GPa) = 88.39978 89.81440 89.10709
# Shear Modulus (GPa) = 130.99015 3.80640 67.39827
#
# Velocity S-wave (km/s) = 7.31730 1.24735 5.24875
# Velocity P-wave (km/s) = 10.36940 6.22789 8.55310
#
# Compressibility (1/GPa) = 0.01131224
#
# Stress axis : x y z
#
# Youngs Moduli (GPa) = 148.49366 148.49366 184.89397
#
# Poissons Ratio (x) = 0.43767 0.07720
# Poissons Ratio (y) = 0.43767 0.07720
# Poissons Ratio (z) = 0.06200 0.06200
#
# Static dielectric constant tensor:
#      x y z
#    x 1.953840 0.000000 0.000000 
#    y 0.000000 1.953840 0.000000 
#    z 0.000000 0.000000 2.163270 
# 
# From -- ./inp_files/1816.got.cif
#   From: 2010.05.17/outbox.cif.g08.bks.cpg/sg92_1_cif.got.tgz:1816.got - 2010.06.03 19:35:17.
