data_PCOD9549718
_publ_section_title
;
Structure prediction by ZEFSAII (Michael W. Deem and Ramdas Pophale) SiO2 
 PCOD9549718
Probable space group: P 42 2 2
;
_chemical_formula_sum "Si O2"
_cell_formula_units_Z 40
_cell_length_a 15.318988
_cell_length_b 15.318988
_cell_length_c 8.462322
_cell_angle_alpha 90.000000
_cell_angle_beta 90.000000
_cell_angle_gamma 90.000000
_cell_volume 1985.864895
_symmetry_space_group_name_H-M "P 42 2 2"
_symmetry_group_IT_number 93
_symmetry_cell_setting 'tetragonal'
loop_
_space_group_symop_operation_xyz
x,y,z
-y,x,1/2+z
-x,-y,z
y,-x,1/2+z
x,-y,-z
-x,y,-z
y,x,1/2-z
-y,-x,1/2-z
loop_
_atom_site_type_symbol
_atom_site_label
_atom_site_fract_x
_atom_site_fract_y
_atom_site_fract_z
Si Si1 0.036860 0.600938 0.677096
Si Si2 0.000000 0.000000 0.250000
Si Si3 0.289660 0.000000 0.500000
Si Si4 0.850393 0.000000 0.000000
Si Si5 0.348233 0.500000 0.500000
Si Si6 0.500000 0.500000 0.250000
Si Si7 0.813457 0.822599 0.563758
Si Si8 0.341268 0.238720 0.113494
O O1 0.142306 0.621755 0.667813
O O2 0.000000 0.500000 0.698161
O O3 0.000000 0.624820 0.500000
O O4 0.004356 0.654571 0.834590
O O5 0.914181 0.002630 0.147793
O O6 0.228685 0.913618 0.492589
O O7 0.804714 0.091482 0.990044
O O8 0.413231 0.502809 0.353091
O O9 0.286611 0.581504 0.525040
O O10 0.823626 0.823626 0.750000
O O11 0.762969 0.738836 0.507886
O O12 0.299661 0.299661 0.250000
#
# Coordination Sequence:
#
# PCOD9549718 Si02
#       8
#     8   2   4   4   4   2   8   8
#     4  11  25  49  76 109 152 202 250 312 380 459
#     4  10  20  38  60  86 124 186 240 302 352 410
#     4  12  25  47  70 110 154 194 264 311 371 458
#     4  11  24  40  60  91 132 186 246 293 358 415
#     4  11  24  50  75 112 142 184 239 308 392 461
#     4  10  24  46  80 106 144 174 228 310 384 470
#     4  12  28  43  69 102 145 200 250 314 368 446
#     4  12  26  48  74 108 151 192 251 316 382 460
#
# _framework density 20.142357000000001
#
# number of rings (size 3 to 8) (size 9 to 14) (size 15 to 20)
#    0.000    0.600    4.000    3.900    7.000    0.000 
#    0.000    0.000    0.000    0.000    0.000    0.000 
#    0.000    0.000    0.000    0.000    0.000    0.000 
#
# Total GULP energy -223137.727006 kJ/mol
# GULP energy per Si atom -5578.443175 kJ/mol
# Density = 2.009651 g / cm^3
# Si number density = 20.142357 Si / 1000 Ang^3
#
#
#
# Elastic Constant Matrix: (Units=GPa)
#
#
# Indices 1 2 3 4 5 6 
#
# 1 154.8185 86.3070 52.6746 0.0000 0.0000 0.0000
# 2 86.3070 154.8185 52.6746 0.0000 0.0000 0.0000
# 3 52.6746 52.6746 115.5542 0.0000 0.0000 0.0000
# 4 0.0000 0.0000 0.0000 31.2331 0.0000 0.0000
# 5 0.0000 0.0000 0.0000 0.0000 31.2331 0.0000
# 6 0.0000 0.0000 0.0000 0.0000 0.0000 27.9369
#
#
#
# Elastic Compliance Matrix: (Units=1/GPa)
#
#
# Indices 1 2 3 4 5 6 
#
# 1 0.009887 -0.004709 -0.002361 0.000000 0.000000 0.000000
# 2 -0.004709 0.009887 -0.002361 0.000000 0.000000 0.000000
# 3 -0.002361 -0.002361 0.010806 0.000000 0.000000 0.000000
# 4 0.000000 0.000000 0.000000 0.032017 0.000000 0.000000
# 5 0.000000 0.000000 0.000000 0.000000 0.032017 0.000000
# 6 0.000000 0.000000 0.000000 0.000000 0.000000 0.035795
#
#
# Mechanical properties :
#
#
# Convention : Reuss Voigt Hill
#
# Bulk Modulus (GPa) = 85.31857 89.83372 87.57615
# Shear Modulus (GPa) = 32.64194 33.64964 33.14579
#
# Velocity S-wave (km/s) = 4.02999 4.09172 4.06097
# Velocity P-wave (km/s) = 8.00651 8.18652 8.09701
#
# Compressibility (1/GPa) = 0.01172078
#
# Stress axis : x y z
#
# Youngs Moduli (GPa) = 101.13951 101.13951 92.54036
#
# Poissons Ratio (x) = 0.47624 0.21845
# Poissons Ratio (y) = 0.47624 0.21845
# Poissons Ratio (z) = 0.23875 0.23875
#
# Static dielectric constant tensor:
#      x y z
#    x 1.720080 0.000000 0.000000 
#    y 0.000000 1.720080 0.000000 
#    z 0.000000 0.000000 1.747790 
# 
# From -- ./inp_files/1945.got.cif
#   From: 2010.05.17/outbox.cif.g08.bks.cpg/sg93_1_cif.got.tgz:1945.got - 2010.06.03 19:38:44.
