data_PCOD9549776
_publ_section_title
;
Structure prediction by ZEFSAII (Michael W. Deem and Ramdas Pophale) SiO2 
 PCOD9549776
Probable space group: P 42 2 2
;
_chemical_formula_sum "Si O2"
_cell_formula_units_Z 48
_cell_length_a 8.751673
_cell_length_b 8.751673
_cell_length_c 30.581541
_cell_angle_alpha 90.000000
_cell_angle_beta 90.000000
_cell_angle_gamma 90.000000
_cell_volume 2342.294669
_symmetry_space_group_name_H-M "P 42 2 2"
_symmetry_group_IT_number 93
_symmetry_cell_setting 'tetragonal'
loop_
_space_group_symop_operation_xyz
x,y,z
-y,x,1/2+z
-x,-y,z
y,-x,1/2+z
x,-y,-z
-x,y,-z
y,x,1/2-z
-y,-x,1/2-z
loop_
_atom_site_type_symbol
_atom_site_label
_atom_site_fract_x
_atom_site_fract_y
_atom_site_fract_z
Si Si1 0.000000 0.500000 0.153655
Si Si2 0.758433 0.194529 0.610217
Si Si3 0.180098 0.823242 0.991607
Si Si4 0.788144 0.741346 0.800451
Si Si5 0.521870 0.182481 0.132876
Si Si6 0.000000 0.000000 0.660837
Si Si7 0.665682 0.585192 0.541796
O O1 0.088990 0.382285 0.122947
O O2 0.119480 0.592589 0.183613
O O3 0.778621 0.216301 0.558533
O O4 0.742983 0.354809 0.635184
O O5 0.907854 0.113495 0.629487
O O6 0.244659 0.689833 0.023530
O O7 0.000000 0.827942 0.000000
O O8 0.234901 0.000000 0.000000
O O9 0.742721 0.742721 0.750000
O O10 0.639556 0.765890 0.830398
O O11 0.902778 0.882195 0.810498
O O12 0.580218 0.240383 0.086015
O O13 0.500000 0.000000 0.133411
O O14 0.500000 0.500000 0.547455
O O15 0.739666 0.500000 0.500000
#
# Coordination Sequence:
#
# PCOD9549776 Si02
#       7
#     4   8   8   8   8   4   8
#     4  10  28  44  71 104 140 184 225 294 358 420
#     4  11  23  44  68 105 143 184 232 287 354 413
#     4  11  24  41  71 104 138 182 242 294 336 405
#     4  11  26  46  74 103 141 178 235 290 357 426
#     4  12  25  43  73 100 137 182 230 288 350 419
#     4  10  21  44  71 102 138 180 228 295 347 414
#     4  11  26  43  64  98 142 188 230 274 343 418
#
# _framework density 20.492723999999999
#
# number of rings (size 3 to 8) (size 9 to 14) (size 15 to 20)
#    0.000    1.000    3.333    2.250    8.167    0.000 
#    0.000    1.667    0.000    0.000    0.000    0.000 
#    0.000    0.000    0.000    0.000    0.000    0.000 
#
# Total GULP energy -268138.716898 kJ/mol
# GULP energy per Si atom -5586.223269 kJ/mol
# Density = 2.044608 g / cm^3
# Si number density = 20.492724 Si / 1000 Ang^3
#
#
#
# Elastic Constant Matrix: (Units=GPa)
#
#
# Indices 1 2 3 4 5 6 
#
# 1 102.7476 33.3556 62.6568 0.0000 0.0000 0.0000
# 2 33.3556 102.7476 62.6568 0.0000 0.0000 0.0000
# 3 62.6568 62.6568 171.9286 0.0000 0.0000 0.0000
# 4 0.0000 0.0000 0.0000 5.4750 0.0000 0.0000
# 5 0.0000 0.0000 0.0000 0.0000 5.4750 0.0000
# 6 0.0000 0.0000 0.0000 0.0000 0.0000 18.1226
#
#
#
# Elastic Compliance Matrix: (Units=1/GPa)
#
#
# Indices 1 2 3 4 5 6 
#
# 1 0.012734 -0.001677 -0.004030 0.000000 0.000000 0.000000
# 2 -0.001677 0.012734 -0.004030 0.000000 0.000000 0.000000
# 3 -0.004030 -0.004030 0.008754 0.000000 0.000000 0.000000
# 4 0.000000 0.000000 0.000000 0.182650 0.000000 0.000000
# 5 0.000000 0.000000 0.000000 0.000000 0.182650 0.000000
# 6 0.000000 0.000000 0.000000 0.000000 0.000000 0.055180
#
#
# Mechanical properties :
#
#
# Convention : Reuss Voigt Hill
#
# Bulk Modulus (GPa) = 67.79779 77.19581 72.49680
# Shear Modulus (GPa) = 10.43643 20.39814 15.41729
#
# Velocity S-wave (km/s) = 2.25916 3.15839 2.74584
# Velocity P-wave (km/s) = 6.32145 7.14509 6.74585
#
# Compressibility (1/GPa) = 0.01474974
#
# Stress axis : x y z
#
# Youngs Moduli (GPa) = 78.52803 78.52803 114.23892
#
# Poissons Ratio (x) = 0.13166 0.46036
# Poissons Ratio (y) = 0.13166 0.46036
# Poissons Ratio (z) = 0.31645 0.31645
#
# Static dielectric constant tensor:
#      x y z
#    x 1.800700 0.000000 0.000000 
#    y 0.000000 1.800700 0.000000 
#    z 0.000000 0.000000 1.680180 
# 
# From -- ./inp_files/7828.got.cif
#   From: 2010.05.17/outbox.cif.g08.bks.cpg/sg93_4_cif.got.tgz:7828.got - 2010.06.03 19:38:44.
