data_PCOD9549427
_publ_section_title
;
Structure prediction by ZEFSAII (Michael W. Deem and Ramdas Pophale) SiO2 
 PCOD9549427
Probable space group: P 41 21 2
;
_chemical_formula_sum "Si O2"
_cell_formula_units_Z 32
_cell_length_a 12.224457
_cell_length_b 12.224457
_cell_length_c 8.128862
_cell_angle_alpha 90.000000
_cell_angle_beta 90.000000
_cell_angle_gamma 90.000000
_cell_volume 1214.755587
_symmetry_space_group_name_H-M "P 41 21 2"
_symmetry_group_IT_number 92
_symmetry_cell_setting 'tetragonal'
loop_
_space_group_symop_operation_xyz
x,y,z
1/2-y,1/2+x,1/4+z
-x,-y,1/2+z
1/2+y,1/2-x,3/4+z
1/2+x,1/2-y,3/4-z
1/2-x,1/2+y,1/4-z
y,x,-z
-y,-x,1/2-z
loop_
_atom_site_type_symbol
_atom_site_label
_atom_site_fract_x
_atom_site_fract_y
_atom_site_fract_z
Si Si1 0.955004 0.877783 0.819895
Si Si2 0.800682 0.538419 0.267867
Si Si3 0.452434 0.127145 0.660103
Si Si4 0.754105 0.942324 0.658522
O O1 0.854220 0.860173 0.694273
O O2 0.040859 0.780920 0.862387
O O3 0.903533 0.903533 0.000000
O O4 0.020714 0.979287 0.750000
O O5 0.736791 0.524472 0.437878
O O6 0.876647 0.641656 0.306095
O O7 0.865020 0.424689 0.219374
O O8 0.561911 0.082788 0.574630
O O9 0.486230 0.242475 0.742655
#
# Coordination Sequence:
#
# PCOD9549427 Si02
#       4
#     8   8   8   8
#     4  10  26  47  64  92 137 176 216 273 334 406
#     4  11  21  40  68  93 127 174 220 264 331 392
#     4  12  18  34  63  98 128 156 213 284 315 376
#     4  11  21  41  66  96 132 170 218 274 330 382
#
# _framework density 26.342746999999999
#
# number of rings (size 3 to 8) (size 9 to 14) (size 15 to 20)
#    0.000    1.000    7.500    0.000    0.000    5.000 
#    9.000    0.000    0.000    0.000    0.000    0.000 
#    0.000    0.000    0.000    0.000    0.000    0.000 
#
# Total GULP energy -178310.481697 kJ/mol
# GULP energy per Si atom -5572.202553 kJ/mol
# Density = 2.628279 g / cm^3
# Si number density = 26.342747 Si / 1000 Ang^3
#
#
#
# Elastic Constant Matrix: (Units=GPa)
#
#
# Indices 1 2 3 4 5 6 
#
# 1 48.1159 24.6792 13.5251 0.0000 0.0000 0.0000
# 2 24.6792 48.1147 13.5243 0.0000 0.0000 0.0000
# 3 13.5251 13.5243 103.5701 0.0000 0.0000 0.0000
# 4 0.0000 0.0000 0.0000 35.4728 0.0000 0.0000
# 5 0.0000 0.0000 0.0000 0.0000 35.4737 0.0000
# 6 0.0000 0.0000 0.0000 0.0000 0.0000 40.2761
#
#
#
# Elastic Compliance Matrix: (Units=1/GPa)
#
#
# Indices 1 2 3 4 5 6 
#
# 1 0.028553 -0.014116 -0.001886 0.000000 0.000000 0.000000
# 2 -0.014116 0.028554 -0.001885 0.000000 0.000000 0.000000
# 3 -0.001886 -0.001885 0.010148 0.000000 0.000000 0.000000
# 4 0.000000 0.000000 0.000000 0.028191 0.000000 0.000000
# 5 0.000000 0.000000 0.000000 0.000000 0.028190 0.000000
# 6 0.000000 0.000000 0.000000 0.000000 0.000000 0.024829
#
#
# Mechanical properties :
#
#
# Convention : Reuss Voigt Hill
#
# Bulk Modulus (GPa) = 31.76422 33.69533 32.72977
# Shear Modulus (GPa) = 25.67646 32.11600 28.89623
#
# Velocity S-wave (km/s) = 3.12542 3.49543 3.31559
# Velocity P-wave (km/s) = 5.01084 5.39533 5.20664
#
# Compressibility (1/GPa) = 0.03148197
#
# Stress axis : x y z
#
# Youngs Moduli (GPa) = 35.02221 35.02150 98.54452
#
# Poissons Ratio (x) = 0.49435 0.18581
# Poissons Ratio (y) = 0.49436 0.18578
# Poissons Ratio (z) = 0.06603 0.06602
#
# Static dielectric constant tensor:
#      x y z
#    x 2.162730 0.000000 0.000000 
#    y 0.000000 2.162730 0.000000 
#    z 0.000000 0.000000 2.109080 
# 
# From -- ./inp_files/1149.got.cif
#   From: 2010.05.17/outbox.cif.g08.bks.cpg/sg92_1_cif.got.tgz:1149.got - 2010.06.03 19:35:17.
