data_PCOD9549120
_publ_section_title
;
Structure prediction by ZEFSAII (Michael W. Deem and Ramdas Pophale) SiO2 
 PCOD9549120
Probable space group: P 41 21 2
;
_chemical_formula_sum "Si O2"
_cell_formula_units_Z 40
_cell_length_a 13.984526
_cell_length_b 13.984526
_cell_length_c 9.213921
_cell_angle_alpha 90.000000
_cell_angle_beta 90.000000
_cell_angle_gamma 90.000000
_cell_volume 1801.938588
_symmetry_space_group_name_H-M "P 41 21 2"
_symmetry_group_IT_number 92
_symmetry_cell_setting 'tetragonal'
loop_
_space_group_symop_operation_xyz
x,y,z
1/2-y,1/2+x,1/4+z
-x,-y,1/2+z
1/2+y,1/2-x,3/4+z
1/2+x,1/2-y,3/4-z
1/2-x,1/2+y,1/4-z
y,x,-z
-y,-x,1/2-z
loop_
_atom_site_type_symbol
_atom_site_label
_atom_site_fract_x
_atom_site_fract_y
_atom_site_fract_z
Si Si1 0.324741 0.798942 0.359913
Si Si2 0.863191 0.085911 0.900999
Si Si3 0.762473 0.972942 0.129662
Si Si4 0.969287 0.812340 0.538626
Si Si5 0.324405 0.188103 0.435467
O O1 0.272463 0.727538 0.250000
O O2 0.246711 0.884987 0.357910
O O3 0.430772 0.783122 0.295090
O O4 0.330816 0.774530 0.530093
O O5 0.920993 0.079008 0.750000
O O6 0.845713 0.002605 0.016479
O O7 0.922365 0.166611 0.988608
O O8 0.693804 0.064438 0.151538
O O9 0.799592 0.955016 0.290472
O O10 0.705346 0.888661 0.053669
O O11 0.907475 0.907475 0.500000
O O12 0.288067 0.288067 0.500000
#
# Coordination Sequence:
#
# PCOD9549120 Si02
#       5
#     8   8   8   8   8
#     4   9  19  37  59  88 124 163 203 250 317 384
#     4  10  21  38  62  93 128 163 210 270 323 383
#     4  11  24  42  65  95 131 175 220 266 323 388
#     4  11  22  37  61  96 132 169 216 271 332 393
#     4  11  22  42  68  94 129 172 217 271 324 384
#
# _framework density 22.198312999999999
#
# number of rings (size 3 to 8) (size 9 to 14) (size 15 to 20)
#    0.000    1.600    0.000    6.600    0.000    4.000 
#    0.000    4.000    0.000    0.000    0.000    0.000 
#    0.000    0.000    0.000    0.000    0.000    0.000 
#
# Total GULP energy -222790.195100 kJ/mol
# GULP energy per Si atom -5569.754877 kJ/mol
# Density = 2.214779 g / cm^3
# Si number density = 22.198313 Si / 1000 Ang^3
#
#
#
# Elastic Constant Matrix: (Units=GPa)
#
#
# Indices 1 2 3 4 5 6 
#
# 1 206.8614 -121.0274 40.2841 0.0000 0.0000 0.0000
# 2 -121.0274 206.8568 40.2851 0.0000 0.0000 0.0000
# 3 40.2841 40.2851 197.4528 0.0000 0.0000 0.0000
# 4 0.0000 0.0000 0.0000 40.1007 0.0000 0.0000
# 5 0.0000 0.0000 0.0000 0.0000 40.1006 0.0000
# 6 0.0000 0.0000 0.0000 0.0000 0.0000 32.0399
#
#
#
# Elastic Compliance Matrix: (Units=1/GPa)
#
#
# Indices 1 2 3 4 5 6 
#
# 1 0.008730 0.005680 -0.002940 0.000000 0.000000 0.000000
# 2 0.005680 0.008730 -0.002940 0.000000 0.000000 0.000000
# 3 -0.002940 -0.002940 0.006264 0.000000 0.000000 0.000000
# 4 0.000000 0.000000 0.000000 0.024937 0.000000 0.000000
# 5 0.000000 0.000000 0.000000 0.000000 0.024937 0.000000
# 6 0.000000 0.000000 0.000000 0.000000 0.000000 0.031211
#
#
# Mechanical properties :
#
#
# Convention : Reuss Voigt Hill
#
# Bulk Modulus (GPa) = 42.87250 58.91718 50.89484
# Shear Modulus (GPa) = 44.25379 65.89017 55.07198
#
# Velocity S-wave (km/s) = 4.46978 5.45408 4.98628
# Velocity P-wave (km/s) = 6.78188 8.14012 7.49184
#
# Compressibility (1/GPa) = 0.02332497
#
# Stress axis : x y z
#
# Youngs Moduli (GPa) = 114.54671 114.54380 159.63802
#
# Poissons Ratio (x) = -0.65065 0.46934
# Poissons Ratio (y) = -0.65066 0.46935
# Poissons Ratio (z) = 0.33677 0.33677
#
# Static dielectric constant tensor:
#      x y z
#    x 1.917360 0.000000 0.000000 
#    y 0.000000 1.917350 0.000000 
#    z 0.000000 0.000000 1.827710 
# 
# From -- ./inp_files/1343.got.cif
#   From: 2010.05.17/outbox.cif.g08.bks.cpg/sg92_1_cif.got.tgz:1343.got - 2010.06.03 19:35:17.
