data_PCOD9549672
_publ_section_title
;
Structure prediction by ZEFSAII (Michael W. Deem and Ramdas Pophale) SiO2 
 PCOD9549672
Probable space group: P 42 2 2
;
_chemical_formula_sum "Si O2"
_cell_formula_units_Z 24
_cell_length_a 11.478912
_cell_length_b 11.478912
_cell_length_c 8.305737
_cell_angle_alpha 90.000000
_cell_angle_beta 90.000000
_cell_angle_gamma 90.000000
_cell_volume 1094.408930
_symmetry_space_group_name_H-M "P 42 2 2"
_symmetry_group_IT_number 93
_symmetry_cell_setting 'tetragonal'
loop_
_space_group_symop_operation_xyz
x,y,z
-y,x,1/2+z
-x,-y,z
y,-x,1/2+z
x,-y,-z
-x,y,-z
y,x,1/2-z
-y,-x,1/2-z
loop_
_atom_site_type_symbol
_atom_site_label
_atom_site_fract_x
_atom_site_fract_y
_atom_site_fract_z
Si Si1 0.579389 0.265941 0.135345
Si Si2 0.008537 0.181829 0.808306
Si Si3 0.347970 0.164151 0.177978
O O1 0.654970 0.345030 0.250000
O O2 0.480667 0.192035 0.227348
O O3 0.500000 0.334236 0.000000
O O4 0.651530 0.183302 0.014623
O O5 0.914573 0.085428 0.750000
O O6 0.959560 0.299981 0.732739
O O7 0.131927 0.131927 0.750000
O O8 0.000000 0.188138 0.000000
O O9 0.263196 0.263196 0.250000
#
# Coordination Sequence:
#
# PCOD9549672 Si02
#       3
#     8   8   8
#     4   8  18  35  59  92 135 180 221 279 327 412
#     4  10  19  36  63  93 125 161 223 285 347 415
#     4   8  18  34  54  91 132 166 225 271 339 405
#
# _framework density 21.929646999999999
#
# number of rings (size 3 to 8) (size 9 to 14) (size 15 to 20)
#    2.000    1.000    0.000    2.000    0.000    2.000 
#    6.000   15.000    0.000   10.000    0.000   70.000 
#    0.000    0.000    0.000    0.000    0.000    0.000 
#
# Total GULP energy -133640.051031 kJ/mol
# GULP energy per Si atom -5568.335460 kJ/mol
# Density = 2.187973 g / cm^3
# Si number density = 21.929647 Si / 1000 Ang^3
#
#
#
# Elastic Constant Matrix: (Units=GPa)
#
#
# Indices 1 2 3 4 5 6 
#
# 1 96.5437 93.3921 78.2071 0.0000 0.0000 0.0000
# 2 93.3921 96.5431 78.2082 0.0000 0.0000 0.0000
# 3 78.2071 78.2082 146.2869 0.0000 0.0000 0.0000
# 4 0.0000 0.0000 0.0000 16.7474 0.0000 0.0000
# 5 0.0000 0.0000 0.0000 0.0000 16.7342 0.0000
# 6 0.0000 0.0000 0.0000 0.0000 0.0000 33.5802
#
#
#
# Elastic Compliance Matrix: (Units=1/GPa)
#
#
# Indices 1 2 3 4 5 6 
#
# 1 0.163363 -0.153960 -0.005026 0.000000 0.000000 0.000000
# 2 -0.153960 0.163368 -0.005031 0.000000 0.000000 0.000000
# 3 -0.005026 -0.005031 0.012213 0.000000 0.000000 0.000000
# 4 0.000000 0.000000 0.000000 0.059711 0.000000 0.000000
# 5 0.000000 0.000000 0.000000 0.000000 0.059758 0.000000
# 6 0.000000 0.000000 0.000000 0.000000 0.000000 0.029779
#
#
# Mechanical properties :
#
#
# Convention : Reuss Voigt Hill
#
# Bulk Modulus (GPa) = 91.65675 93.22092 92.43884
# Shear Modulus (GPa) = 6.09858 19.38345 12.74101
#
# Velocity S-wave (km/s) = 1.66943 2.97626 2.41300
# Velocity P-wave (km/s) = 6.75297 7.37646 7.07159
#
# Compressibility (1/GPa) = 0.01091027
#
# Stress axis : x y z
#
# Youngs Moduli (GPa) = 6.12133 6.12113 81.88156
#
# Poissons Ratio (x) = 0.94241 0.41154
# Poissons Ratio (y) = 0.94244 0.41197
# Poissons Ratio (z) = 0.03077 0.03080
#
# Static dielectric constant tensor:
#      x y z
#    x 1.959640 0.000000 0.000000 
#    y 0.000000 1.959730 0.000000 
#    z 0.000000 0.000000 1.815750 
# 
# From -- ./inp_files/1264.got.cif
#   From: 2010.05.17/outbox.cif.g08.bks.cpg/sg93_1_cif.got.tgz:1264.got - 2010.06.03 19:38:44.
