data_PCOD9549436
_publ_section_title
;
Structure prediction by ZEFSAII (Michael W. Deem and Ramdas Pophale) SiO2 
 PCOD9549436
Probable space group: P 41 21 2
;
_chemical_formula_sum "Si O2"
_cell_formula_units_Z 48
_cell_length_a 15.327298
_cell_length_b 15.327298
_cell_length_c 11.615568
_cell_angle_alpha 90.000000
_cell_angle_beta 90.000000
_cell_angle_gamma 90.000000
_cell_volume 2728.799671
_symmetry_space_group_name_H-M "P 41 21 2"
_symmetry_group_IT_number 92
_symmetry_cell_setting 'tetragonal'
loop_
_space_group_symop_operation_xyz
x,y,z
1/2-y,1/2+x,1/4+z
-x,-y,1/2+z
1/2+y,1/2-x,3/4+z
1/2+x,1/2-y,3/4-z
1/2-x,1/2+y,1/4-z
y,x,-z
-y,-x,1/2-z
loop_
_atom_site_type_symbol
_atom_site_label
_atom_site_fract_x
_atom_site_fract_y
_atom_site_fract_z
Si Si1 0.731194 0.243122 0.472087
Si Si2 0.750442 0.385251 0.808802
Si Si3 0.140850 0.986055 0.391536
Si Si4 0.159586 0.159586 0.500000
Si Si5 0.856541 0.270827 0.676577
Si Si6 0.335339 0.431679 0.301315
Si Si7 0.526130 0.526130 0.000000
O O1 0.649199 0.240163 0.560490
O O2 0.702299 0.298445 0.362668
O O3 0.809881 0.279921 0.552557
O O4 0.771000 0.150305 0.432623
O O5 0.674007 0.325994 0.750000
O O6 0.839960 0.358765 0.745465
O O7 0.723133 0.483231 0.786292
O O8 0.227914 0.950476 0.332061
O O9 0.093484 0.901488 0.447452
O O10 0.168908 0.055194 0.487739
O O11 0.070186 0.029682 0.307128
O O12 0.800353 0.199648 0.750000
O O13 0.400759 0.456717 0.404514
#
# Coordination Sequence:
#
# PCOD9549436 Si02
#       7
#     8   8   8   4   8   8   4
#     4   9  21  36  51  77 117 156 181 223 282 354
#     4   9  18  36  58  80 107 147 194 231 279 324
#     4  11  21  32  55  88 117 138 187 237 290 336
#     4  12  21  36  48  89 124 152 172 224 310 353
#     4   8  17  37  54  78 112 149 185 227 275 331
#     4  11  21  35  55  85 111 148 191 227 283 339
#     4  12  19  30  52  89 116 144 168 238 288 337
#
# _framework density 17.590150000000001
#
# number of rings (size 3 to 8) (size 9 to 14) (size 15 to 20)
#    0.000    2.333    2.500    2.500    0.000    1.333 
#    0.000    0.000    0.000    2.000    0.000    0.000 
#    0.000    0.000    0.000    0.000    0.000    0.000 
#
# Total GULP energy -267301.361843 kJ/mol
# GULP energy per Si atom -5568.778372 kJ/mol
# Density = 1.755011 g / cm^3
# Si number density = 17.590150 Si / 1000 Ang^3
#
#
#
# Elastic Constant Matrix: (Units=GPa)
#
#
# Indices 1 2 3 4 5 6 
#
# 1 63.5953 50.9640 28.9845 0.0000 0.0000 0.0000
# 2 50.9640 63.5952 28.9842 0.0000 0.0000 0.0000
# 3 28.9845 28.9842 86.0692 0.0000 0.0000 0.0000
# 4 0.0000 0.0000 0.0000 26.5650 0.0000 0.0000
# 5 0.0000 0.0000 0.0000 0.0000 26.5653 0.0000
# 6 0.0000 0.0000 0.0000 0.0000 0.0000 34.7556
#
#
#
# Elastic Compliance Matrix: (Units=1/GPa)
#
#
# Indices 1 2 3 4 5 6 
#
# 1 0.044845 -0.034323 -0.003544 0.000000 0.000000 0.000000
# 2 -0.034323 0.044845 -0.003543 0.000000 0.000000 0.000000
# 3 -0.003544 -0.003543 0.014005 0.000000 0.000000 0.000000
# 4 0.000000 0.000000 0.000000 0.037643 0.000000 0.000000
# 5 0.000000 0.000000 0.000000 0.000000 0.037643 0.000000
# 6 0.000000 0.000000 0.000000 0.000000 0.000000 0.028772
#
#
# Mechanical properties :
#
#
# Convention : Reuss Voigt Hill
#
# Bulk Modulus (GPa) = 47.90245 47.90277 47.90261
# Shear Modulus (GPa) = 16.80483 24.53232 20.66857
#
# Velocity S-wave (km/s) = 3.09423 3.73857 3.43156
# Velocity P-wave (km/s) = 6.32909 6.77700 6.55687
#
# Compressibility (1/GPa) = 0.02087576
#
# Stress axis : x y z
#
# Youngs Moduli (GPa) = 22.29879 22.29884 71.40269
#
# Poissons Ratio (x) = 0.76537 0.25302
# Poissons Ratio (y) = 0.76537 0.25300
# Poissons Ratio (z) = 0.07902 0.07901
#
# Static dielectric constant tensor:
#      x y z
#    x 1.621210 0.000000 0.000000 
#    y 0.000000 1.621210 0.000000 
#    z 0.000000 0.000000 1.654610 
# 
# From -- ./inp_files/2223.got.cif
#   From: 2010.05.17/outbox.cif.g08.bks.cpg/sg92_2_cif.got.tgz:2223.got - 2010.06.03 19:35:17.
