data_PCOD9549758
_publ_section_title
;
Structure prediction by ZEFSAII (Michael W. Deem and Ramdas Pophale) SiO2 
 PCOD9549758
Probable space group: P 42 2 2
;
_chemical_formula_sum "Si O2"
_cell_formula_units_Z 56
_cell_length_a 11.083983
_cell_length_b 11.083983
_cell_length_c 22.285812
_cell_angle_alpha 90.000000
_cell_angle_beta 90.000000
_cell_angle_gamma 90.000000
_cell_volume 2737.916283
_symmetry_space_group_name_H-M "P 42 2 2"
_symmetry_group_IT_number 93
_symmetry_cell_setting 'tetragonal'
loop_
_space_group_symop_operation_xyz
x,y,z
-y,x,1/2+z
-x,-y,z
y,-x,1/2+z
x,-y,-z
-x,y,-z
y,x,1/2-z
-y,-x,1/2-z
loop_
_atom_site_type_symbol
_atom_site_label
_atom_site_fract_x
_atom_site_fract_y
_atom_site_fract_z
Si Si1 0.412513 0.842624 0.684389
Si Si2 0.296292 0.787167 0.189733
Si Si3 0.796688 0.637431 0.985673
Si Si4 0.623578 0.946818 0.184487
Si Si5 0.364507 0.553876 0.405432
Si Si6 0.918073 0.325771 0.132445
Si Si7 0.304821 0.739458 0.897864
O O1 0.406558 0.867209 0.755777
O O2 0.546559 0.864226 0.658412
O O3 0.357781 0.722809 0.655341
O O4 0.328692 0.946714 0.655332
O O5 0.287699 0.712302 0.250000
O O6 0.392369 0.715153 0.149299
O O7 0.166368 0.776673 0.158779
O O8 0.315994 0.927556 0.203398
O O9 0.666776 0.630846 0.951078
O O10 0.896514 0.678603 0.938228
O O11 0.827044 0.500000 0.000000
O O12 0.782168 0.714445 0.045997
O O13 0.693358 0.866939 0.136123
O O14 0.500000 0.000000 0.157349
O O15 0.500000 0.500000 0.395321
O O16 0.288538 0.436994 0.424104
#
# Coordination Sequence:
#
# PCOD9549758 Si02
#       7
#     8   8   8   8   8   8   8
#     4  11  21  41  65  96 132 159 219 284 331 394
#     4  11  21  41  65  88 128 176 215 262 330 399
#     4  11  21  39  62  93 132 167 210 264 323 399
#     4  12  23  41  63  92 134 176 214 267 327 407
#     4  11  22  36  61  95 129 167 212 261 328 392
#     4  10  21  38  67  93 121 170 217 270 331 384
#     4  12  24  38  61  95 133 169 212 268 331 390
#
# _framework density 20.453510999999999
#
# number of rings (size 3 to 8) (size 9 to 14) (size 15 to 20)
#    0.000    0.857    7.143    1.714    0.000    0.857 
#    2.571    3.571    0.000    0.000    0.000    4.000 
#    0.000    0.000    0.000    0.000    0.000    0.000 
#
# Total GULP energy -312400.106450 kJ/mol
# GULP energy per Si atom -5578.573329 kJ/mol
# Density = 2.040696 g / cm^3
# Si number density = 20.453511 Si / 1000 Ang^3
#
#
#
# Elastic Constant Matrix: (Units=GPa)
#
#
# Indices 1 2 3 4 5 6 
#
# 1 45.3983 2.3169 15.8435 0.0000 0.0000 0.0000
# 2 2.3169 45.3984 15.8433 0.0000 0.0000 0.0000
# 3 15.8435 15.8433 116.1357 0.0000 0.0000 0.0000
# 4 0.0000 0.0000 0.0000 16.6828 0.0000 0.0000
# 5 0.0000 0.0000 0.0000 0.0000 16.6825 0.0000
# 6 0.0000 0.0000 0.0000 0.0000 0.0000 15.8017
#
#
#
# Elastic Compliance Matrix: (Units=1/GPa)
#
#
# Indices 1 2 3 4 5 6 
#
# 1 0.023129 -0.000083 -0.003144 0.000000 0.000000 0.000000
# 2 -0.000083 0.023129 -0.003144 0.000000 0.000000 0.000000
# 3 -0.003144 -0.003144 0.009468 0.000000 0.000000 0.000000
# 4 0.000000 0.000000 0.000000 0.059942 0.000000 0.000000
# 5 0.000000 0.000000 0.000000 0.000000 0.059943 0.000000
# 6 0.000000 0.000000 0.000000 0.000000 0.000000 0.063284
#
#
# Mechanical properties :
#
#
# Convention : Reuss Voigt Hill
#
# Bulk Modulus (GPa) = 23.26460 30.54886 26.90673
# Shear Modulus (GPa) = 18.79944 21.36196 20.08070
#
# Velocity S-wave (km/s) = 3.03501 3.23525 3.13672
# Velocity P-wave (km/s) = 4.86629 5.37810 5.12858
#
# Compressibility (1/GPa) = 0.04298376
#
# Stress axis : x y z
#
# Youngs Moduli (GPa) = 43.23633 43.23652 105.61444
#
# Poissons Ratio (x) = 0.00360 0.33204
# Poissons Ratio (y) = 0.00360 0.33204
# Poissons Ratio (z) = 0.13593 0.13593
#
# Static dielectric constant tensor:
#      x y z
#    x 1.768400 0.000000 0.000000 
#    y 0.000000 1.768400 0.000000 
#    z 0.000000 0.000000 1.782810 
# 
# From -- ./inp_files/6263.got.cif
#   From: 2010.05.17/outbox.cif.g08.bks.cpg/sg93_4_cif.got.tgz:6263.got - 2010.06.03 19:38:44.
