data_PCOD9549928
_publ_section_title
;
Structure prediction by ZEFSAII (Michael W. Deem and Ramdas Pophale) SiO2 
 PCOD9549928
Probable space group: P 42 21 2
;
_chemical_formula_sum "Si O2"
_cell_formula_units_Z 64
_cell_length_a 19.814636
_cell_length_b 19.814636
_cell_length_c 9.027709
_cell_angle_alpha 90.000000
_cell_angle_beta 90.000000
_cell_angle_gamma 90.000000
_cell_volume 3544.457300
_symmetry_space_group_name_H-M "P 42 21 2"
_symmetry_group_IT_number 94
_symmetry_cell_setting 'tetragonal'
loop_
_space_group_symop_operation_xyz
x,y,z
1/2-y,1/2+x,1/2+z
-x,-y,z
1/2+y,1/2-x,1/2+z
1/2+x,1/2-y,1/2-z
1/2-x,1/2+y,1/2-z
y,x,-z
-y,-x,-z
loop_
_atom_site_type_symbol
_atom_site_label
_atom_site_fract_x
_atom_site_fract_y
_atom_site_fract_z
Si Si1 0.326333 0.798390 0.616121
Si Si2 0.411906 0.779275 0.362805
Si Si3 0.478247 0.773862 0.072378
Si Si4 0.517971 0.880285 0.506584
Si Si5 0.696053 0.135402 0.176124
Si Si6 0.884510 0.214199 0.549437
Si Si7 0.164746 0.258961 0.562486
Si Si8 0.402392 0.938268 0.683886
O O1 0.366914 0.752515 0.498489
O O2 0.261969 0.832837 0.542169
O O3 0.369505 0.864420 0.662391
O O4 0.312787 0.761037 0.768235
O O5 0.448403 0.742704 0.225953
O O6 0.469748 0.822413 0.440679
O O7 0.358957 0.828902 0.281709
O O8 0.540641 0.733262 0.004860
O O9 0.414185 0.775170 0.962744
O O10 0.507792 0.848636 0.115277
O O11 0.570025 0.841799 0.612488
O O12 0.472026 0.931997 0.596828
O O13 0.549826 0.911736 0.358373
O O14 0.761118 0.122008 0.279317
O O15 0.704211 0.185361 0.036523
O O16 0.859816 0.140185 0.500000
O O17 0.186673 0.186673 0.500000
#
# Coordination Sequence:
#
# PCOD9549928 Si02
#       8
#     8   8   8   8   8   8   8   8
#     4   9  17  33  54  74 103 139 179 226 275 319
#     4   8  18  33  48  69  99 143 170 219 268 310
#     4   9  20  36  53  72 106 139 181 225 280 331
#     4  10  18  32  50  70 103 144 191 215 257 316
#     4  10  20  33  52  76 106 141 186 225 270 329
#     4  10  20  34  53  79 110 145 176 221 287 341
#     4  11  21  35  56  80 105 138 187 243 277 320
#     4   9  18  34  52  70 105 149 181 226 265 323
#
# _framework density 18.056360999999999
#
# number of rings (size 3 to 8) (size 9 to 14) (size 15 to 20)
#    0.000    2.500    1.250    1.500    3.500    0.000 
#    0.000    9.375    2.750    0.375    0.000    0.000 
#    0.000    0.000   12.750    0.000    0.000    0.000 
#
# Total GULP energy -356624.869290 kJ/mol
# GULP energy per Si atom -5572.263583 kJ/mol
# Density = 1.801526 g / cm^3
# Si number density = 18.056361 Si / 1000 Ang^3
#
#
#
# Elastic Constant Matrix: (Units=GPa)
#
#
# Indices 1 2 3 4 5 6 
#
# 1 28.8738 21.5162 11.4099 0.0000 0.0000 0.0000
# 2 21.5162 28.8755 11.4102 0.0000 0.0000 0.0000
# 3 11.4099 11.4102 91.9349 0.0000 0.0000 0.0000
# 4 0.0000 0.0000 0.0000 9.3061 0.0000 0.0000
# 5 0.0000 0.0000 0.0000 0.0000 9.3067 0.0000
# 6 0.0000 0.0000 0.0000 0.0000 0.0000 16.2185
#
#
#
# Elastic Compliance Matrix: (Units=1/GPa)
#
#
# Indices 1 2 3 4 5 6 
#
# 1 0.078464 -0.057435 -0.002610 0.000000 0.000000 0.000000
# 2 -0.057435 0.078460 -0.002610 0.000000 0.000000 0.000000
# 3 -0.002610 -0.002610 0.011525 0.000000 0.000000 0.000000
# 4 0.000000 0.000000 0.000000 0.107457 0.000000 0.000000
# 5 0.000000 0.000000 0.000000 0.000000 0.107450 0.000000
# 6 0.000000 0.000000 0.000000 0.000000 0.000000 0.061658
#
#
# Mechanical properties :
#
#
# Convention : Reuss Voigt Hill
#
# Bulk Modulus (GPa) = 23.18038 26.48406 24.83222
# Shear Modulus (GPa) = 8.55135 13.98945 11.27040
#
# Velocity S-wave (km/s) = 2.17858 2.78648 2.50107
# Velocity P-wave (km/s) = 4.38109 5.00519 4.70350
#
# Compressibility (1/GPa) = 0.04313993
#
# Stress axis : x y z
#
# Youngs Moduli (GPa) = 12.74464 12.74538 86.76779
#
# Poissons Ratio (x) = 0.73204 0.22644
# Poissons Ratio (y) = 0.73199 0.22643
# Poissons Ratio (z) = 0.03326 0.03326
#
# Static dielectric constant tensor:
#      x y z
#    x 1.648740 0.000000 0.000000 
#    y 0.000000 1.648740 0.000000 
#    z 0.000000 0.000000 1.678290 
# 
# From -- ./inp_files/1815.got.cif
#   From: 2010.05.17/outbox.cif.g08.bks.cpg/sg94_1_cif.got.tgz:1815.got - 2010.06.03 19:43:16.
