data_PCOD9549030
_publ_section_title
;
Structure prediction by ZEFSAII (Michael W. Deem and Ramdas Pophale) SiO2 
 PCOD9549030
Probable space group: P 41 21 2
;
_chemical_formula_sum "Si O2"
_cell_formula_units_Z 40
_cell_length_a 8.434340
_cell_length_b 8.434340
_cell_length_c 29.151333
_cell_angle_alpha 90.000000
_cell_angle_beta 90.000000
_cell_angle_gamma 90.000000
_cell_volume 2073.770187
_symmetry_space_group_name_H-M "P 41 21 2"
_symmetry_group_IT_number 92
_symmetry_cell_setting 'tetragonal'
loop_
_space_group_symop_operation_xyz
x,y,z
1/2-y,1/2+x,1/4+z
-x,-y,1/2+z
1/2+y,1/2-x,3/4+z
1/2+x,1/2-y,3/4-z
1/2-x,1/2+y,1/4-z
y,x,-z
-y,-x,1/2-z
loop_
_atom_site_type_symbol
_atom_site_label
_atom_site_fract_x
_atom_site_fract_y
_atom_site_fract_z
Si Si1 0.451432 0.870102 0.418189
Si Si2 0.572467 0.163667 0.751827
Si Si3 0.417805 0.383447 0.132913
Si Si4 0.401833 0.051229 0.335429
Si Si5 0.550325 0.613706 0.789748
O O1 0.516118 0.907761 0.467885
O O2 0.262508 0.849580 0.413399
O O3 0.536377 0.716456 0.397512
O O4 0.487628 0.017140 0.383753
O O5 0.731516 0.268485 0.750000
O O6 0.439760 0.283468 0.732835
O O7 0.554324 0.096078 0.802623
O O8 0.536304 0.284427 0.099394
O O9 0.500857 0.505400 0.167272
O O10 0.443477 0.211183 0.309852
O O11 0.420636 0.579365 0.750000
#
# Coordination Sequence:
#
# PCOD9549030 Si02
#       5
#     8   8   8   8   8
#     4  10  20  37  65  89 128 163 226 254 327 377
#     4  11  20  40  64  93 125 177 213 266 316 394
#     4  10  21  39  62  96 124 171 206 272 314 386
#     4  10  24  37  65  94 128 165 218 266 323 383
#     4  11  23  40  65  92 132 169 214 261 338 376
#
# _framework density 19.288540000000001
#
# number of rings (size 3 to 8) (size 9 to 14) (size 15 to 20)
#    1.200    0.400    2.000    4.800    2.800    0.000 
#    0.000    0.000    0.000    0.000    0.000    0.000 
#    0.000    0.000    0.000    0.000    0.000    0.000 
#
# Total GULP energy -222969.113959 kJ/mol
# GULP energy per Si atom -5574.227849 kJ/mol
# Density = 1.924464 g / cm^3
# Si number density = 19.288540 Si / 1000 Ang^3
#
#
#
# Elastic Constant Matrix: (Units=GPa)
#
#
# Indices 1 2 3 4 5 6 
#
# 1 37.6354 6.5071 -1.4429 0.0000 0.0000 0.0000
# 2 6.5071 37.6371 -1.4420 0.0000 0.0000 0.0000
# 3 -1.4429 -1.4420 69.4294 0.0000 0.0000 0.0000
# 4 0.0000 0.0000 0.0000 30.1503 0.0000 0.0000
# 5 0.0000 0.0000 0.0000 0.0000 30.1504 0.0000
# 6 0.0000 0.0000 0.0000 0.0000 0.0000 13.4039
#
#
#
# Elastic Compliance Matrix: (Units=1/GPa)
#
#
# Indices 1 2 3 4 5 6 
#
# 1 0.027405 -0.004720 0.000472 0.000000 0.000000 0.000000
# 2 -0.004720 0.027404 0.000471 0.000000 0.000000 0.000000
# 3 0.000472 0.000471 0.014423 0.000000 0.000000 0.000000
# 4 0.000000 0.000000 0.000000 0.033167 0.000000 0.000000
# 5 0.000000 0.000000 0.000000 0.000000 0.033167 0.000000
# 6 0.000000 0.000000 0.000000 0.000000 0.000000 0.074605
#
#
# Mechanical properties :
#
#
# Convention : Reuss Voigt Hill
#
# Bulk Modulus (GPa) = 16.21364 16.88290 16.54827
# Shear Modulus (GPa) = 20.98333 24.14623 22.56478
#
# Velocity S-wave (km/s) = 3.30186 3.54198 3.42402
# Velocity P-wave (km/s) = 4.79171 5.04968 4.92238
#
# Compressibility (1/GPa) = 0.06167648
#
# Stress axis : x y z
#
# Youngs Moduli (GPa) = 36.48982 36.49151 69.33518
#
# Poissons Ratio (x) = 0.17224 -0.03269
# Poissons Ratio (y) = 0.17223 -0.03266
# Poissons Ratio (z) = -0.01721 -0.01719
#
# Static dielectric constant tensor:
#      x y z
#    x 1.671070 0.000000 0.000000 
#    y 0.000000 1.671070 0.000000 
#    z 0.000000 0.000000 1.673440 
# 
# From -- ./inp_files/4351.got.cif
#   From: 2010.05.17/outbox.cif.g08.bks.cpg/sg92_3_cif.got.tgz:4351.got - 2010.06.03 19:35:17.
