data_PCOD9549601
_publ_section_title
;
Structure prediction by ZEFSAII (Michael W. Deem and Ramdas Pophale) SiO2 
 PCOD9549601
Probable space group: P 42 2 2
;
_chemical_formula_sum "Si O2"
_cell_formula_units_Z 40
_cell_length_a 11.696635
_cell_length_b 11.696635
_cell_length_c 14.866845
_cell_angle_alpha 90.000000
_cell_angle_beta 90.000000
_cell_angle_gamma 90.000000
_cell_volume 2033.951950
_symmetry_space_group_name_H-M "P 42 2 2"
_symmetry_group_IT_number 93
_symmetry_cell_setting 'tetragonal'
loop_
_space_group_symop_operation_xyz
x,y,z
-y,x,1/2+z
-x,-y,z
y,-x,1/2+z
x,-y,-z
-x,y,-z
y,x,1/2-z
-y,-x,1/2-z
loop_
_atom_site_type_symbol
_atom_site_label
_atom_site_fract_x
_atom_site_fract_y
_atom_site_fract_z
Si Si1 0.132216 0.799398 0.483760
Si Si2 0.279848 0.820035 0.662137
Si Si3 0.480575 0.137164 0.709796
Si Si4 0.227316 0.084718 0.678367
Si Si5 0.131013 0.547754 0.409012
O O1 0.204285 0.787058 0.575571
O O2 0.182202 0.897682 0.421685
O O3 0.132607 0.683482 0.423677
O O4 0.000000 0.823059 0.500000
O O5 0.252983 0.747018 0.750000
O O6 0.417034 0.815789 0.648742
O O7 0.247597 0.950180 0.691251
O O8 0.348977 0.149897 0.682836
O O9 0.488847 0.179594 0.813075
O O10 0.500000 0.000000 0.711385
O O11 0.139930 0.139930 0.750000
O O12 0.186424 0.500000 0.500000
O O13 0.000000 0.500000 0.408388
#
# Coordination Sequence:
#
# PCOD9549601 Si02
#       5
#     8   8   8   8   8
#     4  12  23  36  58  95 124 162 204 246 319 369
#     4  11  24  38  58  90 128 159 206 256 311 370
#     4   9  20  38  59  83 114 166 216 250 296 357
#     4  11  22  39  60  86 124 169 205 250 310 381
#     4  10  17  32  60  85 112 150 216 265 272 343
#
# _framework density 19.666149000000001
#
# number of rings (size 3 to 8) (size 9 to 14) (size 15 to 20)
#    0.000    1.400    4.000    3.000    2.800    4.400 
#    0.000    3.000    0.000    0.600    0.000    1.400 
#    0.000    0.000    0.000    0.000    0.000    0.000 
#
# Total GULP energy -223118.028771 kJ/mol
# GULP energy per Si atom -5577.950719 kJ/mol
# Density = 1.962139 g / cm^3
# Si number density = 19.666149 Si / 1000 Ang^3
#
#
#
# Elastic Constant Matrix: (Units=GPa)
#
#
# Indices 1 2 3 4 5 6 
#
# 1 68.4437 2.5542 10.8957 0.0000 0.0000 0.0000
# 2 2.5542 68.4451 10.8961 0.0000 0.0000 0.0000
# 3 10.8957 10.8961 82.7626 0.0000 0.0000 0.0000
# 4 0.0000 0.0000 0.0000 4.3535 0.0000 0.0000
# 5 0.0000 0.0000 0.0000 0.0000 4.3535 0.0000
# 6 0.0000 0.0000 0.0000 0.0000 0.0000 1.3774
#
#
#
# Elastic Compliance Matrix: (Units=1/GPa)
#
#
# Indices 1 2 3 4 5 6 
#
# 1 0.014927 -0.000249 -0.001932 0.000000 0.000000 0.000000
# 2 -0.000249 0.014927 -0.001932 0.000000 0.000000 0.000000
# 3 -0.001932 -0.001932 0.012592 0.000000 0.000000 0.000000
# 4 0.000000 0.000000 0.000000 0.229700 0.000000 0.000000
# 5 0.000000 0.000000 0.000000 0.000000 0.229703 0.000000
# 6 0.000000 0.000000 0.000000 0.000000 0.000000 0.725984
#
#
# Mechanical properties :
#
#
# Convention : Reuss Voigt Hill
#
# Bulk Modulus (GPa) = 29.22451 29.81591 29.52021
# Shear Modulus (GPa) = 4.00812 15.03725 9.52268
#
# Velocity S-wave (km/s) = 1.42916 2.76819 2.20288
# Velocity P-wave (km/s) = 4.19713 5.04094 4.63826
#
# Compressibility (1/GPa) = 0.03421786
#
# Stress axis : x y z
#
# Youngs Moduli (GPa) = 66.99058 66.99188 79.41829
#
# Poissons Ratio (x) = 0.01671 0.15346
# Poissons Ratio (y) = 0.01671 0.15347
# Poissons Ratio (z) = 0.12945 0.12945
#
# Static dielectric constant tensor:
#      x y z
#    x 1.726150 0.000000 0.000000 
#    y 0.000000 1.726150 0.000000 
#    z 0.000000 0.000000 1.704370 
# 
# From -- ./inp_files/4378.got.cif
#   From: 2010.05.17/outbox.cif.g08.bks.cpg/sg93_3_cif.got.tgz:4378.got - 2010.06.03 19:38:44.
