data_PCOD9549471
_publ_section_title
;
Structure prediction by ZEFSAII (Michael W. Deem and Ramdas Pophale) SiO2 
 PCOD9549471
Probable space group: P 41 21 2
;
_chemical_formula_sum "Si O2"
_cell_formula_units_Z 40
_cell_length_a 18.789161
_cell_length_b 18.789161
_cell_length_c 4.878391
_cell_angle_alpha 90.000000
_cell_angle_beta 90.000000
_cell_angle_gamma 90.000000
_cell_volume 1722.230917
_symmetry_space_group_name_H-M "P 41 21 2"
_symmetry_group_IT_number 92
_symmetry_cell_setting 'tetragonal'
loop_
_space_group_symop_operation_xyz
x,y,z
1/2-y,1/2+x,1/4+z
-x,-y,1/2+z
1/2+y,1/2-x,3/4+z
1/2+x,1/2-y,3/4-z
1/2-x,1/2+y,1/4-z
y,x,-z
-y,-x,1/2-z
loop_
_atom_site_type_symbol
_atom_site_label
_atom_site_fract_x
_atom_site_fract_y
_atom_site_fract_z
Si Si1 0.811512 0.920106 0.892230
Si Si2 0.106529 0.525632 0.149104
Si Si3 0.496311 0.266260 0.651977
Si Si4 0.645443 0.162681 0.211775
Si Si5 0.739021 0.142681 0.715665
O O1 0.788209 0.984694 0.094284
O O2 0.881158 0.881158 0.000000
O O3 0.811912 0.949220 0.586260
O O4 0.745658 0.864917 0.896685
O O5 0.181809 0.511691 0.299157
O O6 0.047901 0.569969 0.313926
O O7 0.125587 0.572348 0.879971
O O8 0.420408 0.277068 0.798311
O O9 0.672088 0.160350 0.520860
O O10 0.705242 0.128118 0.013502
O O11 0.791962 0.208038 0.750000
#
# Coordination Sequence:
#
# PCOD9549471 Si02
#       5
#     8   8   8   8   8
#     4  11  23  42  68  94 128 169 217 284 341 396
#     4  11  25  38  62  97 143 197 228 276 329 414
#     4  11  25  42  62  98 131 172 230 273 333 414
#     4  11  24  41  63  94 129 172 236 268 325 396
#     4  12  24  43  66  92 130 174 226 286 337 388
#
# _framework density 23.225688999999999
#
# number of rings (size 3 to 8) (size 9 to 14) (size 15 to 20)
#    0.000    0.800    2.000    6.000    5.600    0.000 
#    0.000    0.000    0.000    2.400    0.000    0.000 
#    0.000    0.000    0.000    0.000    0.000    0.000 
#
# Total GULP energy -223961.944291 kJ/mol
# GULP energy per Si atom -5599.048607 kJ/mol
# Density = 2.317283 g / cm^3
# Si number density = 23.225689 Si / 1000 Ang^3
#
#
#
# Elastic Constant Matrix: (Units=GPa)
#
#
# Indices 1 2 3 4 5 6 
#
# 1 54.6939 38.8608 18.1725 0.0000 0.0000 0.0000
# 2 38.8608 54.6887 18.1725 0.0000 0.0000 0.0000
# 3 18.1725 18.1725 105.7692 0.0000 0.0000 0.0000
# 4 0.0000 0.0000 0.0000 21.3887 0.0000 0.0000
# 5 0.0000 0.0000 0.0000 0.0000 21.3886 0.0000
# 6 0.0000 0.0000 0.0000 0.0000 0.0000 38.6364
#
#
#
# Elastic Compliance Matrix: (Units=1/GPa)
#
#
# Indices 1 2 3 4 5 6 
#
# 1 0.037310 -0.025858 -0.001968 0.000000 0.000000 0.000000
# 2 -0.025858 0.037313 -0.001968 0.000000 0.000000 0.000000
# 3 -0.001968 -0.001968 0.010131 0.000000 0.000000 0.000000
# 4 0.000000 0.000000 0.000000 0.046754 0.000000 0.000000
# 5 0.000000 0.000000 0.000000 0.000000 0.046754 0.000000
# 6 0.000000 0.000000 0.000000 0.000000 0.000000 0.025882
#
#
# Mechanical properties :
#
#
# Convention : Reuss Voigt Hill
#
# Bulk Modulus (GPa) = 39.73505 40.61814 40.17659
# Shear Modulus (GPa) = 18.37428 25.61246 21.99337
#
# Velocity S-wave (km/s) = 2.81573 3.32439 3.08058
# Velocity P-wave (km/s) = 5.26465 5.67995 5.47624
#
# Compressibility (1/GPa) = 0.02516670
#
# Stress axis : x y z
#
# Youngs Moduli (GPa) = 26.80276 26.80006 98.70919
#
# Poissons Ratio (x) = 0.69299 0.19422
# Poissons Ratio (y) = 0.69306 0.19428
# Poissons Ratio (z) = 0.05274 0.05275
#
# Static dielectric constant tensor:
#      x y z
#    x 1.876710 0.000000 0.000000 
#    y 0.000000 1.876720 0.000000 
#    z 0.000000 0.000000 1.864240 
# 
# From -- ./inp_files/425.got.cif
#   From: 2010.05.17/outbox.cif.g08.bks.cpg/sg92_1_cif.got.tgz:425.got - 2010.06.03 19:35:17.
