data_PCOD9549276
_publ_section_title
;
Structure prediction by ZEFSAII (Michael W. Deem and Ramdas Pophale) SiO2 
 PCOD9549276
Probable space group: P 41 21 2
;
_chemical_formula_sum "Si O2"
_cell_formula_units_Z 40
_cell_length_a 8.324497
_cell_length_b 8.324497
_cell_length_c 26.296684
_cell_angle_alpha 90.000000
_cell_angle_beta 90.000000
_cell_angle_gamma 90.000000
_cell_volume 1822.287893
_symmetry_space_group_name_H-M "P 41 21 2"
_symmetry_group_IT_number 92
_symmetry_cell_setting 'tetragonal'
loop_
_space_group_symop_operation_xyz
x,y,z
1/2-y,1/2+x,1/4+z
-x,-y,1/2+z
1/2+y,1/2-x,3/4+z
1/2+x,1/2-y,3/4-z
1/2-x,1/2+y,1/4-z
y,x,-z
-y,-x,1/2-z
loop_
_atom_site_type_symbol
_atom_site_label
_atom_site_fract_x
_atom_site_fract_y
_atom_site_fract_z
Si Si1 0.216595 0.212104 0.301746
Si Si2 0.461583 0.595830 0.809861
Si Si3 0.846293 0.188653 0.310156
Si Si4 0.386949 0.315959 0.107754
Si Si5 0.621037 0.316240 0.934415
O O1 0.363426 0.326172 0.317505
O O2 0.222039 0.189757 0.240363
O O3 0.030157 0.253479 0.317132
O O4 0.249724 0.039740 0.327397
O O5 0.442649 0.557352 0.750000
O O6 0.309483 0.709745 0.825747
O O7 0.432207 0.445880 0.846238
O O8 0.824616 0.175385 0.250000
O O9 0.842308 0.003387 0.326119
O O10 0.288152 0.187781 0.138647
O O11 0.296329 0.428675 0.067504
#
# Coordination Sequence:
#
# PCOD9549276 Si02
#       5
#     8   8   8   8   8
#     4  10  22  43  68  92 138 174 217 287 348 397
#     4  11  22  42  68 102 126 172 233 278 331 415
#     4   8  19  39  65  88 129 175 209 271 343 392
#     4  11  24  40  67  97 131 179 225 277 343 417
#     4  10  22  45  61  94 136 171 224 282 340 413
#
# _framework density 21.950426
#
# number of rings (size 3 to 8) (size 9 to 14) (size 15 to 20)
#    0.000    2.000    2.000    1.800    8.400    0.000 
#    3.600    2.000    0.000    0.000    0.000    0.000 
#    0.000    0.000    0.000    0.000    0.000    0.000 
#
# Total GULP energy -223124.437580 kJ/mol
# GULP energy per Si atom -5578.110939 kJ/mol
# Density = 2.190047 g / cm^3
# Si number density = 21.950426 Si / 1000 Ang^3
#
#
#
# Elastic Constant Matrix: (Units=GPa)
#
#
# Indices 1 2 3 4 5 6 
#
# 1 97.3782 25.4342 17.7009 0.0000 0.0000 0.0000
# 2 25.4342 97.3778 17.7003 0.0000 0.0000 0.0000
# 3 17.7009 17.7003 58.8254 0.0000 0.0000 0.0000
# 4 0.0000 0.0000 0.0000 40.0174 0.0000 0.0000
# 5 0.0000 0.0000 0.0000 0.0000 40.0175 0.0000
# 6 0.0000 0.0000 0.0000 0.0000 0.0000 47.4519
#
#
#
# Elastic Compliance Matrix: (Units=1/GPa)
#
#
# Indices 1 2 3 4 5 6 
#
# 1 0.011408 -0.002492 -0.002683 0.000000 0.000000 0.000000
# 2 -0.002492 0.011408 -0.002683 0.000000 0.000000 0.000000
# 3 -0.002683 -0.002683 0.018614 0.000000 0.000000 0.000000
# 4 0.000000 0.000000 0.000000 0.024989 0.000000 0.000000
# 5 0.000000 0.000000 0.000000 0.000000 0.024989 0.000000
# 6 0.000000 0.000000 0.000000 0.000000 0.000000 0.021074
#
#
# Mechanical properties :
#
#
# Convention : Reuss Voigt Hill
#
# Bulk Modulus (GPa) = 38.88853 41.69467 40.29160
# Shear Modulus (GPa) = 36.55818 38.34708 37.45263
#
# Velocity S-wave (km/s) = 4.08547 4.18423 4.13514
# Velocity P-wave (km/s) = 6.32532 6.50998 6.41832
#
# Compressibility (1/GPa) = 0.02571452
#
# Stress axis : x y z
#
# Youngs Moduli (GPa) = 87.65946 87.65936 53.72308
#
# Poissons Ratio (x) = 0.21844 0.14413
# Poissons Ratio (y) = 0.21844 0.14412
# Poissons Ratio (z) = 0.23518 0.23517
#
# Static dielectric constant tensor:
#      x y z
#    x 1.835140 0.000000 0.000000 
#    y 0.000000 1.835140 0.000000 
#    z 0.000000 0.000000 1.900480 
# 
# From -- ./inp_files/4330.got.cif
#   From: 2010.05.17/outbox.cif.g08.bks.cpg/sg92_3_cif.got.tgz:4330.got - 2010.06.03 19:35:17.
