data_PCOD9549588
_publ_section_title
;
Structure prediction by ZEFSAII (Michael W. Deem and Ramdas Pophale) SiO2 
 PCOD9549588
Probable space group: P 41 21 2
;
_chemical_formula_sum "Si O2"
_cell_formula_units_Z 56
_cell_length_a 15.000000
_cell_length_b 15.000000
_cell_length_c 12.000000
_cell_angle_alpha 90.000000
_cell_angle_beta 90.000000
_cell_angle_gamma 90.000000
_cell_volume 2700.000000
_symmetry_space_group_name_H-M "P 41 21 2"
_symmetry_group_IT_number 92
_symmetry_cell_setting 'tetragonal'
loop_
_space_group_symop_operation_xyz
x,y,z
1/2-y,1/2+x,1/4+z
-x,-y,1/2+z
1/2+y,1/2-x,3/4+z
1/2+x,1/2-y,3/4-z
1/2-x,1/2+y,1/4-z
y,x,-z
-y,-x,1/2-z
loop_
_atom_site_type_symbol
_atom_site_label
_atom_site_fract_x
_atom_site_fract_y
_atom_site_fract_z
Si Si1 0.380760 0.204807 0.318557
Si Si2 0.412857 0.712199 0.310940
Si Si3 0.150529 0.150529 0.500000
Si Si4 0.727126 0.022556 0.360443
Si Si5 0.765995 0.947257 0.808563
Si Si6 0.850191 0.149810 0.250000
Si Si7 0.744741 0.144898 0.828622
Si Si8 0.416496 0.817954 0.889117
O O1 0.315652 0.121054 0.321197
O O2 0.352632 0.266961 0.418703
O O3 0.357880 0.262171 0.209669
O O4 0.485250 0.178512 0.329561
O O5 0.373265 0.626736 0.250000
O O6 0.488147 0.755491 0.234507
O O7 0.433388 0.690336 0.438332
O O8 0.335712 0.787289 0.312042
O O9 0.166034 0.070379 0.410980
O O10 0.234698 0.136328 0.583657
O O11 0.823125 0.062706 0.320234
O O12 0.647379 0.096577 0.368351
O O13 0.699841 0.946116 0.268793
O O14 0.722306 0.043793 0.803676
O O15 0.823900 0.176101 0.750000
#
# Coordination Sequence:
#
# PCOD9549588 Si02
#       8
#     8   8   4   8   8   4   8   8
#     4  10  21  40  63  95 131 164 220 270 326 382
#     4  10  24  43  64  94 133 175 216 266 333 403
#     4  12  21  42  70  94 132 176 226 265 334 395
#     4  11  24  41  68  98 132 175 224 271 336 391
#     4  11  22  39  68  92 128 174 214 276 323 393
#     4  10  23  40  68  96 126 176 218 271 314 393
#     4  10  23  40  65  95 129 174 214 260 335 399
#     4  11  23  39  65 100 130 172 219 279 328 395
#
# _framework density 20.740741
#
# number of rings (size 3 to 8) (size 9 to 14) (size 15 to 20)
#    0.000    1.429    1.429    4.286    4.000    2.286 
#    0.000    0.000   22.000    0.000    0.000    0.000 
#    0.000    0.000    0.000    0.000    0.000    0.000 
#
# Total GULP energy -312117.220822 kJ/mol
# GULP energy per Si atom -5573.521800 kJ/mol
# Density = 2.069353 g / cm^3
# Si number density = 20.740741 Si / 1000 Ang^3
#
#
#
# Elastic Constant Matrix: (Units=GPa)
#
#
# Indices 1 2 3 4 5 6 
#
# 1 36.4401 15.8982 28.3440 0.0000 0.0000 0.0000
# 2 15.8982 36.4468 28.3470 0.0000 0.0000 0.0000
# 3 28.3440 28.3470 106.2560 0.0000 0.0000 0.0000
# 4 0.0000 0.0000 0.0000 19.8033 0.0000 0.0000
# 5 0.0000 0.0000 0.0000 0.0000 19.8015 0.0000
# 6 0.0000 0.0000 0.0000 0.0000 0.0000 14.4981
#
#
#
# Elastic Compliance Matrix: (Units=1/GPa)
#
#
# Indices 1 2 3 4 5 6 
#
# 1 0.037774 -0.010902 -0.007168 0.000000 0.000000 0.000000
# 2 -0.010902 0.037767 -0.007167 0.000000 0.000000 0.000000
# 3 -0.007168 -0.007167 0.013235 0.000000 0.000000 0.000000
# 4 0.000000 0.000000 0.000000 0.050497 0.000000 0.000000
# 5 0.000000 0.000000 0.000000 0.000000 0.050501 0.000000
# 6 0.000000 0.000000 0.000000 0.000000 0.000000 0.068975
#
#
# Mechanical properties :
#
#
# Convention : Reuss Voigt Hill
#
# Bulk Modulus (GPa) = 26.10837 36.03571 31.07204
# Shear Modulus (GPa) = 15.52833 17.92413 16.72623
#
# Velocity S-wave (km/s) = 2.73918 2.94292 2.84288
# Velocity P-wave (km/s) = 4.75599 5.38143 5.07835
#
# Compressibility (1/GPa) = 0.03830189
#
# Stress axis : x y z
#
# Youngs Moduli (GPa) = 26.47313 26.47781 75.55499
#
# Poissons Ratio (x) = 0.28867 0.54156
# Poissons Ratio (y) = 0.28862 0.54153
# Poissons Ratio (z) = 0.18975 0.18978
#
# Static dielectric constant tensor:
#      x y z
#    x 1.753590 0.000000 0.000000 
#    y 0.000000 1.753590 0.000000 
#    z 0.000000 0.000000 1.896820 
# 
# From -- ./inp_files/2317.got.cif
#   From: 2010.05.17/outbox.ucp.g08.bks.cvg/sg92_2_cif.got.tgz:2317.got - 2010.06.11 10:36:43.
