data_PCOD9549059
_publ_section_title
;
Structure prediction by ZEFSAII (Michael W. Deem and Ramdas Pophale) SiO2 
 PCOD9549059
Probable space group: P 41 21 2
;
_chemical_formula_sum "Si O2"
_cell_formula_units_Z 32
_cell_length_a 10.007341
_cell_length_b 10.007341
_cell_length_c 11.835360
_cell_angle_alpha 90.000000
_cell_angle_beta 90.000000
_cell_angle_gamma 90.000000
_cell_volume 1185.274305
_symmetry_space_group_name_H-M "P 41 21 2"
_symmetry_group_IT_number 92
_symmetry_cell_setting 'tetragonal'
loop_
_space_group_symop_operation_xyz
x,y,z
1/2-y,1/2+x,1/4+z
-x,-y,1/2+z
1/2+y,1/2-x,3/4+z
1/2+x,1/2-y,3/4-z
1/2-x,1/2+y,1/4-z
y,x,-z
-y,-x,1/2-z
loop_
_atom_site_type_symbol
_atom_site_label
_atom_site_fract_x
_atom_site_fract_y
_atom_site_fract_z
Si Si1 0.282157 0.282157 0.000000
Si Si2 0.429399 0.220506 0.381625
Si Si3 0.038652 0.038652 0.500000
Si Si4 0.189464 0.397857 0.368057
Si Si5 0.470137 0.715677 0.365514
O O1 0.247008 0.185505 0.105194
O O2 0.247604 0.434179 0.032365
O O3 0.502455 0.316972 0.292610
O O4 0.272197 0.254323 0.363526
O O5 0.528741 0.095460 0.365999
O O6 0.455690 0.247143 0.514722
O O7 0.941500 0.997140 0.601494
O O8 0.225956 0.471130 0.252567
#
# Coordination Sequence:
#
# PCOD9549059 Si02
#       5
#     4   8   4   8   8
#     4  11  24  46  70  99 136 180 230 283 344 414
#     4  10  20  39  66  99 136 178 228 282 339 409
#     4   9  20  38  64  97 130 184 230 259 334 428
#     4  10  21  39  66  97 135 177 226 281 343 412
#     4  10  23  42  67  96 132 178 228 282 343 409
#
# _framework density 26.997973000000002
#
# number of rings (size 3 to 8) (size 9 to 14) (size 15 to 20)
#    0.000    2.000    0.000    3.000    0.000   10.000 
#    0.000   22.500    0.000    0.000    0.000    0.000 
#    0.000    0.000    0.000    0.000    0.000    0.000 
#
# Total GULP energy -178377.989622 kJ/mol
# GULP energy per Si atom -5574.312176 kJ/mol
# Density = 2.693652 g / cm^3
# Si number density = 26.997973 Si / 1000 Ang^3
#
#
#
# Elastic Constant Matrix: (Units=GPa)
#
#
# Indices 1 2 3 4 5 6 
#
# 1 39.5454 25.3202 10.3058 0.0000 0.0000 0.0000
# 2 25.3202 39.5454 10.3058 0.0000 0.0000 0.0000
# 3 10.3058 10.3058 94.6851 0.0000 0.0000 0.0000
# 4 0.0000 0.0000 0.0000 26.6223 0.0000 0.0000
# 5 0.0000 0.0000 0.0000 0.0000 26.6223 0.0000
# 6 0.0000 0.0000 0.0000 0.0000 0.0000 31.7849
#
#
#
# Elastic Compliance Matrix: (Units=1/GPa)
#
#
# Indices 1 2 3 4 5 6 
#
# 1 0.043133 -0.027165 -0.001738 0.000000 0.000000 0.000000
# 2 -0.027165 0.043133 -0.001738 0.000000 0.000000 0.000000
# 3 -0.001738 -0.001738 0.010940 0.000000 0.000000 0.000000
# 4 0.000000 0.000000 0.000000 0.037563 0.000000 0.000000
# 5 0.000000 0.000000 0.000000 0.000000 0.037563 0.000000
# 6 0.000000 0.000000 0.000000 0.000000 0.000000 0.031462
#
#
# Mechanical properties :
#
#
# Convention : Reuss Voigt Hill
#
# Bulk Modulus (GPa) = 27.83586 29.51551 28.67568
# Shear Modulus (GPa) = 18.04733 25.52882 21.78808
#
# Velocity S-wave (km/s) = 2.58828 3.07837 2.84390
# Velocity P-wave (km/s) = 4.38919 4.85709 4.62906
#
# Compressibility (1/GPa) = 0.03592489
#
# Stress axis : x y z
#
# Youngs Moduli (GPa) = 23.18393 23.18393 91.41035
#
# Poissons Ratio (x) = 0.62978 0.15888
# Poissons Ratio (y) = 0.62978 0.15888
# Poissons Ratio (z) = 0.04030 0.04030
#
# Static dielectric constant tensor:
#      x y z
#    x 2.252910 0.000000 0.000000 
#    y 0.000000 2.252910 0.000000 
#    z 0.000000 0.000000 2.043850 
# 
# From -- ./inp_files/1957.got.cif
#   From: 2010.05.17/outbox.cif.g08.bks.cpg/sg92_1_cif.got.tgz:1957.got - 2010.06.03 19:35:17.
