data_PCOD9549761
_publ_section_title
;
Structure prediction by ZEFSAII (Michael W. Deem and Ramdas Pophale) SiO2 
 PCOD9549761
Probable space group: P 42 2 2
;
_chemical_formula_sum "Si O2"
_cell_formula_units_Z 64
_cell_length_a 11.946196
_cell_length_b 11.946196
_cell_length_c 21.485662
_cell_angle_alpha 90.000000
_cell_angle_beta 90.000000
_cell_angle_gamma 90.000000
_cell_volume 3066.253177
_symmetry_space_group_name_H-M "P 42 2 2"
_symmetry_group_IT_number 93
_symmetry_cell_setting 'tetragonal'
loop_
_space_group_symop_operation_xyz
x,y,z
-y,x,1/2+z
-x,-y,z
y,-x,1/2+z
x,-y,-z
-x,y,-z
y,x,1/2-z
-y,-x,1/2-z
loop_
_atom_site_type_symbol
_atom_site_label
_atom_site_fract_x
_atom_site_fract_y
_atom_site_fract_z
Si Si1 0.558198 0.340858 0.567551
Si Si2 0.369522 0.030644 0.569534
Si Si3 0.786172 0.389802 0.528024
Si Si4 0.313642 0.833892 0.647159
Si Si5 0.712105 0.326357 0.093945
Si Si6 0.486526 0.871776 0.750820
Si Si7 0.147921 0.724339 0.296628
Si Si8 0.099961 0.690457 0.647310
O O1 0.500000 0.332246 0.500000
O O2 0.666979 0.422144 0.563070
O O3 0.625912 0.232062 0.590503
O O4 0.443952 0.353906 0.607096
O O5 0.362626 0.160772 0.582284
O O6 0.500000 0.000000 0.572789
O O7 0.328864 0.000000 0.500000
O O8 0.305614 0.959696 0.622158
O O9 0.840203 0.500000 0.500000
O O10 0.739628 0.323144 0.468689
O O11 0.872330 0.330195 0.574535
O O12 0.399679 0.818477 0.703495
O O13 0.194513 0.781601 0.664276
O O14 0.713528 0.237937 0.148949
O O15 0.612161 0.831239 0.756031
O O16 0.426184 0.871775 0.817837
O O17 0.500000 0.000000 0.730115
O O18 0.173343 0.826658 0.250000
O O19 0.023647 0.721443 0.327642
#
# Coordination Sequence:
#
# PCOD9549761 Si02
#       8
#     8   8   8   8   8   8   8   8
#     4   9  18  32  55  92 124 157 202 260 324 394
#     4  11  21  33  62  96 128 165 215 267 318 392
#     4  10  21  39  65  94 133 174 214 277 343 406
#     4  11  20  36  64  91 124 162 214 272 328 384
#     4  11  22  37  61  95 132 168 219 272 339 401
#     4  10  22  40  64  89 114 162 222 271 321 388
#     4  11  25  43  65  93 132 173 223 283 336 405
#     4  10  23  42  65  93 128 171 227 276 333 410
#
# _framework density 20.87238
#
# number of rings (size 3 to 8) (size 9 to 14) (size 15 to 20)
#    0.000    1.625    1.250    4.500    5.250    2.750 
#    0.000    1.250    2.750    6.750    0.000    0.000 
#    0.000    0.000    0.000    0.000    0.000    0.000 
#
# Total GULP energy -356874.626587 kJ/mol
# GULP energy per Si atom -5576.166040 kJ/mol
# Density = 2.082487 g / cm^3
# Si number density = 20.872380 Si / 1000 Ang^3
#
#
#
# Elastic Constant Matrix: (Units=GPa)
#
#
# Indices 1 2 3 4 5 6 
#
# 1 87.5415 38.8358 35.9792 0.0000 0.0000 0.0000
# 2 38.8358 87.5402 35.9792 0.0000 0.0000 0.0000
# 3 35.9792 35.9792 79.8657 0.0000 0.0000 0.0000
# 4 0.0000 0.0000 0.0000 23.0196 0.0000 0.0000
# 5 0.0000 0.0000 0.0000 0.0000 23.0201 0.0000
# 6 0.0000 0.0000 0.0000 0.0000 0.0000 2.8396
#
#
#
# Elastic Compliance Matrix: (Units=1/GPa)
#
#
# Indices 1 2 3 4 5 6 
#
# 1 0.015587 -0.004944 -0.004794 0.000000 0.000000 0.000000
# 2 -0.004944 0.015587 -0.004795 0.000000 0.000000 0.000000
# 3 -0.004794 -0.004795 0.016841 0.000000 0.000000 0.000000
# 4 0.000000 0.000000 0.000000 0.043441 0.000000 0.000000
# 5 0.000000 0.000000 0.000000 0.000000 0.043440 0.000000
# 6 0.000000 0.000000 0.000000 0.000000 0.000000 0.352159
#
#
# Mechanical properties :
#
#
# Convention : Reuss Voigt Hill
#
# Bulk Modulus (GPa) = 52.77508 52.94843 52.86175
# Shear Modulus (GPa) = 9.57049 19.38607 14.47828
#
# Velocity S-wave (km/s) = 2.14364 3.05091 2.63659
# Velocity P-wave (km/s) = 5.60950 6.15090 5.88643
#
# Compressibility (1/GPa) = 0.01894834
#
# Stress axis : x y z
#
# Youngs Moduli (GPa) = 64.15539 64.15417 59.37929
#
# Poissons Ratio (x) = 0.31721 0.28469
# Poissons Ratio (y) = 0.31721 0.28470
# Poissons Ratio (z) = 0.30759 0.30760
#
# Static dielectric constant tensor:
#      x y z
#    x 1.792550 0.000000 0.000000 
#    y 0.000000 1.792550 0.000000 
#    z 0.000000 0.000000 1.845380 
# 
# From -- ./inp_files/6953.got.cif
#   From: 2010.05.17/outbox.cif.g08.bks.cpg/sg93_4_cif.got.tgz:6953.got - 2010.06.03 19:38:44.
