data_PCOD9549173
_publ_section_title
;
Structure prediction by ZEFSAII (Michael W. Deem and Ramdas Pophale) SiO2 
 PCOD9549173
Probable space group: P 41 21 2
;
_chemical_formula_sum "Si O2"
_cell_formula_units_Z 32
_cell_length_a 17.810972
_cell_length_b 17.810972
_cell_length_c 5.138312
_cell_angle_alpha 90.000000
_cell_angle_beta 90.000000
_cell_angle_gamma 90.000000
_cell_volume 1630.030434
_symmetry_space_group_name_H-M "P 41 21 2"
_symmetry_group_IT_number 92
_symmetry_cell_setting 'tetragonal'
loop_
_space_group_symop_operation_xyz
x,y,z
1/2-y,1/2+x,1/4+z
-x,-y,1/2+z
1/2+y,1/2-x,3/4+z
1/2+x,1/2-y,3/4-z
1/2-x,1/2+y,1/4-z
y,x,-z
-y,-x,1/2-z
loop_
_atom_site_type_symbol
_atom_site_label
_atom_site_fract_x
_atom_site_fract_y
_atom_site_fract_z
Si Si1 0.739682 0.896249 0.362597
Si Si2 0.728271 0.152363 0.863009
Si Si3 0.037961 0.037961 0.500000
Si Si4 0.272597 0.727404 0.750000
Si Si5 0.015638 0.214346 0.621264
O O1 0.667536 0.849651 0.462740
O O2 0.789420 0.829260 0.233667
O O3 0.771855 0.941335 0.607283
O O4 0.735756 0.950196 0.113484
O O5 0.792359 0.207642 0.750000
O O6 0.759736 0.069784 0.850695
O O7 0.716585 0.188113 0.149597
O O8 0.023130 0.126746 0.542594
O O9 0.007067 0.992933 0.750000
#
# Coordination Sequence:
#
# PCOD9549173 Si02
#       5
#     8   8   4   4   8
#     4  11  24  41  66  99 126 171 232 281 331 390
#     4  10  24  42  68  98 138 176 228 283 342 408
#     4  12  27  42  60  96 148 180 213 256 350 426
#     4  10  21  42  68  96 136 172 235 282 330 408
#     4  12  26  41  71  98 139 179 227 280 344 409
#
# _framework density 19.631535
#
# number of rings (size 3 to 8) (size 9 to 14) (size 15 to 20)
#    0.000    1.000    2.500    3.000   15.750    0.000 
#    0.000    0.000    0.000    3.000    0.000    0.000 
#    0.000    0.000    0.000    0.000    0.000    0.000 
#
# Total GULP energy -178552.792866 kJ/mol
# GULP energy per Si atom -5579.774777 kJ/mol
# Density = 1.958685 g / cm^3
# Si number density = 19.631535 Si / 1000 Ang^3
#
#
#
# Elastic Constant Matrix: (Units=GPa)
#
#
# Indices 1 2 3 4 5 6 
#
# 1 129.2853 64.6290 59.7639 0.0000 0.0000 0.0000
# 2 64.6290 129.2882 59.7652 0.0000 0.0000 0.0000
# 3 59.7639 59.7652 170.8918 0.0000 0.0000 0.0000
# 4 0.0000 0.0000 0.0000 25.2922 0.0000 0.0000
# 5 0.0000 0.0000 0.0000 0.0000 25.2914 0.0000
# 6 0.0000 0.0000 0.0000 0.0000 0.0000 28.4034
#
#
#
# Elastic Compliance Matrix: (Units=1/GPa)
#
#
# Indices 1 2 3 4 5 6 
#
# 1 0.011020 -0.004446 -0.002299 0.000000 0.000000 0.000000
# 2 -0.004446 0.011020 -0.002299 0.000000 0.000000 0.000000
# 3 -0.002299 -0.002299 0.007460 0.000000 0.000000 0.000000
# 4 0.000000 0.000000 0.000000 0.039538 0.000000 0.000000
# 5 0.000000 0.000000 0.000000 0.000000 0.039539 0.000000
# 6 0.000000 0.000000 0.000000 0.000000 0.000000 0.035207
#
#
# Mechanical properties :
#
#
# Convention : Reuss Voigt Hill
#
# Bulk Modulus (GPa) = 87.63117 88.64240 88.13678
# Shear Modulus (GPa) = 30.17936 32.15120 31.16528
#
# Velocity S-wave (km/s) = 3.92508 4.05128 3.98868
# Velocity P-wave (km/s) = 8.07939 8.19359 8.13669
#
# Compressibility (1/GPa) = 0.01141146
#
# Stress axis : x y z
#
# Youngs Moduli (GPa) = 90.74295 90.74464 134.05307
#
# Poissons Ratio (x) = 0.40345 0.30820
# Poissons Ratio (y) = 0.40344 0.30820
# Poissons Ratio (z) = 0.20862 0.20863
#
# Static dielectric constant tensor:
#      x y z
#    x 1.706480 0.000000 0.000000 
#    y 0.000000 1.706470 0.000000 
#    z 0.000000 0.000000 1.789860 
# 
# From -- ./inp_files/368.got.cif
#   From: 2010.05.17/outbox.cif.g08.bks.cpg/sg92_1_cif.got.tgz:368.got - 2010.06.03 19:35:17.
