data_PCOD9549814
_publ_section_title
;
Structure prediction by ZEFSAII (Michael W. Deem and Ramdas Pophale) SiO2 
 PCOD9549814
Probable space group: P 42 2 2
;
_chemical_formula_sum "Si O2"
_cell_formula_units_Z 36
_cell_length_a 8.713662
_cell_length_b 8.713662
_cell_length_c 20.026062
_cell_angle_alpha 90.000000
_cell_angle_beta 90.000000
_cell_angle_gamma 90.000000
_cell_volume 1520.536942
_symmetry_space_group_name_H-M "P 42 2 2"
_symmetry_group_IT_number 93
_symmetry_cell_setting 'tetragonal'
loop_
_space_group_symop_operation_xyz
x,y,z
-y,x,1/2+z
-x,-y,z
y,-x,1/2+z
x,-y,-z
-x,y,-z
y,x,1/2-z
-y,-x,1/2-z
loop_
_atom_site_type_symbol
_atom_site_label
_atom_site_fract_x
_atom_site_fract_y
_atom_site_fract_z
Si Si1 0.000000 0.000000 0.887962
Si Si2 0.722749 0.277252 0.750000
Si Si3 0.756125 0.165840 0.519944
Si Si4 0.461280 0.668192 0.620489
Si Si5 0.738477 0.201603 0.128907
Si Si6 0.000000 0.500000 0.709609
O O1 0.883703 0.100008 0.933534
O O2 0.106320 0.116258 0.848584
O O3 0.647545 0.341945 0.683632
O O4 0.896173 0.361559 0.745552
O O5 0.629521 0.247302 0.563132
O O6 0.800513 0.256272 0.452675
O O7 0.692807 0.000000 0.500000
O O8 0.500000 0.500000 0.595415
O O9 0.619059 0.744399 0.644354
O O10 0.596845 0.116458 0.162680
#
# Coordination Sequence:
#
# PCOD9549814 Si02
#       6
#     4   4   8   8   8   4
#     4  10  23  44  68 113 158 203 244 310 387 482
#     4  12  29  54  76 107 154 209 274 314 391 466
#     4  10  23  46  75 113 157 196 253 316 395 470
#     4  12  26  48  76 110 153 205 253 319 383 470
#     4  11  24  44  73 108 153 193 256 318 398 460
#     4  12  28  50  79 114 151 212 260 336 392 468
#
# _framework density 23.675844999999999
#
# number of rings (size 3 to 8) (size 9 to 14) (size 15 to 20)
#    0.000    0.889    2.222    5.333    0.000   13.333 
#    4.000    0.000    0.000   12.667    0.000    0.000 
#    0.000    0.000    0.000    0.000    0.000    0.000 
#
# Total GULP energy -200967.811704 kJ/mol
# GULP energy per Si atom -5582.439214 kJ/mol
# Density = 2.362196 g / cm^3
# Si number density = 23.675845 Si / 1000 Ang^3
#
#
#
# Elastic Constant Matrix: (Units=GPa)
#
#
# Indices 1 2 3 4 5 6 
#
# 1 91.0893 120.7299 47.3887 0.0000 0.0000 0.0000
# 2 120.7299 91.0903 47.3901 0.0000 0.0000 0.0000
# 3 47.3887 47.3901 57.4133 0.0000 0.0000 0.0000
# 4 0.0000 0.0000 0.0000 39.3286 0.0000 0.0000
# 5 0.0000 0.0000 0.0000 0.0000 39.3285 0.0000
# 6 0.0000 0.0000 0.0000 0.0000 0.0000 52.3422
#
#
#
# Elastic Compliance Matrix: (Units=1/GPa)
#
#
# Indices 1 2 3 4 5 6 
#
# 1 -0.013126 0.020612 -0.006179 0.000000 0.000000 0.000000
# 2 0.020612 -0.013126 -0.006178 0.000000 0.000000 0.000000
# 3 -0.006179 -0.006178 0.027617 0.000000 0.000000 0.000000
# 4 0.000000 0.000000 0.000000 0.025427 0.000000 0.000000
# 5 0.000000 0.000000 0.000000 0.000000 0.025427 0.000000
# 6 0.000000 0.000000 0.000000 0.000000 0.000000 0.019105
#
#
# Mechanical properties :
#
#
# Convention : Reuss Voigt Hill
#
# Bulk Modulus (GPa) = 55.94744 74.51227 65.22986
# Shear Modulus (GPa) = 82.27344 27.80548 55.03946
#
# Velocity S-wave (km/s) = 5.90130 3.43070 4.82675
# Velocity P-wave (km/s) = 8.37351 6.87264 7.65993
#
# Compressibility (1/GPa) = 0.01787392
#
# Stress axis : x y z
#
# Youngs Moduli (GPa) = -76.18440 -76.18266 36.20893
#
# Poissons Ratio (x) = 1.57027 0.22374
# Poissons Ratio (y) = 1.57030 0.22371
# Poissons Ratio (z) = -0.47076 -0.47067
#
# Static dielectric constant tensor:
#      x y z
#    x 1.910990 0.000000 0.000000 
#    y 0.000000 1.911000 0.000000 
#    z 0.000000 0.000000 1.842070 
# 
# From -- ./inp_files/6100.got.cif
#   From: 2010.05.17/outbox.cif.g08.bks.cpg/sg93_4_cif.got.tgz:6100.got - 2010.06.03 19:38:44.
