data_PCOD9549309
_publ_section_title
;
Structure prediction by ZEFSAII (Michael W. Deem and Ramdas Pophale) SiO2 
 PCOD9549309
Probable space group: P 41 21 2
;
_chemical_formula_sum "Si O2"
_cell_formula_units_Z 20
_cell_length_a 8.943168
_cell_length_b 8.943168
_cell_length_c 8.761812
_cell_angle_alpha 90.000000
_cell_angle_beta 90.000000
_cell_angle_gamma 90.000000
_cell_volume 700.771948
_symmetry_space_group_name_H-M "P 41 21 2"
_symmetry_group_IT_number 92
_symmetry_cell_setting 'tetragonal'
loop_
_space_group_symop_operation_xyz
x,y,z
1/2-y,1/2+x,1/4+z
-x,-y,1/2+z
1/2+y,1/2-x,3/4+z
1/2+x,1/2-y,3/4-z
1/2-x,1/2+y,1/4-z
y,x,-z
-y,-x,1/2-z
loop_
_atom_site_type_symbol
_atom_site_label
_atom_site_fract_x
_atom_site_fract_y
_atom_site_fract_z
Si Si1 0.854790 0.145211 0.750000
Si Si2 0.672632 0.373580 0.917348
Si Si3 0.368687 0.124542 0.452160
O O1 0.793195 0.244022 0.888341
O O2 0.030466 0.170038 0.730374
O O3 0.601786 0.398215 0.750000
O O4 0.760381 0.516530 0.965610
O O5 0.464882 0.114441 0.291263
O O6 0.213785 0.213785 0.500000
#
# Coordination Sequence:
#
# PCOD9549309 Si02
#       3
#     4   8   8
#     4  10  22  46  78 110 166 216 290 350 438 526
#     4  10  23  47  80 119 164 231 285 367 442 532
#     4  12  30  60  89 134 181 240 307 376 456 546
#
# _framework density 28.539952
#
# number of rings (size 3 to 8) (size 9 to 14) (size 15 to 20)
#    1.200    0.000    2.000    2.400    0.000    8.000 
#    7.200    0.000    0.000    0.000    0.000    0.000 
#    0.000    0.000    0.000    0.000    0.000    0.000 
#
# Total GULP energy -111766.661612 kJ/mol
# GULP energy per Si atom -5588.333081 kJ/mol
# Density = 2.847499 g / cm^3
# Si number density = 28.539952 Si / 1000 Ang^3
#
#
#
# Elastic Constant Matrix: (Units=GPa)
#
#
# Indices 1 2 3 4 5 6 
#
# 1 198.1236 64.7359 19.1025 0.0000 0.0000 0.0000
# 2 64.7359 198.1216 19.1021 0.0000 0.0000 0.0000
# 3 19.1025 19.1021 67.5999 0.0000 0.0000 0.0000
# 4 0.0000 0.0000 0.0000 41.6288 0.0000 0.0000
# 5 0.0000 0.0000 0.0000 0.0000 41.6291 0.0000
# 6 0.0000 0.0000 0.0000 0.0000 0.0000 44.9092
#
#
#
# Elastic Compliance Matrix: (Units=1/GPa)
#
#
# Indices 1 2 3 4 5 6 
#
# 1 0.005732 -0.001765 -0.001121 0.000000 0.000000 0.000000
# 2 -0.001765 0.005732 -0.001121 0.000000 0.000000 0.000000
# 3 -0.001121 -0.001121 0.015426 0.000000 0.000000 0.000000
# 4 0.000000 0.000000 0.000000 0.024022 0.000000 0.000000
# 5 0.000000 0.000000 0.000000 0.000000 0.024022 0.000000
# 6 0.000000 0.000000 0.000000 0.000000 0.000000 0.022267
#
#
# Mechanical properties :
#
#
# Convention : Reuss Voigt Hill
#
# Bulk Modulus (GPa) = 52.97515 74.41399 63.69457
# Shear Modulus (GPa) = 44.84000 49.69376 47.26688
#
# Velocity S-wave (km/s) = 3.96805 4.17730 4.07402
# Velocity P-wave (km/s) = 6.29253 7.02827 6.67055
#
# Compressibility (1/GPa) = 0.01887678
#
# Stress axis : x y z
#
# Youngs Moduli (GPa) = 174.45600 174.45436 64.82354
#
# Poissons Ratio (x) = 0.30789 0.07267
# Poissons Ratio (y) = 0.30789 0.07267
# Poissons Ratio (z) = 0.19558 0.19557
#
# Static dielectric constant tensor:
#      x y z
#    x 2.304320 0.000000 0.000000 
#    y 0.000000 2.304330 0.000000 
#    z 0.000000 0.000000 -30.849580 
# 
# From -- ./inp_files/1794.got.cif
#   From: 2010.05.17/outbox.cif.g08.bks.cpg/sg92_1_cif.got.tgz:1794.got - 2010.06.03 19:35:17.
