data_PCOD9549665
_publ_section_title
;
Structure prediction by ZEFSAII (Michael W. Deem and Ramdas Pophale) SiO2 
 PCOD9549665
Probable space group: P 42 2 2
;
_chemical_formula_sum "Si O2"
_cell_formula_units_Z 48
_cell_length_a 8.654920
_cell_length_b 8.654920
_cell_length_c 28.871713
_cell_angle_alpha 90.000000
_cell_angle_beta 90.000000
_cell_angle_gamma 90.000000
_cell_volume 2162.711890
_symmetry_space_group_name_H-M "P 42 2 2"
_symmetry_group_IT_number 93
_symmetry_cell_setting 'tetragonal'
loop_
_space_group_symop_operation_xyz
x,y,z
-y,x,1/2+z
-x,-y,z
y,-x,1/2+z
x,-y,-z
-x,y,-z
y,x,1/2-z
-y,-x,1/2-z
loop_
_atom_site_type_symbol
_atom_site_label
_atom_site_fract_x
_atom_site_fract_y
_atom_site_fract_z
Si Si1 0.051104 0.679402 0.094207
Si Si2 0.124752 0.127066 0.826376
Si Si3 0.286918 0.749889 0.910647
Si Si4 0.294465 0.252490 0.977484
Si Si5 0.000000 0.500000 0.427543
Si Si6 0.683566 0.948011 0.246524
Si Si7 0.500000 0.500000 0.576104
O O1 0.887782 0.759699 0.102754
O O2 0.000000 0.500000 0.096337
O O3 0.165244 0.754960 0.132074
O O4 0.127569 0.721754 0.045271
O O5 0.038613 0.231855 0.788150
O O6 0.257117 0.030657 0.800467
O O7 0.000000 0.000000 0.841690
O O8 0.392890 0.891206 0.897389
O O9 0.376724 0.597372 0.895061
O O10 0.288656 0.744485 0.967272
O O11 0.397741 0.388741 0.955871
O O12 0.382111 0.101815 0.958265
O O13 0.773296 0.773296 0.250000
O O14 0.500000 0.000000 0.250649
#
# Coordination Sequence:
#
# PCOD9549665 Si02
#       7
#     8   8   8   8   4   8   4
#     4  12  25  37  58  90 127 164 212 269 313 375
#     4   9  21  41  64  93 129 172 201 245 312 382
#     4  11  21  37  59  81 115 165 220 272 322 382
#     4  11  21  37  57  83 115 163 219 270 327 377
#     4  10  23  40  58  80 112 160 218 280 330 382
#     4   9  18  41  76 101 130 167 211 248 307 391
#     4  10  19  36  58  76 112 165 218 267 328 382
#
# _framework density 22.194358000000001
#
# number of rings (size 3 to 8) (size 9 to 14) (size 15 to 20)
#    0.000    1.667    1.667    6.000    2.333    0.667 
#    1.500    5.000    0.000    0.000    0.000    0.000 
#    0.000    0.000    0.000    0.000    0.000    0.000 
#
# Total GULP energy -267633.960311 kJ/mol
# GULP energy per Si atom -5575.707506 kJ/mol
# Density = 2.214384 g / cm^3
# Si number density = 22.194358 Si / 1000 Ang^3
#
#
#
# Elastic Constant Matrix: (Units=GPa)
#
#
# Indices 1 2 3 4 5 6 
#
# 1 144.0998 52.8554 20.6516 0.0000 0.0000 0.0000
# 2 52.8554 144.0998 20.6516 0.0000 0.0000 0.0000
# 3 20.6516 20.6516 51.6112 0.0000 0.0000 0.0000
# 4 0.0000 0.0000 0.0000 15.0287 0.0000 0.0000
# 5 0.0000 0.0000 0.0000 0.0000 15.0287 0.0000
# 6 0.0000 0.0000 0.0000 0.0000 0.0000 9.4293
#
#
#
# Elastic Compliance Matrix: (Units=1/GPa)
#
#
# Indices 1 2 3 4 5 6 
#
# 1 0.008251 -0.002709 -0.002218 0.000000 0.000000 0.000000
# 2 -0.002709 0.008251 -0.002218 0.000000 0.000000 0.000000
# 3 -0.002218 -0.002218 0.021150 0.000000 0.000000 0.000000
# 4 0.000000 0.000000 0.000000 0.066539 0.000000 0.000000
# 5 0.000000 0.000000 0.000000 0.000000 0.066539 0.000000
# 6 0.000000 0.000000 0.000000 0.000000 0.000000 0.106052
#
#
# Mechanical properties :
#
#
# Convention : Reuss Voigt Hill
#
# Bulk Modulus (GPa) = 42.80030 58.68087 50.74058
# Shear Modulus (GPa) = 16.73028 24.27416 20.50222
#
# Velocity S-wave (km/s) = 2.74853 3.31071 3.04264
# Velocity P-wave (km/s) = 5.42206 6.41182 5.93760
#
# Compressibility (1/GPa) = 0.02336432
#
# Stress axis : x y z
#
# Youngs Moduli (GPa) = 121.19789 121.19789 47.28039
#
# Poissons Ratio (x) = 0.32828 0.10485
# Poissons Ratio (y) = 0.32828 0.10485
# Poissons Ratio (z) = 0.26878 0.26878
#
# Static dielectric constant tensor:
#      x y z
#    x 1.900220 0.000000 0.000000 
#    y 0.000000 1.900220 0.000000 
#    z 0.000000 0.000000 1.837970 
# 
# From -- ./inp_files/7826.got.cif
#   From: 2010.05.17/outbox.cif.g08.bks.cpg/sg93_4_cif.got.tgz:7826.got - 2010.06.03 19:38:44.
