data_PCOD9549116
_publ_section_title
;
Structure prediction by ZEFSAII (Michael W. Deem and Ramdas Pophale) SiO2 
 PCOD9549116
Probable space group: P 41 21 2
;
_chemical_formula_sum "Si O2"
_cell_formula_units_Z 48
_cell_length_a 20.711681
_cell_length_b 20.711681
_cell_length_c 5.340726
_cell_angle_alpha 90.000000
_cell_angle_beta 90.000000
_cell_angle_gamma 90.000000
_cell_volume 2291.031152
_symmetry_space_group_name_H-M "P 41 21 2"
_symmetry_group_IT_number 92
_symmetry_cell_setting 'tetragonal'
loop_
_space_group_symop_operation_xyz
x,y,z
1/2-y,1/2+x,1/4+z
-x,-y,1/2+z
1/2+y,1/2-x,3/4+z
1/2+x,1/2-y,3/4-z
1/2-x,1/2+y,1/4-z
y,x,-z
-y,-x,1/2-z
loop_
_atom_site_type_symbol
_atom_site_label
_atom_site_fract_x
_atom_site_fract_y
_atom_site_fract_z
Si Si1 0.283966 0.204117 0.705591
Si Si2 0.103857 0.362628 0.620245
Si Si3 0.795116 0.599010 0.519105
Si Si4 0.467545 0.089033 0.740861
Si Si5 0.760589 0.978547 0.924766
Si Si6 0.592929 0.307612 0.671673
O O1 0.244257 0.244257 0.500000
O O2 0.331705 0.156279 0.563033
O O3 0.338366 0.240547 0.867111
O O4 0.236855 0.155976 0.858322
O O5 0.081007 0.431034 0.522063
O O6 0.046296 0.313143 0.576027
O O7 0.145659 0.368588 0.868341
O O8 0.835955 0.547641 0.691539
O O9 0.747085 0.555363 0.354332
O O10 0.540045 0.066825 0.684972
O O11 0.786700 0.946071 0.668905
O O12 0.797669 0.950917 0.170476
O O13 0.623360 0.376641 0.750000
#
# Coordination Sequence:
#
# PCOD9549116 Si02
#       6
#     8   8   8   8   8   8
#     4  10  22  37  61  85 114 159 210 260 319 376
#     4  10  21  38  53  77 112 158 210 260 307 367
#     4  11  23  37  55  80 119 157 205 263 315 375
#     4  11  25  34  48  72 109 163 220 265 304 347
#     4  11  23  36  61  83 119 157 206 257 319 364
#     4  11  22  41  61  87 112 158 213 264 307 372
#
# _framework density 20.951264999999999
#
# number of rings (size 3 to 8) (size 9 to 14) (size 15 to 20)
#    0.000    1.333    1.667    4.500   14.000    0.000 
#    0.000    0.000    0.000    0.000    0.000    0.000 
#    0.000    0.000    5.667    0.167    0.000    0.500 
#
# Total GULP energy -267367.961189 kJ/mol
# GULP energy per Si atom -5570.165858 kJ/mol
# Density = 2.090358 g / cm^3
# Si number density = 20.951265 Si / 1000 Ang^3
#
#
#
# Elastic Constant Matrix: (Units=GPa)
#
#
# Indices 1 2 3 4 5 6 
#
# 1 35.9725 11.9055 17.5401 0.0000 0.0000 0.0000
# 2 11.9055 35.9716 17.5397 0.0000 0.0000 0.0000
# 3 17.5401 17.5397 105.7547 0.0000 0.0000 0.0000
# 4 0.0000 0.0000 0.0000 8.4763 0.0000 0.0000
# 5 0.0000 0.0000 0.0000 0.0000 8.4632 0.0000
# 6 0.0000 0.0000 0.0000 0.0000 0.0000 4.1436
#
#
#
# Elastic Compliance Matrix: (Units=1/GPa)
#
#
# Indices 1 2 3 4 5 6 
#
# 1 0.032663 -0.008888 -0.003943 0.000000 0.000000 0.000000
# 2 -0.008888 0.032664 -0.003943 0.000000 0.000000 0.000000
# 3 -0.003943 -0.003943 0.010764 0.000000 0.000000 0.000000
# 4 0.000000 0.000000 0.000000 0.117977 0.000000 0.000000
# 5 0.000000 0.000000 0.000000 0.000000 0.118159 0.000000
# 6 0.000000 0.000000 0.000000 0.000000 0.000000 0.241337
#
#
# Mechanical properties :
#
#
# Convention : Reuss Voigt Hill
#
# Bulk Modulus (GPa) = 23.50601 30.18551 26.84576
# Shear Modulus (GPa) = 8.31540 12.93083 10.62312
#
# Velocity S-wave (km/s) = 1.99438 2.48702 2.25420
# Velocity P-wave (km/s) = 4.06782 4.76296 4.42905
#
# Compressibility (1/GPa) = 0.04254230
#
# Stress axis : x y z
#
# Youngs Moduli (GPa) = 30.61542 30.61467 92.90320
#
# Poissons Ratio (x) = 0.27210 0.36635
# Poissons Ratio (y) = 0.27210 0.36635
# Poissons Ratio (z) = 0.12073 0.12072
#
# Static dielectric constant tensor:
#      x y z
#    x 1.818260 0.000000 0.000000 
#    y 0.000000 1.818280 0.000000 
#    z 0.000000 0.000000 2.118390 
# 
# From -- ./inp_files/632.got.cif
#   From: 2010.05.17/outbox.cif.g08.bks.cpg/sg92_1_cif.got.tgz:632.got - 2010.06.03 19:35:17.
