data_PCOD9549330
_publ_section_title
;
Structure prediction by ZEFSAII (Michael W. Deem and Ramdas Pophale) SiO2 
 PCOD9549330
Probable space group: P 41 21 2
;
_chemical_formula_sum "Si O2"
_cell_formula_units_Z 40
_cell_length_a 18.767053
_cell_length_b 18.767053
_cell_length_c 5.054686
_cell_angle_alpha 90.000000
_cell_angle_beta 90.000000
_cell_angle_gamma 90.000000
_cell_volume 1780.271925
_symmetry_space_group_name_H-M "P 41 21 2"
_symmetry_group_IT_number 92
_symmetry_cell_setting 'tetragonal'
loop_
_space_group_symop_operation_xyz
x,y,z
1/2-y,1/2+x,1/4+z
-x,-y,1/2+z
1/2+y,1/2-x,3/4+z
1/2+x,1/2-y,3/4-z
1/2-x,1/2+y,1/4-z
y,x,-z
-y,-x,1/2-z
loop_
_atom_site_type_symbol
_atom_site_label
_atom_site_fract_x
_atom_site_fract_y
_atom_site_fract_z
Si Si1 0.469641 0.100340 0.376888
Si Si2 0.613463 0.170622 0.872316
Si Si3 0.842422 0.227815 0.501012
Si Si4 0.749460 0.997657 0.008655
Si Si5 0.864716 0.794300 0.752306
O O1 0.414056 0.097989 0.127638
O O2 0.481321 0.182437 0.447571
O O3 0.431186 0.046599 0.569729
O O4 0.632311 0.212754 0.604591
O O5 0.687957 0.171961 0.033332
O O6 0.550773 0.213099 0.027155
O O7 0.816971 0.183030 0.250000
O O8 0.926167 0.219615 0.568469
O O9 0.797301 0.202700 0.750000
O O10 0.804725 0.945734 0.151167
O O11 0.839617 0.839617 0.500000
O O12 0.815784 0.815784 0.000000
#
# Coordination Sequence:
#
# PCOD9549330 Si02
#       5
#     8   8   8   8   8
#     4   9  20  39  60  99 142 196 225 271 340 442
#     4  10  23  42  68 102 141 184 239 285 344 427
#     4  11  27  44  70 106 144 184 232 296 363 427
#     4  10  24  45  66 102 141 187 233 292 361 419
#     4  12  25  41  71 101 131 176 238 300 344 401
#
# _framework density 22.468478999999999
#
# number of rings (size 3 to 8) (size 9 to 14) (size 15 to 20)
#    0.000    1.600    2.000    0.600   11.200    0.000 
#    0.000    0.000    0.000    2.400    0.000    0.000 
#    0.000    0.000    0.000    0.000    0.000    0.000 
#
# Total GULP energy -223363.822640 kJ/mol
# GULP energy per Si atom -5584.095566 kJ/mol
# Density = 2.241734 g / cm^3
# Si number density = 22.468479 Si / 1000 Ang^3
#
#
#
# Elastic Constant Matrix: (Units=GPa)
#
#
# Indices 1 2 3 4 5 6 
#
# 1 114.3580 33.1485 42.6412 0.0000 0.0000 0.0000
# 2 33.1485 114.3554 42.6410 0.0000 0.0000 0.0000
# 3 42.6412 42.6410 118.9174 0.0000 0.0000 0.0000
# 4 0.0000 0.0000 0.0000 19.9373 0.0000 0.0000
# 5 0.0000 0.0000 0.0000 0.0000 19.9398 0.0000
# 6 0.0000 0.0000 0.0000 0.0000 0.0000 40.8347
#
#
#
# Elastic Compliance Matrix: (Units=1/GPa)
#
#
# Indices 1 2 3 4 5 6 
#
# 1 0.010433 -0.001881 -0.003067 0.000000 0.000000 0.000000
# 2 -0.001881 0.010433 -0.003067 0.000000 0.000000 0.000000
# 3 -0.003067 -0.003067 0.010609 0.000000 0.000000 0.000000
# 4 0.000000 0.000000 0.000000 0.050157 0.000000 0.000000
# 5 0.000000 0.000000 0.000000 0.000000 0.050151 0.000000
# 6 0.000000 0.000000 0.000000 0.000000 0.000000 0.024489
#
#
# Mechanical properties :
#
#
# Convention : Reuss Voigt Hill
#
# Bulk Modulus (GPa) = 64.73925 64.94359 64.84142
# Shear Modulus (GPa) = 28.17703 31.42236 29.79970
#
# Velocity S-wave (km/s) = 3.54513 3.74372 3.64578
# Velocity P-wave (km/s) = 6.75523 6.90321 6.82962
#
# Compressibility (1/GPa) = 0.01544658
#
# Stress axis : x y z
#
# Youngs Moduli (GPa) = 95.84844 95.84615 94.26387
#
# Poissons Ratio (x) = 0.18026 0.28908
# Poissons Ratio (y) = 0.18027 0.28908
# Poissons Ratio (z) = 0.29394 0.29394
#
# Static dielectric constant tensor:
#      x y z
#    x 1.910470 0.000000 0.000000 
#    y 0.000000 1.910470 0.000000 
#    z 0.000000 0.000000 2.052780 
# 
# From -- ./inp_files/429.got.cif
#   From: 2010.05.17/outbox.cif.g08.bks.cpg/sg92_1_cif.got.tgz:429.got - 2010.06.03 19:35:17.
