data_PCOD9549101
_publ_section_title
;
Structure prediction by ZEFSAII (Michael W. Deem and Ramdas Pophale) SiO2 
 PCOD9549101
Probable space group: P 41 21 2
;
_chemical_formula_sum "Si O2"
_cell_formula_units_Z 44
_cell_length_a 8.661956
_cell_length_b 8.661956
_cell_length_c 20.720030
_cell_angle_alpha 90.000000
_cell_angle_beta 90.000000
_cell_angle_gamma 90.000000
_cell_volume 1554.613113
_symmetry_space_group_name_H-M "P 41 21 2"
_symmetry_group_IT_number 92
_symmetry_cell_setting 'tetragonal'
loop_
_space_group_symop_operation_xyz
x,y,z
1/2-y,1/2+x,1/4+z
-x,-y,1/2+z
1/2+y,1/2-x,3/4+z
1/2+x,1/2-y,3/4-z
1/2-x,1/2+y,1/4-z
y,x,-z
-y,-x,1/2-z
loop_
_atom_site_type_symbol
_atom_site_label
_atom_site_fract_x
_atom_site_fract_y
_atom_site_fract_z
Si Si1 0.968395 0.682270 0.147856
Si Si2 0.010213 0.191906 0.201987
Si Si3 0.502430 0.857540 0.244041
Si Si4 0.493723 0.506278 0.750000
Si Si5 0.900363 0.201975 0.822861
Si Si6 0.585984 0.238743 0.361854
O O1 0.855984 0.825464 0.158363
O O2 0.859311 0.559410 0.112032
O O3 0.024129 0.583682 0.207877
O O4 0.123136 0.775857 0.128993
O O5 0.908303 0.091698 0.250000
O O6 0.885970 0.284760 0.158584
O O7 0.095237 0.323620 0.242131
O O8 0.126738 0.068825 0.168146
O O9 0.508975 0.677908 0.263961
O O10 0.386726 0.880417 0.182093
O O11 0.464235 0.643608 0.803169
O O12 0.849393 0.150608 0.750000
#
# Coordination Sequence:
#
# PCOD9549101 Si02
#       6
#     8   8   8   4   8   8
#     4  10  21  44  62  97 132 180 220 279 342 409
#     4  10  21  35  63 100 120 173 222 269 332 406
#     4  10  22  41  67  92 138 178 216 280 347 401
#     4  12  24  44  66 106 136 178 224 300 326 420
#     4   9  18  37  65  87 128 172 220 262 341 401
#     4  11  24  40  69  96 142 168 234 286 340 412
#
# _framework density 28.302859999999999
#
# number of rings (size 3 to 8) (size 9 to 14) (size 15 to 20)
#    0.000    1.818    3.636    1.091   10.182    0.000 
#    0.000    7.273    0.000    0.000    0.000    0.000 
#    0.000    0.000    0.000    0.000    0.000    0.000 
#
# Total GULP energy -245572.828493 kJ/mol
# GULP energy per Si atom -5581.200648 kJ/mol
# Density = 2.823844 g / cm^3
# Si number density = 28.302860 Si / 1000 Ang^3
#
#
#
# Elastic Constant Matrix: (Units=GPa)
#
#
# Indices 1 2 3 4 5 6 
#
# 1 213.4759 112.2701 54.6481 0.0000 0.0000 0.0000
# 2 112.2701 213.4753 54.6480 0.0000 0.0000 0.0000
# 3 54.6481 54.6480 38.9969 0.0000 0.0000 0.0000
# 4 0.0000 0.0000 0.0000 35.2691 0.0000 0.0000
# 5 0.0000 0.0000 0.0000 0.0000 35.2691 0.0000
# 6 0.0000 0.0000 0.0000 0.0000 0.0000 77.1125
#
#
#
# Elastic Compliance Matrix: (Units=1/GPa)
#
#
# Indices 1 2 3 4 5 6 
#
# 1 0.007838 -0.002043 -0.008120 0.000000 0.000000 0.000000
# 2 -0.002043 0.007838 -0.008120 0.000000 0.000000 0.000000
# 3 -0.008120 -0.008120 0.048400 0.000000 0.000000 0.000000
# 4 0.000000 0.000000 0.000000 0.028353 0.000000 0.000000
# 5 0.000000 0.000000 0.000000 0.000000 0.028353 0.000000
# 6 0.000000 0.000000 0.000000 0.000000 0.000000 0.012968
#
#
# Mechanical properties :
#
#
# Convention : Reuss Voigt Hill
#
# Bulk Modulus (GPa) = 36.35083 101.00893 68.67988
# Shear Modulus (GPa) = 27.85737 45.82226 36.83982
#
# Velocity S-wave (km/s) = 3.14070 4.02804 3.61172
# Velocity P-wave (km/s) = 5.10131 7.57625 6.45844
#
# Compressibility (1/GPa) = 0.02750968
#
# Stress axis : x y z
#
# Youngs Moduli (GPa) = 127.59067 127.59034 20.66110
#
# Poissons Ratio (x) = 0.26071 0.16776
# Poissons Ratio (y) = 0.26071 0.16776
# Poissons Ratio (z) = 1.03600 1.03600
#
# Static dielectric constant tensor:
#      x y z
#    x 2.251670 0.000000 0.000000 
#    y 0.000000 2.251680 0.000000 
#    z 0.000000 0.000000 2.159710 
# 
# From -- ./inp_files/4417.got.cif
#   From: 2010.05.17/outbox.cif.g08.bks.cpg/sg92_3_cif.got.tgz:4417.got - 2010.06.03 19:35:17.
