data_PCOD9549016
_publ_section_title
;
Structure prediction by ZEFSAII (Michael W. Deem and Ramdas Pophale) SiO2 
 PCOD9549016
Probable space group: P 41 21 2
;
_chemical_formula_sum "Si O2"
_cell_formula_units_Z 48
_cell_length_a 12.250864
_cell_length_b 12.250864
_cell_length_c 17.506101
_cell_angle_alpha 90.000000
_cell_angle_beta 90.000000
_cell_angle_gamma 90.000000
_cell_volume 2627.379864
_symmetry_space_group_name_H-M "P 41 21 2"
_symmetry_group_IT_number 92
_symmetry_cell_setting 'tetragonal'
loop_
_space_group_symop_operation_xyz
x,y,z
1/2-y,1/2+x,1/4+z
-x,-y,1/2+z
1/2+y,1/2-x,3/4+z
1/2+x,1/2-y,3/4-z
1/2-x,1/2+y,1/4-z
y,x,-z
-y,-x,1/2-z
loop_
_atom_site_type_symbol
_atom_site_label
_atom_site_fract_x
_atom_site_fract_y
_atom_site_fract_z
Si Si1 0.656515 0.889971 0.794501
Si Si2 0.555782 0.945044 0.950303
Si Si3 0.797409 0.637161 0.456352
Si Si4 0.772995 0.207145 0.555114
Si Si5 0.979954 0.797326 0.510316
Si Si6 0.345345 0.027921 0.852319
O O1 0.630108 0.891895 0.884617
O O2 0.542304 0.887505 0.747883
O O3 0.731102 0.791220 0.765434
O O4 0.703550 0.009956 0.775385
O O5 0.452698 0.994991 0.902089
O O6 0.517623 0.862844 0.017039
O O7 0.705744 0.705744 0.500000
O O8 0.769802 0.658753 0.368900
O O9 0.914183 0.693048 0.474872
O O10 0.656742 0.174242 0.590946
O O11 0.823248 0.092533 0.530518
O O12 0.895765 0.895765 0.500000
O O13 0.006828 0.758203 0.596347
#
# Coordination Sequence:
#
# PCOD9549016 Si02
#       6
#     8   8   8   8   8   8
#     4  11  21  37  58  93 123 161 203 260 303 367
#     4  10  20  36  62  87 120 154 211 253 302 362
#     4  11  21  35  62  96 124 152 202 267 319 354
#     4  12  23  36  61  94 125 163 203 251 322 372
#     4  11  22  39  61  94 127 161 195 259 325 373
#     4  11  19  35  64  91 115 155 203 260 305 369
#
# _framework density 18.269151999999998
#
# number of rings (size 3 to 8) (size 9 to 14) (size 15 to 20)
#    0.000    1.000    8.333    1.000    2.333    0.000 
#    0.000    2.500    0.000    0.000    0.000    0.000 
#    0.000    0.000    0.000    0.000    0.000    0.000 
#
# Total GULP energy -267619.830355 kJ/mol
# GULP energy per Si atom -5575.413132 kJ/mol
# Density = 1.822757 g / cm^3
# Si number density = 18.269152 Si / 1000 Ang^3
#
#
#
# Elastic Constant Matrix: (Units=GPa)
#
#
# Indices 1 2 3 4 5 6 
#
# 1 53.6466 21.8875 24.7852 0.0000 0.0000 0.0000
# 2 21.8875 53.6466 24.7852 0.0000 0.0000 0.0000
# 3 24.7852 24.7852 112.9344 0.0000 0.0000 0.0000
# 4 0.0000 0.0000 0.0000 31.0985 0.0000 0.0000
# 5 0.0000 0.0000 0.0000 0.0000 31.0985 0.0000
# 6 0.0000 0.0000 0.0000 0.0000 0.0000 7.6433
#
#
#
# Elastic Compliance Matrix: (Units=1/GPa)
#
#
# Indices 1 2 3 4 5 6 
#
# 1 0.023477 -0.008010 -0.003394 0.000000 0.000000 0.000000
# 2 -0.008010 0.023477 -0.003394 0.000000 0.000000 0.000000
# 3 -0.003394 -0.003394 0.010345 0.000000 0.000000 0.000000
# 4 0.000000 0.000000 0.000000 0.032156 0.000000 0.000000
# 5 0.000000 0.000000 0.000000 0.000000 0.032156 0.000000
# 6 0.000000 0.000000 0.000000 0.000000 0.000000 0.130833
#
#
# Mechanical properties :
#
#
# Convention : Reuss Voigt Hill
#
# Bulk Modulus (GPa) = 36.10062 40.34928 38.22495
# Shear Modulus (GPa) = 17.16593 23.88605 20.52599
#
# Velocity S-wave (km/s) = 3.06864 3.61979 3.35555
# Velocity P-wave (km/s) = 5.68847 6.29321 5.99847
#
# Compressibility (1/GPa) = 0.02770035
#
# Stress axis : x y z
#
# Youngs Moduli (GPa) = 42.59507 42.59507 96.66864
#
# Poissons Ratio (x) = 0.34120 0.32813
# Poissons Ratio (y) = 0.34120 0.32813
# Poissons Ratio (z) = 0.14459 0.14459
#
# Static dielectric constant tensor:
#      x y z
#    x 1.622620 0.000000 0.000000 
#    y 0.000000 1.622620 0.000000 
#    z 0.000000 0.000000 1.710190 
# 
# From -- ./inp_files/3096.got.cif
#   From: 2010.05.17/outbox.cif.g08.bks.cpg/sg92_2_cif.got.tgz:3096.got - 2010.06.03 19:35:17.
