data_PCOD9549387
_publ_section_title
;
Structure prediction by ZEFSAII (Michael W. Deem and Ramdas Pophale) SiO2 
 PCOD9549387
Probable space group: P 41 21 2
;
_chemical_formula_sum "Si O2"
_cell_formula_units_Z 56
_cell_length_a 16.175142
_cell_length_b 16.175142
_cell_length_c 8.405326
_cell_angle_alpha 90.000000
_cell_angle_beta 90.000000
_cell_angle_gamma 90.000000
_cell_volume 2199.129306
_symmetry_space_group_name_H-M "P 41 21 2"
_symmetry_group_IT_number 92
_symmetry_cell_setting 'tetragonal'
loop_
_space_group_symop_operation_xyz
x,y,z
1/2-y,1/2+x,1/4+z
-x,-y,1/2+z
1/2+y,1/2-x,3/4+z
1/2+x,1/2-y,3/4-z
1/2-x,1/2+y,1/4-z
y,x,-z
-y,-x,1/2-z
loop_
_atom_site_type_symbol
_atom_site_label
_atom_site_fract_x
_atom_site_fract_y
_atom_site_fract_z
Si Si1 0.757928 0.939929 0.685658
Si Si2 0.463499 0.913525 0.341621
Si Si3 0.438642 0.576649 0.479410
Si Si4 0.677461 0.990478 0.023422
Si Si5 0.331459 0.171922 0.703105
Si Si6 0.271408 0.728593 0.250000
Si Si7 0.662265 0.337736 0.250000
Si Si8 0.943032 0.195887 0.223736
O O1 0.845739 0.981584 0.642528
O O2 0.714299 0.953317 0.858242
O O3 0.770778 0.846185 0.625602
O O4 0.738381 0.105046 0.383960
O O5 0.544506 0.944954 0.427197
O O6 0.469785 0.816337 0.324279
O O7 0.390373 0.943766 0.462671
O O8 0.507737 0.507737 0.500000
O O9 0.407703 0.634640 0.623401
O O10 0.355220 0.527433 0.433980
O O11 0.640909 0.920624 0.143005
O O12 0.245807 0.168218 0.601312
O O13 0.247793 0.965832 0.617404
O O14 0.306253 0.205069 0.881464
O O15 0.876310 0.123691 0.250000
#
# Coordination Sequence:
#
# PCOD9549387 Si02
#       8
#     8   8   8   8   8   4   4   8
#     4  11  23  48  75 108 156 218 261 332 438 509
#     4  10  24  44  79 114 154 201 272 348 420 501
#     4  11  23  42  73 116 155 205 278 348 414 500
#     4  11  22  45  81 115 143 210 287 344 417 516
#     4  12  23  43  75 112 156 215 276 340 427 523
#     4  12  26  41  74 116 162 221 264 330 444 526
#     4  12  20  47  78 102 148 221 274 340 414 504
#     4  11  23  37  73 115 151 197 284 345 405 498
#
# _framework density 25.464624000000001
#
# number of rings (size 3 to 8) (size 9 to 14) (size 15 to 20)
#    0.000    0.857    5.000    1.714    2.000    1.714 
#    0.000    8.571    6.286    0.000    0.000    0.000 
#    0.000    0.000    0.000    0.000    0.000    0.000 
#
# Total GULP energy -312140.549741 kJ/mol
# GULP energy per Si atom -5573.938388 kJ/mol
# Density = 2.540667 g / cm^3
# Si number density = 25.464624 Si / 1000 Ang^3
#
#
#
# Elastic Constant Matrix: (Units=GPa)
#
#
# Indices 1 2 3 4 5 6 
#
# 1 78.0162 151.0257 50.4733 0.0000 0.0000 0.0000
# 2 151.0257 78.0158 50.4729 0.0000 0.0000 0.0000
# 3 50.4733 50.4729 98.3917 0.0000 0.0000 0.0000
# 4 0.0000 0.0000 0.0000 24.0239 0.0000 0.0000
# 5 0.0000 0.0000 0.0000 0.0000 24.0239 0.0000
# 6 0.0000 0.0000 0.0000 0.0000 0.0000 -9.3933
#
#
#
# Elastic Compliance Matrix: (Units=1/GPa)
#
#
# Indices 1 2 3 4 5 6 
#
# 1 -0.004028 0.009669 -0.002894 0.000000 0.000000 0.000000
# 2 0.009669 -0.004028 -0.002894 0.000000 0.000000 0.000000
# 3 -0.002894 -0.002894 0.013133 0.000000 0.000000 0.000000
# 4 0.000000 0.000000 0.000000 0.041625 0.000000 0.000000
# 5 0.000000 0.000000 0.000000 0.000000 0.041625 0.000000
# 6 0.000000 0.000000 0.000000 0.000000 0.000000 -0.106458
#
#
# Mechanical properties :
#
#
# Convention : Reuss Voigt Hill
#
# Bulk Modulus (GPa) = 77.88383 84.26307 81.07345
# Shear Modulus (GPa) = -231.34068 7.89434 -111.72317
#
# Velocity S-wave (km/s) = -9.54176 1.76263 -6.63092
# Velocity P-wave (km/s) = 9.52586 6.10774 5.16901
#
# Compressibility (1/GPa) = 0.01283964
#
# Stress axis : x y z
#
# Youngs Moduli (GPa) = -248.28295 -248.28299 76.14653
#
# Poissons Ratio (x) = 2.40069 0.22036
# Poissons Ratio (y) = 2.40069 0.22037
# Poissons Ratio (z) = -0.71852 -0.71853
#
# Static dielectric constant tensor:
#      x y z
#    x 0.823380 0.000000 0.000000 
#    y 0.000000 0.823580 0.000000 
#    z 0.000000 0.000000 -6.039090 
# 
# From -- ./inp_files/1718.got.cif
#   From: 2010.05.17/outbox.cif.g08.bks.cpg/sg92_1_cif.got.tgz:1718.got - 2010.06.03 19:35:17.
