data_PCOD9549884
_publ_section_title
;
Structure prediction by ZEFSAII (Michael W. Deem and Ramdas Pophale) SiO2 
 PCOD9549884
Probable space group: P 42 2 2
;
_chemical_formula_sum "Si O2"
_cell_formula_units_Z 20
_cell_length_a 7.990386
_cell_length_b 7.990386
_cell_length_c 12.497551
_cell_angle_alpha 90.000000
_cell_angle_beta 90.000000
_cell_angle_gamma 90.000000
_cell_volume 797.921996
_symmetry_space_group_name_H-M "P 42 2 2"
_symmetry_group_IT_number 93
_symmetry_cell_setting 'tetragonal'
loop_
_space_group_symop_operation_xyz
x,y,z
-y,x,1/2+z
-x,-y,z
y,-x,1/2+z
x,-y,-z
-x,y,-z
y,x,1/2-z
-y,-x,1/2-z
loop_
_atom_site_type_symbol
_atom_site_label
_atom_site_fract_x
_atom_site_fract_y
_atom_site_fract_z
Si Si1 0.191757 0.693518 0.025578
Si Si2 0.133119 0.342599 0.330774
Si Si3 0.824945 0.824945 0.750000
O O1 0.212409 0.703190 0.152077
O O2 0.207339 0.500000 0.000000
O O3 0.317380 0.796270 0.950022
O O4 0.000000 0.746755 0.000000
O O5 0.288840 0.288840 0.250000
O O6 0.000000 0.500000 0.317355
O O7 0.999672 0.198913 0.307520
#
# Coordination Sequence:
#
# PCOD9549884 Si02
#       3
#     8   8   4
#     4  11  25  48  77 118 170 221 293 371 445 526
#     4  12  26  48  79 121 164 223 297 372 452 537
#     4  12  25  44  81 116 157 228 289 358 433 542
#
# _framework density 25.065104999999999
#
# number of rings (size 3 to 8) (size 9 to 14) (size 15 to 20)
#    0.000    0.400    4.000    4.200    0.000    4.800 
#    0.000   11.000    0.000    0.000    0.000    0.000 
#    0.000    0.000    0.000    0.000    0.000    0.000 
#
# Total GULP energy -111540.462556 kJ/mol
# GULP energy per Si atom -5577.023128 kJ/mol
# Density = 2.500806 g / cm^3
# Si number density = 25.065105 Si / 1000 Ang^3
#
#
#
# Elastic Constant Matrix: (Units=GPa)
#
#
# Indices 1 2 3 4 5 6 
#
# 1 106.8630 58.0213 52.3402 0.0000 0.0000 0.0000
# 2 58.0213 106.8630 52.3402 0.0000 0.0000 0.0000
# 3 52.3402 52.3402 246.1642 0.0000 0.0000 0.0000
# 4 0.0000 0.0000 0.0000 64.6493 0.0000 0.0000
# 5 0.0000 0.0000 0.0000 0.0000 64.6493 0.0000
# 6 0.0000 0.0000 0.0000 0.0000 0.0000 46.3015
#
#
#
# Elastic Compliance Matrix: (Units=1/GPa)
#
#
# Indices 1 2 3 4 5 6 
#
# 1 0.013743 -0.006732 -0.001491 0.000000 0.000000 0.000000
# 2 -0.006732 0.013743 -0.001491 0.000000 0.000000 0.000000
# 3 -0.001491 -0.001491 0.004696 0.000000 0.000000 0.000000
# 4 0.000000 0.000000 0.000000 0.015468 0.000000 0.000000
# 5 0.000000 0.000000 0.000000 0.000000 0.015468 0.000000
# 6 0.000000 0.000000 0.000000 0.000000 0.000000 0.021598
#
#
# Mechanical properties :
#
#
# Convention : Reuss Voigt Hill
#
# Bulk Modulus (GPa) = 78.39561 87.25484 82.82523
# Shear Modulus (GPa) = 46.12819 54.93259 50.53039
#
# Velocity S-wave (km/s) = 4.29457 4.68653 4.49482
# Velocity P-wave (km/s) = 7.47902 8.01072 7.74943
#
# Compressibility (1/GPa) = 0.01275582
#
# Stress axis : x y z
#
# Youngs Moduli (GPa) = 72.76537 72.76537 212.93491
#
# Poissons Ratio (x) = 0.48982 0.31744
# Poissons Ratio (y) = 0.48982 0.31744
# Poissons Ratio (z) = 0.10848 0.10848
#
# Static dielectric constant tensor:
#      x y z
#    x 2.091070 0.000000 0.000000 
#    y 0.000000 2.091070 0.000000 
#    z 0.000000 0.000000 1.989870 
# 
# From -- ./inp_files/2470.got.cif
#   From: 2010.05.17/outbox.cif.g08.bks.cpg/sg93_2_cif.got.tgz:2470.got - 2010.06.03 19:38:44.
