data_PCOD9549419
_publ_section_title
;
Structure prediction by ZEFSAII (Michael W. Deem and Ramdas Pophale) SiO2 
 PCOD9549419
Probable space group: P 41 21 2
;
_chemical_formula_sum "Si O2"
_cell_formula_units_Z 28
_cell_length_a 7.271763
_cell_length_b 7.271763
_cell_length_c 19.177563
_cell_angle_alpha 90.000000
_cell_angle_beta 90.000000
_cell_angle_gamma 90.000000
_cell_volume 1014.081477
_symmetry_space_group_name_H-M "P 41 21 2"
_symmetry_group_IT_number 92
_symmetry_cell_setting 'tetragonal'
loop_
_space_group_symop_operation_xyz
x,y,z
1/2-y,1/2+x,1/4+z
-x,-y,1/2+z
1/2+y,1/2-x,3/4+z
1/2+x,1/2-y,3/4-z
1/2-x,1/2+y,1/4-z
y,x,-z
-y,-x,1/2-z
loop_
_atom_site_type_symbol
_atom_site_label
_atom_site_fract_x
_atom_site_fract_y
_atom_site_fract_z
Si Si1 0.604652 0.260706 0.887373
Si Si2 0.725559 0.725559 0.500000
Si Si3 0.020287 0.690187 0.719958
Si Si4 0.606484 0.700139 0.751892
O O1 0.604309 0.223265 0.805293
O O2 0.724299 0.445798 0.897518
O O3 0.828080 0.695194 0.765813
O O4 0.727841 0.101897 0.921665
O O5 0.557950 0.723363 0.444691
O O6 0.139780 0.506363 0.708799
O O7 0.162679 0.837322 0.750000
O O8 0.475325 0.524676 0.750000
#
# Coordination Sequence:
#
# PCOD9549419 Si02
#       4
#     8   4   8   8
#     4  10  25  48  79 120 167 227 295 352 455 537
#     4  12  26  52  80 124 170 230 292 372 448 548
#     4   9  19  42  76 117 166 213 280 359 423 537
#     4   9  20  42  76 122 158 219 286 362 427 524
#
# _framework density 27.611191999999999
#
# number of rings (size 3 to 8) (size 9 to 14) (size 15 to 20)
#    1.714    0.571    1.429    0.000    4.000    1.143 
#    7.714    8.571    0.000    0.000    0.000    2.000 
#    0.000    0.000    0.000    0.000    0.000    0.000 
#
# Total GULP energy -155883.508890 kJ/mol
# GULP energy per Si atom -5567.268175 kJ/mol
# Density = 2.754835 g / cm^3
# Si number density = 27.611192 Si / 1000 Ang^3
#
#
#
# Elastic Constant Matrix: (Units=GPa)
#
#
# Indices 1 2 3 4 5 6 
#
# 1 76.9373 184.4921 37.3879 0.0000 0.0000 0.0000
# 2 184.4921 76.9177 37.3735 0.0000 0.0000 0.0000
# 3 37.3879 37.3735 152.9812 0.0000 0.0000 0.0000
# 4 0.0000 0.0000 0.0000 34.7357 0.0000 0.0000
# 5 0.0000 0.0000 0.0000 0.0000 34.7353 0.0000
# 6 0.0000 0.0000 0.0000 0.0000 0.0000 55.0874
#
#
#
# Elastic Compliance Matrix: (Units=1/GPa)
#
#
# Indices 1 2 3 4 5 6 
#
# 1 -0.002592 0.006705 -0.001005 0.000000 0.000000 0.000000
# 2 0.006705 -0.002592 -0.001005 0.000000 0.000000 0.000000
# 3 -0.001005 -0.001005 0.007028 0.000000 0.000000 0.000000
# 4 0.000000 0.000000 0.000000 0.028789 0.000000 0.000000
# 5 0.000000 0.000000 0.000000 0.000000 0.028789 0.000000
# 6 0.000000 0.000000 0.000000 0.000000 0.000000 0.018153
#
#
# Mechanical properties :
#
#
# Convention : Reuss Voigt Hill
#
# Bulk Modulus (GPa) = 89.01959 91.70481 90.36220
# Shear Modulus (GPa) = 69.51254 28.08386 48.79820
#
# Velocity S-wave (km/s) = 5.02296 3.19269 4.20853
# Velocity P-wave (km/s) = 8.12100 6.84661 7.51088
#
# Compressibility (1/GPa) = 0.01123348
#
# Stress axis : x y z
#
# Youngs Moduli (GPa) = -385.83265 -385.76096 142.29093
#
# Poissons Ratio (x) = 2.58641 0.14294
# Poissons Ratio (y) = 2.58689 0.14305
# Poissons Ratio (z) = -0.38758 -0.38781
#
# Static dielectric constant tensor:
#      x y z
#    x 2.481540 0.000000 0.000000 
#    y 0.000000 2.481540 0.000000 
#    z 0.000000 0.000000 2.205310 
# 
# From -- ./inp_files/2935.got.cif
#   From: 2010.05.17/outbox.cif.g08.bks.cpg/sg92_2_cif.got.tgz:2935.got - 2010.06.03 19:35:17.
