data_PCOD9549728
_publ_section_title
;
Structure prediction by ZEFSAII (Michael W. Deem and Ramdas Pophale) SiO2 
 PCOD9549728
Probable space group: P 42 2 2
;
_chemical_formula_sum "Si O2"
_cell_formula_units_Z 18
_cell_length_a 10.103354
_cell_length_b 10.103354
_cell_length_c 8.691854
_cell_angle_alpha 90.000000
_cell_angle_beta 90.000000
_cell_angle_gamma 90.000000
_cell_volume 887.245004
_symmetry_space_group_name_H-M "P 42 2 2"
_symmetry_group_IT_number 93
_symmetry_cell_setting 'tetragonal'
loop_
_space_group_symop_operation_xyz
x,y,z
-y,x,1/2+z
-x,-y,z
y,-x,1/2+z
x,-y,-z
-x,y,-z
y,x,1/2-z
-y,-x,1/2-z
loop_
_atom_site_type_symbol
_atom_site_label
_atom_site_fract_x
_atom_site_fract_y
_atom_site_fract_z
Si Si1 0.647613 0.638712 0.568144
Si Si2 0.878607 0.237526 0.905293
Si Si3 0.000000 0.500000 0.000000
O O1 0.693811 0.500000 0.500000
O O2 0.500000 0.660373 0.500000
O O3 0.634813 0.634813 0.750000
O O4 0.746352 0.752281 0.514658
O O5 0.834681 0.165320 0.750000
O O6 0.924560 0.393471 0.890821
O O7 0.000000 0.174701 0.000000
#
# Coordination Sequence:
#
# PCOD9549728 Si02
#       3
#     8   8   2
#     4  11  20  32  57  94 135 176 228 290 356 420
#     4  10  20  39  66  99 142 185 232 296 364 433
#     4   8  20  36  70  98 150 180 232 298 364 412
#
# _framework density 20.287517999999999
#
# number of rings (size 3 to 8) (size 9 to 14) (size 15 to 20)
#    1.333    0.444    2.222    5.333    0.000    0.000 
#    0.000    2.222    0.000    9.333    0.000    0.000 
#    0.000    0.000    0.000    0.000    0.000    0.000 
#
# Total GULP energy -100229.613172 kJ/mol
# GULP energy per Si atom -5568.311843 kJ/mol
# Density = 2.024134 g / cm^3
# Si number density = 20.287518 Si / 1000 Ang^3
#
#
#
# Elastic Constant Matrix: (Units=GPa)
#
#
# Indices 1 2 3 4 5 6 
#
# 1 112.1760 40.6597 78.0963 0.0000 0.0000 0.0000
# 2 40.6597 112.1765 78.0965 0.0000 0.0000 0.0000
# 3 78.0963 78.0965 229.1522 0.0000 0.0000 0.0000
# 4 0.0000 0.0000 0.0000 59.9895 0.0000 0.0000
# 5 0.0000 0.0000 0.0000 0.0000 59.9957 0.0000
# 6 0.0000 0.0000 0.0000 0.0000 0.0000 -13.8955
#
#
#
# Elastic Compliance Matrix: (Units=1/GPa)
#
#
# Indices 1 2 3 4 5 6 
#
# 1 0.012011 -0.001972 -0.003422 0.000000 0.000000 0.000000
# 2 -0.001972 0.012011 -0.003422 0.000000 0.000000 0.000000
# 3 -0.003422 -0.003422 0.006696 0.000000 0.000000 0.000000
# 4 0.000000 0.000000 0.000000 0.016670 0.000000 0.000000
# 5 0.000000 0.000000 0.000000 0.000000 0.016668 0.000000
# 6 0.000000 0.000000 0.000000 0.000000 0.000000 -0.071966
#
#
# Mechanical properties :
#
#
# Convention : Reuss Voigt Hill
#
# Bulk Modulus (GPa) = 76.39913 94.13442 85.26677
# Shear Modulus (GPa) = 355.03826 38.32808 196.68317
#
# Velocity S-wave (km/s) = 13.24323 4.35126 9.85689
# Velocity P-wave (km/s) = 16.47981 8.47027 13.10209
#
# Compressibility (1/GPa) = 0.01308915
#
# Stress axis : x y z
#
# Youngs Moduli (GPa) = 83.25516 83.25556 149.34052
#
# Poissons Ratio (x) = 0.16414 0.51098
# Poissons Ratio (y) = 0.16414 0.51098
# Poissons Ratio (z) = 0.28487 0.28487
#
# Static dielectric constant tensor:
#      x y z
#    x 1.770920 0.000000 0.000000 
#    y 0.000000 1.770920 0.000000 
#    z 0.000000 0.000000 1.658770 
# 
# From -- ./inp_files/1066.got.cif
#   From: 2010.05.17/outbox.cif.g08.bks.cpg/sg93_1_cif.got.tgz:1066.got - 2010.06.03 19:38:44.
