data_PCOD9549374
_publ_section_title
;
Structure prediction by ZEFSAII (Michael W. Deem and Ramdas Pophale) SiO2 
 PCOD9549374
Probable space group: P 41 21 2
;
_chemical_formula_sum "Si O2"
_cell_formula_units_Z 44
_cell_length_a 10.507277
_cell_length_b 10.507277
_cell_length_c 17.420218
_cell_angle_alpha 90.000000
_cell_angle_beta 90.000000
_cell_angle_gamma 90.000000
_cell_volume 1923.242062
_symmetry_space_group_name_H-M "P 41 21 2"
_symmetry_group_IT_number 92
_symmetry_cell_setting 'tetragonal'
loop_
_space_group_symop_operation_xyz
x,y,z
1/2-y,1/2+x,1/4+z
-x,-y,1/2+z
1/2+y,1/2-x,3/4+z
1/2+x,1/2-y,3/4-z
1/2-x,1/2+y,1/4-z
y,x,-z
-y,-x,1/2-z
loop_
_atom_site_type_symbol
_atom_site_label
_atom_site_fract_x
_atom_site_fract_y
_atom_site_fract_z
Si Si1 0.691812 0.679938 0.200572
Si Si2 0.994864 0.628772 0.369998
Si Si3 0.160622 0.607512 0.827275
Si Si4 0.457398 0.198103 0.570339
Si Si5 0.208991 0.239873 0.133810
Si Si6 0.573298 0.426702 0.250000
O O1 0.821278 0.640645 0.157479
O O2 0.634767 0.787978 0.143584
O O3 0.719238 0.725755 0.286138
O O4 0.597539 0.560272 0.208588
O O5 0.067763 0.538536 0.429848
O O6 0.124829 0.696500 0.337357
O O7 0.914667 0.524798 0.323226
O O8 0.885303 0.723630 0.399358
O O9 0.308904 0.585083 0.809362
O O10 0.109159 0.699879 0.760684
O O11 0.567546 0.298644 0.588752
#
# Coordination Sequence:
#
# PCOD9549374 Si02
#       6
#     8   8   8   8   8   4
#     4  12  25  42  72 102 143 181 243 298 362 440
#     4  10  24  44  70  99 148 182 243 285 365 429
#     4  12  23  47  69 107 133 194 234 306 356 439
#     4  10  24  42  72 100 143 181 238 297 367 422
#     4  10  25  42  72 102 140 194 234 295 369 434
#     4  12  26  38  72 106 136 182 246 294 366 436
#
# _framework density 22.878038
#
# number of rings (size 3 to 8) (size 9 to 14) (size 15 to 20)
#    1.091    0.000    3.636    2.182    5.091    0.000 
#    0.000    2.727    0.000    0.000    0.000    0.000 
#    0.000    0.000    0.000    0.000    0.000    0.000 
#
# Total GULP energy -244945.359680 kJ/mol
# GULP energy per Si atom -5566.939993 kJ/mol
# Density = 2.282597 g / cm^3
# Si number density = 22.878038 Si / 1000 Ang^3
#
#
#
# Elastic Constant Matrix: (Units=GPa)
#
#
# Indices 1 2 3 4 5 6 
#
# 1 86.7199 32.0911 18.0712 0.0000 0.0000 0.0000
# 2 32.0911 86.7199 18.0712 0.0000 0.0000 0.0000
# 3 18.0712 18.0712 57.7327 0.0000 0.0000 0.0000
# 4 0.0000 0.0000 0.0000 16.5551 0.0000 0.0000
# 5 0.0000 0.0000 0.0000 0.0000 16.5551 0.0000
# 6 0.0000 0.0000 0.0000 0.0000 0.0000 51.6553
#
#
#
# Elastic Compliance Matrix: (Units=1/GPa)
#
#
# Indices 1 2 3 4 5 6 
#
# 1 0.013804 -0.004501 -0.002912 0.000000 0.000000 0.000000
# 2 -0.004501 0.013804 -0.002912 0.000000 0.000000 0.000000
# 3 -0.002912 -0.002912 0.019144 0.000000 0.000000 0.000000
# 4 0.000000 0.000000 0.000000 0.060404 0.000000 0.000000
# 5 0.000000 0.000000 0.000000 0.000000 0.060404 0.000000
# 6 0.000000 0.000000 0.000000 0.000000 0.000000 0.019359
#
#
# Mechanical properties :
#
#
# Convention : Reuss Voigt Hill
#
# Bulk Modulus (GPa) = 38.31153 40.84884 39.58019
# Shear Modulus (GPa) = 23.11922 27.81572 25.46747
#
# Velocity S-wave (km/s) = 3.18235 3.49065 3.34006
# Velocity P-wave (km/s) = 5.50323 5.84295 5.67563
#
# Compressibility (1/GPa) = 0.02610180
#
# Stress axis : x y z
#
# Youngs Moduli (GPa) = 72.44317 72.44317 52.23544
#
# Poissons Ratio (x) = 0.32610 0.15210
# Poissons Ratio (y) = 0.32610 0.15210
# Poissons Ratio (z) = 0.21094 0.21094
#
# Static dielectric constant tensor:
#      x y z
#    x 1.948350 0.000000 0.000000 
#    y 0.000000 1.948350 0.000000 
#    z 0.000000 0.000000 1.793570 
# 
# From -- ./inp_files/3049.got.cif
#   From: 2010.05.17/outbox.cif.g08.bks.cpg/sg92_2_cif.got.tgz:3049.got - 2010.06.03 19:35:17.
