data_PCOD9549219
_publ_section_title
;
Structure prediction by ZEFSAII (Michael W. Deem and Ramdas Pophale) SiO2 
 PCOD9549219
Probable space group: P 41 21 2
;
_chemical_formula_sum "Si O2"
_cell_formula_units_Z 48
_cell_length_a 11.561397
_cell_length_b 11.561397
_cell_length_c 18.511878
_cell_angle_alpha 90.000000
_cell_angle_beta 90.000000
_cell_angle_gamma 90.000000
_cell_volume 2474.406845
_symmetry_space_group_name_H-M "P 41 21 2"
_symmetry_group_IT_number 92
_symmetry_cell_setting 'tetragonal'
loop_
_space_group_symop_operation_xyz
x,y,z
1/2-y,1/2+x,1/4+z
-x,-y,1/2+z
1/2+y,1/2-x,3/4+z
1/2+x,1/2-y,3/4-z
1/2-x,1/2+y,1/4-z
y,x,-z
-y,-x,1/2-z
loop_
_atom_site_type_symbol
_atom_site_label
_atom_site_fract_x
_atom_site_fract_y
_atom_site_fract_z
Si Si1 0.241137 0.884407 0.156869
Si Si2 0.989911 0.334888 0.095460
Si Si3 0.440032 0.715746 0.705546
Si Si4 0.267889 0.977140 0.307863
Si Si5 0.144514 0.960834 0.008859
Si Si6 0.033351 0.527818 0.734033
O O1 0.370524 0.835754 0.161357
O O2 0.227182 0.973931 0.224051
O O3 0.147844 0.780848 0.165370
O O4 0.221779 0.948325 0.080776
O O5 0.961074 0.370643 0.175910
O O6 0.947165 0.437481 0.043717
O O7 0.939359 0.218471 0.062584
O O8 0.328822 0.671179 0.750000
O O9 0.435267 0.716055 0.617789
O O10 0.542470 0.630296 0.729725
O O11 0.479578 0.842976 0.728379
O O12 0.405889 0.996832 0.303418
O O13 0.085071 0.085071 0.000000
#
# Coordination Sequence:
#
# PCOD9549219 Si02
#       6
#     8   8   8   8   8   8
#     4   9  19  34  58  89 121 145 191 245 310 356
#     4  11  21  35  56  90 118 150 188 248 298 360
#     4  10  22  41  59  81 120 167 201 241 291 355
#     4   9  19  35  58  87 112 157 196 242 298 356
#     4  10  22  39  60  87 121 152 191 247 311 356
#     4  11  21  37  59  85 116 153 203 238 292 353
#
# _framework density 19.398588
#
# number of rings (size 3 to 8) (size 9 to 14) (size 15 to 20)
#    0.000    2.000    3.333    0.000    4.667    1.333 
#    3.000    1.667    0.000    2.000    0.000    0.000 
#    0.000    0.000    0.000    0.000    0.000    0.000 
#
# Total GULP energy -267550.675493 kJ/mol
# GULP energy per Si atom -5573.972406 kJ/mol
# Density = 1.935444 g / cm^3
# Si number density = 19.398588 Si / 1000 Ang^3
#
#
#
# Elastic Constant Matrix: (Units=GPa)
#
#
# Indices 1 2 3 4 5 6 
#
# 1 29.3210 9.7654 10.3675 0.0000 0.0000 0.0000
# 2 9.7654 29.3206 10.3672 0.0000 0.0000 0.0000
# 3 10.3675 10.3672 45.3990 0.0000 0.0000 0.0000
# 4 0.0000 0.0000 0.0000 26.9932 0.0000 0.0000
# 5 0.0000 0.0000 0.0000 0.0000 26.9934 0.0000
# 6 0.0000 0.0000 0.0000 0.0000 0.0000 13.3371
#
#
#
# Elastic Compliance Matrix: (Units=1/GPa)
#
#
# Indices 1 2 3 4 5 6 
#
# 1 0.040124 -0.011013 -0.006648 0.000000 0.000000 0.000000
# 2 -0.011013 0.040124 -0.006648 0.000000 0.000000 0.000000
# 3 -0.006648 -0.006648 0.025063 0.000000 0.000000 0.000000
# 4 0.000000 0.000000 0.000000 0.037046 0.000000 0.000000
# 5 0.000000 0.000000 0.000000 0.000000 0.037046 0.000000
# 6 0.000000 0.000000 0.000000 0.000000 0.000000 0.074979
#
#
# Mechanical properties :
#
#
# Convention : Reuss Voigt Hill
#
# Bulk Modulus (GPa) = 17.63857 18.33787 17.98822
# Shear Modulus (GPa) = 15.53290 18.36744 16.95017
#
# Velocity S-wave (km/s) = 2.83278 3.08042 2.95919
# Velocity P-wave (km/s) = 4.45106 4.70380 4.57917
#
# Compressibility (1/GPa) = 0.05669394
#
# Stress axis : x y z
#
# Youngs Moduli (GPa) = 24.92288 24.92261 39.89931
#
# Poissons Ratio (x) = 0.27447 0.26525
# Poissons Ratio (y) = 0.27447 0.26524
# Poissons Ratio (z) = 0.16569 0.16568
#
# Static dielectric constant tensor:
#      x y z
#    x 1.677780 0.000000 0.000000 
#    y 0.000000 1.677780 0.000000 
#    z 0.000000 0.000000 1.706520 
# 
# From -- ./inp_files/3117.got.cif
#   From: 2010.05.17/outbox.cif.g08.bks.cpg/sg92_2_cif.got.tgz:3117.got - 2010.06.03 19:35:17.
