data_PCOD9549685
_publ_section_title
;
Structure prediction by ZEFSAII (Michael W. Deem and Ramdas Pophale) SiO2 
 PCOD9549685
Probable space group: P 42 2 2
;
_chemical_formula_sum "Si O2"
_cell_formula_units_Z 16
_cell_length_a 8.411494
_cell_length_b 8.411494
_cell_length_c 9.434975
_cell_angle_alpha 90.000000
_cell_angle_beta 90.000000
_cell_angle_gamma 90.000000
_cell_volume 667.554969
_symmetry_space_group_name_H-M "P 42 2 2"
_symmetry_group_IT_number 93
_symmetry_cell_setting 'tetragonal'
loop_
_space_group_symop_operation_xyz
x,y,z
-y,x,1/2+z
-x,-y,z
y,-x,1/2+z
x,-y,-z
-x,y,-z
y,x,1/2-z
-y,-x,1/2-z
loop_
_atom_site_type_symbol
_atom_site_label
_atom_site_fract_x
_atom_site_fract_y
_atom_site_fract_z
Si Si1 0.500000 0.500000 0.250000
Si Si2 0.000000 0.500000 0.500000
Si Si3 0.201143 0.153623 0.090175
Si Si4 0.752389 0.500000 0.000000
O O1 0.492529 0.647616 0.357254
O O2 0.881667 0.391654 0.591659
O O3 0.144579 0.144579 0.250000
O O4 0.169671 0.324750 0.018649
O O5 0.152764 0.000000 0.000000
#
# Coordination Sequence:
#
# PCOD9549685 Si02
#       4
#     2   2   8   4
#     4  10  20  30  60 114 150 206 266 326 380 478
#     4   8  20  38  68 118 164 192 278 324 384 500
#     4  10  22  41  69 118 165 204 271 338 387 487
#     4  11  20  36  68 113 163 210 269 327 402 465
#
# _framework density 23.968060999999999
#
# number of rings (size 3 to 8) (size 9 to 14) (size 15 to 20)
#    1.500    0.500    2.500    3.000    0.000    0.000 
#    0.000    0.000    0.000   19.500    0.000   15.750 
#    0.000    0.000    0.000    0.000    0.000    0.000 
#
# Total GULP energy -89190.613681 kJ/mol
# GULP energy per Si atom -5574.413355 kJ/mol
# Density = 2.391351 g / cm^3
# Si number density = 23.968061 Si / 1000 Ang^3
#
#
#
# Elastic Constant Matrix: (Units=GPa)
#
#
# Indices 1 2 3 4 5 6 
#
# 1 179.5218 66.8373 87.0929 0.0000 0.0000 0.0000
# 2 66.8373 179.5218 87.0929 0.0000 0.0000 0.0000
# 3 87.0929 87.0929 225.4926 0.0000 0.0000 0.0000
# 4 0.0000 0.0000 0.0000 33.9718 0.0000 0.0000
# 5 0.0000 0.0000 0.0000 0.0000 33.9718 0.0000
# 6 0.0000 0.0000 0.0000 0.0000 0.0000 -180.1115
#
#
#
# Elastic Compliance Matrix: (Units=1/GPa)
#
#
# Indices 1 2 3 4 5 6 
#
# 1 0.007229 -0.001645 -0.002157 0.000000 0.000000 0.000000
# 2 -0.001645 0.007229 -0.002157 0.000000 0.000000 0.000000
# 3 -0.002157 -0.002157 0.006101 0.000000 0.000000 0.000000
# 4 0.000000 0.000000 0.000000 0.029436 0.000000 0.000000
# 5 0.000000 0.000000 0.000000 0.000000 0.029436 0.000000
# 6 0.000000 0.000000 0.000000 0.000000 0.000000 -0.005552
#
#
# Mechanical properties :
#
#
# Convention : Reuss Voigt Hill
#
# Bulk Modulus (GPa) = 115.71621 118.50913 117.11267
# Shear Modulus (GPa) = 56.38427 0.46730 28.42578
#
# Velocity S-wave (km/s) = 4.85549 0.44203 3.44755
# Velocity P-wave (km/s) = 8.93412 7.05779 8.05081
#
# Compressibility (1/GPa) = 0.00864183
#
# Stress axis : x y z
#
# Youngs Moduli (GPa) = 138.32833 138.32833 163.91443
#
# Poissons Ratio (x) = 0.22757 0.35352
# Poissons Ratio (y) = 0.22757 0.35352
# Poissons Ratio (z) = 0.29834 0.29834
#
# Static dielectric constant tensor:
#      x y z
#    x 2.049740 0.000000 0.000000 
#    y 0.000000 2.049740 0.000000 
#    z 0.000000 0.000000 1.854840 
# 
# From -- ./inp_files/971.got.cif
#   From: 2010.05.17/outbox.cif.g08.bks.cpg/sg93_1_cif.got.tgz:971.got - 2010.06.03 19:38:44.
