data_PCOD9549146
_publ_section_title
;
Structure prediction by ZEFSAII (Michael W. Deem and Ramdas Pophale) SiO2 
 PCOD9549146
Probable space group: P 41 21 2
;
_chemical_formula_sum "Si O2"
_cell_formula_units_Z 36
_cell_length_a 14.881522
_cell_length_b 14.881522
_cell_length_c 7.284845
_cell_angle_alpha 90.000000
_cell_angle_beta 90.000000
_cell_angle_gamma 90.000000
_cell_volume 1613.299567
_symmetry_space_group_name_H-M "P 41 21 2"
_symmetry_group_IT_number 92
_symmetry_cell_setting 'tetragonal'
loop_
_space_group_symop_operation_xyz
x,y,z
1/2-y,1/2+x,1/4+z
-x,-y,1/2+z
1/2+y,1/2-x,3/4+z
1/2+x,1/2-y,3/4-z
1/2-x,1/2+y,1/4-z
y,x,-z
-y,-x,1/2-z
loop_
_atom_site_type_symbol
_atom_site_label
_atom_site_fract_x
_atom_site_fract_y
_atom_site_fract_z
Si Si1 0.936830 0.393250 0.554338
Si Si2 0.325249 0.674752 0.750000
Si Si3 0.028784 0.875075 0.490341
Si Si4 0.245240 0.125033 0.132070
Si Si5 0.302214 0.470087 0.650091
O O1 0.915266 0.474326 0.417002
O O2 0.847490 0.385116 0.679001
O O3 0.949045 0.299362 0.450728
O O4 0.326078 0.742872 0.580364
O O5 0.316975 0.575924 0.669411
O O6 0.042870 0.826479 0.686547
O O7 0.127810 0.917317 0.466307
O O8 0.972429 0.804614 0.365885
O O9 0.961545 0.961545 0.500000
O O10 0.186333 0.186333 0.000000
#
# Coordination Sequence:
#
# PCOD9549146 Si02
#       5
#     8   4   8   8   8
#     4  12  30  50  69 101 147 208 253 296 354 438
#     4  12  20  42  76 108 150 170 246 306 368 428
#     4  10  21  40  74 113 142 179 233 308 383 429
#     4  11  25  46  77 111 145 193 242 309 367 441
#     4  11  23  43  71 110 147 183 236 308 375 429
#
# _framework density 22.314519000000001
#
# number of rings (size 3 to 8) (size 9 to 14) (size 15 to 20)
#    0.000    0.889    7.778    0.000    3.111    4.444 
#    0.000    0.000    0.000    0.000    0.000    0.000 
#    0.000    0.000    0.000    0.000    0.000    0.000 
#
# Total GULP energy -201075.382331 kJ/mol
# GULP energy per Si atom -5585.427287 kJ/mol
# Density = 2.226373 g / cm^3
# Si number density = 22.314519 Si / 1000 Ang^3
#
#
#
# Elastic Constant Matrix: (Units=GPa)
#
#
# Indices 1 2 3 4 5 6 
#
# 1 174.1160 35.0845 17.0138 0.0000 0.0000 0.0000
# 2 35.0845 174.1146 17.0129 0.0000 0.0000 0.0000
# 3 17.0138 17.0129 45.6271 0.0000 0.0000 0.0000
# 4 0.0000 0.0000 0.0000 42.3997 0.0000 0.0000
# 5 0.0000 0.0000 0.0000 0.0000 42.3969 0.0000
# 6 0.0000 0.0000 0.0000 0.0000 0.0000 18.1592
#
#
#
# Elastic Compliance Matrix: (Units=1/GPa)
#
#
# Indices 1 2 3 4 5 6 
#
# 1 0.006141 -0.001052 -0.001898 0.000000 0.000000 0.000000
# 2 -0.001052 0.006141 -0.001897 0.000000 0.000000 0.000000
# 3 -0.001898 -0.001897 0.023332 0.000000 0.000000 0.000000
# 4 0.000000 0.000000 0.000000 0.023585 0.000000 0.000000
# 5 0.000000 0.000000 0.000000 0.000000 0.023587 0.000000
# 6 0.000000 0.000000 0.000000 0.000000 0.000000 0.055068
#
#
# Mechanical properties :
#
#
# Convention : Reuss Voigt Hill
#
# Bulk Modulus (GPa) = 38.58108 59.11999 48.85054
# Shear Modulus (GPa) = 32.01291 42.24093 37.12692
#
# Velocity S-wave (km/s) = 3.79175 4.35556 4.08340
# Velocity P-wave (km/s) = 6.04128 7.20042 6.64617
#
# Compressibility (1/GPa) = 0.02591944
#
# Stress axis : x y z
#
# Youngs Moduli (GPa) = 162.84823 162.84756 42.85982
#
# Poissons Ratio (x) = 0.17131 0.08133
# Poissons Ratio (y) = 0.17131 0.08132
# Poissons Ratio (z) = 0.30901 0.30899
#
# Static dielectric constant tensor:
#      x y z
#    x 1.779190 0.000000 0.000000 
#    y 0.000000 1.779190 0.000000 
#    z 0.000000 0.000000 1.859280 
# 
# From -- ./inp_files/1257.got.cif
#   From: 2010.05.17/outbox.cif.g08.bks.cpg/sg92_1_cif.got.tgz:1257.got - 2010.06.03 19:35:17.
