data_PCOD9549590
_publ_section_title
;
Structure prediction by ZEFSAII (Michael W. Deem and Ramdas Pophale) SiO2 
 PCOD9549590
Probable space group: P 41 21 2
;
_chemical_formula_sum "Si O2"
_cell_formula_units_Z 52
_cell_length_a 18.000000
_cell_length_b 18.000000
_cell_length_c 9.000000
_cell_angle_alpha 90.000000
_cell_angle_beta 90.000000
_cell_angle_gamma 90.000000
_cell_volume 2916.000000
_symmetry_space_group_name_H-M "P 41 21 2"
_symmetry_group_IT_number 92
_symmetry_cell_setting 'tetragonal'
loop_
_space_group_symop_operation_xyz
x,y,z
1/2-y,1/2+x,1/4+z
-x,-y,1/2+z
1/2+y,1/2-x,3/4+z
1/2+x,1/2-y,3/4-z
1/2-x,1/2+y,1/4-z
y,x,-z
-y,-x,1/2-z
loop_
_atom_site_type_symbol
_atom_site_label
_atom_site_fract_x
_atom_site_fract_y
_atom_site_fract_z
Si Si1 0.559058 0.938703 0.225637
Si Si2 0.531587 0.795242 0.666097
Si Si3 0.068567 0.354489 0.833930
Si Si4 0.627097 0.372904 0.250000
Si Si5 0.513228 0.639530 0.519436
Si Si6 0.702130 0.421319 0.746572
Si Si7 0.567636 0.233526 0.431200
O O1 0.502748 0.888414 0.326358
O O2 0.645473 0.911420 0.211887
O O3 0.557910 0.017570 0.315519
O O4 0.461770 0.830742 0.577017
O O5 0.591529 0.860935 0.667525
O O6 0.548574 0.716944 0.583195
O O7 0.505860 0.775421 0.831497
O O8 0.092992 0.279447 0.914272
O O9 0.557664 0.377183 0.131044
O O10 0.618055 0.293068 0.335905
O O11 0.572699 0.572699 0.500000
O O12 0.480389 0.659034 0.356714
O O13 0.651372 0.348629 0.750000
O O14 0.725415 0.445136 0.912235
#
# Coordination Sequence:
#
# PCOD9549590 Si02
#       7
#     8   8   8   4   8   8   8
#     4  12  23  37  63  99 131 171 213 266 319 396
#     4  10  23  37  60  91 133 165 208 262 319 387
#     4  11  21  39  61  95 132 171 211 258 323 391
#     4  10  22  42  62  94 126 168 218 270 340 376
#     4  10  23  41  67  93 121 163 219 279 323 385
#     4  11  22  41  66  91 122 171 218 262 322 391
#     4  11  23  39  61  93 129 165 221 259 320 396
#
# _framework density 17.832647000000001
#
# number of rings (size 3 to 8) (size 9 to 14) (size 15 to 20)
#    0.000    1.231    4.615    0.923    3.231    0.615 
#    0.000    2.308    0.000    0.000    2.000    0.000 
#    0.000    0.000    0.000    0.000    0.000    0.000 
#
# Total GULP energy -289982.475245 kJ/mol
# GULP energy per Si atom -5576.586062 kJ/mol
# Density = 1.779206 g / cm^3
# Si number density = 17.832647 Si / 1000 Ang^3
#
#
#
# Elastic Constant Matrix: (Units=GPa)
#
#
# Indices 1 2 3 4 5 6 
#
# 1 125.6862 82.3916 58.1415 0.0000 0.0000 0.0000
# 2 82.3916 125.6864 58.1419 0.0000 0.0000 0.0000
# 3 58.1415 58.1419 127.6537 0.0000 0.0000 0.0000
# 4 0.0000 0.0000 0.0000 29.0864 0.0000 0.0000
# 5 0.0000 0.0000 0.0000 0.0000 29.0865 0.0000
# 6 0.0000 0.0000 0.0000 0.0000 0.0000 32.4103
#
#
#
# Elastic Compliance Matrix: (Units=1/GPa)
#
#
# Indices 1 2 3 4 5 6 
#
# 1 0.014772 -0.008325 -0.002936 0.000000 0.000000 0.000000
# 2 -0.008325 0.014772 -0.002936 0.000000 0.000000 0.000000
# 3 -0.002936 -0.002936 0.010508 0.000000 0.000000 0.000000
# 4 0.000000 0.000000 0.000000 0.034380 0.000000 0.000000
# 5 0.000000 0.000000 0.000000 0.000000 0.034380 0.000000
# 6 0.000000 0.000000 0.000000 0.000000 0.000000 0.030854
#
#
# Mechanical properties :
#
#
# Convention : Reuss Voigt Hill
#
# Bulk Modulus (GPa) = 85.78600 86.26402 86.02501
# Shear Modulus (GPa) = 29.07833 30.14005 29.60919
#
# Velocity S-wave (km/s) = 4.04248 4.11562 4.07921
# Velocity P-wave (km/s) = 8.36657 8.42992 8.39831
#
# Compressibility (1/GPa) = 0.01165691
#
# Stress axis : x y z
#
# Youngs Moduli (GPa) = 67.69488 67.69478 95.16143
#
# Poissons Ratio (x) = 0.56358 0.27942
# Poissons Ratio (y) = 0.56358 0.27943
# Poissons Ratio (z) = 0.19877 0.19878
#
# Static dielectric constant tensor:
#      x y z
#    x 1.607620 0.000000 0.000000 
#    y 0.000000 1.607620 0.000000 
#    z 0.000000 0.000000 1.670450 
# 
# From -- ./inp_files/1577.got.cif
#   From: 2010.05.17/outbox.ucp.g08.bks.cvg/sg92_1_cif.got.tgz:1577.got - 2010.06.11 10:36:43.
