data_PCOD9549646
_publ_section_title
;
Structure prediction by ZEFSAII (Michael W. Deem and Ramdas Pophale) SiO2 
 PCOD9549646
Probable space group: P 42 2 2
;
_chemical_formula_sum "Si O2"
_cell_formula_units_Z 38
_cell_length_a 9.727826
_cell_length_b 9.727826
_cell_length_c 22.273066
_cell_angle_alpha 90.000000
_cell_angle_beta 90.000000
_cell_angle_gamma 90.000000
_cell_volume 2107.713570
_symmetry_space_group_name_H-M "P 42 2 2"
_symmetry_group_IT_number 93
_symmetry_cell_setting 'tetragonal'
loop_
_space_group_symop_operation_xyz
x,y,z
-y,x,1/2+z
-x,-y,z
y,-x,1/2+z
x,-y,-z
-x,y,-z
y,x,1/2-z
-y,-x,1/2-z
loop_
_atom_site_type_symbol
_atom_site_label
_atom_site_fract_x
_atom_site_fract_y
_atom_site_fract_z
Si Si1 0.736452 0.837345 0.930260
Si Si2 0.367208 0.087725 0.377914
Si Si3 0.661656 0.519284 0.928390
Si Si4 0.862838 0.087388 0.315203
Si Si5 0.500000 0.000000 0.000000
Si Si6 0.774949 0.000000 0.500000
O O1 0.705228 0.676651 0.919346
O O2 0.798046 0.883843 0.866682
O O3 0.863844 0.852065 0.976943
O O4 0.602240 0.909691 0.958133
O O5 0.417066 0.244845 0.388084
O O6 0.315942 0.044342 0.443819
O O7 0.500000 0.000000 0.362444
O O8 0.251883 0.025923 0.333824
O O9 0.500000 0.500000 0.916831
O O10 0.685410 0.500000 0.000000
O O11 0.844223 0.155777 0.250000
O O12 0.000000 0.000000 0.313539
#
# Coordination Sequence:
#
# PCOD9549646 Si02
#       6
#     8   8   8   8   2   4
#     4  11  24  38  59  90 129 164 208 259 319 394
#     4  11  18  36  65  91 118 160 212 251 295 381
#     4  11  20  33  59  95 133 161 194 251 319 386
#     4  10  24  43  65  88 118 166 225 265 312 370
#     4  12  28  38  50  96 144 170 188 268 368 378
#     4  10  19  33  60  92 117 156 215 242 293 372
#
# _framework density 18.029014
#
# number of rings (size 3 to 8) (size 9 to 14) (size 15 to 20)
#    0.000    1.263    6.316    1.579    5.895    0.000 
#    1.895    0.000    0.000    0.632    0.000    0.000 
#    0.000    0.000    0.000    0.000    0.000    0.000 
#
# Total GULP energy -211734.329595 kJ/mol
# GULP energy per Si atom -5571.956042 kJ/mol
# Density = 1.798798 g / cm^3
# Si number density = 18.029014 Si / 1000 Ang^3
#
#
#
# Elastic Constant Matrix: (Units=GPa)
#
#
# Indices 1 2 3 4 5 6 
#
# 1 115.5713 53.9349 56.3742 0.0000 0.0000 0.0000
# 2 53.9349 115.5710 56.3742 0.0000 0.0000 0.0000
# 3 56.3742 56.3742 69.9989 0.0000 0.0000 0.0000
# 4 0.0000 0.0000 0.0000 47.1005 0.0000 0.0000
# 5 0.0000 0.0000 0.0000 0.0000 47.0983 0.0000
# 6 0.0000 0.0000 0.0000 0.0000 0.0000 29.2143
#
#
#
# Elastic Compliance Matrix: (Units=1/GPa)
#
#
# Indices 1 2 3 4 5 6 
#
# 1 0.014465 -0.001759 -0.010233 0.000000 0.000000 0.000000
# 2 -0.001759 0.014465 -0.010233 0.000000 0.000000 0.000000
# 3 -0.010233 -0.010233 0.030768 0.000000 0.000000 0.000000
# 4 0.000000 0.000000 0.000000 0.021231 0.000000 0.000000
# 5 0.000000 0.000000 0.000000 0.000000 0.021232 0.000000
# 6 0.000000 0.000000 0.000000 0.000000 0.000000 0.034230
#
#
# Mechanical properties :
#
#
# Convention : Reuss Voigt Hill
#
# Bulk Modulus (GPa) = 65.57948 70.50088 68.04018
# Shear Modulus (GPa) = 26.89269 33.64648 30.26958
#
# Velocity S-wave (km/s) = 3.86636 4.32469 4.10193
# Velocity P-wave (km/s) = 7.50899 8.00789 7.76245
#
# Compressibility (1/GPa) = 0.01524867
#
# Stress axis : x y z
#
# Youngs Moduli (GPa) = 69.13212 69.13176 32.50110
#
# Poissons Ratio (x) = 0.12161 0.33258
# Poissons Ratio (y) = 0.12161 0.33258
# Poissons Ratio (z) = 0.70742 0.70742
#
# Static dielectric constant tensor:
#      x y z
#    x 1.638620 0.000000 0.000000 
#    y 0.000000 1.638620 0.000000 
#    z 0.000000 0.000000 1.574120 
# 
# From -- ./inp_files/6754.got.cif
#   From: 2010.05.17/outbox.cif.g08.bks.cpg/sg93_4_cif.got.tgz:6754.got - 2010.06.03 19:38:44.
