data_PCOD9549820
_publ_section_title
;
Structure prediction by ZEFSAII (Michael W. Deem and Ramdas Pophale) SiO2 
 PCOD9549820
Probable space group: P 42 2 2
;
_chemical_formula_sum "Si O2"
_cell_formula_units_Z 20
_cell_length_a 8.816653
_cell_length_b 8.816653
_cell_length_c 9.827719
_cell_angle_alpha 90.000000
_cell_angle_beta 90.000000
_cell_angle_gamma 90.000000
_cell_volume 763.941718
_symmetry_space_group_name_H-M "P 42 2 2"
_symmetry_group_IT_number 93
_symmetry_cell_setting 'tetragonal'
loop_
_space_group_symop_operation_xyz
x,y,z
-y,x,1/2+z
-x,-y,z
y,-x,1/2+z
x,-y,-z
-x,y,-z
y,x,1/2-z
-y,-x,1/2-z
loop_
_atom_site_type_symbol
_atom_site_label
_atom_site_fract_x
_atom_site_fract_y
_atom_site_fract_z
Si Si1 0.000000 0.500000 0.799730
Si Si2 0.561052 0.746301 0.858211
Si Si3 0.000000 0.232324 0.500000
Si Si4 0.759576 0.000000 0.500000
O O1 0.850463 0.440979 0.721877
O O2 0.061861 0.359887 0.890053
O O3 0.632163 0.632163 0.750000
O O4 0.669717 0.887514 0.905364
O O5 0.500000 0.680499 0.000000
O O6 0.126068 0.121137 0.435235
#
# Coordination Sequence:
#
# PCOD9549820 Si02
#       4
#     4   8   4   4
#     4  11  21  42  68 106 165 211 262 330 435 503
#     4  12  24  45  75 112 162 217 276 347 422 505
#     4  11  21  42  70 114 149 205 268 344 412 486
#     4  10  24  38  68 114 156 202 268 348 418 500
#
# _framework density 26.180005000000001
#
# number of rings (size 3 to 8) (size 9 to 14) (size 15 to 20)
#    0.000    0.800    8.000    0.000    0.000    1.600 
#    0.000    0.000    0.000   14.400    0.000    0.000 
#    0.000    0.000    0.000    0.000    0.000    0.000 
#
# Total GULP energy -111476.211330 kJ/mol
# GULP energy per Si atom -5573.810567 kJ/mol
# Density = 2.612042 g / cm^3
# Si number density = 26.180005 Si / 1000 Ang^3
#
#
#
# Elastic Constant Matrix: (Units=GPa)
#
#
# Indices 1 2 3 4 5 6 
#
# 1 110.5694 52.6262 52.2362 0.0000 0.0000 0.0000
# 2 52.6262 110.5694 52.2362 0.0000 0.0000 0.0000
# 3 52.2362 52.2362 169.1838 0.0000 0.0000 0.0000
# 4 0.0000 0.0000 0.0000 38.8026 0.0000 0.0000
# 5 0.0000 0.0000 0.0000 0.0000 38.8026 0.0000
# 6 0.0000 0.0000 0.0000 0.0000 0.0000 45.6959
#
#
#
# Elastic Compliance Matrix: (Units=1/GPa)
#
#
# Indices 1 2 3 4 5 6 
#
# 1 0.012448 -0.004811 -0.002358 0.000000 0.000000 0.000000
# 2 -0.004811 0.012448 -0.002358 0.000000 0.000000 0.000000
# 3 -0.002358 -0.002358 0.007367 0.000000 0.000000 0.000000
# 4 0.000000 0.000000 0.000000 0.025771 0.000000 0.000000
# 5 0.000000 0.000000 0.000000 0.000000 0.025771 0.000000
# 6 0.000000 0.000000 0.000000 0.000000 0.000000 0.021884
#
#
# Mechanical properties :
#
#
# Convention : Reuss Voigt Hill
#
# Bulk Modulus (GPa) = 75.70547 78.27998 76.99272
# Shear Modulus (GPa) = 38.71615 40.20849 39.46232
#
# Velocity S-wave (km/s) = 3.84975 3.92324 3.88667
# Velocity P-wave (km/s) = 6.98146 7.10549 7.04375
#
# Compressibility (1/GPa) = 0.01320909
#
# Stress axis : x y z
#
# Youngs Moduli (GPa) = 80.33617 80.33617 135.74396
#
# Poissons Ratio (x) = 0.38646 0.32008
# Poissons Ratio (y) = 0.38646 0.32008
# Poissons Ratio (z) = 0.18943 0.18943
#
# Static dielectric constant tensor:
#      x y z
#    x 2.152960 0.000000 0.000000 
#    y 0.000000 2.152960 0.000000 
#    z 0.000000 0.000000 2.295940 
# 
# From -- ./inp_files/2609.got.cif
#   From: 2010.05.17/outbox.cif.g08.bks.cpg/sg93_2_cif.got.tgz:2609.got - 2010.06.03 19:38:44.
