data_PCOD9549355
_publ_section_title
;
Structure prediction by ZEFSAII (Michael W. Deem and Ramdas Pophale) SiO2 
 PCOD9549355
Probable space group: P 41 21 2
;
_chemical_formula_sum "Si O2"
_cell_formula_units_Z 40
_cell_length_a 18.245340
_cell_length_b 18.245340
_cell_length_c 5.243890
_cell_angle_alpha 90.000000
_cell_angle_beta 90.000000
_cell_angle_gamma 90.000000
_cell_volume 1745.651294
_symmetry_space_group_name_H-M "P 41 21 2"
_symmetry_group_IT_number 92
_symmetry_cell_setting 'tetragonal'
loop_
_space_group_symop_operation_xyz
x,y,z
1/2-y,1/2+x,1/4+z
-x,-y,1/2+z
1/2+y,1/2-x,3/4+z
1/2+x,1/2-y,3/4-z
1/2-x,1/2+y,1/4-z
y,x,-z
-y,-x,1/2-z
loop_
_atom_site_type_symbol
_atom_site_label
_atom_site_fract_x
_atom_site_fract_y
_atom_site_fract_z
Si Si1 0.760807 0.760807 0.000000
Si Si2 0.708136 0.402855 0.469160
Si Si3 0.569127 0.430874 0.750000
Si Si4 0.205131 0.549613 0.462154
Si Si5 0.843846 0.156155 0.750000
Si Si6 0.306434 0.884425 0.968376
Si Si7 0.412147 0.412147 0.500000
O O1 0.814553 0.788196 0.220081
O O2 0.676920 0.779908 0.019665
O O3 0.624896 0.422713 0.515695
O O4 0.747685 0.431801 0.716685
O O5 0.748747 0.435069 0.220587
O O6 0.491849 0.411537 0.626369
O O7 0.188783 0.463898 0.412561
O O8 0.140211 0.610831 0.456559
O O9 0.759447 0.131904 0.675089
O O10 0.890353 0.137058 0.494952
#
# Coordination Sequence:
#
# PCOD9549355 Si02
#       7
#     4   8   4   8   4   8   4
#     4  10  23  45  74 103 134 185 236 297 359 432
#     4  11  25  45  71 102 140 189 242 290 357 438
#     4  12  26  46  68 104 154 192 238 304 362 434
#     4  11  27  47  74 108 142 192 248 306 370 437
#     4  12  27  47  72 107 148 199 249 303 364 450
#     4  11  25  48  76 107 146 190 247 308 371 439
#     4  12  30  44  68 106 148 196 241 292 369 430
#
# _framework density 22.914083000000002
#
# number of rings (size 3 to 8) (size 9 to 14) (size 15 to 20)
#    0.000    0.800    0.000    6.000    0.000   23.200 
#    0.000    4.000    0.000    0.000    0.000    0.000 
#    0.000    0.000    0.000    0.000    0.000    0.000 
#
# Total GULP energy -223266.098794 kJ/mol
# GULP energy per Si atom -5581.652470 kJ/mol
# Density = 2.286193 g / cm^3
# Si number density = 22.914083 Si / 1000 Ang^3
#
#
#
# Elastic Constant Matrix: (Units=GPa)
#
#
# Indices 1 2 3 4 5 6 
#
# 1 193.7334 70.6168 65.7778 0.0000 0.0000 0.0000
# 2 70.6168 193.7361 65.7786 0.0000 0.0000 0.0000
# 3 65.7778 65.7786 178.5847 0.0000 0.0000 0.0000
# 4 0.0000 0.0000 0.0000 35.6650 0.0000 0.0000
# 5 0.0000 0.0000 0.0000 0.0000 35.6646 0.0000
# 6 0.0000 0.0000 0.0000 0.0000 0.0000 27.5289
#
#
#
# Elastic Compliance Matrix: (Units=1/GPa)
#
#
# Indices 1 2 3 4 5 6 
#
# 1 0.006377 -0.001745 -0.001706 0.000000 0.000000 0.000000
# 2 -0.001745 0.006377 -0.001706 0.000000 0.000000 0.000000
# 3 -0.001706 -0.001706 0.006856 0.000000 0.000000 0.000000
# 4 0.000000 0.000000 0.000000 0.028039 0.000000 0.000000
# 5 0.000000 0.000000 0.000000 0.000000 0.028039 0.000000
# 6 0.000000 0.000000 0.000000 0.000000 0.000000 0.036325
#
#
# Mechanical properties :
#
#
# Convention : Reuss Voigt Hill
#
# Bulk Modulus (GPa) = 107.57455 107.82228 107.69842
# Shear Modulus (GPa) = 39.86381 44.03042 41.94711
#
# Velocity S-wave (km/s) = 4.17551 4.38830 4.28322
# Velocity P-wave (km/s) = 8.38423 8.53425 8.45957
#
# Compressibility (1/GPa) = 0.00929588
#
# Stress axis : x y z
#
# Youngs Moduli (GPa) = 156.81054 156.81254 145.84968
#
# Poissons Ratio (x) = 0.27367 0.24883
# Poissons Ratio (y) = 0.27367 0.24883
# Poissons Ratio (z) = 0.26753 0.26753
#
# Static dielectric constant tensor:
#      x y z
#    x 1.954920 0.000000 0.000000 
#    y 0.000000 1.954920 0.000000 
#    z 0.000000 0.000000 1.874470 
# 
# From -- ./inp_files/504.got.cif
#   From: 2010.05.17/outbox.cif.g08.bks.cpg/sg92_1_cif.got.tgz:504.got - 2010.06.03 19:35:17.
