data_PCOD9549111
_publ_section_title
;
Structure prediction by ZEFSAII (Michael W. Deem and Ramdas Pophale) SiO2 
 PCOD9549111
Probable space group: P 41 21 2
;
_chemical_formula_sum "Si O2"
_cell_formula_units_Z 28
_cell_length_a 13.809373
_cell_length_b 13.809373
_cell_length_c 7.416188
_cell_angle_alpha 90.000000
_cell_angle_beta 90.000000
_cell_angle_gamma 90.000000
_cell_volume 1414.258024
_symmetry_space_group_name_H-M "P 41 21 2"
_symmetry_group_IT_number 92
_symmetry_cell_setting 'tetragonal'
loop_
_space_group_symop_operation_xyz
x,y,z
1/2-y,1/2+x,1/4+z
-x,-y,1/2+z
1/2+y,1/2-x,3/4+z
1/2+x,1/2-y,3/4-z
1/2-x,1/2+y,1/4-z
y,x,-z
-y,-x,1/2-z
loop_
_atom_site_type_symbol
_atom_site_label
_atom_site_fract_x
_atom_site_fract_y
_atom_site_fract_z
Si Si1 0.119055 0.439034 0.095012
Si Si2 0.752422 0.785640 0.289351
Si Si3 0.616185 0.383816 0.250000
Si Si4 0.419831 0.302122 0.148634
O O1 0.092116 0.528592 0.221490
O O2 0.154452 0.347466 0.214014
O O3 0.208971 0.460077 0.960264
O O4 0.781908 0.781908 0.500000
O O5 0.834273 0.833787 0.171568
O O6 0.733246 0.673468 0.238341
O O7 0.503719 0.357097 0.251932
O O8 0.373970 0.373970 0.000000
#
# Coordination Sequence:
#
# PCOD9549111 Si02
#       4
#     8   8   4   8
#     4  10  21  37  62  91 127 158 202 265 319 367
#     4   9  22  42  60  91 132 158 201 275 307 362
#     4  12  22  40  74  90 114 184 216 240 320 398
#     4   9  21  43  57  91 132 158 206 270 313 362
#
# _framework density 19.798368
#
# number of rings (size 3 to 8) (size 9 to 14) (size 15 to 20)
#    0.000    2.857    0.000    3.429    4.000    2.286 
#   15.429    0.000    0.000    0.000    0.000    0.000 
#    0.000    0.000    0.000    0.000    0.000    0.000 
#
# Total GULP energy -156312.160699 kJ/mol
# GULP energy per Si atom -5582.577168 kJ/mol
# Density = 1.975331 g / cm^3
# Si number density = 19.798368 Si / 1000 Ang^3
#
#
#
# Elastic Constant Matrix: (Units=GPa)
#
#
# Indices 1 2 3 4 5 6 
#
# 1 93.0672 53.6691 27.5735 0.0000 0.0000 0.0000
# 2 53.6691 93.0674 27.5734 0.0000 0.0000 0.0000
# 3 27.5735 27.5734 30.2444 0.0000 0.0000 0.0000
# 4 0.0000 0.0000 0.0000 17.5285 0.0000 0.0000
# 5 0.0000 0.0000 0.0000 0.0000 17.5286 0.0000
# 6 0.0000 0.0000 0.0000 0.0000 0.0000 27.6834
#
#
#
# Elastic Compliance Matrix: (Units=1/GPa)
#
#
# Indices 1 2 3 4 5 6 
#
# 1 0.017874 -0.007507 -0.009452 0.000000 0.000000 0.000000
# 2 -0.007507 0.017874 -0.009451 0.000000 0.000000 0.000000
# 3 -0.009452 -0.009451 0.050297 0.000000 0.000000 0.000000
# 4 0.000000 0.000000 0.000000 0.057050 0.000000 0.000000
# 5 0.000000 0.000000 0.000000 0.000000 0.057050 0.000000
# 6 0.000000 0.000000 0.000000 0.000000 0.000000 0.036123
#
#
# Mechanical properties :
#
#
# Convention : Reuss Voigt Hill
#
# Bulk Modulus (GPa) = 30.09723 48.22344 39.16033
# Shear Modulus (GPa) = 16.65754 19.71899 18.18827
#
# Velocity S-wave (km/s) = 2.90377 3.15936 3.03425
# Velocity P-wave (km/s) = 5.14561 6.14157 5.66552
#
# Compressibility (1/GPa) = 0.03322565
#
# Stress axis : x y z
#
# Youngs Moduli (GPa) = 55.94571 55.94602 19.88172
#
# Poissons Ratio (x) = 0.42001 0.18791
# Poissons Ratio (y) = 0.42001 0.18791
# Poissons Ratio (z) = 0.52877 0.52877
#
# Static dielectric constant tensor:
#      x y z
#    x 1.710950 0.000000 0.000000 
#    y 0.000000 1.710950 0.000000 
#    z 0.000000 0.000000 1.706620 
# 
# From -- ./inp_files/1085.got.cif
#   From: 2010.05.17/outbox.cif.g08.bks.cpg/sg92_1_cif.got.tgz:1085.got - 2010.06.03 19:35:17.
