data_PCOD9549813
_publ_section_title
;
Structure prediction by ZEFSAII (Michael W. Deem and Ramdas Pophale) SiO2 
 PCOD9549813
Probable space group: P 42 2 2
;
_chemical_formula_sum "Si O2"
_cell_formula_units_Z 40
_cell_length_a 14.495847
_cell_length_b 14.495847
_cell_length_c 9.390968
_cell_angle_alpha 90.000000
_cell_angle_beta 90.000000
_cell_angle_gamma 90.000000
_cell_volume 1973.320164
_symmetry_space_group_name_H-M "P 42 2 2"
_symmetry_group_IT_number 93
_symmetry_cell_setting 'tetragonal'
loop_
_space_group_symop_operation_xyz
x,y,z
-y,x,1/2+z
-x,-y,z
y,-x,1/2+z
x,-y,-z
-x,y,-z
y,x,1/2-z
-y,-x,1/2-z
loop_
_atom_site_type_symbol
_atom_site_label
_atom_site_fract_x
_atom_site_fract_y
_atom_site_fract_z
Si Si1 0.610654 0.845725 0.509865
Si Si2 0.264506 0.122494 0.230689
Si Si3 0.687110 0.751992 0.965269
Si Si4 0.500000 0.500000 0.250000
Si Si5 0.340847 0.071778 0.801005
Si Si6 0.000000 0.500000 0.500000
Si Si7 0.500000 0.649295 0.000000
O O1 0.500000 0.835603 0.500000
O O2 0.666314 0.871397 0.365997
O O3 0.662743 0.751316 0.551732
O O4 0.630803 0.916823 0.636999
O O5 0.159597 0.159597 0.250000
O O6 0.276866 0.017815 0.179195
O O7 0.298972 0.196265 0.115222
O O8 0.704174 0.833163 0.852748
O O9 0.585113 0.714159 0.965663
O O10 0.508802 0.585444 0.140442
O O11 0.432088 0.057221 0.897580
#
# Coordination Sequence:
#
# PCOD9549813 Si02
#       7
#     8   8   8   2   8   2   4
#     4  11  26  40  66  97 135 176 221 284 335 402
#     4  10  23  44  66  97 132 174 216 283 352 411
#     4  11  25  41  66  94 134 180 225 274 339 406
#     4  10  28  46  64  86 136 190 246 272 328 406
#     4  12  23  42  64  99 131 173 228 282 343 406
#     4  12  22  36  72  92 138 182 220 292 346 416
#     4  11  27  42  64  92 130 188 234 286 324 398
#
# _framework density 20.270406000000001
#
# number of rings (size 3 to 8) (size 9 to 14) (size 15 to 20)
#    0.000    1.000    2.000    3.000   12.600    0.800 
#    0.000    0.000    0.000    2.400    0.000   11.200 
#    0.000    0.000    0.000    0.000    0.000    0.000 
#
# Total GULP energy -223299.861135 kJ/mol
# GULP energy per Si atom -5582.496528 kJ/mol
# Density = 2.022427 g / cm^3
# Si number density = 20.270406 Si / 1000 Ang^3
#
#
#
# Elastic Constant Matrix: (Units=GPa)
#
#
# Indices 1 2 3 4 5 6 
#
# 1 89.7522 105.9617 27.8066 0.0000 0.0000 0.0000
# 2 105.9617 89.7522 27.8066 0.0000 0.0000 0.0000
# 3 27.8066 27.8066 123.9981 0.0000 0.0000 0.0000
# 4 0.0000 0.0000 0.0000 20.8684 0.0000 0.0000
# 5 0.0000 0.0000 0.0000 0.0000 20.8684 0.0000
# 6 0.0000 0.0000 0.0000 0.0000 0.0000 19.9413
#
#
#
# Elastic Compliance Matrix: (Units=1/GPa)
#
#
# Indices 1 2 3 4 5 6 
#
# 1 -0.028117 0.033575 -0.001224 0.000000 0.000000 0.000000
# 2 0.033575 -0.028117 -0.001224 0.000000 0.000000 0.000000
# 3 -0.001224 -0.001224 0.008614 0.000000 0.000000 0.000000
# 4 0.000000 0.000000 0.000000 0.047919 0.000000 0.000000
# 5 0.000000 0.000000 0.000000 0.000000 0.047919 0.000000
# 6 0.000000 0.000000 0.000000 0.000000 0.000000 0.050147
#
#
# Mechanical properties :
#
#
# Convention : Reuss Voigt Hill
#
# Bulk Modulus (GPa) = 68.33940 69.62804 68.98372
# Shear Modulus (GPa) = 121.98768 21.79748 71.89258
#
# Velocity S-wave (km/s) = 7.76600 3.28279 5.96186
# Velocity P-wave (km/s) = 10.68651 6.98521 9.02759
#
# Compressibility (1/GPa) = 0.01463285
#
# Stress axis : x y z
#
# Youngs Moduli (GPa) = -35.56516 -35.56516 116.09666
#
# Poissons Ratio (x) = 1.19409 0.14208
# Poissons Ratio (y) = 1.19409 0.14208
# Poissons Ratio (z) = -0.04352 -0.04352
#
# Static dielectric constant tensor:
#      x y z
#    x 1.715190 0.000000 0.000000 
#    y 0.000000 1.715190 0.000000 
#    z 0.000000 0.000000 1.704710 
# 
# From -- ./inp_files/1901.got.cif
#   From: 2010.05.17/outbox.cif.g08.bks.cpg/sg93_1_cif.got.tgz:1901.got - 2010.06.03 19:38:44.
