data_PCOD9549141
_publ_section_title
;
Structure prediction by ZEFSAII (Michael W. Deem and Ramdas Pophale) SiO2 
 PCOD9549141
Probable space group: P 41 21 2
;
_chemical_formula_sum "Si O2"
_cell_formula_units_Z 40
_cell_length_a 11.908588
_cell_length_b 11.908588
_cell_length_c 14.065802
_cell_angle_alpha 90.000000
_cell_angle_beta 90.000000
_cell_angle_gamma 90.000000
_cell_volume 1994.734230
_symmetry_space_group_name_H-M "P 41 21 2"
_symmetry_group_IT_number 92
_symmetry_cell_setting 'tetragonal'
loop_
_space_group_symop_operation_xyz
x,y,z
1/2-y,1/2+x,1/4+z
-x,-y,1/2+z
1/2+y,1/2-x,3/4+z
1/2+x,1/2-y,3/4-z
1/2-x,1/2+y,1/4-z
y,x,-z
-y,-x,1/2-z
loop_
_atom_site_type_symbol
_atom_site_label
_atom_site_fract_x
_atom_site_fract_y
_atom_site_fract_z
Si Si1 0.307541 0.878583 0.005778
Si Si2 0.743229 0.093925 0.005859
Si Si3 0.766645 0.473182 0.437036
Si Si4 0.801285 0.878262 0.104325
Si Si5 0.139350 0.316889 0.040183
O O1 0.178874 0.841802 0.022058
O O2 0.370160 0.823124 0.095799
O O3 0.340859 0.810869 0.910075
O O4 0.322580 0.012434 0.000059
O O5 0.703655 0.028261 0.913098
O O6 0.634106 0.157359 0.042181
O O7 0.789293 0.008230 0.082390
O O8 0.648373 0.411099 0.418072
O O9 0.788968 0.571968 0.511308
O O10 0.819237 0.819237 0.000000
O O11 0.210423 0.210423 0.000000
#
# Coordination Sequence:
#
# PCOD9549141 Si02
#       5
#     8   8   8   8   8
#     4  11  26  43  67 104 138 175 238 280 341 418
#     4  10  21  42  66  97 131 176 223 283 339 403
#     4  10  21  40  65  92 136 169 222 279 337 400
#     4   9  22  42  71  99 131 178 227 277 345 406
#     4  12  26  44  67  99 140 184 227 281 347 411
#
# _framework density 20.052797000000002
#
# number of rings (size 3 to 8) (size 9 to 14) (size 15 to 20)
#    0.000    1.600    2.000    1.200    8.400    5.600 
#    0.000    0.000    0.000    0.000    0.000    0.000 
#    0.000    0.000    0.000    0.000    0.000    0.000 
#
# Total GULP energy -222968.712690 kJ/mol
# GULP energy per Si atom -5574.217817 kJ/mol
# Density = 2.000716 g / cm^3
# Si number density = 20.052797 Si / 1000 Ang^3
#
#
#
# Elastic Constant Matrix: (Units=GPa)
#
#
# Indices 1 2 3 4 5 6 
#
# 1 -61.8828 123.6252 15.4067 0.0000 0.0000 0.0000
# 2 123.6252 -61.8828 15.4067 0.0000 0.0000 0.0000
# 3 15.4067 15.4067 55.5787 0.0000 0.0000 0.0000
# 4 0.0000 0.0000 0.0000 16.3565 0.0000 0.0000
# 5 0.0000 0.0000 0.0000 0.0000 16.3565 0.0000
# 6 0.0000 0.0000 0.0000 0.0000 0.0000 6.9398
#
#
#
# Elastic Compliance Matrix: (Units=1/GPa)
#
#
# Indices 1 2 3 4 5 6 
#
# 1 0.006703 0.012094 -0.005211 0.000000 0.000000 0.000000
# 2 0.012094 0.006703 -0.005211 0.000000 0.000000 0.000000
# 3 -0.005211 -0.005211 0.020881 0.000000 0.000000 0.000000
# 4 0.000000 0.000000 0.000000 0.061138 0.000000 0.000000
# 5 0.000000 0.000000 0.000000 0.000000 0.061138 0.000000
# 6 0.000000 0.000000 0.000000 0.000000 0.000000 0.144097
#
#
# Mechanical properties :
#
#
# Convention : Reuss Voigt Hill
#
# Bulk Modulus (GPa) = 26.57277 26.74339 26.65808
# Shear Modulus (GPa) = 16.13637 -6.91115 4.61261
#
# Velocity S-wave (km/s) = 2.83979 -1.85848 1.51830
# Velocity P-wave (km/s) = 4.90232 2.95976 4.04925
#
# Compressibility (1/GPa) = 0.03763251
#
# Stress axis : x y z
#
# Youngs Moduli (GPa) = 149.18544 149.18544 47.88976
#
# Poissons Ratio (x) = -1.80420 0.24953
# Poissons Ratio (y) = -1.80420 0.24953
# Poissons Ratio (z) = 0.77734 0.77734
#
# Static dielectric constant tensor:
#      x y z
#    x 1.728670 0.000000 0.000000 
#    y 0.000000 1.728670 0.000000 
#    z 0.000000 0.000000 1.775390 
# 
# From -- ./inp_files/2605.got.cif
#   From: 2010.05.17/outbox.cif.g08.bks.cpg/sg92_2_cif.got.tgz:2605.got - 2010.06.03 19:35:17.
