data_PCOD9549643
_publ_section_title
;
Structure prediction by ZEFSAII (Michael W. Deem and Ramdas Pophale) SiO2 
 PCOD9549643
Probable space group: P 42 2 2
;
_chemical_formula_sum "Si O2"
_cell_formula_units_Z 24
_cell_length_a 12.710868
_cell_length_b 12.710868
_cell_length_c 7.551806
_cell_angle_alpha 90.000000
_cell_angle_beta 90.000000
_cell_angle_gamma 90.000000
_cell_volume 1220.116337
_symmetry_space_group_name_H-M "P 42 2 2"
_symmetry_group_IT_number 93
_symmetry_cell_setting 'tetragonal'
loop_
_space_group_symop_operation_xyz
x,y,z
-y,x,1/2+z
-x,-y,z
y,-x,1/2+z
x,-y,-z
-x,y,-z
y,x,1/2-z
-y,-x,1/2-z
loop_
_atom_site_type_symbol
_atom_site_label
_atom_site_fract_x
_atom_site_fract_y
_atom_site_fract_z
Si Si1 0.663028 0.128532 0.507737
Si Si2 0.507832 0.872195 0.796996
Si Si3 0.124467 0.112519 0.956612
O O1 0.587398 0.160443 0.667771
O O2 0.611610 0.157421 0.317468
O O3 0.781255 0.167025 0.540136
O O4 0.666619 0.000000 0.500000
O O5 0.500000 0.000000 0.802590
O O6 0.500000 0.835170 0.000000
O O7 0.129660 0.129660 0.750000
O O8 0.000000 0.105265 0.000000
O O9 0.174716 0.000000 0.000000
#
# Coordination Sequence:
#
# PCOD9549643 Si02
#       3
#     8   8   8
#     4   8  15  27  42  59  81 101 139 202 250 289
#     4   8  13  25  43  65  77  92 129 190 271 305
#     4  10  19  33  42  55  84 127 171 208 238 277
#
# _framework density 19.670254
#
# number of rings (size 3 to 8) (size 9 to 14) (size 15 to 20)
#    0.000    3.333    0.000    4.000    0.000    0.000 
#   24.000    0.000    0.000    0.000    0.000    0.000 
#    0.000    0.000    0.000    0.000    0.000    0.000 
#
# Total GULP energy -133671.144060 kJ/mol
# GULP energy per Si atom -5569.631003 kJ/mol
# Density = 1.962548 g / cm^3
# Si number density = 19.670254 Si / 1000 Ang^3
#
#
#
# Elastic Constant Matrix: (Units=GPa)
#
#
# Indices 1 2 3 4 5 6 
#
# 1 98.5214 -2.0170 37.3691 0.0000 0.0000 0.0000
# 2 -2.0170 98.5214 37.3691 0.0000 0.0000 0.0000
# 3 37.3691 37.3691 158.2582 0.0000 0.0000 0.0000
# 4 0.0000 0.0000 0.0000 10.2464 0.0000 0.0000
# 5 0.0000 0.0000 0.0000 0.0000 10.2464 0.0000
# 6 0.0000 0.0000 0.0000 0.0000 0.0000 -3.0563
#
#
#
# Elastic Compliance Matrix: (Units=1/GPa)
#
#
# Indices 1 2 3 4 5 6 
#
# 1 0.011314 0.001367 -0.002994 0.000000 0.000000 0.000000
# 2 0.001367 0.011314 -0.002994 0.000000 0.000000 0.000000
# 3 -0.002994 -0.002994 0.007733 0.000000 0.000000 0.000000
# 4 0.000000 0.000000 0.000000 0.097595 0.000000 0.000000
# 5 0.000000 0.000000 0.000000 0.000000 0.097595 0.000000
# 6 0.000000 0.000000 0.000000 0.000000 0.000000 -0.327195
#
#
# Mechanical properties :
#
#
# Convention : Reuss Voigt Hill
#
# Bulk Modulus (GPa) = 47.35333 55.63813 51.49573
# Shear Modulus (GPa) = -58.57443 22.32596 -18.12423
#
# Velocity S-wave (km/s) = -5.46286 3.37265 -3.03876
# Velocity P-wave (km/s) = 3.95785 6.59645 3.73153
#
# Compressibility (1/GPa) = 0.02111784
#
# Stress axis : x y z
#
# Youngs Moduli (GPa) = 88.38727 88.38727 129.31761
#
# Poissons Ratio (x) = -0.12086 0.38723
# Poissons Ratio (y) = -0.12086 0.38723
# Poissons Ratio (z) = 0.26467 0.26467
#
# Static dielectric constant tensor:
#      x y z
#    x -0.869940 0.000000 0.000000 
#    y 0.000000 -0.869940 0.000000 
#    z 0.000000 0.000000 1.701550 
# 
# From -- ./inp_files/1273.got.cif
#   From: 2010.05.17/outbox.cif.g08.bks.cpg/sg93_1_cif.got.tgz:1273.got - 2010.06.03 19:38:44.
