data_PCOD9549275
_publ_section_title
;
Structure prediction by ZEFSAII (Michael W. Deem and Ramdas Pophale) SiO2 
 PCOD9549275
Probable space group: P 41 21 2
;
_chemical_formula_sum "Si O2"
_cell_formula_units_Z 32
_cell_length_a 17.842062
_cell_length_b 17.842062
_cell_length_c 5.140021
_cell_angle_alpha 90.000000
_cell_angle_beta 90.000000
_cell_angle_gamma 90.000000
_cell_volume 1636.270052
_symmetry_space_group_name_H-M "P 41 21 2"
_symmetry_group_IT_number 92
_symmetry_cell_setting 'tetragonal'
loop_
_space_group_symop_operation_xyz
x,y,z
1/2-y,1/2+x,1/4+z
-x,-y,1/2+z
1/2+y,1/2-x,3/4+z
1/2+x,1/2-y,3/4-z
1/2-x,1/2+y,1/4-z
y,x,-z
-y,-x,1/2-z
loop_
_atom_site_type_symbol
_atom_site_label
_atom_site_fract_x
_atom_site_fract_y
_atom_site_fract_z
Si Si1 0.488681 0.289722 0.100327
Si Si2 0.670026 0.789913 0.606978
Si Si3 0.244707 0.086112 0.847075
Si Si4 0.536059 0.536059 0.500000
Si Si5 0.209616 0.209616 0.500000
O O1 0.411709 0.243612 0.089807
O O2 0.532079 0.256326 0.348553
O O3 0.537517 0.279033 0.841844
O O4 0.473651 0.379115 0.107867
O O5 0.725354 0.725354 0.500000
O O6 0.683529 0.866004 0.445509
O O7 0.706310 0.801947 0.893497
O O8 0.192625 0.152973 0.733114
O O9 0.516442 0.483558 0.750000
#
# Coordination Sequence:
#
# PCOD9549275 Si02
#       5
#     8   8   8   4   4
#     4  12  26  43  68  99 138 181 222 281 350 401
#     4  10  23  44  68  99 132 179 237 279 332 406
#     4  11  25  40  68  98 129 174 227 287 327 400
#     4  12  28  41  60  96 148 179 210 258 346 436
#     4  10  22  43  68 100 132 175 234 284 318 404
#
# _framework density 19.556674999999998
#
# number of rings (size 3 to 8) (size 9 to 14) (size 15 to 20)
#    0.000    1.000    3.750    1.500   12.250    1.000 
#    0.000    0.000    0.000    3.000    0.000    0.000 
#    0.000    0.000    0.000    0.000    0.000    0.000 
#
# Total GULP energy -178408.796323 kJ/mol
# GULP energy per Si atom -5575.274885 kJ/mol
# Density = 1.951216 g / cm^3
# Si number density = 19.556675 Si / 1000 Ang^3
#
#
#
# Elastic Constant Matrix: (Units=GPa)
#
#
# Indices 1 2 3 4 5 6 
#
# 1 259.0220 -74.8444 54.1490 0.0000 0.0000 0.0000
# 2 -74.8444 259.0220 54.1490 0.0000 0.0000 0.0000
# 3 54.1490 54.1490 154.2120 0.0000 0.0000 0.0000
# 4 0.0000 0.0000 0.0000 20.3990 0.0000 0.0000
# 5 0.0000 0.0000 0.0000 0.0000 20.3990 0.0000
# 6 0.0000 0.0000 0.0000 0.0000 0.0000 23.7394
#
#
#
# Elastic Compliance Matrix: (Units=1/GPa)
#
#
# Indices 1 2 3 4 5 6 
#
# 1 0.004919 0.001924 -0.002403 0.000000 0.000000 0.000000
# 2 0.001924 0.004919 -0.002403 0.000000 0.000000 0.000000
# 3 -0.002403 -0.002403 0.008172 0.000000 0.000000 0.000000
# 4 0.000000 0.000000 0.000000 0.049022 0.000000 0.000000
# 5 0.000000 0.000000 0.000000 0.000000 0.049022 0.000000
# 6 0.000000 0.000000 0.000000 0.000000 0.000000 0.042124
#
#
# Mechanical properties :
#
#
# Convention : Reuss Voigt Hill
#
# Bulk Modulus (GPa) = 81.65838 82.12926 81.89382
# Shear Modulus (GPa) = 29.75792 55.49431 42.62611
#
# Velocity S-wave (km/s) = 3.90503 5.33271 4.67370
# Velocity P-wave (km/s) = 7.88529 8.94448 8.43153
#
# Compressibility (1/GPa) = 0.01224614
#
# Stress axis : x y z
#
# Youngs Moduli (GPa) = 203.30435 203.30435 122.37197
#
# Poissons Ratio (x) = -0.39106 0.29400
# Poissons Ratio (y) = -0.39106 0.29400
# Poissons Ratio (z) = 0.48845 0.48845
#
# Static dielectric constant tensor:
#      x y z
#    x 1.705370 0.000000 0.000000 
#    y 0.000000 1.705370 0.000000 
#    z 0.000000 0.000000 1.831460 
# 
# From -- ./inp_files/369.got.cif
#   From: 2010.05.17/outbox.cif.g08.bks.cpg/sg92_1_cif.got.tgz:369.got - 2010.06.03 19:35:17.
