data_PCOD9549806
_publ_section_title
;
Structure prediction by ZEFSAII (Michael W. Deem and Ramdas Pophale) SiO2 
 PCOD9549806
Probable space group: P 42 2 2
;
_chemical_formula_sum "Si O2"
_cell_formula_units_Z 40
_cell_length_a 14.356377
_cell_length_b 14.356377
_cell_length_c 9.040897
_cell_angle_alpha 90.000000
_cell_angle_beta 90.000000
_cell_angle_gamma 90.000000
_cell_volume 1863.379144
_symmetry_space_group_name_H-M "P 42 2 2"
_symmetry_group_IT_number 93
_symmetry_cell_setting 'tetragonal'
loop_
_space_group_symop_operation_xyz
x,y,z
-y,x,1/2+z
-x,-y,z
y,-x,1/2+z
x,-y,-z
-x,y,-z
y,x,1/2-z
-y,-x,1/2-z
loop_
_atom_site_type_symbol
_atom_site_label
_atom_site_fract_x
_atom_site_fract_y
_atom_site_fract_z
Si Si1 0.593372 0.355052 0.910795
Si Si2 0.124829 0.721876 0.283374
Si Si3 0.790886 0.606223 0.962797
Si Si4 0.399827 0.135001 0.067318
Si Si5 0.949103 0.339962 0.858629
O O1 0.598309 0.401692 0.750000
O O2 0.601744 0.243720 0.888340
O O3 0.500000 0.375471 0.000000
O O4 0.682230 0.383624 0.008037
O O5 0.189556 0.810445 0.250000
O O6 0.177784 0.636404 0.199803
O O7 0.117087 0.684769 0.451390
O O8 0.025110 0.733799 0.201202
O O9 0.816604 0.500000 0.000000
O O10 0.847288 0.677191 0.071378
O O11 0.395270 0.071848 0.211693
O O12 0.500000 0.117216 0.000000
O O13 0.000000 0.385360 0.000000
#
# Coordination Sequence:
#
# PCOD9549806 Si02
#       5
#     8   8   8   8   8
#     4  11  24  43  70  99 143 198 254 295 364 435
#     4  11  23  38  62 101 142 180 233 297 371 440
#     4  11  23  40  65  94 138 185 243 300 360 429
#     4  11  22  40  68  98 136 182 245 301 367 443
#     4  10  23  41  64  97 134 180 230 298 375 443
#
# _framework density 21.466379
#
# number of rings (size 3 to 8) (size 9 to 14) (size 15 to 20)
#    0.000    1.200    4.000    1.800    2.800    8.800 
#    0.000    1.000    0.000    0.000    0.000    2.800 
#    0.000    0.000    0.000    0.000    0.000    0.000 
#
# Total GULP energy -223306.441415 kJ/mol
# GULP energy per Si atom -5582.661035 kJ/mol
# Density = 2.141752 g / cm^3
# Si number density = 21.466379 Si / 1000 Ang^3
#
#
#
# Elastic Constant Matrix: (Units=GPa)
#
#
# Indices 1 2 3 4 5 6 
#
# 1 105.2456 23.1273 36.4150 0.0000 0.0000 0.0000
# 2 23.1273 105.2464 36.4152 0.0000 0.0000 0.0000
# 3 36.4150 36.4152 143.3642 0.0000 0.0000 0.0000
# 4 0.0000 0.0000 0.0000 19.0327 0.0000 0.0000
# 5 0.0000 0.0000 0.0000 0.0000 19.0348 0.0000
# 6 0.0000 0.0000 0.0000 0.0000 0.0000 10.9589
#
#
#
# Elastic Compliance Matrix: (Units=1/GPa)
#
#
# Indices 1 2 3 4 5 6 
#
# 1 0.010639 -0.001538 -0.002312 0.000000 0.000000 0.000000
# 2 -0.001538 0.010639 -0.002312 0.000000 0.000000 0.000000
# 3 -0.002312 -0.002312 0.008150 0.000000 0.000000 0.000000
# 4 0.000000 0.000000 0.000000 0.052541 0.000000 0.000000
# 5 0.000000 0.000000 0.000000 0.000000 0.052535 0.000000
# 6 0.000000 0.000000 0.000000 0.000000 0.000000 0.091250
#
#
# Mechanical properties :
#
#
# Convention : Reuss Voigt Hill
#
# Bulk Modulus (GPa) = 58.46177 60.64124 59.55151
# Shear Modulus (GPa) = 20.51030 26.99852 23.75441
#
# Velocity S-wave (km/s) = 3.09441 3.55027 3.33015
# Velocity P-wave (km/s) = 6.32933 6.71689 6.52599
#
# Compressibility (1/GPa) = 0.01710519
#
# Stress axis : x y z
#
# Youngs Moduli (GPa) = 93.98986 93.99047 122.70479
#
# Poissons Ratio (x) = 0.14457 0.28367
# Poissons Ratio (y) = 0.14456 0.28367
# Poissons Ratio (z) = 0.21728 0.21728
#
# Static dielectric constant tensor:
#      x y z
#    x 1.829160 0.000000 0.000000 
#    y 0.000000 1.829170 0.000000 
#    z 0.000000 0.000000 1.821060 
# 
# From -- ./inp_files/1819.got.cif
#   From: 2010.05.17/outbox.cif.g08.bks.cpg/sg93_1_cif.got.tgz:1819.got - 2010.06.03 19:38:44.
