data_PCOD9549180
_publ_section_title
;
Structure prediction by ZEFSAII (Michael W. Deem and Ramdas Pophale) SiO2 
 PCOD9549180
Probable space group: P 41 21 2
;
_chemical_formula_sum "Si O2"
_cell_formula_units_Z 40
_cell_length_a 8.586339
_cell_length_b 8.586339
_cell_length_c 26.496928
_cell_angle_alpha 90.000000
_cell_angle_beta 90.000000
_cell_angle_gamma 90.000000
_cell_volume 1953.491778
_symmetry_space_group_name_H-M "P 41 21 2"
_symmetry_group_IT_number 92
_symmetry_cell_setting 'tetragonal'
loop_
_space_group_symop_operation_xyz
x,y,z
1/2-y,1/2+x,1/4+z
-x,-y,1/2+z
1/2+y,1/2-x,3/4+z
1/2+x,1/2-y,3/4-z
1/2-x,1/2+y,1/4-z
y,x,-z
-y,-x,1/2-z
loop_
_atom_site_type_symbol
_atom_site_label
_atom_site_fract_x
_atom_site_fract_y
_atom_site_fract_z
Si Si1 0.079091 0.042102 0.145470
Si Si2 0.676820 0.016099 0.484798
Si Si3 0.201637 0.409727 0.464210
Si Si4 0.234565 0.731323 0.174454
Si Si5 0.857292 0.013651 0.048934
O O1 0.235343 0.129423 0.125500
O O2 0.995533 0.172430 0.179304
O O3 0.974227 0.008198 0.096075
O O4 0.114355 0.873962 0.170302
O O5 0.681780 0.896811 0.438260
O O6 0.708269 0.898713 0.532170
O O7 0.525116 0.107319 0.499865
O O8 0.809301 0.142477 0.471146
O O9 0.300373 0.300373 0.500000
O O10 0.071591 0.302809 0.436903
O O11 0.928192 0.928192 0.000000
#
# Coordination Sequence:
#
# PCOD9549180 Si02
#       5
#     8   8   8   8   8
#     4  11  23  39  66 100 130 164 233 267 340 394
#     4  10  21  43  66  91 124 175 217 262 334 388
#     4  11  27  38  62  99 133 173 212 279 340 392
#     4  10  22  39  69  95 124 171 221 276 318 404
#     4  10  22  46  64  87 136 177 211 270 335 397
#
# _framework density 20.476153
#
# number of rings (size 3 to 8) (size 9 to 14) (size 15 to 20)
#    0.000    1.600    4.000    1.200    5.600    6.400 
#    0.000    0.000    0.000    0.000    0.000    0.000 
#    0.000    0.000    0.000    0.000    0.000    0.000 
#
# Total GULP energy -222848.864307 kJ/mol
# GULP energy per Si atom -5571.221608 kJ/mol
# Density = 2.042955 g / cm^3
# Si number density = 20.476153 Si / 1000 Ang^3
#
#
#
# Elastic Constant Matrix: (Units=GPa)
#
#
# Indices 1 2 3 4 5 6 
#
# 1 116.0208 24.8286 11.8718 0.0000 0.0000 0.0000
# 2 24.8286 116.0208 11.8718 0.0000 0.0000 0.0000
# 3 11.8718 11.8718 31.4676 0.0000 0.0000 0.0000
# 4 0.0000 0.0000 0.0000 20.2075 0.0000 0.0000
# 5 0.0000 0.0000 0.0000 0.0000 20.2075 0.0000
# 6 0.0000 0.0000 0.0000 0.0000 0.0000 54.3248
#
#
#
# Elastic Compliance Matrix: (Units=1/GPa)
#
#
# Indices 1 2 3 4 5 6 
#
# 1 0.009274 -0.001692 -0.002860 0.000000 0.000000 0.000000
# 2 -0.001692 0.009274 -0.002860 0.000000 0.000000 0.000000
# 3 -0.002860 -0.002860 0.033937 0.000000 0.000000 0.000000
# 4 0.000000 0.000000 0.000000 0.049487 0.000000 0.000000
# 5 0.000000 0.000000 0.000000 0.000000 0.049487 0.000000
# 6 0.000000 0.000000 0.000000 0.000000 0.000000 0.018408
#
#
# Mechanical properties :
#
#
# Convention : Reuss Voigt Hill
#
# Bulk Modulus (GPa) = 26.55397 40.07265 33.31331
# Shear Modulus (GPa) = 25.34921 33.27709 29.31315
#
# Velocity S-wave (km/s) = 3.52232 4.03570 3.78772
# Velocity P-wave (km/s) = 5.43495 6.42875 5.95263
#
# Compressibility (1/GPa) = 0.03765915
#
# Stress axis : x y z
#
# Youngs Moduli (GPa) = 107.82934 107.82934 29.46633
#
# Poissons Ratio (x) = 0.18244 0.08429
# Poissons Ratio (y) = 0.18244 0.08429
# Poissons Ratio (z) = 0.30844 0.30844
#
# Static dielectric constant tensor:
#      x y z
#    x 1.646560 0.000000 0.000000 
#    y 0.000000 1.646560 0.000000 
#    z 0.000000 0.000000 1.742290 
# 
# From -- ./inp_files/3815.got.cif
#   From: 2010.05.17/outbox.cif.g08.bks.cpg/sg92_2_cif.got.tgz:3815.got - 2010.06.03 19:35:17.
