data_PCOD9549082
_publ_section_title
;
Structure prediction by ZEFSAII (Michael W. Deem and Ramdas Pophale) SiO2 
 PCOD9549082
Probable space group: P 41 21 2
;
_chemical_formula_sum "Si O2"
_cell_formula_units_Z 60
_cell_length_a 12.590366
_cell_length_b 12.590366
_cell_length_c 20.085542
_cell_angle_alpha 90.000000
_cell_angle_beta 90.000000
_cell_angle_gamma 90.000000
_cell_volume 3183.906209
_symmetry_space_group_name_H-M "P 41 21 2"
_symmetry_group_IT_number 92
_symmetry_cell_setting 'tetragonal'
loop_
_space_group_symop_operation_xyz
x,y,z
1/2-y,1/2+x,1/4+z
-x,-y,1/2+z
1/2+y,1/2-x,3/4+z
1/2+x,1/2-y,3/4-z
1/2-x,1/2+y,1/4-z
y,x,-z
-y,-x,1/2-z
loop_
_atom_site_type_symbol
_atom_site_label
_atom_site_fract_x
_atom_site_fract_y
_atom_site_fract_z
Si Si1 0.604054 0.706002 0.937852
Si Si2 0.600116 0.394753 0.389105
Si Si3 0.517999 0.482002 0.250000
Si Si4 0.008923 0.434560 0.315708
Si Si5 0.292984 0.388785 0.933359
Si Si6 0.543455 0.089680 0.816408
Si Si7 0.684877 0.777162 0.167669
Si Si8 0.103385 0.793278 0.446634
O O1 0.497437 0.636080 0.936972
O O2 0.564061 0.828396 0.936364
O O3 0.670823 0.668990 0.873880
O O4 0.677822 0.677822 0.000000
O O5 0.554917 0.416173 0.315100
O O6 0.663916 0.494695 0.416000
O O7 0.677214 0.294765 0.390919
O O8 0.396611 0.456787 0.227692
O O9 0.965671 0.520281 0.367113
O O10 0.024477 0.488593 0.243868
O O11 0.126949 0.399021 0.340037
O O12 0.167262 0.388685 0.944617
O O13 0.330627 0.322010 0.869026
O O14 0.347144 0.347144 0.000000
O O15 0.479913 0.200449 0.820075
O O16 0.681168 0.749166 0.245503
#
# Coordination Sequence:
#
# PCOD9549082 Si02
#       8
#     8   8   4   8   8   8   8   8
#     4  11  21  37  62  91 125 171 211 262 321 379
#     4  10  22  39  62  91 131 161 211 269 314 389
#     4  10  20  42  62  94 120 166 210 266 320 384
#     4  10  23  40  62  93 127 164 214 262 320 385
#     4  11  24  41  63  93 123 165 216 260 324 379
#     4  11  23  43  62  88 128 162 207 268 314 380
#     4  10  21  39  61  95 125 169 211 258 324 383
#     4  10  23  41  65  91 124 166 216 260 321 391
#
# _framework density 18.844776
#
# number of rings (size 3 to 8) (size 9 to 14) (size 15 to 20)
#    0.000    1.600    1.333    2.800    1.867    3.200 
#    2.400    2.667    0.000    0.000    0.000    0.000 
#    0.000    0.000    0.000    0.000    0.000    0.000 
#
# Total GULP energy -334930.809851 kJ/mol
# GULP energy per Si atom -5582.180164 kJ/mol
# Density = 1.880188 g / cm^3
# Si number density = 18.844776 Si / 1000 Ang^3
#
#
#
# Elastic Constant Matrix: (Units=GPa)
#
#
# Indices 1 2 3 4 5 6 
#
# 1 61.7879 12.1750 15.8255 0.0000 0.0000 0.0000
# 2 12.1750 61.7879 15.8257 0.0000 0.0000 0.0000
# 3 15.8255 15.8257 65.0219 0.0000 0.0000 0.0000
# 4 0.0000 0.0000 0.0000 19.8968 0.0000 0.0000
# 5 0.0000 0.0000 0.0000 0.0000 19.8965 0.0000
# 6 0.0000 0.0000 0.0000 0.0000 0.0000 10.5238
#
#
#
# Elastic Compliance Matrix: (Units=1/GPa)
#
#
# Indices 1 2 3 4 5 6 
#
# 1 0.017624 -0.002532 -0.003673 0.000000 0.000000 0.000000
# 2 -0.002532 0.017624 -0.003673 0.000000 0.000000 0.000000
# 3 -0.003673 -0.003673 0.017168 0.000000 0.000000 0.000000
# 4 0.000000 0.000000 0.000000 0.050259 0.000000 0.000000
# 5 0.000000 0.000000 0.000000 0.000000 0.050260 0.000000
# 6 0.000000 0.000000 0.000000 0.000000 0.000000 0.095023
#
#
# Mechanical properties :
#
#
# Convention : Reuss Voigt Hill
#
# Bulk Modulus (GPa) = 30.61961 30.69447 30.65704
# Shear Modulus (GPa) = 17.94680 19.71486 18.83083
#
# Velocity S-wave (km/s) = 3.08936 3.23797 3.16454
# Velocity P-wave (km/s) = 5.38601 5.50478 5.44572
#
# Compressibility (1/GPa) = 0.03265881
#
# Stress axis : x y z
#
# Youngs Moduli (GPa) = 56.74046 56.74033 58.24957
#
# Poissons Ratio (x) = 0.14366 0.21397
# Poissons Ratio (y) = 0.14366 0.21397
# Poissons Ratio (z) = 0.20842 0.20843
#
# Static dielectric constant tensor:
#      x y z
#    x 1.648610 0.000000 0.000000 
#    y 0.000000 1.648610 0.000000 
#    z 0.000000 0.000000 1.655680 
# 
# From -- ./inp_files/3621.got.cif
#   From: 2010.05.17/outbox.cif.g08.bks.cpg/sg92_2_cif.got.tgz:3621.got - 2010.06.03 19:35:17.
