data_PCOD9549321
_publ_section_title
;
Structure prediction by ZEFSAII (Michael W. Deem and Ramdas Pophale) SiO2 
 PCOD9549321
Probable space group: P 41 21 2
;
_chemical_formula_sum "Si O2"
_cell_formula_units_Z 32
_cell_length_a 14.045135
_cell_length_b 14.045135
_cell_length_c 7.629004
_cell_angle_alpha 90.000000
_cell_angle_beta 90.000000
_cell_angle_gamma 90.000000
_cell_volume 1504.941708
_symmetry_space_group_name_H-M "P 41 21 2"
_symmetry_group_IT_number 92
_symmetry_cell_setting 'tetragonal'
loop_
_space_group_symop_operation_xyz
x,y,z
1/2-y,1/2+x,1/4+z
-x,-y,1/2+z
1/2+y,1/2-x,3/4+z
1/2+x,1/2-y,3/4-z
1/2-x,1/2+y,1/4-z
y,x,-z
-y,-x,1/2-z
loop_
_atom_site_type_symbol
_atom_site_label
_atom_site_fract_x
_atom_site_fract_y
_atom_site_fract_z
Si Si1 0.101822 0.898179 0.250000
Si Si2 0.649183 0.257910 0.533468
Si Si3 0.886489 0.475872 0.140574
Si Si4 0.643393 0.806965 0.631390
Si Si5 0.571579 0.428422 0.750000
O O1 0.208157 0.905279 0.325530
O O2 0.029008 0.915622 0.407317
O O3 0.592303 0.204129 0.383039
O O4 0.651043 0.187018 0.702235
O O5 0.760566 0.284173 0.505954
O O6 0.593178 0.350527 0.599663
O O7 0.868165 0.564341 0.271427
O O8 0.973373 0.413587 0.209974
#
# Coordination Sequence:
#
# PCOD9549321 Si02
#       5
#     4   8   8   8   4
#     4  10  23  40  66  94 131 174 218 266 322 398
#     4   9  23  45  65  91 134 172 209 278 328 385
#     4  12  26  40  70  96 126 170 226 270 326 398
#     4   9  23  45  65  91 134 172 209 278 328 385
#     4  10  23  40  66  94 131 174 218 266 322 398
#
# _framework density 21.263283000000001
#
# number of rings (size 3 to 8) (size 9 to 14) (size 15 to 20)
#    0.000    2.500    0.000    1.500   17.500    1.000 
#    0.000    0.000    0.000    0.000    0.000    0.000 
#    0.000    0.000    0.000    0.000    0.000    0.000 
#
# Total GULP energy -178727.483569 kJ/mol
# GULP energy per Si atom -5585.233862 kJ/mol
# Density = 2.121489 g / cm^3
# Si number density = 21.263283 Si / 1000 Ang^3
#
#
#
# Elastic Constant Matrix: (Units=GPa)
#
#
# Indices 1 2 3 4 5 6 
#
# 1 19.5318 19.5998 -3.2157 0.0000 0.0000 0.0000
# 2 19.5998 19.5291 -3.2150 0.0000 0.0000 0.0000
# 3 -3.2157 -3.2150 11.1829 0.0000 0.0000 0.0000
# 4 0.0000 0.0000 0.0000 31.1055 0.0000 0.0000
# 5 0.0000 0.0000 0.0000 0.0000 31.1050 0.0000
# 6 0.0000 0.0000 0.0000 0.0000 0.0000 20.8069
#
#
#
# Elastic Compliance Matrix: (Units=1/GPa)
#
#
# Indices 1 2 3 4 5 6 
#
# 1 -7.199743 7.226992 0.007361 0.000000 0.000000 0.000000
# 2 7.226992 -7.200595 0.008063 0.000000 0.000000 0.000000
# 3 0.007361 0.008063 0.093857 0.000000 0.000000 0.000000
# 4 0.000000 0.000000 0.000000 0.032149 0.000000 0.000000
# 5 0.000000 0.000000 0.000000 0.000000 0.032149 0.000000
# 6 0.000000 0.000000 0.000000 0.000000 0.000000 0.048061
#
#
# Mechanical properties :
#
#
# Convention : Reuss Voigt Hill
#
# Bulk Modulus (GPa) = 5.60690 8.50912 7.05801
# Shear Modulus (GPa) = -0.17471 19.07512 9.45021
#
# Velocity S-wave (km/s) = -0.28695 2.99840 2.11046
# Velocity P-wave (km/s) = 1.59149 3.99971 3.04389
#
# Compressibility (1/GPa) = 0.17835182
#
# Stress axis : x y z
#
# Youngs Moduli (GPa) = -0.13889 -0.13888 10.65453
#
# Poissons Ratio (x) = 1.00367 -0.07843
# Poissons Ratio (y) = 1.00378 -0.08591
# Poissons Ratio (z) = 0.00102 0.00112
#
# Static dielectric constant tensor:
#      x y z
#    x 1.765530 0.000000 0.000000 
#    y 0.000000 1.765540 0.000000 
#    z 0.000000 0.000000 2.082050 
# 
# From -- ./inp_files/1160.got.cif
#   From: 2010.05.17/outbox.cif.g08.bks.cpg/sg92_1_cif.got.tgz:1160.got - 2010.06.03 19:35:17.
