data_PCOD9549274
_publ_section_title
;
Structure prediction by ZEFSAII (Michael W. Deem and Ramdas Pophale) SiO2 
 PCOD9549274
Probable space group: P 41 21 2
;
_chemical_formula_sum "Si O2"
_cell_formula_units_Z 48
_cell_length_a 15.098548
_cell_length_b 15.098548
_cell_length_c 10.462681
_cell_angle_alpha 90.000000
_cell_angle_beta 90.000000
_cell_angle_gamma 90.000000
_cell_volume 2385.137124
_symmetry_space_group_name_H-M "P 41 21 2"
_symmetry_group_IT_number 92
_symmetry_cell_setting 'tetragonal'
loop_
_space_group_symop_operation_xyz
x,y,z
1/2-y,1/2+x,1/4+z
-x,-y,1/2+z
1/2+y,1/2-x,3/4+z
1/2+x,1/2-y,3/4-z
1/2-x,1/2+y,1/4-z
y,x,-z
-y,-x,1/2-z
loop_
_atom_site_type_symbol
_atom_site_label
_atom_site_fract_x
_atom_site_fract_y
_atom_site_fract_z
Si Si1 0.118795 0.881206 0.250000
Si Si2 0.812797 0.653718 0.603696
Si Si3 0.656306 0.343695 0.750000
Si Si4 0.105049 0.083430 0.280262
Si Si5 0.718317 0.128572 0.364812
Si Si6 0.804829 0.804829 0.000000
Si Si7 0.430458 0.010956 0.857919
Si Si8 0.597837 0.597837 0.000000
O O1 0.122451 0.785575 0.318791
O O2 0.020661 0.881198 0.187877
O O3 0.849306 0.738109 0.526747
O O4 0.804787 0.676054 0.752761
O O5 0.887636 0.579160 0.597522
O O6 0.604732 0.372663 0.879843
O O7 0.160466 0.143062 0.376955
O O8 0.001498 0.105170 0.301811
O O9 0.685041 0.198543 0.260313
O O10 0.664224 0.037909 0.359396
O O11 0.822348 0.111155 0.349796
O O12 0.463720 0.010030 0.713357
#
# Coordination Sequence:
#
# PCOD9549274 Si02
#       8
#     4   8   4   8   8   4   8   4
#     4  10  26  39  64 101 138 166 232 270 334 398
#     4  10  22  43  65  97 131 178 222 273 328 394
#     4  11  22  42  70  90 134 175 216 268 330 393
#     4  11  25  41  68 102 131 181 214 281 334 408
#     4  10  22  43  67  98 131 181 221 278 334 403
#     4  11  24  44  64  96 140 165 226 274 332 391
#     4  10  23  42  69  96 129 175 226 272 335 395
#     4  10  24  39  68  97 136 172 228 272 346 402
#
# _framework density 20.12463
#
# number of rings (size 3 to 8) (size 9 to 14) (size 15 to 20)
#    0.000    1.667    1.667    1.000   11.667    2.667 
#    0.000    0.000    0.000    0.000    0.000    0.000 
#    0.000    0.000    0.000    0.000    0.000    0.000 
#
# Total GULP energy -267464.814338 kJ/mol
# GULP energy per Si atom -5572.183632 kJ/mol
# Density = 2.007883 g / cm^3
# Si number density = 20.124630 Si / 1000 Ang^3
#
#
#
# Elastic Constant Matrix: (Units=GPa)
#
#
# Indices 1 2 3 4 5 6 
#
# 1 100.0801 50.9509 36.4949 0.0000 0.0000 0.0000
# 2 50.9509 100.0795 36.4939 0.0000 0.0000 0.0000
# 3 36.4949 36.4939 70.3912 0.0000 0.0000 0.0000
# 4 0.0000 0.0000 0.0000 21.1011 0.0000 0.0000
# 5 0.0000 0.0000 0.0000 0.0000 21.1015 0.0000
# 6 0.0000 0.0000 0.0000 0.0000 0.0000 15.8240
#
#
#
# Elastic Compliance Matrix: (Units=1/GPa)
#
#
# Indices 1 2 3 4 5 6 
#
# 1 0.014595 -0.005760 -0.004581 0.000000 0.000000 0.000000
# 2 -0.005760 0.014595 -0.004580 0.000000 0.000000 0.000000
# 3 -0.004581 -0.004580 0.018956 0.000000 0.000000 0.000000
# 4 0.000000 0.000000 0.000000 0.047391 0.000000 0.000000
# 5 0.000000 0.000000 0.000000 0.000000 0.047390 0.000000
# 6 0.000000 0.000000 0.000000 0.000000 0.000000 0.063195
#
#
# Mechanical properties :
#
#
# Convention : Reuss Voigt Hill
#
# Bulk Modulus (GPa) = 54.63383 57.60337 56.11860
# Shear Modulus (GPa) = 20.65572 21.37940 21.01756
#
# Velocity S-wave (km/s) = 3.20721 3.26291 3.23518
# Velocity P-wave (km/s) = 6.39700 6.54835 6.47312
#
# Compressibility (1/GPa) = 0.01830368
#
# Stress axis : x y z
#
# Youngs Moduli (GPa) = 68.51795 68.51825 52.75451
#
# Poissons Ratio (x) = 0.39466 0.24164
# Poissons Ratio (y) = 0.39466 0.24163
# Poissons Ratio (z) = 0.31385 0.31383
#
# Static dielectric constant tensor:
#      x y z
#    x 1.715640 0.000000 0.000000 
#    y 0.000000 1.715640 0.000000 
#    z 0.000000 0.000000 1.732010 
# 
# From -- ./inp_files/2246.got.cif
#   From: 2010.05.17/outbox.cif.g08.bks.cpg/sg92_2_cif.got.tgz:2246.got - 2010.06.03 19:35:17.
