data_PCOD9549547
_publ_section_title
;
Structure prediction by ZEFSAII (Michael W. Deem and Ramdas Pophale) SiO2 
 PCOD9549547
Probable space group: P 41 21 2
;
_chemical_formula_sum "Si O2"
_cell_formula_units_Z 24
_cell_length_a 9.386261
_cell_length_b 9.386261
_cell_length_c 9.090582
_cell_angle_alpha 90.000000
_cell_angle_beta 90.000000
_cell_angle_gamma 90.000000
_cell_volume 800.897506
_symmetry_space_group_name_H-M "P 41 21 2"
_symmetry_group_IT_number 92
_symmetry_cell_setting 'tetragonal'
loop_
_space_group_symop_operation_xyz
x,y,z
1/2-y,1/2+x,1/4+z
-x,-y,1/2+z
1/2+y,1/2-x,3/4+z
1/2+x,1/2-y,3/4-z
1/2-x,1/2+y,1/4-z
y,x,-z
-y,-x,1/2-z
loop_
_atom_site_type_symbol
_atom_site_label
_atom_site_fract_x
_atom_site_fract_y
_atom_site_fract_z
Si Si1 0.226089 0.493621 0.515892
Si Si2 0.420870 0.280087 0.803051
Si Si3 0.275760 0.565745 0.904643
O O1 0.128769 0.617037 0.444361
O O2 0.307330 0.436290 0.371743
O O3 0.326164 0.591537 0.617881
O O4 0.131131 0.371852 0.593602
O O5 0.316623 0.405557 0.857735
O O6 0.551872 0.279001 0.915788
#
# Coordination Sequence:
#
# PCOD9549547 Si02
#       3
#     8   8   8
#     4  12  31  58  99 137 192 263 323 406 491 593
#     4  11  31  58  95 140 197 246 329 404 500 579
#     4  11  31  62  94 142 197 256 333 411 489 594
#
# _framework density 29.966380000000001
#
# number of rings (size 3 to 8) (size 9 to 14) (size 15 to 20)
#    0.000    0.667    0.000    1.000   18.667   12.000 
#    6.000    0.000    0.000    0.000    0.000    0.000 
#    0.000    0.000    0.000    0.000    0.000    0.000 
#
# Total GULP energy -134674.507857 kJ/mol
# GULP energy per Si atom -5611.437827 kJ/mol
# Density = 2.989817 g / cm^3
# Si number density = 29.966380 Si / 1000 Ang^3
#
#
#
# Elastic Constant Matrix: (Units=GPa)
#
#
# Indices 1 2 3 4 5 6 
#
# 1 236.8769 128.3099 84.4399 0.0000 0.0000 0.0000
# 2 128.3099 236.8769 84.4399 0.0000 0.0000 0.0000
# 3 84.4399 84.4399 190.6128 0.0000 0.0000 0.0000
# 4 0.0000 0.0000 0.0000 71.1689 0.0000 0.0000
# 5 0.0000 0.0000 0.0000 0.0000 71.1689 0.0000
# 6 0.0000 0.0000 0.0000 0.0000 0.0000 62.5835
#
#
#
# Elastic Compliance Matrix: (Units=1/GPa)
#
#
# Indices 1 2 3 4 5 6 
#
# 1 0.006327 -0.002884 -0.001526 0.000000 0.000000 0.000000
# 2 -0.002884 0.006327 -0.001526 0.000000 0.000000 0.000000
# 3 -0.001526 -0.001526 0.006598 0.000000 0.000000 0.000000
# 4 0.000000 0.000000 0.000000 0.014051 0.000000 0.000000
# 5 0.000000 0.000000 0.000000 0.000000 0.014051 0.000000
# 6 0.000000 0.000000 0.000000 0.000000 0.000000 0.015979
#
#
# Mechanical properties :
#
#
# Convention : Reuss Voigt Hill
#
# Bulk Modulus (GPa) = 135.44281 139.86066 137.65174
# Shear Modulus (GPa) = 64.37996 65.46272 64.92134
#
# Velocity S-wave (km/s) = 4.64012 4.67898 4.65959
# Velocity P-wave (km/s) = 8.60256 8.71575 8.65934
#
# Compressibility (1/GPa) = 0.00738319
#
# Stress axis : x y z
#
# Youngs Moduli (GPa) = 158.04365 158.04365 151.56373
#
# Poissons Ratio (x) = 0.45572 0.23122
# Poissons Ratio (y) = 0.45572 0.23122
# Poissons Ratio (z) = 0.24111 0.24111
#
# Static dielectric constant tensor:
#      x y z
#    x 2.312990 0.000000 0.000000 
#    y 0.000000 2.312990 0.000000 
#    z 0.000000 0.000000 2.538360 
# 
# From -- ./inp_files/988.got.cif
#   From: 2010.05.17/outbox.cif.g08.bks.cpg/sg92_1_cif.got.tgz:988.got - 2010.06.03 19:35:17.
