data_PCOD9549005
_publ_section_title
;
Structure prediction by ZEFSAII (Michael W. Deem and Ramdas Pophale) SiO2 
 PCOD9549005
Probable space group: P 41 21 2
;
_chemical_formula_sum "Si O2"
_cell_formula_units_Z 64
_cell_length_a 11.927282
_cell_length_b 11.927282
_cell_length_c 24.490929
_cell_angle_alpha 90.000000
_cell_angle_beta 90.000000
_cell_angle_gamma 90.000000
_cell_volume 3484.080929
_symmetry_space_group_name_H-M "P 41 21 2"
_symmetry_group_IT_number 92
_symmetry_cell_setting 'tetragonal'
loop_
_space_group_symop_operation_xyz
x,y,z
1/2-y,1/2+x,1/4+z
-x,-y,1/2+z
1/2+y,1/2-x,3/4+z
1/2+x,1/2-y,3/4-z
1/2-x,1/2+y,1/4-z
y,x,-z
-y,-x,1/2-z
loop_
_atom_site_type_symbol
_atom_site_label
_atom_site_fract_x
_atom_site_fract_y
_atom_site_fract_z
Si Si1 0.321701 0.350579 0.325138
Si Si2 0.210160 0.141100 0.816224
Si Si3 0.467451 0.510250 0.131464
Si Si4 0.912627 0.727594 0.010558
Si Si5 0.329322 0.353493 0.791549
Si Si6 0.519950 0.369028 0.462432
Si Si7 0.163425 0.422077 0.608008
Si Si8 0.435364 0.132515 0.591628
O O1 0.425320 0.435014 0.335609
O O2 0.286798 0.368146 0.262752
O O3 0.363291 0.227051 0.341783
O O4 0.224804 0.380363 0.368275
O O5 0.108786 0.108449 0.856232
O O6 0.249674 0.267520 0.822702
O O7 0.165020 0.114740 0.755220
O O8 0.313731 0.055279 0.826766
O O9 0.400338 0.426134 0.169631
O O10 0.532179 0.452686 0.080353
O O11 0.884191 0.670874 0.068012
O O12 0.039970 0.766363 0.016009
O O13 0.834635 0.834635 0.000000
O O14 0.884424 0.639438 0.962621
O O15 0.416550 0.416550 0.500000
O O16 0.482977 0.262125 0.427031
O O17 0.073736 0.513592 0.627709
#
# Coordination Sequence:
#
# PCOD9549005 Si02
#       8
#     8   8   8   8   8   8   8   8
#     4  10  20  35  58  88 121 162 193 249 318 382
#     4  10  22  40  63  82 121 173 213 251 313 377
#     4   9  21  38  61  84 120 166 216 250 300 394
#     4  12  23  36  59  93 128 154 194 271 325 368
#     4  12  24  38  60  89 125 164 208 259 309 366
#     4   9  17  35  63  88 114 165 208 252 312 385
#     4  11  20  33  58  90 129 148 188 258 328 369
#     4  11  22  38  58  91 124 159 205 249 318 384
#
# _framework density 18.369261999999999
#
# number of rings (size 3 to 8) (size 9 to 14) (size 15 to 20)
#    0.000    1.500    3.750    3.000    1.750    2.000 
#    0.000    0.000    0.000    6.000    0.000    0.000 
#    0.000    0.000    0.000    0.000    0.000    0.000 
#
# Total GULP energy -357220.891002 kJ/mol
# GULP energy per Si atom -5581.576422 kJ/mol
# Density = 1.832745 g / cm^3
# Si number density = 18.369262 Si / 1000 Ang^3
#
#
#
# Elastic Constant Matrix: (Units=GPa)
#
#
# Indices 1 2 3 4 5 6 
#
# 1 74.5959 39.9576 30.0355 0.0000 0.0000 0.0000
# 2 39.9576 74.5959 30.0355 0.0000 0.0000 0.0000
# 3 30.0355 30.0355 90.5771 0.0000 0.0000 0.0000
# 4 0.0000 0.0000 0.0000 17.1195 0.0000 0.0000
# 5 0.0000 0.0000 0.0000 0.0000 17.1195 0.0000
# 6 0.0000 0.0000 0.0000 0.0000 0.0000 26.5181
#
#
#
# Elastic Compliance Matrix: (Units=1/GPa)
#
#
# Indices 1 2 3 4 5 6 
#
# 1 0.019718 -0.009151 -0.003504 0.000000 0.000000 0.000000
# 2 -0.009151 0.019718 -0.003504 0.000000 0.000000 0.000000
# 3 -0.003504 -0.003504 0.013364 0.000000 0.000000 0.000000
# 4 0.000000 0.000000 0.000000 0.058413 0.000000 0.000000
# 5 0.000000 0.000000 0.000000 0.000000 0.058413 0.000000
# 6 0.000000 0.000000 0.000000 0.000000 0.000000 0.037710
#
#
# Mechanical properties :
#
#
# Convention : Reuss Voigt Hill
#
# Bulk Modulus (GPa) = 48.82313 48.86959 48.84636
# Shear Modulus (GPa) = 20.28534 21.46744 20.87639
#
# Velocity S-wave (km/s) = 3.32672 3.42228 3.37484
# Velocity P-wave (km/s) = 6.43370 6.50213 6.46801
#
# Compressibility (1/GPa) = 0.02048210
#
# Stress axis : x y z
#
# Youngs Moduli (GPa) = 50.71402 50.71402 74.82669
#
# Poissons Ratio (x) = 0.46410 0.26220
# Poissons Ratio (y) = 0.46410 0.26220
# Poissons Ratio (z) = 0.17770 0.17770
#
# Static dielectric constant tensor:
#      x y z
#    x 1.646440 0.000000 0.000000 
#    y 0.000000 1.646440 0.000000 
#    z 0.000000 0.000000 1.674880 
# 
# From -- ./inp_files/3968.got.cif
#   From: 2010.05.17/outbox.cif.g08.bks.cpg/sg92_2_cif.got.tgz:3968.got - 2010.06.03 19:35:17.
