data_PCOD9549453
_publ_section_title
;
Structure prediction by ZEFSAII (Michael W. Deem and Ramdas Pophale) SiO2 
 PCOD9549453
Probable space group: P 41 21 2
;
_chemical_formula_sum "Si O2"
_cell_formula_units_Z 24
_cell_length_a 14.778814
_cell_length_b 14.778814
_cell_length_c 4.982371
_cell_angle_alpha 90.000000
_cell_angle_beta 90.000000
_cell_angle_gamma 90.000000
_cell_volume 1088.216307
_symmetry_space_group_name_H-M "P 41 21 2"
_symmetry_group_IT_number 92
_symmetry_cell_setting 'tetragonal'
loop_
_space_group_symop_operation_xyz
x,y,z
1/2-y,1/2+x,1/4+z
-x,-y,1/2+z
1/2+y,1/2-x,3/4+z
1/2+x,1/2-y,3/4-z
1/2-x,1/2+y,1/4-z
y,x,-z
-y,-x,1/2-z
loop_
_atom_site_type_symbol
_atom_site_label
_atom_site_fract_x
_atom_site_fract_y
_atom_site_fract_z
Si Si1 0.086849 0.388985 0.030594
Si Si2 0.615669 0.479265 0.498542
Si Si3 0.370858 0.779349 0.690282
O O1 0.106676 0.487147 0.152194
O O2 0.148889 0.355429 0.783274
O O3 0.178692 0.596341 0.530705
O O4 0.584039 0.584039 0.500000
O O5 0.560439 0.439562 0.250000
O O6 0.717368 0.449655 0.442305
O O7 0.577149 0.422852 0.750000
O O8 0.286504 0.713497 0.750000
#
# Coordination Sequence:
#
# PCOD9549453 Si02
#       3
#     8   8   8
#     4  12  25  45  69  94 129 179 228 263 317 398
#     4   9  17  32  57  90 128 170 208 246 316 404
#     4  11  22  41  69 100 132 167 216 283 338 378
#
# _framework density 22.054438999999999
#
# number of rings (size 3 to 8) (size 9 to 14) (size 15 to 20)
#    0.000    1.333    0.000    9.000    0.000    0.000 
#    0.000    6.667    0.000    8.000    0.000    0.000 
#    0.000    0.000    0.000    0.000    0.000    0.000 
#
# Total GULP energy -134055.871502 kJ/mol
# GULP energy per Si atom -5585.661313 kJ/mol
# Density = 2.200424 g / cm^3
# Si number density = 22.054439 Si / 1000 Ang^3
#
#
#
# Elastic Constant Matrix: (Units=GPa)
#
#
# Indices 1 2 3 4 5 6 
#
# 1 106.2731 64.9836 63.0112 0.0000 0.0000 0.0000
# 2 64.9836 106.2733 63.0103 0.0000 0.0000 0.0000
# 3 63.0112 63.0103 200.0639 0.0000 0.0000 0.0000
# 4 0.0000 0.0000 0.0000 42.8543 0.0000 0.0000
# 5 0.0000 0.0000 0.0000 0.0000 42.8542 0.0000
# 6 0.0000 0.0000 0.0000 0.0000 0.0000 12.6044
#
#
#
# Elastic Compliance Matrix: (Units=1/GPa)
#
#
# Indices 1 2 3 4 5 6 
#
# 1 0.015910 -0.008309 -0.002394 0.000000 0.000000 0.000000
# 2 -0.008309 0.015910 -0.002394 0.000000 0.000000 0.000000
# 3 -0.002394 -0.002394 0.006506 0.000000 0.000000 0.000000
# 4 0.000000 0.000000 0.000000 0.023335 0.000000 0.000000
# 5 0.000000 0.000000 0.000000 0.000000 0.023335 0.000000
# 6 0.000000 0.000000 0.000000 0.000000 0.000000 0.079337
#
#
# Mechanical properties :
#
#
# Convention : Reuss Voigt Hill
#
# Bulk Modulus (GPa) = 82.42455 88.29114 85.35784
# Shear Modulus (GPa) = 25.69751 34.43626 30.06689
#
# Velocity S-wave (km/s) = 3.41718 3.95577 3.69630
# Velocity P-wave (km/s) = 7.28175 7.80925 7.55011
#
# Compressibility (1/GPa) = 0.01213231
#
# Stress axis : x y z
#
# Youngs Moduli (GPa) = 62.85342 62.85401 153.69667
#
# Poissons Ratio (x) = 0.52227 0.36794
# Poissons Ratio (y) = 0.52226 0.36792
# Poissons Ratio (z) = 0.15047 0.15046
#
# Static dielectric constant tensor:
#      x y z
#    x 1.857700 0.000000 0.000000 
#    y 0.000000 1.857700 0.000000 
#    z 0.000000 0.000000 1.779010 
# 
# From -- ./inp_files/202.got.cif
#   From: 2010.05.17/outbox.cif.g08.bks.cpg/sg92_1_cif.got.tgz:202.got - 2010.06.03 19:35:17.
