data_PCOD9549615
_publ_section_title
;
Structure prediction by ZEFSAII (Michael W. Deem and Ramdas Pophale) SiO2 
 PCOD9549615
Probable space group: P 42 2 2
;
_chemical_formula_sum "Si O2"
_cell_formula_units_Z 48
_cell_length_a 12.607429
_cell_length_b 12.607429
_cell_length_c 13.780142
_cell_angle_alpha 90.000000
_cell_angle_beta 90.000000
_cell_angle_gamma 90.000000
_cell_volume 2190.315896
_symmetry_space_group_name_H-M "P 42 2 2"
_symmetry_group_IT_number 93
_symmetry_cell_setting 'tetragonal'
loop_
_space_group_symop_operation_xyz
x,y,z
-y,x,1/2+z
-x,-y,z
y,-x,1/2+z
x,-y,-z
-x,y,-z
y,x,1/2-z
-y,-x,1/2-z
loop_
_atom_site_type_symbol
_atom_site_label
_atom_site_fract_x
_atom_site_fract_y
_atom_site_fract_z
Si Si1 0.485222 0.615249 0.347731
Si Si2 0.382235 0.877728 0.877984
Si Si3 0.122542 0.619725 0.384970
Si Si4 0.303040 0.226286 0.599928
Si Si5 0.377240 0.998779 0.618394
Si Si6 0.690306 0.234080 0.632135
O O1 0.500000 0.500000 0.397374
O O2 0.425177 0.574824 0.250000
O O3 0.404520 0.698386 0.391876
O O4 0.594153 0.683354 0.345311
O O5 0.502183 0.844338 0.850231
O O6 0.295949 0.796581 0.837914
O O7 0.364151 0.000997 0.854484
O O8 0.382075 0.875024 0.996599
O O9 0.203659 0.710833 0.356565
O O10 0.292053 0.220036 0.483948
O O11 0.322714 0.110262 0.643856
O O12 0.331557 0.888464 0.657909
O O13 0.500000 0.000000 0.646921
O O14 0.375100 0.000000 0.500000
#
# Coordination Sequence:
#
# PCOD9549615 Si02
#       6
#     8   8   8   8   8   8
#     4  11  23  34  46  69 104 133 159 210 264 309
#     4   8  14  25  43  70 103 134 164 206 259 310
#     4   8  14  25  43  70 102 133 167 208 253 306
#     4  10  18  31  53  77 101 132 173 218 262 315
#     4   9  16  28  47  75 104 129 167 219 263 309
#     4  10  18  31  53  76 100 136 175 209 266 323
#
# _framework density 21.914646999999999
#
# number of rings (size 3 to 8) (size 9 to 14) (size 15 to 20)
#    0.000    2.667    1.667    2.500    0.000    2.667 
#    0.000    0.833    0.000   17.000    0.000    0.000 
#    0.000    1.333    0.000    0.500    0.000    0.000 
#
# Total GULP energy -268033.257873 kJ/mol
# GULP energy per Si atom -5584.026206 kJ/mol
# Density = 2.186477 g / cm^3
# Si number density = 21.914647 Si / 1000 Ang^3
#
#
#
# Elastic Constant Matrix: (Units=GPa)
#
#
# Indices 1 2 3 4 5 6 
#
# 1 207.7312 141.0302 31.0840 0.0000 0.0000 0.0000
# 2 141.0302 207.7311 31.0839 0.0000 0.0000 0.0000
# 3 31.0840 31.0839 70.0889 0.0000 0.0000 0.0000
# 4 0.0000 0.0000 0.0000 22.0067 0.0000 0.0000
# 5 0.0000 0.0000 0.0000 0.0000 22.0076 0.0000
# 6 0.0000 0.0000 0.0000 0.0000 0.0000 31.2442
#
#
#
# Elastic Compliance Matrix: (Units=1/GPa)
#
#
# Indices 1 2 3 4 5 6 
#
# 1 0.009053 -0.005939 -0.001381 0.000000 0.000000 0.000000
# 2 -0.005939 0.009053 -0.001381 0.000000 0.000000 0.000000
# 3 -0.001381 -0.001381 0.015492 0.000000 0.000000 0.000000
# 4 0.000000 0.000000 0.000000 0.045441 0.000000 0.000000
# 5 0.000000 0.000000 0.000000 0.000000 0.045439 0.000000
# 6 0.000000 0.000000 0.000000 0.000000 0.000000 0.032006
#
#
# Mechanical properties :
#
#
# Convention : Reuss Voigt Hill
#
# Bulk Modulus (GPa) = 61.74348 99.10527 80.42438
# Shear Modulus (GPa) = 27.88869 33.87525 30.88197
#
# Velocity S-wave (km/s) = 3.57123 3.93591 3.75799
# Velocity P-wave (km/s) = 6.72611 8.12260 7.45712
#
# Compressibility (1/GPa) = 0.01619604
#
# Stress axis : x y z
#
# Youngs Moduli (GPa) = 110.46246 110.46247 64.54809
#
# Poissons Ratio (x) = 0.65608 0.08913
# Poissons Ratio (y) = 0.65608 0.08913
# Poissons Ratio (z) = 0.15253 0.15252
#
# Static dielectric constant tensor:
#      x y z
#    x 1.783760 0.000000 0.000000 
#    y 0.000000 1.783760 0.000000 
#    z 0.000000 0.000000 2.036660 
# 
# From -- ./inp_files/5380.got.cif
#   From: 2010.05.17/outbox.cif.g08.bks.cpg/sg93_3_cif.got.tgz:5380.got - 2010.06.03 19:38:44.
