data_PCOD9549659
_publ_section_title
;
Structure prediction by ZEFSAII (Michael W. Deem and Ramdas Pophale) SiO2 
 PCOD9549659
Probable space group: P 42 2 2
;
_chemical_formula_sum "Si O2"
_cell_formula_units_Z 40
_cell_length_a 14.407309
_cell_length_b 14.407309
_cell_length_c 8.675126
_cell_angle_alpha 90.000000
_cell_angle_beta 90.000000
_cell_angle_gamma 90.000000
_cell_volume 1800.700698
_symmetry_space_group_name_H-M "P 42 2 2"
_symmetry_group_IT_number 93
_symmetry_cell_setting 'tetragonal'
loop_
_space_group_symop_operation_xyz
x,y,z
-y,x,1/2+z
-x,-y,z
y,-x,1/2+z
x,-y,-z
-x,y,-z
y,x,1/2-z
-y,-x,1/2-z
loop_
_atom_site_type_symbol
_atom_site_label
_atom_site_fract_x
_atom_site_fract_y
_atom_site_fract_z
Si Si1 0.398384 0.107387 0.950255
Si Si2 0.601301 0.399293 0.433612
Si Si3 0.141921 0.007385 0.185978
Si Si4 0.721410 0.870915 0.682802
Si Si5 0.748607 0.742898 0.430488
O O1 0.377177 0.128897 0.769759
O O2 0.500000 0.143645 0.000000
O O3 0.308932 0.154999 0.029522
O O4 0.397299 0.000000 0.000000
O O5 0.627645 0.500000 0.500000
O O6 0.500000 0.377874 0.500000
O O7 0.597349 0.402651 0.250000
O O8 0.672538 0.322646 0.489572
O O9 0.105844 0.105844 0.250000
O O10 0.234091 0.967802 0.263937
O O11 0.066127 0.933874 0.250000
O O12 0.143069 0.000000 0.000000
O O13 0.788223 0.788223 0.750000
O O14 0.730115 0.844082 0.504701
O O15 0.738934 0.738934 0.250000
#
# Coordination Sequence:
#
# PCOD9549659 Si02
#       5
#     8   8   8   8   8
#     4  10  21  41  66  88 120 171 222 267 323 389
#     4  11  21  36  61  98 139 176 219 271 330 399
#     4  10  19  35  58  88 122 157 202 256 324 391
#     4   9  20  39  58  84 120 156 205 267 322 383
#     4  11  23  41  64  94 129 173 219 271 335 398
#
# _framework density 22.213574999999999
#
# number of rings (size 3 to 8) (size 9 to 14) (size 15 to 20)
#    0.000    1.800    0.000    6.600    0.000    1.600 
#    0.000   31.000    0.000    2.400    0.000    0.000 
#    0.000    0.000    0.000    0.000    0.000    0.000 
#
# Total GULP energy -223490.111859 kJ/mol
# GULP energy per Si atom -5587.252796 kJ/mol
# Density = 2.216302 g / cm^3
# Si number density = 22.213575 Si / 1000 Ang^3
#
#
#
# Elastic Constant Matrix: (Units=GPa)
#
#
# Indices 1 2 3 4 5 6 
#
# 1 96.6807 40.6211 55.3961 0.0000 0.0000 0.0000
# 2 40.6211 96.6805 55.3968 0.0000 0.0000 0.0000
# 3 55.3961 55.3968 219.2363 0.0000 0.0000 0.0000
# 4 0.0000 0.0000 0.0000 24.7941 0.0000 0.0000
# 5 0.0000 0.0000 0.0000 0.0000 24.7946 0.0000
# 6 0.0000 0.0000 0.0000 0.0000 0.0000 32.3342
#
#
#
# Elastic Compliance Matrix: (Units=1/GPa)
#
#
# Indices 1 2 3 4 5 6 
#
# 1 0.013493 -0.004345 -0.002312 0.000000 0.000000 0.000000
# 2 -0.004345 0.013493 -0.002312 0.000000 0.000000 0.000000
# 3 -0.002312 -0.002312 0.005730 0.000000 0.000000 0.000000
# 4 0.000000 0.000000 0.000000 0.040332 0.000000 0.000000
# 5 0.000000 0.000000 0.000000 0.000000 0.040331 0.000000
# 6 0.000000 0.000000 0.000000 0.000000 0.000000 0.030927
#
#
# Mechanical properties :
#
#
# Convention : Reuss Voigt Hill
#
# Bulk Modulus (GPa) = 67.65884 79.49171 73.57527
# Shear Modulus (GPa) = 29.90973 33.79682 31.85328
#
# Velocity S-wave (km/s) = 3.67340 3.90481 3.79087
# Velocity P-wave (km/s) = 6.96536 7.49619 7.23565
#
# Compressibility (1/GPa) = 0.01478004
#
# Stress axis : x y z
#
# Youngs Moduli (GPa) = 74.11072 74.11021 174.53523
#
# Poissons Ratio (x) = 0.32199 0.40346
# Poissons Ratio (y) = 0.32200 0.40347
# Poissons Ratio (z) = 0.17132 0.17132
#
# Static dielectric constant tensor:
#      x y z
#    x 1.896830 0.000000 0.000000 
#    y 0.000000 1.896820 0.000000 
#    z 0.000000 0.000000 1.874630 
# 
# From -- ./inp_files/1824.got.cif
#   From: 2010.05.17/outbox.cif.g08.bks.cpg/sg93_1_cif.got.tgz:1824.got - 2010.06.03 19:38:44.
