data_PCOD9549425
_publ_section_title
;
Structure prediction by ZEFSAII (Michael W. Deem and Ramdas Pophale) SiO2 
 PCOD9549425
Probable space group: P 41 21 2
;
_chemical_formula_sum "Si O2"
_cell_formula_units_Z 40
_cell_length_a 14.949592
_cell_length_b 14.949592
_cell_length_c 7.855720
_cell_angle_alpha 90.000000
_cell_angle_beta 90.000000
_cell_angle_gamma 90.000000
_cell_volume 1755.677227
_symmetry_space_group_name_H-M "P 41 21 2"
_symmetry_group_IT_number 92
_symmetry_cell_setting 'tetragonal'
loop_
_space_group_symop_operation_xyz
x,y,z
1/2-y,1/2+x,1/4+z
-x,-y,1/2+z
1/2+y,1/2-x,3/4+z
1/2+x,1/2-y,3/4-z
1/2-x,1/2+y,1/4-z
y,x,-z
-y,-x,1/2-z
loop_
_atom_site_type_symbol
_atom_site_label
_atom_site_fract_x
_atom_site_fract_y
_atom_site_fract_z
Si Si1 0.226611 0.605700 0.625852
Si Si2 0.781543 0.555423 0.866786
Si Si3 0.102236 0.546901 0.085507
Si Si4 0.122301 0.223187 0.745043
Si Si5 0.893386 0.027394 0.579543
O O1 0.213165 0.517997 0.515034
O O2 0.142469 0.665847 0.674846
O O3 0.275296 0.584026 0.802578
O O4 0.284954 0.672877 0.512189
O O5 0.844099 0.518904 0.712932
O O6 0.678856 0.570498 0.802566
O O7 0.011134 0.580405 0.169421
O O8 0.174745 0.624074 0.055942
O O9 0.057139 0.164382 0.857886
O O10 0.984627 0.984627 0.500000
O O11 0.916465 0.083536 0.750000
#
# Coordination Sequence:
#
# PCOD9549425 Si02
#       5
#     8   8   8   8   8
#     4  11  24  47  71 102 140 188 233 302 353 432
#     4  11  24  45  71 101 143 180 240 288 360 419
#     4  11  25  40  68 104 142 190 232 295 351 425
#     4  10  26  46  69 102 142 185 233 293 364 416
#     4  11  25  47  74 102 139 187 235 295 345 421
#
# _framework density 22.783228999999999
#
# number of rings (size 3 to 8) (size 9 to 14) (size 15 to 20)
#    0.000    1.200    4.000    0.000    8.400    3.200 
#    7.200    0.000    0.000    0.000    0.000    0.000 
#    0.000    0.000    0.000    0.000    0.000    0.000 
#
# Total GULP energy -223587.258209 kJ/mol
# GULP energy per Si atom -5589.681455 kJ/mol
# Density = 2.273137 g / cm^3
# Si number density = 22.783229 Si / 1000 Ang^3
#
#
#
# Elastic Constant Matrix: (Units=GPa)
#
#
# Indices 1 2 3 4 5 6 
#
# 1 49.2961 21.3587 8.6791 0.0000 0.0000 0.0000
# 2 21.3587 49.2955 8.6788 0.0000 0.0000 0.0000
# 3 8.6791 8.6788 53.1272 0.0000 0.0000 0.0000
# 4 0.0000 0.0000 0.0000 31.3063 0.0000 0.0000
# 5 0.0000 0.0000 0.0000 0.0000 31.3066 0.0000
# 6 0.0000 0.0000 0.0000 0.0000 0.0000 19.5144
#
#
#
# Elastic Compliance Matrix: (Units=1/GPa)
#
#
# Indices 1 2 3 4 5 6 
#
# 1 0.025270 -0.010525 -0.002409 0.000000 0.000000 0.000000
# 2 -0.010525 0.025270 -0.002409 0.000000 0.000000 0.000000
# 3 -0.002409 -0.002409 0.019610 0.000000 0.000000 0.000000
# 4 0.000000 0.000000 0.000000 0.031942 0.000000 0.000000
# 5 0.000000 0.000000 0.000000 0.000000 0.031942 0.000000
# 6 0.000000 0.000000 0.000000 0.000000 0.000000 0.051244
#
#
# Mechanical properties :
#
#
# Convention : Reuss Voigt Hill
#
# Bulk Modulus (GPa) = 25.33897 25.46133 25.40015
# Shear Modulus (GPa) = 21.82278 23.95892 22.89085
#
# Velocity S-wave (km/s) = 3.09826 3.24636 3.17318
# Velocity P-wave (km/s) = 4.89335 5.02509 4.95966
#
# Compressibility (1/GPa) = 0.03946490
#
# Stress axis : x y z
#
# Youngs Moduli (GPa) = 39.57284 39.57246 50.99503
#
# Poissons Ratio (x) = 0.41649 0.12284
# Poissons Ratio (y) = 0.41650 0.12283
# Poissons Ratio (z) = 0.09533 0.09532
#
# Static dielectric constant tensor:
#      x y z
#    x 1.842840 0.000000 0.000000 
#    y 0.000000 1.842840 0.000000 
#    z 0.000000 0.000000 1.891640 
# 
# From -- ./inp_files/1280.got.cif
#   From: 2010.05.17/outbox.cif.g08.bks.cpg/sg92_1_cif.got.tgz:1280.got - 2010.06.03 19:35:17.
