data_PCOD9549980
_publ_section_title
;
Structure prediction by ZEFSAII (Michael W. Deem and Ramdas Pophale) SiO2 
 PCOD9549980
Probable space group: P 42 21 2
;
_chemical_formula_sum "Si O2"
_cell_formula_units_Z 52
_cell_length_a 16.674803
_cell_length_b 16.674803
_cell_length_c 9.129987
_cell_angle_alpha 90.000000
_cell_angle_beta 90.000000
_cell_angle_gamma 90.000000
_cell_volume 2538.584258
_symmetry_space_group_name_H-M "P 42 21 2"
_symmetry_group_IT_number 94
_symmetry_cell_setting 'tetragonal'
loop_
_space_group_symop_operation_xyz
x,y,z
1/2-y,1/2+x,1/2+z
-x,-y,z
1/2+y,1/2-x,1/2+z
1/2+x,1/2-y,1/2-z
1/2-x,1/2+y,1/2-z
y,x,-z
-y,-x,-z
loop_
_atom_site_type_symbol
_atom_site_label
_atom_site_fract_x
_atom_site_fract_y
_atom_site_fract_z
Si Si1 0.142157 0.556689 0.001939
Si Si2 0.003831 0.130843 0.522331
Si Si3 0.672314 0.008537 0.935881
Si Si4 0.178663 0.652554 0.735463
Si Si5 0.241350 0.488767 0.257348
Si Si6 0.251424 0.251424 0.000000
Si Si7 0.924478 0.273488 0.352293
O O1 0.054062 0.593016 0.010826
O O2 0.190222 0.621588 0.901192
O O3 0.150511 0.470725 0.922870
O O4 0.181629 0.543341 0.159879
O O5 0.936962 0.063039 0.500000
O O6 0.998230 0.172871 0.680940
O O7 0.979789 0.199933 0.407398
O O8 0.089071 0.089071 0.500000
O O9 0.728904 0.991100 0.073931
O O10 0.715383 0.068836 0.820844
O O11 0.653598 0.928049 0.849174
O O12 0.104014 0.713896 0.738363
O O13 0.248930 0.690039 0.636457
O O14 0.239989 0.337911 0.922173
#
# Coordination Sequence:
#
# PCOD9549980 Si02
#       7
#     8   8   8   8   8   4   8
#     4   9  20  39  61  88 128 158 212 261 314 391
#     4  10  19  37  64  85 114 166 214 260 321 389
#     4  10  23  38  61  95 128 164 212 271 327 382
#     4  10  21  38  60  89 119 169 214 249 325 386
#     4  10  20  39  59  89 126 157 210 264 318 383
#     4  12  20  40  67  86 130 176 213 272 318 402
#     4  10  20  41  64  92 123 171 219 264 329 391
#
# _framework density 20.483858000000001
#
# number of rings (size 3 to 8) (size 9 to 14) (size 15 to 20)
#    0.000    2.000    3.846    0.000    2.154    0.615 
#    8.308   10.000    0.000    1.846    0.000    0.000 
#    0.000    0.000    0.000    0.000    0.000    0.000 
#
# Total GULP energy -290039.555728 kJ/mol
# GULP energy per Si atom -5577.683764 kJ/mol
# Density = 2.043724 g / cm^3
# Si number density = 20.483858 Si / 1000 Ang^3
#
#
#
# Elastic Constant Matrix: (Units=GPa)
#
#
# Indices 1 2 3 4 5 6 
#
# 1 45.4092 27.0259 10.9071 0.0000 0.0000 0.0000
# 2 27.0259 45.4078 10.9073 0.0000 0.0000 0.0000
# 3 10.9071 10.9073 127.3990 0.0000 0.0000 0.0000
# 4 0.0000 0.0000 0.0000 15.6046 0.0000 0.0000
# 5 0.0000 0.0000 0.0000 0.0000 15.6036 0.0000
# 6 0.0000 0.0000 0.0000 0.0000 0.0000 38.3266
#
#
#
# Elastic Compliance Matrix: (Units=1/GPa)
#
#
# Indices 1 2 3 4 5 6 
#
# 1 0.034285 -0.020114 -0.001213 0.000000 0.000000 0.000000
# 2 -0.020114 0.034286 -0.001213 0.000000 0.000000 0.000000
# 3 -0.001213 -0.001213 0.008057 0.000000 0.000000 0.000000
# 4 0.000000 0.000000 0.000000 0.064084 0.000000 0.000000
# 5 0.000000 0.000000 0.000000 0.000000 0.064088 0.000000
# 6 0.000000 0.000000 0.000000 0.000000 0.000000 0.026092
#
#
# Mechanical properties :
#
#
# Convention : Reuss Voigt Hill
#
# Bulk Modulus (GPa) = 31.69964 35.09962 33.39963
# Shear Modulus (GPa) = 17.45280 25.19867 21.32574
#
# Velocity S-wave (km/s) = 2.92212 3.51119 3.23011
# Velocity P-wave (km/s) = 5.18595 5.79744 5.50020
#
# Compressibility (1/GPa) = 0.03154610
#
# Stress axis : x y z
#
# Youngs Moduli (GPa) = 29.16769 29.16671 124.11419
#
# Poissons Ratio (x) = 0.58666 0.15057
# Poissons Ratio (y) = 0.58668 0.15059
# Poissons Ratio (z) = 0.03539 0.03539
#
# Static dielectric constant tensor:
#      x y z
#    x 1.755930 0.000000 0.000000 
#    y 0.000000 1.755930 0.000000 
#    z 0.000000 0.000000 1.782710 
# 
# From -- ./inp_files/1685.got.cif
#   From: 2010.05.17/outbox.cif.g08.bks.cpg/sg94_1_cif.got.tgz:1685.got - 2010.06.03 19:43:16.
