data_PCOD9549443
_publ_section_title
;
Structure prediction by ZEFSAII (Michael W. Deem and Ramdas Pophale) SiO2 
 PCOD9549443
Probable space group: P 41 21 2
;
_chemical_formula_sum "Si O2"
_cell_formula_units_Z 32
_cell_length_a 7.330469
_cell_length_b 7.330469
_cell_length_c 26.413164
_cell_angle_alpha 90.000000
_cell_angle_beta 90.000000
_cell_angle_gamma 90.000000
_cell_volume 1419.331858
_symmetry_space_group_name_H-M "P 41 21 2"
_symmetry_group_IT_number 92
_symmetry_cell_setting 'tetragonal'
loop_
_space_group_symop_operation_xyz
x,y,z
1/2-y,1/2+x,1/4+z
-x,-y,1/2+z
1/2+y,1/2-x,3/4+z
1/2+x,1/2-y,3/4-z
1/2-x,1/2+y,1/4-z
y,x,-z
-y,-x,1/2-z
loop_
_atom_site_type_symbol
_atom_site_label
_atom_site_fract_x
_atom_site_fract_y
_atom_site_fract_z
Si Si1 0.102958 0.546137 0.052051
Si Si2 0.300312 0.127609 0.858717
Si Si3 0.104284 0.593338 0.938421
Si Si4 0.258697 0.233898 0.411845
O O1 0.205425 0.703121 0.083228
O O2 0.136698 0.359371 0.082666
O O3 0.889218 0.601731 0.056443
O O4 0.168436 0.557799 0.994702
O O5 0.491156 0.082769 0.830534
O O6 0.186015 0.944624 0.846608
O O7 0.243733 0.649857 0.894747
O O8 0.942274 0.747480 0.936181
#
# Coordination Sequence:
#
# PCOD9549443 Si02
#       4
#     8   8   8   8
#     4  11  21  40  63  90 125 170 204 262 330 363
#     4   9  24  36  60  92 124 156 217 259 298 402
#     4   9  21  39  63  89 122 165 207 261 328 377
#     4   9  21  40  59  93 122 158 213 255 308 393
#
# _framework density 22.545819999999999
#
# number of rings (size 3 to 8) (size 9 to 14) (size 15 to 20)
#    1.500    1.000    0.000    0.750    7.000    0.000 
#    0.000    5.000    0.000    0.000    0.000    0.000 
#    0.000    0.000    0.000    0.000    0.000    0.000 
#
# Total GULP energy -178262.768039 kJ/mol
# GULP energy per Si atom -5570.711501 kJ/mol
# Density = 2.249450 g / cm^3
# Si number density = 22.545820 Si / 1000 Ang^3
#
#
#
# Elastic Constant Matrix: (Units=GPa)
#
#
# Indices 1 2 3 4 5 6 
#
# 1 30.4678 -0.6930 1.4269 0.0000 0.0000 0.0000
# 2 -0.6930 30.4678 1.4269 0.0000 0.0000 0.0000
# 3 1.4269 1.4269 115.4677 0.0000 0.0000 0.0000
# 4 0.0000 0.0000 0.0000 21.4098 0.0000 0.0000
# 5 0.0000 0.0000 0.0000 0.0000 21.4098 0.0000
# 6 0.0000 0.0000 0.0000 0.0000 0.0000 24.4738
#
#
#
# Elastic Compliance Matrix: (Units=1/GPa)
#
#
# Indices 1 2 3 4 5 6 
#
# 1 0.032858 0.000767 -0.000416 0.000000 0.000000 0.000000
# 2 0.000767 0.032858 -0.000416 0.000000 0.000000 0.000000
# 3 -0.000416 -0.000416 0.008671 0.000000 0.000000 0.000000
# 4 0.000000 0.000000 0.000000 0.046708 0.000000 0.000000
# 5 0.000000 0.000000 0.000000 0.000000 0.046708 0.000000
# 6 0.000000 0.000000 0.000000 0.000000 0.000000 0.040860
#
#
# Mechanical properties :
#
#
# Convention : Reuss Voigt Hill
#
# Bulk Modulus (GPa) = 13.46633 20.08053 16.77343
# Shear Modulus (GPa) = 21.40921 25.07483 23.24202
#
# Velocity S-wave (km/s) = 3.08488 3.33854 3.21421
# Velocity P-wave (km/s) = 4.32140 4.87720 4.60768
#
# Compressibility (1/GPa) = 0.07425926
#
# Stress axis : x y z
#
# Youngs Moduli (GPa) = 30.43357 30.43357 115.33089
#
# Poissons Ratio (x) = -0.02334 0.04792
# Poissons Ratio (y) = -0.02334 0.04792
# Poissons Ratio (z) = 0.01265 0.01265
#
# Static dielectric constant tensor:
#      x y z
#    x 1.884580 0.000000 0.000000 
#    y 0.000000 1.884580 0.000000 
#    z 0.000000 0.000000 1.840910 
# 
# From -- ./inp_files/3395.got.cif
#   From: 2010.05.17/outbox.cif.g08.bks.cpg/sg92_2_cif.got.tgz:3395.got - 2010.06.03 19:35:17.
