data_PCOD9549789
_publ_section_title
;
Structure prediction by ZEFSAII (Michael W. Deem and Ramdas Pophale) SiO2 
 PCOD9549789
Probable space group: P 42 2 2
;
_chemical_formula_sum "Si O2"
_cell_formula_units_Z 40
_cell_length_a 8.854117
_cell_length_b 8.854117
_cell_length_c 23.091043
_cell_angle_alpha 90.000000
_cell_angle_beta 90.000000
_cell_angle_gamma 90.000000
_cell_volume 1810.231272
_symmetry_space_group_name_H-M "P 42 2 2"
_symmetry_group_IT_number 93
_symmetry_cell_setting 'tetragonal'
loop_
_space_group_symop_operation_xyz
x,y,z
-y,x,1/2+z
-x,-y,z
y,-x,1/2+z
x,-y,-z
-x,y,-z
y,x,1/2-z
-y,-x,1/2-z
loop_
_atom_site_type_symbol
_atom_site_label
_atom_site_fract_x
_atom_site_fract_y
_atom_site_fract_z
Si Si1 0.313691 0.125996 0.327422
Si Si2 0.714476 0.819009 0.508413
Si Si3 0.671481 0.021563 0.803545
Si Si4 0.323586 0.457195 0.088381
Si Si5 0.137042 0.882894 0.385620
O O1 0.171593 0.240244 0.323622
O O2 0.330908 0.045193 0.265647
O O3 0.443180 0.235765 0.351104
O O4 0.278316 0.991532 0.371931
O O5 0.585647 0.754168 0.550410
O O6 0.693073 0.721796 0.449671
O O7 0.856771 0.805413 0.551582
O O8 0.697162 0.000000 0.500000
O O9 0.500000 0.000000 0.823244
O O10 0.769026 0.888459 0.832455
O O11 0.500000 0.500000 0.093079
O O12 0.000000 0.000000 0.386068
#
# Coordination Sequence:
#
# PCOD9549789 Si02
#       5
#     8   8   8   8   8
#     4  10  22  43  65  93 135 173 228 279 348 432
#     4  11  22  39  66  96 129 177 237 271 340 424
#     4  10  23  41  65  97 129 172 227 290 356 409
#     4  11  24  41  63  98 137 178 224 287 353 420
#     4  10  22  41  65  93 130 170 227 289 338 421
#
# _framework density 22.096623000000001
#
# number of rings (size 3 to 8) (size 9 to 14) (size 15 to 20)
#    0.000    1.600    2.000    3.000    5.600    2.800 
#    0.000    2.000    0.000    1.200    0.000    0.000 
#    0.000    0.000    0.000    0.000    0.000    0.000 
#
# Total GULP energy -222902.873111 kJ/mol
# GULP energy per Si atom -5572.571828 kJ/mol
# Density = 2.204633 g / cm^3
# Si number density = 22.096623 Si / 1000 Ang^3
#
#
#
# Elastic Constant Matrix: (Units=GPa)
#
#
# Indices 1 2 3 4 5 6 
#
# 1 71.6463 54.4696 41.2162 0.0000 0.0000 0.0000
# 2 54.4696 71.6463 41.2162 0.0000 0.0000 0.0000
# 3 41.2162 41.2162 123.2561 0.0000 0.0000 0.0000
# 4 0.0000 0.0000 0.0000 18.3358 0.0000 0.0000
# 5 0.0000 0.0000 0.0000 0.0000 18.3358 0.0000
# 6 0.0000 0.0000 0.0000 0.0000 0.0000 24.2388
#
#
#
# Elastic Compliance Matrix: (Units=1/GPa)
#
#
# Indices 1 2 3 4 5 6 
#
# 1 0.034183 -0.024036 -0.003393 0.000000 0.000000 0.000000
# 2 -0.024036 0.034183 -0.003393 0.000000 0.000000 0.000000
# 3 -0.003393 -0.003393 0.010382 0.000000 0.000000 0.000000
# 4 0.000000 0.000000 0.000000 0.054538 0.000000 0.000000
# 5 0.000000 0.000000 0.000000 0.000000 0.054538 0.000000
# 6 0.000000 0.000000 0.000000 0.000000 0.000000 0.041256
#
#
# Mechanical properties :
#
#
# Convention : Reuss Voigt Hill
#
# Bulk Modulus (GPa) = 58.46561 60.03921 59.25241
# Shear Modulus (GPa) = 16.86769 20.82521 18.84645
#
# Velocity S-wave (km/s) = 2.76590 3.07328 2.92363
# Velocity P-wave (km/s) = 6.05943 6.31060 6.18629
#
# Compressibility (1/GPa) = 0.01710407
#
# Stress axis : x y z
#
# Youngs Moduli (GPa) = 29.25468 29.25468 96.31618
#
# Poissons Ratio (x) = 0.70315 0.32681
# Poissons Ratio (y) = 0.70315 0.32681
# Poissons Ratio (z) = 0.09926 0.09926
#
# Static dielectric constant tensor:
#      x y z
#    x 1.938390 0.000000 0.000000 
#    y 0.000000 1.938390 0.000000 
#    z 0.000000 0.000000 1.928540 
# 
# From -- ./inp_files/6736.got.cif
#   From: 2010.05.17/outbox.cif.g08.bks.cpg/sg93_4_cif.got.tgz:6736.got - 2010.06.03 19:38:44.
