data_PCOD9549846
_publ_section_title
;
Structure prediction by ZEFSAII (Michael W. Deem and Ramdas Pophale) SiO2 
 PCOD9549846
Probable space group: P 42 2 2
;
_chemical_formula_sum "Si O2"
_cell_formula_units_Z 32
_cell_length_a 14.492325
_cell_length_b 14.492325
_cell_length_c 8.523570
_cell_angle_alpha 90.000000
_cell_angle_beta 90.000000
_cell_angle_gamma 90.000000
_cell_volume 1790.183961
_symmetry_space_group_name_H-M "P 42 2 2"
_symmetry_group_IT_number 93
_symmetry_cell_setting 'tetragonal'
loop_
_space_group_symop_operation_xyz
x,y,z
-y,x,1/2+z
-x,-y,z
y,-x,1/2+z
x,-y,-z
-x,y,-z
y,x,1/2-z
-y,-x,1/2-z
loop_
_atom_site_type_symbol
_atom_site_label
_atom_site_fract_x
_atom_site_fract_y
_atom_site_fract_z
Si Si1 0.415637 0.203460 0.617287
Si Si2 0.528317 0.659182 0.174534
Si Si3 0.400163 0.102133 0.929417
Si Si4 0.719108 0.245958 0.910763
O O1 0.500000 0.183297 0.500000
O O2 0.451029 0.289843 0.723455
O O3 0.403638 0.120585 0.742397
O O4 0.326093 0.234637 0.517077
O O5 0.568058 0.568058 0.250000
O O6 0.618555 0.723604 0.156232
O O7 0.500000 0.638585 0.000000
O O8 0.500000 0.135618 0.000000
O O9 0.311569 0.159761 0.985995
O O10 0.391936 0.000000 0.000000
O O11 0.774063 0.225938 0.750000
#
# Coordination Sequence:
#
# PCOD9549846 Si02
#       4
#     8   8   8   8
#     4  12  20  35  60  82 110 157 192 239 295 343
#     4  11  21  35  50  76 113 150 200 238 283 333
#     4  11  22  38  57  79 113 151 195 243 287 340
#     4  11  20  36  57  78 114 150 194 244 289 338
#
# _framework density 17.875257000000001
#
# number of rings (size 3 to 8) (size 9 to 14) (size 15 to 20)
#    0.000    0.750   10.000    0.750    0.000    0.000 
#    0.000   17.500    0.000    0.000    0.000    0.000 
#    0.000   12.000    0.000    0.000    0.000    0.000 
#
# Total GULP energy -178399.033189 kJ/mol
# GULP energy per Si atom -5574.969787 kJ/mol
# Density = 1.783457 g / cm^3
# Si number density = 17.875257 Si / 1000 Ang^3
#
#
#
# Elastic Constant Matrix: (Units=GPa)
#
#
# Indices 1 2 3 4 5 6 
#
# 1 31.9430 65.1958 44.9217 0.0000 0.0000 0.0000
# 2 65.1958 31.9434 44.9215 0.0000 0.0000 0.0000
# 3 44.9217 44.9215 162.4422 0.0000 0.0000 0.0000
# 4 0.0000 0.0000 0.0000 -439.0880 0.0000 0.0000
# 5 0.0000 0.0000 0.0000 0.0000 -439.0642 0.0000
# 6 0.0000 0.0000 0.0000 0.0000 0.0000 9.4041
#
#
#
# Elastic Compliance Matrix: (Units=1/GPa)
#
#
# Indices 1 2 3 4 5 6 
#
# 1 -0.008120 0.021953 -0.003825 0.000000 0.000000 0.000000
# 2 0.021953 -0.008120 -0.003825 0.000000 0.000000 0.000000
# 3 -0.003825 -0.003825 0.008272 0.000000 0.000000 0.000000
# 4 0.000000 0.000000 0.000000 -0.002277 0.000000 0.000000
# 5 0.000000 0.000000 0.000000 0.000000 -0.002278 0.000000
# 6 0.000000 0.000000 0.000000 0.000000 0.000000 0.106337
#
#
# Mechanical properties :
#
#
# Convention : Reuss Voigt Hill
#
# Bulk Modulus (GPa) = 48.45970 59.60075 54.03022
# Shear Modulus (GPa) = 69.36050 -168.99699 -49.81824
#
# Velocity S-wave (km/s) = 6.23592 -9.73384 -5.28493
# Velocity P-wave (km/s) = 8.88920 9.63925 2.63604
#
# Compressibility (1/GPa) = 0.02063571
#
# Stress axis : x y z
#
# Youngs Moduli (GPa) = -123.14810 -123.15169 120.89456
#
# Poissons Ratio (x) = 2.70350 0.46244
# Poissons Ratio (y) = 2.70342 0.46245
# Poissons Ratio (z) = -0.47106 -0.47109
#
# Static dielectric constant tensor:
#      x y z
#    x 2.158920 0.000000 0.000000 
#    y 0.000000 2.158900 0.000000 
#    z 0.000000 0.000000 1.686210 
# 
# From -- ./inp_files/1537.got.cif
#   From: 2010.05.17/outbox.cif.g08.bks.cpg/sg93_1_cif.got.tgz:1537.got - 2010.06.03 19:38:44.
