data_PCOD9549794
_publ_section_title
;
Structure prediction by ZEFSAII (Michael W. Deem and Ramdas Pophale) SiO2 
 PCOD9549794
Probable space group: P 42 2 2
;
_chemical_formula_sum "Si O2"
_cell_formula_units_Z 48
_cell_length_a 21.310260
_cell_length_b 21.310260
_cell_length_c 5.481626
_cell_angle_alpha 90.000000
_cell_angle_beta 90.000000
_cell_angle_gamma 90.000000
_cell_volume 2489.355364
_symmetry_space_group_name_H-M "P 42 2 2"
_symmetry_group_IT_number 93
_symmetry_cell_setting 'tetragonal'
loop_
_space_group_symop_operation_xyz
x,y,z
-y,x,1/2+z
-x,-y,z
y,-x,1/2+z
x,-y,-z
-x,y,-z
y,x,1/2-z
-y,-x,1/2-z
loop_
_atom_site_type_symbol
_atom_site_label
_atom_site_fract_x
_atom_site_fract_y
_atom_site_fract_z
Si Si1 0.677081 0.322920 0.750000
Si Si2 0.205236 0.285962 0.942437
Si Si3 0.500000 0.168841 0.500000
Si Si4 0.124180 0.826192 0.986570
Si Si5 0.000000 0.665196 0.500000
Si Si6 0.747305 0.000000 0.500000
Si Si7 0.566942 0.249719 0.876630
Si Si8 0.391184 0.129604 0.825184
O O1 0.680025 0.260156 0.588000
O O2 0.611449 0.310310 0.881665
O O3 0.245088 0.245088 0.750000
O O4 0.166575 0.234004 0.085016
O O5 0.152495 0.333127 0.841060
O O6 0.548089 0.217119 0.623877
O O7 0.457326 0.127235 0.679730
O O8 0.146209 0.853792 0.250000
O O9 0.128783 0.871218 0.750000
O O10 0.057953 0.794064 0.026735
O O11 0.935493 0.625634 0.541689
O O12 0.006343 0.705712 0.751327
O O13 0.500000 0.263012 0.000000
O O14 0.600548 0.191258 0.008498
#
# Coordination Sequence:
#
# PCOD9549794 Si02
#       8
#     4   8   4   8   4   4   8   8
#     4  12  20  34  68  90 127 166 215 278 348 400
#     4  11  21  34  58  96 124 155 211 268 341 392
#     4  10  22  42  63  82 133 172 226 276 324 384
#     4  11  24  41  65  95 134 168 212 277 341 412
#     4  12  28  40  69  94 138 187 230 270 344 408
#     4  12  26  44  66 100 134 174 216 284 348 406
#     4  10  23  39  60  93 129 167 218 279 332 404
#     4  11  23  42  60  91 131 177 224 276 325 404
#
# _framework density 19.282098999999999
#
# number of rings (size 3 to 8) (size 9 to 14) (size 15 to 20)
#    0.000    1.000    5.833    1.000    7.000    0.000 
#    0.000    4.583    0.000    1.500    0.000    1.750 
#    0.000    0.000    0.000    0.000    0.000    0.000 
#
# Total GULP energy -267388.969375 kJ/mol
# GULP energy per Si atom -5570.603529 kJ/mol
# Density = 1.923821 g / cm^3
# Si number density = 19.282099 Si / 1000 Ang^3
#
#
#
# Elastic Constant Matrix: (Units=GPa)
#
#
# Indices 1 2 3 4 5 6 
#
# 1 118.2687 76.5576 41.4447 0.0000 0.0000 0.0000
# 2 76.5576 118.2694 41.4454 0.0000 0.0000 0.0000
# 3 41.4447 41.4454 78.1047 0.0000 0.0000 0.0000
# 4 0.0000 0.0000 0.0000 19.7439 0.0000 0.0000
# 5 0.0000 0.0000 0.0000 0.0000 19.7441 0.0000
# 6 0.0000 0.0000 0.0000 0.0000 0.0000 30.4427
#
#
#
# Elastic Compliance Matrix: (Units=1/GPa)
#
#
# Indices 1 2 3 4 5 6 
#
# 1 0.015302 -0.008672 -0.003518 0.000000 0.000000 0.000000
# 2 -0.008672 0.015302 -0.003518 0.000000 0.000000 0.000000
# 3 -0.003518 -0.003518 0.016537 0.000000 0.000000 0.000000
# 4 0.000000 0.000000 0.000000 0.050649 0.000000 0.000000
# 5 0.000000 0.000000 0.000000 0.000000 0.050648 0.000000
# 6 0.000000 0.000000 0.000000 0.000000 0.000000 0.032849
#
#
# Mechanical properties :
#
#
# Convention : Reuss Voigt Hill
#
# Bulk Modulus (GPa) = 63.59579 70.39312 66.99446
# Shear Modulus (GPa) = 22.94178 24.33249 23.63713
#
# Velocity S-wave (km/s) = 3.45309 3.55621 3.50503
# Velocity P-wave (km/s) = 6.99655 7.31084 7.15542
#
# Compressibility (1/GPa) = 0.01572431
#
# Stress axis : x y z
#
# Youngs Moduli (GPa) = 65.35168 65.35164 60.47172
#
# Poissons Ratio (x) = 0.56676 0.21272
# Poissons Ratio (y) = 0.56676 0.21273
# Poissons Ratio (z) = 0.22989 0.22990
#
# Static dielectric constant tensor:
#      x y z
#    x 1.577460 0.000000 0.000000 
#    y 0.000000 1.577440 0.000000 
#    z 0.000000 0.000000 1.797920 
# 
# From -- ./inp_files/711.got.cif
#   From: 2010.05.17/outbox.cif.g08.bks.cpg/sg93_1_cif.got.tgz:711.got - 2010.06.03 19:38:44.
