data_PCOD9549769
_publ_section_title
;
Structure prediction by ZEFSAII (Michael W. Deem and Ramdas Pophale) SiO2 
 PCOD9549769
Probable space group: P 42 2 2
;
_chemical_formula_sum "Si O2"
_cell_formula_units_Z 40
_cell_length_a 13.833630
_cell_length_b 13.833630
_cell_length_c 9.322305
_cell_angle_alpha 90.000000
_cell_angle_beta 90.000000
_cell_angle_gamma 90.000000
_cell_volume 1784.003159
_symmetry_space_group_name_H-M "P 42 2 2"
_symmetry_group_IT_number 93
_symmetry_cell_setting 'tetragonal'
loop_
_space_group_symop_operation_xyz
x,y,z
-y,x,1/2+z
-x,-y,z
y,-x,1/2+z
x,-y,-z
-x,y,-z
y,x,1/2-z
-y,-x,1/2-z
loop_
_atom_site_type_symbol
_atom_site_label
_atom_site_fract_x
_atom_site_fract_y
_atom_site_fract_z
Si Si1 0.135682 0.135682 0.750000
Si Si2 0.496275 0.637432 0.669328
Si Si3 0.716440 0.867399 0.290815
Si Si4 0.000000 0.818515 0.000000
Si Si5 0.137311 0.507950 0.167855
Si Si6 0.322293 0.045262 0.855330
O O1 0.240174 0.127238 0.831547
O O2 0.126010 0.052624 0.628633
O O3 0.500000 0.614371 0.500000
O O4 0.575403 0.575403 0.750000
O O5 0.396978 0.603022 0.750000
O O6 0.526572 0.748548 0.680716
O O7 0.770247 0.770247 0.250000
O O8 0.601814 0.867031 0.276842
O O9 0.750213 0.913237 0.440732
O O10 0.744848 0.952507 0.183370
O O11 0.077238 0.589575 0.251365
O O12 0.111085 0.500000 0.000000
O O13 0.366496 0.000000 0.000000
#
# Coordination Sequence:
#
# PCOD9549769 Si02
#       6
#     4   8   8   4   8   8
#     4  10  22  44  73 100 141 186 240 310 380 454
#     4  10  21  41  65 101 142 187 244 300 368 447
#     4  11  23  43  66  96 137 178 235 300 363 433
#     4  10  22  44  72  98 134 186 238 304 366 458
#     4  11  24  42  69  98 139 193 239 294 377 449
#     4  11  25  45  68 106 144 186 249 310 377 463
#
# _framework density 22.421484
#
# number of rings (size 3 to 8) (size 9 to 14) (size 15 to 20)
#    0.000    1.400    0.000    6.000    1.400    2.400 
#   10.800   21.500    0.000    0.000    0.000    0.000 
#    0.000    0.000    0.000    0.000    0.000    0.000 
#
# Total GULP energy -222739.081436 kJ/mol
# GULP energy per Si atom -5568.477036 kJ/mol
# Density = 2.237045 g / cm^3
# Si number density = 22.421484 Si / 1000 Ang^3
#
#
#
# Elastic Constant Matrix: (Units=GPa)
#
#
# Indices 1 2 3 4 5 6 
#
# 1 136.8731 65.3662 61.1139 0.0000 0.0000 0.0000
# 2 65.3662 136.8708 61.1140 0.0000 0.0000 0.0000
# 3 61.1139 61.1140 150.8348 0.0000 0.0000 0.0000
# 4 0.0000 0.0000 0.0000 28.7292 0.0000 0.0000
# 5 0.0000 0.0000 0.0000 0.0000 28.7286 0.0000
# 6 0.0000 0.0000 0.0000 0.0000 0.0000 29.3457
#
#
#
# Elastic Compliance Matrix: (Units=1/GPa)
#
#
# Indices 1 2 3 4 5 6 
#
# 1 0.010266 -0.003718 -0.002653 0.000000 0.000000 0.000000
# 2 -0.003718 0.010267 -0.002653 0.000000 0.000000 0.000000
# 3 -0.002653 -0.002653 0.008780 0.000000 0.000000 0.000000
# 4 0.000000 0.000000 0.000000 0.034808 0.000000 0.000000
# 5 0.000000 0.000000 0.000000 0.000000 0.034808 0.000000
# 6 0.000000 0.000000 0.000000 0.000000 0.000000 0.034076
#
#
# Mechanical properties :
#
#
# Convention : Reuss Voigt Hill
#
# Bulk Modulus (GPa) = 88.78224 88.86300 88.82262
# Shear Modulus (GPa) = 32.29782 33.15970 32.72876
#
# Velocity S-wave (km/s) = 3.79949 3.84985 3.82475
# Velocity P-wave (km/s) = 7.67666 7.71238 7.69454
#
# Compressibility (1/GPa) = 0.01126351
#
# Stress axis : x y z
#
# Youngs Moduli (GPa) = 97.40505 97.40300 113.89898
#
# Poissons Ratio (x) = 0.36218 0.30218
# Poissons Ratio (y) = 0.36219 0.30219
# Poissons Ratio (z) = 0.25842 0.25843
#
# Static dielectric constant tensor:
#      x y z
#    x 1.899430 0.000000 0.000000 
#    y 0.000000 1.899440 0.000000 
#    z 0.000000 0.000000 2.043390 
# 
# From -- ./inp_files/1883.got.cif
#   From: 2010.05.17/outbox.cif.g08.bks.cpg/sg93_1_cif.got.tgz:1883.got - 2010.06.03 19:38:44.
