data_PCOD9549766
_publ_section_title
;
Structure prediction by ZEFSAII (Michael W. Deem and Ramdas Pophale) SiO2 
 PCOD9549766
Probable space group: P 42 2 2
;
_chemical_formula_sum "Si O2"
_cell_formula_units_Z 36
_cell_length_a 7.705653
_cell_length_b 7.705653
_cell_length_c 25.898567
_cell_angle_alpha 90.000000
_cell_angle_beta 90.000000
_cell_angle_gamma 90.000000
_cell_volume 1537.781496
_symmetry_space_group_name_H-M "P 42 2 2"
_symmetry_group_IT_number 93
_symmetry_cell_setting 'tetragonal'
loop_
_space_group_symop_operation_xyz
x,y,z
-y,x,1/2+z
-x,-y,z
y,-x,1/2+z
x,-y,-z
-x,y,-z
y,x,1/2-z
-y,-x,1/2-z
loop_
_atom_site_type_symbol
_atom_site_label
_atom_site_fract_x
_atom_site_fract_y
_atom_site_fract_z
Si Si1 0.858867 0.637395 0.719540
Si Si2 0.766890 0.861996 0.882467
Si Si3 0.820658 0.179343 0.750000
Si Si4 0.461269 0.704854 0.442403
Si Si5 0.156131 0.254600 0.137257
O O1 0.688155 0.688155 0.750000
O O2 0.817991 0.618798 0.659714
O O3 0.000000 0.500000 0.738505
O O4 0.992887 0.796589 0.723976
O O5 0.732585 0.742619 0.931317
O O6 0.949392 0.784676 0.860820
O O7 0.773907 0.070522 0.886259
O O8 0.712166 0.214241 0.697065
O O9 0.500000 0.500000 0.439804
O O10 0.500000 0.768738 0.500000
O O11 0.585971 0.795749 0.399886
#
# Coordination Sequence:
#
# PCOD9549766 Si02
#       5
#     8   8   4   8   8
#     4  11  23  38  64 100 141 187 227 280 359 437
#     4  10  23  41  68  99 133 180 234 289 353 444
#     4  10  21  40  63  96 139 176 217 282 357 436
#     4  11  27  47  67  97 139 183 238 308 367 424
#     4  10  22  42  70 100 134 183 231 289 361 437
#
# _framework density 23.410349
#
# number of rings (size 3 to 8) (size 9 to 14) (size 15 to 20)
#    0.000    1.556    2.222    1.000    9.333    2.667 
#    0.000    5.556    0.000    0.000    0.000    0.000 
#    0.000    0.000    0.000    0.000    0.000    0.000 
#
# Total GULP energy -200514.739856 kJ/mol
# GULP energy per Si atom -5569.853885 kJ/mol
# Density = 2.335707 g / cm^3
# Si number density = 23.410349 Si / 1000 Ang^3
#
#
#
# Elastic Constant Matrix: (Units=GPa)
#
#
# Indices 1 2 3 4 5 6 
#
# 1 84.7689 18.9916 35.2693 0.0000 0.0000 0.0000
# 2 18.9916 84.7685 35.2695 0.0000 0.0000 0.0000
# 3 35.2693 35.2695 151.4914 0.0000 0.0000 0.0000
# 4 0.0000 0.0000 0.0000 10.1219 0.0000 0.0000
# 5 0.0000 0.0000 0.0000 0.0000 10.1223 0.0000
# 6 0.0000 0.0000 0.0000 0.0000 0.0000 34.4704
#
#
#
# Elastic Compliance Matrix: (Units=1/GPa)
#
#
# Indices 1 2 3 4 5 6 
#
# 1 0.013326 -0.001877 -0.002666 0.000000 0.000000 0.000000
# 2 -0.001877 0.013326 -0.002666 0.000000 0.000000 0.000000
# 3 -0.002666 -0.002666 0.007842 0.000000 0.000000 0.000000
# 4 0.000000 0.000000 0.000000 0.098796 0.000000 0.000000
# 5 0.000000 0.000000 0.000000 0.000000 0.098792 0.000000
# 6 0.000000 0.000000 0.000000 0.000000 0.000000 0.029010
#
#
# Mechanical properties :
#
#
# Convention : Reuss Voigt Hill
#
# Bulk Modulus (GPa) = 49.80296 55.56551 52.68424
# Shear Modulus (GPa) = 17.71781 26.37614 22.04698
#
# Velocity S-wave (km/s) = 2.75405 3.36026 3.07214
# Velocity P-wave (km/s) = 5.60653 6.23234 5.92770
#
# Compressibility (1/GPa) = 0.02007913
#
# Stress axis : x y z
#
# Youngs Moduli (GPa) = 75.03964 75.03917 127.51432
#
# Poissons Ratio (x) = 0.14081 0.33991
# Poissons Ratio (y) = 0.14081 0.33992
# Poissons Ratio (z) = 0.20003 0.20003
#
# Static dielectric constant tensor:
#      x y z
#    x 2.374820 0.000000 0.000000 
#    y 0.000000 2.374920 0.000000 
#    z 0.000000 0.000000 1.960900 
# 
# From -- ./inp_files/7186.got.cif
#   From: 2010.05.17/outbox.cif.g08.bks.cpg/sg93_4_cif.got.tgz:7186.got - 2010.06.03 19:38:44.
