data_PCOD9549827
_publ_section_title
;
Structure prediction by ZEFSAII (Michael W. Deem and Ramdas Pophale) SiO2 
 PCOD9549827
Probable space group: P 42 2 2
;
_chemical_formula_sum "Si O2"
_cell_formula_units_Z 18
_cell_length_a 5.250684
_cell_length_b 5.250684
_cell_length_c 26.250945
_cell_angle_alpha 90.000000
_cell_angle_beta 90.000000
_cell_angle_gamma 90.000000
_cell_volume 723.730218
_symmetry_space_group_name_H-M "P 42 2 2"
_symmetry_group_IT_number 93
_symmetry_cell_setting 'tetragonal'
loop_
_space_group_symop_operation_xyz
x,y,z
-y,x,1/2+z
-x,-y,z
y,-x,1/2+z
x,-y,-z
-x,y,-z
y,x,1/2-z
-y,-x,1/2-z
loop_
_atom_site_type_symbol
_atom_site_label
_atom_site_fract_x
_atom_site_fract_y
_atom_site_fract_z
Si Si1 0.172454 0.745199 0.193882
Si Si2 0.824457 0.249670 0.085352
Si Si3 0.000000 0.500000 0.500000
O O1 0.289081 0.710920 0.250000
O O2 0.322163 0.747697 0.140202
O O3 0.000000 0.500000 0.187765
O O4 0.000000 0.000000 0.196016
O O5 0.000000 0.500000 0.078948
O O6 0.653033 0.188104 0.037190
O O7 0.000000 0.000000 0.088603
#
# Coordination Sequence:
#
# PCOD9549827 Si02
#       3
#     8   8   2
#     4   9  19  39  67  97 137 182 233 299 369 440
#     4  10  24  44  65 101 142 184 243 303 366 445
#     4  12  26  42  76 100 144 198 250 302 386 440
#
# _framework density 24.871147000000001
#
# number of rings (size 3 to 8) (size 9 to 14) (size 15 to 20)
#    0.000    2.222    0.000    0.667    3.111    7.111 
#    0.000    4.444    0.000    0.000    0.000    0.000 
#    0.000    0.000    0.000    0.000    0.000    0.000 
#
# Total GULP energy -100525.740186 kJ/mol
# GULP energy per Si atom -5584.763344 kJ/mol
# Density = 2.481454 g / cm^3
# Si number density = 24.871147 Si / 1000 Ang^3
#
#
#
# Elastic Constant Matrix: (Units=GPa)
#
#
# Indices 1 2 3 4 5 6 
#
# 1 126.5014 43.2613 59.9964 0.0000 0.0000 0.0000
# 2 43.2613 126.5017 59.9965 0.0000 0.0000 0.0000
# 3 59.9964 59.9965 346.1867 0.0000 0.0000 0.0000
# 4 0.0000 0.0000 0.0000 1180.7714 0.0000 0.0000
# 5 0.0000 0.0000 0.0000 0.0000 1181.2467 0.0000
# 6 0.0000 0.0000 0.0000 0.0000 0.0000 47.3184
#
#
#
# Elastic Compliance Matrix: (Units=1/GPa)
#
#
# Indices 1 2 3 4 5 6 
#
# 1 0.009363 -0.002650 -0.001163 0.000000 0.000000 0.000000
# 2 -0.002650 0.009363 -0.001163 0.000000 0.000000 0.000000
# 3 -0.001163 -0.001163 0.003292 0.000000 0.000000 0.000000
# 4 0.000000 0.000000 0.000000 0.000847 0.000000 0.000000
# 5 0.000000 0.000000 0.000000 0.000000 0.000847 0.000000
# 6 0.000000 0.000000 0.000000 0.000000 0.000000 0.021133
#
#
# Mechanical properties :
#
#
# Convention : Reuss Voigt Hill
#
# Bulk Modulus (GPa) = 82.89073 102.85536 92.87305
# Shear Modulus (GPa) = 85.00437 510.92967 297.96702
#
# Velocity S-wave (km/s) = 5.85253 14.34840 10.95739
# Velocity P-wave (km/s) = 8.89213 17.77491 14.05377
#
# Compressibility (1/GPa) = 0.01206408
#
# Stress axis : x y z
#
# Youngs Moduli (GPa) = 106.80154 106.80178 303.77965
#
# Poissons Ratio (x) = 0.28305 0.35341
# Poissons Ratio (y) = 0.28305 0.35341
# Poissons Ratio (z) = 0.12425 0.12425
#
# Static dielectric constant tensor:
#      x y z
#    x 0.990530 0.000000 0.000000 
#    y 0.000000 0.990090 0.000000 
#    z 0.000000 0.000000 2.151350 
# 
# From -- ./inp_files/6418.got.cif
#   From: 2010.05.17/outbox.cif.g08.bks.cpg/sg93_4_cif.got.tgz:6418.got - 2010.06.03 19:38:44.
