data_PCOD9549658
_publ_section_title
;
Structure prediction by ZEFSAII (Michael W. Deem and Ramdas Pophale) SiO2 
 PCOD9549658
Probable space group: P 42 2 2
;
_chemical_formula_sum "Si O2"
_cell_formula_units_Z 48
_cell_length_a 12.205917
_cell_length_b 12.205917
_cell_length_c 16.862487
_cell_angle_alpha 90.000000
_cell_angle_beta 90.000000
_cell_angle_gamma 90.000000
_cell_volume 2512.247674
_symmetry_space_group_name_H-M "P 42 2 2"
_symmetry_group_IT_number 93
_symmetry_cell_setting 'tetragonal'
loop_
_space_group_symop_operation_xyz
x,y,z
-y,x,1/2+z
-x,-y,z
y,-x,1/2+z
x,-y,-z
-x,y,-z
y,x,1/2-z
-y,-x,1/2-z
loop_
_atom_site_type_symbol
_atom_site_label
_atom_site_fract_x
_atom_site_fract_y
_atom_site_fract_z
Si Si1 0.468542 0.616302 0.335405
Si Si2 0.393742 0.863670 0.906867
Si Si3 0.108046 0.631162 0.405503
Si Si4 0.279647 0.222387 0.658615
Si Si5 0.368269 0.994800 0.594569
Si Si6 0.688966 0.240986 0.666109
O O1 0.500000 0.500000 0.376028
O O2 0.421345 0.578656 0.250000
O O3 0.374602 0.693722 0.370925
O O4 0.574482 0.693318 0.326280
O O5 0.516543 0.839173 0.874732
O O6 0.312004 0.766811 0.889849
O O7 0.364510 0.984079 0.873996
O O8 0.388050 0.884760 0.000674
O O9 0.171311 0.740591 0.386536
O O10 0.250553 0.250553 0.750000
O O11 0.317109 0.099703 0.639635
O O12 0.329750 0.880385 0.633075
O O13 0.500000 0.000000 0.601831
O O14 0.342040 0.000000 0.500000
O O15 0.750803 0.249198 0.750000
#
# Coordination Sequence:
#
# PCOD9549658 Si02
#       6
#     8   8   8   8   8   8
#     4  10  19  35  54  92 133 159 198 265 330 376
#     4   9  20  37  62  92 119 160 202 259 321 382
#     4   9  19  39  62  88 124 155 205 260 320 381
#     4  11  23  38  63  92 123 167 214 262 319 377
#     4  11  25  45  65  92 135 181 217 256 324 403
#     4  12  23  38  65  93 126 168 218 265 322 384
#
# _framework density 19.106396
#
# number of rings (size 3 to 8) (size 9 to 14) (size 15 to 20)
#    0.000    1.667    3.333    3.000    4.667    0.000 
#    0.000    0.833    0.000    7.000    0.000    0.000 
#    0.000    0.000    0.000    0.000    0.000    0.000 
#
# Total GULP energy -267549.965105 kJ/mol
# GULP energy per Si atom -5573.957606 kJ/mol
# Density = 1.906291 g / cm^3
# Si number density = 19.106396 Si / 1000 Ang^3
#
#
#
# Elastic Constant Matrix: (Units=GPa)
#
#
# Indices 1 2 3 4 5 6 
#
# 1 134.7232 75.6537 30.9849 0.0000 0.0000 0.0000
# 2 75.6537 134.7234 30.9850 0.0000 0.0000 0.0000
# 3 30.9849 30.9850 49.7505 0.0000 0.0000 0.0000
# 4 0.0000 0.0000 0.0000 21.4872 0.0000 0.0000
# 5 0.0000 0.0000 0.0000 0.0000 21.4869 0.0000
# 6 0.0000 0.0000 0.0000 0.0000 0.0000 27.2823
#
#
#
# Elastic Compliance Matrix: (Units=1/GPa)
#
#
# Indices 1 2 3 4 5 6 
#
# 1 0.011375 -0.005554 -0.003626 0.000000 0.000000 0.000000
# 2 -0.005554 0.011375 -0.003626 0.000000 0.000000 0.000000
# 3 -0.003626 -0.003626 0.024616 0.000000 0.000000 0.000000
# 4 0.000000 0.000000 0.000000 0.046539 0.000000 0.000000
# 5 0.000000 0.000000 0.000000 0.000000 0.046540 0.000000
# 6 0.000000 0.000000 0.000000 0.000000 0.000000 0.036654
#
#
# Mechanical properties :
#
#
# Convention : Reuss Voigt Hill
#
# Bulk Modulus (GPa) = 45.96269 66.04934 56.00602
# Shear Modulus (GPa) = 23.81380 26.15619 24.98499
#
# Velocity S-wave (km/s) = 3.53424 3.70398 3.62010
# Velocity P-wave (km/s) = 6.38458 7.27578 6.84470
#
# Compressibility (1/GPa) = 0.02175678
#
# Stress axis : x y z
#
# Youngs Moduli (GPa) = 87.91004 87.91016 40.62336
#
# Poissons Ratio (x) = 0.48825 0.14728
# Poissons Ratio (y) = 0.48825 0.14728
# Poissons Ratio (z) = 0.31872 0.31873
#
# Static dielectric constant tensor:
#      x y z
#    x 1.681060 0.000000 0.000000 
#    y 0.000000 1.681060 0.000000 
#    z 0.000000 0.000000 1.671410 
# 
# From -- ./inp_files/5379.got.cif
#   From: 2010.05.17/outbox.cif.g08.bks.cpg/sg93_3_cif.got.tgz:5379.got - 2010.06.03 19:38:44.
