data_PCOD9549199
_publ_section_title
;
Structure prediction by ZEFSAII (Michael W. Deem and Ramdas Pophale) SiO2 
 PCOD9549199
Probable space group: P 41 21 2
;
_chemical_formula_sum "Si O2"
_cell_formula_units_Z 48
_cell_length_a 7.600715
_cell_length_b 7.600715
_cell_length_c 35.555937
_cell_angle_alpha 90.000000
_cell_angle_beta 90.000000
_cell_angle_gamma 90.000000
_cell_volume 2054.097361
_symmetry_space_group_name_H-M "P 41 21 2"
_symmetry_group_IT_number 92
_symmetry_cell_setting 'tetragonal'
loop_
_space_group_symop_operation_xyz
x,y,z
1/2-y,1/2+x,1/4+z
-x,-y,1/2+z
1/2+y,1/2-x,3/4+z
1/2+x,1/2-y,3/4-z
1/2-x,1/2+y,1/4-z
y,x,-z
-y,-x,1/2-z
loop_
_atom_site_type_symbol
_atom_site_label
_atom_site_fract_x
_atom_site_fract_y
_atom_site_fract_z
Si Si1 0.878933 0.299719 0.938823
Si Si2 0.839546 0.215524 0.431771
Si Si3 0.390919 0.904598 0.862960
Si Si4 0.475459 0.093970 0.182027
Si Si5 0.738019 0.324757 0.793171
Si Si6 0.051530 0.223051 0.265027
O O1 0.780408 0.114676 0.936333
O O2 0.830768 0.379752 0.979175
O O3 0.805571 0.426544 0.906494
O O4 0.089375 0.285008 0.935053
O O5 0.738692 0.186682 0.392214
O O6 0.028227 0.289312 0.420630
O O7 0.718376 0.332823 0.459268
O O8 0.831856 0.025928 0.451820
O O9 0.548779 0.969024 0.889831
O O10 0.643240 0.061424 0.208951
O O11 0.335785 0.938283 0.192755
O O12 0.729917 0.270084 0.750000
O O13 0.936551 0.063450 0.250000
#
# Coordination Sequence:
#
# PCOD9549199 Si02
#       6
#     8   8   8   8   8   8
#     4  12  25  40  74  99 130 189 224 286 361 410
#     4  10  24  46  68  99 137 184 233 289 356 424
#     4  10  26  44  65  99 139 184 230 282 352 427
#     4  10  26  46  63 102 142 178 237 287 356 432
#     4  10  21  46  68  96 136 171 231 292 350 414
#     4  10  24  45  68 103 133 175 240 292 351 424
#
# _framework density 23.367929
#
# number of rings (size 3 to 8) (size 9 to 14) (size 15 to 20)
#    0.000    2.000    3.333    0.000   14.000    2.667 
#    0.000    0.000    0.000    0.000    0.000    0.000 
#    0.000    0.000    0.000    0.000    0.000    0.000 
#
# Total GULP energy -268386.164908 kJ/mol
# GULP energy per Si atom -5591.378436 kJ/mol
# Density = 2.331474 g / cm^3
# Si number density = 23.367929 Si / 1000 Ang^3
#
#
#
# Elastic Constant Matrix: (Units=GPa)
#
#
# Indices 1 2 3 4 5 6 
#
# 1 44.8333 27.4977 14.2644 0.0000 0.0000 0.0000
# 2 27.4977 44.8343 14.2648 0.0000 0.0000 0.0000
# 3 14.2644 14.2648 94.5732 0.0000 0.0000 0.0000
# 4 0.0000 0.0000 0.0000 26.4289 0.0000 0.0000
# 5 0.0000 0.0000 0.0000 0.0000 26.4287 0.0000
# 6 0.0000 0.0000 0.0000 0.0000 0.0000 31.4287
#
#
#
# Elastic Compliance Matrix: (Units=1/GPa)
#
#
# Indices 1 2 3 4 5 6 
#
# 1 0.036192 -0.021492 -0.002217 0.000000 0.000000 0.000000
# 2 -0.021492 0.036191 -0.002217 0.000000 0.000000 0.000000
# 3 -0.002217 -0.002217 0.011243 0.000000 0.000000 0.000000
# 4 0.000000 0.000000 0.000000 0.037837 0.000000 0.000000
# 5 0.000000 0.000000 0.000000 0.000000 0.037838 0.000000
# 6 0.000000 0.000000 0.000000 0.000000 0.000000 0.031818
#
#
# Mechanical properties :
#
#
# Convention : Reuss Voigt Hill
#
# Bulk Modulus (GPa) = 31.47285 32.92163 32.19724
# Shear Modulus (GPa) = 19.71910 25.40487 22.56199
#
# Velocity S-wave (km/s) = 2.90807 3.30080 3.11064
# Velocity P-wave (km/s) = 4.97729 5.35220 5.16814
#
# Compressibility (1/GPa) = 0.03177342
#
# Stress axis : x y z
#
# Youngs Moduli (GPa) = 27.63068 27.63123 88.94691
#
# Poissons Ratio (x) = 0.59384 0.19721
# Poissons Ratio (y) = 0.59383 0.19722
# Poissons Ratio (z) = 0.06126 0.06127
#
# Static dielectric constant tensor:
#      x y z
#    x 1.924230 0.000000 0.000000 
#    y 0.000000 1.924230 0.000000 
#    z 0.000000 0.000000 2.052860 
# 
# From -- ./inp_files/4494.got.cif
#   From: 2010.05.17/outbox.cif.g08.bks.cpg/sg92_3_cif.got.tgz:4494.got - 2010.06.03 19:35:17.
