data_PCOD9549582
_publ_section_title
;
Structure prediction by ZEFSAII (Michael W. Deem and Ramdas Pophale) SiO2 
 PCOD9549582
Probable space group: P 41 21 2
;
_chemical_formula_sum "Si O2"
_cell_formula_units_Z 20
_cell_length_a 7.056050
_cell_length_b 7.056050
_cell_length_c 11.831503
_cell_angle_alpha 90.000000
_cell_angle_beta 90.000000
_cell_angle_gamma 90.000000
_cell_volume 589.064997
_symmetry_space_group_name_H-M "P 41 21 2"
_symmetry_group_IT_number 92
_symmetry_cell_setting 'tetragonal'
loop_
_space_group_symop_operation_xyz
x,y,z
1/2-y,1/2+x,1/4+z
-x,-y,1/2+z
1/2+y,1/2-x,3/4+z
1/2+x,1/2-y,3/4-z
1/2-x,1/2+y,1/4-z
y,x,-z
-y,-x,1/2-z
loop_
_atom_site_type_symbol
_atom_site_label
_atom_site_fract_x
_atom_site_fract_y
_atom_site_fract_z
Si Si1 0.421853 0.578148 0.750000
Si Si2 0.034649 0.337766 0.046831
Si Si3 0.181700 0.150795 0.257502
O O1 0.649728 0.606777 0.770292
O O2 0.333136 0.672437 0.641764
O O3 0.068391 0.323040 0.190196
O O4 0.215003 0.215003 0.000000
O O5 0.130850 0.546841 0.038494
O O6 0.015672 0.984329 0.250000
#
# Coordination Sequence:
#
# PCOD9549582 Si02
#       3
#     4   8   8
#     4  12  32  58  94 144 212 272 352 432 536 634
#     4  12  32  61 102 144 217 266 361 430 544 633
#     4  12  33  63 100 158 205 289 345 457 529 653
#
# _framework density 33.952114000000002
#
# number of rings (size 3 to 8) (size 9 to 14) (size 15 to 20)
#    0.000    0.000    0.000    3.600   28.000    0.000 
#    7.200    0.000    0.000    0.000    0.000    0.000 
#    0.000    0.000    0.000    0.000    0.000    0.000 
#
# Total GULP energy -111460.568912 kJ/mol
# GULP energy per Si atom -5573.028446 kJ/mol
# Density = 3.387484 g / cm^3
# Si number density = 33.952114 Si / 1000 Ang^3
#
#
#
# Elastic Constant Matrix: (Units=GPa)
#
#
# Indices 1 2 3 4 5 6 
#
# 1 153.6906 251.1367 52.9772 0.0000 0.0000 0.0000
# 2 251.1367 153.6934 52.9803 0.0000 0.0000 0.0000
# 3 52.9772 52.9803 86.2295 0.0000 0.0000 0.0000
# 4 0.0000 0.0000 0.0000 -7.0590 0.0000 0.0000
# 5 0.0000 0.0000 0.0000 0.0000 -7.0568 0.0000
# 6 0.0000 0.0000 0.0000 0.0000 0.0000 11.0492
#
#
#
# Elastic Compliance Matrix: (Units=1/GPa)
#
#
# Indices 1 2 3 4 5 6 
#
# 1 -0.003659 0.006603 -0.001809 0.000000 0.000000 0.000000
# 2 0.006603 -0.003659 -0.001808 0.000000 0.000000 0.000000
# 3 -0.001809 -0.001808 0.013819 0.000000 0.000000 0.000000
# 4 0.000000 0.000000 0.000000 -0.141664 0.000000 0.000000
# 5 0.000000 0.000000 0.000000 0.000000 -0.141707 0.000000
# 6 0.000000 0.000000 0.000000 0.000000 0.000000 0.090504
#
#
# Mechanical properties :
#
#
# Convention : Reuss Voigt Hill
#
# Bulk Modulus (GPa) = 80.17750 123.08909 101.63330
# Shear Modulus (GPa) = -26.57022 1.82131 -12.37446
#
# Velocity S-wave (km/s) = -2.80050 0.73321 -1.91118
# Velocity P-wave (km/s) = 3.63443 6.08681 5.01290
#
# Compressibility (1/GPa) = 0.01247233
#
# Stress axis : x y z
#
# Youngs Moduli (GPa) = -273.27315 -273.27094 72.36313
#
# Poissons Ratio (x) = 1.80437 0.13088
# Poissons Ratio (y) = 1.80439 0.13085
# Poissons Ratio (z) = -0.49426 -0.49415
#
# Static dielectric constant tensor:
#      x y z
#    x 4.392980 0.000000 0.000000 
#    y 0.000000 4.392980 0.000000 
#    z 0.000000 0.000000 2.972700 
# 
# From -- ./inp_files/1787.got.cif
#   From: 2010.05.17/outbox.cif.g08.bks.cpg/sg92_1_cif.got.tgz:1787.got - 2010.06.03 19:35:17.
