data_PCOD9549564
_publ_section_title
;
Structure prediction by ZEFSAII (Michael W. Deem and Ramdas Pophale) SiO2 
 PCOD9549564
Probable space group: P 41 21 2
;
_chemical_formula_sum "Si O2"
_cell_formula_units_Z 36
_cell_length_a 10.861685
_cell_length_b 10.861685
_cell_length_c 11.595905
_cell_angle_alpha 90.000000
_cell_angle_beta 90.000000
_cell_angle_gamma 90.000000
_cell_volume 1368.040820
_symmetry_space_group_name_H-M "P 41 21 2"
_symmetry_group_IT_number 92
_symmetry_cell_setting 'tetragonal'
loop_
_space_group_symop_operation_xyz
x,y,z
1/2-y,1/2+x,1/4+z
-x,-y,1/2+z
1/2+y,1/2-x,3/4+z
1/2+x,1/2-y,3/4-z
1/2-x,1/2+y,1/4-z
y,x,-z
-y,-x,1/2-z
loop_
_atom_site_type_symbol
_atom_site_label
_atom_site_fract_x
_atom_site_fract_y
_atom_site_fract_z
Si Si1 0.958108 0.672651 0.814016
Si Si2 0.301475 0.996377 0.103126
Si Si3 0.451161 0.548840 0.250000
Si Si4 0.683773 0.004928 0.855855
Si Si5 0.935332 0.064669 0.250000
Si Si6 0.178589 0.178589 0.500000
O O1 0.897213 0.593287 0.711375
O O2 0.845276 0.723294 0.894921
O O3 0.065711 0.590237 0.875829
O O4 0.028282 0.792761 0.767987
O O5 0.366659 0.123959 0.138610
O O6 0.264208 0.959758 0.230794
O O7 0.191357 0.019764 0.018888
O O8 0.475166 0.492280 0.377114
O O9 0.788243 0.947489 0.934653
#
# Coordination Sequence:
#
# PCOD9549564 Si02
#       6
#     8   8   4   8   4   4
#     4  12  26  49  83 116 168 217 288 361 433 526
#     4  12  26  52  80 122 164 225 288 359 426 525
#     4  12  31  54  86 121 182 226 299 362 444 528
#     4  12  25  47  82 120 161 216 291 348 437 516
#     4  12  29  56  80 129 168 232 288 367 448 527
#     4  12  26  48  80 120 164 228 275 361 430 523
#
# _framework density 26.315007000000001
#
# number of rings (size 3 to 8) (size 9 to 14) (size 15 to 20)
#    0.000    0.000    4.444    4.000    6.222    0.000 
#    0.000    2.222    0.000    0.000    0.000    0.000 
#    0.000    0.000    0.000    0.000    0.000    0.000 
#
# Total GULP energy -200929.995533 kJ/mol
# GULP energy per Si atom -5581.388765 kJ/mol
# Density = 2.625511 g / cm^3
# Si number density = 26.315007 Si / 1000 Ang^3
#
#
#
# Elastic Constant Matrix: (Units=GPa)
#
#
# Indices 1 2 3 4 5 6 
#
# 1 135.6500 14.1327 54.4659 0.0000 0.0000 0.0000
# 2 14.1327 135.6519 54.4669 0.0000 0.0000 0.0000
# 3 54.4659 54.4669 212.0993 0.0000 0.0000 0.0000
# 4 0.0000 0.0000 0.0000 45.1274 0.0000 0.0000
# 5 0.0000 0.0000 0.0000 0.0000 45.1263 0.0000
# 6 0.0000 0.0000 0.0000 0.0000 0.0000 42.5782
#
#
#
# Elastic Compliance Matrix: (Units=1/GPa)
#
#
# Indices 1 2 3 4 5 6 
#
# 1 0.008219 -0.000010 -0.002108 0.000000 0.000000 0.000000
# 2 -0.000010 0.008219 -0.002108 0.000000 0.000000 0.000000
# 3 -0.002108 -0.002108 0.005798 0.000000 0.000000 0.000000
# 4 0.000000 0.000000 0.000000 0.022160 0.000000 0.000000
# 5 0.000000 0.000000 0.000000 0.000000 0.022160 0.000000
# 6 0.000000 0.000000 0.000000 0.000000 0.000000 0.023486
#
#
# Mechanical properties :
#
#
# Convention : Reuss Voigt Hill
#
# Bulk Modulus (GPa) = 72.54879 81.05914 76.80396
# Shear Modulus (GPa) = 48.50179 50.58875 49.54527
#
# Velocity S-wave (km/s) = 4.29782 4.38931 4.34380
# Velocity P-wave (km/s) = 7.22894 7.52053 7.37617
#
# Compressibility (1/GPa) = 0.01378383
#
# Stress axis : x y z
#
# Youngs Moduli (GPa) = 121.66331 121.66469 172.48765
#
# Poissons Ratio (x) = 0.00120 0.36363
# Poissons Ratio (y) = 0.00120 0.36364
# Poissons Ratio (z) = 0.25649 0.25649
#
# Static dielectric constant tensor:
#      x y z
#    x 2.298500 0.000000 0.000000 
#    y 0.000000 2.298500 0.000000 
#    z 0.000000 0.000000 2.160200 
# 
# From -- ./inp_files/2030.got.cif
#   From: 2010.05.17/outbox.cif.g08.bks.cpg/sg92_2_cif.got.tgz:2030.got - 2010.06.03 19:35:17.
