data_PCOD9549489
_publ_section_title
;
Structure prediction by ZEFSAII (Michael W. Deem and Ramdas Pophale) SiO2 
 PCOD9549489
Probable space group: P 41 21 2
;
_chemical_formula_sum "Si O2"
_cell_formula_units_Z 40
_cell_length_a 13.159721
_cell_length_b 13.159721
_cell_length_c 9.259656
_cell_angle_alpha 90.000000
_cell_angle_beta 90.000000
_cell_angle_gamma 90.000000
_cell_volume 1603.571085
_symmetry_space_group_name_H-M "P 41 21 2"
_symmetry_group_IT_number 92
_symmetry_cell_setting 'tetragonal'
loop_
_space_group_symop_operation_xyz
x,y,z
1/2-y,1/2+x,1/4+z
-x,-y,1/2+z
1/2+y,1/2-x,3/4+z
1/2+x,1/2-y,3/4-z
1/2-x,1/2+y,1/4-z
y,x,-z
-y,-x,1/2-z
loop_
_atom_site_type_symbol
_atom_site_label
_atom_site_fract_x
_atom_site_fract_y
_atom_site_fract_z
Si Si1 0.074372 0.934502 0.420466
Si Si2 0.764702 0.100854 0.359507
Si Si3 0.129590 0.284260 0.198980
Si Si4 0.606716 0.035758 0.752470
Si Si5 0.222822 0.112810 0.376284
O O1 0.064724 0.935277 0.250000
O O2 0.101223 0.829113 0.492146
O O3 0.159498 0.018920 0.442234
O O4 0.973866 0.973866 0.500000
O O5 0.837673 0.162328 0.250000
O O6 0.657931 0.145385 0.413534
O O7 0.745976 0.988169 0.303962
O O8 0.150697 0.355496 0.057903
O O9 0.188200 0.177746 0.233753
O O10 0.563413 0.980860 0.612638
O O11 0.677605 0.949309 0.827182
O O12 0.197052 0.197052 0.500000
#
# Coordination Sequence:
#
# PCOD9549489 Si02
#       5
#     8   8   8   8   8
#     4  11  23  46  78 118 165 220 285 360 426 519
#     4  12  27  50  85 119 171 229 299 369 453 547
#     4  12  27  53  81 126 167 231 290 368 455 536
#     4  12  30  54  88 128 179 229 296 375 445 539
#     4  11  27  51  84 122 170 232 294 358 445 534
#
# _framework density 24.944326
#
# number of rings (size 3 to 8) (size 9 to 14) (size 15 to 20)
#    0.000    0.400    2.000    6.000    5.600    2.400 
#    0.000    0.000    0.000    0.000    0.000    0.000 
#    0.000    0.000    0.000    0.000    0.000    0.000 
#
# Total GULP energy -223158.754923 kJ/mol
# GULP energy per Si atom -5578.968873 kJ/mol
# Density = 2.488755 g / cm^3
# Si number density = 24.944326 Si / 1000 Ang^3
#
#
#
# Elastic Constant Matrix: (Units=GPa)
#
#
# Indices 1 2 3 4 5 6 
#
# 1 105.1854 69.5439 50.8380 0.0000 0.0000 0.0000
# 2 69.5439 105.1856 50.8365 0.0000 0.0000 0.0000
# 3 50.8380 50.8365 150.0026 0.0000 0.0000 0.0000
# 4 0.0000 0.0000 0.0000 51.1201 0.0000 0.0000
# 5 0.0000 0.0000 0.0000 0.0000 51.1206 0.0000
# 6 0.0000 0.0000 0.0000 0.0000 0.0000 41.8123
#
#
#
# Elastic Compliance Matrix: (Units=1/GPa)
#
#
# Indices 1 2 3 4 5 6 
#
# 1 0.017593 -0.010464 -0.002416 0.000000 0.000000 0.000000
# 2 -0.010464 0.017593 -0.002416 0.000000 0.000000 0.000000
# 3 -0.002416 -0.002416 0.008304 0.000000 0.000000 0.000000
# 4 0.000000 0.000000 0.000000 0.019562 0.000000 0.000000
# 5 0.000000 0.000000 0.000000 0.000000 0.019562 0.000000
# 6 0.000000 0.000000 0.000000 0.000000 0.000000 0.023916
#
#
# Mechanical properties :
#
#
# Convention : Reuss Voigt Hill
#
# Bulk Modulus (GPa) = 77.53181 78.09005 77.81093
# Shear Modulus (GPa) = 35.35517 41.42092 38.38804
#
# Velocity S-wave (km/s) = 3.76887 4.07939 3.92720
# Velocity P-wave (km/s) = 7.07733 7.31862 7.19899
#
# Compressibility (1/GPa) = 0.01289793
#
# Stress axis : x y z
#
# Youngs Moduli (GPa) = 56.84012 56.84086 120.42052
#
# Poissons Ratio (x) = 0.59478 0.29097
# Poissons Ratio (y) = 0.59478 0.29093
# Poissons Ratio (z) = 0.13734 0.13732
#
# Static dielectric constant tensor:
#      x y z
#    x 2.002310 0.000000 0.000000 
#    y 0.000000 2.002310 0.000000 
#    z 0.000000 0.000000 2.070690 
# 
# From -- ./inp_files/1312.got.cif
#   From: 2010.05.17/outbox.cif.g08.bks.cpg/sg92_1_cif.got.tgz:1312.got - 2010.06.03 19:35:17.
