data_PCOD9549003
_publ_section_title
;
Structure prediction by ZEFSAII (Michael W. Deem and Ramdas Pophale) SiO2 
 PCOD9549003
Probable space group: P 41 21 2
;
_chemical_formula_sum "Si O2"
_cell_formula_units_Z 32
_cell_length_a 8.977991
_cell_length_b 8.977991
_cell_length_c 15.707867
_cell_angle_alpha 90.000000
_cell_angle_beta 90.000000
_cell_angle_gamma 90.000000
_cell_volume 1266.121976
_symmetry_space_group_name_H-M "P 41 21 2"
_symmetry_group_IT_number 92
_symmetry_cell_setting 'tetragonal'
loop_
_space_group_symop_operation_xyz
x,y,z
1/2-y,1/2+x,1/4+z
-x,-y,1/2+z
1/2+y,1/2-x,3/4+z
1/2+x,1/2-y,3/4-z
1/2-x,1/2+y,1/4-z
y,x,-z
-y,-x,1/2-z
loop_
_atom_site_type_symbol
_atom_site_label
_atom_site_fract_x
_atom_site_fract_y
_atom_site_fract_z
Si Si1 0.537195 0.774307 0.471952
Si Si2 0.023680 0.127700 0.165081
Si Si3 0.518475 0.120015 0.463047
Si Si4 0.729056 0.772777 0.861499
O O1 0.685764 0.685764 0.500000
O O2 0.465359 0.672369 0.396474
O O3 0.403717 0.773776 0.542189
O O4 0.558501 0.948710 0.460521
O O5 0.954499 0.045502 0.250000
O O6 0.887738 0.144984 0.099928
O O7 0.063550 0.290981 0.202218
O O8 0.345937 0.150427 0.442810
O O9 0.604446 0.209372 0.388604
#
# Coordination Sequence:
#
# PCOD9549003 Si02
#       4
#     8   8   8   8
#     4  10  21  36  55  86 118 143 191 256 293 327
#     4   8  17  35  57  79 108 151 192 224 282 359
#     4  10  20  35  57  82 111 149 192 234 284 351
#     4  10  20  38  59  79 113 157 190 226 289 361
#
# _framework density 25.274027
#
# number of rings (size 3 to 8) (size 9 to 14) (size 15 to 20)
#    0.000    2.500    0.000    3.000    0.000    2.000 
#    0.000    5.000    0.000    0.000    0.000    0.000 
#    0.000    0.000    0.000    0.000    0.000    0.000 
#
# Total GULP energy -178245.746372 kJ/mol
# GULP energy per Si atom -5570.179574 kJ/mol
# Density = 2.521650 g / cm^3
# Si number density = 25.274027 Si / 1000 Ang^3
#
#
#
# Elastic Constant Matrix: (Units=GPa)
#
#
# Indices 1 2 3 4 5 6 
#
# 1 185.2454 97.2475 31.6424 0.0000 0.0000 0.0000
# 2 97.2475 185.2454 31.6422 0.0000 0.0000 0.0000
# 3 31.6424 31.6422 29.9075 0.0000 0.0000 0.0000
# 4 0.0000 0.0000 0.0000 28.3198 0.0000 0.0000
# 5 0.0000 0.0000 0.0000 0.0000 28.3197 0.0000
# 6 0.0000 0.0000 0.0000 0.0000 0.0000 43.9798
#
#
#
# Elastic Compliance Matrix: (Units=1/GPa)
#
#
# Indices 1 2 3 4 5 6 
#
# 1 0.008002 -0.003362 -0.004909 0.000000 0.000000 0.000000
# 2 -0.003362 0.008002 -0.004909 0.000000 0.000000 0.000000
# 3 -0.004909 -0.004909 0.043823 0.000000 0.000000 0.000000
# 4 0.000000 0.000000 0.000000 0.035311 0.000000 0.000000
# 5 0.000000 0.000000 0.000000 0.000000 0.035311 0.000000
# 6 0.000000 0.000000 0.000000 0.000000 0.000000 0.022738
#
#
# Mechanical properties :
#
#
# Convention : Reuss Voigt Hill
#
# Bulk Modulus (GPa) = 29.87961 80.16249 55.02105
# Shear Modulus (GPa) = 26.21899 36.11494 31.16696
#
# Velocity S-wave (km/s) = 3.22435 3.78423 3.51545
# Velocity P-wave (km/s) = 5.07048 7.13302 6.18829
#
# Compressibility (1/GPa) = 0.03346764
#
# Stress axis : x y z
#
# Youngs Moduli (GPa) = 124.97278 124.97309 22.81894
#
# Poissons Ratio (x) = 0.42018 0.11201
# Poissons Ratio (y) = 0.42018 0.11201
# Poissons Ratio (z) = 0.61346 0.61345
#
# Static dielectric constant tensor:
#      x y z
#    x 2.058170 0.000000 0.000000 
#    y 0.000000 2.058170 0.000000 
#    z 0.000000 0.000000 2.060910 
# 
# From -- ./inp_files/3390.got.cif
#   From: 2010.05.17/outbox.cif.g08.bks.cpg/sg92_2_cif.got.tgz:3390.got - 2010.06.03 19:35:17.
