data_PCOD9549206
_publ_section_title
;
Structure prediction by ZEFSAII (Michael W. Deem and Ramdas Pophale) SiO2 
 PCOD9549206
Probable space group: P 41 21 2
;
_chemical_formula_sum "Si O2"
_cell_formula_units_Z 48
_cell_length_a 14.282774
_cell_length_b 14.282774
_cell_length_c 11.205230
_cell_angle_alpha 90.000000
_cell_angle_beta 90.000000
_cell_angle_gamma 90.000000
_cell_volume 2285.840399
_symmetry_space_group_name_H-M "P 41 21 2"
_symmetry_group_IT_number 92
_symmetry_cell_setting 'tetragonal'
loop_
_space_group_symop_operation_xyz
x,y,z
1/2-y,1/2+x,1/4+z
-x,-y,1/2+z
1/2+y,1/2-x,3/4+z
1/2+x,1/2-y,3/4-z
1/2-x,1/2+y,1/4-z
y,x,-z
-y,-x,1/2-z
loop_
_atom_site_type_symbol
_atom_site_label
_atom_site_fract_x
_atom_site_fract_y
_atom_site_fract_z
Si Si1 0.668862 0.821989 0.050080
Si Si2 0.743899 0.990373 0.191460
Si Si3 0.820876 0.019810 0.758206
Si Si4 0.757049 0.131242 0.554495
Si Si5 0.037356 0.881654 0.990814
Si Si6 0.317040 0.664065 0.389465
O O1 0.714579 0.919877 0.085806
O O2 0.625820 0.797252 0.180607
O O3 0.747044 0.747044 0.000000
O O4 0.579221 0.821766 0.964207
O O5 0.764233 0.927181 0.307472
O O6 0.839677 0.032144 0.140542
O O7 0.809274 0.016887 0.900480
O O8 0.827942 0.914436 0.710258
O O9 0.743524 0.074588 0.678158
O O10 0.916898 0.083103 0.750000
O O11 0.747463 0.241800 0.585964
O O12 0.856878 0.091514 0.515012
O O13 0.965530 0.965530 0.000000
O O14 0.338308 0.661693 0.250000
#
# Coordination Sequence:
#
# PCOD9549206 Si02
#       6
#     8   8   8   8   8   8
#     4  11  23  43  70  95 133 175 227 282 340 416
#     4  11  24  39  68  97 131 177 226 274 348 408
#     4  10  22  36  58  94 135 169 222 282 334 402
#     4  10  23  41  62  95 132 177 220 275 347 408
#     4  11  20  37  60  96 134 166 219 275 340 403
#     4  11  22  40  64  92 135 178 221 278 344 405
#
# _framework density 20.998840999999999
#
# number of rings (size 3 to 8) (size 9 to 14) (size 15 to 20)
#    0.000    1.333    3.333    3.000    2.333    6.000 
#    0.000    0.000   18.333    0.000    0.000    0.000 
#    0.000    0.000    0.000    0.000    0.000    0.000 
#
# Total GULP energy -267229.660221 kJ/mol
# GULP energy per Si atom -5567.284588 kJ/mol
# Density = 2.095105 g / cm^3
# Si number density = 20.998841 Si / 1000 Ang^3
#
#
#
# Elastic Constant Matrix: (Units=GPa)
#
#
# Indices 1 2 3 4 5 6 
#
# 1 37.6326 28.9803 25.2107 0.0000 0.0000 0.0000
# 2 28.9803 37.6328 25.2104 0.0000 0.0000 0.0000
# 3 25.2107 25.2104 81.3573 0.0000 0.0000 0.0000
# 4 0.0000 0.0000 0.0000 35.8116 0.0000 0.0000
# 5 0.0000 0.0000 0.0000 0.0000 35.8113 0.0000
# 6 0.0000 0.0000 0.0000 0.0000 0.0000 21.4429
#
#
#
# Elastic Compliance Matrix: (Units=1/GPa)
#
#
# Indices 1 2 3 4 5 6 
#
# 1 0.067594 -0.047982 -0.006078 0.000000 0.000000 0.000000
# 2 -0.047982 0.067594 -0.006077 0.000000 0.000000 0.000000
# 3 -0.006078 -0.006077 0.016058 0.000000 0.000000 0.000000
# 4 0.000000 0.000000 0.000000 0.027924 0.000000 0.000000
# 5 0.000000 0.000000 0.000000 0.000000 0.027924 0.000000
# 6 0.000000 0.000000 0.000000 0.000000 0.000000 0.046635
#
#
# Mechanical properties :
#
#
# Convention : Reuss Voigt Hill
#
# Bulk Modulus (GPa) = 32.28624 35.04729 33.66677
# Shear Modulus (GPa) = 13.00977 23.76124 18.38551
#
# Velocity S-wave (km/s) = 2.49177 3.36750 2.96218
# Velocity P-wave (km/s) = 4.86695 5.64326 5.26942
#
# Compressibility (1/GPa) = 0.03097294
#
# Stress axis : x y z
#
# Youngs Moduli (GPa) = 14.79413 14.79431 62.27479
#
# Poissons Ratio (x) = 0.70986 0.37848
# Poissons Ratio (y) = 0.70985 0.37844
# Poissons Ratio (z) = 0.08991 0.08990
#
# Static dielectric constant tensor:
#      x y z
#    x 1.854480 0.000000 0.000000 
#    y 0.000000 1.854480 0.000000 
#    z 0.000000 0.000000 2.021280 
# 
# From -- ./inp_files/2183.got.cif
#   From: 2010.05.17/outbox.cif.g08.bks.cpg/sg92_2_cif.got.tgz:2183.got - 2010.06.03 19:35:17.
