data_PCOD9549725
_publ_section_title
;
Structure prediction by ZEFSAII (Michael W. Deem and Ramdas Pophale) SiO2 
 PCOD9549725
Probable space group: P 42 2 2
;
_chemical_formula_sum "Si O2"
_cell_formula_units_Z 46
_cell_length_a 17.095586
_cell_length_b 17.095586
_cell_length_c 8.317328
_cell_angle_alpha 90.000000
_cell_angle_beta 90.000000
_cell_angle_gamma 90.000000
_cell_volume 2430.814469
_symmetry_space_group_name_H-M "P 42 2 2"
_symmetry_group_IT_number 93
_symmetry_cell_setting 'tetragonal'
loop_
_space_group_symop_operation_xyz
x,y,z
-y,x,1/2+z
-x,-y,z
y,-x,1/2+z
x,-y,-z
-x,y,-z
y,x,1/2-z
-y,-x,1/2-z
loop_
_atom_site_type_symbol
_atom_site_label
_atom_site_fract_x
_atom_site_fract_y
_atom_site_fract_z
Si Si1 0.299164 0.772089 0.496814
Si Si2 0.309934 0.000000 0.000000
Si Si3 0.479156 0.214894 0.839518
Si Si4 0.000000 0.500000 0.000000
Si Si5 0.104846 0.387081 0.220268
Si Si6 0.842876 0.306505 0.362538
Si Si7 0.569843 0.654977 0.602989
O O1 0.326849 0.838380 0.622475
O O2 0.214767 0.730451 0.496597
O O3 0.294976 0.813275 0.320370
O O4 0.359451 0.698056 0.492609
O O5 0.353244 0.047762 0.142794
O O6 0.272974 0.928239 0.099707
O O7 0.551220 0.160610 0.804743
O O8 0.400789 0.164713 0.867869
O O9 0.468550 0.270713 0.690283
O O10 0.500000 0.262615 0.000000
O O11 0.054073 0.559124 0.899335
O O12 0.500000 0.617316 0.500000
O O13 0.604320 0.604320 0.750000
#
# Coordination Sequence:
#
# PCOD9549725 Si02
#       7
#     8   4   8   2   8   8   8
#     4  10  20  39  61  87 122 168 217 254 315 404
#     4  12  24  37  54  88 130 157 202 264 326 389
#     4  11  20  34  55  87 116 159 204 257 315 382
#     4  12  24  34  52  84 124 168 194 248 320 390
#     4  12  23  35  56  85 130 168 211 258 328 399
#     4  10  21  37  58  85 126 162 206 261 314 388
#     4  11  20  38  64  93 117 160 220 280 329 393
#
# _framework density 18.923698999999999
#
# number of rings (size 3 to 8) (size 9 to 14) (size 15 to 20)
#    0.000    1.043    6.957    4.174    0.000    1.391 
#    0.000    2.609    0.000    1.565    0.000    0.000 
#    0.000   45.217    0.000    0.000    0.000    0.000 
#
# Total GULP energy -256133.903059 kJ/mol
# GULP energy per Si atom -5568.128327 kJ/mol
# Density = 1.888063 g / cm^3
# Si number density = 18.923699 Si / 1000 Ang^3
#
#
#
# Elastic Constant Matrix: (Units=GPa)
#
#
# Indices 1 2 3 4 5 6 
#
# 1 79.8371 41.8724 31.2765 0.0000 0.0000 0.0000
# 2 41.8724 79.8371 31.2765 0.0000 0.0000 0.0000
# 3 31.2765 31.2765 77.3227 0.0000 0.0000 0.0000
# 4 0.0000 0.0000 0.0000 -43.5353 0.0000 0.0000
# 5 0.0000 0.0000 0.0000 0.0000 -43.5353 0.0000
# 6 0.0000 0.0000 0.0000 0.0000 0.0000 15.5268
#
#
#
# Elastic Compliance Matrix: (Units=1/GPa)
#
#
# Indices 1 2 3 4 5 6 
#
# 1 0.018356 -0.007984 -0.004196 0.000000 0.000000 0.000000
# 2 -0.007984 0.018356 -0.004196 0.000000 0.000000 0.000000
# 3 -0.004196 -0.004196 0.016327 0.000000 0.000000 0.000000
# 4 0.000000 0.000000 0.000000 -0.022970 0.000000 0.000000
# 5 0.000000 0.000000 0.000000 0.000000 -0.022970 0.000000
# 6 0.000000 0.000000 0.000000 0.000000 0.000000 0.064405
#
#
# Mechanical properties :
#
#
# Convention : Reuss Voigt Hill
#
# Bulk Modulus (GPa) = 49.28611 49.53865 49.41238
# Shear Modulus (GPa) = 45.03758 -5.47064 19.78347
#
# Velocity S-wave (km/s) = 4.88377 -1.70211 3.23682
# Velocity P-wave (km/s) = 7.60939 4.72991 6.33541
#
# Compressibility (1/GPa) = 0.02028969
#
# Stress axis : x y z
#
# Youngs Moduli (GPa) = 54.47680 54.47680 61.24805
#
# Poissons Ratio (x) = 0.43493 0.25698
# Poissons Ratio (y) = 0.43493 0.25698
# Poissons Ratio (z) = 0.22857 0.22857
#
# Static dielectric constant tensor:
#      x y z
#    x 1.743210 0.000000 0.000000 
#    y 0.000000 1.743210 0.000000 
#    z 0.000000 0.000000 1.758430 
# 
# From -- ./inp_files/2097.got.cif
#   From: 2010.05.17/outbox.cif.g08.bks.cpg/sg93_2_cif.got.tgz:2097.got - 2010.06.03 19:38:44.
