data_PCOD9549080
_publ_section_title
;
Structure prediction by ZEFSAII (Michael W. Deem and Ramdas Pophale) SiO2 
 PCOD9549080
Probable space group: P 41 21 2
;
_chemical_formula_sum "Si O2"
_cell_formula_units_Z 40
_cell_length_a 10.625625
_cell_length_b 10.625625
_cell_length_c 14.608082
_cell_angle_alpha 90.000000
_cell_angle_beta 90.000000
_cell_angle_gamma 90.000000
_cell_volume 1649.309526
_symmetry_space_group_name_H-M "P 41 21 2"
_symmetry_group_IT_number 92
_symmetry_cell_setting 'tetragonal'
loop_
_space_group_symop_operation_xyz
x,y,z
1/2-y,1/2+x,1/4+z
-x,-y,1/2+z
1/2+y,1/2-x,3/4+z
1/2+x,1/2-y,3/4-z
1/2-x,1/2+y,1/4-z
y,x,-z
-y,-x,1/2-z
loop_
_atom_site_type_symbol
_atom_site_label
_atom_site_fract_x
_atom_site_fract_y
_atom_site_fract_z
Si Si1 0.225870 0.957351 0.191238
Si Si2 0.887044 0.602562 0.209344
Si Si3 0.533276 0.343515 0.547002
Si Si4 0.345828 0.864496 0.733207
Si Si5 0.412624 0.378297 0.741197
O O1 0.149938 0.850063 0.250000
O O2 0.363994 0.993239 0.226195
O O3 0.170490 0.099630 0.206361
O O4 0.198481 0.935020 0.084788
O O5 0.912128 0.667790 0.112175
O O6 0.884400 0.453590 0.194705
O O7 0.737529 0.622363 0.229117
O O8 0.455805 0.455805 0.500000
O O9 0.496192 0.227796 0.485220
O O10 0.480646 0.325133 0.649730
O O11 0.242766 0.757235 0.750000
O O12 0.483941 0.516060 0.750000
#
# Coordination Sequence:
#
# PCOD9549080 Si02
#       5
#     8   8   8   8   8
#     4  10  23  42  69  97 142 191 232 282 362 438
#     4  12  24  43  70 106 139 189 243 304 354 434
#     4   9  18  40  68 102 127 177 231 295 359 411
#     4  11  24  42  68 106 139 176 241 310 357 418
#     4  10  20  41  71 101 136 185 236 292 363 431
#
# _framework density 24.252573999999999
#
# number of rings (size 3 to 8) (size 9 to 14) (size 15 to 20)
#    0.000    1.600    4.000    1.800    2.800    0.000 
#    7.200    7.000    0.000    0.000    0.000    0.000 
#    0.000    0.000    0.000    0.000    0.000    0.000 
#
# Total GULP energy -222823.512187 kJ/mol
# GULP energy per Si atom -5570.587805 kJ/mol
# Density = 2.419737 g / cm^3
# Si number density = 24.252574 Si / 1000 Ang^3
#
#
#
# Elastic Constant Matrix: (Units=GPa)
#
#
# Indices 1 2 3 4 5 6 
#
# 1 43.1739 20.9089 1.1784 0.0000 0.0000 0.0000
# 2 20.9089 43.1731 1.1787 0.0000 0.0000 0.0000
# 3 1.1784 1.1787 105.4512 0.0000 0.0000 0.0000
# 4 0.0000 0.0000 0.0000 26.3294 0.0000 0.0000
# 5 0.0000 0.0000 0.0000 0.0000 26.3298 0.0000
# 6 0.0000 0.0000 0.0000 0.0000 0.0000 31.6273
#
#
#
# Elastic Compliance Matrix: (Units=1/GPa)
#
#
# Indices 1 2 3 4 5 6 
#
# 1 0.030263 -0.014651 -0.000174 0.000000 0.000000 0.000000
# 2 -0.014651 0.030263 -0.000175 0.000000 0.000000 0.000000
# 3 -0.000174 -0.000175 0.009487 0.000000 0.000000 0.000000
# 4 0.000000 0.000000 0.000000 0.037980 0.000000 0.000000
# 5 0.000000 0.000000 0.000000 0.000000 0.037980 0.000000
# 6 0.000000 0.000000 0.000000 0.000000 0.000000 0.031618
#
#
# Mechanical properties :
#
#
# Convention : Reuss Voigt Hill
#
# Bulk Modulus (GPa) = 24.99269 26.48114 25.73691
# Shear Modulus (GPa) = 22.63167 28.09276 25.36221
#
# Velocity S-wave (km/s) = 3.05809 3.40713 3.23732
# Velocity P-wave (km/s) = 4.77460 5.14011 4.96072
#
# Compressibility (1/GPa) = 0.04001171
#
# Stress axis : x y z
#
# Youngs Moduli (GPa) = 33.04414 33.04353 105.40789
#
# Poissons Ratio (x) = 0.48414 0.01838
# Poissons Ratio (y) = 0.48415 0.01840
# Poissons Ratio (z) = 0.00576 0.00577
#
# Static dielectric constant tensor:
#      x y z
#    x 2.000680 0.000000 0.000000 
#    y 0.000000 2.000680 0.000000 
#    z 0.000000 0.000000 1.560160 
# 
# From -- ./inp_files/2604.got.cif
#   From: 2010.05.17/outbox.cif.g08.bks.cpg/sg92_2_cif.got.tgz:2604.got - 2010.06.03 19:35:17.
