data_PCOD9549950
_publ_section_title
;
Structure prediction by ZEFSAII (Michael W. Deem and Ramdas Pophale) SiO2 
 PCOD9549950
Probable space group: P 42 21 2
;
_chemical_formula_sum "Si O2"
_cell_formula_units_Z 40
_cell_length_a 14.079185
_cell_length_b 14.079185
_cell_length_c 9.913181
_cell_angle_alpha 90.000000
_cell_angle_beta 90.000000
_cell_angle_gamma 90.000000
_cell_volume 1965.024941
_symmetry_space_group_name_H-M "P 42 21 2"
_symmetry_group_IT_number 94
_symmetry_cell_setting 'tetragonal'
loop_
_space_group_symop_operation_xyz
x,y,z
1/2-y,1/2+x,1/2+z
-x,-y,z
1/2+y,1/2-x,1/2+z
1/2+x,1/2-y,1/2-z
1/2-x,1/2+y,1/2-z
y,x,-z
-y,-x,-z
loop_
_atom_site_type_symbol
_atom_site_label
_atom_site_fract_x
_atom_site_fract_y
_atom_site_fract_z
Si Si1 0.625853 0.105843 0.543599
Si Si2 0.619340 0.240834 0.798067
Si Si3 0.573367 0.675839 0.890218
Si Si4 0.673996 0.732764 0.644185
Si Si5 0.599388 0.081232 0.026813
O O1 0.623484 0.189431 0.653136
O O2 0.722892 0.103235 0.459400
O O3 0.524503 0.110052 0.467216
O O4 0.609221 0.998882 0.600427
O O5 0.533072 0.311348 0.832659
O O6 0.724450 0.280733 0.825422
O O7 0.609116 0.155776 0.906299
O O8 0.643554 0.663803 0.763422
O O9 0.595226 0.595226 0.000000
O O10 0.682128 0.682128 0.500000
O O11 0.596856 0.815170 0.630407
#
# Coordination Sequence:
#
# PCOD9549950 Si02
#       5
#     8   8   8   8   8
#     4  10  19  31  53  86 110 148 183 240 298 341
#     4  10  20  34  53  81 116 150 195 229 295 349
#     4  11  21  35  56  85 119 155 197 246 288 349
#     4  10  20  37  53  78 117 155 189 233 294 358
#     4   9  20  31  52  78 117 145 179 232 292 354
#
# _framework density 20.355975999999998
#
# number of rings (size 3 to 8) (size 9 to 14) (size 15 to 20)
#    0.000    2.000    4.000    0.000    2.800    1.600 
#    0.000    0.000    0.000   15.000    0.000    0.000 
#    0.000    0.000    0.000    0.000    0.000    0.000 
#
# Total GULP energy -222750.286103 kJ/mol
# GULP energy per Si atom -5568.757153 kJ/mol
# Density = 2.030965 g / cm^3
# Si number density = 20.355976 Si / 1000 Ang^3
#
#
#
# Elastic Constant Matrix: (Units=GPa)
#
#
# Indices 1 2 3 4 5 6 
#
# 1 33.1927 -9.8728 -3.2843 0.0000 0.0000 0.0000
# 2 -9.8728 33.1927 -3.2843 0.0000 0.0000 0.0000
# 3 -3.2843 -3.2843 67.9195 0.0000 0.0000 0.0000
# 4 0.0000 0.0000 0.0000 15.7010 0.0000 0.0000
# 5 0.0000 0.0000 0.0000 0.0000 15.7010 0.0000
# 6 0.0000 0.0000 0.0000 0.0000 0.0000 21.9755
#
#
#
# Elastic Compliance Matrix: (Units=1/GPa)
#
#
# Indices 1 2 3 4 5 6 
#
# 1 0.033347 0.010127 0.002102 0.000000 0.000000 0.000000
# 2 0.010127 0.033347 0.002102 0.000000 0.000000 0.000000
# 3 0.002102 0.002102 0.014927 0.000000 0.000000 0.000000
# 4 0.000000 0.000000 0.000000 0.063690 0.000000 0.000000
# 5 0.000000 0.000000 0.000000 0.000000 0.063690 0.000000
# 6 0.000000 0.000000 0.000000 0.000000 0.000000 0.045505
#
#
# Mechanical properties :
#
#
# Convention : Reuss Voigt Hill
#
# Bulk Modulus (GPa) = 9.06756 11.26914 10.16835
# Shear Modulus (GPa) = 19.03997 20.72525 19.88261
#
# Velocity S-wave (km/s) = 3.06167 3.19429 3.12868
# Velocity P-wave (km/s) = 4.11856 4.37638 4.24943
#
# Compressibility (1/GPa) = 0.11028330
#
# Stress axis : x y z
#
# Youngs Moduli (GPa) = 29.98755 29.98755 66.99442
#
# Poissons Ratio (x) = -0.30368 -0.14084
# Poissons Ratio (y) = -0.30368 -0.14084
# Poissons Ratio (z) = -0.06304 -0.06304
#
# Static dielectric constant tensor:
#      x y z
#    x 1.772940 0.000000 0.000000 
#    y 0.000000 1.772940 0.000000 
#    z 0.000000 0.000000 1.745600 
# 
# From -- ./inp_files/1395.got.cif
#   From: 2010.05.17/outbox.cif.g08.bks.cpg/sg94_1_cif.got.tgz:1395.got - 2010.06.03 19:43:16.
