data_PCOD9549429
_publ_section_title
;
Structure prediction by ZEFSAII (Michael W. Deem and Ramdas Pophale) SiO2 
 PCOD9549429
Probable space group: P 41 21 2
;
_chemical_formula_sum "Si O2"
_cell_formula_units_Z 36
_cell_length_a 10.014066
_cell_length_b 10.014066
_cell_length_c 12.389624
_cell_angle_alpha 90.000000
_cell_angle_beta 90.000000
_cell_angle_gamma 90.000000
_cell_volume 1242.450300
_symmetry_space_group_name_H-M "P 41 21 2"
_symmetry_group_IT_number 92
_symmetry_cell_setting 'tetragonal'
loop_
_space_group_symop_operation_xyz
x,y,z
1/2-y,1/2+x,1/4+z
-x,-y,1/2+z
1/2+y,1/2-x,3/4+z
1/2+x,1/2-y,3/4-z
1/2-x,1/2+y,1/4-z
y,x,-z
-y,-x,1/2-z
loop_
_atom_site_type_symbol
_atom_site_label
_atom_site_fract_x
_atom_site_fract_y
_atom_site_fract_z
Si Si1 0.665733 0.208061 0.942645
Si Si2 0.376464 0.186168 0.439271
Si Si3 0.929791 0.348435 0.967117
Si Si4 0.898222 0.898222 0.000000
Si Si5 0.473157 0.626909 0.139079
O O1 0.559175 0.136429 0.861820
O O2 0.611147 0.360953 0.950285
O O3 0.482844 0.866617 0.982014
O O4 0.680912 0.147164 0.061077
O O5 0.325941 0.325941 0.500000
O O6 0.255761 0.088960 0.473259
O O7 0.767480 0.535547 0.826233
O O8 0.819244 0.250177 0.909563
O O9 0.000553 0.932258 0.905348
O O10 0.386135 0.613866 0.250000
#
# Coordination Sequence:
#
# PCOD9549429 Si02
#       5
#     8   8   8   4   8
#     4  11  26  54  96 126 193 252 314 410 499 583
#     4  10  26  52  91 141 187 239 326 403 480 579
#     4  11  26  55  93 133 184 254 328 393 491 600
#     4   8  20  50  84 128 184 240 320 386 480 570
#     4   8  20  48  83 121 183 238 309 378 479 589
#
# _framework density 28.975004999999999
#
# number of rings (size 3 to 8) (size 9 to 14) (size 15 to 20)
#    1.333    0.889    0.000    0.000    3.111    4.444 
#    4.000    4.444    9.778    0.000    0.000    0.000 
#    0.000    0.000    0.000    0.000    0.000    0.000 
#
# Total GULP energy -200891.407861 kJ/mol
# GULP energy per Si atom -5580.316885 kJ/mol
# Density = 2.890906 g / cm^3
# Si number density = 28.975005 Si / 1000 Ang^3
#
#
#
# Elastic Constant Matrix: (Units=GPa)
#
#
# Indices 1 2 3 4 5 6 
#
# 1 170.0904 110.2735 85.9987 0.0000 0.0000 0.0000
# 2 110.2735 170.0914 85.9987 0.0000 0.0000 0.0000
# 3 85.9987 85.9987 163.1462 0.0000 0.0000 0.0000
# 4 0.0000 0.0000 0.0000 42.1046 0.0000 0.0000
# 5 0.0000 0.0000 0.0000 0.0000 42.1046 0.0000
# 6 0.0000 0.0000 0.0000 0.0000 0.0000 53.2675
#
#
#
# Elastic Compliance Matrix: (Units=1/GPa)
#
#
# Indices 1 2 3 4 5 6 
#
# 1 0.010995 -0.005723 -0.002779 0.000000 0.000000 0.000000
# 2 -0.005723 0.010994 -0.002779 0.000000 0.000000 0.000000
# 3 -0.002779 -0.002779 0.009059 0.000000 0.000000 0.000000
# 4 0.000000 0.000000 0.000000 0.023750 0.000000 0.000000
# 5 0.000000 0.000000 0.000000 0.000000 0.023750 0.000000
# 6 0.000000 0.000000 0.000000 0.000000 0.000000 0.018773
#
#
# Mechanical properties :
#
#
# Convention : Reuss Voigt Hill
#
# Bulk Modulus (GPa) = 117.82762 118.65222 118.23992
# Shear Modulus (GPa) = 40.74584 42.23249 41.48917
#
# Velocity S-wave (km/s) = 3.75406 3.82193 3.78814
# Velocity P-wave (km/s) = 7.71648 7.77913 7.74787
#
# Compressibility (1/GPa) = 0.00848697
#
# Stress axis : x y z
#
# Youngs Moduli (GPa) = 90.95409 90.95486 110.38794
#
# Poissons Ratio (x) = 0.52054 0.30674
# Poissons Ratio (y) = 0.52053 0.30674
# Poissons Ratio (z) = 0.25274 0.25274
#
# Static dielectric constant tensor:
#      x y z
#    x 2.452770 0.000000 0.000000 
#    y 0.000000 2.452780 0.000000 
#    z 0.000000 0.000000 2.338010 
# 
# From -- ./inp_files/1974.got.cif
#   From: 2010.05.17/outbox.cif.g08.bks.cpg/sg92_1_cif.got.tgz:1974.got - 2010.06.03 19:35:17.
