data_PCOD9549544
_publ_section_title
;
Structure prediction by ZEFSAII (Michael W. Deem and Ramdas Pophale) SiO2 
 PCOD9549544
Probable space group: P 41 21 2
;
_chemical_formula_sum "Si O2"
_cell_formula_units_Z 24
_cell_length_a 8.573546
_cell_length_b 8.573546
_cell_length_c 11.139974
_cell_angle_alpha 90.000000
_cell_angle_beta 90.000000
_cell_angle_gamma 90.000000
_cell_volume 818.851487
_symmetry_space_group_name_H-M "P 41 21 2"
_symmetry_group_IT_number 92
_symmetry_cell_setting 'tetragonal'
loop_
_space_group_symop_operation_xyz
x,y,z
1/2-y,1/2+x,1/4+z
-x,-y,1/2+z
1/2+y,1/2-x,3/4+z
1/2+x,1/2-y,3/4-z
1/2-x,1/2+y,1/4-z
y,x,-z
-y,-x,1/2-z
loop_
_atom_site_type_symbol
_atom_site_label
_atom_site_fract_x
_atom_site_fract_y
_atom_site_fract_z
Si Si1 0.319905 0.434296 0.699212
Si Si2 0.610270 0.203735 0.857757
Si Si3 0.959836 0.721277 0.700960
O O1 0.450871 0.549130 0.750000
O O2 0.215297 0.412473 0.816422
O O3 0.215229 0.484161 0.587163
O O4 0.406061 0.283865 0.639587
O O5 0.712446 0.287555 0.750000
O O6 0.622931 0.349025 0.949333
O O7 0.624619 0.058423 0.588549
#
# Coordination Sequence:
#
# PCOD9549544 Si02
#       3
#     8   8   8
#     4  11  28  57  93 142 190 248 335 404 495 589
#     4  12  28  54  94 135 196 257 321 408 500 585
#     4  11  27  56  91 141 193 252 324 407 493 600
#
# _framework density 29.309342999999998
#
# number of rings (size 3 to 8) (size 9 to 14) (size 15 to 20)
#    0.000    0.667    0.000    5.000   14.000    0.000 
#   24.000    0.000    0.000    0.000    0.000    0.000 
#    0.000    0.000    0.000    0.000    0.000    0.000 
#
# Total GULP energy -134024.595440 kJ/mol
# GULP energy per Si atom -5584.358143 kJ/mol
# Density = 2.924263 g / cm^3
# Si number density = 29.309343 Si / 1000 Ang^3
#
#
#
# Elastic Constant Matrix: (Units=GPa)
#
#
# Indices 1 2 3 4 5 6 
#
# 1 207.3507 142.8092 89.0686 0.0000 0.0000 0.0000
# 2 142.8092 207.3513 89.0661 0.0000 0.0000 0.0000
# 3 89.0686 89.0661 136.2226 0.0000 0.0000 0.0000
# 4 0.0000 0.0000 0.0000 45.7804 0.0000 0.0000
# 5 0.0000 0.0000 0.0000 0.0000 45.7803 0.0000
# 6 0.0000 0.0000 0.0000 0.0000 0.0000 81.9603
#
#
#
# Elastic Compliance Matrix: (Units=1/GPa)
#
#
# Indices 1 2 3 4 5 6 
#
# 1 0.009887 -0.005607 -0.002798 0.000000 0.000000 0.000000
# 2 -0.005607 0.009886 -0.002798 0.000000 0.000000 0.000000
# 3 -0.002798 -0.002798 0.011000 0.000000 0.000000 0.000000
# 4 0.000000 0.000000 0.000000 0.021843 0.000000 0.000000
# 5 0.000000 0.000000 0.000000 0.000000 0.021843 0.000000
# 6 0.000000 0.000000 0.000000 0.000000 0.000000 0.012201
#
#
# Mechanical properties :
#
#
# Convention : Reuss Voigt Hill
#
# Bulk Modulus (GPa) = 119.52476 132.53470 126.02973
# Shear Modulus (GPa) = 44.70047 50.03623 47.36835
#
# Velocity S-wave (km/s) = 3.90952 4.13628 4.02450
# Velocity P-wave (km/s) = 7.82612 8.25404 8.04293
#
# Compressibility (1/GPa) = 0.00836647
#
# Stress axis : x y z
#
# Youngs Moduli (GPa) = 101.14656 101.14918 90.91202
#
# Poissons Ratio (x) = 0.56718 0.25438
# Poissons Ratio (y) = 0.56716 0.25434
# Poissons Ratio (z) = 0.28302 0.28298
#
# Static dielectric constant tensor:
#      x y z
#    x 2.441450 0.000000 0.000000 
#    y 0.000000 2.441450 0.000000 
#    z 0.000000 0.000000 2.513250 
# 
# From -- ./inp_files/992.got.cif
#   From: 2010.05.17/outbox.cif.g08.bks.cpg/sg92_1_cif.got.tgz:992.got - 2010.06.03 19:35:17.
