data_PCOD9549506
_publ_section_title
;
Structure prediction by ZEFSAII (Michael W. Deem and Ramdas Pophale) SiO2 
 PCOD9549506
Probable space group: P 41 21 2
;
_chemical_formula_sum "Si O2"
_cell_formula_units_Z 44
_cell_length_a 8.046437
_cell_length_b 8.046437
_cell_length_c 28.018633
_cell_angle_alpha 90.000000
_cell_angle_beta 90.000000
_cell_angle_gamma 90.000000
_cell_volume 1814.070551
_symmetry_space_group_name_H-M "P 41 21 2"
_symmetry_group_IT_number 92
_symmetry_cell_setting 'tetragonal'
loop_
_space_group_symop_operation_xyz
x,y,z
1/2-y,1/2+x,1/4+z
-x,-y,1/2+z
1/2+y,1/2-x,3/4+z
1/2+x,1/2-y,3/4-z
1/2-x,1/2+y,1/4-z
y,x,-z
-y,-x,1/2-z
loop_
_atom_site_type_symbol
_atom_site_label
_atom_site_fract_x
_atom_site_fract_y
_atom_site_fract_z
Si Si1 0.538739 0.452861 0.872692
Si Si2 0.321382 0.840172 0.971809
Si Si3 0.154155 0.444631 0.619301
Si Si4 0.681617 0.318384 0.750000
Si Si5 0.492206 0.261467 0.066364
Si Si6 0.639916 0.136572 0.580225
O O1 0.566868 0.652206 0.866029
O O2 0.451492 0.442566 0.925023
O O3 0.447078 0.320337 0.838409
O O4 0.714350 0.365595 0.882508
O O5 0.465478 0.859072 0.931692
O O6 0.235464 0.664397 0.961038
O O7 0.384951 0.820708 0.025427
O O8 0.206874 0.005617 0.973147
O O9 0.059957 0.270027 0.628053
O O10 0.026787 0.536872 0.655133
O O11 0.840237 0.309129 0.714228
#
# Coordination Sequence:
#
# PCOD9549506 Si02
#       6
#     8   8   8   4   8   8
#     4  11  25  44  75 107 152 202 260 317 403 470
#     4  11  27  45  78 114 151 200 269 314 391 487
#     4  11  25  47  73 111 155 197 249 333 392 465
#     4  12  24  48  78 110 154 200 266 320 386 476
#     4  11  24  46  74 109 153 201 251 324 394 467
#     4  12  25  48  78 111 150 209 262 330 396 471
#
# _framework density 24.254847999999999
#
# number of rings (size 3 to 8) (size 9 to 14) (size 15 to 20)
#    0.000    0.727    1.818    5.455    5.091    3.636 
#    0.000    0.000    4.000    0.000    0.000    0.000 
#    0.000    0.000    0.000    0.000    0.000    0.000 
#
# Total GULP energy -245219.496095 kJ/mol
# GULP energy per Si atom -5573.170366 kJ/mol
# Density = 2.419964 g / cm^3
# Si number density = 24.254848 Si / 1000 Ang^3
#
#
#
# Elastic Constant Matrix: (Units=GPa)
#
#
# Indices 1 2 3 4 5 6 
#
# 1 98.6239 57.0915 44.4737 0.0000 0.0000 0.0000
# 2 57.0915 98.6240 44.4739 0.0000 0.0000 0.0000
# 3 44.4737 44.4739 139.1380 0.0000 0.0000 0.0000
# 4 0.0000 0.0000 0.0000 67.1659 0.0000 0.0000
# 5 0.0000 0.0000 0.0000 0.0000 67.1660 0.0000
# 6 0.0000 0.0000 0.0000 0.0000 0.0000 39.8894
#
#
#
# Elastic Compliance Matrix: (Units=1/GPa)
#
#
# Indices 1 2 3 4 5 6 
#
# 1 0.015967 -0.008111 -0.002511 0.000000 0.000000 0.000000
# 2 -0.008111 0.015967 -0.002511 0.000000 0.000000 0.000000
# 3 -0.002511 -0.002511 0.008792 0.000000 0.000000 0.000000
# 4 0.000000 0.000000 0.000000 0.014889 0.000000 0.000000
# 5 0.000000 0.000000 0.000000 0.000000 0.014888 0.000000
# 6 0.000000 0.000000 0.000000 0.000000 0.000000 0.025069
#
#
# Mechanical properties :
#
#
# Convention : Reuss Voigt Hill
#
# Bulk Modulus (GPa) = 69.15405 69.82932 69.49168
# Shear Modulus (GPa) = 39.47610 47.53403 43.50506
#
# Velocity S-wave (km/s) = 4.03867 4.43174 4.23976
# Velocity P-wave (km/s) = 7.09374 7.41885 7.25812
#
# Compressibility (1/GPa) = 0.01446047
#
# Stress axis : x y z
#
# Youngs Moduli (GPa) = 62.62922 62.62921 113.73368
#
# Poissons Ratio (x) = 0.50796 0.28561
# Poissons Ratio (y) = 0.50796 0.28561
# Poissons Ratio (z) = 0.15727 0.15728
#
# Static dielectric constant tensor:
#      x y z
#    x 2.380600 0.000000 0.000000 
#    y 0.000000 2.380600 0.000000 
#    z 0.000000 0.000000 1.507570 
# 
# From -- ./inp_files/4428.got.cif
#   From: 2010.05.17/outbox.cif.g08.bks.cpg/sg92_3_cif.got.tgz:4428.got - 2010.06.03 19:35:17.
