data_PCOD9549151
_publ_section_title
;
Structure prediction by ZEFSAII (Michael W. Deem and Ramdas Pophale) SiO2 
 PCOD9549151
Probable space group: P 41 21 2
;
_chemical_formula_sum "Si O2"
_cell_formula_units_Z 60
_cell_length_a 11.416369
_cell_length_b 11.416369
_cell_length_c 21.890794
_cell_angle_alpha 90.000000
_cell_angle_beta 90.000000
_cell_angle_gamma 90.000000
_cell_volume 2853.103387
_symmetry_space_group_name_H-M "P 41 21 2"
_symmetry_group_IT_number 92
_symmetry_cell_setting 'tetragonal'
loop_
_space_group_symop_operation_xyz
x,y,z
1/2-y,1/2+x,1/4+z
-x,-y,1/2+z
1/2+y,1/2-x,3/4+z
1/2+x,1/2-y,3/4-z
1/2-x,1/2+y,1/4-z
y,x,-z
-y,-x,1/2-z
loop_
_atom_site_type_symbol
_atom_site_label
_atom_site_fract_x
_atom_site_fract_y
_atom_site_fract_z
Si Si1 0.844703 0.844703 0.500000
Si Si2 0.559317 0.032689 0.910620
Si Si3 0.872811 0.946617 0.743666
Si Si4 0.925420 0.349308 0.727342
Si Si5 0.063219 0.186502 0.349173
Si Si6 0.182158 0.363592 0.529002
Si Si7 0.834003 0.585524 0.897333
Si Si8 0.415798 0.529543 0.369299
O O1 0.866266 0.705422 0.502050
O O2 0.900556 0.907358 0.557569
O O3 0.604309 0.072886 0.843042
O O4 0.655095 0.939335 0.935775
O O5 0.435127 0.973908 0.892467
O O6 0.521019 0.106274 0.971475
O O7 0.871607 0.923732 0.672331
O O8 0.862721 0.836819 0.787731
O O9 0.787689 0.042367 0.771852
O O10 0.006455 0.993546 0.750000
O O11 0.942455 0.244196 0.325803
O O12 0.137031 0.276686 0.388898
O O13 0.022793 0.063367 0.378253
O O14 0.261143 0.261143 0.500000
O O15 0.151826 0.441278 0.469084
O O16 0.705939 0.541514 0.878581
#
# Coordination Sequence:
#
# PCOD9549151 Si02
#       8
#     4   8   8   8   8   8   8   8
#     4  12  26  44  68  90 138 182 224 280 334 410
#     4  11  25  41  67  97 134 169 225 289 337 401
#     4  10  21  41  66  90 128 175 228 270 332 411
#     4  12  24  44  66  99 131 180 231 283 342 411
#     4  10  22  37  68  95 125 173 214 268 332 406
#     4  11  20  40  67  94 126 170 212 270 338 407
#     4  11  21  39  67  97 127 169 217 269 343 401
#     4  11  22  45  64  95 131 180 225 272 340 413
#
# _framework density 21.029731000000002
#
# number of rings (size 3 to 8) (size 9 to 14) (size 15 to 20)
#    0.000    1.067    6.000    1.200    1.867    0.000 
#    1.200    0.000    0.000    0.000    0.000    0.000 
#    0.000    0.000    0.000    0.000    0.000    0.000 
#
# Total GULP energy -334105.704464 kJ/mol
# GULP energy per Si atom -5568.428408 kJ/mol
# Density = 2.098187 g / cm^3
# Si number density = 21.029731 Si / 1000 Ang^3
#
#
#
# Elastic Constant Matrix: (Units=GPa)
#
#
# Indices 1 2 3 4 5 6 
#
# 1 33.8705 9.1323 24.9042 0.0000 0.0000 0.0000
# 2 9.1323 33.8710 24.9040 0.0000 0.0000 0.0000
# 3 24.9042 24.9040 114.3367 0.0000 0.0000 0.0000
# 4 0.0000 0.0000 0.0000 32.0846 0.0000 0.0000
# 5 0.0000 0.0000 0.0000 0.0000 32.0846 0.0000
# 6 0.0000 0.0000 0.0000 0.0000 0.0000 27.3901
#
#
#
# Elastic Compliance Matrix: (Units=1/GPa)
#
#
# Indices 1 2 3 4 5 6 
#
# 1 0.035762 -0.004661 -0.006774 0.000000 0.000000 0.000000
# 2 -0.004661 0.035761 -0.006774 0.000000 0.000000 0.000000
# 3 -0.006774 -0.006774 0.011697 0.000000 0.000000 0.000000
# 4 0.000000 0.000000 0.000000 0.031168 0.000000 0.000000
# 5 0.000000 0.000000 0.000000 0.000000 0.031168 0.000000
# 6 0.000000 0.000000 0.000000 0.000000 0.000000 0.036510
#
#
# Mechanical properties :
#
#
# Convention : Reuss Voigt Hill
#
# Bulk Modulus (GPa) = 21.36695 33.32880 27.34787
# Shear Modulus (GPa) = 21.35984 26.52105 23.94044
#
# Velocity S-wave (km/s) = 3.19046 3.55508 3.37769
# Velocity P-wave (km/s) = 4.87385 5.72139 5.31454
#
# Compressibility (1/GPa) = 0.04680126
#
# Stress axis : x y z
#
# Youngs Moduli (GPa) = 27.96276 27.96326 85.49155
#
# Poissons Ratio (x) = 0.13035 0.57913
# Poissons Ratio (y) = 0.13034 0.57912
# Poissons Ratio (z) = 0.18942 0.18942
#
# Static dielectric constant tensor:
#      x y z
#    x 1.793440 0.000000 0.000000 
#    y 0.000000 1.793440 0.000000 
#    z 0.000000 0.000000 1.837610 
# 
# From -- ./inp_files/3625.got.cif
#   From: 2010.05.17/outbox.cif.g08.bks.cpg/sg92_2_cif.got.tgz:3625.got - 2010.06.03 19:35:17.
