data_PCOD9549899
_publ_section_title
;
Structure prediction by ZEFSAII (Michael W. Deem and Ramdas Pophale) SiO2 
 PCOD9549899
Probable space group: P 42 2 2
;
_chemical_formula_sum "Si O2"
_cell_formula_units_Z 20
_cell_length_a 5.143103
_cell_length_b 5.143103
_cell_length_c 32.981567
_cell_angle_alpha 90.000000
_cell_angle_beta 90.000000
_cell_angle_gamma 90.000000
_cell_volume 872.412199
_symmetry_space_group_name_H-M "P 42 2 2"
_symmetry_group_IT_number 93
_symmetry_cell_setting 'tetragonal'
loop_
_space_group_symop_operation_xyz
x,y,z
-y,x,1/2+z
-x,-y,z
y,-x,1/2+z
x,-y,-z
-x,y,-z
y,x,1/2-z
-y,-x,1/2-z
loop_
_atom_site_type_symbol
_atom_site_label
_atom_site_fract_x
_atom_site_fract_y
_atom_site_fract_z
Si Si1 0.679685 0.256837 0.570758
Si Si2 0.500000 0.000000 0.692551
Si Si3 0.500000 0.000000 0.000000
Si Si4 0.000000 0.000000 0.136179
Si Si5 0.500000 0.500000 0.250000
O O1 0.500000 0.500000 0.581332
O O2 0.821349 0.323165 0.528738
O O3 0.897035 0.216491 0.605008
O O4 0.500000 0.000000 0.568326
O O5 0.483269 0.750244 0.721233
O O6 0.248171 0.046940 0.664496
#
# Coordination Sequence:
#
# PCOD9549899 Si02
#       5
#     8   4   2   4   2
#     4  12  29  51  76 117 159 219 272 344 402 475
#     4  12  28  50  85 113 166 192 262 319 395 496
#     4  12  30  46  82 108 172 212 296 332 418 456
#     4  12  28  52  82 118 158 210 262 332 400 482
#     4  12  28  52  80 124 150 208 248 314 408 482
#
# _framework density 22.924944
#
# number of rings (size 3 to 8) (size 9 to 14) (size 15 to 20)
#    0.000    0.000    2.000    5.400    2.800   15.200 
#    0.000    0.000    0.000    0.000    0.000    0.000 
#    0.000    0.000    0.000    0.000    0.000    0.000 
#
# Total GULP energy -112167.631796 kJ/mol
# GULP energy per Si atom -5608.381590 kJ/mol
# Density = 2.287277 g / cm^3
# Si number density = 22.924944 Si / 1000 Ang^3
#
#
#
# Elastic Constant Matrix: (Units=GPa)
#
#
# Indices 1 2 3 4 5 6 
#
# 1 220.0325 97.0747 109.7007 0.0000 0.0000 0.0000
# 2 97.0747 220.0325 109.7007 0.0000 0.0000 0.0000
# 3 109.7007 109.7007 208.5481 0.0000 0.0000 0.0000
# 4 0.0000 0.0000 0.0000 85.3335 0.0000 0.0000
# 5 0.0000 0.0000 0.0000 0.0000 85.3335 0.0000
# 6 0.0000 0.0000 0.0000 0.0000 0.0000 25.3386
#
#
#
# Elastic Compliance Matrix: (Units=1/GPa)
#
#
# Indices 1 2 3 4 5 6 
#
# 1 0.006545 -0.001587 -0.002608 0.000000 0.000000 0.000000
# 2 -0.001587 0.006545 -0.002608 0.000000 0.000000 0.000000
# 3 -0.002608 -0.002608 0.007539 0.000000 0.000000 0.000000
# 4 0.000000 0.000000 0.000000 0.011719 0.000000 0.000000
# 5 0.000000 0.000000 0.000000 0.000000 0.011719 0.000000
# 6 0.000000 0.000000 0.000000 0.000000 0.000000 0.039466
#
#
# Mechanical properties :
#
#
# Convention : Reuss Voigt Hill
#
# Bulk Modulus (GPa) = 142.39514 142.39612 142.39563
# Shear Modulus (GPa) = 50.26123 61.34357 55.80240
#
# Velocity S-wave (km/s) = 4.68741 5.17847 4.93905
# Velocity P-wave (km/s) = 9.56788 9.89971 9.73521
#
# Compressibility (1/GPa) = 0.00702271
#
# Stress axis : x y z
#
# Youngs Moduli (GPa) = 152.77910 152.77910 132.64794
#
# Poissons Ratio (x) = 0.24253 0.34594
# Poissons Ratio (y) = 0.24253 0.34594
# Poissons Ratio (z) = 0.39844 0.39844
#
# Static dielectric constant tensor:
#      x y z
#    x 1.841790 0.000000 0.000000 
#    y 0.000000 1.841790 0.000000 
#    z 0.000000 0.000000 1.833480 
# 
# From -- ./inp_files/7566.got.cif
#   From: 2010.05.17/outbox.cif.g08.bks.cpg/sg93_4_cif.got.tgz:7566.got - 2010.06.03 19:38:44.
