data_PCOD9549316
_publ_section_title
;
Structure prediction by ZEFSAII (Michael W. Deem and Ramdas Pophale) SiO2 
 PCOD9549316
Probable space group: P 41 21 2
;
_chemical_formula_sum "Si O2"
_cell_formula_units_Z 40
_cell_length_a 8.638756
_cell_length_b 8.638756
_cell_length_c 25.093160
_cell_angle_alpha 90.000000
_cell_angle_beta 90.000000
_cell_angle_gamma 90.000000
_cell_volume 1872.654985
_symmetry_space_group_name_H-M "P 41 21 2"
_symmetry_group_IT_number 92
_symmetry_cell_setting 'tetragonal'
loop_
_space_group_symop_operation_xyz
x,y,z
1/2-y,1/2+x,1/4+z
-x,-y,1/2+z
1/2+y,1/2-x,3/4+z
1/2+x,1/2-y,3/4-z
1/2-x,1/2+y,1/4-z
y,x,-z
-y,-x,1/2-z
loop_
_atom_site_type_symbol
_atom_site_label
_atom_site_fract_x
_atom_site_fract_y
_atom_site_fract_z
Si Si1 0.056473 0.697377 0.144394
Si Si2 0.159887 0.085512 0.250540
Si Si3 0.411047 0.553854 0.804668
Si Si4 0.588542 0.840208 0.412363
Si Si5 0.774660 0.087907 0.477655
O O1 0.951755 0.788695 0.101109
O O2 0.223159 0.782388 0.141043
O O3 0.070792 0.516691 0.130623
O O4 0.993590 0.739271 0.202475
O O5 0.169468 0.265487 0.261427
O O6 0.240301 0.035526 0.195790
O O7 0.992057 0.007944 0.250000
O O8 0.359940 0.640061 0.750000
O O9 0.438202 0.377659 0.781348
O O10 0.584084 0.616329 0.814919
O O11 0.673877 0.951383 0.454172
#
# Coordination Sequence:
#
# PCOD9549316 Si02
#       5
#     8   8   8   8   8
#     4  11  22  36  62  91 116 165 199 253 308 365
#     4  10  23  38  59  88 124 152 208 254 303 371
#     4   8  19  37  63  77 117 153 203 242 297 362
#     4  11  22  37  60  90 117 160 206 252 300 377
#     4   9  20  39  57  82 121 152 195 258 302 352
#
# _framework density 21.360045
#
# number of rings (size 3 to 8) (size 9 to 14) (size 15 to 20)
#    1.200    0.800    2.000    1.200   11.200    1.600 
#    0.000    3.000    0.000    0.000    0.000    0.000 
#    0.000    0.000    0.000    0.000    0.000    0.000 
#
# Total GULP energy -222844.128806 kJ/mol
# GULP energy per Si atom -5571.103220 kJ/mol
# Density = 2.131143 g / cm^3
# Si number density = 21.360045 Si / 1000 Ang^3
#
#
#
# Elastic Constant Matrix: (Units=GPa)
#
#
# Indices 1 2 3 4 5 6 
#
# 1 23.9422 -0.2004 1.7976 0.0000 0.0000 0.0000
# 2 -0.2004 23.9427 1.7981 0.0000 0.0000 0.0000
# 3 1.7976 1.7981 57.8239 0.0000 0.0000 0.0000
# 4 0.0000 0.0000 0.0000 26.8102 0.0000 0.0000
# 5 0.0000 0.0000 0.0000 0.0000 26.8102 0.0000
# 6 0.0000 0.0000 0.0000 0.0000 0.0000 17.5477
#
#
#
# Elastic Compliance Matrix: (Units=1/GPa)
#
#
# Indices 1 2 3 4 5 6 
#
# 1 0.041870 0.000449 -0.001316 0.000000 0.000000 0.000000
# 2 0.000449 0.041869 -0.001316 0.000000 0.000000 0.000000
# 3 -0.001316 -0.001316 0.017376 0.000000 0.000000 0.000000
# 4 0.000000 0.000000 0.000000 0.037299 0.000000 0.000000
# 5 0.000000 0.000000 0.000000 0.000000 0.037299 0.000000
# 6 0.000000 0.000000 0.000000 0.000000 0.000000 0.056987
#
#
# Mechanical properties :
#
#
# Convention : Reuss Voigt Hill
#
# Bulk Modulus (GPa) = 10.33592 12.49993 11.41793
# Shear Modulus (GPa) = 18.56563 21.05452 19.81008
#
# Velocity S-wave (km/s) = 2.95138 3.14299 3.04869
# Velocity P-wave (km/s) = 4.05753 4.36301 4.21304
#
# Compressibility (1/GPa) = 0.09674997
#
# Stress axis : x y z
#
# Youngs Moduli (GPa) = 23.88354 23.88408 57.55165
#
# Poissons Ratio (x) = -0.01073 0.07571
# Poissons Ratio (y) = -0.01073 0.07573
# Poissons Ratio (z) = 0.03142 0.03143
#
# Static dielectric constant tensor:
#      x y z
#    x 1.781260 0.000000 0.000000 
#    y 0.000000 1.781260 0.000000 
#    z 0.000000 0.000000 1.804210 
# 
# From -- ./inp_files/4127.got.cif
#   From: 2010.05.17/outbox.cif.g08.bks.cpg/sg92_3_cif.got.tgz:4127.got - 2010.06.03 19:35:17.
