data_PCOD9549235
_publ_section_title
;
Structure prediction by ZEFSAII (Michael W. Deem and Ramdas Pophale) SiO2 
 PCOD9549235
Probable space group: P 41 21 2
;
_chemical_formula_sum "Si O2"
_cell_formula_units_Z 44
_cell_length_a 8.248639
_cell_length_b 8.248639
_cell_length_c 27.261464
_cell_angle_alpha 90.000000
_cell_angle_beta 90.000000
_cell_angle_gamma 90.000000
_cell_volume 1854.871247
_symmetry_space_group_name_H-M "P 41 21 2"
_symmetry_group_IT_number 92
_symmetry_cell_setting 'tetragonal'
loop_
_space_group_symop_operation_xyz
x,y,z
1/2-y,1/2+x,1/4+z
-x,-y,1/2+z
1/2+y,1/2-x,3/4+z
1/2+x,1/2-y,3/4-z
1/2-x,1/2+y,1/4-z
y,x,-z
-y,-x,1/2-z
loop_
_atom_site_type_symbol
_atom_site_label
_atom_site_fract_x
_atom_site_fract_y
_atom_site_fract_z
Si Si1 0.660749 0.339252 0.750000
Si Si2 0.593097 0.917245 0.688467
Si Si3 0.215424 0.385269 0.143548
Si Si4 0.189811 0.253834 0.611441
Si Si5 0.996074 0.386107 0.701705
Si Si6 0.424634 0.453778 0.335005
O O1 0.819662 0.325519 0.717414
O O2 0.651460 0.504898 0.782170
O O3 0.708413 0.780502 0.663805
O O4 0.408400 0.878337 0.673009
O O5 0.651733 0.081597 0.661583
O O6 0.602506 0.913116 0.746758
O O7 0.064385 0.448164 0.176089
O O8 0.374595 0.500194 0.149170
O O9 0.167714 0.079050 0.586606
O O10 0.369202 0.305013 0.626716
O O11 0.088651 0.273000 0.662796
#
# Coordination Sequence:
#
# PCOD9549235 Si02
#       6
#     4   8   8   8   8   8
#     4  10  24  42  68  88 126 180 212 262 340 390
#     4  10  22  40  64  91 132 160 218 265 313 395
#     4   9  22  41  61  96 122 172 211 263 322 386
#     4  10  24  40  62  98 127 166 219 265 321 389
#     4  10  23  39  68  92 124 171 219 262 325 387
#     4  10  23  40  64  90 133 165 211 268 322 391
#
# _framework density 23.721321
#
# number of rings (size 3 to 8) (size 9 to 14) (size 15 to 20)
#    0.000    2.182    0.000    0.000   20.364    1.455 
#    0.000    0.000    4.000    0.000    0.000    0.000 
#    0.000    0.000    0.000    0.000    0.000    0.000 
#
# Total GULP energy -245540.368282 kJ/mol
# GULP energy per Si atom -5580.462915 kJ/mol
# Density = 2.366733 g / cm^3
# Si number density = 23.721321 Si / 1000 Ang^3
#
#
#
# Elastic Constant Matrix: (Units=GPa)
#
#
# Indices 1 2 3 4 5 6 
#
# 1 59.0741 63.5182 24.8481 0.0000 0.0000 0.0000
# 2 63.5182 59.0742 24.8480 0.0000 0.0000 0.0000
# 3 24.8481 24.8480 109.6156 0.0000 0.0000 0.0000
# 4 0.0000 0.0000 0.0000 35.3337 0.0000 0.0000
# 5 0.0000 0.0000 0.0000 0.0000 35.3337 0.0000
# 6 0.0000 0.0000 0.0000 0.0000 0.0000 38.8133
#
#
#
# Elastic Compliance Matrix: (Units=1/GPa)
#
#
# Indices 1 2 3 4 5 6 
#
# 1 -0.108018 0.117000 -0.002036 0.000000 0.000000 0.000000
# 2 0.117000 -0.108018 -0.002036 0.000000 0.000000 0.000000
# 3 -0.002036 -0.002036 0.010046 0.000000 0.000000 0.000000
# 4 0.000000 0.000000 0.000000 0.028302 0.000000 0.000000
# 5 0.000000 0.000000 0.000000 0.000000 0.028302 0.000000
# 6 0.000000 0.000000 0.000000 0.000000 0.000000 0.025764
#
#
# Mechanical properties :
#
#
# Convention : Reuss Voigt Hill
#
# Bulk Modulus (GPa) = 50.33666 50.46584 50.40125
# Shear Modulus (GPa) = -14.58339 29.53275 7.47468
#
# Velocity S-wave (km/s) = -2.48217 3.53227 1.77704
# Velocity P-wave (km/s) = 3.61265 6.16089 5.05014
#
# Compressibility (1/GPa) = 0.01986624
#
# Stress axis : x y z
#
# Youngs Moduli (GPa) = -9.25772 -9.25775 99.54275
#
# Poissons Ratio (x) = 1.08316 0.20267
# Poissons Ratio (y) = 1.08316 0.20271
# Poissons Ratio (z) = -0.01885 -0.01885
#
# Static dielectric constant tensor:
#      x y z
#    x 1.959780 0.000000 0.000000 
#    y 0.000000 1.959780 0.000000 
#    z 0.000000 0.000000 1.963150 
# 
# From -- ./inp_files/4439.got.cif
#   From: 2010.05.17/outbox.cif.g08.bks.cpg/sg92_3_cif.got.tgz:4439.got - 2010.06.03 19:35:17.
