data_PCOD9549854
_publ_section_title
;
Structure prediction by ZEFSAII (Michael W. Deem and Ramdas Pophale) SiO2 
 PCOD9549854
Probable space group: P 42 2 2
;
_chemical_formula_sum "Si O2"
_cell_formula_units_Z 48
_cell_length_a 9.741078
_cell_length_b 9.741078
_cell_length_c 28.482350
_cell_angle_alpha 90.000000
_cell_angle_beta 90.000000
_cell_angle_gamma 90.000000
_cell_volume 2702.650333
_symmetry_space_group_name_H-M "P 42 2 2"
_symmetry_group_IT_number 93
_symmetry_cell_setting 'tetragonal'
loop_
_space_group_symop_operation_xyz
x,y,z
-y,x,1/2+z
-x,-y,z
y,-x,1/2+z
x,-y,-z
-x,y,-z
y,x,1/2-z
-y,-x,1/2-z
loop_
_atom_site_type_symbol
_atom_site_label
_atom_site_fract_x
_atom_site_fract_y
_atom_site_fract_z
Si Si1 0.713103 0.155979 0.107723
Si Si2 0.484946 0.661848 0.943841
Si Si3 0.663941 0.653942 0.195743
Si Si4 0.013451 0.163878 0.947751
Si Si5 0.336991 0.666901 0.304579
Si Si6 0.825519 0.256315 0.608360
O O1 0.591576 0.238348 0.082323
O O2 0.843169 0.192731 0.076133
O O3 0.723531 0.224657 0.159229
O O4 0.702639 0.988545 0.108167
O O5 0.500000 0.500000 0.930337
O O6 0.345020 0.730712 0.926597
O O7 0.500000 0.669756 0.000000
O O8 0.689853 0.689853 0.250000
O O9 0.709639 0.495990 0.186427
O O10 0.498709 0.660331 0.190168
O O11 0.725988 0.761513 0.159670
O O12 0.895352 0.195965 0.911006
O O13 0.000000 0.000000 0.953094
O O14 0.000000 0.224874 0.000000
O O15 0.304093 0.695908 0.250000
#
# Coordination Sequence:
#
# PCOD9549854 Si02
#       6
#     8   8   8   8   8   8
#     4  11  21  36  60  86 114 148 196 245 289 343
#     4  11  23  37  57  87 121 153 189 237 290 347
#     4   9  18  35  58  81 111 153 190 231 289 346
#     4   9  20  38  57  79 115 155 189 231 292 351
#     4   9  18  35  58  81 111 153 190 231 289 346
#     4  11  21  36  60  86 114 148 196 245 289 343
#
# _framework density 17.760345000000001
#
# number of rings (size 3 to 8) (size 9 to 14) (size 15 to 20)
#    0.000    2.000    1.667    3.500    0.000    2.667 
#    3.000    3.333    0.000    6.000    0.000    0.000 
#    0.000    0.000    0.000    0.000    0.000    0.000 
#
# Total GULP energy -267429.640079 kJ/mol
# GULP energy per Si atom -5571.450835 kJ/mol
# Density = 1.771992 g / cm^3
# Si number density = 17.760345 Si / 1000 Ang^3
#
#
#
# Elastic Constant Matrix: (Units=GPa)
#
#
# Indices 1 2 3 4 5 6 
#
# 1 40.4196 -10.8543 19.2424 0.0000 0.0000 0.0000
# 2 -10.8543 40.4196 19.2423 0.0000 0.0000 0.0000
# 3 19.2424 19.2423 115.1530 0.0000 0.0000 0.0000
# 4 0.0000 0.0000 0.0000 49.8021 0.0000 0.0000
# 5 0.0000 0.0000 0.0000 0.0000 49.8022 0.0000
# 6 0.0000 0.0000 0.0000 0.0000 0.0000 12.2948
#
#
#
# Elastic Compliance Matrix: (Units=1/GPa)
#
#
# Indices 1 2 3 4 5 6 
#
# 1 0.031364 0.011861 -0.007223 0.000000 0.000000 0.000000
# 2 0.011861 0.031364 -0.007223 0.000000 0.000000 0.000000
# 3 -0.007223 -0.007223 0.011098 0.000000 0.000000 0.000000
# 4 0.000000 0.000000 0.000000 0.020079 0.000000 0.000000
# 5 0.000000 0.000000 0.000000 0.000000 0.020079 0.000000
# 6 0.000000 0.000000 0.000000 0.000000 0.000000 0.081335
#
#
# Mechanical properties :
#
#
# Convention : Reuss Voigt Hill
#
# Bulk Modulus (GPa) = 14.56516 27.91700 21.24108
# Shear Modulus (GPa) = 22.38372 33.60395 27.99384
#
# Velocity S-wave (km/s) = 3.55395 4.35452 3.97444
# Velocity P-wave (km/s) = 5.00595 6.40588 5.74869
#
# Compressibility (1/GPa) = 0.06865700
#
# Stress axis : x y z
#
# Youngs Moduli (GPa) = 31.88330 31.88326 90.10552
#
# Poissons Ratio (x) = -0.37818 0.65084
# Poissons Ratio (y) = -0.37818 0.65084
# Poissons Ratio (z) = 0.23030 0.23030
#
# Static dielectric constant tensor:
#      x y z
#    x 1.613770 0.000000 0.000000 
#    y 0.000000 1.613770 0.000000 
#    z 0.000000 0.000000 1.628190 
# 
# From -- ./inp_files/7796.got.cif
#   From: 2010.05.17/outbox.cif.g08.bks.cpg/sg93_4_cif.got.tgz:7796.got - 2010.06.03 19:38:44.
