data_PCOD9549162
_publ_section_title
;
Structure prediction by ZEFSAII (Michael W. Deem and Ramdas Pophale) SiO2 
 PCOD9549162
Probable space group: P 41 21 2
;
_chemical_formula_sum "Si O2"
_cell_formula_units_Z 40
_cell_length_a 13.462718
_cell_length_b 13.462718
_cell_length_c 10.249952
_cell_angle_alpha 90.000000
_cell_angle_beta 90.000000
_cell_angle_gamma 90.000000
_cell_volume 1857.750254
_symmetry_space_group_name_H-M "P 41 21 2"
_symmetry_group_IT_number 92
_symmetry_cell_setting 'tetragonal'
loop_
_space_group_symop_operation_xyz
x,y,z
1/2-y,1/2+x,1/4+z
-x,-y,1/2+z
1/2+y,1/2-x,3/4+z
1/2+x,1/2-y,3/4-z
1/2-x,1/2+y,1/4-z
y,x,-z
-y,-x,1/2-z
loop_
_atom_site_type_symbol
_atom_site_label
_atom_site_fract_x
_atom_site_fract_y
_atom_site_fract_z
Si Si1 0.719827 0.158889 0.059067
Si Si2 0.760356 0.476316 0.995249
Si Si3 0.908786 0.852306 0.143170
Si Si4 0.756116 0.600835 0.465530
Si Si5 0.800334 0.595891 0.752839
O O1 0.685385 0.113891 0.919760
O O2 0.826161 0.210586 0.029756
O O3 0.646608 0.245330 0.106596
O O4 0.733022 0.074174 0.166289
O O5 0.781516 0.504036 0.846453
O O6 0.843551 0.398590 0.041631
O O7 0.654464 0.423046 0.012516
O O8 0.020237 0.828990 0.184007
O O9 0.898958 0.898958 0.000000
O O10 0.706487 0.706487 0.500000
O O11 0.806718 0.569397 0.600384
#
# Coordination Sequence:
#
# PCOD9549162 Si02
#       5
#     8   8   8   8   8
#     4  10  21  41  69  89 129 169 213 271 320 382
#     4  11  22  42  65  95 129 166 222 262 316 396
#     4  11  22  41  69  95 123 175 221 262 328 388
#     4  10  23  42  61  95 132 165 211 272 327 380
#     4  10  24  41  61  97 131 170 213 265 331 381
#
# _framework density 21.531419
#
# number of rings (size 3 to 8) (size 9 to 14) (size 15 to 20)
#    0.000    1.600    2.000    3.000    2.800    2.400 
#    3.600    0.000    0.000    0.000    0.000    0.000 
#    0.000    0.000    0.000    0.000    0.000    0.000 
#
# Total GULP energy -223528.946115 kJ/mol
# GULP energy per Si atom -5588.223653 kJ/mol
# Density = 2.148241 g / cm^3
# Si number density = 21.531419 Si / 1000 Ang^3
#
#
#
# Elastic Constant Matrix: (Units=GPa)
#
#
# Indices 1 2 3 4 5 6 
#
# 1 38.3507 11.6396 12.5594 0.0000 0.0000 0.0000
# 2 11.6396 38.3507 12.5594 0.0000 0.0000 0.0000
# 3 12.5594 12.5594 97.6821 0.0000 0.0000 0.0000
# 4 0.0000 0.0000 0.0000 27.9806 0.0000 0.0000
# 5 0.0000 0.0000 0.0000 0.0000 27.9806 0.0000
# 6 0.0000 0.0000 0.0000 0.0000 0.0000 8.4577
#
#
#
# Elastic Compliance Matrix: (Units=1/GPa)
#
#
# Indices 1 2 3 4 5 6 
#
# 1 0.029412 -0.008026 -0.002750 0.000000 0.000000 0.000000
# 2 -0.008026 0.029412 -0.002750 0.000000 0.000000 0.000000
# 3 -0.002750 -0.002750 0.010944 0.000000 0.000000 0.000000
# 4 0.000000 0.000000 0.000000 0.035739 0.000000 0.000000
# 5 0.000000 0.000000 0.000000 0.000000 0.035739 0.000000
# 6 0.000000 0.000000 0.000000 0.000000 0.000000 0.118236
#
#
# Mechanical properties :
#
#
# Convention : Reuss Voigt Hill
#
# Bulk Modulus (GPa) = 23.40997 27.54447 25.47722
# Shear Modulus (GPa) = 16.62395 22.05879 19.34137
#
# Velocity S-wave (km/s) = 2.78164 3.20424 3.00039
# Velocity P-wave (km/s) = 4.60574 5.14879 4.88481
#
# Compressibility (1/GPa) = 0.04271685
#
# Stress axis : x y z
#
# Youngs Moduli (GPa) = 34.00029 34.00029 91.37133
#
# Poissons Ratio (x) = 0.27289 0.25124
# Poissons Ratio (y) = 0.27289 0.25124
# Poissons Ratio (z) = 0.09349 0.09349
#
# Static dielectric constant tensor:
#      x y z
#    x 1.775230 0.000000 0.000000 
#    y 0.000000 1.775230 0.000000 
#    z 0.000000 0.000000 1.812210 
# 
# From -- ./inp_files/1298.got.cif
#   From: 2010.05.17/outbox.cif.g08.bks.cpg/sg92_1_cif.got.tgz:1298.got - 2010.06.03 19:35:17.
