data_PCOD9549088
_publ_section_title
;
Structure prediction by ZEFSAII (Michael W. Deem and Ramdas Pophale) SiO2 
 PCOD9549088
Probable space group: P 41 21 2
;
_chemical_formula_sum "Si O2"
_cell_formula_units_Z 40
_cell_length_a 8.363899
_cell_length_b 8.363899
_cell_length_c 23.492423
_cell_angle_alpha 90.000000
_cell_angle_beta 90.000000
_cell_angle_gamma 90.000000
_cell_volume 1643.407905
_symmetry_space_group_name_H-M "P 41 21 2"
_symmetry_group_IT_number 92
_symmetry_cell_setting 'tetragonal'
loop_
_space_group_symop_operation_xyz
x,y,z
1/2-y,1/2+x,1/4+z
-x,-y,1/2+z
1/2+y,1/2-x,3/4+z
1/2+x,1/2-y,3/4-z
1/2-x,1/2+y,1/4-z
y,x,-z
-y,-x,1/2-z
loop_
_atom_site_type_symbol
_atom_site_label
_atom_site_fract_x
_atom_site_fract_y
_atom_site_fract_z
Si Si1 0.175935 0.716875 0.626631
Si Si2 0.567336 0.032655 0.708420
Si Si3 0.522834 0.717150 0.296062
Si Si4 0.132832 0.150329 0.158005
Si Si5 0.533583 0.747445 0.787703
O O1 0.277956 0.818141 0.581387
O O2 0.279720 0.613340 0.669963
O O3 0.053829 0.600268 0.590288
O O4 0.058793 0.832981 0.663658
O O5 0.577261 0.164017 0.757231
O O6 0.742133 0.968949 0.689134
O O7 0.490405 0.887228 0.744017
O O8 0.406530 0.647205 0.343038
O O9 0.673162 0.802152 0.327302
O O10 0.611917 0.602423 0.252419
#
# Coordination Sequence:
#
# PCOD9549088 Si02
#       5
#     8   8   8   8   8
#     4  11  23  46  66 101 146 179 241 292 347 434
#     4  10  20  42  73  97 139 187 231 295 353 421
#     4  10  22  41  75 105 139 183 237 297 356 420
#     4  11  20  42  70 106 139 177 237 293 351 418
#     4  10  23  44  70  99 143 192 232 294 361 417
#
# _framework density 24.339663999999999
#
# number of rings (size 3 to 8) (size 9 to 14) (size 15 to 20)
#    0.000    1.600    4.000    0.000    0.000    3.200 
#   14.400    0.000    0.000    0.000    0.000    0.000 
#    0.000    0.000    0.000    0.000    0.000    0.000 
#
# Total GULP energy -223344.520878 kJ/mol
# GULP energy per Si atom -5583.613022 kJ/mol
# Density = 2.428427 g / cm^3
# Si number density = 24.339664 Si / 1000 Ang^3
#
#
#
# Elastic Constant Matrix: (Units=GPa)
#
#
# Indices 1 2 3 4 5 6 
#
# 1 39.8133 55.7108 45.7314 0.0000 0.0000 0.0000
# 2 55.7108 39.8133 45.7314 0.0000 0.0000 0.0000
# 3 45.7314 45.7314 120.7471 0.0000 0.0000 0.0000
# 4 0.0000 0.0000 0.0000 37.9632 0.0000 0.0000
# 5 0.0000 0.0000 0.0000 0.0000 37.9632 0.0000
# 6 0.0000 0.0000 0.0000 0.0000 0.0000 48.0990
#
#
#
# Elastic Compliance Matrix: (Units=1/GPa)
#
#
# Indices 1 2 3 4 5 6 
#
# 1 -0.023239 0.039664 -0.006221 0.000000 0.000000 0.000000
# 2 0.039664 -0.023239 -0.006221 0.000000 0.000000 0.000000
# 3 -0.006221 -0.006221 0.012994 0.000000 0.000000 0.000000
# 4 0.000000 0.000000 0.000000 0.026341 0.000000 0.000000
# 5 0.000000 0.000000 0.000000 0.000000 0.026341 0.000000
# 6 0.000000 0.000000 0.000000 0.000000 0.000000 0.020790
#
#
# Mechanical properties :
#
#
# Convention : Reuss Voigt Hill
#
# Bulk Modulus (GPa) = 47.70854 54.96900 51.33877
# Shear Modulus (GPa) = -669.34859 28.35176 -320.49842
#
# Velocity S-wave (km/s) = -16.60121 3.41667 -11.48753
# Velocity P-wave (km/s) = 18.65002 6.18046 12.44237
#
# Compressibility (1/GPa) = 0.02096061
#
# Stress axis : x y z
#
# Youngs Moduli (GPa) = -43.03075 -43.03075 76.95994
#
# Poissons Ratio (x) = 1.70677 0.47874
# Poissons Ratio (y) = 1.70677 0.47874
# Poissons Ratio (z) = -0.26768 -0.26768
#
# Static dielectric constant tensor:
#      x y z
#    x 2.030550 0.000000 0.000000 
#    y 0.000000 2.030550 0.000000 
#    z 0.000000 0.000000 1.901210 
# 
# From -- ./inp_files/3770.got.cif
#   From: 2010.05.17/outbox.cif.g08.bks.cpg/sg92_2_cif.got.tgz:3770.got - 2010.06.03 19:35:17.
