data_PCOD9549193
_publ_section_title
;
Structure prediction by ZEFSAII (Michael W. Deem and Ramdas Pophale) SiO2 
 PCOD9549193
Probable space group: P 41 21 2
;
_chemical_formula_sum "Si O2"
_cell_formula_units_Z 48
_cell_length_a 11.693972
_cell_length_b 11.693972
_cell_length_c 15.877169
_cell_angle_alpha 90.000000
_cell_angle_beta 90.000000
_cell_angle_gamma 90.000000
_cell_volume 2171.186684
_symmetry_space_group_name_H-M "P 41 21 2"
_symmetry_group_IT_number 92
_symmetry_cell_setting 'tetragonal'
loop_
_space_group_symop_operation_xyz
x,y,z
1/2-y,1/2+x,1/4+z
-x,-y,1/2+z
1/2+y,1/2-x,3/4+z
1/2+x,1/2-y,3/4-z
1/2-x,1/2+y,1/4-z
y,x,-z
-y,-x,1/2-z
loop_
_atom_site_type_symbol
_atom_site_label
_atom_site_fract_x
_atom_site_fract_y
_atom_site_fract_z
Si Si1 0.237047 0.457574 0.541492
Si Si2 0.848117 0.063087 0.369782
Si Si3 0.617591 0.991165 0.053649
Si Si4 0.928757 0.342574 0.622090
Si Si5 0.278187 0.538936 0.216841
Si Si6 0.553437 0.579976 0.598979
O O1 0.307171 0.355041 0.586895
O O2 0.311902 0.506618 0.464445
O O3 0.204176 0.534974 0.620555
O O4 0.124397 0.416890 0.492882
O O5 0.764632 0.035423 0.447213
O O6 0.982145 0.032062 0.385334
O O7 0.656198 0.076786 0.979287
O O8 0.515533 0.058612 0.098602
O O9 0.817367 0.382107 0.673925
O O10 0.970405 0.213861 0.639820
O O11 0.372764 0.627237 0.250000
O O12 0.329119 0.453349 0.147014
O O13 0.562789 0.562789 0.500000
#
# Coordination Sequence:
#
# PCOD9549193 Si02
#       6
#     8   8   8   8   8   8
#     4  10  21  45  66  97 141 179 238 284 356 428
#     4  10  22  44  68  97 132 183 238 293 354 434
#     4  10  24  42  63 100 139 181 225 290 359 430
#     4  11  23  42  64  98 139 179 229 286 363 426
#     4  10  23  40  67 100 136 181 239 294 355 429
#     4  11  21  42  64  96 134 176 232 289 347 427
#
# _framework density 22.107727000000001
#
# number of rings (size 3 to 8) (size 9 to 14) (size 15 to 20)
#    0.000    1.667    1.667    2.500    4.667    0.000 
#   15.000    0.000    0.000    0.000    0.000    0.000 
#    0.000    0.000    0.000    0.000    0.000    0.000 
#
# Total GULP energy -267250.559062 kJ/mol
# GULP energy per Si atom -5567.719980 kJ/mol
# Density = 2.205741 g / cm^3
# Si number density = 22.107727 Si / 1000 Ang^3
#
#
#
# Elastic Constant Matrix: (Units=GPa)
#
#
# Indices 1 2 3 4 5 6 
#
# 1 78.8330 14.7558 33.3298 0.0000 0.0000 0.0000
# 2 14.7558 78.8332 33.3294 0.0000 0.0000 0.0000
# 3 33.3298 33.3294 150.7648 0.0000 0.0000 0.0000
# 4 0.0000 0.0000 0.0000 28.5392 0.0000 0.0000
# 5 0.0000 0.0000 0.0000 0.0000 28.5395 0.0000
# 6 0.0000 0.0000 0.0000 0.0000 0.0000 20.3699
#
#
#
# Elastic Compliance Matrix: (Units=1/GPa)
#
#
# Indices 1 2 3 4 5 6 
#
# 1 0.014144 -0.001462 -0.002804 0.000000 0.000000 0.000000
# 2 -0.001462 0.014144 -0.002804 0.000000 0.000000 0.000000
# 3 -0.002804 -0.002804 0.007872 0.000000 0.000000 0.000000
# 4 0.000000 0.000000 0.000000 0.035040 0.000000 0.000000
# 5 0.000000 0.000000 0.000000 0.000000 0.035039 0.000000
# 6 0.000000 0.000000 0.000000 0.000000 0.000000 0.049092
#
#
# Mechanical properties :
#
#
# Convention : Reuss Voigt Hill
#
# Bulk Modulus (GPa) = 45.40941 52.36233 48.88587
# Shear Modulus (GPa) = 28.27886 30.62410 29.45148
#
# Velocity S-wave (km/s) = 3.58039 3.72589 3.65386
# Velocity P-wave (km/s) = 6.13815 6.49971 6.32151
#
# Compressibility (1/GPa) = 0.02202187
#
# Stress axis : x y z
#
# Youngs Moduli (GPa) = 70.70104 70.70139 127.02569
#
# Poissons Ratio (x) = 0.10337 0.35613
# Poissons Ratio (y) = 0.10337 0.35612
# Poissons Ratio (z) = 0.19822 0.19822
#
# Static dielectric constant tensor:
#      x y z
#    x 1.931140 0.000000 0.000000 
#    y 0.000000 1.931140 0.000000 
#    z 0.000000 0.000000 1.872260 
# 
# From -- ./inp_files/3107.got.cif
#   From: 2010.05.17/outbox.cif.g08.bks.cpg/sg92_2_cif.got.tgz:3107.got - 2010.06.03 19:35:17.
