data_PCOD9549657
_publ_section_title
;
Structure prediction by ZEFSAII (Michael W. Deem and Ramdas Pophale) SiO2 
 PCOD9549657
Probable space group: P 42 2 2
;
_chemical_formula_sum "Si O2"
_cell_formula_units_Z 40
_cell_length_a 9.170688
_cell_length_b 9.170688
_cell_length_c 25.354127
_cell_angle_alpha 90.000000
_cell_angle_beta 90.000000
_cell_angle_gamma 90.000000
_cell_volume 2132.320578
_symmetry_space_group_name_H-M "P 42 2 2"
_symmetry_group_IT_number 93
_symmetry_cell_setting 'tetragonal'
loop_
_space_group_symop_operation_xyz
x,y,z
-y,x,1/2+z
-x,-y,z
y,-x,1/2+z
x,-y,-z
-x,y,-z
y,x,1/2-z
-y,-x,1/2-z
loop_
_atom_site_type_symbol
_atom_site_label
_atom_site_fract_x
_atom_site_fract_y
_atom_site_fract_z
Si Si1 0.000000 0.000000 0.000000
Si Si2 0.188709 0.188709 0.250000
Si Si3 0.169085 0.049592 0.829155
Si Si4 0.327869 0.353413 0.686992
Si Si5 0.251954 0.130396 0.070556
Si Si6 0.500000 0.000000 0.000000
Si Si7 0.677474 0.652783 0.154007
O O1 0.892382 0.097241 0.963746
O O2 0.219077 0.293802 0.201291
O O3 0.029415 0.211596 0.274501
O O4 0.226044 0.213481 0.825687
O O5 0.247852 0.979127 0.879550
O O6 0.000000 0.000000 0.835452
O O7 0.356577 0.356577 0.750000
O O8 0.282355 0.516459 0.668224
O O9 0.480055 0.328675 0.657633
O O10 0.392547 0.096758 0.035482
O O11 0.265429 0.285808 0.098849
#
# Coordination Sequence:
#
# PCOD9549657 Si02
#       7
#     2   4   8   8   8   2   8
#     4  10  20  42  68  82 124 146 202 270 336 352
#     4  10  19  35  54  86 128 156 210 244 286 368
#     4  11  22  37  56  90 127 165 204 248 305 370
#     4  11  20  36  59  88 134 175 196 243 294 368
#     4  10  21  38  65  90 113 159 203 265 312 370
#     4  10  20  38  64  96 112 150 220 268 320 360
#     4  10  20  38  59  90 123 166 212 246 304 371
#
# _framework density 18.758904000000001
#
# number of rings (size 3 to 8) (size 9 to 14) (size 15 to 20)
#    0.000    1.600    3.000    3.300    0.000    2.400 
#    3.600    3.000    0.000   19.200    0.000    0.000 
#    0.000    0.000    0.000    0.000    0.000    0.000 
#
# Total GULP energy -223143.945290 kJ/mol
# GULP energy per Si atom -5578.598632 kJ/mol
# Density = 1.871621 g / cm^3
# Si number density = 18.758904 Si / 1000 Ang^3
#
#
#
# Elastic Constant Matrix: (Units=GPa)
#
#
# Indices 1 2 3 4 5 6 
#
# 1 104.3962 61.2093 53.6624 0.0000 0.0000 0.0000
# 2 61.2093 104.3962 53.6624 0.0000 0.0000 0.0000
# 3 53.6624 53.6624 118.3645 0.0000 0.0000 0.0000
# 4 0.0000 0.0000 0.0000 23.1428 0.0000 0.0000
# 5 0.0000 0.0000 0.0000 0.0000 23.1428 0.0000
# 6 0.0000 0.0000 0.0000 0.0000 0.0000 24.2732
#
#
#
# Elastic Compliance Matrix: (Units=1/GPa)
#
#
# Indices 1 2 3 4 5 6 
#
# 1 0.015853 -0.007302 -0.003877 0.000000 0.000000 0.000000
# 2 -0.007302 0.015853 -0.003877 0.000000 0.000000 0.000000
# 3 -0.003877 -0.003877 0.011964 0.000000 0.000000 0.000000
# 4 0.000000 0.000000 0.000000 0.043210 0.000000 0.000000
# 5 0.000000 0.000000 0.000000 0.000000 0.043210 0.000000
# 6 0.000000 0.000000 0.000000 0.000000 0.000000 0.041198
#
#
# Mechanical properties :
#
#
# Convention : Reuss Voigt Hill
#
# Bulk Modulus (GPa) = 73.75396 73.80278 73.77837
# Shear Modulus (GPa) = 24.28155 24.68661 24.48408
#
# Velocity S-wave (km/s) = 3.60168 3.63160 3.61667
# Velocity P-wave (km/s) = 7.52983 7.55069 7.54026
#
# Compressibility (1/GPa) = 0.01355859
#
# Stress axis : x y z
#
# Youngs Moduli (GPa) = 63.07960 63.07960 83.58716
#
# Poissons Ratio (x) = 0.46062 0.32404
# Poissons Ratio (y) = 0.46062 0.32404
# Poissons Ratio (z) = 0.24454 0.24454
#
# Static dielectric constant tensor:
#      x y z
#    x 1.686420 0.000000 0.000000 
#    y 0.000000 1.686420 0.000000 
#    z 0.000000 0.000000 1.639340 
# 
# From -- ./inp_files/7643.got.cif
#   From: 2010.05.17/outbox.cif.g08.bks.cpg/sg93_4_cif.got.tgz:7643.got - 2010.06.03 19:38:44.
