data_PCOD9549386
_publ_section_title
;
Structure prediction by ZEFSAII (Michael W. Deem and Ramdas Pophale) SiO2 
 PCOD9549386
Probable space group: P 41 21 2
;
_chemical_formula_sum "Si O2"
_cell_formula_units_Z 32
_cell_length_a 8.693393
_cell_length_b 8.693393
_cell_length_c 16.241286
_cell_angle_alpha 90.000000
_cell_angle_beta 90.000000
_cell_angle_gamma 90.000000
_cell_volume 1227.436519
_symmetry_space_group_name_H-M "P 41 21 2"
_symmetry_group_IT_number 92
_symmetry_cell_setting 'tetragonal'
loop_
_space_group_symop_operation_xyz
x,y,z
1/2-y,1/2+x,1/4+z
-x,-y,1/2+z
1/2+y,1/2-x,3/4+z
1/2+x,1/2-y,3/4-z
1/2-x,1/2+y,1/4-z
y,x,-z
-y,-x,1/2-z
loop_
_atom_site_type_symbol
_atom_site_label
_atom_site_fract_x
_atom_site_fract_y
_atom_site_fract_z
Si Si1 0.571936 0.252519 0.144228
Si Si2 0.489269 0.722477 0.965846
Si Si3 0.252618 0.405491 0.194063
Si Si4 0.832113 0.583892 0.517917
O O1 0.651774 0.121658 0.198838
O O2 0.196540 0.480654 0.108234
O O3 0.532614 0.166546 0.057745
O O4 0.685104 0.390233 0.115756
O O5 0.578047 0.665174 0.683956
O O6 0.572838 0.572838 0.000000
O O7 0.470163 0.791792 0.236421
O O8 0.130570 0.274446 0.215312
O O9 0.681407 0.681407 0.500000
#
# Coordination Sequence:
#
# PCOD9549386 Si02
#       4
#     8   8   8   8
#     4  11  29  51  81 116 163 207 268 333 398 476
#     4  12  30  50  79 119 161 208 268 327 403 480
#     4  11  26  49  80 111 159 205 271 322 408 473
#     4  10  24  44  79 109 147 207 262 328 391 472
#
# _framework density 26.070595000000001
#
# number of rings (size 3 to 8) (size 9 to 14) (size 15 to 20)
#    0.000    1.000    0.000    3.750   24.500    1.000 
#    0.000    0.000    0.000    0.000    0.000    0.000 
#    0.000    0.000    0.000    0.000    0.000    0.000 
#
# Total GULP energy -179233.581205 kJ/mol
# GULP energy per Si atom -5601.049413 kJ/mol
# Density = 2.601126 g / cm^3
# Si number density = 26.070595 Si / 1000 Ang^3
#
#
#
# Elastic Constant Matrix: (Units=GPa)
#
#
# Indices 1 2 3 4 5 6 
#
# 1 103.5660 69.1596 38.5430 0.0000 0.0000 0.0000
# 2 69.1596 103.5660 38.5430 0.0000 0.0000 0.0000
# 3 38.5430 38.5430 72.5469 0.0000 0.0000 0.0000
# 4 0.0000 0.0000 0.0000 37.1049 0.0000 0.0000
# 5 0.0000 0.0000 0.0000 0.0000 37.1049 0.0000
# 6 0.0000 0.0000 0.0000 0.0000 0.0000 62.9333
#
#
#
# Elastic Compliance Matrix: (Units=1/GPa)
#
#
# Indices 1 2 3 4 5 6 
#
# 1 0.018327 -0.010738 -0.004032 0.000000 0.000000 0.000000
# 2 -0.010738 0.018327 -0.004032 0.000000 0.000000 0.000000
# 3 -0.004032 -0.004032 0.018068 0.000000 0.000000 0.000000
# 4 0.000000 0.000000 0.000000 0.026951 0.000000 0.000000
# 5 0.000000 0.000000 0.000000 0.000000 0.026951 0.000000
# 6 0.000000 0.000000 0.000000 0.000000 0.000000 0.015890
#
#
# Mechanical properties :
#
#
# Convention : Reuss Voigt Hill
#
# Bulk Modulus (GPa) = 58.41571 63.57443 60.99507
# Shear Modulus (GPa) = 29.79350 36.32417 33.05884
#
# Velocity S-wave (km/s) = 3.38420 3.73674 3.56483
# Velocity P-wave (km/s) = 6.14213 6.56171 6.35539
#
# Compressibility (1/GPa) = 0.01711868
#
# Stress axis : x y z
#
# Youngs Moduli (GPa) = 54.56530 54.56530 55.34555
#
# Poissons Ratio (x) = 0.58591 0.22315
# Poissons Ratio (y) = 0.58591 0.22315
# Poissons Ratio (z) = 0.22000 0.22000
#
# Static dielectric constant tensor:
#      x y z
#    x 2.067930 0.000000 0.000000 
#    y 0.000000 2.067930 0.000000 
#    z 0.000000 0.000000 2.067610 
# 
# From -- ./inp_files/1930.got.cif
#   From: 2010.05.17/outbox.cif.g08.bks.cpg/sg92_1_cif.got.tgz:1930.got - 2010.06.03 19:35:17.
