data_PCOD9549618
_publ_section_title
;
Structure prediction by ZEFSAII (Michael W. Deem and Ramdas Pophale) SiO2 
 PCOD9549618
Probable space group: P 42 2 2
;
_chemical_formula_sum "Si O2"
_cell_formula_units_Z 40
_cell_length_a 15.241103
_cell_length_b 15.241103
_cell_length_c 9.922420
_cell_angle_alpha 90.000000
_cell_angle_beta 90.000000
_cell_angle_gamma 90.000000
_cell_volume 2304.891054
_symmetry_space_group_name_H-M "P 42 2 2"
_symmetry_group_IT_number 93
_symmetry_cell_setting 'tetragonal'
loop_
_space_group_symop_operation_xyz
x,y,z
-y,x,1/2+z
-x,-y,z
y,-x,1/2+z
x,-y,-z
-x,y,-z
y,x,1/2-z
-y,-x,1/2-z
loop_
_atom_site_type_symbol
_atom_site_label
_atom_site_fract_x
_atom_site_fract_y
_atom_site_fract_z
Si Si1 0.395079 0.001201 0.163255
Si Si2 0.600711 0.281266 0.960983
Si Si3 0.745083 0.400462 0.028777
Si Si4 0.683002 0.814663 0.790203
Si Si5 0.318534 0.818734 0.724721
O O1 0.345766 0.086280 0.221744
O O2 0.500000 0.000000 0.198205
O O3 0.344314 0.915548 0.216799
O O4 0.391099 0.000000 0.000000
O O5 0.646419 0.374330 0.986846
O O6 0.655717 0.217826 0.061362
O O7 0.500000 0.277556 0.000000
O O8 0.618891 0.246743 0.811426
O O9 0.762814 0.376858 0.182747
O O10 0.764932 0.500000 0.000000
O O11 0.806175 0.341512 0.931590
O O12 0.780404 0.780404 0.750000
O O13 0.221147 0.778854 0.750000
#
# Coordination Sequence:
#
# PCOD9549618 Si02
#       5
#     8   8   8   8   8
#     4  11  20  33  61  88 105 138 194 237 261 321
#     4  10  18  32  51  71 102 142 186 220 254 320
#     4  10  20  32  47  71 108 144 174 218 274 320
#     4  10  21  35  52  78 110 142 173 223 285 328
#     4  10  21  35  52  78 110 142 173 223 285 328
#
# _framework density 17.354399999999998
#
# number of rings (size 3 to 8) (size 9 to 14) (size 15 to 20)
#    0.000    1.800    2.000    3.600    0.000    1.200 
#    0.000    2.000    0.000    7.800    0.000    1.400 
#    0.000    0.000    0.000    0.000    0.000    0.000 
#
# Total GULP energy -222950.136410 kJ/mol
# GULP energy per Si atom -5573.753410 kJ/mol
# Density = 1.731490 g / cm^3
# Si number density = 17.354400 Si / 1000 Ang^3
#
#
#
# Elastic Constant Matrix: (Units=GPa)
#
#
# Indices 1 2 3 4 5 6 
#
# 1 95.6817 53.4235 3.8559 0.0000 0.0000 0.0000
# 2 53.4235 95.6810 3.8566 0.0000 0.0000 0.0000
# 3 3.8559 3.8566 46.5910 0.0000 0.0000 0.0000
# 4 0.0000 0.0000 0.0000 20.7460 0.0000 0.0000
# 5 0.0000 0.0000 0.0000 0.0000 20.7467 0.0000
# 6 0.0000 0.0000 0.0000 0.0000 0.0000 17.9013
#
#
#
# Elastic Compliance Matrix: (Units=1/GPa)
#
#
# Indices 1 2 3 4 5 6 
#
# 1 0.015200 -0.008464 -0.000557 0.000000 0.000000 0.000000
# 2 -0.008464 0.015200 -0.000558 0.000000 0.000000 0.000000
# 3 -0.000557 -0.000558 0.021556 0.000000 0.000000 0.000000
# 4 0.000000 0.000000 0.000000 0.048202 0.000000 0.000000
# 5 0.000000 0.000000 0.000000 0.000000 0.048200 0.000000
# 6 0.000000 0.000000 0.000000 0.000000 0.000000 0.055862
#
#
# Mechanical properties :
#
#
# Convention : Reuss Voigt Hill
#
# Bulk Modulus (GPa) = 30.49080 40.02507 35.25793
# Shear Modulus (GPa) = 21.33921 23.66666 22.50294
#
# Velocity S-wave (km/s) = 3.51039 3.69687 3.60484
# Velocity P-wave (km/s) = 5.83422 6.42930 6.13897
#
# Compressibility (1/GPa) = 0.03279678
#
# Stress axis : x y z
#
# Youngs Moduli (GPa) = 65.79030 65.78974 46.39150
#
# Poissons Ratio (x) = 0.55687 0.02586
# Poissons Ratio (y) = 0.55687 0.02587
# Poissons Ratio (z) = 0.03667 0.03669
#
# Static dielectric constant tensor:
#      x y z
#    x 1.603250 0.000000 0.000000 
#    y 0.000000 1.603250 0.000000 
#    z 0.000000 0.000000 1.586000 
# 
# From -- ./inp_files/1803.got.cif
#   From: 2010.05.17/outbox.cif.g08.bks.cpg/sg93_1_cif.got.tgz:1803.got - 2010.06.03 19:38:44.
