data_PCOD9549572
_publ_section_title
;
Structure prediction by ZEFSAII (Michael W. Deem and Ramdas Pophale) SiO2 
 PCOD9549572
Probable space group: P 41 21 2
;
_chemical_formula_sum "Si O2"
_cell_formula_units_Z 20
_cell_length_a 7.324737
_cell_length_b 7.324737
_cell_length_c 13.404650
_cell_angle_alpha 90.000000
_cell_angle_beta 90.000000
_cell_angle_gamma 90.000000
_cell_volume 719.183227
_symmetry_space_group_name_H-M "P 41 21 2"
_symmetry_group_IT_number 92
_symmetry_cell_setting 'tetragonal'
loop_
_space_group_symop_operation_xyz
x,y,z
1/2-y,1/2+x,1/4+z
-x,-y,1/2+z
1/2+y,1/2-x,3/4+z
1/2+x,1/2-y,3/4-z
1/2-x,1/2+y,1/4-z
y,x,-z
-y,-x,1/2-z
loop_
_atom_site_type_symbol
_atom_site_label
_atom_site_fract_x
_atom_site_fract_y
_atom_site_fract_z
Si Si1 0.211881 0.484696 0.924075
Si Si2 0.698338 0.862103 0.318326
Si Si3 0.231855 0.768146 0.750000
O O1 0.318202 0.296264 0.900459
O O2 0.215748 0.587809 0.815979
O O3 0.011900 0.410633 0.955206
O O4 0.286447 0.650252 0.991334
O O5 0.778293 0.066543 0.329969
#
# Coordination Sequence:
#
# PCOD9549572 Si02
#       3
#     8   8   4
#     4  12  28  54  88 126 182 226 310 361 465 521
#     4  12  27  54  85 131 172 240 291 383 438 552
#     4  12  26  54  84 134 176 234 290 386 438 546
#
# _framework density 27.809322000000002
#
# number of rings (size 3 to 8) (size 9 to 14) (size 15 to 20)
#    0.000    0.000    4.000    4.800    0.000    0.000 
#    7.200    0.000    0.000    0.000    0.000    0.000 
#    0.000    0.000    0.000    0.000    0.000    0.000 
#
# Total GULP energy -111695.343987 kJ/mol
# GULP energy per Si atom -5584.767199 kJ/mol
# Density = 2.774603 g / cm^3
# Si number density = 27.809322 Si / 1000 Ang^3
#
#
#
# Elastic Constant Matrix: (Units=GPa)
#
#
# Indices 1 2 3 4 5 6 
#
# 1 321.1781 -0.6202 49.8256 0.0000 0.0000 0.0000
# 2 -0.6202 321.1730 49.8264 0.0000 0.0000 0.0000
# 3 49.8256 49.8264 77.8392 0.0000 0.0000 0.0000
# 4 0.0000 0.0000 0.0000 47.9969 0.0000 0.0000
# 5 0.0000 0.0000 0.0000 0.0000 47.9971 0.0000
# 6 0.0000 0.0000 0.0000 0.0000 0.0000 50.7021
#
#
#
# Elastic Compliance Matrix: (Units=1/GPa)
#
#
# Indices 1 2 3 4 5 6 
#
# 1 0.003501 0.000394 -0.002493 0.000000 0.000000 0.000000
# 2 0.000394 0.003501 -0.002493 0.000000 0.000000 0.000000
# 3 -0.002493 -0.002493 0.016039 0.000000 0.000000 0.000000
# 4 0.000000 0.000000 0.000000 0.020835 0.000000 0.000000
# 5 0.000000 0.000000 0.000000 0.000000 0.020835 0.000000
# 6 0.000000 0.000000 0.000000 0.000000 0.000000 0.019723
#
#
# Mechanical properties :
#
#
# Convention : Reuss Voigt Hill
#
# Bulk Modulus (GPa) = 72.17174 102.02819 87.09997
# Shear Modulus (GPa) = 50.89753 70.74978 60.82366
#
# Velocity S-wave (km/s) = 4.28276 5.04938 4.68179
# Velocity P-wave (km/s) = 7.10386 8.41208 7.78550
#
# Compressibility (1/GPa) = 0.01385584
#
# Stress axis : x y z
#
# Youngs Moduli (GPa) = 285.62969 285.62363 62.34963
#
# Poissons Ratio (x) = -0.11240 0.15543
# Poissons Ratio (y) = -0.11240 0.15544
# Poissons Ratio (z) = 0.71206 0.71207
#
# Static dielectric constant tensor:
#      x y z
#    x 2.126400 0.000000 0.000000 
#    y 0.000000 2.126400 0.000000 
#    z 0.000000 0.000000 2.452750 
# 
# From -- ./inp_files/2411.got.cif
#   From: 2010.05.17/outbox.cif.g08.bks.cpg/sg92_2_cif.got.tgz:2411.got - 2010.06.03 19:35:17.
