data_PCOD9549113
_publ_section_title
;
Structure prediction by ZEFSAII (Michael W. Deem and Ramdas Pophale) SiO2 
 PCOD9549113
Probable space group: P 41 21 2
;
_chemical_formula_sum "Si O2"
_cell_formula_units_Z 56
_cell_length_a 11.601146
_cell_length_b 11.601146
_cell_length_c 21.431175
_cell_angle_alpha 90.000000
_cell_angle_beta 90.000000
_cell_angle_gamma 90.000000
_cell_volume 2884.348731
_symmetry_space_group_name_H-M "P 41 21 2"
_symmetry_group_IT_number 92
_symmetry_cell_setting 'tetragonal'
loop_
_space_group_symop_operation_xyz
x,y,z
1/2-y,1/2+x,1/4+z
-x,-y,1/2+z
1/2+y,1/2-x,3/4+z
1/2+x,1/2-y,3/4-z
1/2-x,1/2+y,1/4-z
y,x,-z
-y,-x,1/2-z
loop_
_atom_site_type_symbol
_atom_site_label
_atom_site_fract_x
_atom_site_fract_y
_atom_site_fract_z
Si Si1 0.252624 0.370685 0.327279
Si Si2 0.235514 0.537476 0.435545
Si Si3 0.444217 0.262903 0.991579
Si Si4 0.674807 0.426336 0.634554
Si Si5 0.619912 0.985373 0.524209
Si Si6 0.570712 0.500373 0.188088
Si Si7 0.108321 0.146532 0.309826
O O1 0.255791 0.421496 0.396746
O O2 0.176998 0.460896 0.287665
O O3 0.378193 0.371053 0.297642
O O4 0.201391 0.245090 0.322168
O O5 0.302878 0.637302 0.395591
O O6 0.301409 0.535225 0.501980
O O7 0.099319 0.562062 0.444711
O O8 0.452914 0.126895 0.005119
O O9 0.528518 0.333245 0.037537
O O10 0.316739 0.316739 0.000000
O O11 0.490969 0.293622 0.923089
O O12 0.782178 0.433269 0.680663
O O13 0.562587 0.471800 0.671326
O O14 0.576236 0.423765 0.250000
O O15 0.625021 0.454952 0.124512
#
# Coordination Sequence:
#
# PCOD9549113 Si02
#       7
#     8   8   8   8   8   8   8
#     4  10  22  40  66  92 124 173 213 258 322 378
#     4   9  22  39  60  89 125 168 209 254 320 377
#     4  11  23  38  64  93 126 168 211 259 326 371
#     4  10  21  37  63  90 125 164 209 259 313 378
#     4  11  22  36  62  95 132 158 209 267 315 376
#     4  11  21  40  66  90 122 163 218 264 310 384
#     4  10  23  44  60  91 131 162 216 269 307 390
#
# _framework density 19.415126999999998
#
# number of rings (size 3 to 8) (size 9 to 14) (size 15 to 20)
#    0.000    1.714    2.857    0.857    6.000    1.143 
#    5.143    0.000    0.000    0.000    0.000    0.000 
#    0.000    0.000    0.000    0.000    0.000    0.000 
#
# Total GULP energy -312507.270619 kJ/mol
# GULP energy per Si atom -5580.486975 kJ/mol
# Density = 1.937094 g / cm^3
# Si number density = 19.415127 Si / 1000 Ang^3
#
#
#
# Elastic Constant Matrix: (Units=GPa)
#
#
# Indices 1 2 3 4 5 6 
#
# 1 55.4280 4.5780 20.3341 0.0000 0.0000 0.0000
# 2 4.5780 55.4281 20.3342 0.0000 0.0000 0.0000
# 3 20.3341 20.3342 77.9444 0.0000 0.0000 0.0000
# 4 0.0000 0.0000 0.0000 18.5340 0.0000 0.0000
# 5 0.0000 0.0000 0.0000 0.0000 18.5338 0.0000
# 6 0.0000 0.0000 0.0000 0.0000 0.0000 21.0749
#
#
#
# Elastic Compliance Matrix: (Units=1/GPa)
#
#
# Indices 1 2 3 4 5 6 
#
# 1 0.019955 0.000289 -0.005281 0.000000 0.000000 0.000000
# 2 0.000289 0.019955 -0.005281 0.000000 0.000000 0.000000
# 3 -0.005281 -0.005281 0.015585 0.000000 0.000000 0.000000
# 4 0.000000 0.000000 0.000000 0.053955 0.000000 0.000000
# 5 0.000000 0.000000 0.000000 0.000000 0.053955 0.000000
# 6 0.000000 0.000000 0.000000 0.000000 0.000000 0.047450
#
#
# Mechanical properties :
#
#
# Convention : Reuss Voigt Hill
#
# Bulk Modulus (GPa) = 28.61346 31.03254 29.82300
# Shear Modulus (GPa) = 20.57176 21.19883 20.88529
#
# Velocity S-wave (km/s) = 3.25864 3.30793 3.28338
# Velocity P-wave (km/s) = 5.37848 5.53248 5.45602
#
# Compressibility (1/GPa) = 0.03494859
#
# Stress axis : x y z
#
# Youngs Moduli (GPa) = 50.11268 50.11281 64.16322
#
# Poissons Ratio (x) = -0.01450 0.33887
# Poissons Ratio (y) = -0.01450 0.33887
# Poissons Ratio (z) = 0.26466 0.26466
#
# Static dielectric constant tensor:
#      x y z
#    x 1.676440 0.000000 0.000000 
#    y 0.000000 1.676440 0.000000 
#    z 0.000000 0.000000 1.713870 
# 
# From -- ./inp_files/3567.got.cif
#   From: 2010.05.17/outbox.cif.g08.bks.cpg/sg92_2_cif.got.tgz:3567.got - 2010.06.03 19:35:17.
