data_PCOD9549644
_publ_section_title
;
Structure prediction by ZEFSAII (Michael W. Deem and Ramdas Pophale) SiO2 
 PCOD9549644
Probable space group: P 42 2 2
;
_chemical_formula_sum "Si O2"
_cell_formula_units_Z 26
_cell_length_a 16.378378
_cell_length_b 16.378378
_cell_length_c 5.462338
_cell_angle_alpha 90.000000
_cell_angle_beta 90.000000
_cell_angle_gamma 90.000000
_cell_volume 1465.279083
_symmetry_space_group_name_H-M "P 42 2 2"
_symmetry_group_IT_number 93
_symmetry_cell_setting 'tetragonal'
loop_
_space_group_symop_operation_xyz
x,y,z
-y,x,1/2+z
-x,-y,z
y,-x,1/2+z
x,-y,-z
-x,y,-z
y,x,1/2-z
-y,-x,1/2-z
loop_
_atom_site_type_symbol
_atom_site_label
_atom_site_fract_x
_atom_site_fract_y
_atom_site_fract_z
Si Si1 0.722559 0.500000 0.000000
Si Si2 0.500000 0.000000 0.500000
Si Si3 0.784306 0.273247 0.499899
Si Si4 0.860308 0.425132 0.685242
Si Si5 0.358183 0.641818 0.250000
O O1 0.784782 0.564192 0.126399
O O2 0.665158 0.449485 0.181305
O O3 0.443085 0.057632 0.334401
O O4 0.776657 0.223344 0.750000
O O5 0.854946 0.340178 0.540251
O O6 0.703564 0.329752 0.464177
O O7 0.780251 0.219750 0.250000
O O8 0.850781 0.500000 0.500000
#
# Coordination Sequence:
#
# PCOD9549644 Si02
#       5
#     4   2   8   8   4
#     4  11  20  33  56  70 100 138 176 249 282 346
#     4  10  26  32  52  84 104 138 166 230 328 332
#     4  10  19  33  56  76  93 131 185 225 275 338
#     4  11  19  36  53  73 103 132 176 230 290 350
#     4  10  20  32  52  75  90 134 188 222 307 322
#
# _framework density 17.744060000000001
#
# number of rings (size 3 to 8) (size 9 to 14) (size 15 to 20)
#    0.923    0.615    6.154    0.462    4.308    0.000 
#    0.000    0.000    3.385    7.385    0.000    0.000 
#    0.000    0.000    0.000    0.000    0.000    0.000 
#
# Total GULP energy -144793.844758 kJ/mol
# GULP energy per Si atom -5568.994029 kJ/mol
# Density = 1.770367 g / cm^3
# Si number density = 17.744060 Si / 1000 Ang^3
#
#
#
# Elastic Constant Matrix: (Units=GPa)
#
#
# Indices 1 2 3 4 5 6 
#
# 1 51.4401 40.1107 29.5500 0.0000 0.0000 0.0000
# 2 40.1107 51.4388 29.5499 0.0000 0.0000 0.0000
# 3 29.5500 29.5499 108.5257 0.0000 0.0000 0.0000
# 4 0.0000 0.0000 0.0000 13.3660 0.0000 0.0000
# 5 0.0000 0.0000 0.0000 0.0000 13.3679 0.0000
# 6 0.0000 0.0000 0.0000 0.0000 0.0000 -11.4547
#
#
#
# Elastic Compliance Matrix: (Units=1/GPa)
#
#
# Indices 1 2 3 4 5 6 
#
# 1 0.050761 -0.037509 -0.003608 0.000000 0.000000 0.000000
# 2 -0.037509 0.050763 -0.003609 0.000000 0.000000 0.000000
# 3 -0.003608 -0.003609 0.011179 0.000000 0.000000 0.000000
# 4 0.000000 0.000000 0.000000 0.074817 0.000000 0.000000
# 5 0.000000 0.000000 0.000000 0.000000 0.074806 0.000000
# 6 0.000000 0.000000 0.000000 0.000000 0.000000 -0.087300
#
#
# Mechanical properties :
#
#
# Convention : Reuss Voigt Hill
#
# Bulk Modulus (GPa) = 43.00984 45.53622 44.27303
# Shear Modulus (GPa) = 18.36692 10.53542 14.45117
#
# Velocity S-wave (km/s) = 3.22079 2.43933 2.85691
# Velocity P-wave (km/s) = 6.17438 5.80106 5.99063
#
# Compressibility (1/GPa) = 0.02325050
#
# Stress axis : x y z
#
# Youngs Moduli (GPa) = 19.70012 19.69957 89.44980
#
# Poissons Ratio (x) = 0.73892 0.32276
# Poissons Ratio (y) = 0.73894 0.32279
# Poissons Ratio (z) = 0.07108 0.07109
#
# Static dielectric constant tensor:
#      x y z
#    x 1.626490 0.000000 0.000000 
#    y 0.000000 1.626500 0.000000 
#    z 0.000000 0.000000 1.788200 
# 
# From -- ./inp_files/277.got.cif
#   From: 2010.05.17/outbox.cif.g08.bks.cpg/sg93_1_cif.got.tgz:277.got - 2010.06.03 19:38:44.
