data_PCOD9549377
_publ_section_title
;
Structure prediction by ZEFSAII (Michael W. Deem and Ramdas Pophale) SiO2 
 PCOD9549377
Probable space group: P 41 21 2
;
_chemical_formula_sum "Si O2"
_cell_formula_units_Z 36
_cell_length_a 11.349615
_cell_length_b 11.349615
_cell_length_c 13.815642
_cell_angle_alpha 90.000000
_cell_angle_beta 90.000000
_cell_angle_gamma 90.000000
_cell_volume 1779.644802
_symmetry_space_group_name_H-M "P 41 21 2"
_symmetry_group_IT_number 92
_symmetry_cell_setting 'tetragonal'
loop_
_space_group_symop_operation_xyz
x,y,z
1/2-y,1/2+x,1/4+z
-x,-y,1/2+z
1/2+y,1/2-x,3/4+z
1/2+x,1/2-y,3/4-z
1/2-x,1/2+y,1/4-z
y,x,-z
-y,-x,1/2-z
loop_
_atom_site_type_symbol
_atom_site_label
_atom_site_fract_x
_atom_site_fract_y
_atom_site_fract_z
Si Si1 0.350653 0.006883 0.242243
Si Si2 0.250247 0.563349 0.210516
Si Si3 0.941556 0.670757 0.042008
Si Si4 0.668236 0.668236 0.000000
Si Si5 0.419771 0.392177 0.291292
O O1 0.481497 0.054561 0.221046
O O2 0.304057 0.059720 0.343146
O O3 0.374525 0.868588 0.252326
O O4 0.268370 0.046791 0.154105
O O5 0.349999 0.650002 0.250000
O O6 0.294227 0.435047 0.247609
O O7 0.810707 0.655154 0.001281
O O8 0.022465 0.769603 0.991712
O O9 0.604765 0.615918 0.905482
O O10 0.515534 0.484467 0.250000
#
# Coordination Sequence:
#
# PCOD9549377 Si02
#       5
#     8   8   8   4   8
#     4  10  24  43  70 101 140 187 244 290 365 440
#     4  10  25  43  67 104 143 189 237 302 364 425
#     4  11  23  45  69 104 137 193 237 295 354 437
#     4  12  26  44  74  98 148 192 234 306 350 434
#     4  11  26  46  67 109 142 185 243 294 364 424
#
# _framework density 20.228756000000001
#
# number of rings (size 3 to 8) (size 9 to 14) (size 15 to 20)
#    0.000    1.333    3.333    0.000   12.444    3.556 
#    0.000    0.000    0.000    0.000    0.000    0.000 
#    0.000    0.000    0.000    0.000    0.000    0.000 
#
# Total GULP energy -200648.769928 kJ/mol
# GULP energy per Si atom -5573.576942 kJ/mol
# Density = 2.018271 g / cm^3
# Si number density = 20.228756 Si / 1000 Ang^3
#
#
#
# Elastic Constant Matrix: (Units=GPa)
#
#
# Indices 1 2 3 4 5 6 
#
# 1 70.7679 3.5777 47.1397 0.0000 0.0000 0.0000
# 2 3.5777 70.7635 47.1436 0.0000 0.0000 0.0000
# 3 47.1397 47.1436 187.8226 0.0000 0.0000 0.0000
# 4 0.0000 0.0000 0.0000 33.7458 0.0000 0.0000
# 5 0.0000 0.0000 0.0000 0.0000 33.7226 0.0000
# 6 0.0000 0.0000 0.0000 0.0000 0.0000 38.2630
#
#
#
# Elastic Compliance Matrix: (Units=1/GPa)
#
#
# Indices 1 2 3 4 5 6 
#
# 1 0.017307 0.002424 -0.004952 0.000000 0.000000 0.000000
# 2 0.002424 0.017309 -0.004953 0.000000 0.000000 0.000000
# 3 -0.004952 -0.004953 0.007810 0.000000 0.000000 0.000000
# 4 0.000000 0.000000 0.000000 0.029633 0.000000 0.000000
# 5 0.000000 0.000000 0.000000 0.000000 0.029654 0.000000
# 6 0.000000 0.000000 0.000000 0.000000 0.000000 0.026135
#
#
# Mechanical properties :
#
#
# Convention : Reuss Voigt Hill
#
# Bulk Modulus (GPa) = 36.41127 58.34178 47.37652
# Shear Modulus (GPa) = 32.90249 36.57914 34.74081
#
# Velocity S-wave (km/s) = 4.03739 4.25699 4.14865
# Velocity P-wave (km/s) = 6.30657 7.28466 6.81319
#
# Compressibility (1/GPa) = 0.02746402
#
# Stress axis : x y z
#
# Youngs Moduli (GPa) = 57.78065 57.77440 128.03705
#
# Poissons Ratio (x) = -0.14005 0.63406
# Poissons Ratio (y) = -0.14007 0.63416
# Poissons Ratio (z) = 0.28614 0.28615
#
# Static dielectric constant tensor:
#      x y z
#    x 1.603070 0.000000 0.000000 
#    y 0.000000 1.603310 0.000000 
#    z 0.000000 0.000000 1.734990 
# 
# From -- ./inp_files/1981.got.cif
#   From: 2010.05.17/outbox.cif.g08.bks.cpg/sg92_1_cif.got.tgz:1981.got - 2010.06.03 19:35:17.
