data_PCOD9549128
_publ_section_title
;
Structure prediction by ZEFSAII (Michael W. Deem and Ramdas Pophale) SiO2 
 PCOD9549128
Probable space group: P 41 21 2
;
_chemical_formula_sum "Si O2"
_cell_formula_units_Z 40
_cell_length_a 8.298601
_cell_length_b 8.298601
_cell_length_c 26.137374
_cell_angle_alpha 90.000000
_cell_angle_beta 90.000000
_cell_angle_gamma 90.000000
_cell_volume 1799.996747
_symmetry_space_group_name_H-M "P 41 21 2"
_symmetry_group_IT_number 92
_symmetry_cell_setting 'tetragonal'
loop_
_space_group_symop_operation_xyz
x,y,z
1/2-y,1/2+x,1/4+z
-x,-y,1/2+z
1/2+y,1/2-x,3/4+z
1/2+x,1/2-y,3/4-z
1/2-x,1/2+y,1/4-z
y,x,-z
-y,-x,1/2-z
loop_
_atom_site_type_symbol
_atom_site_label
_atom_site_fract_x
_atom_site_fract_y
_atom_site_fract_z
Si Si1 0.436770 0.120410 0.412942
Si Si2 0.398395 0.275964 0.087256
Si Si3 0.859010 0.674013 0.927883
Si Si4 0.884762 0.433679 0.504780
Si Si5 0.357916 0.659055 0.089236
O O1 0.300405 0.226152 0.439887
O O2 0.563668 0.213720 0.377711
O O3 0.328796 0.014768 0.374035
O O4 0.517255 0.007483 0.455342
O O5 0.447584 0.216625 0.031010
O O6 0.407943 0.469963 0.092377
O O7 0.265713 0.164284 0.208452
O O8 0.787591 0.495350 0.922374
O O9 0.003372 0.675592 0.968304
O O10 0.783756 0.773440 0.391556
#
# Coordination Sequence:
#
# PCOD9549128 Si02
#       5
#     8   8   8   8   8
#     4  10  22  40  62  91 125 161 211 263 317 383
#     4  10  21  39  60  88 122 163 208 257 315 376
#     4  11  23  40  63  91 124 165 208 261 321 378
#     4  10  22  37  59  90 120 157 207 252 308 380
#     4  11  22  40  63  88 125 164 207 263 316 381
#
# _framework density 22.222263999999999
#
# number of rings (size 3 to 8) (size 9 to 14) (size 15 to 20)
#    0.000    1.600    0.000    6.000    0.000    6.400 
#    0.000    2.000    0.000    9.600    0.000    0.000 
#    0.000    0.000    0.000    0.000    0.000    0.000 
#
# Total GULP energy -223291.765700 kJ/mol
# GULP energy per Si atom -5582.294143 kJ/mol
# Density = 2.217168 g / cm^3
# Si number density = 22.222264 Si / 1000 Ang^3
#
#
#
# Elastic Constant Matrix: (Units=GPa)
#
#
# Indices 1 2 3 4 5 6 
#
# 1 82.4572 16.4388 20.9571 0.0000 0.0000 0.0000
# 2 16.4388 82.4572 20.9571 0.0000 0.0000 0.0000
# 3 20.9571 20.9571 95.2397 0.0000 0.0000 0.0000
# 4 0.0000 0.0000 0.0000 21.3710 0.0000 0.0000
# 5 0.0000 0.0000 0.0000 0.0000 21.3710 0.0000
# 6 0.0000 0.0000 0.0000 0.0000 0.0000 37.8000
#
#
#
# Elastic Compliance Matrix: (Units=1/GPa)
#
#
# Indices 1 2 3 4 5 6 
#
# 1 0.013149 -0.001998 -0.002454 0.000000 0.000000 0.000000
# 2 -0.001998 0.013149 -0.002454 0.000000 0.000000 0.000000
# 3 -0.002454 -0.002454 0.011580 0.000000 0.000000 0.000000
# 4 0.000000 0.000000 0.000000 0.046792 0.000000 0.000000
# 5 0.000000 0.000000 0.000000 0.000000 0.046792 0.000000
# 6 0.000000 0.000000 0.000000 0.000000 0.000000 0.026455
#
#
# Mechanical properties :
#
#
# Convention : Reuss Voigt Hill
#
# Bulk Modulus (GPa) = 41.54972 41.87332 41.71152
# Shear Modulus (GPa) = 27.81611 29.56182 28.68896
#
# Velocity S-wave (km/s) = 3.54181 3.65126 3.59695
# Velocity P-wave (km/s) = 5.95515 6.05470 6.00513
#
# Compressibility (1/GPa) = 0.02406755
#
# Stress axis : x y z
#
# Youngs Moduli (GPa) = 76.04871 76.04871 86.35763
#
# Poissons Ratio (x) = 0.15193 0.21191
# Poissons Ratio (y) = 0.15193 0.21191
# Poissons Ratio (z) = 0.18661 0.18661
#
# Static dielectric constant tensor:
#      x y z
#    x 1.836350 0.000000 0.000000 
#    y 0.000000 1.836350 0.000000 
#    z 0.000000 0.000000 1.864070 
# 
# From -- ./inp_files/4149.got.cif
#   From: 2010.05.17/outbox.cif.g08.bks.cpg/sg92_3_cif.got.tgz:4149.got - 2010.06.03 19:35:17.
