data_PCOD9549209
_publ_section_title
;
Structure prediction by ZEFSAII (Michael W. Deem and Ramdas Pophale) SiO2 
 PCOD9549209
Probable space group: P 41 21 2
;
_chemical_formula_sum "Si O2"
_cell_formula_units_Z 40
_cell_length_a 17.965375
_cell_length_b 17.965375
_cell_length_c 6.524437
_cell_angle_alpha 90.000000
_cell_angle_beta 90.000000
_cell_angle_gamma 90.000000
_cell_volume 2105.792699
_symmetry_space_group_name_H-M "P 41 21 2"
_symmetry_group_IT_number 92
_symmetry_cell_setting 'tetragonal'
loop_
_space_group_symop_operation_xyz
x,y,z
1/2-y,1/2+x,1/4+z
-x,-y,1/2+z
1/2+y,1/2-x,3/4+z
1/2+x,1/2-y,3/4-z
1/2-x,1/2+y,1/4-z
y,x,-z
-y,-x,1/2-z
loop_
_atom_site_type_symbol
_atom_site_label
_atom_site_fract_x
_atom_site_fract_y
_atom_site_fract_z
Si Si1 0.790400 0.484225 0.069202
Si Si2 0.342505 0.809213 0.222206
Si Si3 0.355532 0.244749 0.594127
Si Si4 0.366783 0.743049 0.642191
Si Si5 0.454100 0.090803 0.153192
O O1 0.793746 0.414541 0.918048
O O2 0.758513 0.556939 0.954594
O O3 0.749367 0.451011 0.273537
O O4 0.871863 0.505920 0.152192
O O5 0.348335 0.747577 0.401525
O O6 0.356759 0.888241 0.329706
O O7 0.271976 0.825253 0.074250
O O8 0.318173 0.318173 0.500000
O O9 0.316245 0.176316 0.474854
O O10 0.326057 0.673944 0.750000
O O11 0.512881 0.079693 0.973408
#
# Coordination Sequence:
#
# PCOD9549209 Si02
#       5
#     8   8   8   8   8
#     4  11  21  37  54  87 118 159 200 245 300 361
#     4  11  21  38  59  81 121 162 199 240 301 360
#     4  10  22  37  58  88 119 154 201 256 302 361
#     4  10  22  40  59  84 118 159 207 250 290 361
#     4  12  20  32  51  84 124 164 198 230 283 361
#
# _framework density 18.995221000000001
#
# number of rings (size 3 to 8) (size 9 to 14) (size 15 to 20)
#    0.000    1.200    4.000    3.600    0.000    7.200 
#    0.000    0.000    0.000    0.000    5.200    0.000 
#    0.000    0.000    0.000    0.000    0.000    0.000 
#
# Total GULP energy -223035.121076 kJ/mol
# GULP energy per Si atom -5575.878027 kJ/mol
# Density = 1.895199 g / cm^3
# Si number density = 18.995221 Si / 1000 Ang^3
#
#
#
# Elastic Constant Matrix: (Units=GPa)
#
#
# Indices 1 2 3 4 5 6 
#
# 1 51.8070 20.7566 13.6510 0.0000 0.0000 0.0000
# 2 20.7566 51.8119 13.6540 0.0000 0.0000 0.0000
# 3 13.6510 13.6540 99.8960 0.0000 0.0000 0.0000
# 4 0.0000 0.0000 0.0000 29.4911 0.0000 0.0000
# 5 0.0000 0.0000 0.0000 0.0000 29.4909 0.0000
# 6 0.0000 0.0000 0.0000 0.0000 0.0000 25.4940
#
#
#
# Elastic Compliance Matrix: (Units=1/GPa)
#
#
# Indices 1 2 3 4 5 6 
#
# 1 0.023366 -0.008838 -0.001985 0.000000 0.000000 0.000000
# 2 -0.008838 0.023364 -0.001986 0.000000 0.000000 0.000000
# 3 -0.001985 -0.001986 0.010553 0.000000 0.000000 0.000000
# 4 0.000000 0.000000 0.000000 0.033909 0.000000 0.000000
# 5 0.000000 0.000000 0.000000 0.000000 0.033909 0.000000
# 6 0.000000 0.000000 0.000000 0.000000 0.000000 0.039225
#
#
# Mechanical properties :
#
#
# Convention : Reuss Voigt Hill
#
# Bulk Modulus (GPa) = 31.57905 33.29311 32.43608
# Shear Modulus (GPa) = 24.93780 27.25877 26.09828
#
# Velocity S-wave (km/s) = 3.62725 3.79229 3.71069
# Velocity P-wave (km/s) = 5.84837 6.06139 5.95583
#
# Compressibility (1/GPa) = 0.03166657
#
# Stress axis : x y z
#
# Youngs Moduli (GPa) = 42.79658 42.80010 94.75886
#
# Poissons Ratio (x) = 0.37826 0.18810
# Poissons Ratio (y) = 0.37823 0.18817
# Poissons Ratio (z) = 0.08495 0.08499
#
# Static dielectric constant tensor:
#      x y z
#    x 1.685220 0.000000 0.000000 
#    y 0.000000 1.685220 0.000000 
#    z 0.000000 0.000000 1.785770 
# 
# From -- ./inp_files/407.got.cif
#   From: 2010.05.17/outbox.cif.g08.bks.cpg/sg92_1_cif.got.tgz:407.got - 2010.06.03 19:35:17.
