data_PCOD9549540
_publ_section_title
;
Structure prediction by ZEFSAII (Michael W. Deem and Ramdas Pophale) SiO2 
 PCOD9549540
Probable space group: P 41 21 2
;
_chemical_formula_sum "Si O2"
_cell_formula_units_Z 40
_cell_length_a 14.221790
_cell_length_b 14.221790
_cell_length_c 8.968676
_cell_angle_alpha 90.000000
_cell_angle_beta 90.000000
_cell_angle_gamma 90.000000
_cell_volume 1813.998227
_symmetry_space_group_name_H-M "P 41 21 2"
_symmetry_group_IT_number 92
_symmetry_cell_setting 'tetragonal'
loop_
_space_group_symop_operation_xyz
x,y,z
1/2-y,1/2+x,1/4+z
-x,-y,1/2+z
1/2+y,1/2-x,3/4+z
1/2+x,1/2-y,3/4-z
1/2-x,1/2+y,1/4-z
y,x,-z
-y,-x,1/2-z
loop_
_atom_site_type_symbol
_atom_site_label
_atom_site_fract_x
_atom_site_fract_y
_atom_site_fract_z
Si Si1 0.993599 0.594020 0.336821
Si Si2 0.308649 0.174373 0.574836
Si Si3 0.373991 0.262702 0.868659
Si Si4 0.410666 0.450694 0.827286
Si Si5 0.703583 0.047245 0.064619
O O1 0.980304 0.559684 0.503708
O O2 0.889701 0.591124 0.264120
O O3 0.048183 0.690926 0.323420
O O4 0.213115 0.213115 0.500000
O O5 0.312851 0.213516 0.742334
O O6 0.392173 0.212610 0.466419
O O7 0.316031 0.062666 0.585033
O O8 0.431615 0.343747 0.781334
O O9 0.309326 0.309326 0.000000
O O10 0.467928 0.532073 0.750000
O O11 0.300239 0.454090 0.781718
O O12 0.443753 0.443753 0.000000
#
# Coordination Sequence:
#
# PCOD9549540 Si02
#       5
#     8   8   8   8   8
#     4  12  25  45  76 111 155 193 250 321 384 454
#     4  12  27  48  78 110 157 200 257 321 382 470
#     4  11  27  49  73 110 153 201 256 315 384 462
#     4  11  26  50  77 103 154 205 256 310 382 464
#     4  12  26  48  78 116 152 201 254 325 394 459
#
# _framework density 22.050737999999999
#
# number of rings (size 3 to 8) (size 9 to 14) (size 15 to 20)
#    0.000    0.400    4.000    4.200    5.600    0.000 
#    0.000    4.000    0.000    0.000    0.000    0.000 
#    0.000    0.000    0.000    0.000    0.000    0.000 
#
# Total GULP energy -223158.155926 kJ/mol
# GULP energy per Si atom -5578.953898 kJ/mol
# Density = 2.200055 g / cm^3
# Si number density = 22.050738 Si / 1000 Ang^3
#
#
#
# Elastic Constant Matrix: (Units=GPa)
#
#
# Indices 1 2 3 4 5 6 
#
# 1 126.3993 81.8409 56.7123 0.0000 0.0000 0.0000
# 2 81.8409 126.3977 56.7098 0.0000 0.0000 0.0000
# 3 56.7123 56.7098 79.7323 0.0000 0.0000 0.0000
# 4 0.0000 0.0000 0.0000 30.5091 0.0000 0.0000
# 5 0.0000 0.0000 0.0000 0.0000 30.5097 0.0000
# 6 0.0000 0.0000 0.0000 0.0000 0.0000 40.7955
#
#
#
# Elastic Compliance Matrix: (Units=1/GPa)
#
#
# Indices 1 2 3 4 5 6 
#
# 1 0.015141 -0.007302 -0.005576 0.000000 0.000000 0.000000
# 2 -0.007302 0.015141 -0.005575 0.000000 0.000000 0.000000
# 3 -0.005576 -0.005575 0.020474 0.000000 0.000000 0.000000
# 4 0.000000 0.000000 0.000000 0.032777 0.000000 0.000000
# 5 0.000000 0.000000 0.000000 0.000000 0.032776 0.000000
# 6 0.000000 0.000000 0.000000 0.000000 0.000000 0.024513
#
#
# Mechanical properties :
#
#
# Convention : Reuss Voigt Hill
#
# Bulk Modulus (GPa) = 72.20741 80.33948 76.27344
# Shear Modulus (GPa) = 27.42064 29.51396 28.46730
#
# Velocity S-wave (km/s) = 3.53019 3.66246 3.59693
# Velocity P-wave (km/s) = 7.03089 7.37549 7.20525
#
# Compressibility (1/GPa) = 0.01384899
#
# Stress axis : x y z
#
# Youngs Moduli (GPa) = 66.04520 66.04677 48.84344
#
# Poissons Ratio (x) = 0.48227 0.27236
# Poissons Ratio (y) = 0.48225 0.27231
# Poissons Ratio (z) = 0.36828 0.36822
#
# Static dielectric constant tensor:
#      x y z
#    x 1.915500 0.000000 0.000000 
#    y 0.000000 1.915510 0.000000 
#    z 0.000000 0.000000 1.902430 
# 
# From -- ./inp_files/1331.got.cif
#   From: 2010.05.17/outbox.cif.g08.bks.cpg/sg92_1_cif.got.tgz:1331.got - 2010.06.03 19:35:17.
