data_PCOD9549215
_publ_section_title
;
Structure prediction by ZEFSAII (Michael W. Deem and Ramdas Pophale) SiO2 
 PCOD9549215
Probable space group: P 41 21 2
;
_chemical_formula_sum "Si O2"
_cell_formula_units_Z 48
_cell_length_a 11.304628
_cell_length_b 11.304628
_cell_length_c 16.847470
_cell_angle_alpha 90.000000
_cell_angle_beta 90.000000
_cell_angle_gamma 90.000000
_cell_volume 2153.015929
_symmetry_space_group_name_H-M "P 41 21 2"
_symmetry_group_IT_number 92
_symmetry_cell_setting 'tetragonal'
loop_
_space_group_symop_operation_xyz
x,y,z
1/2-y,1/2+x,1/4+z
-x,-y,1/2+z
1/2+y,1/2-x,3/4+z
1/2+x,1/2-y,3/4-z
1/2-x,1/2+y,1/4-z
y,x,-z
-y,-x,1/2-z
loop_
_atom_site_type_symbol
_atom_site_label
_atom_site_fract_x
_atom_site_fract_y
_atom_site_fract_z
Si Si1 0.306395 0.054145 0.293452
Si Si2 0.490870 0.898218 0.381311
Si Si3 0.639065 0.261848 0.370975
Si Si4 0.568941 0.559905 0.128217
Si Si5 0.074448 0.925553 0.250000
Si Si6 0.959543 0.307530 0.035720
Si Si7 0.195867 0.804134 0.750000
O O1 0.346190 0.085110 0.204123
O O2 0.243713 0.158038 0.341613
O O3 0.417216 0.004401 0.341639
O O4 0.205631 0.953908 0.279299
O O5 0.518630 0.811789 0.308105
O O6 0.613341 0.941766 0.420358
O O7 0.548600 0.358430 0.336652
O O8 0.625827 0.162892 0.439530
O O9 0.681494 0.187175 0.295200
O O10 0.541547 0.673167 0.181591
O O11 0.669559 0.599967 0.065600
O O12 0.461961 0.512170 0.073466
#
# Coordination Sequence:
#
# PCOD9549215 Si02
#       7
#     8   8   8   8   4   8   4
#     4  10  23  44  63  94 127 170 211 269 318 388
#     4  10  24  42  63  93 128 171 217 259 328 396
#     4  10  22  38  65  93 127 166 208 270 317 373
#     4   9  20  40  62  93 124 166 209 260 320 377
#     4   9  20  42  68  87 128 160 212 265 320 370
#     4  10  23  39  65  92 127 170 215 261 322 387
#     4   9  20  36  58  93 124 154 200 257 312 372
#
# _framework density 22.294307
#
# number of rings (size 3 to 8) (size 9 to 14) (size 15 to 20)
#    0.000    2.333    0.000    0.000   14.000    4.000 
#    9.000    0.000    0.000    0.000    0.000    0.000 
#    0.000    0.000    0.000    0.000    0.000    0.000 
#
# Total GULP energy -267586.393590 kJ/mol
# GULP energy per Si atom -5574.716533 kJ/mol
# Density = 2.224356 g / cm^3
# Si number density = 22.294307 Si / 1000 Ang^3
#
#
#
# Elastic Constant Matrix: (Units=GPa)
#
#
# Indices 1 2 3 4 5 6 
#
# 1 54.9763 1.4540 32.6260 0.0000 0.0000 0.0000
# 2 1.4540 54.9759 32.6265 0.0000 0.0000 0.0000
# 3 32.6260 32.6265 117.6947 0.0000 0.0000 0.0000
# 4 0.0000 0.0000 0.0000 9.3610 0.0000 0.0000
# 5 0.0000 0.0000 0.0000 0.0000 9.3613 0.0000
# 6 0.0000 0.0000 0.0000 0.0000 0.0000 17.0806
#
#
#
# Elastic Compliance Matrix: (Units=1/GPa)
#
#
# Indices 1 2 3 4 5 6 
#
# 1 0.022382 0.003699 -0.007230 0.000000 0.000000 0.000000
# 2 0.003699 0.022383 -0.007230 0.000000 0.000000 0.000000
# 3 -0.007230 -0.007230 0.012505 0.000000 0.000000 0.000000
# 4 0.000000 0.000000 0.000000 0.106826 0.000000 0.000000
# 5 0.000000 0.000000 0.000000 0.000000 0.106823 0.000000
# 6 0.000000 0.000000 0.000000 0.000000 0.000000 0.058546
#
#
# Mechanical properties :
#
#
# Convention : Reuss Voigt Hill
#
# Bulk Modulus (GPa) = 27.97379 40.11775 34.04577
# Shear Modulus (GPa) = 13.77777 17.88995 15.83386
#
# Velocity S-wave (km/s) = 2.48865 2.83582 2.66789
# Velocity P-wave (km/s) = 4.56427 5.36248 4.97939
#
# Compressibility (1/GPa) = 0.03574775
#
# Stress axis : x y z
#
# Youngs Moduli (GPa) = 44.67780 44.67707 79.96763
#
# Poissons Ratio (x) = -0.16525 0.57816
# Poissons Ratio (y) = -0.16525 0.57818
# Poissons Ratio (z) = 0.32302 0.32302
#
# Static dielectric constant tensor:
#      x y z
#    x 1.878530 0.000000 0.000000 
#    y 0.000000 1.878530 0.000000 
#    z 0.000000 0.000000 1.871170 
# 
# From -- ./inp_files/3183.got.cif
#   From: 2010.05.17/outbox.cif.g08.bks.cpg/sg92_2_cif.got.tgz:3183.got - 2010.06.03 19:35:17.
