data_PCOD9549444
_publ_section_title
;
Structure prediction by ZEFSAII (Michael W. Deem and Ramdas Pophale) SiO2 
 PCOD9549444
Probable space group: P 41 21 2
;
_chemical_formula_sum "Si O2"
_cell_formula_units_Z 32
_cell_length_a 8.956520
_cell_length_b 8.956520
_cell_length_c 14.523113
_cell_angle_alpha 90.000000
_cell_angle_beta 90.000000
_cell_angle_gamma 90.000000
_cell_volume 1165.033240
_symmetry_space_group_name_H-M "P 41 21 2"
_symmetry_group_IT_number 92
_symmetry_cell_setting 'tetragonal'
loop_
_space_group_symop_operation_xyz
x,y,z
1/2-y,1/2+x,1/4+z
-x,-y,1/2+z
1/2+y,1/2-x,3/4+z
1/2+x,1/2-y,3/4-z
1/2-x,1/2+y,1/4-z
y,x,-z
-y,-x,1/2-z
loop_
_atom_site_type_symbol
_atom_site_label
_atom_site_fract_x
_atom_site_fract_y
_atom_site_fract_z
Si Si1 0.269639 0.933198 0.049251
Si Si2 0.393571 0.609692 0.038780
Si Si3 0.635642 0.978923 0.845262
Si Si4 0.484477 0.284476 0.280978
O O1 0.362165 0.780505 0.067521
O O2 0.166452 0.994436 0.133029
O O3 0.152695 0.899968 0.967175
O O4 0.391259 0.060962 0.035788
O O5 0.553705 0.553705 0.000000
O O6 0.284858 0.581725 0.951377
O O7 0.524777 0.837958 0.860054
O O8 0.680701 0.048629 0.942042
O O9 0.632264 0.367737 0.250000
#
# Coordination Sequence:
#
# PCOD9549444 Si02
#       4
#     8   8   8   8
#     4  11  22  42  70 100 130 187 227 284 340 417
#     4  11  21  41  69 101 140 177 234 283 344 410
#     4  11  23  46  67 101 141 177 235 285 337 417
#     4  11  26  46  69 103 140 183 226 290 354 409
#
# _framework density 27.467030000000001
#
# number of rings (size 3 to 8) (size 9 to 14) (size 15 to 20)
#    0.000    1.000    7.500    0.000    0.000    8.000 
#    4.500    0.000    0.000    0.000    0.000    0.000 
#    0.000    0.000    0.000    0.000    0.000    0.000 
#
# Total GULP energy -179146.114865 kJ/mol
# GULP energy per Si atom -5598.316090 kJ/mol
# Density = 2.740451 g / cm^3
# Si number density = 27.467030 Si / 1000 Ang^3
#
#
#
# Elastic Constant Matrix: (Units=GPa)
#
#
# Indices 1 2 3 4 5 6 
#
# 1 95.7147 12.0722 6.3022 0.0000 0.0000 0.0000
# 2 12.0722 95.7181 6.3020 0.0000 0.0000 0.0000
# 3 6.3022 6.3020 48.5883 0.0000 0.0000 0.0000
# 4 0.0000 0.0000 0.0000 37.8900 0.0000 0.0000
# 5 0.0000 0.0000 0.0000 0.0000 37.8898 0.0000
# 6 0.0000 0.0000 0.0000 0.0000 0.0000 61.1656
#
#
#
# Elastic Compliance Matrix: (Units=1/GPa)
#
#
# Indices 1 2 3 4 5 6 
#
# 1 0.010688 -0.001268 -0.001222 0.000000 0.000000 0.000000
# 2 -0.001268 0.010688 -0.001222 0.000000 0.000000 0.000000
# 3 -0.001222 -0.001222 0.020898 0.000000 0.000000 0.000000
# 4 0.000000 0.000000 0.000000 0.026392 0.000000 0.000000
# 5 0.000000 0.000000 0.000000 0.000000 0.026392 0.000000
# 6 0.000000 0.000000 0.000000 0.000000 0.000000 0.016349
#
#
# Mechanical properties :
#
#
# Convention : Reuss Voigt Hill
#
# Bulk Modulus (GPa) = 28.69337 32.15264 30.42301
# Shear Modulus (GPa) = 38.32977 41.74539 40.03758
#
# Velocity S-wave (km/s) = 3.73967 3.90274 3.82207
# Velocity P-wave (km/s) = 5.39592 5.66037 5.52973
#
# Compressibility (1/GPa) = 0.03485125
#
# Stress axis : x y z
#
# Youngs Moduli (GPa) = 93.56247 93.56586 47.85136
#
# Poissons Ratio (x) = 0.11860 0.05847
# Poissons Ratio (y) = 0.11860 0.05846
# Poissons Ratio (z) = 0.11432 0.11432
#
# Static dielectric constant tensor:
#      x y z
#    x 2.159300 0.000000 0.000000 
#    y 0.000000 2.159300 0.000000 
#    z 0.000000 0.000000 2.137550 
# 
# From -- ./inp_files/3366.got.cif
#   From: 2010.05.17/outbox.cif.g08.bks.cpg/sg92_2_cif.got.tgz:3366.got - 2010.06.03 19:35:17.
