data_PCOD9549044
_publ_section_title
;
Structure prediction by ZEFSAII (Michael W. Deem and Ramdas Pophale) SiO2 
 PCOD9549044
Probable space group: P 41 21 2
;
_chemical_formula_sum "Si O2"
_cell_formula_units_Z 44
_cell_length_a 8.539982
_cell_length_b 8.539982
_cell_length_c 27.817282
_cell_angle_alpha 90.000000
_cell_angle_beta 90.000000
_cell_angle_gamma 90.000000
_cell_volume 2028.750332
_symmetry_space_group_name_H-M "P 41 21 2"
_symmetry_group_IT_number 92
_symmetry_cell_setting 'tetragonal'
loop_
_space_group_symop_operation_xyz
x,y,z
1/2-y,1/2+x,1/4+z
-x,-y,1/2+z
1/2+y,1/2-x,3/4+z
1/2+x,1/2-y,3/4-z
1/2-x,1/2+y,1/4-z
y,x,-z
-y,-x,1/2-z
loop_
_atom_site_type_symbol
_atom_site_label
_atom_site_fract_x
_atom_site_fract_y
_atom_site_fract_z
Si Si1 0.775731 0.220468 0.423012
Si Si2 0.907872 0.498857 0.468408
Si Si3 0.064537 0.858036 0.837846
Si Si4 0.184677 0.945719 0.023907
Si Si5 0.231035 0.574379 0.788662
Si Si6 0.950440 0.049561 0.750000
O O1 0.892513 0.368991 0.427090
O O2 0.856065 0.094661 0.387997
O O3 0.608188 0.285249 0.407221
O O4 0.765685 0.157607 0.477431
O O5 0.731539 0.525678 0.487599
O O6 0.986762 0.659668 0.452473
O O7 0.007416 0.419774 0.510984
O O8 0.174772 0.713887 0.821885
O O9 0.049546 0.987113 0.795931
O O10 0.072696 0.835045 0.056084
O O11 0.087129 0.087129 0.000000
O O12 0.344796 0.655205 0.750000
#
# Coordination Sequence:
#
# PCOD9549044 Si02
#       6
#     8   8   8   8   8   4
#     4  10  24  37  62  93 124 165 209 267 299 380
#     4  10  20  41  62  90 118 163 207 256 318 371
#     4  11  22  40  61  92 128 160 218 251 315 378
#     4  10  20  38  65  89 122 162 208 256 317 368
#     4  10  21  35  63  89 118 166 208 242 307 380
#     4  10  22  40  68  86 124 172 198 262 324 384
#
# _framework density 21.688229
#
# number of rings (size 3 to 8) (size 9 to 14) (size 15 to 20)
#    0.000    1.818    3.636    0.000    7.636    0.000 
#    0.000    1.818    0.000    0.000    0.000    0.000 
#    0.000    0.000    0.000    0.000    0.000    0.000 
#
# Total GULP energy -245634.062066 kJ/mol
# GULP energy per Si atom -5582.592320 kJ/mol
# Density = 2.163887 g / cm^3
# Si number density = 21.688229 Si / 1000 Ang^3
#
#
#
# Elastic Constant Matrix: (Units=GPa)
#
#
# Indices 1 2 3 4 5 6 
#
# 1 78.9316 21.5028 0.0760 0.0000 0.0000 0.0000
# 2 21.5028 78.9319 0.0762 0.0000 0.0000 0.0000
# 3 0.0760 0.0762 30.4947 0.0000 0.0000 0.0000
# 4 0.0000 0.0000 0.0000 18.9887 0.0000 0.0000
# 5 0.0000 0.0000 0.0000 0.0000 18.9886 0.0000
# 6 0.0000 0.0000 0.0000 0.0000 0.0000 46.1629
#
#
#
# Elastic Compliance Matrix: (Units=1/GPa)
#
#
# Indices 1 2 3 4 5 6 
#
# 1 0.013685 -0.003728 -0.000025 0.000000 0.000000 0.000000
# 2 -0.003728 0.013685 -0.000025 0.000000 0.000000 0.000000
# 3 -0.000025 -0.000025 0.032793 0.000000 0.000000 0.000000
# 4 0.000000 0.000000 0.000000 0.052663 0.000000 0.000000
# 5 0.000000 0.000000 0.000000 0.000000 0.052663 0.000000
# 6 0.000000 0.000000 0.000000 0.000000 0.000000 0.021662
#
#
# Mechanical properties :
#
#
# Convention : Reuss Voigt Hill
#
# Bulk Modulus (GPa) = 19.00893 25.74091 22.37492
# Shear Modulus (GPa) = 23.55806 27.94160 25.74983
#
# Velocity S-wave (km/s) = 3.29935 3.59323 3.44942
# Velocity P-wave (km/s) = 4.82680 5.39531 5.11895
#
# Compressibility (1/GPa) = 0.05260685
#
# Stress axis : x y z
#
# Youngs Moduli (GPa) = 73.07365 73.07393 30.49460
#
# Poissons Ratio (x) = 0.27242 0.00076
# Poissons Ratio (y) = 0.27242 0.00076
# Poissons Ratio (z) = 0.00181 0.00182
#
# Static dielectric constant tensor:
#      x y z
#    x 1.820240 0.000000 0.000000 
#    y 0.000000 1.820240 0.000000 
#    z 0.000000 0.000000 1.842780 
# 
# From -- ./inp_files/4392.got.cif
#   From: 2010.05.17/outbox.cif.g08.bks.cpg/sg92_3_cif.got.tgz:4392.got - 2010.06.03 19:35:17.
