data_PCOD9549118
_publ_section_title
;
Structure prediction by ZEFSAII (Michael W. Deem and Ramdas Pophale) SiO2 
 PCOD9549118
Probable space group: P 41 21 2
;
_chemical_formula_sum "Si O2"
_cell_formula_units_Z 36
_cell_length_a 15.561572
_cell_length_b 15.561572
_cell_length_c 8.655263
_cell_angle_alpha 90.000000
_cell_angle_beta 90.000000
_cell_angle_gamma 90.000000
_cell_volume 2095.980326
_symmetry_space_group_name_H-M "P 41 21 2"
_symmetry_group_IT_number 92
_symmetry_cell_setting 'tetragonal'
loop_
_space_group_symop_operation_xyz
x,y,z
1/2-y,1/2+x,1/4+z
-x,-y,1/2+z
1/2+y,1/2-x,3/4+z
1/2+x,1/2-y,3/4-z
1/2-x,1/2+y,1/4-z
y,x,-z
-y,-x,1/2-z
loop_
_atom_site_type_symbol
_atom_site_label
_atom_site_fract_x
_atom_site_fract_y
_atom_site_fract_z
Si Si1 0.684584 0.190774 0.459665
Si Si2 0.207518 0.961338 0.480683
Si Si3 0.802436 0.197565 0.750000
Si Si4 0.347222 0.347222 0.500000
Si Si5 0.982995 0.604614 0.908499
Si Si6 0.352564 0.647437 0.750000
O O1 0.723980 0.199377 0.629204
O O2 0.759920 0.152535 0.350995
O O3 0.599586 0.133739 0.442721
O O4 0.663931 0.283219 0.384816
O O5 0.201620 0.889841 0.348666
O O6 0.157872 0.924642 0.630351
O O7 0.307153 0.975273 0.527893
O O8 0.166110 0.052341 0.438926
O O9 0.048606 0.552227 0.801420
#
# Coordination Sequence:
#
# PCOD9549118 Si02
#       6
#     8   8   4   4   8   4
#     4   9  19  39  55  81 114 156 183 230 294 352
#     4  10  21  38  59  84 112 158 189 244 285 347
#     4  10  22  37  60  84 116 153 196 230 286 358
#     4   9  16  37  58  72 112 151 189 222 298 342
#     4  11  23  38  59  90 121 152 194 247 292 343
#     4   9  20  38  60  80 114 150 199 232 294 338
#
# _framework density 17.175733999999999
#
# number of rings (size 3 to 8) (size 9 to 14) (size 15 to 20)
#    0.000    2.222    2.222    0.000    6.222    0.889 
#    4.000    0.000    0.000    0.000    0.000    0.000 
#    0.000    0.000    0.000    0.000    0.000    0.000 
#
# Total GULP energy -200814.822298 kJ/mol
# GULP energy per Si atom -5578.189508 kJ/mol
# Density = 1.713664 g / cm^3
# Si number density = 17.175734 Si / 1000 Ang^3
#
#
#
# Elastic Constant Matrix: (Units=GPa)
#
#
# Indices 1 2 3 4 5 6 
#
# 1 75.1325 55.4241 37.8911 0.0000 0.0000 0.0000
# 2 55.4241 75.1329 37.8918 0.0000 0.0000 0.0000
# 3 37.8911 37.8918 93.4898 0.0000 0.0000 0.0000
# 4 0.0000 0.0000 0.0000 19.5007 0.0000 0.0000
# 5 0.0000 0.0000 0.0000 0.0000 19.5001 0.0000
# 6 0.0000 0.0000 0.0000 0.0000 0.0000 30.7668
#
#
#
# Elastic Compliance Matrix: (Units=1/GPa)
#
#
# Indices 1 2 3 4 5 6 
#
# 1 0.030378 -0.020362 -0.004059 0.000000 0.000000 0.000000
# 2 -0.020362 0.030378 -0.004060 0.000000 0.000000 0.000000
# 3 -0.004059 -0.004060 0.013987 0.000000 0.000000 0.000000
# 4 0.000000 0.000000 0.000000 0.051280 0.000000 0.000000
# 5 0.000000 0.000000 0.000000 0.000000 0.051282 0.000000
# 6 0.000000 0.000000 0.000000 0.000000 0.000000 0.032503
#
#
# Mechanical properties :
#
#
# Convention : Reuss Voigt Hill
#
# Bulk Modulus (GPa) = 56.24009 56.24100 56.24054
# Shear Modulus (GPa) = 18.33552 21.45674 19.89613
#
# Velocity S-wave (km/s) = 3.27084 3.53830 3.40720
# Velocity P-wave (km/s) = 6.86146 7.03622 6.94938
#
# Compressibility (1/GPa) = 0.01778091
#
# Stress axis : x y z
#
# Youngs Moduli (GPa) = 32.91903 32.91897 71.49536
#
# Poissons Ratio (x) = 0.67029 0.29022
# Poissons Ratio (y) = 0.67029 0.29024
# Poissons Ratio (z) = 0.13363 0.13364
#
# Static dielectric constant tensor:
#      x y z
#    x 1.573540 0.000000 0.000000 
#    y 0.000000 1.573540 0.000000 
#    z 0.000000 0.000000 1.557160 
# 
# From -- ./inp_files/1261.got.cif
#   From: 2010.05.17/outbox.cif.g08.bks.cpg/sg92_1_cif.got.tgz:1261.got - 2010.06.03 19:35:17.
