data_PCOD9549325
_publ_section_title
;
Structure prediction by ZEFSAII (Michael W. Deem and Ramdas Pophale) SiO2 
 PCOD9549325
Probable space group: P 41 21 2
;
_chemical_formula_sum "Si O2"
_cell_formula_units_Z 48
_cell_length_a 10.611498
_cell_length_b 10.611498
_cell_length_c 18.193007
_cell_angle_alpha 90.000000
_cell_angle_beta 90.000000
_cell_angle_gamma 90.000000
_cell_volume 2048.603355
_symmetry_space_group_name_H-M "P 41 21 2"
_symmetry_group_IT_number 92
_symmetry_cell_setting 'tetragonal'
loop_
_space_group_symop_operation_xyz
x,y,z
1/2-y,1/2+x,1/4+z
-x,-y,1/2+z
1/2+y,1/2-x,3/4+z
1/2+x,1/2-y,3/4-z
1/2-x,1/2+y,1/4-z
y,x,-z
-y,-x,1/2-z
loop_
_atom_site_type_symbol
_atom_site_label
_atom_site_fract_x
_atom_site_fract_y
_atom_site_fract_z
Si Si1 0.800600 0.169821 0.403209
Si Si2 0.426765 0.728550 0.801368
Si Si3 0.772164 0.021037 0.757840
Si Si4 0.876469 0.444220 0.842026
Si Si5 0.279774 0.725458 0.441360
Si Si6 0.495759 0.145555 0.152243
O O1 0.702011 0.224934 0.342194
O O2 0.952105 0.194488 0.396577
O O3 0.773690 0.229088 0.481936
O O4 0.748128 0.028184 0.415159
O O5 0.392337 0.607664 0.750000
O O6 0.461632 0.825669 0.735172
O O7 0.860555 0.139446 0.750000
O O8 0.637965 0.069235 0.725315
O O9 0.740066 0.963619 0.837718
O O10 0.840583 0.911288 0.710835
O O11 0.832475 0.345868 0.902928
O O12 0.999681 0.524087 0.864870
O O13 0.328154 0.846275 0.397136
#
# Coordination Sequence:
#
# PCOD9549325 Si02
#       6
#     8   8   8   8   8   8
#     4  11  27  45  73 109 150 200 255 320 394 475
#     4  11  27  49  75 111 157 207 259 331 398 474
#     4  11  22  42  71 100 143 196 250 322 396 469
#     4  11  24  41  70 104 143 194 254 316 387 485
#     4  10  23  41  62 104 137 184 247 305 380 471
#     4  10  23  43  70  98 148 198 247 315 399 470
#
# _framework density 23.430596000000001
#
# number of rings (size 3 to 8) (size 9 to 14) (size 15 to 20)
#    0.000    1.333    1.667    2.000   11.667    3.333 
#    3.000    0.000    0.000    0.000    0.000    0.000 
#    0.000    0.000    0.000    0.000    0.000    0.000 
#
# Total GULP energy -267485.382657 kJ/mol
# GULP energy per Si atom -5572.612139 kJ/mol
# Density = 2.337727 g / cm^3
# Si number density = 23.430596 Si / 1000 Ang^3
#
#
#
# Elastic Constant Matrix: (Units=GPa)
#
#
# Indices 1 2 3 4 5 6 
#
# 1 75.2663 21.7926 21.6348 0.0000 0.0000 0.0000
# 2 21.7926 75.2675 21.6345 0.0000 0.0000 0.0000
# 3 21.6348 21.6345 84.8560 0.0000 0.0000 0.0000
# 4 0.0000 0.0000 0.0000 35.6748 0.0000 0.0000
# 5 0.0000 0.0000 0.0000 0.0000 35.6749 0.0000
# 6 0.0000 0.0000 0.0000 0.0000 0.0000 34.0544
#
#
#
# Elastic Compliance Matrix: (Units=1/GPa)
#
#
# Indices 1 2 3 4 5 6 
#
# 1 0.015163 -0.003538 -0.002964 0.000000 0.000000 0.000000
# 2 -0.003538 0.015162 -0.002964 0.000000 0.000000 0.000000
# 3 -0.002964 -0.002964 0.013296 0.000000 0.000000 0.000000
# 4 0.000000 0.000000 0.000000 0.028031 0.000000 0.000000
# 5 0.000000 0.000000 0.000000 0.000000 0.028031 0.000000
# 6 0.000000 0.000000 0.000000 0.000000 0.000000 0.029365
#
#
# Mechanical properties :
#
#
# Convention : Reuss Voigt Hill
#
# Bulk Modulus (GPa) = 40.50297 40.61263 40.55780
# Shear Modulus (GPa) = 32.00856 32.43602 32.22229
#
# Velocity S-wave (km/s) = 3.70009 3.72471 3.71242
# Velocity P-wave (km/s) = 5.96474 5.98906 5.97691
#
# Compressibility (1/GPa) = 0.02468955
#
# Stress axis : x y z
#
# Youngs Moduli (GPa) = 65.95214 65.95335 75.21118
#
# Poissons Ratio (x) = 0.23336 0.22291
# Poissons Ratio (y) = 0.23335 0.22290
# Poissons Ratio (z) = 0.19547 0.19546
#
# Static dielectric constant tensor:
#      x y z
#    x 2.010740 0.000000 0.000000 
#    y 0.000000 2.010740 0.000000 
#    z 0.000000 0.000000 1.922290 
# 
# From -- ./inp_files/3130.got.cif
#   From: 2010.05.17/outbox.cif.g08.bks.cpg/sg92_2_cif.got.tgz:3130.got - 2010.06.03 19:35:17.
