data_PCOD9549009
_publ_section_title
;
Structure prediction by ZEFSAII (Michael W. Deem and Ramdas Pophale) SiO2 
 PCOD9549009
Probable space group: P 41 21 2
;
_chemical_formula_sum "Si O2"
_cell_formula_units_Z 40
_cell_length_a 15.929384
_cell_length_b 15.929384
_cell_length_c 7.483187
_cell_angle_alpha 90.000000
_cell_angle_beta 90.000000
_cell_angle_gamma 90.000000
_cell_volume 1898.823340
_symmetry_space_group_name_H-M "P 41 21 2"
_symmetry_group_IT_number 92
_symmetry_cell_setting 'tetragonal'
loop_
_space_group_symop_operation_xyz
x,y,z
1/2-y,1/2+x,1/4+z
-x,-y,1/2+z
1/2+y,1/2-x,3/4+z
1/2+x,1/2-y,3/4-z
1/2-x,1/2+y,1/4-z
y,x,-z
-y,-x,1/2-z
loop_
_atom_site_type_symbol
_atom_site_label
_atom_site_fract_x
_atom_site_fract_y
_atom_site_fract_z
Si Si1 0.106095 0.778526 0.362863
Si Si2 0.224888 0.207371 0.711309
Si Si3 0.138643 0.627354 0.131749
Si Si4 0.029345 0.249860 0.134951
Si Si5 0.102939 0.469982 0.553608
O O1 0.144591 0.855410 0.250000
O O2 0.182101 0.738564 0.480905
O O3 0.087729 0.703887 0.221831
O O4 0.028710 0.798038 0.493490
O O5 0.213068 0.213068 0.500000
O O6 0.165134 0.273575 0.809518
O O7 0.209694 0.112787 0.782409
O O8 0.167244 0.563376 0.282617
O O9 0.091662 0.585159 0.969228
O O10 0.973174 0.296075 0.283468
O O11 0.057277 0.432469 0.380366
#
# Coordination Sequence:
#
# PCOD9549009 Si02
#       5
#     8   8   8   8   8
#     4   9  19  34  54  80 111 145 187 238 287 336
#     4  10  20  36  56  80 114 153 194 233 275 344
#     4  10  20  36  54  77 114 154 192 231 277 346
#     4  11  20  34  54  80 112 151 191 234 286 340
#     4  12  22  32  50  81 121 157 190 234 291 352
#
# _framework density 21.065674999999999
#
# number of rings (size 3 to 8) (size 9 to 14) (size 15 to 20)
#    0.000    1.600    0.000    9.000    0.000    0.000 
#    0.000    0.000    0.000    0.000    0.000   30.800 
#    0.000    0.000    0.000    0.000    0.000    0.000 
#
# Total GULP energy -223362.213490 kJ/mol
# GULP energy per Si atom -5584.055337 kJ/mol
# Density = 2.101773 g / cm^3
# Si number density = 21.065675 Si / 1000 Ang^3
#
#
#
# Elastic Constant Matrix: (Units=GPa)
#
#
# Indices 1 2 3 4 5 6 
#
# 1 50.8233 34.5236 23.4925 0.0000 0.0000 0.0000
# 2 34.5236 50.8218 23.4925 0.0000 0.0000 0.0000
# 3 23.4925 23.4925 105.7015 0.0000 0.0000 0.0000
# 4 0.0000 0.0000 0.0000 34.0165 0.0000 0.0000
# 5 0.0000 0.0000 0.0000 0.0000 34.0166 0.0000
# 6 0.0000 0.0000 0.0000 0.0000 0.0000 29.9565
#
#
#
# Elastic Compliance Matrix: (Units=1/GPa)
#
#
# Indices 1 2 3 4 5 6 
#
# 1 0.037351 -0.024002 -0.002967 0.000000 0.000000 0.000000
# 2 -0.024002 0.037353 -0.002967 0.000000 0.000000 0.000000
# 3 -0.002967 -0.002967 0.010780 0.000000 0.000000 0.000000
# 4 0.000000 0.000000 0.000000 0.029398 0.000000 0.000000
# 5 0.000000 0.000000 0.000000 0.000000 0.029397 0.000000
# 6 0.000000 0.000000 0.000000 0.000000 0.000000 0.033382
#
#
# Mechanical properties :
#
#
# Convention : Reuss Voigt Hill
#
# Bulk Modulus (GPa) = 39.04459 41.15156 40.09807
# Shear Modulus (GPa) = 20.31946 27.98710 24.15328
#
# Velocity S-wave (km/s) = 3.10913 3.64890 3.38978
# Velocity P-wave (km/s) = 5.60927 6.10982 5.86489
#
# Compressibility (1/GPa) = 0.02561175
#
# Stress axis : x y z
#
# Youngs Moduli (GPa) = 26.77275 26.77186 92.76830
#
# Poissons Ratio (x) = 0.64257 0.27525
# Poissons Ratio (y) = 0.64259 0.27527
# Poissons Ratio (z) = 0.07944 0.07944
#
# Static dielectric constant tensor:
#      x y z
#    x 1.787530 0.000000 0.000000 
#    y 0.000000 1.787530 0.000000 
#    z 0.000000 0.000000 1.824910 
# 
# From -- ./inp_files/1346.got.cif
#   From: 2010.05.17/outbox.cif.g08.bks.cpg/sg92_1_cif.got.tgz:1346.got - 2010.06.03 19:35:17.
