data_PCOD9549635
_publ_section_title
;
Structure prediction by ZEFSAII (Michael W. Deem and Ramdas Pophale) SiO2 
 PCOD9549635
Probable space group: P 42 2 2
;
_chemical_formula_sum "Si O2"
_cell_formula_units_Z 40
_cell_length_a 14.726346
_cell_length_b 14.726346
_cell_length_c 8.937616
_cell_angle_alpha 90.000000
_cell_angle_beta 90.000000
_cell_angle_gamma 90.000000
_cell_volume 1938.258476
_symmetry_space_group_name_H-M "P 42 2 2"
_symmetry_group_IT_number 93
_symmetry_cell_setting 'tetragonal'
loop_
_space_group_symop_operation_xyz
x,y,z
-y,x,1/2+z
-x,-y,z
y,-x,1/2+z
x,-y,-z
-x,y,-z
y,x,1/2-z
-y,-x,1/2-z
loop_
_atom_site_type_symbol
_atom_site_label
_atom_site_fract_x
_atom_site_fract_y
_atom_site_fract_z
Si Si1 0.210162 0.000000 0.500000
Si Si2 0.820336 0.150696 0.085833
Si Si3 0.286079 0.340306 0.914207
Si Si4 0.325100 0.000000 0.000000
Si Si5 0.083425 0.646579 0.787883
Si Si6 0.707184 0.292816 0.750000
Si Si7 0.839556 0.500000 0.000000
O O1 0.150161 0.910076 0.512692
O O2 0.279968 0.984132 0.637513
O O3 0.860542 0.139459 0.250000
O O4 0.779000 0.252024 0.082139
O O5 0.742490 0.080992 0.047141
O O6 0.335258 0.335258 0.750000
O O7 0.327980 0.332650 0.086714
O O8 0.226002 0.430904 0.911939
O O9 0.382512 0.037106 0.135661
O O10 0.184345 0.687653 0.754789
O O11 0.100848 0.563192 0.895727
#
# Coordination Sequence:
#
# PCOD9549635 Si02
#       7
#     4   8   8   4   8   4   4
#     4  12  20  38  60  82 132 178 210 286 322 382
#     4  11  22  37  60  89 130 179 223 272 338 384
#     4  10  21  40  68  92 131 170 222 269 339 413
#     4  12  22  39  66  97 126 176 230 276 327 401
#     4  11  22  38  64  92 131 167 221 274 333 403
#     4  10  18  40  64  89 121 180 218 264 328 394
#     4  10  22  43  68 100 125 180 224 272 357 414
#
# _framework density 20.637083000000001
#
# number of rings (size 3 to 8) (size 9 to 14) (size 15 to 20)
#    0.000    1.200    8.000    0.000    0.000    0.800 
#    0.000    5.000    4.400    1.200    0.000   33.600 
#    0.000    0.000    0.000    0.000    0.000    0.000 
#
# Total GULP energy -222805.675935 kJ/mol
# GULP energy per Si atom -5570.141898 kJ/mol
# Density = 2.059011 g / cm^3
# Si number density = 20.637083 Si / 1000 Ang^3
#
#
#
# Elastic Constant Matrix: (Units=GPa)
#
#
# Indices 1 2 3 4 5 6 
#
# 1 53.5532 40.3586 19.2149 0.0000 0.0000 0.0000
# 2 40.3586 53.5520 19.2149 0.0000 0.0000 0.0000
# 3 19.2149 19.2149 145.5827 0.0000 0.0000 0.0000
# 4 0.0000 0.0000 0.0000 5.8355 0.0000 0.0000
# 5 0.0000 0.0000 0.0000 0.0000 5.8425 0.0000
# 6 0.0000 0.0000 0.0000 0.0000 0.0000 -2.6811
#
#
#
# Elastic Compliance Matrix: (Units=1/GPa)
#
#
# Indices 1 2 3 4 5 6 
#
# 1 0.043524 -0.032268 -0.001486 0.000000 0.000000 0.000000
# 2 -0.032268 0.043525 -0.001486 0.000000 0.000000 0.000000
# 3 -0.001486 -0.001486 0.007261 0.000000 0.000000 0.000000
# 4 0.000000 0.000000 0.000000 0.171365 0.000000 0.000000
# 5 0.000000 0.000000 0.000000 0.000000 0.171160 0.000000
# 6 0.000000 0.000000 0.000000 0.000000 0.000000 -0.372982
#
#
# Mechanical properties :
#
#
# Convention : Reuss Voigt Hill
#
# Bulk Modulus (GPa) = 41.96207 45.58497 43.77352
# Shear Modulus (GPa) = 35.14343 13.39268 24.26806
#
# Velocity S-wave (km/s) = 4.13113 2.55024 3.43292
# Velocity P-wave (km/s) = 6.56753 5.55053 6.08033
#
# Compressibility (1/GPa) = 0.02383104
#
# Stress axis : x y z
#
# Youngs Moduli (GPa) = 22.97602 22.97548 137.71965
#
# Poissons Ratio (x) = 0.74137 0.20460
# Poissons Ratio (y) = 0.74139 0.20461
# Poissons Ratio (z) = 0.03413 0.03414
#
# Static dielectric constant tensor:
#      x y z
#    x 1.751420 0.000000 0.000000 
#    y 0.000000 1.751420 0.000000 
#    z 0.000000 0.000000 1.768230 
# 
# From -- ./inp_files/1900.got.cif
#   From: 2010.05.17/outbox.cif.g08.bks.cpg/sg93_1_cif.got.tgz:1900.got - 2010.06.03 19:38:44.
