data_PCOD9549651
_publ_section_title
;
Structure prediction by ZEFSAII (Michael W. Deem and Ramdas Pophale) SiO2 
 PCOD9549651
Probable space group: P 42 2 2
;
_chemical_formula_sum "Si O2"
_cell_formula_units_Z 38
_cell_length_a 12.268887
_cell_length_b 12.268887
_cell_length_c 13.942247
_cell_angle_alpha 90.000000
_cell_angle_beta 90.000000
_cell_angle_gamma 90.000000
_cell_volume 2098.664931
_symmetry_space_group_name_H-M "P 42 2 2"
_symmetry_group_IT_number 93
_symmetry_cell_setting 'tetragonal'
loop_
_space_group_symop_operation_xyz
x,y,z
-y,x,1/2+z
-x,-y,z
y,-x,1/2+z
x,-y,-z
-x,y,-z
y,x,1/2-z
-y,-x,1/2-z
loop_
_atom_site_type_symbol
_atom_site_label
_atom_site_fract_x
_atom_site_fract_y
_atom_site_fract_z
Si Si1 0.654433 0.891150 0.620625
Si Si2 0.126050 0.036493 0.103607
Si Si3 0.709466 0.523145 0.114033
Si Si4 0.869446 0.296098 0.895164
Si Si5 0.500000 0.500000 0.250000
Si Si6 0.852055 0.852055 0.750000
O O1 0.552844 0.813384 0.639768
O O2 0.678294 0.883278 0.507865
O O3 0.758996 0.842637 0.672251
O O4 0.651625 0.019296 0.647540
O O5 0.133234 0.165908 0.117432
O O6 0.164031 0.966195 0.194351
O O7 0.000000 0.000000 0.098895
O O8 0.174283 0.000000 0.000000
O O9 0.757618 0.644102 0.131417
O O10 0.605961 0.500596 0.180745
O O11 0.686099 0.500000 0.000000
#
# Coordination Sequence:
#
# PCOD9549651 Si02
#       6
#     8   8   8   8   2   4
#     4  10  19  34  54  84 111 148 192 238 285 337
#     4  11  19  32  48  84 127 158 188 225 277 351
#     4  10  23  40  63  81 108 149 191 249 298 338
#     4  10  19  36  55  81 121 150 189 233 284 341
#     4  12  24  44  58  86 110 138 202 252 290 362
#     4  12  20  28  53  81 120 158 190 229 285 350
#
# _framework density 18.106750999999999
#
# number of rings (size 3 to 8) (size 9 to 14) (size 15 to 20)
#    0.000    1.474    4.211    3.158    0.000    4.211 
#    0.000    0.000    0.000    0.000    0.000    0.000 
#    0.000    0.000    0.000    0.000    0.000    0.000 
#
# Total GULP energy -211814.383149 kJ/mol
# GULP energy per Si atom -5574.062714 kJ/mol
# Density = 1.806554 g / cm^3
# Si number density = 18.106751 Si / 1000 Ang^3
#
#
#
# Elastic Constant Matrix: (Units=GPa)
#
#
# Indices 1 2 3 4 5 6 
#
# 1 -117.8374 289.7190 41.1292 0.0000 0.0000 0.0000
# 2 289.7190 -117.8374 41.1292 0.0000 0.0000 0.0000
# 3 41.1292 41.1292 59.6184 0.0000 0.0000 0.0000
# 4 0.0000 0.0000 0.0000 49.4347 0.0000 0.0000
# 5 0.0000 0.0000 0.0000 0.0000 49.4347 0.0000
# 6 0.0000 0.0000 0.0000 0.0000 0.0000 17.4171
#
#
#
# Elastic Compliance Matrix: (Units=1/GPa)
#
#
# Indices 1 2 3 4 5 6 
#
# 1 0.003116 0.005570 -0.005992 0.000000 0.000000 0.000000
# 2 0.005570 0.003116 -0.005992 0.000000 0.000000 0.000000
# 3 -0.005992 -0.005992 0.025041 0.000000 0.000000 0.000000
# 4 0.000000 0.000000 0.000000 0.020229 0.000000 0.000000
# 5 0.000000 0.000000 0.000000 0.000000 0.020229 0.000000
# 6 0.000000 0.000000 0.000000 0.000000 0.000000 0.057415
#
#
# Mechanical properties :
#
#
# Convention : Reuss Voigt Hill
#
# Bulk Modulus (GPa) = 54.21802 63.09983 58.65892
# Shear Modulus (GPa) = 33.75607 -13.27829 10.23889
#
# Velocity S-wave (km/s) = 4.32242 -2.71095 2.38055
# Velocity P-wave (km/s) = 7.41077 5.01253 6.32633
#
# Compressibility (1/GPa) = 0.01844405
#
# Stress axis : x y z
#
# Youngs Moduli (GPa) = 320.92818 320.92818 39.93493
#
# Poissons Ratio (x) = -1.78744 0.23929
# Poissons Ratio (y) = -1.78744 0.23929
# Poissons Ratio (z) = 1.92299 1.92299
#
# Static dielectric constant tensor:
#      x y z
#    x 1.677570 0.000000 0.000000 
#    y 0.000000 1.677570 0.000000 
#    z 0.000000 0.000000 1.647100 
# 
# From -- ./inp_files/4388.got.cif
#   From: 2010.05.17/outbox.cif.g08.bks.cpg/sg93_3_cif.got.tgz:4388.got - 2010.06.03 19:38:44.
