data_PCOD9549636
_publ_section_title
;
Structure prediction by ZEFSAII (Michael W. Deem and Ramdas Pophale) SiO2 
 PCOD9549636
Probable space group: P 42 2 2
;
_chemical_formula_sum "Si O2"
_cell_formula_units_Z 64
_cell_length_a 20.381619
_cell_length_b 20.381619
_cell_length_c 9.116550
_cell_angle_alpha 90.000000
_cell_angle_beta 90.000000
_cell_angle_gamma 90.000000
_cell_volume 3787.109619
_symmetry_space_group_name_H-M "P 42 2 2"
_symmetry_group_IT_number 93
_symmetry_cell_setting 'tetragonal'
loop_
_space_group_symop_operation_xyz
x,y,z
-y,x,1/2+z
-x,-y,z
y,-x,1/2+z
x,-y,-z
-x,y,-z
y,x,1/2-z
-y,-x,1/2-z
loop_
_atom_site_type_symbol
_atom_site_label
_atom_site_fract_x
_atom_site_fract_y
_atom_site_fract_z
Si Si1 0.130192 0.639195 0.971934
Si Si2 0.848133 0.742988 0.780880
Si Si3 0.953629 0.598391 0.264711
Si Si4 0.899839 0.453296 0.232451
Si Si5 0.151005 0.059898 0.811982
Si Si6 0.908638 0.818828 0.350197
Si Si7 0.193795 0.299688 0.289866
Si Si8 0.135434 0.363667 0.534121
O O1 0.147698 0.700097 0.074334
O O2 0.126539 0.576970 0.080664
O O3 0.062830 0.641561 0.878193
O O4 0.180530 0.647935 0.838368
O O5 0.778373 0.778373 0.750000
O O6 0.899838 0.800993 0.792805
O O7 0.872055 0.695271 0.650188
O O8 0.915261 0.529870 0.234449
O O9 0.923655 0.626001 0.416182
O O10 0.029924 0.581697 0.266015
O O11 0.856764 0.428624 0.368614
O O12 0.078709 0.078709 0.750000
O O13 0.175064 0.985230 0.809746
O O14 0.163173 0.088997 0.976295
O O15 0.871012 0.871012 0.250000
O O16 0.868132 0.751207 0.318593
O O17 0.254166 0.254166 0.250000
O O18 0.197017 0.341721 0.437233
#
# Coordination Sequence:
#
# PCOD9549636 Si02
#       8
#     8   8   8   8   8   8   8   8
#     4  10  21  31  48  70  86 121 154 179 229 289
#     4  10  20  35  51  68  92 115 148 200 248 278
#     4  10  20  33  47  68 100 128 151 188 233 279
#     4  10  20  33  47  68 100 128 151 188 233 279
#     4  10  22  37  51  66  85 109 138 182 240 300
#     4  10  22  37  51  66  85 109 138 182 240 300
#     4  10  20  35  51  68  92 115 148 200 248 278
#     4  10  19  31  50  70  86 119 158 177 225 289
#
# _framework density 16.899432999999998
#
# number of rings (size 3 to 8) (size 9 to 14) (size 15 to 20)
#    0.000    2.000    1.250    2.250    5.250    8.750 
#    0.000    1.250    0.000    0.000    0.000    0.000 
#    0.000    0.000    0.000    0.000    0.000    0.000 
#
# Total GULP energy -356342.370856 kJ/mol
# GULP energy per Si atom -5567.849545 kJ/mol
# Density = 1.686097 g / cm^3
# Si number density = 16.899433 Si / 1000 Ang^3
#
#
#
# Elastic Constant Matrix: (Units=GPa)
#
#
# Indices 1 2 3 4 5 6 
#
# 1 50.5263 19.3573 19.2578 0.0000 0.0000 0.0000
# 2 19.3573 50.5263 19.2578 0.0000 0.0000 0.0000
# 3 19.2578 19.2578 85.9922 0.0000 0.0000 0.0000
# 4 0.0000 0.0000 0.0000 22.6350 0.0000 0.0000
# 5 0.0000 0.0000 0.0000 0.0000 22.6350 0.0000
# 6 0.0000 0.0000 0.0000 0.0000 0.0000 22.9223
#
#
#
# Elastic Compliance Matrix: (Units=1/GPa)
#
#
# Indices 1 2 3 4 5 6 
#
# 1 0.024204 -0.007879 -0.003656 0.000000 0.000000 0.000000
# 2 -0.007879 0.024204 -0.003656 0.000000 0.000000 0.000000
# 3 -0.003656 -0.003656 0.013266 0.000000 0.000000 0.000000
# 4 0.000000 0.000000 0.000000 0.044179 0.000000 0.000000
# 5 0.000000 0.000000 0.000000 0.000000 0.044179 0.000000
# 6 0.000000 0.000000 0.000000 0.000000 0.000000 0.043626
#
#
# Mechanical properties :
#
#
# Convention : Reuss Voigt Hill
#
# Bulk Modulus (GPa) = 31.95721 33.64343 32.80032
# Shear Modulus (GPa) = 21.32458 22.24990 21.78724
#
# Velocity S-wave (km/s) = 3.55611 3.63244 3.59448
# Velocity P-wave (km/s) = 5.98435 6.12732 6.05626
#
# Compressibility (1/GPa) = 0.03129184
#
# Stress axis : x y z
#
# Youngs Moduli (GPa) = 41.31585 41.31585 75.37846
#
# Poissons Ratio (x) = 0.32554 0.27557
# Poissons Ratio (y) = 0.32554 0.27557
# Poissons Ratio (z) = 0.15104 0.15104
#
# Static dielectric constant tensor:
#      x y z
#    x 1.598010 0.000000 0.000000 
#    y 0.000000 1.598010 0.000000 
#    z 0.000000 0.000000 1.653860 
# 
# From -- ./inp_files/2287.got.cif
#   From: 2010.05.17/outbox.cif.g08.bks.cpg/sg93_2_cif.got.tgz:2287.got - 2010.06.03 19:38:44.
