data_PCOD9549065
_publ_section_title
;
Structure prediction by ZEFSAII (Michael W. Deem and Ramdas Pophale) SiO2 
 PCOD9549065
Probable space group: P 41 21 2
;
_chemical_formula_sum "Si O2"
_cell_formula_units_Z 52
_cell_length_a 17.387567
_cell_length_b 17.387567
_cell_length_c 8.470275
_cell_angle_alpha 90.000000
_cell_angle_beta 90.000000
_cell_angle_gamma 90.000000
_cell_volume 2560.796948
_symmetry_space_group_name_H-M "P 41 21 2"
_symmetry_group_IT_number 92
_symmetry_cell_setting 'tetragonal'
loop_
_space_group_symop_operation_xyz
x,y,z
1/2-y,1/2+x,1/4+z
-x,-y,1/2+z
1/2+y,1/2-x,3/4+z
1/2+x,1/2-y,3/4-z
1/2-x,1/2+y,1/4-z
y,x,-z
-y,-x,1/2-z
loop_
_atom_site_type_symbol
_atom_site_label
_atom_site_fract_x
_atom_site_fract_y
_atom_site_fract_z
Si Si1 0.391854 0.848159 0.770512
Si Si2 0.780758 0.001521 0.865196
Si Si3 0.385679 0.614322 0.750000
Si Si4 0.200241 0.345989 0.789006
Si Si5 0.332279 0.732811 0.016848
Si Si6 0.417962 0.990505 0.953438
Si Si7 0.937869 0.726347 0.459049
O O1 0.450392 0.786120 0.697968
O O2 0.327181 0.863817 0.639065
O O3 0.353883 0.810174 0.924428
O O4 0.436157 0.922248 0.830995
O O5 0.773911 0.977296 0.681151
O O6 0.757091 0.089562 0.894582
O O7 0.859127 0.971173 0.949058
O O8 0.355254 0.664780 0.897565
O O9 0.231794 0.258738 0.795677
O O10 0.120654 0.337384 0.885644
O O11 0.385151 0.726899 0.170620
O O12 0.464990 0.060681 0.879307
O O13 0.326584 0.002964 0.946388
#
# Coordination Sequence:
#
# PCOD9549065 Si02
#       7
#     8   8   4   8   8   8   8
#     4  10  21  38  56  82 121 162 209 245 305 378
#     4  10  22  37  57  85 116 158 207 254 312 377
#     4  10  20  40  60  82 120 154 208 252 324 376
#     4  11  21  36  61  82 114 160 209 266 302 364
#     4  11  19  40  58  84 115 165 210 259 303 369
#     4  12  25  35  52  81 128 171 198 238 297 379
#     4  11  23  37  54  84 123 161 210 248 304 371
#
# _framework density 20.306179
#
# number of rings (size 3 to 8) (size 9 to 14) (size 15 to 20)
#    0.000    1.231    6.154    2.308    8.615    0.000 
#    0.000    0.000    0.000    0.000    0.000    4.308 
#    4.615    0.000    0.000    0.000    0.000    0.000 
#
# Total GULP energy -290238.841002 kJ/mol
# GULP energy per Si atom -5581.516173 kJ/mol
# Density = 2.025996 g / cm^3
# Si number density = 20.306179 Si / 1000 Ang^3
#
#
#
# Elastic Constant Matrix: (Units=GPa)
#
#
# Indices 1 2 3 4 5 6 
#
# 1 36.7997 -6.0225 15.3117 0.0000 0.0000 0.0000
# 2 -6.0225 36.7997 15.3116 0.0000 0.0000 0.0000
# 3 15.3117 15.3116 94.4068 0.0000 0.0000 0.0000
# 4 0.0000 0.0000 0.0000 26.5905 0.0000 0.0000
# 5 0.0000 0.0000 0.0000 0.0000 26.5906 0.0000
# 6 0.0000 0.0000 0.0000 0.0000 0.0000 24.8788
#
#
#
# Elastic Compliance Matrix: (Units=1/GPa)
#
#
# Indices 1 2 3 4 5 6 
#
# 1 0.031048 0.007696 -0.006284 0.000000 0.000000 0.000000
# 2 0.007696 0.031048 -0.006284 0.000000 0.000000 0.000000
# 3 -0.006284 -0.006284 0.012631 0.000000 0.000000 0.000000
# 4 0.000000 0.000000 0.000000 0.037607 0.000000 0.000000
# 5 0.000000 0.000000 0.000000 0.000000 0.037607 0.000000
# 6 0.000000 0.000000 0.000000 0.000000 0.000000 0.040195
#
#
# Mechanical properties :
#
#
# Convention : Reuss Voigt Hill
#
# Bulk Modulus (GPa) = 15.38854 24.13420 19.76137
# Shear Modulus (GPa) = 22.56914 25.17233 23.87073
#
# Velocity S-wave (km/s) = 3.33745 3.52467 3.43233
# Velocity P-wave (km/s) = 4.73773 5.33623 5.04586
#
# Compressibility (1/GPa) = 0.06498343
#
# Stress axis : x y z
#
# Youngs Moduli (GPa) = 32.20801 32.20806 79.17179
#
# Poissons Ratio (x) = -0.24787 0.49750
# Poissons Ratio (y) = -0.24787 0.49750
# Poissons Ratio (z) = 0.20239 0.20239
#
# Static dielectric constant tensor:
#      x y z
#    x 1.777120 0.000000 0.000000 
#    y 0.000000 1.777120 0.000000 
#    z 0.000000 0.000000 1.767060 
# 
# From -- ./inp_files/1572.got.cif
#   From: 2010.05.17/outbox.cif.g08.bks.cpg/sg92_1_cif.got.tgz:1572.got - 2010.06.03 19:35:17.
