data_PCOD9549062
_publ_section_title
;
Structure prediction by ZEFSAII (Michael W. Deem and Ramdas Pophale) SiO2 
 PCOD9549062
Probable space group: P 41 21 2
;
_chemical_formula_sum "Si O2"
_cell_formula_units_Z 40
_cell_length_a 16.630451
_cell_length_b 16.630451
_cell_length_c 5.695190
_cell_angle_alpha 90.000000
_cell_angle_beta 90.000000
_cell_angle_gamma 90.000000
_cell_volume 1575.129522
_symmetry_space_group_name_H-M "P 41 21 2"
_symmetry_group_IT_number 92
_symmetry_cell_setting 'tetragonal'
loop_
_space_group_symop_operation_xyz
x,y,z
1/2-y,1/2+x,1/4+z
-x,-y,1/2+z
1/2+y,1/2-x,3/4+z
1/2+x,1/2-y,3/4-z
1/2-x,1/2+y,1/4-z
y,x,-z
-y,-x,1/2-z
loop_
_atom_site_type_symbol
_atom_site_label
_atom_site_fract_x
_atom_site_fract_y
_atom_site_fract_z
Si Si1 0.957871 0.606894 0.995528
Si Si2 0.233015 0.646425 0.490724
Si Si3 0.694937 0.641959 0.752746
Si Si4 0.015807 0.275115 0.866045
Si Si5 0.422066 0.607180 0.509425
O O1 0.024984 0.587151 0.805199
O O2 0.895595 0.676406 0.931153
O O3 0.003881 0.646472 0.216212
O O4 0.214137 0.740096 0.492864
O O5 0.209032 0.597665 0.256718
O O6 0.326664 0.627257 0.516273
O O7 0.648468 0.648468 0.500000
O O8 0.748207 0.561058 0.766049
O O9 0.648027 0.648027 0.000000
O O10 0.031962 0.191749 0.729146
O O11 0.439674 0.560327 0.750000
O O12 0.431622 0.568379 0.250000
#
# Coordination Sequence:
#
# PCOD9549062 Si02
#       5
#     8   8   8   8   8
#     4  12  28  41  65 105 155 198 242 295 381 459
#     4  11  24  45  73 101 144 198 256 303 363 459
#     4  12  29  46  74 112 154 198 255 317 382 449
#     4  11  25  46  73 102 148 192 246 318 379 437
#     4  10  20  39  71 105 127 180 247 293 350 427
#
# _framework density 25.394739999999999
#
# number of rings (size 3 to 8) (size 9 to 14) (size 15 to 20)
#    0.000    0.800    2.000    4.800   14.000    0.000 
#    0.000    0.000    0.000   14.400    0.000    0.000 
#    0.000    0.000    0.000    0.000    0.000    0.000 
#
# Total GULP energy -223790.081056 kJ/mol
# GULP energy per Si atom -5594.752026 kJ/mol
# Density = 2.533694 g / cm^3
# Si number density = 25.394740 Si / 1000 Ang^3
#
#
#
# Elastic Constant Matrix: (Units=GPa)
#
#
# Indices 1 2 3 4 5 6 
#
# 1 -33.0229 122.6763 13.8934 0.0000 0.0000 0.0000
# 2 122.6763 -33.0187 13.8945 0.0000 0.0000 0.0000
# 3 13.8934 13.8945 152.6319 0.0000 0.0000 0.0000
# 4 0.0000 0.0000 0.0000 35.1240 0.0000 0.0000
# 5 0.0000 0.0000 0.0000 0.0000 35.1241 0.0000
# 6 0.0000 0.0000 0.0000 0.0000 0.0000 35.5366
#
#
#
# Elastic Compliance Matrix: (Units=1/GPa)
#
#
# Indices 1 2 3 4 5 6 
#
# 1 0.002527 0.008950 -0.001045 0.000000 0.000000 0.000000
# 2 0.008950 0.002528 -0.001045 0.000000 0.000000 0.000000
# 3 -0.001045 -0.001045 0.006742 0.000000 0.000000 0.000000
# 4 0.000000 0.000000 0.000000 0.028471 0.000000 0.000000
# 5 0.000000 0.000000 0.000000 0.000000 0.028470 0.000000
# 6 0.000000 0.000000 0.000000 0.000000 0.000000 0.028140
#
#
# Mechanical properties :
#
#
# Convention : Reuss Voigt Hill
#
# Bulk Modulus (GPa) = 39.18804 43.05764 41.12284
# Shear Modulus (GPa) = 54.54777 16.89866 35.72322
#
# Velocity S-wave (km/s) = 4.63967 2.58241 3.75469
# Velocity P-wave (km/s) = 6.64584 5.08763 5.91824
#
# Compressibility (1/GPa) = 0.02551799
#
# Stress axis : x y z
#
# Youngs Moduli (GPa) = 395.67846 395.63214 148.32559
#
# Poissons Ratio (x) = -3.54098 0.15497
# Poissons Ratio (y) = -3.54139 0.15497
# Poissons Ratio (z) = 0.41341 0.41335
#
# Static dielectric constant tensor:
#      x y z
#    x 1.957480 0.000000 0.000000 
#    y 0.000000 1.957480 0.000000 
#    z 0.000000 0.000000 2.175450 
# 
# From -- ./inp_files/401.got.cif
#   From: 2010.05.17/outbox.cif.g08.bks.cpg/sg92_1_cif.got.tgz:401.got - 2010.06.03 19:35:17.
