data_PCOD9549532
_publ_section_title
;
Structure prediction by ZEFSAII (Michael W. Deem and Ramdas Pophale) SiO2 
 PCOD9549532
Probable space group: P 41 21 2
;
_chemical_formula_sum "Si O2"
_cell_formula_units_Z 40
_cell_length_a 15.221321
_cell_length_b 15.221321
_cell_length_c 7.062198
_cell_angle_alpha 90.000000
_cell_angle_beta 90.000000
_cell_angle_gamma 90.000000
_cell_volume 1636.230859
_symmetry_space_group_name_H-M "P 41 21 2"
_symmetry_group_IT_number 92
_symmetry_cell_setting 'tetragonal'
loop_
_space_group_symop_operation_xyz
x,y,z
1/2-y,1/2+x,1/4+z
-x,-y,1/2+z
1/2+y,1/2-x,3/4+z
1/2+x,1/2-y,3/4-z
1/2-x,1/2+y,1/4-z
y,x,-z
-y,-x,1/2-z
loop_
_atom_site_type_symbol
_atom_site_label
_atom_site_fract_x
_atom_site_fract_y
_atom_site_fract_z
Si Si1 0.439799 0.200853 0.114049
Si Si2 0.373031 0.712997 0.019390
Si Si3 0.353737 0.797619 0.605389
Si Si4 0.944964 0.944964 0.500000
Si Si5 0.396557 0.396557 0.000000
Si Si6 0.540680 0.110324 0.598570
O O1 0.542664 0.198340 0.086114
O O2 0.391949 0.190241 0.317550
O O3 0.411040 0.294040 0.032788
O O4 0.410553 0.114604 0.004206
O O5 0.418886 0.620844 0.076494
O O6 0.443451 0.785404 0.088376
O O7 0.352272 0.757032 0.815041
O O8 0.269738 0.685951 0.053151
O O9 0.042973 0.928182 0.425573
O O10 0.447135 0.072896 0.668006
#
# Coordination Sequence:
#
# PCOD9549532 Si02
#       6
#     8   8   8   4   4   8
#     4  12  24  49  72 112 154 203 267 335 404 483
#     4  11  26  50  74 110 157 207 253 338 402 481
#     4  11  26  47  79 108 155 204 263 331 411 479
#     4  12  26  51  78 120 161 210 284 332 408 474
#     4  12  28  47  86 112 159 224 270 342 394 502
#     4  12  27  44  75 112 156 206 261 330 411 490
#
# _framework density 24.446427
#
# number of rings (size 3 to 8) (size 9 to 14) (size 15 to 20)
#    0.000    0.400    4.000    3.600    8.400    0.000 
#    3.600    0.000    0.000    0.000    0.000    0.000 
#    0.000    0.000    0.000    0.000    0.000    0.000 
#
# Total GULP energy -222914.028518 kJ/mol
# GULP energy per Si atom -5572.850713 kJ/mol
# Density = 2.439079 g / cm^3
# Si number density = 24.446427 Si / 1000 Ang^3
#
#
#
# Elastic Constant Matrix: (Units=GPa)
#
#
# Indices 1 2 3 4 5 6 
#
# 1 137.2917 -1.3603 10.0901 0.0000 0.0000 0.0000
# 2 -1.3603 137.2917 10.0901 0.0000 0.0000 0.0000
# 3 10.0901 10.0901 56.9019 0.0000 0.0000 0.0000
# 4 0.0000 0.0000 0.0000 33.8809 0.0000 0.0000
# 5 0.0000 0.0000 0.0000 0.0000 33.8809 0.0000
# 6 0.0000 0.0000 0.0000 0.0000 0.0000 16.8418
#
#
#
# Elastic Compliance Matrix: (Units=1/GPa)
#
#
# Indices 1 2 3 4 5 6 
#
# 1 0.007384 0.000172 -0.001340 0.000000 0.000000 0.000000
# 2 0.000172 0.007384 -0.001340 0.000000 0.000000 0.000000
# 3 -0.001340 -0.001340 0.018049 0.000000 0.000000 0.000000
# 4 0.000000 0.000000 0.000000 0.029515 0.000000 0.000000
# 5 0.000000 0.000000 0.000000 0.000000 0.029515 0.000000
# 6 0.000000 0.000000 0.000000 0.000000 0.000000 0.059376
#
#
# Mechanical properties :
#
#
# Convention : Reuss Voigt Hill
#
# Bulk Modulus (GPa) = 35.96960 41.01387 38.49174
# Shear Modulus (GPa) = 30.21032 37.76509 33.98771
#
# Velocity S-wave (km/s) = 3.51917 3.93467 3.73271
# Velocity P-wave (km/s) = 5.59092 6.12010 5.86149
#
# Compressibility (1/GPa) = 0.02780125
#
# Stress axis : x y z
#
# Youngs Moduli (GPa) = 135.42929 135.42929 55.40393
#
# Poissons Ratio (x) = -0.02324 0.07423
# Poissons Ratio (y) = -0.02324 0.07423
# Poissons Ratio (z) = 0.18145 0.18145
#
# Static dielectric constant tensor:
#      x y z
#    x 2.022130 0.000000 0.000000 
#    y 0.000000 2.022130 0.000000 
#    z 0.000000 0.000000 2.092970 
# 
# From -- ./inp_files/1380.got.cif
#   From: 2010.05.17/outbox.cif.g08.bks.cpg/sg92_1_cif.got.tgz:1380.got - 2010.06.03 19:35:17.
