data_PCOD9549958
_publ_section_title
;
Structure prediction by ZEFSAII (Michael W. Deem and Ramdas Pophale) SiO2 
 PCOD9549958
Probable space group: P 42 21 2
;
_chemical_formula_sum "Si O2"
_cell_formula_units_Z 60
_cell_length_a 11.449231
_cell_length_b 11.449231
_cell_length_c 20.104535
_cell_angle_alpha 90.000000
_cell_angle_beta 90.000000
_cell_angle_gamma 90.000000
_cell_volume 2635.400769
_symmetry_space_group_name_H-M "P 42 21 2"
_symmetry_group_IT_number 94
_symmetry_cell_setting 'tetragonal'
loop_
_space_group_symop_operation_xyz
x,y,z
1/2-y,1/2+x,1/2+z
-x,-y,z
1/2+y,1/2-x,1/2+z
1/2+x,1/2-y,1/2-z
1/2-x,1/2+y,1/2-z
y,x,-z
-y,-x,-z
loop_
_atom_site_type_symbol
_atom_site_label
_atom_site_fract_x
_atom_site_fract_y
_atom_site_fract_z
Si Si1 0.334771 0.892304 0.303603
Si Si2 0.632118 0.824402 0.519549
Si Si3 0.500000 0.500000 0.616602
Si Si4 0.220038 0.861064 0.161160
Si Si5 0.412213 0.156908 0.298411
Si Si6 0.743302 0.129261 0.647386
Si Si7 0.768942 0.902983 0.044831
Si Si8 0.003613 0.814708 0.475442
O O1 0.290647 0.881830 0.227846
O O2 0.453169 0.820700 0.316334
O O3 0.227981 0.843124 0.345750
O O4 0.374720 0.024722 0.309832
O O5 0.721353 0.721353 0.500000
O O6 0.614534 0.801578 0.598621
O O7 0.501849 0.790902 0.498663
O O8 0.689087 0.948928 0.502640
O O9 0.574199 0.593101 0.660115
O O10 0.561403 0.399417 0.571260
O O11 0.179224 0.728488 0.158521
O O12 0.399700 0.196467 0.221036
O O13 0.638495 0.187392 0.605244
O O14 0.795348 0.023774 0.603634
O O15 0.791879 0.791879 0.000000
O O16 0.120899 0.879101 0.500000
O O17 0.903692 0.903692 0.500000
#
# Coordination Sequence:
#
# PCOD9549958 Si02
#       8
#     8   8   4   8   8   8   8   8
#     4  10  22  38  58  88 120 158 207 261 320 385
#     4  10  21  37  61  90 119 163 210 257 323 391
#     4  10  19  34  56  86 118 154 193 252 316 370
#     4  10  20  36  58  85 118 155 203 255 316 390
#     4  10  21  38  59  84 120 159 203 263 321 380
#     4  11  23  40  62  89 121 165 212 260 325 394
#     4  11  21  36  60  90 126 159 205 262 318 390
#     4  10  23  43  62  86 125 168 217 271 325 396
#
# _framework density 22.766936000000001
#
# number of rings (size 3 to 8) (size 9 to 14) (size 15 to 20)
#    0.000    1.733    0.000    5.400    0.000    5.867 
#    0.000    6.667    0.000    0.000    0.000    0.000 
#    0.000    0.000    0.000    0.000    0.000    0.000 
#
# Total GULP energy -334473.255515 kJ/mol
# GULP energy per Si atom -5574.554259 kJ/mol
# Density = 2.271512 g / cm^3
# Si number density = 22.766936 Si / 1000 Ang^3
#
#
#
# Elastic Constant Matrix: (Units=GPa)
#
#
# Indices 1 2 3 4 5 6 
#
# 1 71.7741 64.9930 0.9408 0.0000 0.0000 0.0000
# 2 64.9930 71.7744 0.9402 0.0000 0.0000 0.0000
# 3 0.9408 0.9402 32.7897 0.0000 0.0000 0.0000
# 4 0.0000 0.0000 0.0000 25.0705 0.0000 0.0000
# 5 0.0000 0.0000 0.0000 0.0000 25.0705 0.0000
# 6 0.0000 0.0000 0.0000 0.0000 0.0000 56.3020
#
#
#
# Elastic Compliance Matrix: (Units=1/GPa)
#
#
# Indices 1 2 3 4 5 6 
#
# 1 0.077391 -0.070076 -0.000211 0.000000 0.000000 0.000000
# 2 -0.070076 0.077390 -0.000208 0.000000 0.000000 0.000000
# 3 -0.000211 -0.000208 0.030509 0.000000 0.000000 0.000000
# 4 0.000000 0.000000 0.000000 0.039888 0.000000 0.000000
# 5 0.000000 0.000000 0.000000 0.000000 0.039888 0.000000
# 6 0.000000 0.000000 0.000000 0.000000 0.000000 0.017761
#
#
# Mechanical properties :
#
#
# Convention : Reuss Voigt Hill
#
# Bulk Modulus (GPa) = 22.57371 34.45404 28.51387
# Shear Modulus (GPa) = 11.40032 28.58621 19.99326
#
# Velocity S-wave (km/s) = 2.24015 3.54729 2.96661
# Velocity P-wave (km/s) = 4.07771 5.65190 4.92806
#
# Compressibility (1/GPa) = 0.04429932
#
# Stress axis : x y z
#
# Youngs Moduli (GPa) = 12.92146 12.92151 32.77681
#
# Poissons Ratio (x) = 0.90549 0.00692
# Poissons Ratio (y) = 0.90548 0.00683
# Poissons Ratio (z) = 0.00273 0.00269
#
# Static dielectric constant tensor:
#      x y z
#    x 1.836390 0.000000 0.000000 
#    y 0.000000 1.836390 0.000000 
#    z 0.000000 0.000000 1.856930 
# 
# From -- ./inp_files/4821.got.cif
#   From: 2010.05.17/outbox.cif.g08.bks.cpg/sg94_3_cif.got.tgz:4821.got - 2010.06.03 19:43:16.
